441,Ni63Fe12Cr23_9,-230.606997142778, 171.682735468777,Ni63Fe12Cr23,"# generated using pymatgen
 data_Cr7Fe3Ni17
_symmetry_space_group_name_H-M   'P 1'
_cell_length_a   7.46557558
_cell_length_b   7.46557558
_cell_length_c   10.55791823
_cell_angle_alpha   90.00000000
_cell_angle_beta   90.00000000
_cell_angle_gamma   90.00000000
_symmetry_Int_Tables_number   1
_chemical_formula_structural   Cr7Fe3Ni17
_chemical_formula_sum   'Cr14 Fe6 Ni34'
_cell_volume   588.44365889
_cell_formula_units_Z   2
loop_
 _symmetry_equiv_pos_site_id
 _symmetry_equiv_pos_as_xyz
  1  'x, y, z'
loop_
 _atom_site_type_symbol
 _atom_site_label
 _atom_site_symmetry_multiplicity
 _atom_site_fract_x
 _atom_site_fract_y
 _atom_site_fract_z
 _atom_site_occupancy
  Ni  Ni0  1  0.99908289  0.99939644  0.99937553  1
  Ni  Ni1  1  0.16866844  0.16831738  0.16705805  1
  Cr  Cr2  1  0.00015901  0.99857827  0.33201562  1
  Cr  Cr3  1  0.00064443  0.33391780  0.99998641  1
  Ni  Ni4  1  0.16766237  0.49925429  0.16687169  1
  Cr  Cr5  1  0.00073331  0.33671200  0.33173141  1
  Ni  Ni6  1  0.99938313  0.66719798  0.00027467  1
  Cr  Cr7  1  0.16656013  0.83221245  0.16728346  1
  Ni  Ni8  1  0.99815748  0.66534087  0.33261995  1
  Cr  Cr9  1  0.33272327  0.00062312  0.99882283  1
  Fe  Fe10  1  0.49822082  0.16808801  0.16657154  1
  Ni  Ni11  1  0.33611904  0.00013568  0.33334530  1
  Ni  Ni12  1  0.33467755  0.33535807  0.00114114  1
  Fe  Fe13  1  0.49928304  0.50210477  0.16543232  1
  Fe  Fe14  1  0.33454749  0.33395460  0.33202575  1
  Ni  Ni15  1  0.33387822  0.66405123  0.99912919  1
  Ni  Ni16  1  0.50153301  0.83159531  0.16813120  1
  Ni  Ni17  1  0.33551757  0.66701092  0.33286292  1
  Cr  Cr18  1  0.66812552  0.00030306  0.00076431  1
  Fe  Fe19  1  0.83428506  0.16653984  0.16446908  1
  Cr  Cr20  1  0.66378718  0.99749416  0.33309984  1
  Ni  Ni21  1  0.66554513  0.33505911  0.99990601  1
  Ni  Ni22  1  0.83250723  0.50279284  0.16653599  1
  Cr  Cr23  1  0.66558531  0.33542716  0.33330571  1
  Ni  Ni24  1  0.66703340  0.66504204  0.00079356  1
  Ni  Ni25  1  0.83210298  0.83059082  0.16604883  1
  Ni  Ni26  1  0.66661899  0.66717415  0.33423383  1
  Cr  Cr27  1  0.16975765  0.16594596  0.50244784  1
  Ni  Ni28  1  0.00139048  0.00205152  0.66916084  1
  Ni  Ni29  1  0.16648078  0.16525585  0.83123213  1
  Cr  Cr30  1  0.16789897  0.50025900  0.49979145  1
  Ni  Ni31  1  0.99928623  0.33211674  0.66873373  1
  Ni  Ni32  1  0.16871100  0.50078586  0.83397460  1
  Cr  Cr33  1  0.16824428  0.83409060  0.49912094  1
  Cr  Cr34  1  0.99898671  0.66562308  0.66728329  1
  Ni  Ni35  1  0.16667636  0.83425337  0.83382033  1
  Ni  Ni36  1  0.49798268  0.16724240  0.50028067  1
  Ni  Ni37  1  0.33328700  0.00080406  0.66744641  1
  Ni  Ni38  1  0.49948536  0.16981040  0.83267394  1
  Ni  Ni39  1  0.50230231  0.50130796  0.50054088  1
  Ni  Ni40  1  0.33474877  0.33272133  0.66745895  1
  Ni  Ni41  1  0.50069350  0.49967169  0.83401040  1
  Ni  Ni42  1  0.50061212  0.83174670  0.49986941  1
  Ni  Ni43  1  0.33660289  0.66676973  0.66830377  1
  Fe  Fe44  1  0.49839421  0.83049749  0.83252521  1
  Cr  Cr45  1  0.83288110  0.16785171  0.50316294  1
  Cr  Cr46  1  0.66535643  0.99955955  0.66643057  1
  Ni  Ni47  1  0.83432914  0.16777411  0.83308064  1
  Ni  Ni48  1  0.82968832  0.50299622  0.50070510  1
  Ni  Ni49  1  0.66626038  0.33542924  0.66726414  1
  Ni  Ni50  1  0.83089213  0.49947443  0.83305421  1
  Ni  Ni51  1  0.83102798  0.82970761  0.49934025  1
  Ni  Ni52  1  0.66501152  0.66466125  0.66526651  1
  Fe  Fe53  1  0.83519346  0.83264349  0.83450844  1
" 