5637,Ni63Fe14Cr22_13,-231.62666314606, 178.943349114717,Ni63Fe14Cr22,"# generated using pymatgen
 data_Cr13Fe7Ni34
_symmetry_space_group_name_H-M   'P 1'
_cell_length_a   7.45673664
_cell_length_b   7.45673664
_cell_length_c   10.54541809
_cell_angle_alpha   90.00000000
_cell_angle_beta   90.00000000
_cell_angle_gamma   90.00000000
_symmetry_Int_Tables_number   1
_chemical_formula_structural   Cr13Fe7Ni34
_chemical_formula_sum   'Cr13 Fe7 Ni34'
_cell_volume   586.35605249
_cell_formula_units_Z   1
loop_
 _symmetry_equiv_pos_site_id
 _symmetry_equiv_pos_as_xyz
  1  'x, y, z'
loop_
 _atom_site_type_symbol
 _atom_site_label
 _atom_site_symmetry_multiplicity
 _atom_site_fract_x
 _atom_site_fract_y
 _atom_site_fract_z
 _atom_site_occupancy
  Ni  Ni0  1  0.00095335  0.00185146  0.00200220  1
  Ni  Ni1  1  0.16476660  0.16760675  0.16869770  1
  Fe  Fe2  1  1.00066046  0.00149453  0.33444978  1
  Ni  Ni3  1  0.00112104  0.33349345  0.00330718  1
  Ni  Ni4  1  0.16792913  0.50129347  0.16776318  1
  Ni  Ni5  1  0.00100980  0.33303712  0.33424846  1
  Ni  Ni6  1  0.00206210  0.66677395  0.00107653  1
  Ni  Ni7  1  0.16871987  0.83309551  0.16527647  1
  Cr  Cr8  1  0.00119942  0.66319030  0.33469676  1
  Cr  Cr9  1  0.33480725  1.00042476  1.00008195  1
  Ni  Ni10  1  0.50388042  0.16793728  0.16757515  1
  Cr  Cr11  1  0.33413073  0.00221019  0.33334829  1
  Cr  Cr12  1  0.33328497  0.33434231  0.00255921  1
  Ni  Ni13  1  0.50071909  0.50108153  0.16906335  1
  Fe  Fe14  1  0.33296424  0.33477947  0.33361715  1
  Ni  Ni15  1  0.33393747  0.66749880  0.00228854  1
  Ni  Ni16  1  0.50002203  0.83338080  0.16873656  1
  Ni  Ni17  1  0.33442288  0.66721758  0.33215311  1
  Ni  Ni18  1  0.66656780  0.00138624  0.00077021  1
  Ni  Ni19  1  0.83346270  0.16865511  0.16764096  1
  Ni  Ni20  1  0.66660048  0.00179661  0.33484510  1
  Fe  Fe21  1  0.66695834  0.33360956  0.00220025  1
  Ni  Ni22  1  0.83338618  0.49754239  0.16708680  1
  Fe  Fe23  1  0.66825599  0.33410437  0.33398836  1
  Cr  Cr24  1  0.66544635  0.66771199  0.00086163  1
  Cr  Cr25  1  0.83454785  0.83674205  0.16700942  1
  Ni  Ni26  1  0.66663076  0.66783803  0.33418674  1
  Ni  Ni27  1  0.16744068  0.16802930  0.50086436  1
  Cr  Cr28  1  0.00230427  1.00038125  0.66542458  1
  Ni  Ni29  1  0.16713100  0.16602345  0.83236400  1
  Ni  Ni30  1  0.16730278  0.50104009  0.50206271  1
  Ni  Ni31  1  0.00162237  0.33471985  0.66459086  1
  Cr  Cr32  1  0.16854915  0.50138567  0.83196922  1
  Ni  Ni33  1  0.16919749  0.83306274  0.50212282  1
  Ni  Ni34  1  0.00182692  0.66659647  0.66603917  1
  Ni  Ni35  1  0.16780407  0.83428197  0.83452151  1
  Ni  Ni36  1  0.50118373  0.16731986  0.50207537  1
  Ni  Ni37  1  0.33413088  0.00144426  0.66775332  1
  Fe  Fe38  1  0.49937689  0.16783868  0.83292105  1
  Cr  Cr39  1  0.49895711  0.50036593  0.50013440  1
  Ni  Ni40  1  0.33342380  0.33184714  0.66643747  1
  Ni  Ni41  1  0.49938501  0.50073725  0.83290293  1
  Fe  Fe42  1  0.49832219  0.83463847  0.49957520  1
  Ni  Ni43  1  0.33298674  0.66885127  0.66741290  1
  Ni  Ni44  1  0.49840971  0.83307468  0.83339221  1
  Ni  Ni45  1  0.83337223  0.16899353  0.49857829  1
  Cr  Cr46  1  0.66514456  1.00059948  0.66696060  1
  Cr  Cr47  1  0.83520993  0.16759919  0.83645645  1
  Ni  Ni48  1  0.83453282  0.49829265  0.50165006  1
  Ni  Ni49  1  0.66682515  0.33331887  0.66707948  1
  Cr  Cr50  1  0.83464539  0.49945142  0.83377094  1
  Fe  Fe51  1  0.83476008  0.83428721  0.49907128  1
  Cr  Cr52  1  0.66920918  0.66801636  0.66654921  1
  Ni  Ni53  1  0.83583341  0.83504220  0.83512341  1
" 