473,Ni63Cr37_15,-213.871046765679, 141.100438757332,Ni63Cr37,"# generated using pymatgen
 data_Cr17Ni10
_symmetry_space_group_name_H-M   'P 1'
_cell_length_a   7.54703150
_cell_length_b   7.54703150
_cell_length_c   10.67311431
_cell_angle_alpha   90.00000000
_cell_angle_beta   90.00000000
_cell_angle_gamma   90.00000000
_symmetry_Int_Tables_number   1
_chemical_formula_structural   Cr17Ni10
_chemical_formula_sum   'Cr34 Ni20'
_cell_volume   607.91587749
_cell_formula_units_Z   2
loop_
 _symmetry_equiv_pos_site_id
 _symmetry_equiv_pos_as_xyz
  1  'x, y, z'
loop_
 _atom_site_type_symbol
 _atom_site_label
 _atom_site_symmetry_multiplicity
 _atom_site_fract_x
 _atom_site_fract_y
 _atom_site_fract_z
 _atom_site_occupancy
  Ni  Ni0  1  0.99390301  -0.00436352  0.99373697  1
  Cr  Cr1  1  0.16001953  0.15853300  0.16004638  1
  Ni  Ni2  1  -0.00515028  0.99315936  0.32969250  1
  Ni  Ni3  1  -0.00207077  0.32716109  0.99350359  1
  Ni  Ni4  1  0.15964603  0.49510589  0.15958914  1
  Cr  Cr5  1  -0.00354429  0.32740955  0.33002243  1
  Cr  Cr6  1  -0.00359517  0.66242539  -0.00494209  1
  Ni  Ni7  1  0.15916314  0.82853532  0.16349784  1
  Ni  Ni8  1  -0.00389156  0.66451221  0.32709596  1
  Cr  Cr9  1  0.32888224  0.99441417  0.99378023  1
  Cr  Cr10  1  0.49410198  0.16014437  0.16220294  1
  Ni  Ni11  1  0.32540401  0.99438327  0.32828210  1
  Ni  Ni12  1  0.32476749  0.32880002  0.99397002  1
  Cr  Cr13  1  0.49459888  0.49300868  0.16091044  1
  Cr  Cr14  1  0.32542237  0.32707108  0.32696788  1
  Cr  Cr15  1  0.32711455  0.66067276  -0.00446607  1
  Cr  Cr16  1  0.49374244  0.83068767  0.16360179  1
  Cr  Cr17  1  0.32495159  0.66090827  0.32570670  1
  Cr  Cr18  1  0.66228844  0.99406883  0.99079348  1
  Cr  Cr19  1  0.82993891  0.15980533  0.16053924  1
  Ni  Ni20  1  0.66362106  0.99455165  0.32999864  1
  Cr  Cr21  1  0.66046049  0.32543206  0.99337302  1
  Cr  Cr22  1  0.83034958  0.49411061  0.16116592  1
  Cr  Cr23  1  0.66210853  0.32518313  0.32999224  1
  Cr  Cr24  1  0.66063958  0.66479790  0.99346334  1
  Cr  Cr25  1  0.83127060  0.83033346  0.16279911  1
  Cr  Cr26  1  0.66322319  0.66361078  0.32777357  1
  Ni  Ni27  1  0.16029215  0.15763690  0.49349753  1
  Cr  Cr28  1  0.99285519  -0.00400772  0.66055330  1
  Cr  Cr29  1  0.16088030  0.16139970  0.82936442  1
  Cr  Cr30  1  0.16154261  0.49668260  0.49645504  1
  Cr  Cr31  1  0.99369607  0.32497568  0.66044398  1
  Ni  Ni32  1  0.16250766  0.49375880  0.82933877  1
  Cr  Cr33  1  0.16152602  0.83079731  0.49442565  1
  Cr  Cr34  1  -0.00491153  0.66299829  0.66172486  1
  Cr  Cr35  1  0.16189115  0.82860860  0.82666715  1
  Cr  Cr36  1  0.49350585  0.15947562  0.49425164  1
  Ni  Ni37  1  0.32940086  0.99437187  0.66198952  1
  Ni  Ni38  1  0.49505795  0.16071948  0.82703594  1
  Cr  Cr39  1  0.49552145  0.49527888  0.49725683  1
  Cr  Cr40  1  0.32664453  0.32608531  0.66127279  1
  Cr  Cr41  1  0.49345010  0.49395909  0.82605673  1
  Cr  Cr42  1  0.49309378  0.82909067  0.49500363  1
  Ni  Ni43  1  0.32818744  0.66317000  0.66404935  1
  Ni  Ni44  1  0.49398164  0.83007925  0.82574550  1
  Ni  Ni45  1  0.82867434  0.15812726  0.49386074  1
  Cr  Cr46  1  0.66276978  -0.00401510  0.66381887  1
  Ni  Ni47  1  0.82763469  0.16075994  0.82921547  1
  Cr  Cr48  1  0.82702206  0.49550338  0.49476102  1
  Ni  Ni49  1  0.66220537  0.32427246  0.66207207  1
  Cr  Cr50  1  0.82994480  0.49266192  0.82839192  1
  Ni  Ni51  1  0.82917293  0.83125273  0.49151553  1
  Cr  Cr52  1  0.66201696  0.66476854  0.66277239  1
  Ni  Ni53  1  0.82792263  0.83097861  0.82921444  1
" 