3596,Ni63Cr37_13,-213.991294449217, 138.48095970989,Ni63Cr37,"# generated using pymatgen
 data_Cr17Ni10
_symmetry_space_group_name_H-M   'P 1'
_cell_length_a   7.54184825
_cell_length_b   7.54184825
_cell_length_c   10.66578407
_cell_angle_alpha   90.00000000
_cell_angle_beta   90.00000000
_cell_angle_gamma   90.00000000
_symmetry_Int_Tables_number   1
_chemical_formula_structural   Cr17Ni10
_chemical_formula_sum   'Cr34 Ni20'
_cell_volume   606.66419826
_cell_formula_units_Z   2
loop_
 _symmetry_equiv_pos_site_id
 _symmetry_equiv_pos_as_xyz
  1  'x, y, z'
loop_
 _atom_site_type_symbol
 _atom_site_label
 _atom_site_symmetry_multiplicity
 _atom_site_fract_x
 _atom_site_fract_y
 _atom_site_fract_z
 _atom_site_occupancy
  Cr  Cr0  1  -0.00482419  0.99431251  0.99237579  1
  Cr  Cr1  1  0.16450271  0.16318942  0.15975943  1
  Cr  Cr2  1  -0.00224941  0.99338534  0.32865318  1
  Cr  Cr3  1  -0.00383045  0.32807806  0.99186300  1
  Ni  Ni4  1  0.16250076  0.49552871  0.16215243  1
  Cr  Cr5  1  -0.00429430  0.32958637  0.33079411  1
  Cr  Cr6  1  -0.00316311  0.66280226  -0.00200344  1
  Ni  Ni7  1  0.16153419  0.82609779  0.16281273  1
  Ni  Ni8  1  -0.00175125  0.65993426  0.32716866  1
  Cr  Cr9  1  0.32900320  -0.00464117  0.99376509  1
  Ni  Ni10  1  0.49526897  0.16269191  0.16072790  1
  Cr  Cr11  1  0.32833193  -0.00305483  0.32954047  1
  Ni  Ni12  1  0.32983496  0.32696367  0.99382748  1
  Cr  Cr13  1  0.49277077  0.49152588  0.16058943  1
  Cr  Cr14  1  0.33017814  0.32720943  0.32958274  1
  Cr  Cr15  1  0.32800355  0.66108607  0.99370652  1
  Cr  Cr16  1  0.49410258  0.83145452  0.16085016  1
  Cr  Cr17  1  0.32611897  0.66116578  0.32792736  1
  Ni  Ni18  1  0.65904857  -0.00227091  0.99228066  1
  Cr  Cr19  1  0.82608083  0.16155330  0.16030383  1
  Cr  Cr20  1  0.65922300  -0.00190519  0.32886756  1
  Cr  Cr21  1  0.65898470  0.32703047  0.99364385  1
  Cr  Cr22  1  0.82949938  0.49377482  0.16348936  1
  Ni  Ni23  1  0.65982052  0.32606350  0.32847633  1
  Cr  Cr24  1  0.66010380  0.66268681  0.99207126  1
  Cr  Cr25  1  0.82840368  0.82967193  0.16249238  1
  Cr  Cr26  1  0.66281362  0.65908588  0.32838213  1
  Ni  Ni27  1  0.16305821  0.16506301  0.49656329  1
  Cr  Cr28  1  -0.00382126  -0.00162552  0.66378732  1
  Ni  Ni29  1  0.16285464  0.16174887  0.82798591  1
  Ni  Ni30  1  0.16122967  0.49410206  0.49592739  1
  Ni  Ni31  1  -0.00315569  0.32646721  0.66171294  1
  Cr  Cr32  1  0.16450076  0.49318170  0.82760889  1
  Cr  Cr33  1  0.16293707  0.82731621  0.49533418  1
  Cr  Cr34  1  -0.00335266  0.66058889  0.66144373  1
  Ni  Ni35  1  0.16529362  0.82921135  0.82767452  1
  Ni  Ni36  1  0.49513715  0.16219001  0.49454623  1
  Cr  Cr37  1  0.32919463  -0.00369334  0.66189771  1
  Ni  Ni38  1  0.49499486  0.16075888  0.82981367  1
  Cr  Cr39  1  0.49351843  0.49587471  0.49691331  1
  Cr  Cr40  1  0.32795805  0.32728314  0.66125993  1
  Ni  Ni41  1  0.49327906  0.49518128  0.82716178  1
  Cr  Cr42  1  0.49555395  0.82890838  0.49900906  1
  Ni  Ni43  1  0.32995938  0.66153474  0.66414176  1
  Ni  Ni44  1  0.49429937  0.82951243  0.82584220  1
  Cr  Cr45  1  0.82823331  0.16160419  0.49652969  1
  Ni  Ni46  1  0.65927017  -0.00395361  0.66425154  1
  Ni  Ni47  1  0.82699623  0.16051568  0.82711330  1
  Cr  Cr48  1  0.82878954  0.49512991  0.49559588  1
  Cr  Cr49  1  0.66107419  0.32700198  0.66262215  1
  Cr  Cr50  1  0.82770674  0.49343656  0.82604677  1
  Cr  Cr51  1  0.82673452  0.82846936  0.49596954  1
  Ni  Ni52  1  0.65780228  0.66313939  0.66428038  1
  Cr  Cr53  1  0.82614955  0.83025785  0.82707844  1
" 