2215,Ni63Fe14Cr22_4,-231.327102439635, 173.683737200855,Ni63Fe14Cr22,"# generated using pymatgen
 data_Cr13Fe7Ni34
_symmetry_space_group_name_H-M   'P 1'
_cell_length_a   7.45951131
_cell_length_b   7.45951131
_cell_length_c   10.54934206
_cell_angle_alpha   90.00000000
_cell_angle_beta   90.00000000
_cell_angle_gamma   90.00000000
_symmetry_Int_Tables_number   1
_chemical_formula_structural   Cr13Fe7Ni34
_chemical_formula_sum   'Cr13 Fe7 Ni34'
_cell_volume   587.01084886
_cell_formula_units_Z   1
loop_
 _symmetry_equiv_pos_site_id
 _symmetry_equiv_pos_as_xyz
  1  'x, y, z'
loop_
 _atom_site_type_symbol
 _atom_site_label
 _atom_site_symmetry_multiplicity
 _atom_site_fract_x
 _atom_site_fract_y
 _atom_site_fract_z
 _atom_site_occupancy
  Cr  Cr0  1  0.99902699  0.99986384  0.99854765  1
  Cr  Cr1  1  0.16772895  0.16448754  0.16760259  1
  Ni  Ni2  1  0.99891559  0.99867178  0.33524997  1
  Ni  Ni3  1  1.00036308  0.33374233  0.99958887  1
  Cr  Cr4  1  0.16668676  0.50131114  0.16339487  1
  Cr  Cr5  1  0.99628409  0.33394342  0.33354139  1
  Fe  Fe6  1  0.99975977  0.66698904  1.00018116  1
  Ni  Ni7  1  0.16748662  0.83545291  0.16684159  1
  Cr  Cr8  1  0.99928014  0.66884201  0.33294967  1
  Fe  Fe9  1  0.33621177  0.99911905  0.99878817  1
  Cr  Cr10  1  0.50168794  0.16606259  0.16723264  1
  Ni  Ni11  1  0.33474404  0.99716355  0.33346788  1
  Ni  Ni12  1  0.33425756  0.33631895  0.99632597  1
  Ni  Ni13  1  0.50558368  0.50222270  0.16582421  1
  Cr  Cr14  1  0.33715013  0.33541048  0.33707131  1
  Ni  Ni15  1  0.33507339  0.66751351  0.99913558  1
  Ni  Ni16  1  0.50225998  0.83328172  0.16652635  1
  Cr  Cr17  1  0.33590442  0.66918246  0.33496854  1
  Ni  Ni18  1  0.66691373  0.99918260  0.99868096  1
  Fe  Fe19  1  0.83155527  0.16636360  0.16704094  1
  Ni  Ni20  1  0.66772654  0.99981005  0.33511307  1
  Ni  Ni21  1  0.66686795  0.33382368  0.00086364  1
  Ni  Ni22  1  0.82970900  0.50143448  0.16554083  1
  Ni  Ni23  1  0.66809722  0.33422199  0.33455801  1
  Ni  Ni24  1  0.66439278  0.66846545  0.00140736  1
  Ni  Ni25  1  0.83173591  0.83265079  0.16812067  1
  Ni  Ni26  1  0.66661347  0.66738911  0.33407592  1
  Cr  Cr27  1  0.16649512  0.16570636  0.50044439  1
  Fe  Fe28  1  0.99901620  0.99947063  0.66826469  1
  Ni  Ni29  1  0.16717671  0.16897229  0.83356643  1
  Ni  Ni30  1  0.16612133  0.50240278  0.50469169  1
  Ni  Ni31  1  0.00255963  0.33498169  0.66738675  1
  Ni  Ni32  1  0.16834083  0.49987563  0.83352951  1
  Ni  Ni33  1  0.16668731  0.83336300  0.50034298  1
  Ni  Ni34  1  0.00231148  0.66695757  0.66688228  1
  Ni  Ni35  1  0.16707850  0.83266032  0.83429739  1
  Ni  Ni36  1  0.50261517  0.16648899  0.49787934  1
  Cr  Cr37  1  0.33449893  0.99953616  0.66938176  1
  Ni  Ni38  1  0.49946869  0.16762750  0.83682082  1
  Ni  Ni39  1  0.50294210  0.50183884  0.50088470  1
  Fe  Fe40  1  0.33351136  0.33702982  0.66843373  1
  Ni  Ni41  1  0.49839295  0.50135740  0.83486447  1
  Ni  Ni42  1  0.50118948  0.83322312  0.49864201  1
  Fe  Fe43  1  0.33401365  0.66552406  0.66760401  1
  Ni  Ni44  1  0.50112154  0.83261565  0.83642828  1
  Ni  Ni45  1  0.83295951  0.16729717  0.49839391  1
  Cr  Cr46  1  0.66773186  0.99933189  0.66855511  1
  Ni  Ni47  1  0.83485564  0.16648039  0.83545930  1
  Ni  Ni48  1  0.83269642  0.50099337  0.50062802  1
  Cr  Cr49  1  0.66651434  0.33361762  0.66657693  1
  Cr  Cr50  1  0.83393635  0.50218777  0.83547198  1
  Fe  Fe51  1  0.83304148  0.83290773  0.50046860  1
  Ni  Ni52  1  0.66665968  0.66810963  0.66605953  1
  Ni  Ni53  1  0.83332490  0.83379978  0.83267953  1
" 