7459,Ni63Fe14Cr22_7,-231.763286397666, 181.695716878795,Ni63Fe14Cr22,"# generated using pymatgen
 data_Cr13Fe7Ni34
_symmetry_space_group_name_H-M   'P 1'
_cell_length_a   7.45603878
_cell_length_b   7.45603878
_cell_length_c   10.54443116
_cell_angle_alpha   90.00000000
_cell_angle_beta   90.00000000
_cell_angle_gamma   90.00000000
_symmetry_Int_Tables_number   1
_chemical_formula_structural   Cr13Fe7Ni34
_chemical_formula_sum   'Cr13 Fe7 Ni34'
_cell_volume   586.19143984
_cell_formula_units_Z   1
loop_
 _symmetry_equiv_pos_site_id
 _symmetry_equiv_pos_as_xyz
  1  'x, y, z'
loop_
 _atom_site_type_symbol
 _atom_site_label
 _atom_site_symmetry_multiplicity
 _atom_site_fract_x
 _atom_site_fract_y
 _atom_site_fract_z
 _atom_site_occupancy
  Ni  Ni0  1  1.00053348  0.00099068  0.00129476  1
  Ni  Ni1  1  0.16869629  0.16703166  0.16526641  1
  Cr  Cr2  1  0.00175283  0.00083373  0.33460941  1
  Ni  Ni3  1  0.00398318  0.33322418  0.99995772  1
  Ni  Ni4  1  0.16548151  0.50008673  0.16673201  1
  Ni  Ni5  1  1.00064874  0.33457597  0.33259266  1
  Ni  Ni6  1  0.99991378  0.66799942  0.00216557  1
  Ni  Ni7  1  0.16716657  0.83509587  0.16798933  1
  Cr  Cr8  1  0.00182644  0.66714887  0.33241524  1
  Fe  Fe9  1  0.33202035  0.00345462  0.00237046  1
  Ni  Ni10  1  0.49803768  0.16752579  0.16701409  1
  Ni  Ni11  1  0.33482797  0.99967563  0.33340619  1
  Ni  Ni12  1  0.33174584  0.33291999  0.00183588  1
  Ni  Ni13  1  0.50132293  0.49966161  0.16991818  1
  Cr  Cr14  1  0.33482020  0.33537176  0.33220745  1
  Cr  Cr15  1  0.33319603  0.66421108  0.00076592  1
  Cr  Cr16  1  0.49925295  0.83497129  0.16797573  1
  Ni  Ni17  1  0.33580669  0.66737064  0.33491590  1
  Fe  Fe18  1  0.66888928  1.00042852  0.99926251  1
  Cr  Cr19  1  0.83518650  0.16947786  0.16779162  1
  Cr  Cr20  1  0.66653729  1.00066431  0.33541877  1
  Cr  Cr21  1  0.66598831  0.33445025  0.00093446  1
  Ni  Ni22  1  0.83541089  0.50119502  0.16864067  1
  Fe  Fe23  1  0.66649372  0.33606555  0.33396225  1
  Cr  Cr24  1  0.66918114  0.66814087  0.99925969  1
  Fe  Fe25  1  0.83610408  0.83200531  0.16588033  1
  Ni  Ni26  1  0.66511852  0.66633981  0.33354646  1
  Cr  Cr27  1  0.16732498  0.16765408  0.50222767  1
  Ni  Ni28  1  0.99777884  0.00095224  0.66708767  1
  Ni  Ni29  1  0.16528734  0.16939990  0.83517420  1
  Ni  Ni30  1  0.16827297  0.50183019  0.50208598  1
  Ni  Ni31  1  0.00146126  0.33310373  0.66966672  1
  Ni  Ni32  1  0.16573362  0.49805661  0.83339683  1
  Fe  Fe33  1  0.16975771  0.83192303  0.50170054  1
  Ni  Ni34  1  0.00107105  0.66815722  0.66782063  1
  Cr  Cr35  1  0.16687483  0.83455303  0.83261096  1
  Ni  Ni36  1  0.50167819  0.16607857  0.50133908  1
  Fe  Fe37  1  0.33527187  1.00017951  0.66620473  1
  Cr  Cr38  1  0.49966646  0.16635009  0.83407884  1
  Ni  Ni39  1  0.50033663  0.50223485  0.50091261  1
  Ni  Ni40  1  0.33428897  0.33663914  0.66817901  1
  Ni  Ni41  1  0.50053757  0.50187101  0.83137984  1
  Ni  Ni42  1  0.50061500  0.83390217  0.50133731  1
  Ni  Ni43  1  0.33547272  0.66541421  0.66598993  1
  Ni  Ni44  1  0.50308532  0.83395737  0.83218487  1
  Fe  Fe45  1  0.83210822  0.16758970  0.50303459  1
  Ni  Ni46  1  0.66920558  0.99977090  0.66723225  1
  Ni  Ni47  1  0.83674159  0.16685608  0.83216191  1
  Cr  Cr48  1  0.83388248  0.50016936  0.50093765  1
  Ni  Ni49  1  0.66646283  0.33334680  0.66657685  1
  Ni  Ni50  1  0.83594369  0.50095464  0.83281273  1
  Ni  Ni51  1  0.83246048  0.83450287  0.50255279  1
  Ni  Ni52  1  0.66567314  0.66909590  0.66872403  1
  Ni  Ni53  1  0.83292894  0.83440523  0.83432558  1
" 