5521,Ni63Fe12Cr23_2,-230.720657117166, 168.56326711905,Ni63Fe12Cr23,"# generated using pymatgen
 data_Cr7Fe3Ni17
_symmetry_space_group_name_H-M   'P 1'
_cell_length_a   7.46235189
_cell_length_b   7.46235189
_cell_length_c   10.55335925
_cell_angle_alpha   90.00000000
_cell_angle_beta   90.00000000
_cell_angle_gamma   90.00000000
_symmetry_Int_Tables_number   1
_chemical_formula_structural   Cr7Fe3Ni17
_chemical_formula_sum   'Cr14 Fe6 Ni34'
_cell_volume   587.68170515
_cell_formula_units_Z   2
loop_
 _symmetry_equiv_pos_site_id
 _symmetry_equiv_pos_as_xyz
  1  'x, y, z'
loop_
 _atom_site_type_symbol
 _atom_site_label
 _atom_site_symmetry_multiplicity
 _atom_site_fract_x
 _atom_site_fract_y
 _atom_site_fract_z
 _atom_site_occupancy
  Cr  Cr0  1  0.00045594  0.00164028  0.00151091  1
  Ni  Ni1  1  0.16791942  0.16697489  0.16721019  1
  Fe  Fe2  1  0.99945667  0.00166071  0.33329358  1
  Ni  Ni3  1  0.00277707  0.33171026  0.00244682  1
  Ni  Ni4  1  0.16947072  0.49854805  0.16536036  1
  Cr  Cr5  1  0.00059717  0.33231126  0.33199095  1
  Cr  Cr6  1  0.00053015  0.66781724  0.00072452  1
  Ni  Ni7  1  0.16961115  0.83550923  0.16732442  1
  Cr  Cr8  1  0.99971486  0.66812705  0.33244876  1
  Ni  Ni9  1  0.33428443  0.99934820  0.99783297  1
  Cr  Cr10  1  0.49811632  0.16388436  0.16565324  1
  Ni  Ni11  1  0.33427276  0.00098026  0.33457846  1
  Ni  Ni12  1  0.33081104  0.33241548  0.00164780  1
  Ni  Ni13  1  0.49765784  0.50246953  0.16602070  1
  Ni  Ni14  1  0.33347345  0.33186160  0.33387989  1
  Ni  Ni15  1  0.33546399  0.66925655  0.00417126  1
  Ni  Ni16  1  0.50028802  0.83364617  0.16594824  1
  Fe  Fe17  1  0.33582420  0.66706960  0.33163055  1
  Ni  Ni18  1  0.66585375  0.99689964  0.99977212  1
  Fe  Fe19  1  0.83420048  0.16469087  0.16709397  1
  Ni  Ni20  1  0.66616140  0.99889665  0.33437579  1
  Cr  Cr21  1  0.66838544  0.33205873  0.00177198  1
  Ni  Ni22  1  0.83394489  0.50155053  0.16379107  1
  Cr  Cr23  1  0.66562898  0.33288971  0.33567891  1
  Ni  Ni24  1  0.66509913  0.67085540  0.00220402  1
  Ni  Ni25  1  0.83134681  0.83515130  0.16697604  1
  Cr  Cr26  1  0.66627707  0.66786401  0.33453622  1
  Ni  Ni27  1  0.16794363  0.16650118  0.50096929  1
  Ni  Ni28  1  0.99896240  0.00147798  0.66655657  1
  Ni  Ni29  1  0.16743222  0.16651222  0.83250979  1
  Cr  Cr30  1  0.16719328  0.49756446  0.50158372  1
  Ni  Ni31  1  0.99974272  0.32983852  0.66607332  1
  Cr  Cr32  1  0.16670054  0.49718999  0.83388248  1
  Cr  Cr33  1  0.16608872  0.83767040  0.50023948  1
  Ni  Ni34  1  0.99698774  0.66990429  0.66700714  1
  Fe  Fe35  1  0.16686736  0.83589035  0.83309225  1
  Ni  Ni36  1  0.49950440  0.16552396  0.50238999  1
  Fe  Fe37  1  0.33494661  0.00287727  0.66763758  1
  Fe  Fe38  1  0.50094052  0.16489258  0.83259363  1
  Ni  Ni39  1  0.50131206  0.49906496  0.50093395  1
  Ni  Ni40  1  0.33459383  0.32950682  0.66546682  1
  Cr  Cr41  1  0.50072487  0.50130895  0.83487413  1
  Ni  Ni42  1  0.50306382  0.83627862  0.49949793  1
  Cr  Cr43  1  0.33585606  0.66927433  0.66591240  1
  Ni  Ni44  1  0.50258973  0.83641652  0.83558268  1
  Ni  Ni45  1  0.83351174  0.16455804  0.50123027  1
  Ni  Ni46  1  0.66761801  0.00034963  0.66677844  1
  Ni  Ni47  1  0.83523036  0.16424313  0.83299907  1
  Ni  Ni48  1  0.83195491  0.50031041  0.50589304  1
  Ni  Ni49  1  0.66676854  0.33104929  0.66399945  1
  Cr  Cr50  1  0.83363453  0.50064865  0.83075566  1
  Ni  Ni51  1  0.83121839  0.83597368  0.50264297  1
  Ni  Ni52  1  0.66808865  0.66963060  0.66458959  1
  Ni  Ni53  1  0.82989112  0.83644547  0.83142450  1
" 