3211,Ni63Fe26Cr10_4,-237.808228857527, 202.628851082639,Ni63Fe26Cr10,"# generated using pymatgen
 data_Cr3Fe7Ni17
_symmetry_space_group_name_H-M   'P 1'
_cell_length_a   7.42950608
_cell_length_b   7.42950608
_cell_length_c   10.50690826
_cell_angle_alpha   90.00000000
_cell_angle_beta   90.00000000
_cell_angle_gamma   90.00000000
_symmetry_Int_Tables_number   1
_chemical_formula_structural   Cr3Fe7Ni17
_chemical_formula_sum   'Cr6 Fe14 Ni34'
_cell_volume   579.95570546
_cell_formula_units_Z   2
loop_
 _symmetry_equiv_pos_site_id
 _symmetry_equiv_pos_as_xyz
  1  'x, y, z'
loop_
 _atom_site_type_symbol
 _atom_site_label
 _atom_site_symmetry_multiplicity
 _atom_site_fract_x
 _atom_site_fract_y
 _atom_site_fract_z
 _atom_site_occupancy
  Ni  Ni0  1  1.00212962  1.00137245  1.00234106  1
  Ni  Ni1  1  0.16909174  0.16787328  0.16975284  1
  Ni  Ni2  1  0.00290695  0.00351567  0.33444657  1
  Fe  Fe3  1  0.00260479  0.33394464  1.00173959  1
  Cr  Cr4  1  0.16956879  0.50294080  0.16804162  1
  Fe  Fe5  1  0.00391680  0.33427380  0.33551465  1
  Ni  Ni6  1  1.00185688  0.67078707  1.00125996  1
  Ni  Ni7  1  0.17081715  0.83713251  0.16957724  1
  Cr  Cr8  1  1.00244035  0.67194613  0.33686439  1
  Ni  Ni9  1  0.33453913  1.00139623  0.00333886  1
  Ni  Ni10  1  0.50173218  0.16700713  0.17137293  1
  Ni  Ni11  1  0.33576948  0.00372029  0.33636998  1
  Fe  Fe12  1  0.33446052  0.33378872  0.00284086  1
  Ni  Ni13  1  0.50251824  0.50470573  0.17028228  1
  Ni  Ni14  1  0.33788939  0.33482424  0.33609301  1
  Ni  Ni15  1  0.33557942  0.66981469  1.00169179  1
  Ni  Ni16  1  0.50252731  0.83613937  0.16931773  1
  Ni  Ni17  1  0.33788470  0.66907348  0.33715492  1
  Ni  Ni18  1  0.67087330  0.00325583  0.00289503  1
  Ni  Ni19  1  0.83677585  0.16802395  0.17023108  1
  Ni  Ni20  1  0.66901378  1.00242984  0.33470472  1
  Cr  Cr21  1  0.66946608  0.33560633  0.00456030  1
  Ni  Ni22  1  0.83539316  0.50309776  0.17027683  1
  Fe  Fe23  1  0.66779203  0.33527669  0.33410620  1
  Fe  Fe24  1  0.66989748  0.67204212  0.00345573  1
  Ni  Ni25  1  0.83426182  0.83645496  0.16880072  1
  Ni  Ni26  1  0.66854733  0.66849421  0.33534994  1
  Ni  Ni27  1  0.17036156  0.17118515  0.50288436  1
  Ni  Ni28  1  0.00291021  1.00122439  0.67067948  1
  Ni  Ni29  1  0.16789832  0.16967418  0.83521640  1
  Ni  Ni30  1  0.16839563  0.50094685  0.50252578  1
  Fe  Fe31  1  0.00608211  0.33624092  0.66999877  1
  Ni  Ni32  1  0.16757736  0.50211819  0.83669238  1
  Fe  Fe33  1  0.16991653  0.83943367  0.50250504  1
  Ni  Ni34  1  1.00061454  0.66979194  0.66868426  1
  Ni  Ni35  1  0.16913299  0.83577899  0.83563408  1
  Ni  Ni36  1  0.50182004  0.16740136  0.50250255  1
  Ni  Ni37  1  0.33415639  0.00412667  0.66800088  1
  Cr  Cr38  1  0.50120118  0.16517533  0.83435861  1
  Fe  Fe39  1  0.50190226  0.50027036  0.50085297  1
  Ni  Ni40  1  0.33726469  0.33569714  0.66953800  1
  Fe  Fe41  1  0.50235829  0.50375313  0.83699418  1
  Ni  Ni42  1  0.50407104  0.83674464  0.50100945  1
  Cr  Cr43  1  0.33392908  0.66910833  0.66859875  1
  Ni  Ni44  1  0.50328710  0.83540495  0.83699469  1
  Cr  Cr45  1  0.83579891  0.16865350  0.50279198  1
  Fe  Fe46  1  0.66833733  0.99975776  0.66904056  1
  Ni  Ni47  1  0.83773640  0.16861316  0.83461993  1
  Fe  Fe48  1  0.83455851  0.50302421  0.50341604  1
  Fe  Fe49  1  0.66939191  0.33688637  0.66988970  1
  Ni  Ni50  1  0.83808558  0.50387185  0.83428223  1
  Fe  Fe51  1  0.83518355  0.83660431  0.50272446  1
  Fe  Fe52  1  0.66924779  0.67058605  0.66847951  1
  Ni  Ni53  1  0.83495829  0.83542054  0.83513598  1
" 