1595,Ni63Fe12Cr23_12,-230.391296312714, 168.818576155806,Ni63Fe12Cr23,"# generated using pymatgen
 data_Cr7Fe3Ni17
_symmetry_space_group_name_H-M   'P 1'
_cell_length_a   7.46618265
_cell_length_b   7.46618265
_cell_length_c   10.55877677
_cell_angle_alpha   90.00000000
_cell_angle_beta   90.00000000
_cell_angle_gamma   90.00000000
_symmetry_Int_Tables_number   1
_chemical_formula_structural   Cr7Fe3Ni17
_chemical_formula_sum   'Cr14 Fe6 Ni34'
_cell_volume   588.58722144
_cell_formula_units_Z   2
loop_
 _symmetry_equiv_pos_site_id
 _symmetry_equiv_pos_as_xyz
  1  'x, y, z'
loop_
 _atom_site_type_symbol
 _atom_site_label
 _atom_site_symmetry_multiplicity
 _atom_site_fract_x
 _atom_site_fract_y
 _atom_site_fract_z
 _atom_site_occupancy
  Ni  Ni0  1  0.00368788  0.00159424  0.99757580  1
  Fe  Fe1  1  0.16754920  0.16650524  0.16487283  1
  Ni  Ni2  1  0.99948846  0.99892355  0.33431560  1
  Ni  Ni3  1  0.00219969  0.33170114  0.00069014  1
  Ni  Ni4  1  0.16622296  0.49928966  0.16631260  1
  Fe  Fe5  1  0.99678056  0.33481992  0.33349555  1
  Cr  Cr6  1  0.99976253  0.66735801  0.00008216  1
  Ni  Ni7  1  0.16718487  0.83459606  0.16654033  1
  Fe  Fe8  1  0.99822257  0.66655654  0.33399480  1
  Ni  Ni9  1  0.32956945  0.99997688  0.00112488  1
  Ni  Ni10  1  0.49732644  0.16811389  0.16815904  1
  Fe  Fe11  1  0.33382401  0.99887472  0.33282279  1
  Ni  Ni12  1  0.33168252  0.33398721  0.00210985  1
  Ni  Ni13  1  0.50017674  0.49848904  0.16515397  1
  Cr  Cr14  1  0.33445925  0.33451214  0.33130216  1
  Ni  Ni15  1  0.33485468  0.66623697  1.00000145  1
  Cr  Cr16  1  0.49895939  0.83373904  0.16630982  1
  Cr  Cr17  1  0.33264803  0.66640776  0.33514791  1
  Cr  Cr18  1  0.66776003  0.99875969  0.99835278  1
  Cr  Cr19  1  0.83396023  0.16814488  0.16838936  1
  Ni  Ni20  1  0.66871365  0.00036386  0.33533591  1
  Cr  Cr21  1  0.66657993  0.33614072  0.00027469  1
  Ni  Ni22  1  0.83369109  0.49929696  0.16823097  1
  Ni  Ni23  1  0.66793601  0.33463608  0.33362095  1
  Ni  Ni24  1  0.66465240  0.66473493  0.99841880  1
  Cr  Cr25  1  0.83457098  0.83150801  0.16797437  1
  Ni  Ni26  1  0.66806935  0.66515796  0.33475854  1
  Cr  Cr27  1  0.16497140  0.16563083  0.50174758  1
  Ni  Ni28  1  0.99861223  0.00183461  0.66829011  1
  Ni  Ni29  1  0.16478546  0.16486539  0.83438931  1
  Fe  Fe30  1  0.16518086  0.50017450  0.50031164  1
  Ni  Ni31  1  0.99896155  0.33094636  0.66635860  1
  Cr  Cr32  1  0.16759618  0.49741473  0.83352354  1
  Ni  Ni33  1  0.16591000  0.83461773  0.49897212  1
  Cr  Cr34  1  0.99812115  0.66814994  0.66518594  1
  Ni  Ni35  1  0.16752072  0.83809965  0.83464148  1
  Cr  Cr36  1  0.50198365  0.16574708  0.50091674  1
  Ni  Ni37  1  0.33267348  0.99983396  0.66674946  1
  Cr  Cr38  1  0.49768064  0.16676799  0.83121522  1
  Ni  Ni39  1  0.50301782  0.50115670  0.50106723  1
  Ni  Ni40  1  0.33298257  0.33357262  0.66687158  1
  Ni  Ni41  1  0.50178771  0.50211654  0.83401184  1
  Ni  Ni42  1  0.50135511  0.83281646  0.50007460  1
  Cr  Cr43  1  0.33568486  0.66695006  0.66564463  1
  Ni  Ni44  1  0.50011320  0.83167386  0.83349196  1
  Ni  Ni45  1  0.83386850  0.16699644  0.50027407  1
  Ni  Ni46  1  0.66891885  0.99828847  0.66602886  1
  Ni  Ni47  1  0.83746493  0.16653129  0.83116312  1
  Ni  Ni48  1  0.83209917  0.49961194  0.49860870  1
  Fe  Fe49  1  0.66860179  0.33454542  0.66630440  1
  Ni  Ni50  1  0.83100237  0.49938076  0.83329328  1
  Ni  Ni51  1  0.83290553  0.83357310  0.49888938  1
  Ni  Ni52  1  0.66624946  0.66715668  0.66696834  1
  Ni  Ni53  1  0.83254585  0.83424972  0.83276612  1
" 