1588,Ni63Fe13Cr23_13,-231.23366849948, 169.563697874089,Ni63Fe13Cr23,"# generated using pymatgen
 data_Cr13Fe7Ni34
_symmetry_space_group_name_H-M   'P 1'
_cell_length_a   7.46171331
_cell_length_b   7.46171331
_cell_length_c   10.55245617
_cell_angle_alpha   90.00000000
_cell_angle_beta   90.00000000
_cell_angle_gamma   90.00000000
_symmetry_Int_Tables_number   1
_chemical_formula_structural   Cr13Fe7Ni34
_chemical_formula_sum   'Cr13 Fe7 Ni34'
_cell_volume   587.53084927
_cell_formula_units_Z   1
loop_
 _symmetry_equiv_pos_site_id
 _symmetry_equiv_pos_as_xyz
  1  'x, y, z'
loop_
 _atom_site_type_symbol
 _atom_site_label
 _atom_site_symmetry_multiplicity
 _atom_site_fract_x
 _atom_site_fract_y
 _atom_site_fract_z
 _atom_site_occupancy
  Ni  Ni0  1  0.00129718  0.99814052  0.99891769  1
  Ni  Ni1  1  0.16855541  0.16722846  0.16841304  1
  Cr  Cr2  1  0.00119305  1.00016559  0.33455806  1
  Cr  Cr3  1  0.99988291  0.33348062  0.99955344  1
  Ni  Ni4  1  0.16500479  0.50014732  0.16879709  1
  Ni  Ni5  1  0.00145665  0.33503144  0.33440359  1
  Ni  Ni6  1  0.00044226  0.66916320  0.00065947  1
  Fe  Fe7  1  0.16393799  0.83305011  0.16662786  1
  Ni  Ni8  1  0.99859251  0.66604611  0.33378439  1
  Cr  Cr9  1  0.33121426  0.00144324  1.00017362  1
  Ni  Ni10  1  0.49921459  0.16876657  0.16994835  1
  Fe  Fe11  1  0.33310190  0.00397588  0.33343130  1
  Cr  Cr12  1  0.33556023  0.33395441  0.00045953  1
  Ni  Ni13  1  0.50199261  0.49789510  0.16819504  1
  Ni  Ni14  1  0.33433528  0.33215676  0.33345043  1
  Cr  Cr15  1  0.33235463  0.66568455  0.99928617  1
  Cr  Cr16  1  0.50113954  0.83426957  0.16914445  1
  Cr  Cr17  1  0.33268105  0.66466941  0.33317543  1
  Cr  Cr18  1  0.66864100  0.00212963  0.99831286  1
  Cr  Cr19  1  0.83345067  0.16889752  0.16642795  1
  Fe  Fe20  1  0.66705667  0.00153576  0.33501255  1
  Ni  Ni21  1  0.66594637  0.33430200  0.99936268  1
  Ni  Ni22  1  0.83406679  0.50186755  0.16877936  1
  Ni  Ni23  1  0.66527732  0.33483489  0.33407442  1
  Cr  Cr24  1  0.66817064  0.66426838  0.99907637  1
  Fe  Fe25  1  0.83620584  0.83072538  0.16760201  1
  Ni  Ni26  1  0.66936239  0.66498489  0.33344389  1
  Ni  Ni27  1  0.16747249  0.16703796  0.49955228  1
  Ni  Ni28  1  1.00035249  0.99909189  0.66783358  1
  Ni  Ni29  1  0.16664222  0.16480182  0.83311029  1
  Ni  Ni30  1  0.16677080  0.50032282  0.49990481  1
  Cr  Cr31  1  0.99981796  0.33292965  0.66634863  1
  Ni  Ni32  1  0.16707992  0.50265847  0.83234038  1
  Ni  Ni33  1  0.16549414  0.83376354  0.50179981  1
  Ni  Ni34  1  0.00333199  0.66957692  0.66664222  1
  Ni  Ni35  1  0.16558322  0.83360880  0.83287719  1
  Fe  Fe36  1  0.50099694  0.16940995  0.50027466  1
  Fe  Fe37  1  0.33244996  0.00036600  0.66839518  1
  Ni  Ni38  1  0.50184950  0.16746724  0.83173613  1
  Ni  Ni39  1  0.50049943  0.49810104  0.49978959  1
  Fe  Fe40  1  0.33474638  0.33429469  0.66695916  1
  Ni  Ni41  1  0.50049925  0.49908828  0.83304565  1
  Cr  Cr42  1  0.50048974  0.83426712  0.50070180  1
  Ni  Ni43  1  0.33159669  0.66652581  0.66847473  1
  Ni  Ni44  1  0.49940940  0.83452862  0.83146435  1
  Ni  Ni45  1  0.83284109  0.16707828  0.50057117  1
  Ni  Ni46  1  0.66807817  0.00297586  0.66768339  1
  Ni  Ni47  1  0.83257655  0.16590818  0.83342976  1
  Ni  Ni48  1  0.83380554  0.49998300  0.49766027  1
  Ni  Ni49  1  0.66497656  0.33135266  0.66767524  1
  Ni  Ni50  1  0.83348393  0.50018630  0.83460706  1
  Ni  Ni51  1  0.83507653  0.83401603  0.49955379  1
  Cr  Cr52  1  0.66716977  0.66617475  0.66805030  1
  Ni  Ni53  1  0.83607683  0.83497146  0.83374956  1
" 