7108,Ni63Fe14Cr22_12,-231.263085089268, 170.724104777156,Ni63Fe14Cr22,"# generated using pymatgen
 data_Cr13Fe7Ni34
_symmetry_space_group_name_H-M   'P 1'
_cell_length_a   7.46026667
_cell_length_b   7.46026667
_cell_length_c   10.55041030
_cell_angle_alpha   90.00000000
_cell_angle_beta   90.00000000
_cell_angle_gamma   90.00000000
_symmetry_Int_Tables_number   1
_chemical_formula_structural   Cr13Fe7Ni34
_chemical_formula_sum   'Cr13 Fe7 Ni34'
_cell_volume   587.18919171
_cell_formula_units_Z   1
loop_
 _symmetry_equiv_pos_site_id
 _symmetry_equiv_pos_as_xyz
  1  'x, y, z'
loop_
 _atom_site_type_symbol
 _atom_site_label
 _atom_site_symmetry_multiplicity
 _atom_site_fract_x
 _atom_site_fract_y
 _atom_site_fract_z
 _atom_site_occupancy
  Ni  Ni0  1  0.99997441  0.00055741  0.00379512  1
  Fe  Fe1  1  0.16552451  0.16737504  0.16666697  1
  Ni  Ni2  1  1.00017054  1.00018164  0.33353531  1
  Ni  Ni3  1  0.00129079  0.33404518  0.00127727  1
  Ni  Ni4  1  0.16707525  0.50094045  0.16645648  1
  Ni  Ni5  1  0.00108478  0.33338970  0.33441074  1
  Ni  Ni6  1  0.99897377  0.66669012  0.00266314  1
  Ni  Ni7  1  0.16593355  0.83202656  0.16602595  1
  Fe  Fe8  1  0.00274734  0.66827350  0.33409242  1
  Ni  Ni9  1  0.33437554  0.99904025  0.00173502  1
  Cr  Cr10  1  0.50166719  0.16796994  0.16698260  1
  Cr  Cr11  1  0.32985751  0.99709493  0.33517731  1
  Ni  Ni12  1  0.33209265  0.33372044  0.00110552  1
  Cr  Cr13  1  0.49811245  0.50123073  0.16960424  1
  Ni  Ni14  1  0.33019775  0.33728782  0.33461349  1
  Fe  Fe15  1  0.33437697  0.66816104  0.00136809  1
  Ni  Ni16  1  0.49987783  0.83260282  0.16578473  1
  Ni  Ni17  1  0.33248379  0.66683160  0.33416621  1
  Ni  Ni18  1  0.66720541  0.99792582  0.00052470  1
  Ni  Ni19  1  0.83670490  0.16581770  0.16672429  1
  Cr  Cr20  1  0.67027448  0.99774296  0.33234555  1
  Cr  Cr21  1  0.66936616  0.33497669  0.99702954  1
  Cr  Cr22  1  0.83578252  0.50043665  0.16905687  1
  Ni  Ni23  1  0.66988100  0.33568074  0.33620348  1
  Ni  Ni24  1  0.66751083  0.66931385  0.00075312  1
  Ni  Ni25  1  0.83561055  0.83551446  0.16623543  1
  Fe  Fe26  1  0.66737922  0.66772948  0.33510457  1
  Fe  Fe27  1  0.16402958  0.16770120  0.49978003  1
  Ni  Ni28  1  0.99773410  0.00090424  0.66359400  1
  Cr  Cr29  1  0.16313730  0.16602730  0.83426304  1
  Ni  Ni30  1  0.16689980  0.50205823  0.49980086  1
  Ni  Ni31  1  0.99681102  0.33484044  0.66564240  1
  Cr  Cr32  1  0.16522811  0.50256561  0.83535865  1
  Ni  Ni33  1  0.16448427  0.82997375  0.50148135  1
  Ni  Ni34  1  0.99925067  0.66574797  0.66425682  1
  Cr  Cr35  1  0.16634766  0.83271765  0.83329601  1
  Cr  Cr36  1  0.50496297  0.16967354  0.50033649  1
  Cr  Cr37  1  0.33433533  0.99697555  0.66433426  1
  Fe  Fe38  1  0.50177593  0.16565927  0.83421493  1
  Ni  Ni39  1  0.49964489  0.50230720  0.49896297  1
  Cr  Cr40  1  0.33386007  0.33689672  0.66647473  1
  Ni  Ni41  1  0.50136844  0.50280910  0.83373471  1
  Ni  Ni42  1  0.50151487  0.82928843  0.50125063  1
  Ni  Ni43  1  0.33550151  0.66690951  0.66622130  1
  Ni  Ni44  1  0.50161199  0.83208019  0.83448761  1
  Ni  Ni45  1  0.83584472  0.16749797  0.50149444  1
  Ni  Ni46  1  0.66874618  0.99958368  0.66791589  1
  Ni  Ni47  1  0.83340362  0.16697073  0.83301779  1
  Fe  Fe48  1  0.83321980  0.50131975  0.50092529  1
  Ni  Ni49  1  0.66969938  0.33565895  0.66826141  1
  Ni  Ni50  1  0.83330323  0.50000355  0.83184197  1
  Ni  Ni51  1  0.83527611  0.83519643  0.50101203  1
  Ni  Ni52  1  0.66642331  0.66623948  0.66567661  1
  Cr  Cr53  1  0.83459487  0.83437750  0.83346701  1
" 