7850,Ni63Fe26Cr10_17,-238.047472825106, 204.001775269594,Ni63Fe26Cr10,"# generated using pymatgen
 data_Cr3Fe7Ni17
_symmetry_space_group_name_H-M   'P 1'
_cell_length_a   7.43047252
_cell_length_b   7.43047252
_cell_length_c   10.50827502
_cell_angle_alpha   90.00000000
_cell_angle_beta   90.00000000
_cell_angle_gamma   90.00000000
_symmetry_Int_Tables_number   1
_chemical_formula_structural   Cr3Fe7Ni17
_chemical_formula_sum   'Cr6 Fe14 Ni34'
_cell_volume   580.18205980
_cell_formula_units_Z   2
loop_
 _symmetry_equiv_pos_site_id
 _symmetry_equiv_pos_as_xyz
  1  'x, y, z'
loop_
 _atom_site_type_symbol
 _atom_site_label
 _atom_site_symmetry_multiplicity
 _atom_site_fract_x
 _atom_site_fract_y
 _atom_site_fract_z
 _atom_site_occupancy
  Ni  Ni0  1  1.00024293  1.00141775  1.00220098  1
  Fe  Fe1  1  0.16930190  0.17013852  0.16879648  1
  Cr  Cr2  1  0.00359411  1.00242890  0.33472487  1
  Fe  Fe3  1  0.00327055  0.33454439  0.00346521  1
  Fe  Fe4  1  0.16828550  0.50220346  0.16743417  1
  Ni  Ni5  1  1.00036779  0.33588987  0.33617430  1
  Ni  Ni6  1  0.00366142  0.67117103  0.00439743  1
  Ni  Ni7  1  0.16844025  0.83494066  0.16798809  1
  Fe  Fe8  1  1.00080961  0.66764149  0.33525700  1
  Cr  Cr9  1  0.33477304  1.00141186  0.00247510  1
  Ni  Ni10  1  0.50355773  0.17039246  0.17054151  1
  Ni  Ni11  1  0.33545215  1.00240662  0.33474566  1
  Ni  Ni12  1  0.33758373  0.33825242  0.00290747  1
  Ni  Ni13  1  0.50345886  0.50102081  0.16837627  1
  Fe  Fe14  1  0.33596759  0.33531135  0.33485367  1
  Ni  Ni15  1  0.33504754  0.66709850  1.00161016  1
  Ni  Ni16  1  0.50289427  0.83603990  0.17013027  1
  Cr  Cr17  1  0.33706015  0.67073830  0.33549710  1
  Ni  Ni18  1  0.67205822  0.00391943  0.00258283  1
  Ni  Ni19  1  0.83476525  0.17062844  0.16807283  1
  Fe  Fe20  1  0.66837595  1.00211498  0.33405612  1
  Ni  Ni21  1  0.66812086  0.33492342  0.00369759  1
  Ni  Ni22  1  0.83575207  0.50165619  0.17006836  1
  Ni  Ni23  1  0.67076553  0.33763384  0.33467742  1
  Fe  Fe24  1  0.66783762  0.67042438  0.00349273  1
  Ni  Ni25  1  0.83600197  0.83506000  0.16870638  1
  Ni  Ni26  1  0.66965911  0.66718595  0.33553195  1
  Fe  Fe27  1  0.16932320  0.16900365  0.50382519  1
  Ni  Ni28  1  0.00320950  1.00190624  0.66974510  1
  Ni  Ni29  1  0.16766901  0.16994922  0.83406935  1
  Fe  Fe30  1  0.16905396  0.50191241  0.50413293  1
  Fe  Fe31  1  0.00544670  0.33512728  0.66814645  1
  Ni  Ni32  1  0.17148853  0.50229708  0.83547592  1
  Ni  Ni33  1  0.16949038  0.83538223  0.50458388  1
  Ni  Ni34  1  0.00331937  0.67165050  0.66706657  1
  Ni  Ni35  1  0.16867295  0.83515731  0.83475007  1
  Cr  Cr36  1  0.50232044  0.16813858  0.50124613  1
  Ni  Ni37  1  0.33317787  1.00124705  0.66981684  1
  Fe  Fe38  1  0.50174525  0.16912221  0.83648508  1
  Ni  Ni39  1  0.50244034  0.50407963  0.50255451  1
  Ni  Ni40  1  0.33479574  0.33669539  0.66957794  1
  Ni  Ni41  1  0.49932674  0.50353989  0.83647755  1
  Ni  Ni42  1  0.50177061  0.83447869  0.50295930  1
  Ni  Ni43  1  0.33597055  0.66937062  0.66976653  1
  Ni  Ni44  1  0.50248453  0.83435731  0.83424981  1
  Ni  Ni45  1  0.83769119  0.17004523  0.50259169  1
  Fe  Fe46  1  0.66961385  0.99928384  0.67055833  1
  Ni  Ni47  1  0.83749862  0.16671321  0.83678638  1
  Fe  Fe48  1  0.83553080  0.50385179  0.50095644  1
  Cr  Cr49  1  0.66854680  0.33688659  0.66998882  1
  Cr  Cr50  1  0.83672926  0.50298277  0.83705343  1
  Fe  Fe51  1  0.83425756  0.83485313  0.50369579  1
  Ni  Ni52  1  0.66802522  0.67010239  0.66853889  1
  Ni  Ni53  1  0.83619772  0.83817316  0.83534149  1
" 