5518,Ni63Fe26Cr10_10,-237.984867311221, 208.086176758295,Ni63Fe26Cr10,"# generated using pymatgen
 data_Cr3Fe7Ni17
_symmetry_space_group_name_H-M   'P 1'
_cell_length_a   7.43283302
_cell_length_b   7.43283302
_cell_length_c   10.51161326
_cell_angle_alpha   90.00000000
_cell_angle_beta   90.00000000
_cell_angle_gamma   90.00000000
_symmetry_Int_Tables_number   1
_chemical_formula_structural   Cr3Fe7Ni17
_chemical_formula_sum   'Cr6 Fe14 Ni34'
_cell_volume   580.73516859
_cell_formula_units_Z   2
loop_
 _symmetry_equiv_pos_site_id
 _symmetry_equiv_pos_as_xyz
  1  'x, y, z'
loop_
 _atom_site_type_symbol
 _atom_site_label
 _atom_site_symmetry_multiplicity
 _atom_site_fract_x
 _atom_site_fract_y
 _atom_site_fract_z
 _atom_site_occupancy
  Ni  Ni0  1  1.00088103  1.00204687  0.00353448  1
  Cr  Cr1  1  0.16801867  0.16662410  0.16798248  1
  Fe  Fe2  1  0.00330748  1.00117060  0.33637492  1
  Fe  Fe3  1  0.99977953  0.33475589  1.00072765  1
  Cr  Cr4  1  0.16834478  0.50483305  0.16816224  1
  Ni  Ni5  1  0.99984667  0.33641038  0.33765701  1
  Fe  Fe6  1  0.99993744  0.67007864  1.00218585  1
  Ni  Ni7  1  0.16925655  0.83502023  0.16970410  1
  Ni  Ni8  1  0.00264907  0.66930045  0.33638346  1
  Ni  Ni9  1  0.33705563  1.00224500  0.00328140  1
  Ni  Ni10  1  0.50455702  0.16877252  0.16757099  1
  Fe  Fe11  1  0.33447840  0.99971689  0.33596021  1
  Fe  Fe12  1  0.33822202  0.33470460  1.00034016  1
  Fe  Fe13  1  0.50472060  0.50343299  0.16785851  1
  Cr  Cr14  1  0.33604630  0.33522123  0.33695254  1
  Fe  Fe15  1  0.33799485  0.67005810  1.00220696  1
  Ni  Ni16  1  0.50156087  0.83510132  0.16813848  1
  Ni  Ni17  1  0.33460918  0.67159026  0.33511052  1
  Ni  Ni18  1  0.66896819  0.00234886  1.00169640  1
  Ni  Ni19  1  0.83411114  0.16959765  0.16839546  1
  Cr  Cr20  1  0.66895413  0.00275219  0.33524141  1
  Ni  Ni21  1  0.66851240  0.33540233  0.00380946  1
  Fe  Fe22  1  0.83400606  0.50250010  0.16912966  1
  Fe  Fe23  1  0.67155212  0.33645030  0.33508602  1
  Ni  Ni24  1  0.66870957  0.66915494  0.00263270  1
  Ni  Ni25  1  0.83608824  0.83529818  0.16770156  1
  Fe  Fe26  1  0.67009788  0.66840944  0.33467100  1
  Ni  Ni27  1  0.16798951  0.16850377  0.50302116  1
  Ni  Ni28  1  1.00079891  0.00263163  0.66736994  1
  Fe  Fe29  1  0.16873370  0.17046313  0.83526863  1
  Ni  Ni30  1  0.16651218  0.50308381  0.50333104  1
  Ni  Ni31  1  0.00246228  0.33572631  0.66879419  1
  Ni  Ni32  1  0.16916803  0.50096854  0.83519128  1
  Ni  Ni33  1  0.16901248  0.83531646  0.50077956  1
  Ni  Ni34  1  1.00228928  0.66854695  0.66801624  1
  Cr  Cr35  1  0.16865478  0.83495116  0.83629961  1
  Ni  Ni36  1  0.50214346  0.16770124  0.50343780  1
  Fe  Fe37  1  0.33591470  0.00343150  0.66816253  1
  Ni  Ni38  1  0.50301945  0.16958209  0.83589759  1
  Cr  Cr39  1  0.50272397  0.50277992  0.50282311  1
  Ni  Ni40  1  0.33534343  0.33570349  0.67017019  1
  Ni  Ni41  1  0.50177243  0.50164848  0.83632466  1
  Ni  Ni42  1  0.50082480  0.83641515  0.50302889  1
  Ni  Ni43  1  0.33532341  0.66837472  0.66883587  1
  Ni  Ni44  1  0.50369715  0.83567524  0.83573559  1
  Ni  Ni45  1  0.83677168  0.17020655  0.50245395  1
  Fe  Fe46  1  0.66935570  0.00273545  0.66908444  1
  Ni  Ni47  1  0.83495692  0.16934241  0.83605588  1
  Ni  Ni48  1  0.83787257  0.50176564  0.50150311  1
  Ni  Ni49  1  0.66910014  0.33421761  0.66876699  1
  Ni  Ni50  1  0.83596523  0.50164738  0.83591634  1
  Ni  Ni51  1  0.83706746  0.83493118  0.50330603  1
  Fe  Fe52  1  0.67026639  0.66902394  0.67031906  1
  Ni  Ni53  1  0.83427974  0.83591470  0.83589627  1
" 