4213,Ni63Cr37_2,-213.989161755737, 142.041339612556,Ni63Cr37,"# generated using pymatgen
 data_Cr17Ni10
_symmetry_space_group_name_H-M   'P 1'
_cell_length_a   7.54250840
_cell_length_b   7.54250840
_cell_length_c   10.66671768
_cell_angle_alpha   90.00000000
_cell_angle_beta   90.00000000
_cell_angle_gamma   90.00000000
_symmetry_Int_Tables_number   1
_chemical_formula_structural   Cr17Ni10
_chemical_formula_sum   'Cr34 Ni20'
_cell_volume   606.82352056
_cell_formula_units_Z   2
loop_
 _symmetry_equiv_pos_site_id
 _symmetry_equiv_pos_as_xyz
  1  'x, y, z'
loop_
 _atom_site_type_symbol
 _atom_site_label
 _atom_site_symmetry_multiplicity
 _atom_site_fract_x
 _atom_site_fract_y
 _atom_site_fract_z
 _atom_site_occupancy
  Cr  Cr0  1  -0.00467355  -0.00411755  -0.00441860  1
  Ni  Ni1  1  0.15973784  0.16341217  0.16302212  1
  Ni  Ni2  1  -0.00475085  -0.00236288  0.32843709  1
  Ni  Ni3  1  -0.00416670  0.32927877  0.99416756  1
  Cr  Cr4  1  0.16072980  0.49148427  0.16259841  1
  Ni  Ni5  1  -0.00166114  0.32522400  0.32873592  1
  Ni  Ni6  1  0.99236649  0.65944925  0.99472430  1
  Cr  Cr7  1  0.15927997  0.82971679  0.16166843  1
  Cr  Cr8  1  -0.00442542  0.66241579  0.32840344  1
  Cr  Cr9  1  0.32879545  -0.00424631  -0.00470494  1
  Cr  Cr10  1  0.49346490  0.16097289  0.16133954  1
  Cr  Cr11  1  0.32770528  0.99478813  0.32857364  1
  Cr  Cr12  1  0.32443119  0.32591613  0.99441937  1
  Cr  Cr13  1  0.49334120  0.49500286  0.16296680  1
  Ni  Ni14  1  0.32488356  0.32690583  0.32900856  1
  Cr  Cr15  1  0.32754431  0.66325711  -0.00341939  1
  Ni  Ni16  1  0.49820085  0.82961043  0.16024113  1
  Cr  Cr17  1  0.32830474  0.66243956  0.32996831  1
  Ni  Ni18  1  0.66176226  0.99276607  -0.00248065  1
  Cr  Cr19  1  0.83141081  0.15964217  0.16296904  1
  Cr  Cr20  1  0.66228170  0.99369292  0.32864101  1
  Cr  Cr21  1  0.66471196  0.32833019  0.99239988  1
  Cr  Cr22  1  0.83088305  0.49561728  0.16041820  1
  Cr  Cr23  1  0.66241044  0.32704029  0.33158597  1
  Cr  Cr24  1  0.66438351  0.66374584  -0.00277095  1
  Ni  Ni25  1  0.82720357  0.82969701  0.16013587  1
  Cr  Cr26  1  0.66113486  0.66432976  0.32607726  1
  Cr  Cr27  1  0.15948118  0.16128496  0.49234564  1
  Ni  Ni28  1  -0.00385097  0.99341302  0.66040807  1
  Ni  Ni29  1  0.15924366  0.16217575  0.82928552  1
  Ni  Ni30  1  0.16226591  0.49690375  0.49477758  1
  Cr  Cr31  1  0.99422336  0.32830608  0.66292317  1
  Cr  Cr32  1  0.15929417  0.49595316  0.82862514  1
  Ni  Ni33  1  0.16179343  0.82655731  0.49750641  1
  Ni  Ni34  1  -0.00399444  0.66256940  0.66120684  1
  Cr  Cr35  1  0.15977082  0.82820947  0.82503912  1
  Ni  Ni36  1  0.49575464  0.16074132  0.49393324  1
  Cr  Cr37  1  0.32633180  0.99365945  0.66102471  1
  Cr  Cr38  1  0.49441499  0.16085568  0.82959701  1
  Cr  Cr39  1  0.49207688  0.49531954  0.49562744  1
  Cr  Cr40  1  0.32741639  0.32818916  0.66162212  1
  Cr  Cr41  1  0.49620620  0.49654901  0.82642588  1
  Ni  Ni42  1  0.49305718  0.82818033  0.49700990  1
  Ni  Ni43  1  0.32728617  0.66317712  0.65828864  1
  Cr  Cr44  1  0.49574471  0.82767661  0.82778193  1
  Ni  Ni45  1  0.82936121  0.16025354  0.49387013  1
  Cr  Cr46  1  0.66193538  -0.00466989  0.65883924  1
  Cr  Cr47  1  0.83022226  0.16130687  0.82862102  1
  Cr  Cr48  1  0.83043488  0.49429118  0.49598732  1
  Cr  Cr49  1  0.66330289  0.32903044  0.66100540  1
  Ni  Ni50  1  0.83064348  0.49679060  0.82873428  1
  Cr  Cr51  1  0.83093637  0.83073696  0.49676608  1
  Ni  Ni52  1  0.66171565  0.66189193  0.66215073  1
  Cr  Cr53  1  0.82951394  0.82651064  0.82776226  1
" 