5504,Ni63Cr37_11,-213.794572931045, 139.048643928554,Ni63Cr37,"# generated using pymatgen
 data_Cr17Ni10
_symmetry_space_group_name_H-M   'P 1'
_cell_length_a   7.54854501
_cell_length_b   7.54854501
_cell_length_c   10.67525473
_cell_angle_alpha   90.00000000
_cell_angle_beta   90.00000000
_cell_angle_gamma   90.00000000
_symmetry_Int_Tables_number   1
_chemical_formula_structural   Cr17Ni10
_chemical_formula_sum   'Cr34 Ni20'
_cell_volume   608.28169061
_cell_formula_units_Z   2
loop_
 _symmetry_equiv_pos_site_id
 _symmetry_equiv_pos_as_xyz
  1  'x, y, z'
loop_
 _atom_site_type_symbol
 _atom_site_label
 _atom_site_symmetry_multiplicity
 _atom_site_fract_x
 _atom_site_fract_y
 _atom_site_fract_z
 _atom_site_occupancy
  Cr  Cr0  1  0.99398406  0.99336195  -0.00458891  1
  Cr  Cr1  1  0.16268091  0.16098108  0.16087883  1
  Cr  Cr2  1  0.99403523  0.99308021  0.32740811  1
  Ni  Ni3  1  0.99405326  0.32945804  -0.00510927  1
  Cr  Cr4  1  0.16233601  0.49624348  0.16017982  1
  Cr  Cr5  1  -0.00477320  0.32812753  0.32972972  1
  Ni  Ni6  1  0.99181878  0.66160647  -0.00387523  1
  Cr  Cr7  1  0.16373914  0.82667894  0.16175067  1
  Cr  Cr8  1  -0.00449161  0.66208997  0.32933191  1
  Cr  Cr9  1  0.33226584  0.99349291  0.99393920  1
  Cr  Cr10  1  0.49521899  0.15831635  0.16340790  1
  Ni  Ni11  1  0.33228268  0.98982249  0.32780260  1
  Cr  Cr12  1  0.32970271  0.32753796  0.99309110  1
  Ni  Ni13  1  0.49474928  0.49910981  0.16092377  1
  Cr  Cr14  1  0.32831317  0.32966808  0.32708764  1
  Cr  Cr15  1  0.33237605  0.66262962  0.99417927  1
  Ni  Ni16  1  0.49766714  0.82692205  0.16263477  1
  Ni  Ni17  1  0.33055615  0.66395861  0.32833513  1
  Ni  Ni18  1  0.65912107  0.99043768  0.99459832  1
  Cr  Cr19  1  0.82574653  0.15978738  0.16092587  1
  Ni  Ni20  1  0.65789471  0.99030344  0.32692422  1
  Cr  Cr21  1  0.65744443  0.32831977  0.99311520  1
  Cr  Cr22  1  0.82645802  0.49688511  0.15801020  1
  Cr  Cr23  1  0.66032895  0.32830264  0.32803921  1
  Ni  Ni24  1  0.65927094  0.66456398  -0.00461071  1
  Ni  Ni25  1  0.82340064  0.82772227  0.15911436  1
  Cr  Cr26  1  0.65902960  0.66349368  0.32680796  1
  Cr  Cr27  1  0.16502897  0.15972548  0.49552022  1
  Ni  Ni28  1  -0.00498795  -0.00522391  0.66093254  1
  Cr  Cr29  1  0.16321727  0.16074090  0.82704476  1
  Ni  Ni30  1  0.16607929  0.49591286  0.49557464  1
  Cr  Cr31  1  -0.00402942  0.32745166  0.65917031  1
  Cr  Cr32  1  0.16198819  0.49607951  0.82817266  1
  Cr  Cr33  1  0.16691490  0.82727455  0.49623710  1
  Cr  Cr34  1  -0.00397629  0.66251784  0.65917767  1
  Cr  Cr35  1  0.16318164  0.82709825  0.82566038  1
  Cr  Cr36  1  0.49429189  0.15685804  0.49471350  1
  Ni  Ni37  1  0.33154139  0.99340533  0.66232744  1
  Ni  Ni38  1  0.49473117  0.15884977  0.82561837  1
  Cr  Cr39  1  0.49136105  0.49763306  0.49475749  1
  Ni  Ni40  1  0.32912009  0.32854945  0.66253276  1
  Ni  Ni41  1  0.49328444  0.49624323  0.82722793  1
  Ni  Ni42  1  0.49251957  0.82947909  0.49459453  1
  Ni  Ni43  1  0.33069096  0.66194540  0.66091402  1
  Ni  Ni44  1  0.49574867  0.82873986  0.82666814  1
  Cr  Cr45  1  0.82433116  0.15872831  0.49533521  1
  Ni  Ni46  1  0.65714188  0.99309147  0.66230432  1
  Cr  Cr47  1  0.82585072  0.15951771  0.82754919  1
  Cr  Cr48  1  0.82747490  0.49521647  0.49498246  1
  Cr  Cr49  1  0.65780308  0.32775409  0.66257423  1
  Cr  Cr50  1  0.82684820  0.49672842  0.83140228  1
  Cr  Cr51  1  0.82330292  0.83037977  0.49602919  1
  Cr  Cr52  1  0.65755303  0.66303749  0.66246897  1
  Cr  Cr53  1  0.82627499  0.82786059  0.82897420  1
" 