2184,Ni63Fe12Cr23_4,-230.776662151749, 173.923307248294,Ni63Fe12Cr23,"# generated using pymatgen
 data_Cr7Fe3Ni17
_symmetry_space_group_name_H-M   'P 1'
_cell_length_a   7.46286849
_cell_length_b   7.46286849
_cell_length_c   10.55408983
_cell_angle_alpha   90.00000000
_cell_angle_beta   90.00000000
_cell_angle_gamma   90.00000000
_symmetry_Int_Tables_number   1
_chemical_formula_structural   Cr7Fe3Ni17
_chemical_formula_sum   'Cr14 Fe6 Ni34'
_cell_volume   587.80376453
_cell_formula_units_Z   2
loop_
 _symmetry_equiv_pos_site_id
 _symmetry_equiv_pos_as_xyz
  1  'x, y, z'
loop_
 _atom_site_type_symbol
 _atom_site_label
 _atom_site_symmetry_multiplicity
 _atom_site_fract_x
 _atom_site_fract_y
 _atom_site_fract_z
 _atom_site_occupancy
  Cr  Cr0  1  0.99945277  0.99790618  0.00080393  1
  Cr  Cr1  1  0.17031748  0.16758560  0.16616434  1
  Fe  Fe2  1  0.00119825  0.99653162  0.33301111  1
  Ni  Ni3  1  0.99928647  0.33675009  0.99852364  1
  Ni  Ni4  1  0.16729485  0.50063359  0.16751986  1
  Cr  Cr5  1  0.99987736  0.33812535  0.33430610  1
  Cr  Cr6  1  0.99914157  0.66613357  0.00106979  1
  Ni  Ni7  1  0.16600724  0.83262234  0.16984425  1
  Ni  Ni8  1  0.00137755  0.66769032  0.33209746  1
  Ni  Ni9  1  0.33638451  0.00197132  0.99935002  1
  Ni  Ni10  1  0.49984298  0.16868172  0.16694846  1
  Ni  Ni11  1  0.33517834  0.99990343  0.33473213  1
  Ni  Ni12  1  0.33570481  0.33318164  0.00141735  1
  Ni  Ni13  1  0.50113390  0.49754652  0.16770708  1
  Ni  Ni14  1  0.33738121  0.33435213  0.33303896  1
  Cr  Cr15  1  0.33270002  0.66642741  0.99920644  1
  Cr  Cr16  1  0.50154228  0.83458018  0.16683156  1
  Fe  Fe17  1  0.33238505  0.66616208  0.33468248  1
  Ni  Ni18  1  0.66517012  0.00138789  0.99824873  1
  Cr  Cr19  1  0.83086911  0.16718397  0.16660055  1
  Ni  Ni20  1  0.66446572  0.00118822  0.33381817  1
  Ni  Ni21  1  0.66584909  0.33376291  0.00031608  1
  Ni  Ni22  1  0.83241202  0.50211304  0.16679747  1
  Ni  Ni23  1  0.66336434  0.33416950  0.33347573  1
  Ni  Ni24  1  0.66873748  0.66568865  0.99973441  1
  Ni  Ni25  1  0.83351156  0.83132949  0.16854129  1
  Fe  Fe26  1  0.66720025  0.66518232  0.33331258  1
  Cr  Cr27  1  0.16823613  0.16602732  0.50105778  1
  Ni  Ni28  1  0.00034160  0.99893433  0.66765366  1
  Cr  Cr29  1  0.16688326  0.16778814  0.83361969  1
  Ni  Ni30  1  0.16739828  0.50219590  0.49958656  1
  Fe  Fe31  1  0.99929545  0.33460272  0.66821112  1
  Ni  Ni32  1  0.16598689  0.49976243  0.83373256  1
  Ni  Ni33  1  0.17065016  0.83238304  0.49955479  1
  Cr  Cr34  1  0.00158740  0.66689703  0.66846520  1
  Ni  Ni35  1  0.16949059  0.83341390  0.83144320  1
  Ni  Ni36  1  0.49988922  0.16468930  0.49784548  1
  Ni  Ni37  1  0.33469142  0.99675878  0.66675748  1
  Ni  Ni38  1  0.50191939  0.16397559  0.83604586  1
  Fe  Fe39  1  0.49995691  0.50187405  0.49853039  1
  Cr  Cr40  1  0.33438538  0.33480911  0.66625989  1
  Fe  Fe41  1  0.50153135  0.50167158  0.83504652  1
  Ni  Ni42  1  0.49839614  0.83415421  0.50132668  1
  Ni  Ni43  1  0.33349527  0.66913723  0.66613139  1
  Ni  Ni44  1  0.50152089  0.83500206  0.83213711  1
  Cr  Cr45  1  0.83251707  0.16742706  0.50125457  1
  Ni  Ni46  1  0.66580692  0.99915084  0.66877205  1
  Ni  Ni47  1  0.83192790  0.16747927  0.83304485  1
  Ni  Ni48  1  0.83335869  0.50070309  0.49939789  1
  Cr  Cr49  1  0.66744056  0.33332111  0.66671532  1
  Ni  Ni50  1  0.83351875  0.49936281  0.83464447  1
  Cr  Cr51  1  0.83156501  0.83277731  0.49947661  1
  Ni  Ni52  1  0.66571327  0.66803209  0.66737184  1
  Ni  Ni53  1  0.82982946  0.83399831  0.83293676  1
" 