8282,Ni63Fe14Cr22_9,-231.420941635838, 176.582622935417,Ni63Fe14Cr22,"# generated using pymatgen
 data_Cr13Fe7Ni34
_symmetry_space_group_name_H-M   'P 1'
_cell_length_a   7.45679393
_cell_length_b   7.45679393
_cell_length_c   10.54549911
_cell_angle_alpha   90.00000000
_cell_angle_beta   90.00000000
_cell_angle_gamma   90.00000000
_symmetry_Int_Tables_number   1
_chemical_formula_structural   Cr13Fe7Ni34
_chemical_formula_sum   'Cr13 Fe7 Ni34'
_cell_volume   586.36956729
_cell_formula_units_Z   1
loop_
 _symmetry_equiv_pos_site_id
 _symmetry_equiv_pos_as_xyz
  1  'x, y, z'
loop_
 _atom_site_type_symbol
 _atom_site_label
 _atom_site_symmetry_multiplicity
 _atom_site_fract_x
 _atom_site_fract_y
 _atom_site_fract_z
 _atom_site_occupancy
  Ni  Ni0  1  0.99998970  0.99964007  0.00298761  1
  Ni  Ni1  1  0.16748805  0.16589253  0.16677979  1
  Cr  Cr2  1  0.99809980  0.99930216  0.33476797  1
  Ni  Ni3  1  1.00021449  0.33511371  0.00073253  1
  Ni  Ni4  1  0.16548817  0.50159989  0.16751875  1
  Cr  Cr5  1  1.00041050  0.33472402  0.33505784  1
  Ni  Ni6  1  1.00061070  0.66741447  0.00193175  1
  Ni  Ni7  1  0.16751074  0.83432479  0.16638984  1
  Ni  Ni8  1  1.00016842  0.66686460  0.33291037  1
  Fe  Fe9  1  0.33468033  0.99868460  0.00244469  1
  Ni  Ni10  1  0.50129353  0.16537615  0.16914962  1
  Ni  Ni11  1  0.33676429  0.00157914  0.33282664  1
  Cr  Cr12  1  0.33473154  0.33549353  0.00433145  1
  Ni  Ni13  1  0.50272286  0.50190094  0.16965632  1
  Ni  Ni14  1  0.33511614  0.33349663  0.33253961  1
  Cr  Cr15  1  0.33581646  0.66691964  0.99893559  1
  Ni  Ni16  1  0.50116222  0.83480444  0.16721798  1
  Fe  Fe17  1  0.33397320  0.66783810  0.33174226  1
  Ni  Ni18  1  0.66717895  0.99849065  0.00230213  1
  Ni  Ni19  1  0.83333478  0.16774761  0.16504675  1
  Ni  Ni20  1  0.66519960  0.00072194  0.33486974  1
  Cr  Cr21  1  0.66673789  0.33532442  0.00155022  1
  Ni  Ni22  1  0.83388499  0.50191322  0.16713996  1
  Ni  Ni23  1  0.66603530  0.33220214  0.33318404  1
  Ni  Ni24  1  0.66743458  0.66878194  0.00201256  1
  Fe  Fe25  1  0.83321690  0.83358645  0.16710367  1
  Fe  Fe26  1  0.66812739  0.66834357  0.33320011  1
  Ni  Ni27  1  0.16971147  0.16859527  0.50026007  1
  Cr  Cr28  1  0.99882612  0.00153131  0.66388510  1
  Cr  Cr29  1  0.16458264  0.16510509  0.83585511  1
  Ni  Ni30  1  0.16629287  0.50004651  0.50034006  1
  Ni  Ni31  1  0.99876761  0.33555310  0.66691757  1
  Fe  Fe32  1  0.16592113  0.50205415  0.83448962  1
  Cr  Cr33  1  0.17098098  0.83334135  0.49992587  1
  Cr  Cr34  1  1.00021524  0.66601173  0.66686971  1
  Ni  Ni35  1  0.16884158  0.83488390  0.83488480  1
  Ni  Ni36  1  0.50138108  0.16564444  0.49960803  1
  Ni  Ni37  1  0.33661634  0.99899111  0.66707102  1
  Cr  Cr38  1  0.50232540  0.16482830  0.83386319  1
  Cr  Cr39  1  0.50236423  0.50154049  0.49890361  1
  Cr  Cr40  1  0.33383188  0.33496794  0.66648053  1
  Ni  Ni41  1  0.50529186  0.50357466  0.83246156  1
  Ni  Ni42  1  0.50232432  0.83581822  0.50207075  1
  Fe  Fe43  1  0.33612162  0.66856398  0.66881175  1
  Ni  Ni44  1  0.50067892  0.83321920  0.83262251  1
  Ni  Ni45  1  0.83065913  0.16927673  0.50339059  1
  Ni  Ni46  1  0.66496329  0.99957845  0.66525114  1
  Fe  Fe47  1  0.83329973  0.16742391  0.83407482  1
  Ni  Ni48  1  0.83350396  0.50073005  0.50079956  1
  Ni  Ni49  1  0.66916190  0.33451533  0.66739946  1
  Ni  Ni50  1  0.83358693  0.49979965  0.83419067  1
  Ni  Ni51  1  0.83001950  0.83203197  0.49875610  1
  Ni  Ni52  1  0.66641542  0.66806077  0.66720405  1
  Cr  Cr53  1  0.83305044  0.83335814  0.83641010  1
" 