3901,Ni63Fe30Cr6_0,-240.07679059812, 213.368251204788,Ni63Fe30Cr6,"# generated using pymatgen
 data_Cr2Fe8Ni17
_symmetry_space_group_name_H-M   'P 1'
_cell_length_a   7.42086365
_cell_length_b   7.42086365
_cell_length_c   10.49468602
_cell_angle_alpha   90.00000000
_cell_angle_beta   90.00000000
_cell_angle_gamma   90.00000000
_symmetry_Int_Tables_number   1
_chemical_formula_structural   Cr2Fe8Ni17
_chemical_formula_sum   'Cr4 Fe16 Ni34'
_cell_volume   577.93414560
_cell_formula_units_Z   2
loop_
 _symmetry_equiv_pos_site_id
 _symmetry_equiv_pos_as_xyz
  1  'x, y, z'
loop_
 _atom_site_type_symbol
 _atom_site_label
 _atom_site_symmetry_multiplicity
 _atom_site_fract_x
 _atom_site_fract_y
 _atom_site_fract_z
 _atom_site_occupancy
  Ni  Ni0  1  0.00323057  1.00307772  1.00260577  1
  Ni  Ni1  1  0.16896214  0.17067322  0.16982295  1
  Ni  Ni2  1  1.00186846  1.00250469  0.33516835  1
  Fe  Fe3  1  1.00154559  0.33715910  0.00375584  1
  Ni  Ni4  1  0.17012465  0.50264947  0.17079300  1
  Ni  Ni5  1  1.00156619  0.33580338  0.33519907  1
  Ni  Ni6  1  0.00340478  0.67200072  0.00456624  1
  Fe  Fe7  1  0.17044921  0.83712967  0.16959188  1
  Fe  Fe8  1  1.00290975  0.66850823  0.33607239  1
  Fe  Fe9  1  0.33740726  1.00162852  0.00345063  1
  Ni  Ni10  1  0.50339408  0.16915557  0.17158687  1
  Fe  Fe11  1  0.33701869  0.00409063  0.33571686  1
  Fe  Fe12  1  0.33677905  0.33652640  0.00463962  1
  Ni  Ni13  1  0.50188188  0.50417743  0.16898655  1
  Ni  Ni14  1  0.33701194  0.33865858  0.33477057  1
  Ni  Ni15  1  0.33704023  0.67020527  1.00282992  1
  Ni  Ni16  1  0.50547371  0.83620974  0.17020720  1
  Ni  Ni17  1  0.33547875  0.67045533  0.33584146  1
  Ni  Ni18  1  0.67139237  0.00314978  0.00329582  1
  Ni  Ni19  1  0.83707649  0.16725288  0.16898978  1
  Ni  Ni20  1  0.67113719  0.00399741  0.33720540  1
  Ni  Ni21  1  0.66925580  0.33657071  0.00416772  1
  Fe  Fe22  1  0.83546064  0.50220571  0.16866598  1
  Ni  Ni23  1  0.67078704  0.33485454  0.33545876  1
  Ni  Ni24  1  0.66909564  0.66962183  0.00354580  1
  Ni  Ni25  1  0.83555826  0.83695288  0.17036184  1
  Fe  Fe26  1  0.66995207  0.66933332  0.33546962  1
  Cr  Cr27  1  0.16882151  0.17223623  0.50268030  1
  Ni  Ni28  1  0.00320061  1.00244287  0.67160097  1
  Ni  Ni29  1  0.16797298  0.16864034  0.83624775  1
  Ni  Ni30  1  0.16899568  0.50405825  0.50363867  1
  Ni  Ni31  1  1.00102022  0.33560602  0.67052098  1
  Cr  Cr32  1  0.16990633  0.50147252  0.83478535  1
  Fe  Fe33  1  0.16909042  0.83570299  0.50311756  1
  Ni  Ni34  1  1.00292996  0.67107088  0.66832065  1
  Fe  Fe35  1  0.16982781  0.83656374  0.83651081  1
  Fe  Fe36  1  0.50418174  0.16986286  0.50285527  1
  Ni  Ni37  1  0.33530931  1.00114250  0.66934609  1
  Cr  Cr38  1  0.50179144  0.16961288  0.83507688  1
  Cr  Cr39  1  0.50160512  0.50392260  0.50437217  1
  Ni  Ni40  1  0.33713748  0.33639168  0.66989231  1
  Ni  Ni41  1  0.50451905  0.50504118  0.83653082  1
  Fe  Fe42  1  0.50254748  0.83785579  0.50308162  1
  Ni  Ni43  1  0.33671550  0.67177975  0.67067890  1
  Ni  Ni44  1  0.50568051  0.83500172  0.83587079  1
  Ni  Ni45  1  0.83647880  0.16747066  0.50430934  1
  Fe  Fe46  1  0.67041141  1.00170362  0.66887719  1
  Fe  Fe47  1  0.83652580  0.17063479  0.83691306  1
  Fe  Fe48  1  0.83800863  0.50089242  0.50414086  1
  Ni  Ni49  1  0.67130504  0.33674650  0.66992238  1
  Ni  Ni50  1  0.83568213  0.50586873  0.83613933  1
  Fe  Fe51  1  0.83734520  0.83621332  0.50312263  1
  Ni  Ni52  1  0.66994971  0.66941226  0.67072431  1
  Ni  Ni53  1  0.83581298  0.83613539  0.83599239  1
" 