1669,Ni63Fe30Cr6_7,-239.942354072509, 212.085619285895,Ni63Fe30Cr6,"# generated using pymatgen
 data_Cr2Fe8Ni17
_symmetry_space_group_name_H-M   'P 1'
_cell_length_a   7.42393431
_cell_length_b   7.42393431
_cell_length_c   10.49902859
_cell_angle_alpha   90.00000000
_cell_angle_beta   90.00000000
_cell_angle_gamma   90.00000000
_symmetry_Int_Tables_number   1
_chemical_formula_structural   Cr2Fe8Ni17
_chemical_formula_sum   'Cr4 Fe16 Ni34'
_cell_volume   578.65186810
_cell_formula_units_Z   2
loop_
 _symmetry_equiv_pos_site_id
 _symmetry_equiv_pos_as_xyz
  1  'x, y, z'
loop_
 _atom_site_type_symbol
 _atom_site_label
 _atom_site_symmetry_multiplicity
 _atom_site_fract_x
 _atom_site_fract_y
 _atom_site_fract_z
 _atom_site_occupancy
  Ni  Ni0  1  1.00205544  0.00310124  1.00136308  1
  Ni  Ni1  1  0.17082825  0.17120518  0.16953061  1
  Ni  Ni2  1  1.00224968  1.00268146  0.33800504  1
  Fe  Fe3  1  0.00444227  0.33617974  1.00112061  1
  Ni  Ni4  1  0.17247593  0.50114521  0.16998065  1
  Fe  Fe5  1  0.00392995  0.33631225  0.33764396  1
  Fe  Fe6  1  1.00220634  0.66928890  1.00123737  1
  Cr  Cr7  1  0.16920674  0.83653135  0.16954419  1
  Ni  Ni8  1  0.00358395  0.67036257  0.33738084  1
  Fe  Fe9  1  0.33784551  0.00413703  1.00228388  1
  Fe  Fe10  1  0.50173618  0.16993321  0.16936368  1
  Fe  Fe11  1  0.33763797  0.00294089  0.33727816  1
  Ni  Ni12  1  0.33613811  0.33743294  0.00425316  1
  Ni  Ni13  1  0.50089302  0.50406673  0.16936783  1
  Fe  Fe14  1  0.33556891  0.33575939  0.33531103  1
  Ni  Ni15  1  0.33697674  0.66651085  1.00174628  1
  Ni  Ni16  1  0.50472757  0.83477385  0.16986094  1
  Ni  Ni17  1  0.33575954  0.66814375  0.33651216  1
  Ni  Ni18  1  0.67076673  1.00226275  1.00270747  1
  Cr  Cr19  1  0.83693341  0.16718744  0.16918578  1
  Ni  Ni20  1  0.66996232  1.00257182  0.33673248  1
  Ni  Ni21  1  0.66667774  0.33610139  1.00049330  1
  Cr  Cr22  1  0.83522836  0.50509926  0.16955083  1
  Ni  Ni23  1  0.66774111  0.33492470  0.33744783  1
  Ni  Ni24  1  0.66834142  0.67034782  0.00301793  1
  Ni  Ni25  1  0.83400720  0.83642943  0.16993347  1
  Ni  Ni26  1  0.66936615  0.67121289  0.33552339  1
  Ni  Ni27  1  0.16874655  0.16934918  0.50253450  1
  Ni  Ni28  1  1.00221699  1.00266920  0.66933970  1
  Ni  Ni29  1  0.16945727  0.16977499  0.83664907  1
  Fe  Fe30  1  0.16821709  0.50297868  0.50286927  1
  Fe  Fe31  1  1.00263243  0.33591708  0.66994843  1
  Ni  Ni32  1  0.17030255  0.50268324  0.83650603  1
  Fe  Fe33  1  0.16906986  0.83719359  0.50250695  1
  Ni  Ni34  1  1.00278410  0.67022625  0.66962244  1
  Fe  Fe35  1  0.16854028  0.83618236  0.83635587  1
  Ni  Ni36  1  0.50273690  0.16797305  0.50224564  1
  Fe  Fe37  1  0.33648515  0.00320165  0.66914763  1
  Ni  Ni38  1  0.50264427  0.17024443  0.83621517  1
  Cr  Cr39  1  0.50329628  0.50402076  0.50301038  1
  Ni  Ni40  1  0.33543829  0.33560879  0.67028120  1
  Ni  Ni41  1  0.50261567  0.50303510  0.83664440  1
  Ni  Ni42  1  0.50367422  0.83698779  0.50289539  1
  Fe  Fe43  1  0.33571095  0.67048611  0.67044180  1
  Fe  Fe44  1  0.50396471  0.83593176  0.83645817  1
  Ni  Ni45  1  0.83722713  0.16838086  0.50320306  1
  Ni  Ni46  1  0.67054010  0.00292881  0.66926922  1
  Ni  Ni47  1  0.83661162  0.16877287  0.83594794  1
  Fe  Fe48  1  0.83694705  0.50305478  0.50287461  1
  Fe  Fe49  1  0.67070893  0.33514049  0.67066480  1
  Ni  Ni50  1  0.83579113  0.50365724  0.83584172  1
  Ni  Ni51  1  0.83614024  0.83672647  0.50166125  1
  Ni  Ni52  1  0.67074980  0.67074789  0.67017133  1
  Ni  Ni53  1  0.83626200  0.83628061  0.83711623  1
" 