7716,Ni63Fe26Cr10_9,-237.69051115615, 205.065364689478,Ni63Fe26Cr10,"# generated using pymatgen
 data_Cr3Fe7Ni17
_symmetry_space_group_name_H-M   'P 1'
_cell_length_a   7.42692731
_cell_length_b   7.42692731
_cell_length_c   10.50326132
_cell_angle_alpha   90.00000000
_cell_angle_beta   90.00000000
_cell_angle_gamma   90.00000000
_symmetry_Int_Tables_number   1
_chemical_formula_structural   Cr3Fe7Ni17
_chemical_formula_sum   'Cr6 Fe14 Ni34'
_cell_volume   579.35200884
_cell_formula_units_Z   2
loop_
 _symmetry_equiv_pos_site_id
 _symmetry_equiv_pos_as_xyz
  1  'x, y, z'
loop_
 _atom_site_type_symbol
 _atom_site_label
 _atom_site_symmetry_multiplicity
 _atom_site_fract_x
 _atom_site_fract_y
 _atom_site_fract_z
 _atom_site_occupancy
  Cr  Cr0  1  0.00332016  1.00268162  0.00281408  1
  Fe  Fe1  1  0.16958815  0.16842235  0.17064110  1
  Ni  Ni2  1  1.00262289  1.00229735  0.33563768  1
  Ni  Ni3  1  0.00340591  0.33733581  0.00277502  1
  Fe  Fe4  1  0.17075576  0.50225031  0.16990711  1
  Ni  Ni5  1  0.00427869  0.33496220  0.33719697  1
  Fe  Fe6  1  1.00237039  0.66880027  1.00250035  1
  Ni  Ni7  1  0.17073333  0.83413476  0.16978029  1
  Ni  Ni8  1  0.00598167  0.67080335  0.33604387  1
  Ni  Ni9  1  0.33617900  1.00188511  0.00368647  1
  Ni  Ni10  1  0.50255597  0.16999105  0.17009770  1
  Fe  Fe11  1  0.33571823  1.00229197  0.33603946  1
  Fe  Fe12  1  0.33809418  0.33567897  0.00288037  1
  Fe  Fe13  1  0.50229908  0.50272530  0.16956557  1
  Ni  Ni14  1  0.33574032  0.33659869  0.33558501  1
  Fe  Fe15  1  0.33669950  0.66930647  0.00292182  1
  Ni  Ni16  1  0.50069252  0.83624677  0.16985310  1
  Ni  Ni17  1  0.33410485  0.66865907  0.33664538  1
  Cr  Cr18  1  0.66760620  1.00269502  1.00268681  1
  Ni  Ni19  1  0.83587941  0.17030445  0.17073314  1
  Ni  Ni20  1  0.67016615  0.00407295  0.33494614  1
  Ni  Ni21  1  0.66936321  0.33723187  1.00205840  1
  Cr  Cr22  1  0.83701276  0.50118114  0.17066857  1
  Ni  Ni23  1  0.66819145  0.33326913  0.33727342  1
  Ni  Ni24  1  0.66830376  0.66819956  1.00211412  1
  Ni  Ni25  1  0.83672025  0.83635436  0.16998146  1
  Cr  Cr26  1  0.66875228  0.67057196  0.33812960  1
  Ni  Ni27  1  0.16698935  0.17124449  0.50124404  1
  Fe  Fe28  1  1.00050479  1.00225471  0.66730551  1
  Cr  Cr29  1  0.16900221  0.17197196  0.83481092  1
  Ni  Ni30  1  0.17061661  0.50262604  0.50242339  1
  Fe  Fe31  1  1.00174977  0.33841917  0.66820649  1
  Ni  Ni32  1  0.16926251  0.50438434  0.83705035  1
  Ni  Ni33  1  0.16863653  0.83433987  0.50243610  1
  Ni  Ni34  1  0.00336256  0.66925754  0.66998996  1
  Fe  Fe35  1  0.17155761  0.83423399  0.83586092  1
  Fe  Fe36  1  0.50273212  0.16963153  0.50195924  1
  Cr  Cr37  1  0.33695793  1.00239442  0.66711318  1
  Ni  Ni38  1  0.50454009  0.17041285  0.83537375  1
  Ni  Ni39  1  0.50065440  0.50231789  0.50338891  1
  Ni  Ni40  1  0.33646088  0.33843462  0.66929786  1
  Ni  Ni41  1  0.50183675  0.50361474  0.83684755  1
  Ni  Ni42  1  0.50285836  0.83425007  0.50247238  1
  Ni  Ni43  1  0.33519677  0.66739001  0.66965054  1
  Ni  Ni44  1  0.50293727  0.83373649  0.83583591  1
  Ni  Ni45  1  0.83581226  0.16952651  0.50216886  1
  Ni  Ni46  1  0.67051933  0.00288097  0.67006243  1
  Ni  Ni47  1  0.83520634  0.17111147  0.83474362  1
  Fe  Fe48  1  0.83750474  0.50325196  0.50277927  1
  Ni  Ni49  1  0.66855532  0.33610486  0.66931197  1
  Fe  Fe50  1  0.83448593  0.50186573  0.83638181  1
  Ni  Ni51  1  0.83642586  0.83828215  0.50295065  1
  Ni  Ni52  1  0.66957369  0.66879378  0.66897572  1
  Fe  Fe53  1  0.83477811  0.83417013  0.83404980  1
" 