3659,Ni63Fe12Cr23_1,-230.645448830623, 168.109970131,Ni63Fe12Cr23,"# generated using pymatgen
 data_Cr7Fe3Ni17
_symmetry_space_group_name_H-M   'P 1'
_cell_length_a   7.46313159
_cell_length_b   7.46313159
_cell_length_c   10.55446191
_cell_angle_alpha   90.00000000
_cell_angle_beta   90.00000000
_cell_angle_gamma   90.00000000
_symmetry_Int_Tables_number   1
_chemical_formula_structural   Cr7Fe3Ni17
_chemical_formula_sum   'Cr14 Fe6 Ni34'
_cell_volume   587.86593599
_cell_formula_units_Z   2
loop_
 _symmetry_equiv_pos_site_id
 _symmetry_equiv_pos_as_xyz
  1  'x, y, z'
loop_
 _atom_site_type_symbol
 _atom_site_label
 _atom_site_symmetry_multiplicity
 _atom_site_fract_x
 _atom_site_fract_y
 _atom_site_fract_z
 _atom_site_occupancy
  Ni  Ni0  1  1.00021295  0.00097111  0.00034793  1
  Ni  Ni1  1  0.16534704  0.16743634  0.16658257  1
  Ni  Ni2  1  0.99992608  0.99976713  0.33334186  1
  Ni  Ni3  1  1.00011786  0.33196686  0.99976339  1
  Fe  Fe4  1  0.16534415  0.49814104  0.16775146  1
  Ni  Ni5  1  0.99868101  0.33221996  0.33197992  1
  Fe  Fe6  1  0.99913057  0.66639895  1.00002133  1
  Fe  Fe7  1  0.16537882  0.83549664  0.16754860  1
  Ni  Ni8  1  0.00103432  0.66894683  0.33138919  1
  Ni  Ni9  1  0.32933483  0.00259362  0.99830505  1
  Cr  Cr10  1  0.49979955  0.16727428  0.16548330  1
  Ni  Ni11  1  0.32975526  0.99876875  0.33387229  1
  Ni  Ni12  1  0.33243181  0.33335606  0.99985952  1
  Ni  Ni13  1  0.50053105  0.49931088  0.16734143  1
  Ni  Ni14  1  0.33366303  0.33518861  0.33114848  1
  Cr  Cr15  1  0.33244056  0.66398222  0.00102643  1
  Cr  Cr16  1  0.50094707  0.83467218  0.16589121  1
  Ni  Ni17  1  0.33263271  0.66688108  0.33464266  1
  Ni  Ni18  1  0.67117502  0.00140503  0.99984051  1
  Ni  Ni19  1  0.83608639  0.16735434  0.16766044  1
  Fe  Fe20  1  0.66974171  0.00029820  0.33293283  1
  Ni  Ni21  1  0.66800396  0.33499120  0.99963957  1
  Ni  Ni22  1  0.83493567  0.49968228  0.16522239  1
  Ni  Ni23  1  0.66829041  0.33420273  0.33289108  1
  Ni  Ni24  1  0.66944621  0.66444140  1.00007260  1
  Ni  Ni25  1  0.83602063  0.83370791  0.16556350  1
  Cr  Cr26  1  0.66739359  0.66538683  0.33373325  1
  Cr  Cr27  1  0.16421166  0.16824995  0.49869929  1
  Cr  Cr28  1  1.00001626  0.99998752  0.66718853  1
  Ni  Ni29  1  0.16524583  0.16848145  0.83635551  1
  Cr  Cr30  1  0.16596356  0.50145889  0.49935946  1
  Fe  Fe31  1  0.99863561  0.33399375  0.66967119  1
  Ni  Ni32  1  0.16531463  0.50048340  0.83370741  1
  Ni  Ni33  1  0.16638649  0.83156899  0.49883256  1
  Ni  Ni34  1  0.00144376  0.66862268  0.66915548  1
  Ni  Ni35  1  0.16411801  0.83177058  0.83475020  1
  Cr  Cr36  1  0.50137672  0.16792630  0.49726748  1
  Cr  Cr37  1  0.33127678  0.99868572  0.66893803  1
  Ni  Ni38  1  0.50167307  0.16955605  0.83721420  1
  Ni  Ni39  1  0.49933075  0.50084187  0.49935786  1
  Cr  Cr40  1  0.33538566  0.33491898  0.66976547  1
  Ni  Ni41  1  0.50005402  0.49857235  0.83440482  1
  Ni  Ni42  1  0.49840399  0.83225023  0.49880754  1
  Ni  Ni43  1  0.33172589  0.66607181  0.66583623  1
  Cr  Cr44  1  0.50127369  0.83420943  0.83579042  1
  Ni  Ni45  1  0.83369017  0.16731884  0.49796200  1
  Cr  Cr46  1  0.66945715  0.00222837  0.66559508  1
  Ni  Ni47  1  0.83380316  0.16803238  0.83481415  1
  Cr  Cr48  1  0.83625797  0.49810141  0.50178264  1
  Ni  Ni49  1  0.66813896  0.33394537  0.66855206  1
  Fe  Fe50  1  0.83469472  0.49944685  0.83492072  1
  Ni  Ni51  1  0.83589163  0.83410672  0.49829491  1
  Cr  Cr52  1  0.66644421  0.66541194  0.66696150  1
  Ni  Ni53  1  0.83615070  0.83308301  0.83632974  1
" 