1371,Ni63Cr37_16,-213.767498467186, 137.288192405777,Ni63Cr37,"# generated using pymatgen
 data_Cr17Ni10
_symmetry_space_group_name_H-M   'P 1'
_cell_length_a   7.55159111
_cell_length_b   7.55159111
_cell_length_c   10.67956256
_cell_angle_alpha   90.00000000
_cell_angle_beta   90.00000000
_cell_angle_gamma   90.00000000
_symmetry_Int_Tables_number   1
_chemical_formula_structural   Cr17Ni10
_chemical_formula_sum   'Cr34 Ni20'
_cell_volume   609.01837659
_cell_formula_units_Z   2
loop_
 _symmetry_equiv_pos_site_id
 _symmetry_equiv_pos_as_xyz
  1  'x, y, z'
loop_
 _atom_site_type_symbol
 _atom_site_label
 _atom_site_symmetry_multiplicity
 _atom_site_fract_x
 _atom_site_fract_y
 _atom_site_fract_z
 _atom_site_occupancy
  Cr  Cr0  1  -0.00525578  -0.00394791  -0.00484538  1
  Ni  Ni1  1  0.16312072  0.16143360  0.16080576  1
  Cr  Cr2  1  0.99385275  0.99364461  0.32486542  1
  Cr  Cr3  1  -0.00472860  0.32663910  -0.00555340  1
  Cr  Cr4  1  0.16259407  0.49576251  0.16038341  1
  Cr  Cr5  1  0.99391682  0.32987768  0.32718622  1
  Cr  Cr6  1  0.99171237  0.66055820  -0.00385937  1
  Cr  Cr7  1  0.16183164  0.82568924  0.16108188  1
  Ni  Ni8  1  0.99204739  0.65854828  0.32788115  1
  Cr  Cr9  1  0.32970495  -0.00448221  -0.00450363  1
  Ni  Ni10  1  0.49657342  0.16259819  0.16019168  1
  Cr  Cr11  1  0.32992718  -0.00478373  0.32402217  1
  Cr  Cr12  1  0.32953343  0.32708853  -0.00527420  1
  Ni  Ni13  1  0.49846914  0.49415622  0.15885071  1
  Cr  Cr14  1  0.32957156  0.32766770  0.32502947  1
  Ni  Ni15  1  0.33486364  0.66112340  -0.00528020  1
  Ni  Ni16  1  0.49744334  0.82670884  0.15787155  1
  Cr  Cr17  1  0.32980499  0.65999157  0.32600824  1
  Ni  Ni18  1  0.65743967  0.99354773  -0.00470476  1
  Cr  Cr19  1  0.82433515  0.16278576  0.15985542  1
  Cr  Cr20  1  0.65910402  0.99370286  0.32528470  1
  Ni  Ni21  1  0.65722054  0.32871939  -0.00423186  1
  Ni  Ni22  1  0.82352687  0.49605762  0.16140272  1
  Ni  Ni23  1  0.66096341  0.33029406  0.32523601  1
  Ni  Ni24  1  0.65674701  0.66099812  -0.00409226  1
  Ni  Ni25  1  0.82419727  0.82488734  0.15993573  1
  Cr  Cr26  1  0.66141365  0.65996348  0.32732775  1
  Cr  Cr27  1  0.16366841  0.16118877  0.49555297  1
  Cr  Cr28  1  -0.00467040  -0.00444624  0.66315853  1
  Ni  Ni29  1  0.16598366  0.16120117  0.82584684  1
  Ni  Ni30  1  0.16006872  0.49390413  0.49441860  1
  Cr  Cr31  1  -0.00393803  0.32887532  0.66172385  1
  Cr  Cr32  1  0.16485153  0.49464207  0.82834957  1
  Cr  Cr33  1  0.16232513  0.82641189  0.49382259  1
  Cr  Cr34  1  0.99229406  0.65882241  0.65852024  1
  Cr  Cr35  1  0.16402616  0.82710949  0.82801865  1
  Cr  Cr36  1  0.49453588  0.16198435  0.49426278  1
  Ni  Ni37  1  0.32942632  -0.00286821  0.66431063  1
  Ni  Ni38  1  0.49302241  0.16155533  0.82780620  1
  Cr  Cr39  1  0.49367097  0.49149278  0.49390545  1
  Ni  Ni40  1  0.32848412  0.32622963  0.66298394  1
  Ni  Ni41  1  0.49439423  0.49370396  0.83004803  1
  Cr  Cr42  1  0.49239289  0.82963357  0.49562418  1
  Cr  Cr43  1  0.33028375  0.65955199  0.66241062  1
  Ni  Ni44  1  0.49412014  0.82810596  0.83013347  1
  Cr  Cr45  1  0.82475499  0.16316982  0.49360838  1
  Cr  Cr46  1  0.65789691  0.99296489  0.66292027  1
  Cr  Cr47  1  0.82435078  0.16148167  0.82967504  1
  Ni  Ni48  1  0.82877660  0.49389864  0.49154298  1
  Cr  Cr49  1  0.65949448  0.32989069  0.66134436  1
  Cr  Cr50  1  0.82394360  0.49406404  0.83093822  1
  Cr  Cr51  1  0.82822486  0.82781691  0.49339620  1
  Cr  Cr52  1  0.66052497  0.66042277  0.66191649  1
  Cr  Cr53  1  0.82488493  0.82768473  0.83060869  1
" 