743,Ni63Fe13Cr23_5,-231.434828793377, 175.150069214846,Ni63Fe13Cr23,"# generated using pymatgen
 data_Cr13Fe7Ni34
_symmetry_space_group_name_H-M   'P 1'
_cell_length_a   7.45956053
_cell_length_b   7.45956053
_cell_length_c   10.54941168
_cell_angle_alpha   90.00000000
_cell_angle_beta   90.00000000
_cell_angle_gamma   90.00000000
_symmetry_Int_Tables_number   1
_chemical_formula_structural   Cr13Fe7Ni34
_chemical_formula_sum   'Cr13 Fe7 Ni34'
_cell_volume   587.02247003
_cell_formula_units_Z   1
loop_
 _symmetry_equiv_pos_site_id
 _symmetry_equiv_pos_as_xyz
  1  'x, y, z'
loop_
 _atom_site_type_symbol
 _atom_site_label
 _atom_site_symmetry_multiplicity
 _atom_site_fract_x
 _atom_site_fract_y
 _atom_site_fract_z
 _atom_site_occupancy
  Ni  Ni0  1  0.00180147  0.00060213  0.99953965  1
  Ni  Ni1  1  0.16589169  0.16519609  0.16550281  1
  Ni  Ni2  1  1.00039990  0.99984165  0.33363555  1
  Ni  Ni3  1  0.00195349  0.33149740  0.00133912  1
  Fe  Fe4  1  0.16642272  0.50162912  0.16652528  1
  Ni  Ni5  1  0.00146595  0.33318511  0.33374996  1
  Ni  Ni6  1  0.00111186  0.66938407  0.00073784  1
  Ni  Ni7  1  0.16652710  0.83453415  0.16666649  1
  Ni  Ni8  1  0.00360971  0.66843491  0.33551237  1
  Fe  Fe9  1  0.33174500  0.00098974  1.00049255  1
  Ni  Ni10  1  0.50049652  0.16643200  0.16775177  1
  Fe  Fe11  1  0.33327268  0.99899116  0.33398075  1
  Ni  Ni12  1  0.33328204  0.33257835  0.99983459  1
  Cr  Cr13  1  0.49991918  0.50023145  0.16502418  1
  Cr  Cr14  1  0.33100184  0.33251567  0.33510399  1
  Ni  Ni15  1  0.33376671  0.66815521  1.00032730  1
  Ni  Ni16  1  0.49819260  0.83498776  0.16658060  1
  Ni  Ni17  1  0.33013969  0.67052113  0.33454425  1
  Cr  Cr18  1  0.66813021  0.99962109  0.00196193  1
  Ni  Ni19  1  0.83504392  0.16649813  0.16759494  1
  Ni  Ni20  1  0.66660933  0.00101674  0.33328156  1
  Ni  Ni21  1  0.66643300  0.33319984  0.99830373  1
  Cr  Cr22  1  0.83496267  0.49965695  0.16618785  1
  Ni  Ni23  1  0.66867348  0.32905422  0.33439290  1
  Ni  Ni24  1  0.66656392  0.66811898  0.99816525  1
  Ni  Ni25  1  0.83659065  0.83552143  0.16754869  1
  Cr  Cr26  1  0.66821127  0.67159461  0.33453506  1
  Ni  Ni27  1  0.16708273  0.16512494  0.49953970  1
  Fe  Fe28  1  0.99952659  0.99779838  0.66805816  1
  Ni  Ni29  1  0.16706085  0.16425188  0.83631446  1
  Ni  Ni30  1  0.16354563  0.50297078  0.49801075  1
  Cr  Cr31  1  0.00071503  0.33455927  0.66649384  1
  Cr  Cr32  1  0.16781215  0.50202445  0.83704423  1
  Ni  Ni33  1  0.16488154  0.83329969  0.49966330  1
  Ni  Ni34  1  0.99948146  0.66958295  0.66535862  1
  Ni  Ni35  1  0.16332972  0.83553633  0.83506047  1
  Ni  Ni36  1  0.50167616  0.16509701  0.49978683  1
  Cr  Cr37  1  0.33423499  0.00103279  0.66685408  1
  Ni  Ni38  1  0.50145371  0.17017460  0.83403640  1
  Cr  Cr39  1  0.50208175  0.49883792  0.50013857  1
  Cr  Cr40  1  0.33394067  0.33206140  0.66607989  1
  Ni  Ni41  1  0.50356907  0.49814534  0.83640741  1
  Ni  Ni42  1  0.50019470  0.83708327  0.49922185  1
  Cr  Cr43  1  0.33153993  0.66837846  0.66607299  1
  Fe  Fe44  1  0.49963237  0.83408559  0.83538564  1
  Cr  Cr45  1  0.83238614  0.16614291  0.49974444  1
  Ni  Ni46  1  0.66742336  0.00105229  0.66725081  1
  Fe  Fe47  1  0.83392260  0.16683982  0.83457947  1
  Ni  Ni48  1  0.83639601  0.50131810  0.50067907  1
  Ni  Ni49  1  0.66734799  0.33107525  0.66890605  1
  Fe  Fe50  1  0.83303948  0.50048043  0.83549833  1
  Ni  Ni51  1  0.83630710  0.83352298  0.50056730  1
  Cr  Cr52  1  0.66970900  0.66903893  0.66809874  1
  Ni  Ni53  1  0.83659026  0.83359471  0.83342721  1
" 