1676,Ni63Fe14Cr22_0,-231.625148644578, 180.037565287138,Ni63Fe14Cr22,"# generated using pymatgen
 data_Cr13Fe7Ni34
_symmetry_space_group_name_H-M   'P 1'
_cell_length_a   7.45582148
_cell_length_b   7.45582148
_cell_length_c   10.54412385
_cell_angle_alpha   90.00000000
_cell_angle_beta   90.00000000
_cell_angle_gamma   90.00000000
_symmetry_Int_Tables_number   1
_chemical_formula_structural   Cr13Fe7Ni34
_chemical_formula_sum   'Cr13 Fe7 Ni34'
_cell_volume   586.14018906
_cell_formula_units_Z   1
loop_
 _symmetry_equiv_pos_site_id
 _symmetry_equiv_pos_as_xyz
  1  'x, y, z'
loop_
 _atom_site_type_symbol
 _atom_site_label
 _atom_site_symmetry_multiplicity
 _atom_site_fract_x
 _atom_site_fract_y
 _atom_site_fract_z
 _atom_site_occupancy
  Ni  Ni0  1  1.00011993  0.00340171  0.99899650  1
  Ni  Ni1  1  0.16972611  0.16774370  0.16647503  1
  Ni  Ni2  1  0.00150157  0.00190006  0.33546073  1
  Ni  Ni3  1  0.00134814  0.33401955  0.99938456  1
  Fe  Fe4  1  0.16722394  0.49763289  0.16618134  1
  Cr  Cr5  1  0.00214789  0.33463767  0.33623884  1
  Fe  Fe6  1  1.00016004  0.66556991  0.99974460  1
  Cr  Cr7  1  0.16628473  0.83796491  0.16720559  1
  Ni  Ni8  1  0.99933012  0.66501800  0.33261983  1
  Ni  Ni9  1  0.33569535  0.00277477  1.00032167  1
  Ni  Ni10  1  0.49862123  0.16916014  0.16661935  1
  Ni  Ni11  1  0.33599805  0.00309880  0.33405974  1
  Ni  Ni12  1  0.33346507  0.33327685  0.00082861  1
  Ni  Ni13  1  0.50305282  0.49711575  0.16878684  1
  Ni  Ni14  1  0.33521739  0.33261854  0.33363304  1
  Cr  Cr15  1  0.33467868  0.66652355  0.00189920  1
  Ni  Ni16  1  0.50136691  0.83604892  0.16898740  1
  Cr  Cr17  1  0.33496640  0.66581331  0.33344317  1
  Ni  Ni18  1  0.66646434  0.00174908  0.99939854  1
  Cr  Cr19  1  0.83278845  0.16861556  0.16815040  1
  Ni  Ni20  1  0.66445363  0.00128705  0.33441092  1
  Ni  Ni21  1  0.66749521  0.33341893  0.99984064  1
  Ni  Ni22  1  0.83253868  0.50031268  0.16662292  1
  Ni  Ni23  1  0.66588809  0.33495209  0.33463758  1
  Cr  Cr24  1  0.66683477  0.66814576  0.99964295  1
  Cr  Cr25  1  0.83390787  0.83364014  0.16862255  1
  Ni  Ni26  1  0.66707525  0.66606245  0.33478263  1
  Ni  Ni27  1  0.16814026  0.16690118  0.50131549  1
  Ni  Ni28  1  1.00047499  0.00302384  0.66796181  1
  Ni  Ni29  1  0.16575499  0.16841540  0.83454715  1
  Fe  Fe30  1  0.16767439  0.50117585  0.50222552  1
  Ni  Ni31  1  1.00058227  0.33411091  0.66716997  1
  Ni  Ni32  1  0.16740397  0.49852771  0.83390339  1
  Cr  Cr33  1  0.16762415  0.83607239  0.50221781  1
  Ni  Ni34  1  1.00066068  0.66502669  0.66915386  1
  Cr  Cr35  1  0.16706196  0.83581497  0.83285781  1
  Ni  Ni36  1  0.49818285  0.16818606  0.49819592  1
  Ni  Ni37  1  0.33455761  1.00002417  0.66764885  1
  Fe  Fe38  1  0.49929228  0.16702979  0.83631747  1
  Ni  Ni39  1  0.50303804  0.50035716  0.49999770  1
  Cr  Cr40  1  0.33282328  0.33381748  0.66735400  1
  Ni  Ni41  1  0.50061562  0.50029052  0.83363135  1
  Ni  Ni42  1  0.50055347  0.83362641  0.50087340  1
  Ni  Ni43  1  0.33550447  0.66722057  0.66734701  1
  Ni  Ni44  1  0.50129982  0.83323213  0.83253618  1
  Fe  Fe45  1  0.83320827  0.16764052  0.50050271  1
  Cr  Cr46  1  0.66669133  0.00080260  0.66850376  1
  Ni  Ni47  1  0.83667644  0.16763019  0.83491213  1
  Ni  Ni48  1  0.83297202  0.50108593  0.50139943  1
  Cr  Cr49  1  0.66939419  0.33361168  0.66797111  1
  Fe  Fe50  1  0.83609297  0.50024448  0.83423644  1
  Cr  Cr51  1  0.83453343  0.83220227  0.49904497  1
  Fe  Fe52  1  0.66698471  0.66720251  0.66762988  1
  Ni  Ni53  1  0.83450443  0.83487733  0.83420323  1
" 