8247,Ni63Fe14Cr22_18,-231.622322758554, 181.016013526661,Ni63Fe14Cr22,"# generated using pymatgen
 data_Cr13Fe7Ni34
_symmetry_space_group_name_H-M   'P 1'
_cell_length_a   7.45804419
_cell_length_b   7.45804419
_cell_length_c   10.54726724
_cell_angle_alpha   90.00000000
_cell_angle_beta   90.00000000
_cell_angle_gamma   90.00000000
_symmetry_Int_Tables_number   1
_chemical_formula_structural   Cr13Fe7Ni34
_chemical_formula_sum   'Cr13 Fe7 Ni34'
_cell_volume   586.66456169
_cell_formula_units_Z   1
loop_
 _symmetry_equiv_pos_site_id
 _symmetry_equiv_pos_as_xyz
  1  'x, y, z'
loop_
 _atom_site_type_symbol
 _atom_site_label
 _atom_site_symmetry_multiplicity
 _atom_site_fract_x
 _atom_site_fract_y
 _atom_site_fract_z
 _atom_site_occupancy
  Ni  Ni0  1  0.99978091  1.00014249  0.00098965  1
  Fe  Fe1  1  0.16758633  0.16693418  0.16776010  1
  Ni  Ni2  1  0.00073723  0.00199117  0.33340976  1
  Ni  Ni3  1  0.00225729  0.33365227  0.99925488  1
  Ni  Ni4  1  0.16851093  0.50085978  0.16801651  1
  Ni  Ni5  1  0.00278605  0.33282579  0.33612810  1
  Ni  Ni6  1  0.99885616  0.66801522  1.00056092  1
  Ni  Ni7  1  0.16659541  0.83432069  0.16632045  1
  Cr  Cr8  1  0.00121164  0.66744175  0.33350484  1
  Ni  Ni9  1  0.33476304  0.00277721  0.00171866  1
  Ni  Ni10  1  0.50073908  0.16699616  0.16651307  1
  Cr  Cr11  1  0.33385000  0.00120398  0.33335131  1
  Cr  Cr12  1  0.33308520  0.33171114  0.00066300  1
  Ni  Ni13  1  0.49989762  0.50041255  0.16907259  1
  Ni  Ni14  1  0.33435267  0.33533749  0.33373905  1
  Cr  Cr15  1  0.33371485  0.66724198  0.00347903  1
  Ni  Ni16  1  0.50144931  0.83440075  0.16748830  1
  Fe  Fe17  1  0.33542143  0.66504197  0.33360475  1
  Ni  Ni18  1  0.66726606  0.99937678  1.00006505  1
  Cr  Cr19  1  0.83344002  0.16573743  0.16883547  1
  Ni  Ni20  1  0.66679822  1.00022777  0.33399378  1
  Fe  Fe21  1  0.66748386  0.33161680  1.00043817  1
  Cr  Cr22  1  0.83330919  0.50088726  0.16602528  1
  Ni  Ni23  1  0.66467509  0.33466321  0.33528627  1
  Ni  Ni24  1  0.66939083  0.66997968  0.00230399  1
  Ni  Ni25  1  0.83376558  0.83515861  0.16520382  1
  Ni  Ni26  1  0.66428210  0.66691958  0.33355837  1
  Ni  Ni27  1  0.16657589  0.16683354  0.50071851  1
  Ni  Ni28  1  0.00110490  0.00161206  0.66741331  1
  Fe  Fe29  1  0.16512586  0.16694246  0.83345593  1
  Ni  Ni30  1  0.16645789  0.49981782  0.50011254  1
  Ni  Ni31  1  0.99966743  0.33343044  0.66642968  1
  Ni  Ni32  1  0.16336032  0.49935225  0.83368176  1
  Ni  Ni33  1  0.16739692  0.83516023  0.50188255  1
  Ni  Ni34  1  0.99914627  0.66677021  0.66758761  1
  Cr  Cr35  1  0.16435218  0.83464081  0.83342729  1
  Ni  Ni36  1  0.50152072  0.16821762  0.50108411  1
  Ni  Ni37  1  0.33369734  0.00223016  0.66642763  1
  Ni  Ni38  1  0.50261438  0.16560178  0.83421401  1
  Ni  Ni39  1  0.50249427  0.49929274  0.49860093  1
  Cr  Cr40  1  0.33326362  0.33164267  0.66752994  1
  Cr  Cr41  1  0.50185844  0.49860831  0.83441174  1
  Fe  Fe42  1  0.49999176  0.83333651  0.50039565  1
  Cr  Cr43  1  0.33332591  0.66771146  0.66434470  1
  Cr  Cr44  1  0.50251504  0.83742725  0.83306138  1
  Fe  Fe45  1  0.83487701  0.16999987  0.50056322  1
  Fe  Fe46  1  0.66786357  0.00247883  0.66805606  1
  Ni  Ni47  1  0.83337115  0.16588431  0.83309330  1
  Ni  Ni48  1  0.83285748  0.49847257  0.50206529  1
  Ni  Ni49  1  0.66860355  0.33317569  0.66610943  1
  Cr  Cr50  1  0.83597366  0.50078864  0.83422882  1
  Cr  Cr51  1  0.83443414  0.83442917  0.50153936  1
  Ni  Ni52  1  0.66922461  0.66692915  0.66594880  1
  Ni  Ni53  1  0.83491422  0.83593439  0.83492593  1
" 