7967,Ni63Cr37_18,-213.549980634988, 133.138385419557,Ni63Cr37,"# generated using pymatgen
 data_Cr17Ni10
_symmetry_space_group_name_H-M   'P 1'
_cell_length_a   7.55584872
_cell_length_b   7.55584872
_cell_length_c   10.68558374
_cell_angle_alpha   90.00000000
_cell_angle_beta   90.00000000
_cell_angle_gamma   90.00000000
_symmetry_Int_Tables_number   1
_chemical_formula_structural   Cr17Ni10
_chemical_formula_sum   'Cr34 Ni20'
_cell_volume   610.04905722
_cell_formula_units_Z   2
loop_
 _symmetry_equiv_pos_site_id
 _symmetry_equiv_pos_as_xyz
  1  'x, y, z'
loop_
 _atom_site_type_symbol
 _atom_site_label
 _atom_site_symmetry_multiplicity
 _atom_site_fract_x
 _atom_site_fract_y
 _atom_site_fract_z
 _atom_site_occupancy
  Cr  Cr0  1  -0.00444882  0.99325440  0.99257327  1
  Cr  Cr1  1  0.16168385  0.16235840  0.15987341  1
  Cr  Cr2  1  -0.00335405  0.99217305  0.32670598  1
  Ni  Ni3  1  0.99410441  0.32599860  0.99279293  1
  Cr  Cr4  1  0.16062075  0.49318041  0.15791054  1
  Cr  Cr5  1  0.99221273  0.32883856  0.32820284  1
  Cr  Cr6  1  -0.00540703  0.66448349  -0.00507678  1
  Ni  Ni7  1  0.16341893  0.82682546  0.16337448  1
  Cr  Cr8  1  -0.00477392  0.66134384  0.32741795  1
  Cr  Cr9  1  0.32506305  -0.00516067  0.99247893  1
  Cr  Cr10  1  0.49317892  0.15854909  0.16190822  1
  Ni  Ni11  1  0.32684263  0.99036150  0.32783964  1
  Ni  Ni12  1  0.32785351  0.32704378  0.99209593  1
  Ni  Ni13  1  0.49436562  0.49546705  0.16172828  1
  Cr  Cr14  1  0.33003948  0.32967417  0.32708695  1
  Cr  Cr15  1  0.32780516  0.66006188  -0.00557516  1
  Cr  Cr16  1  0.49410635  0.82701380  0.16457355  1
  Ni  Ni17  1  0.32938795  0.66226010  0.32745498  1
  Cr  Cr18  1  0.66208972  -0.00392358  0.99054193  1
  Cr  Cr19  1  0.82761456  0.16182167  0.16103546  1
  Ni  Ni20  1  0.65926784  0.99244794  0.32738747  1
  Cr  Cr21  1  0.65781833  0.32783181  -0.00576951  1
  Ni  Ni22  1  0.82579755  0.49443859  0.16124947  1
  Cr  Cr23  1  0.65989961  0.32992137  0.32827906  1
  Cr  Cr24  1  0.66026916  0.65859018  0.99351370  1
  Cr  Cr25  1  0.82393023  0.82670158  0.16147699  1
  Ni  Ni26  1  0.65918684  0.65815236  0.32740888  1
  Cr  Cr27  1  0.16180117  0.16044502  0.49516076  1
  Cr  Cr28  1  -0.00330766  0.99352771  0.66287584  1
  Ni  Ni29  1  0.16069197  0.16126208  0.82733043  1
  Cr  Cr30  1  0.15978528  0.49419885  0.49577806  1
  Ni  Ni31  1  0.99298613  0.32589741  0.66195904  1
  Cr  Cr32  1  0.16047931  0.49129078  0.82855026  1
  Ni  Ni33  1  0.16429142  0.82821540  0.49285149  1
  Cr  Cr34  1  -0.00552548  0.66339883  0.65995181  1
  Ni  Ni35  1  0.16067091  0.82994938  0.82621560  1
  Cr  Cr36  1  0.49338624  0.15653015  0.49282616  1
  Ni  Ni37  1  0.32518548  -0.00549733  0.66247395  1
  Ni  Ni38  1  0.49158077  0.16231602  0.82746554  1
  Ni  Ni39  1  0.49538896  0.49692053  0.49173551  1
  Cr  Cr40  1  0.33044303  0.32618295  0.66210659  1
  Ni  Ni41  1  0.49306321  0.49084746  0.82867754  1
  Cr  Cr42  1  0.49331556  0.82781657  0.49178384  1
  Cr  Cr43  1  0.32736384  0.66172603  0.66050878  1
  Cr  Cr44  1  0.49458621  0.82744596  0.82632326  1
  Cr  Cr45  1  0.82794594  0.16149350  0.49402864  1
  Cr  Cr46  1  0.66090683  -0.00336292  0.66487470  1
  Ni  Ni47  1  0.82982771  0.16192030  0.82757166  1
  Ni  Ni48  1  0.82564555  0.49477989  0.49382997  1
  Cr  Cr49  1  0.65960321  0.32826915  0.65989731  1
  Cr  Cr50  1  0.83014058  0.49364354  0.82731399  1
  Cr  Cr51  1  0.82413608  0.82681852  0.49325566  1
  Cr  Cr52  1  0.66009790  0.65766495  0.66132964  1
  Ni  Ni53  1  0.82961544  0.82926935  0.82751351  1
" 