5005,Ni63Fe12Cr23_3,-230.444448320592, 172.608987871146,Ni63Fe12Cr23,"# generated using pymatgen
 data_Cr7Fe3Ni17
_symmetry_space_group_name_H-M   'P 1'
_cell_length_a   7.46461583
_cell_length_b   7.46461583
_cell_length_c   10.55656094
_cell_angle_alpha   90.00000000
_cell_angle_beta   90.00000000
_cell_angle_gamma   90.00000000
_symmetry_Int_Tables_number   1
_chemical_formula_structural   Cr7Fe3Ni17
_chemical_formula_sum   'Cr14 Fe6 Ni34'
_cell_volume   588.21674317
_cell_formula_units_Z   2
loop_
 _symmetry_equiv_pos_site_id
 _symmetry_equiv_pos_as_xyz
  1  'x, y, z'
loop_
 _atom_site_type_symbol
 _atom_site_label
 _atom_site_symmetry_multiplicity
 _atom_site_fract_x
 _atom_site_fract_y
 _atom_site_fract_z
 _atom_site_occupancy
  Cr  Cr0  1  0.99972939  0.99948889  0.99994944  1
  Fe  Fe1  1  0.16889725  0.16629230  0.16798315  1
  Ni  Ni2  1  0.99764003  0.00139902  0.33326332  1
  Cr  Cr3  1  0.00065278  0.33256173  0.99745856  1
  Cr  Cr4  1  0.16813220  0.50167916  0.16886349  1
  Ni  Ni5  1  0.00069420  0.33199186  0.33621508  1
  Fe  Fe6  1  0.99961533  0.66755114  0.99861049  1
  Ni  Ni7  1  0.16734004  0.83362174  0.16600896  1
  Ni  Ni8  1  0.99934007  0.66710006  0.33395840  1
  Fe  Fe9  1  0.33483408  0.00038914  0.00173660  1
  Ni  Ni10  1  0.50127167  0.16675645  0.16544781  1
  Cr  Cr11  1  0.33363057  1.00005350  0.33162771  1
  Ni  Ni12  1  0.33507951  0.33498055  1.00008161  1
  Ni  Ni13  1  0.50010886  0.49948557  0.16632369  1
  Ni  Ni14  1  0.33175245  0.33510861  0.33249546  1
  Ni  Ni15  1  0.33471979  0.66575713  0.99968221  1
  Ni  Ni16  1  0.50021729  0.83424687  0.16651849  1
  Ni  Ni17  1  0.33442710  0.66530153  0.33340200  1
  Ni  Ni18  1  0.66753568  0.99938764  0.00168088  1
  Fe  Fe19  1  0.83072298  0.16520314  0.16858619  1
  Ni  Ni20  1  0.66983883  0.99872546  0.33304856  1
  Ni  Ni21  1  0.66454304  0.33423994  0.99928489  1
  Cr  Cr22  1  0.83192424  0.50071486  0.16767388  1
  Ni  Ni23  1  0.66804177  0.33340583  0.33260147  1
  Ni  Ni24  1  0.66526401  0.66686118  0.99989170  1
  Fe  Fe25  1  0.83160498  0.83403439  0.16792286  1
  Ni  Ni26  1  0.66671969  0.66835539  0.33376009  1
  Ni  Ni27  1  0.16386812  0.16767832  0.49889074  1
  Ni  Ni28  1  0.99944837  0.00161035  0.66763213  1
  Ni  Ni29  1  0.16628535  0.16594496  0.83355232  1
  Ni  Ni30  1  0.16540719  0.49959615  0.49722700  1
  Cr  Cr31  1  0.99879316  0.33155257  0.66655553  1
  Ni  Ni32  1  0.16768093  0.50152757  0.83503262  1
  Cr  Cr33  1  0.16716497  0.83300802  0.50134107  1
  Cr  Cr34  1  0.00050228  0.66710909  0.66854335  1
  Fe  Fe35  1  0.16640481  0.83310695  0.83328345  1
  Cr  Cr36  1  0.50203537  0.16478917  0.50160244  1
  Ni  Ni37  1  0.33178002  0.99844941  0.66760761  1
  Cr  Cr38  1  0.50146421  0.16733277  0.83349972  1
  Cr  Cr39  1  0.49991303  0.50153174  0.49837792  1
  Cr  Cr40  1  0.33230029  0.33471840  0.66725031  1
  Ni  Ni41  1  0.49988705  0.49995719  0.83587183  1
  Ni  Ni42  1  0.50170011  0.83382583  0.50019163  1
  Ni  Ni43  1  0.33328813  0.66804733  0.66740460  1
  Cr  Cr44  1  0.49950753  0.83370023  0.83284398  1
  Ni  Ni45  1  0.83441026  0.16603926  0.49962068  1
  Ni  Ni46  1  0.66925920  0.00058673  0.66575799  1
  Ni  Ni47  1  0.83315617  0.16625665  0.83225794  1
  Ni  Ni48  1  0.83502253  0.49908298  0.49795290  1
  Ni  Ni49  1  0.66920657  0.33228405  0.66860425  1
  Ni  Ni50  1  0.83291978  0.50004930  0.83499736  1
  Ni  Ni51  1  0.83219282  0.83536617  0.49781659  1
  Cr  Cr52  1  0.66619410  0.66677018  0.66618666  1
  Ni  Ni53  1  0.83472569  0.83418144  0.83481630  1
" 