2073,Ni63Cr37_5,-213.822729376272, 135.953910456332,Ni63Cr37,"# generated using pymatgen
 data_Cr17Ni10
_symmetry_space_group_name_H-M   'P 1'
_cell_length_a   7.54657375
_cell_length_b   7.54657375
_cell_length_c   10.67246695
_cell_angle_alpha   90.00000000
_cell_angle_beta   90.00000000
_cell_angle_gamma   90.00000000
_symmetry_Int_Tables_number   1
_chemical_formula_structural   Cr17Ni10
_chemical_formula_sum   'Cr34 Ni20'
_cell_volume   607.80526776
_cell_formula_units_Z   2
loop_
 _symmetry_equiv_pos_site_id
 _symmetry_equiv_pos_as_xyz
  1  'x, y, z'
loop_
 _atom_site_type_symbol
 _atom_site_label
 _atom_site_symmetry_multiplicity
 _atom_site_fract_x
 _atom_site_fract_y
 _atom_site_fract_z
 _atom_site_occupancy
  Cr  Cr0  1  0.99204604  0.99180515  0.99389671  1
  Cr  Cr1  1  0.15961929  0.16235127  0.16120795  1
  Cr  Cr2  1  0.99306108  0.99373275  0.32789442  1
  Ni  Ni3  1  0.99202335  0.32930708  0.99187117  1
  Cr  Cr4  1  0.16129440  0.49084311  0.16165074  1
  Ni  Ni5  1  0.99123754  0.32829275  0.32996277  1
  Cr  Cr6  1  0.99380455  0.66168455  -0.00489469  1
  Cr  Cr7  1  0.16414620  0.83119904  0.16202224  1
  Cr  Cr8  1  0.99342341  0.66227456  0.32704657  1
  Ni  Ni9  1  0.32919429  -0.00389868  0.99165227  1
  Cr  Cr10  1  0.49634838  0.16045137  0.15889968  1
  Ni  Ni11  1  0.33188692  -0.00469811  0.33131081  1
  Cr  Cr12  1  0.32998020  0.32716159  0.99008587  1
  Cr  Cr13  1  0.49829632  0.49237617  0.16004315  1
  Cr  Cr14  1  0.33266646  0.32497767  0.33034853  1
  Cr  Cr15  1  0.32729531  0.66203720  -0.00472300  1
  Cr  Cr16  1  0.49594394  0.83227001  0.16054046  1
  Cr  Cr17  1  0.32958721  0.66341406  0.32784581  1
  Ni  Ni18  1  0.66047300  -0.00437860  0.99270931  1
  Cr  Cr19  1  0.82629949  0.16148889  0.16113639  1
  Ni  Ni20  1  0.65813167  -0.00259988  0.32888356  1
  Ni  Ni21  1  0.66485309  0.32528769  0.99092640  1
  Cr  Cr22  1  0.82877963  0.49018486  0.16262873  1
  Ni  Ni23  1  0.66417652  0.32554171  0.33130335  1
  Cr  Cr24  1  0.66558901  0.66223136  -0.00425613  1
  Ni  Ni25  1  0.82545360  0.83084998  0.16106391  1
  Cr  Cr26  1  0.66220202  0.66319406  0.32704074  1
  Cr  Cr27  1  0.16099891  0.16051120  0.49282743  1
  Cr  Cr28  1  0.99414195  0.98972962  0.66286979  1
  Cr  Cr29  1  0.16054365  0.16153549  0.82968155  1
  Cr  Cr30  1  0.15842269  0.49520698  0.49368357  1
  Cr  Cr31  1  0.99341201  0.33029178  0.66233828  1
  Ni  Ni32  1  0.15711846  0.49763215  0.83007754  1
  Ni  Ni33  1  0.16471177  0.82890106  0.49263416  1
  Cr  Cr34  1  0.99286030  0.66178754  0.66316287  1
  Ni  Ni35  1  0.15990248  0.82649914  0.82993930  1
  Ni  Ni36  1  0.49816403  0.15796800  0.49482135  1
  Cr  Cr37  1  0.32862693  -0.00369536  0.66019389  1
  Ni  Ni38  1  0.49756686  0.15840763  0.82934670  1
  Cr  Cr39  1  0.49762486  0.49886044  0.49540985  1
  Cr  Cr40  1  0.32959248  0.32740679  0.66389524  1
  Cr  Cr41  1  0.49668297  0.49638645  0.82824795  1
  Ni  Ni42  1  0.49501478  0.83292062  0.49465138  1
  Cr  Cr43  1  0.32632156  0.66386095  0.66111178  1
  Cr  Cr44  1  0.49545775  0.82947246  0.82792447  1
  Cr  Cr45  1  0.82693820  0.16160188  0.49505240  1
  Ni  Ni46  1  0.65885044  0.99043358  0.66236450  1
  Cr  Cr47  1  0.82587218  0.15886728  0.82790689  1
  Ni  Ni48  1  0.82585403  0.49508378  0.49384435  1
  Cr  Cr49  1  0.66030847  0.32682135  0.66143844  1
  Ni  Ni50  1  0.82851589  0.49618387  0.82838006  1
  Cr  Cr51  1  0.82457121  0.82754605  0.49627271  1
  Ni  Ni52  1  0.66327149  0.66275356  0.66137458  1
  Ni  Ni53  1  0.82631347  0.82511686  0.82792397  1
" 