4784,Ni63Fe12Cr23_5,-230.615098869701, 171.99309082245,Ni63Fe12Cr23,"# generated using pymatgen
 data_Cr7Fe3Ni17
_symmetry_space_group_name_H-M   'P 1'
_cell_length_a   7.46529209
_cell_length_b   7.46529209
_cell_length_c   10.55751732
_cell_angle_alpha   90.00000000
_cell_angle_beta   90.00000000
_cell_angle_gamma   90.00000000
_symmetry_Int_Tables_number   1
_chemical_formula_structural   Cr7Fe3Ni17
_chemical_formula_sum   'Cr14 Fe6 Ni34'
_cell_volume   588.37662710
_cell_formula_units_Z   2
loop_
 _symmetry_equiv_pos_site_id
 _symmetry_equiv_pos_as_xyz
  1  'x, y, z'
loop_
 _atom_site_type_symbol
 _atom_site_label
 _atom_site_symmetry_multiplicity
 _atom_site_fract_x
 _atom_site_fract_y
 _atom_site_fract_z
 _atom_site_occupancy
  Ni  Ni0  1  0.99816714  0.99800554  0.00112273  1
  Fe  Fe1  1  0.16410657  0.16678178  0.16876285  1
  Ni  Ni2  1  0.00125260  0.00179791  0.33339289  1
  Ni  Ni3  1  0.00102219  0.33509312  0.00118630  1
  Ni  Ni4  1  0.16411443  0.49974450  0.16572884  1
  Ni  Ni5  1  1.00011431  0.33235153  0.33354832  1
  Ni  Ni6  1  0.00016656  0.66725383  0.99890741  1
  Ni  Ni7  1  0.16437503  0.83406401  0.16560117  1
  Cr  Cr8  1  0.99936864  0.66658749  0.33429897  1
  Cr  Cr9  1  0.33293005  0.00036267  0.99905731  1
  Ni  Ni10  1  0.50103756  0.16654359  0.16878580  1
  Ni  Ni11  1  0.33225258  0.00280175  0.33599482  1
  Cr  Cr12  1  0.33137762  0.33513274  0.99901835  1
  Cr  Cr13  1  0.50054325  0.49994363  0.16788705  1
  Ni  Ni14  1  0.33259447  0.33055396  0.33331421  1
  Ni  Ni15  1  0.33075627  0.66565490  0.99898522  1
  Cr  Cr16  1  0.50015094  0.83379533  0.16565258  1
  Cr  Cr17  1  0.33173753  0.66687518  0.33388279  1
  Ni  Ni18  1  0.66959768  0.99857675  0.00102133  1
  Ni  Ni19  1  0.83496578  0.16680378  0.16663741  1
  Cr  Cr20  1  0.66774231  0.00126527  0.33349324  1
  Cr  Cr21  1  0.66765877  0.33238004  0.99863133  1
  Ni  Ni22  1  0.83552075  0.49916645  0.16685722  1
  Ni  Ni23  1  0.66764261  0.33234614  0.33456257  1
  Ni  Ni24  1  0.66943023  0.66850780  0.99945257  1
  Ni  Ni25  1  0.83552099  0.83438127  0.16468271  1
  Fe  Fe26  1  0.66936040  0.66548468  0.33426280  1
  Ni  Ni27  1  0.16536758  0.16477757  0.49852946  1
  Ni  Ni28  1  0.00137513  0.99984350  0.66583627  1
  Ni  Ni29  1  0.16599638  0.16596135  0.83276488  1
  Ni  Ni30  1  0.16303787  0.49879602  0.49980743  1
  Ni  Ni31  1  0.00012781  0.33383611  0.66561768  1
  Ni  Ni32  1  0.16481927  0.50096940  0.83481864  1
  Ni  Ni33  1  0.16722346  0.83678028  0.50108261  1
  Fe  Fe34  1  0.99847362  0.66646964  0.66738789  1
  Ni  Ni35  1  0.16417884  0.83342156  0.83367017  1
  Ni  Ni36  1  0.49946205  0.16501914  0.49905300  1
  Fe  Fe37  1  0.33070854  0.00108797  0.66537058  1
  Ni  Ni38  1  0.49910567  0.16782230  0.83251479  1
  Cr  Cr39  1  0.50306215  0.50001690  0.49816552  1
  Cr  Cr40  1  0.33224522  0.33201290  0.66861587  1
  Ni  Ni41  1  0.50166085  0.50048938  0.83385481  1
  Ni  Ni42  1  0.49898327  0.83515854  0.49964384  1
  Cr  Cr43  1  0.33185651  0.66703687  0.66742109  1
  Cr  Cr44  1  0.50039082  0.83232294  0.83561152  1
  Ni  Ni45  1  0.83552119  0.16920625  0.49979500  1
  Cr  Cr46  1  0.66723443  0.99996533  0.66578786  1
  Cr  Cr47  1  0.83551049  0.16705635  0.83412072  1
  Ni  Ni48  1  0.83390375  0.49831825  0.50091134  1
  Fe  Fe49  1  0.66897201  0.33499103  0.66640449  1
  Ni  Ni50  1  0.83387373  0.50230386  0.83258256  1
  Fe  Fe51  1  0.83458068  0.83346457  0.50122223  1
  Ni  Ni52  1  0.66943879  0.66609645  0.66627443  1
  Ni  Ni53  1  0.83573187  0.83086914  0.83475578  1
" 