3049,Ni63Fe14Cr22_19,-231.387908846896, 178.049030447044,Ni63Fe14Cr22,"# generated using pymatgen
 data_Cr13Fe7Ni34
_symmetry_space_group_name_H-M   'P 1'
_cell_length_a   7.45797382
_cell_length_b   7.45797382
_cell_length_c   10.54716773
_cell_angle_alpha   90.00000000
_cell_angle_beta   90.00000000
_cell_angle_gamma   90.00000000
_symmetry_Int_Tables_number   1
_chemical_formula_structural   Cr13Fe7Ni34
_chemical_formula_sum   'Cr13 Fe7 Ni34'
_cell_volume   586.64795596
_cell_formula_units_Z   1
loop_
 _symmetry_equiv_pos_site_id
 _symmetry_equiv_pos_as_xyz
  1  'x, y, z'
loop_
 _atom_site_type_symbol
 _atom_site_label
 _atom_site_symmetry_multiplicity
 _atom_site_fract_x
 _atom_site_fract_y
 _atom_site_fract_z
 _atom_site_occupancy
  Ni  Ni0  1  1.00025571  0.00076084  0.00128659  1
  Ni  Ni1  1  0.16640282  0.16770419  0.16611460  1
  Ni  Ni2  1  0.00083660  0.99965846  0.33431588  1
  Ni  Ni3  1  0.00166626  0.33487340  0.00123987  1
  Ni  Ni4  1  0.16936498  0.50098415  0.16690674  1
  Cr  Cr5  1  0.00229716  0.33370762  0.33333573  1
  Cr  Cr6  1  0.99990595  0.66580743  1.00045505  1
  Ni  Ni7  1  0.16539983  0.83313689  0.16864287  1
  Fe  Fe8  1  0.00200626  0.66866975  0.33257485  1
  Cr  Cr9  1  0.33428350  0.99956992  0.00064614  1
  Cr  Cr10  1  0.50056115  0.16965328  0.16595409  1
  Cr  Cr11  1  0.33293230  0.99987852  0.33447193  1
  Ni  Ni12  1  0.33251092  0.33561605  0.00166271  1
  Ni  Ni13  1  0.50072651  0.50177875  0.16801600  1
  Ni  Ni14  1  0.33397905  0.33641489  0.33480152  1
  Ni  Ni15  1  0.33490203  0.66637010  0.00065995  1
  Fe  Fe16  1  0.50217079  0.82986679  0.16726812  1
  Ni  Ni17  1  0.33467156  0.66587639  0.33466493  1
  Ni  Ni18  1  0.66746470  0.99836913  0.99932653  1
  Cr  Cr19  1  0.83439472  0.16595600  0.16700288  1
  Ni  Ni20  1  0.66819414  0.99896618  0.33518218  1
  Ni  Ni21  1  0.66764676  0.33566914  0.99991324  1
  Ni  Ni22  1  0.83173366  0.50277866  0.16671956  1
  Ni  Ni23  1  0.66551898  0.33549160  0.33568614  1
  Ni  Ni24  1  0.66671764  0.66778224  0.00168872  1
  Ni  Ni25  1  0.83381882  0.83321614  0.16773930  1
  Ni  Ni26  1  0.66539352  0.66736568  0.33156096  1
  Ni  Ni27  1  0.16843726  0.16730736  0.50026342  1
  Ni  Ni28  1  1.00011472  0.99806040  0.66622567  1
  Cr  Cr29  1  0.16799455  0.16766860  0.83636315  1
  Ni  Ni30  1  0.17037817  0.50152347  0.50101288  1
  Cr  Cr31  1  0.00222267  0.33551230  0.66699590  1
  Ni  Ni32  1  0.16691516  0.50281526  0.83390463  1
  Ni  Ni33  1  0.16703446  0.83299434  0.50085372  1
  Ni  Ni34  1  0.00125961  0.66800231  0.66876574  1
  Ni  Ni35  1  0.16642379  0.83151997  0.83232803  1
  Ni  Ni36  1  0.50173686  0.16870522  0.50134720  1
  Cr  Cr37  1  0.33518048  1.00057760  0.66670812  1
  Ni  Ni38  1  0.50294757  0.16686829  0.83383704  1
  Fe  Fe39  1  0.49792849  0.50070293  0.49958613  1
  Ni  Ni40  1  0.33445265  0.33476891  0.66535861  1
  Cr  Cr41  1  0.50048543  0.50021917  0.83364529  1
  Ni  Ni42  1  0.50091879  0.83381967  0.50009733  1
  Fe  Fe43  1  0.33245381  0.66763667  0.66667013  1
  Ni  Ni44  1  0.50225805  0.83412573  0.83455363  1
  Fe  Fe45  1  0.83297124  0.16457120  0.50032940  1
  Ni  Ni46  1  0.66648039  0.99941934  0.66731441  1
  Cr  Cr47  1  0.83159282  0.16654386  0.83470574  1
  Cr  Cr48  1  0.83256323  0.50125602  0.50024488  1
  Fe  Fe49  1  0.66557236  0.33283254  0.66692955  1
  Ni  Ni50  1  0.83376270  0.50212366  0.83452029  1
  Cr  Cr51  1  0.83451108  0.83540294  0.50066551  1
  Ni  Ni52  1  0.66747143  0.66878402  0.66857297  1
  Fe  Fe53  1  0.83302559  0.83316571  0.83321324  1
" 