2626,Ni63Cr37_6,-213.554367325609, 135.510663157216,Ni63Cr37,"# generated using pymatgen
 data_Cr17Ni10
_symmetry_space_group_name_H-M   'P 1'
_cell_length_a   7.55420049
_cell_length_b   7.55420049
_cell_length_c   10.68325279
_cell_angle_alpha   90.00000000
_cell_angle_beta   90.00000000
_cell_angle_gamma   90.00000000
_symmetry_Int_Tables_number   1
_chemical_formula_structural   Cr17Ni10
_chemical_formula_sum   'Cr34 Ni20'
_cell_volume   609.64991626
_cell_formula_units_Z   2
loop_
 _symmetry_equiv_pos_site_id
 _symmetry_equiv_pos_as_xyz
  1  'x, y, z'
loop_
 _atom_site_type_symbol
 _atom_site_label
 _atom_site_symmetry_multiplicity
 _atom_site_fract_x
 _atom_site_fract_y
 _atom_site_fract_z
 _atom_site_occupancy
  Cr  Cr0  1  0.99412685  -0.00514623  0.99328355  1
  Cr  Cr1  1  0.16186831  0.16223013  0.16201830  1
  Cr  Cr2  1  0.99316983  0.99161926  0.32819663  1
  Cr  Cr3  1  0.99305639  0.32907794  -0.00514213  1
  Ni  Ni4  1  0.15884239  0.49617719  0.16315518  1
  Cr  Cr5  1  -0.00338531  0.33166335  0.32569980  1
  Ni  Ni6  1  0.99185423  0.65854289  -0.00368025  1
  Cr  Cr7  1  0.15991376  0.82510715  0.16059184  1
  Ni  Ni8  1  -0.00451670  0.65947520  0.32832882  1
  Cr  Cr9  1  0.32793613  -0.00509663  0.99235734  1
  Cr  Cr10  1  0.49365224  0.16285422  0.16175558  1
  Cr  Cr11  1  0.32927650  0.99283219  0.32900050  1
  Cr  Cr12  1  0.32720126  0.32730903  0.99337969  1
  Cr  Cr13  1  0.49545669  0.49476097  0.16111567  1
  Ni  Ni14  1  0.32657922  0.33091496  0.32839681  1
  Cr  Cr15  1  0.32656623  0.66044419  -0.00509968  1
  Cr  Cr16  1  0.49487383  0.82505187  0.16084799  1
  Ni  Ni17  1  0.32567447  0.65872596  0.32924818  1
  Cr  Cr18  1  0.66064602  -0.00461510  0.99341193  1
  Cr  Cr19  1  0.82719414  0.16286527  0.16047784  1
  Cr  Cr20  1  0.66022865  0.99170830  0.33024647  1
  Ni  Ni21  1  0.66216137  0.32859649  0.99300098  1
  Ni  Ni22  1  0.82851241  0.49725196  0.15935462  1
  Cr  Cr23  1  0.66039115  0.32788699  0.32781609  1
  Ni  Ni24  1  0.66392367  0.65791157  -0.00448351  1
  Cr  Cr25  1  0.82787437  0.82339960  0.16063298  1
  Ni  Ni26  1  0.66153574  0.66181153  0.32798295  1
  Cr  Cr27  1  0.16291375  0.15997766  0.49475905  1
  Ni  Ni28  1  -0.00387998  0.99240217  0.66131794  1
  Ni  Ni29  1  0.16111870  0.15873498  0.82590231  1
  Ni  Ni30  1  0.16119633  0.49850956  0.49176926  1
  Cr  Cr31  1  -0.00511873  0.32764468  0.66212834  1
  Cr  Cr32  1  0.15958581  0.49489808  0.82672221  1
  Ni  Ni33  1  0.16004674  0.82494999  0.49541579  1
  Ni  Ni34  1  -0.00445093  0.66412924  0.65796574  1
  Cr  Cr35  1  0.15906193  0.82970560  0.82611269  1
  Ni  Ni36  1  0.49196805  0.15867182  0.49439807  1
  Ni  Ni37  1  0.32642109  -0.00480663  0.66042090  1
  Ni  Ni38  1  0.49412861  0.16107290  0.82761526  1
  Cr  Cr39  1  0.49247976  0.49417089  0.49217625  1
  Cr  Cr40  1  0.32722923  0.32585627  0.66117358  1
  Cr  Cr41  1  0.49669257  0.49292394  0.82949953  1
  Ni  Ni42  1  0.49315929  0.82841424  0.49302792  1
  Cr  Cr43  1  0.32549878  0.66284205  0.65875739  1
  Cr  Cr44  1  0.49372471  0.82789454  0.82875536  1
  Cr  Cr45  1  0.82743960  0.15874412  0.49492376  1
  Cr  Cr46  1  0.66001019  -0.00530383  0.65915022  1
  Ni  Ni47  1  0.82746104  0.16095212  0.82791286  1
  Cr  Cr48  1  0.82905102  0.49776759  0.49418401  1
  Cr  Cr49  1  0.66061892  0.32505058  0.66254564  1
  Cr  Cr50  1  0.82640919  0.49481541  0.82912385  1
  Ni  Ni51  1  0.82951218  0.82550429  0.49410632  1
  Cr  Cr52  1  0.66173218  0.66288491  0.65914717  1
  Cr  Cr53  1  0.82987688  0.82673336  0.82759515  1
" 