3294,Ni63Fe14Cr22_3,-231.223680481923, 172.13158746576,Ni63Fe14Cr22,"# generated using pymatgen
 data_Cr13Fe7Ni34
_symmetry_space_group_name_H-M   'P 1'
_cell_length_a   7.45981050
_cell_length_b   7.45981050
_cell_length_c   10.54976518
_cell_angle_alpha   90.00000000
_cell_angle_beta   90.00000000
_cell_angle_gamma   90.00000000
_symmetry_Int_Tables_number   1
_chemical_formula_structural   Cr13Fe7Ni34
_chemical_formula_sum   'Cr13 Fe7 Ni34'
_cell_volume   587.08148381
_cell_formula_units_Z   1
loop_
 _symmetry_equiv_pos_site_id
 _symmetry_equiv_pos_as_xyz
  1  'x, y, z'
loop_
 _atom_site_type_symbol
 _atom_site_label
 _atom_site_symmetry_multiplicity
 _atom_site_fract_x
 _atom_site_fract_y
 _atom_site_fract_z
 _atom_site_occupancy
  Cr  Cr0  1  0.00124000  0.99797062  0.00114377  1
  Ni  Ni1  1  0.16735778  0.16602034  0.17068757  1
  Ni  Ni2  1  0.00101147  0.00187212  0.33270563  1
  Cr  Cr3  1  0.00106892  0.33554421  0.00164852  1
  Ni  Ni4  1  0.16490225  0.50059205  0.16678902  1
  Ni  Ni5  1  0.00092638  0.33217193  0.33149603  1
  Ni  Ni6  1  1.00048148  0.66810898  0.00111276  1
  Ni  Ni7  1  0.16809219  0.83489783  0.16613763  1
  Cr  Cr8  1  0.99909460  0.66791491  0.33341395  1
  Ni  Ni9  1  0.33655575  0.99870652  0.00070192  1
  Ni  Ni10  1  0.50188363  0.16423166  0.16771693  1
  Ni  Ni11  1  0.33445103  0.00306341  0.33376537  1
  Cr  Cr12  1  0.33445274  0.33237296  0.99848189  1
  Cr  Cr13  1  0.50074281  0.50025115  0.16685311  1
  Ni  Ni14  1  0.33355747  0.32989884  0.33456998  1
  Fe  Fe15  1  0.33305794  0.66970820  0.99924605  1
  Ni  Ni16  1  0.50023743  0.83764852  0.16536385  1
  Cr  Cr17  1  0.33474491  0.66865632  0.33317515  1
  Ni  Ni18  1  0.66436747  0.99914819  0.00091866  1
  Ni  Ni19  1  0.83221633  0.16727564  0.16879353  1
  Ni  Ni20  1  0.66599082  0.00092625  0.33286512  1
  Ni  Ni21  1  0.66574578  0.33318038  0.00208834  1
  Ni  Ni22  1  0.83498782  0.49894119  0.16622257  1
  Fe  Fe23  1  0.66693686  0.33160449  0.33388521  1
  Fe  Fe24  1  0.66736095  0.66942718  0.00073468  1
  Ni  Ni25  1  0.83309755  0.83523286  0.16645035  1
  Cr  Cr26  1  0.66756999  0.66844946  0.33517952  1
  Ni  Ni27  1  0.16998446  0.16479624  0.49857103  1
  Cr  Cr28  1  0.00250498  0.99703054  0.66754907  1
  Ni  Ni29  1  0.17081274  0.16591648  0.83216805  1
  Cr  Cr30  1  0.16812299  0.49999351  0.50141542  1
  Cr  Cr31  1  0.00251367  0.33518504  0.66850642  1
  Ni  Ni32  1  0.16994474  0.50323724  0.83287703  1
  Ni  Ni33  1  0.16900531  0.83642997  0.50150976  1
  Ni  Ni34  1  0.99999595  0.66913639  0.66712025  1
  Ni  Ni35  1  0.16937112  0.83238277  0.83377628  1
  Ni  Ni36  1  0.49932140  0.16662033  0.50102856  1
  Ni  Ni37  1  0.33562828  1.00024367  0.66706974  1
  Fe  Fe38  1  0.49919988  0.16602399  0.83323877  1
  Ni  Ni39  1  0.50252422  0.49936230  0.50258081  1
  Ni  Ni40  1  0.33772689  0.33329319  0.66817322  1
  Ni  Ni41  1  0.49945154  0.50177314  0.83222454  1
  Ni  Ni42  1  0.49943756  0.83538664  0.50186312  1
  Ni  Ni43  1  0.33489364  0.66790845  0.66846310  1
  Ni  Ni44  1  0.49971108  0.83354431  0.83424852  1
  Cr  Cr45  1  0.83322404  0.16783368  0.49834548  1
  Fe  Fe46  1  0.66326177  0.99887702  0.66717736  1
  Cr  Cr47  1  0.83111577  0.16584937  0.83449764  1
  Ni  Ni48  1  0.83115648  0.50036513  0.50150833  1
  Ni  Ni49  1  0.66232874  0.33551326  0.66594011  1
  Cr  Cr50  1  0.83246355  0.50212723  0.83406594  1
  Fe  Fe51  1  0.83315440  0.83349747  0.50091546  1
  Fe  Fe52  1  0.66508355  0.66737093  0.66614768  1
  Ni  Ni53  1  0.83212289  0.83267944  0.83306525  1
" 