3412,Ni63Fe14Cr22_16,-231.540933704234, 181.02864895331,Ni63Fe14Cr22,"# generated using pymatgen
 data_Cr13Fe7Ni34
_symmetry_space_group_name_H-M   'P 1'
_cell_length_a   7.45853696
_cell_length_b   7.45853696
_cell_length_c   10.54796412
_cell_angle_alpha   90.00000000
_cell_angle_beta   90.00000000
_cell_angle_gamma   90.00000000
_symmetry_Int_Tables_number   1
_chemical_formula_structural   Cr13Fe7Ni34
_chemical_formula_sum   'Cr13 Fe7 Ni34'
_cell_volume   586.78085556
_cell_formula_units_Z   1
loop_
 _symmetry_equiv_pos_site_id
 _symmetry_equiv_pos_as_xyz
  1  'x, y, z'
loop_
 _atom_site_type_symbol
 _atom_site_label
 _atom_site_symmetry_multiplicity
 _atom_site_fract_x
 _atom_site_fract_y
 _atom_site_fract_z
 _atom_site_occupancy
  Ni  Ni0  1  0.00088217  0.00113846  1.00014120  1
  Ni  Ni1  1  0.16777827  0.16668432  0.16812362  1
  Cr  Cr2  1  0.00131514  0.00060692  0.33592985  1
  Cr  Cr3  1  0.99905781  0.33271020  1.00007636  1
  Fe  Fe4  1  0.16686929  0.50112517  0.16972578  1
  Ni  Ni5  1  0.99951997  0.33510410  0.33242895  1
  Cr  Cr6  1  0.99984382  0.66758881  1.00013795  1
  Ni  Ni7  1  0.16961194  0.83428858  0.16731786  1
  Ni  Ni8  1  0.00118262  0.66585113  0.33337889  1
  Fe  Fe9  1  0.33370476  0.00078372  0.00076158  1
  Fe  Fe10  1  0.50159979  0.16798865  0.16828252  1
  Ni  Ni11  1  0.33386962  1.00006729  0.33329324  1
  Cr  Cr12  1  0.33471851  0.33267070  0.00062064  1
  Fe  Fe13  1  0.50161114  0.49935669  0.16831042  1
  Ni  Ni14  1  0.33423619  0.33402925  0.33256140  1
  Fe  Fe15  1  0.33465236  0.66804408  0.00092569  1
  Cr  Cr16  1  0.49877967  0.83380249  0.16699204  1
  Ni  Ni17  1  0.33325929  0.66761481  0.33348965  1
  Fe  Fe18  1  0.66809876  0.00208096  0.99856277  1
  Ni  Ni19  1  0.83324529  0.17033062  0.16704038  1
  Ni  Ni20  1  0.66619175  0.00173173  0.33437219  1
  Ni  Ni21  1  0.66751579  0.33350528  0.00130403  1
  Ni  Ni22  1  0.83236619  0.49796089  0.16877040  1
  Ni  Ni23  1  0.66795542  0.33449652  0.33250613  1
  Ni  Ni24  1  0.66690887  0.66691673  0.99953970  1
  Cr  Cr25  1  0.83422586  0.83381946  0.16708034  1
  Fe  Fe26  1  0.66716857  0.66543343  0.33582517  1
  Ni  Ni27  1  0.16634432  0.16623236  0.50001448  1
  Ni  Ni28  1  0.99836428  0.00123207  0.66658130  1
  Ni  Ni29  1  0.16694651  0.16764869  0.83357175  1
  Cr  Cr30  1  0.16904741  0.50005970  0.49968258  1
  Cr  Cr31  1  1.00020556  0.33177062  0.66879975  1
  Ni  Ni32  1  0.16829776  0.49940981  0.83357188  1
  Ni  Ni33  1  0.16815295  0.83466813  0.49908005  1
  Cr  Cr34  1  0.99882727  0.66882442  0.66762677  1
  Cr  Cr35  1  0.16770169  0.83430900  0.83486383  1
  Cr  Cr36  1  0.50099142  0.16835385  0.49974939  1
  Cr  Cr37  1  0.33391236  0.00082984  0.66660943  1
  Ni  Ni38  1  0.50209649  0.16628725  0.83468145  1
  Ni  Ni39  1  0.50195625  0.50253576  0.50061919  1
  Ni  Ni40  1  0.33479067  0.33467938  0.66833349  1
  Cr  Cr41  1  0.50113471  0.50129112  0.83181696  1
  Ni  Ni42  1  0.50118188  0.83119659  0.50006685  1
  Ni  Ni43  1  0.33661172  0.66641208  0.66732781  1
  Ni  Ni44  1  0.50289169  0.83420124  0.83464221  1
  Ni  Ni45  1  0.83410441  0.16700859  0.50047746  1
  Ni  Ni46  1  0.66933215  0.99940881  0.66907600  1
  Ni  Ni47  1  0.83267152  0.16595621  0.83419652  1
  Ni  Ni48  1  0.83062977  0.50072826  0.49867193  1
  Ni  Ni49  1  0.66680413  0.33413761  0.66790195  1
  Ni  Ni50  1  0.83221700  0.50020715  0.83426712  1
  Ni  Ni51  1  0.83237635  0.83397472  0.50067594  1
  Ni  Ni52  1  0.66619211  0.66816412  0.66623697  1
  Ni  Ni53  1  0.83085740  0.83555030  0.83416689  1
" 