7818,Ni63Fe12Cr23_11,-230.355055549402, 169.051787343612,Ni63Fe12Cr23,"# generated using pymatgen
 data_Cr7Fe3Ni17
_symmetry_space_group_name_H-M   'P 1'
_cell_length_a   7.46162473
_cell_length_b   7.46162473
_cell_length_c   10.55233089
_cell_angle_alpha   90.00000000
_cell_angle_beta   90.00000000
_cell_angle_gamma   90.00000000
_symmetry_Int_Tables_number   1
_chemical_formula_structural   Cr7Fe3Ni17
_chemical_formula_sum   'Cr14 Fe6 Ni34'
_cell_volume   587.50992493
_cell_formula_units_Z   2
loop_
 _symmetry_equiv_pos_site_id
 _symmetry_equiv_pos_as_xyz
  1  'x, y, z'
loop_
 _atom_site_type_symbol
 _atom_site_label
 _atom_site_symmetry_multiplicity
 _atom_site_fract_x
 _atom_site_fract_y
 _atom_site_fract_z
 _atom_site_occupancy
  Ni  Ni0  1  0.99981065  0.99948947  0.99868062  1
  Ni  Ni1  1  0.16831935  0.16772255  0.16577953  1
  Cr  Cr2  1  0.99970432  0.00226269  0.33468763  1
  Cr  Cr3  1  0.99919081  0.33291944  0.00264715  1
  Ni  Ni4  1  0.16547308  0.49897523  0.16605811  1
  Fe  Fe5  1  1.00033898  0.33299048  0.33413230  1
  Ni  Ni6  1  0.99861098  0.66839875  0.00112425  1
  Cr  Cr7  1  0.16617836  0.83367492  0.16466418  1
  Cr  Cr8  1  0.99924844  0.66438972  0.33387668  1
  Ni  Ni9  1  0.33278833  0.00150899  0.00059958  1
  Ni  Ni10  1  0.50054922  0.16554627  0.16586083  1
  Ni  Ni11  1  0.33508796  0.00303836  0.33514601  1
  Ni  Ni12  1  0.33473904  0.33291833  0.00141679  1
  Cr  Cr13  1  0.49998504  0.49858534  0.16276717  1
  Cr  Cr14  1  0.33172895  0.33123289  0.33373975  1
  Ni  Ni15  1  0.33378763  0.66667993  0.99869512  1
  Cr  Cr16  1  0.50170284  0.83722997  0.16602973  1
  Cr  Cr17  1  0.33272802  0.66752447  0.33671304  1
  Ni  Ni18  1  0.66849393  0.00051082  0.00155576  1
  Ni  Ni19  1  0.83221872  0.16590765  0.16648904  1
  Ni  Ni20  1  0.66625726  0.00192055  0.33444804  1
  Ni  Ni21  1  0.66667416  0.33406462  1.00026027  1
  Ni  Ni22  1  0.83554241  0.50036510  0.16537048  1
  Cr  Cr23  1  0.66902585  0.33168562  0.33353811  1
  Ni  Ni24  1  0.66874000  0.66648739  0.99886688  1
  Ni  Ni25  1  0.83329117  0.83479950  0.16436589  1
  Cr  Cr26  1  0.66916379  0.66819983  0.33518876  1
  Ni  Ni27  1  0.16694152  0.16721065  0.50162919  1
  Ni  Ni28  1  0.99879131  0.00314580  0.66746798  1
  Fe  Fe29  1  0.16432912  0.16567434  0.83394718  1
  Ni  Ni30  1  0.16794314  0.49974001  0.50120273  1
  Ni  Ni31  1  0.99923978  0.33127742  0.66461540  1
  Cr  Cr32  1  0.16912460  0.50175199  0.83389684  1
  Ni  Ni33  1  0.16759044  0.83415947  0.50091673  1
  Cr  Cr34  1  0.99930384  0.66768328  0.66618079  1
  Ni  Ni35  1  0.16630322  0.83465562  0.83575025  1
  Ni  Ni36  1  0.50122158  0.16646961  0.49969628  1
  Cr  Cr37  1  0.33241788  0.99935459  0.66596854  1
  Cr  Cr38  1  0.50204116  0.16885213  0.83551594  1
  Ni  Ni39  1  0.49975306  0.49991498  0.50442003  1
  Fe  Fe40  1  0.33383277  0.33526711  0.66528531  1
  Ni  Ni41  1  0.50139485  0.50140349  0.83380748  1
  Fe  Fe42  1  0.50138076  0.83469164  0.50102929  1
  Ni  Ni43  1  0.33653094  0.66570885  0.66558655  1
  Fe  Fe44  1  0.50212428  0.83095450  0.83469803  1
  Ni  Ni45  1  0.83292786  0.16611318  0.50213511  1
  Ni  Ni46  1  0.66951894  0.99979912  0.66511678  1
  Ni  Ni47  1  0.83331729  0.16502436  0.83238089  1
  Ni  Ni48  1  0.83340981  0.49932576  0.50179395  1
  Fe  Fe49  1  0.66848162  0.33452377  0.66657744  1
  Ni  Ni50  1  0.83016147  0.50078974  0.83388357  1
  Ni  Ni51  1  0.83273950  0.83562957  0.50165691  1
  Ni  Ni52  1  0.66522525  0.66626002  0.66670828  1
  Ni  Ni53  1  0.83419745  0.83521290  0.83505359  1
" 