5628,Ni63Fe30Cr6_11,-239.49299085456, 210.131317871732,Ni63Fe30Cr6,"# generated using pymatgen
 data_Cr2Fe8Ni17
_symmetry_space_group_name_H-M   'P 1'
_cell_length_a   7.42018391
_cell_length_b   7.42018391
_cell_length_c   10.49372473
_cell_angle_alpha   90.00000000
_cell_angle_beta   90.00000000
_cell_angle_gamma   90.00000000
_symmetry_Int_Tables_number   1
_chemical_formula_structural   Cr2Fe8Ni17
_chemical_formula_sum   'Cr4 Fe16 Ni34'
_cell_volume   577.77534667
_cell_formula_units_Z   2
loop_
 _symmetry_equiv_pos_site_id
 _symmetry_equiv_pos_as_xyz
  1  'x, y, z'
loop_
 _atom_site_type_symbol
 _atom_site_label
 _atom_site_symmetry_multiplicity
 _atom_site_fract_x
 _atom_site_fract_y
 _atom_site_fract_z
 _atom_site_occupancy
  Fe  Fe0  1  0.00357208  1.00309795  1.00265212  1
  Fe  Fe1  1  0.17096167  0.17106667  0.16902085  1
  Cr  Cr2  1  1.00274440  0.00398210  0.33655815  1
  Ni  Ni3  1  0.00356703  0.33548522  0.00340463  1
  Ni  Ni4  1  0.17006201  0.50446005  0.16993757  1
  Ni  Ni5  1  1.00247813  0.33825945  0.33733708  1
  Fe  Fe6  1  0.00479811  0.67154935  0.00376986  1
  Ni  Ni7  1  0.17068257  0.83473437  0.16924592  1
  Ni  Ni8  1  0.00405658  0.66740499  0.33693168  1
  Ni  Ni9  1  0.33745611  1.00187460  1.00187430  1
  Ni  Ni10  1  0.50443994  0.17018806  0.17048433  1
  Ni  Ni11  1  0.33857628  1.00197871  0.33744440  1
  Fe  Fe12  1  0.33683585  0.33600094  1.00277685  1
  Ni  Ni13  1  0.50286323  0.50271734  0.16936995  1
  Fe  Fe14  1  0.33693248  0.33727640  0.33694393  1
  Ni  Ni15  1  0.33654792  0.67011270  1.00275432  1
  Fe  Fe16  1  0.50244560  0.83679063  0.16994684  1
  Ni  Ni17  1  0.33664991  0.67004168  0.33644567  1
  Ni  Ni18  1  0.66978003  0.00345271  1.00301928  1
  Ni  Ni19  1  0.83471519  0.17081130  0.16853018  1
  Ni  Ni20  1  0.66795894  0.00356062  0.33654041  1
  Fe  Fe21  1  0.66840917  0.33477497  0.00461686  1
  Fe  Fe22  1  0.83684672  0.50239188  0.17064371  1
  Ni  Ni23  1  0.67059978  0.33633243  0.33657662  1
  Fe  Fe24  1  0.66839617  0.67104541  0.00387655  1
  Fe  Fe25  1  0.83530160  0.83571435  0.16943113  1
  Ni  Ni26  1  0.66876515  0.66957945  0.33680616  1
  Ni  Ni27  1  0.17088931  0.17137729  0.50248810  1
  Cr  Cr28  1  1.00155056  0.00345477  0.67033951  1
  Ni  Ni29  1  0.17111874  0.17007027  0.83804749  1
  Ni  Ni30  1  0.16851710  0.50252018  0.50254386  1
  Ni  Ni31  1  0.00410053  0.33714672  0.66872940  1
  Fe  Fe32  1  0.17016031  0.50219093  0.83701130  1
  Ni  Ni33  1  0.17086428  0.83557865  0.50242191  1
  Ni  Ni34  1  1.00306627  0.66859939  0.66913763  1
  Ni  Ni35  1  0.17038408  0.83677660  0.83780495  1
  Fe  Fe36  1  0.50329606  0.16944931  0.50302155  1
  Fe  Fe37  1  0.33707324  0.00486679  0.67013578  1
  Ni  Ni38  1  0.50276207  0.16920198  0.83583590  1
  Ni  Ni39  1  0.50420464  0.50298291  0.50249426  1
  Ni  Ni40  1  0.33600682  0.33628474  0.67057702  1
  Fe  Fe41  1  0.50203884  0.50252626  0.83724584  1
  Ni  Ni42  1  0.50373434  0.83699656  0.50158745  1
  Cr  Cr43  1  0.33588888  0.66942840  0.66990512  1
  Ni  Ni44  1  0.50324640  0.83789637  0.83781424  1
  Ni  Ni45  1  0.83533603  0.17184754  0.50367157  1
  Ni  Ni46  1  0.66921225  0.00340638  0.66991476  1
  Ni  Ni47  1  0.83559192  0.16945717  0.83727258  1
  Ni  Ni48  1  0.83675560  0.50300396  0.50227781  1
  Fe  Fe49  1  0.66966759  0.33570666  0.66859714  1
  Cr  Cr50  1  0.83678943  0.50297324  0.83569104  1
  Ni  Ni51  1  0.83487446  0.83462111  0.50338734  1
  Fe  Fe52  1  0.67110858  0.67056698  0.66838163  1
  Ni  Ni53  1  0.83584304  0.83690856  0.83724946  1
" 