7000,Ni63Fe13Cr23_19,-231.415637658457, 177.273853871922,Ni63Fe13Cr23,"# generated using pymatgen
 data_Cr13Fe7Ni34
_symmetry_space_group_name_H-M   'P 1'
_cell_length_a   7.45582659
_cell_length_b   7.45582659
_cell_length_c   10.54413108
_cell_angle_alpha   90.00000000
_cell_angle_beta   90.00000000
_cell_angle_gamma   90.00000000
_symmetry_Int_Tables_number   1
_chemical_formula_structural   Cr13Fe7Ni34
_chemical_formula_sum   'Cr13 Fe7 Ni34'
_cell_volume   586.14139476
_cell_formula_units_Z   1
loop_
 _symmetry_equiv_pos_site_id
 _symmetry_equiv_pos_as_xyz
  1  'x, y, z'
loop_
 _atom_site_type_symbol
 _atom_site_label
 _atom_site_symmetry_multiplicity
 _atom_site_fract_x
 _atom_site_fract_y
 _atom_site_fract_z
 _atom_site_occupancy
  Ni  Ni0  1  0.00080111  1.00052337  0.99980869  1
  Ni  Ni1  1  0.16728865  0.16992586  0.16619151  1
  Ni  Ni2  1  0.99998283  0.99814576  0.33365493  1
  Ni  Ni3  1  0.00123128  0.33387385  0.99924941  1
  Cr  Cr4  1  0.16813297  0.49972595  0.16862317  1
  Ni  Ni5  1  0.00130950  0.33537706  0.33283619  1
  Ni  Ni6  1  0.99720377  0.66752295  0.00121157  1
  Cr  Cr7  1  0.16506355  0.83304450  0.16697356  1
  Ni  Ni8  1  0.00086991  0.66891821  0.33557624  1
  Cr  Cr9  1  0.33335768  0.00380650  0.99939501  1
  Ni  Ni10  1  0.50052001  0.16935496  0.16976955  1
  Cr  Cr11  1  0.33384286  0.00099399  0.33532605  1
  Ni  Ni12  1  0.33507305  0.33257824  1.00061545  1
  Ni  Ni13  1  0.49993223  0.49914671  0.16603781  1
  Ni  Ni14  1  0.33664727  0.33557159  0.33417821  1
  Fe  Fe15  1  0.33501978  0.66606170  0.99870402  1
  Cr  Cr16  1  0.50355862  0.83368235  0.16508444  1
  Ni  Ni17  1  0.33399165  0.66521020  0.33653529  1
  Ni  Ni18  1  0.66735524  1.00036217  1.00002708  1
  Cr  Cr19  1  0.83452234  0.16551563  0.16824922  1
  Ni  Ni20  1  0.66763829  0.00089755  0.33537235  1
  Cr  Cr21  1  0.66661040  0.33550974  1.00054859  1
  Ni  Ni22  1  0.83473457  0.50172337  0.16711252  1
  Ni  Ni23  1  0.66424786  0.33459692  0.33309147  1
  Ni  Ni24  1  0.66887045  0.66652194  0.99992408  1
  Ni  Ni25  1  0.83408642  0.83391340  0.16680034  1
  Cr  Cr26  1  0.66814112  0.66621713  0.33410740  1
  Cr  Cr27  1  0.16665892  0.17042224  0.50168007  1
  Ni  Ni28  1  0.00288343  0.99852179  0.66849670  1
  Fe  Fe29  1  0.16711009  0.16669193  0.83293952  1
  Ni  Ni30  1  0.16985053  0.50168773  0.50065618  1
  Ni  Ni31  1  1.00011550  0.33455992  0.66988058  1
  Cr  Cr32  1  0.16695778  0.50120971  0.83345144  1
  Ni  Ni33  1  0.16734652  0.83200983  0.50222952  1
  Ni  Ni34  1  0.00149780  0.66878492  0.66546161  1
  Ni  Ni35  1  0.16831494  0.83372903  0.83307151  1
  Fe  Fe36  1  0.50117724  0.16845438  0.50194638  1
  Ni  Ni37  1  0.33419398  0.99940901  0.66807382  1
  Ni  Ni38  1  0.50104921  0.16684831  0.83188800  1
  Ni  Ni39  1  0.49796298  0.50021618  0.50249708  1
  Ni  Ni40  1  0.33649927  0.33390246  0.66727598  1
  Fe  Fe41  1  0.50085158  0.50275701  0.83296698  1
  Ni  Ni42  1  0.50084369  0.83398263  0.50324564  1
  Ni  Ni43  1  0.33436028  0.66906903  0.66700376  1
  Ni  Ni44  1  0.50008649  0.83514085  0.83375076  1
  Cr  Cr45  1  0.83238535  0.16645567  0.50127687  1
  Fe  Fe46  1  0.66580975  1.00065353  0.66742934  1
  Fe  Fe47  1  0.83450631  0.16704803  0.83343081  1
  Cr  Cr48  1  0.83601208  0.49923757  0.50167924  1
  Ni  Ni49  1  0.66574632  0.33511005  0.66930436  1
  Ni  Ni50  1  0.83439135  0.49984387  0.83314331  1
  Ni  Ni51  1  0.83408056  0.83601035  0.50109074  1
  Fe  Fe52  1  0.66650571  0.66676558  0.66771740  1
  Cr  Cr53  1  0.83340392  0.83339181  0.83404325  1
" 