7592,Ni63Cr37_17,-213.644033160102, 134.129015493386,Ni63Cr37,"# generated using pymatgen
 data_Cr17Ni10
_symmetry_space_group_name_H-M   'P 1'
_cell_length_a   7.55794815
_cell_length_b   7.55794815
_cell_length_c   10.68855278
_cell_angle_alpha   90.00000000
_cell_angle_beta   90.00000000
_cell_angle_gamma   90.00000000
_symmetry_Int_Tables_number   1
_chemical_formula_structural   Cr17Ni10
_chemical_formula_sum   'Cr34 Ni20'
_cell_volume   610.55771374
_cell_formula_units_Z   2
loop_
 _symmetry_equiv_pos_site_id
 _symmetry_equiv_pos_as_xyz
  1  'x, y, z'
loop_
 _atom_site_type_symbol
 _atom_site_label
 _atom_site_symmetry_multiplicity
 _atom_site_fract_x
 _atom_site_fract_y
 _atom_site_fract_z
 _atom_site_occupancy
  Cr  Cr0  1  -0.00571061  0.99211816  -0.00259727  1
  Cr  Cr1  1  0.16433553  0.16277886  0.15951229  1
  Cr  Cr2  1  -0.00579241  0.99212783  0.32392261  1
  Cr  Cr3  1  0.99274124  0.32908469  -0.00400389  1
  Cr  Cr4  1  0.16696341  0.49412145  0.15879835  1
  Cr  Cr5  1  0.99247936  0.32991298  0.32619950  1
  Cr  Cr6  1  0.99159842  0.65989179  -0.00383078  1
  Cr  Cr7  1  0.16380879  0.82602633  0.15955477  1
  Cr  Cr8  1  0.99266755  0.65910986  0.32597739  1
  Ni  Ni9  1  0.33374004  -0.00494549  -0.00599193  1
  Ni  Ni10  1  0.49178730  0.16259250  0.15797982  1
  Cr  Cr11  1  0.32906446  -0.00373954  0.32546706  1
  Ni  Ni12  1  0.33219208  0.32616868  -0.00482953  1
  Ni  Ni13  1  0.49517099  0.49352767  0.16049248  1
  Ni  Ni14  1  0.32875717  0.33115986  0.32477534  1
  Ni  Ni15  1  0.33237489  0.66117383  -0.00531995  1
  Cr  Cr16  1  0.49487103  0.82364384  0.16114658  1
  Ni  Ni17  1  0.32910815  0.65576385  0.32657174  1
  Ni  Ni18  1  0.65527081  0.99231810  -0.00580470  1
  Cr  Cr19  1  0.82433616  0.15814122  0.15927651  1
  Cr  Cr20  1  0.65991776  -0.00543963  0.32536262  1
  Cr  Cr21  1  0.65902986  0.32732304  -0.00341073  1
  Ni  Ni22  1  0.82305409  0.49876048  0.16053770  1
  Cr  Cr23  1  0.65959036  0.32930623  0.32366356  1
  Ni  Ni24  1  0.65685914  0.66280310  -0.00273897  1
  Ni  Ni25  1  0.82250034  0.82340517  0.15945767  1
  Ni  Ni26  1  0.66052884  0.65780991  0.32474026  1
  Cr  Cr27  1  0.16019206  0.16347473  0.49338063  1
  Ni  Ni28  1  0.99394964  -0.00474353  0.66090751  1
  Cr  Cr29  1  0.16092053  0.16244725  0.82861212  1
  Ni  Ni30  1  0.16142065  0.49123992  0.49309718  1
  Ni  Ni31  1  -0.00385756  0.32840932  0.65790689  1
  Cr  Cr32  1  0.16273338  0.49153544  0.82869366  1
  Cr  Cr33  1  0.16203720  0.82577545  0.49148760  1
  Cr  Cr34  1  -0.00488089  0.65943261  0.65949206  1
  Cr  Cr35  1  0.16348611  0.82733338  0.83125023  1
  Cr  Cr36  1  0.49384645  0.16231221  0.49366726  1
  Cr  Cr37  1  0.33011998  -0.00595961  0.66309722  1
  Ni  Ni38  1  0.49294033  0.15894892  0.82935528  1
  Cr  Cr39  1  0.49208631  0.49444767  0.49020071  1
  Ni  Ni40  1  0.32483666  0.32664064  0.66077306  1
  Cr  Cr41  1  0.49192033  0.49566255  0.83104241  1
  Cr  Cr42  1  0.49579930  0.82515370  0.49198898  1
  Cr  Cr43  1  0.32685671  0.66048250  0.66105748  1
  Ni  Ni44  1  0.49520766  0.83035186  0.83129780  1
  Cr  Cr45  1  0.82816117  0.16044215  0.49837870  1
  Ni  Ni46  1  0.65909165  0.99381037  0.66404843  1
  Cr  Cr47  1  0.82668334  0.15914941  0.82432342  1
  Ni  Ni48  1  0.82883498  0.49441509  0.49333819  1
  Cr  Cr49  1  0.65785493  0.32718235  0.66104093  1
  Cr  Cr50  1  0.82614424  0.49362691  0.82791108  1
  Cr  Cr51  1  0.82519853  0.82860929  0.49390534  1
  Cr  Cr52  1  0.65920007  0.66134678  0.66110819  1
  Cr  Cr53  1  0.82323857  0.82879494  0.82899623  1
" 