1495,Ni63Fe14Cr22_5,-231.502600954857, 175.563078428722,Ni63Fe14Cr22,"# generated using pymatgen
 data_Cr13Fe7Ni34
_symmetry_space_group_name_H-M   'P 1'
_cell_length_a   7.46067868
_cell_length_b   7.46067868
_cell_length_c   10.55099298
_cell_angle_alpha   90.00000000
_cell_angle_beta   90.00000000
_cell_angle_gamma   90.00000000
_symmetry_Int_Tables_number   1
_chemical_formula_structural   Cr13Fe7Ni34
_chemical_formula_sum   'Cr13 Fe7 Ni34'
_cell_volume   587.28648462
_cell_formula_units_Z   1
loop_
 _symmetry_equiv_pos_site_id
 _symmetry_equiv_pos_as_xyz
  1  'x, y, z'
loop_
 _atom_site_type_symbol
 _atom_site_label
 _atom_site_symmetry_multiplicity
 _atom_site_fract_x
 _atom_site_fract_y
 _atom_site_fract_z
 _atom_site_occupancy
  Ni  Ni0  1  0.00084098  0.00437443  0.00247253  1
  Ni  Ni1  1  0.16468770  0.16609149  0.16613101  1
  Ni  Ni2  1  0.99929349  0.99962976  0.33183445  1
  Ni  Ni3  1  0.99979501  0.33124604  0.99962352  1
  Cr  Cr4  1  0.16894388  0.49857823  0.16737911  1
  Fe  Fe5  1  0.99846470  0.33386643  0.33266249  1
  Cr  Cr6  1  1.00020985  0.66540526  0.00095094  1
  Ni  Ni7  1  0.16496407  0.83641353  0.16613396  1
  Fe  Fe8  1  0.99721362  0.66935307  0.33486834  1
  Ni  Ni9  1  0.33384483  1.00017464  0.00058188  1
  Cr  Cr10  1  0.50071673  0.16915759  0.16680912  1
  Cr  Cr11  1  0.33408545  0.99911226  0.33384685  1
  Ni  Ni12  1  0.33241745  0.33294156  1.00017714  1
  Ni  Ni13  1  0.50286946  0.50099491  0.16601155  1
  Fe  Fe14  1  0.33542107  0.33291244  0.33343123  1
  Ni  Ni15  1  0.33617391  0.66820725  0.00160290  1
  Ni  Ni16  1  0.50308684  0.83162343  0.16548948  1
  Cr  Cr17  1  0.33395167  0.66817034  0.33307504  1
  Ni  Ni18  1  0.66657317  0.00048900  0.00095672  1
  Fe  Fe19  1  0.83472969  0.16587794  0.16659010  1
  Ni  Ni20  1  0.66916277  0.99953097  0.33414584  1
  Ni  Ni21  1  0.66910540  0.33379130  0.99998437  1
  Fe  Fe22  1  0.83102821  0.50030921  0.16740069  1
  Ni  Ni23  1  0.66894570  0.33491551  0.33337847  1
  Ni  Ni24  1  0.66495804  0.66696207  0.00274209  1
  Ni  Ni25  1  0.83317626  0.83472576  0.16863561  1
  Ni  Ni26  1  0.66912250  0.66680040  0.33266787  1
  Cr  Cr27  1  0.16909428  0.16593895  0.50037277  1
  Ni  Ni28  1  0.00254326  0.99899905  0.66705615  1
  Ni  Ni29  1  0.16802938  0.16785141  0.83503911  1
  Fe  Fe30  1  0.16548740  0.50209769  0.50152354  1
  Cr  Cr31  1  0.99918231  0.33536161  0.67020998  1
  Ni  Ni32  1  0.16759887  0.49843294  0.83260272  1
  Ni  Ni33  1  0.16386222  0.83285297  0.50196469  1
  Ni  Ni34  1  0.00084165  0.66626242  0.66399168  1
  Cr  Cr35  1  0.16823438  0.83477359  0.83365667  1
  Ni  Ni36  1  0.50009200  0.16878515  0.50062418  1
  Ni  Ni37  1  0.33380553  1.00012382  0.66673980  1
  Ni  Ni38  1  0.49941367  0.16753965  0.83357189  1
  Cr  Cr39  1  0.50171350  0.49799409  0.50130109  1
  Ni  Ni40  1  0.33407019  0.33293186  0.66697627  1
  Cr  Cr41  1  0.50049039  0.50057393  0.83489729  1
  Fe  Fe42  1  0.50197730  0.83424651  0.50121438  1
  Ni  Ni43  1  0.33240982  0.66826552  0.66638522  1
  Ni  Ni44  1  0.49986496  0.83424268  0.83453935  1
  Cr  Cr45  1  0.83178950  0.16596516  0.49893439  1
  Cr  Cr46  1  0.66528149  0.00141954  0.66650062  1
  Ni  Ni47  1  0.83385726  0.16852227  0.83596925  1
  Ni  Ni48  1  0.83291420  0.50393474  0.49949103  1
  Ni  Ni49  1  0.66670570  0.33473562  0.66788534  1
  Ni  Ni50  1  0.83301994  0.49890903  0.83364116  1
  Ni  Ni51  1  0.83602545  0.83093892  0.49954475  1
  Ni  Ni52  1  0.66796528  0.66605602  0.66592452  1
  Cr  Cr53  1  0.83299661  0.83363902  0.83290783  1
" 