7799,Ni63Fe30Cr6_18,-239.975154535787, 213.836855955844,Ni63Fe30Cr6,"# generated using pymatgen
 data_Cr2Fe8Ni17
_symmetry_space_group_name_H-M   'P 1'
_cell_length_a   7.42081996
_cell_length_b   7.42081996
_cell_length_c   10.49462423
_cell_angle_alpha   90.00000000
_cell_angle_beta   90.00000000
_cell_angle_gamma   90.00000000
_symmetry_Int_Tables_number   1
_chemical_formula_structural   Cr2Fe8Ni17
_chemical_formula_sum   'Cr4 Fe16 Ni34'
_cell_volume   577.92393680
_cell_formula_units_Z   2
loop_
 _symmetry_equiv_pos_site_id
 _symmetry_equiv_pos_as_xyz
  1  'x, y, z'
loop_
 _atom_site_type_symbol
 _atom_site_label
 _atom_site_symmetry_multiplicity
 _atom_site_fract_x
 _atom_site_fract_y
 _atom_site_fract_z
 _atom_site_occupancy
  Ni  Ni0  1  0.00474360  0.00448874  1.00247728  1
  Ni  Ni1  1  0.17110130  0.17001121  0.17097113  1
  Ni  Ni2  1  0.00440057  0.00373518  0.33728791  1
  Ni  Ni3  1  0.00365120  0.33327959  1.00255530  1
  Fe  Fe4  1  0.16974924  0.50193221  0.16963172  1
  Ni  Ni5  1  0.00347573  0.33593508  0.33658913  1
  Fe  Fe6  1  0.00405417  0.66789988  1.00232832  1
  Ni  Ni7  1  0.16886425  0.83699116  0.16957450  1
  Ni  Ni8  1  0.00401717  0.66948972  0.33646511  1
  Fe  Fe9  1  0.33467268  0.00333452  1.00304194  1
  Cr  Cr10  1  0.50232322  0.17207937  0.16889978  1
  Ni  Ni11  1  0.33512114  1.00201017  0.33749975  1
  Ni  Ni12  1  0.33541223  0.33853346  1.00095528  1
  Fe  Fe13  1  0.50231380  0.50497476  0.16965864  1
  Ni  Ni14  1  0.33569457  0.33695246  0.33763362  1
  Ni  Ni15  1  0.33670578  0.67031153  0.00348936  1
  Fe  Fe16  1  0.50137358  0.83575793  0.16996848  1
  Fe  Fe17  1  0.33532541  0.67001261  0.33648314  1
  Fe  Fe18  1  0.67051679  0.00388044  1.00125309  1
  Fe  Fe19  1  0.83931986  0.17022224  0.17037078  1
  Ni  Ni20  1  0.66983118  1.00290947  0.33803653  1
  Ni  Ni21  1  0.67096071  0.33784531  1.00256432  1
  Fe  Fe22  1  0.83695356  0.50116686  0.16994696  1
  Ni  Ni23  1  0.67061333  0.33721493  0.33597780  1
  Ni  Ni24  1  0.66693553  0.66855879  1.00055242  1
  Cr  Cr25  1  0.83700994  0.83432553  0.16969161  1
  Ni  Ni26  1  0.66835294  0.66895151  0.33832898  1
  Fe  Fe27  1  0.16923039  0.17057830  0.50282264  1
  Ni  Ni28  1  0.00379714  0.00316107  0.66926962  1
  Ni  Ni29  1  0.17192150  0.16976235  0.83538108  1
  Ni  Ni30  1  0.16802600  0.50303289  0.50185732  1
  Fe  Fe31  1  0.00325035  0.33842703  0.67004194  1
  Ni  Ni32  1  0.16844580  0.50190400  0.83770975  1
  Ni  Ni33  1  0.16596286  0.83685128  0.50142701  1
  Ni  Ni34  1  0.00347500  0.67114536  0.67127430  1
  Ni  Ni35  1  0.16800031  0.83750534  0.83858073  1
  Ni  Ni36  1  0.50206115  0.16943847  0.50221002  1
  Fe  Fe37  1  0.33685641  1.00255678  0.66952372  1
  Ni  Ni38  1  0.50145123  0.16965504  0.83763209  1
  Ni  Ni39  1  0.50360687  0.49968437  0.50060417  1
  Fe  Fe40  1  0.33509812  0.33552489  0.66962269  1
  Ni  Ni41  1  0.50346333  0.50174202  0.83809698  1
  Fe  Fe42  1  0.50407728  0.83573532  0.50315166  1
  Cr  Cr43  1  0.33705344  0.66830821  0.66974905  1
  Ni  Ni44  1  0.50448840  0.83817093  0.83761637  1
  Fe  Fe45  1  0.83672587  0.16974037  0.50217278  1
  Ni  Ni46  1  0.67119763  1.00270889  0.67033517  1
  Fe  Fe47  1  0.83765661  0.16886743  0.83733903  1
  Ni  Ni48  1  0.83755578  0.50633723  0.50182160  1
  Cr  Cr49  1  0.66925492  0.33789988  0.67055501  1
  Ni  Ni50  1  0.83719372  0.50570152  0.83749999  1
  Ni  Ni51  1  0.83769262  0.83541159  0.50348159  1
  Ni  Ni52  1  0.67022718  0.67036494  0.66986296  1
  Ni  Ni53  1  0.83693187  0.83517509  0.83632311  1
" 