3846,Ni63Fe13Cr23_15,-231.289567367279, 173.485286718039,Ni63Fe13Cr23,"# generated using pymatgen
 data_Cr13Fe7Ni34
_symmetry_space_group_name_H-M   'P 1'
_cell_length_a   7.45729417
_cell_length_b   7.45729417
_cell_length_c   10.54620655
_cell_angle_alpha   90.00000000
_cell_angle_beta   90.00000000
_cell_angle_gamma   90.00000000
_symmetry_Int_Tables_number   1
_chemical_formula_structural   Cr13Fe7Ni34
_chemical_formula_sum   'Cr13 Fe7 Ni34'
_cell_volume   586.48758527
_cell_formula_units_Z   1
loop_
 _symmetry_equiv_pos_site_id
 _symmetry_equiv_pos_as_xyz
  1  'x, y, z'
loop_
 _atom_site_type_symbol
 _atom_site_label
 _atom_site_symmetry_multiplicity
 _atom_site_fract_x
 _atom_site_fract_y
 _atom_site_fract_z
 _atom_site_occupancy
  Ni  Ni0  1  0.00141874  0.00140108  0.00107503  1
  Cr  Cr1  1  0.16766517  0.16660278  0.16786794  1
  Ni  Ni2  1  0.00146219  1.00015531  0.33311063  1
  Ni  Ni3  1  0.99994936  0.33382078  0.99976794  1
  Ni  Ni4  1  0.16650206  0.50015408  0.16556478  1
  Ni  Ni5  1  0.00104941  0.33417260  0.33227156  1
  Ni  Ni6  1  0.00111674  0.66672163  0.00188239  1
  Ni  Ni7  1  0.16538185  0.83384226  0.16564228  1
  Cr  Cr8  1  0.00111801  0.66779922  0.33299588  1
  Ni  Ni9  1  0.33382017  0.00144074  0.99943394  1
  Ni  Ni10  1  0.50083482  0.16781758  0.16607783  1
  Ni  Ni11  1  0.33364561  0.00094415  0.33441996  1
  Ni  Ni12  1  0.33400226  0.33296303  0.99981700  1
  Cr  Cr13  1  0.49832269  0.49946108  0.16503528  1
  Fe  Fe14  1  0.33218552  0.33311162  0.33384689  1
  Ni  Ni15  1  0.33277763  0.66739735  0.99857341  1
  Cr  Cr16  1  0.49876387  0.83502722  0.16338385  1
  Cr  Cr17  1  0.33180779  0.66977679  0.33522755  1
  Fe  Fe18  1  0.66783326  0.00234367  0.99974734  1
  Ni  Ni19  1  0.83481494  0.16658355  0.16541869  1
  Cr  Cr20  1  0.66674933  1.00038186  0.33477380  1
  Fe  Fe21  1  0.66763293  0.33269672  0.99867955  1
  Fe  Fe22  1  0.83609767  0.49982178  0.16415906  1
  Cr  Cr23  1  0.66824464  0.33254961  0.33179665  1
  Ni  Ni24  1  0.66823651  0.66603045  1.00014881  1
  Ni  Ni25  1  0.83649148  0.83585149  0.16517124  1
  Cr  Cr26  1  0.66912084  0.66883343  0.33434735  1
  Cr  Cr27  1  0.16736051  0.16800627  0.50019396  1
  Ni  Ni28  1  0.00294079  1.00021872  0.66790144  1
  Fe  Fe29  1  0.16763126  0.16663620  0.83408628  1
  Ni  Ni30  1  0.16730531  0.50047221  0.50257210  1
  Ni  Ni31  1  0.00123746  0.33441148  0.67028246  1
  Fe  Fe32  1  0.16750589  0.50100787  0.83415790  1
  Ni  Ni33  1  0.16687118  0.83458009  0.50165007  1
  Ni  Ni34  1  0.00230880  0.66746694  0.66708709  1
  Ni  Ni35  1  0.16804821  0.83409031  0.83490785  1
  Ni  Ni36  1  0.49883986  0.16614269  0.50150925  1
  Ni  Ni37  1  0.33439574  1.00014674  0.66791190  1
  Ni  Ni38  1  0.50025579  0.16802146  0.83420763  1
  Cr  Cr39  1  0.49848397  0.49942387  0.50265404  1
  Ni  Ni40  1  0.33445543  0.33299551  0.66801358  1
  Ni  Ni41  1  0.50042557  0.50081602  0.83384934  1
  Ni  Ni42  1  0.49938451  0.83586850  0.50397124  1
  Ni  Ni43  1  0.33339375  0.66871049  0.66851540  1
  Ni  Ni44  1  0.49862774  0.83309636  0.83420139  1
  Cr  Cr45  1  0.83535598  0.16633859  0.50350638  1
  Fe  Fe46  1  0.66534374  0.00103105  0.66830734  1
  Ni  Ni47  1  0.83503406  0.16871699  0.83363431  1
  Cr  Cr48  1  0.83586702  0.50029437  0.50342184  1
  Ni  Ni49  1  0.66631576  0.33335127  0.67024338  1
  Ni  Ni50  1  0.83369131  0.49978971  0.83435157  1
  Ni  Ni51  1  0.83559744  0.83499941  0.50327486  1
  Ni  Ni52  1  0.66628959  0.66726747  0.66745881  1
  Cr  Cr53  1  0.83530131  0.83371102  0.83320540  1
" 