7105,Ni63Cr37_8,-213.545292627054, 130.735067551774,Ni63Cr37,"# generated using pymatgen
 data_Cr17Ni10
_symmetry_space_group_name_H-M   'P 1'
_cell_length_a   7.55285754
_cell_length_b   7.55285754
_cell_length_c   10.68135357
_cell_angle_alpha   90.00000000
_cell_angle_beta   90.00000000
_cell_angle_gamma   90.00000000
_symmetry_Int_Tables_number   1
_chemical_formula_structural   Cr17Ni10
_chemical_formula_sum   'Cr34 Ni20'
_cell_volume   609.32483279
_cell_formula_units_Z   2
loop_
 _symmetry_equiv_pos_site_id
 _symmetry_equiv_pos_as_xyz
  1  'x, y, z'
loop_
 _atom_site_type_symbol
 _atom_site_label
 _atom_site_symmetry_multiplicity
 _atom_site_fract_x
 _atom_site_fract_y
 _atom_site_fract_z
 _atom_site_occupancy
  Ni  Ni0  1  -0.00540621  0.99198141  -0.00555927  1
  Cr  Cr1  1  0.16011971  0.15712899  0.16023786  1
  Ni  Ni2  1  0.99323623  0.99192938  0.32747669  1
  Cr  Cr3  1  -0.00413209  0.32552352  0.99352546  1
  Cr  Cr4  1  0.16218074  0.49821420  0.16100139  1
  Cr  Cr5  1  -0.00174565  0.32619475  0.32843362  1
  Cr  Cr6  1  0.99362604  0.66403964  -0.00411317  1
  Ni  Ni7  1  0.16111115  0.83025970  0.15882797  1
  Cr  Cr8  1  -0.00562876  0.66419431  0.32677895  1
  Ni  Ni9  1  0.32667734  0.99133642  -0.00454723  1
  Cr  Cr10  1  0.49621028  0.15668629  0.16039798  1
  Cr  Cr11  1  0.32860415  0.99385442  0.32821468  1
  Cr  Cr12  1  0.32729236  0.32619627  0.99346380  1
  Cr  Cr13  1  0.49313608  0.49678669  0.15925487  1
  Cr  Cr14  1  0.32781211  0.32642438  0.33072835  1
  Ni  Ni15  1  0.32877676  0.66450107  -0.00458912  1
  Ni  Ni16  1  0.49443888  0.82998173  0.15905681  1
  Cr  Cr17  1  0.32899250  0.66245808  0.32702590  1
  Ni  Ni18  1  0.66176891  0.99055263  -0.00422578  1
  Cr  Cr19  1  0.82668529  0.15833473  0.16185261  1
  Ni  Ni20  1  0.66097842  0.99080750  0.32845993  1
  Cr  Cr21  1  0.65995699  0.32777383  0.99338380  1
  Cr  Cr22  1  0.82770473  0.49418883  0.16190198  1
  Cr  Cr23  1  0.65701771  0.32689198  0.32826139  1
  Cr  Cr24  1  0.66058341  0.66296929  0.99409429  1
  Ni  Ni25  1  0.82749144  0.83241846  0.16109568  1
  Cr  Cr26  1  0.65951259  0.66463705  0.32763825  1
  Ni  Ni27  1  0.16266807  0.16187305  0.49467611  1
  Cr  Cr28  1  -0.00539538  0.99408793  0.66198788  1
  Ni  Ni29  1  0.16291454  0.15958329  0.82878037  1
  Ni  Ni30  1  0.16549540  0.49305533  0.49628502  1
  Cr  Cr31  1  -0.00097501  0.32526939  0.66134288  1
  Cr  Cr32  1  0.16455865  0.49697806  0.82600258  1
  Cr  Cr33  1  0.16150928  0.82631278  0.49463581  1
  Cr  Cr34  1  0.99297395  0.66327866  0.66034841  1
  Cr  Cr35  1  0.16278579  0.82829980  0.82934022  1
  Ni  Ni36  1  0.49273726  0.16051799  0.49411626  1
  Cr  Cr37  1  0.32765051  -0.00245036  0.65887186  1
  Cr  Cr38  1  0.49317890  0.15951687  0.82889538  1
  Ni  Ni39  1  0.49048207  0.49483297  0.49687048  1
  Ni  Ni40  1  0.32780985  0.32874433  0.65933146  1
  Ni  Ni41  1  0.49024866  0.49559108  0.82656799  1
  Ni  Ni42  1  0.49552458  0.82737159  0.49386589  1
  Ni  Ni43  1  0.33014383  0.65806724  0.65884858  1
  Cr  Cr44  1  0.49206214  0.82649764  0.82864507  1
  Cr  Cr45  1  0.82687312  0.15871258  0.49143977  1
  Cr  Cr46  1  0.66073436  0.99174624  0.65917078  1
  Cr  Cr47  1  0.82774294  0.15784334  0.83002174  1
  Cr  Cr48  1  0.82839268  0.49493856  0.49356151  1
  Cr  Cr49  1  0.65654318  0.32772803  0.66132590  1
  Cr  Cr50  1  0.82625271  0.49524509  0.82737148  1
  Ni  Ni51  1  0.82591776  0.82998986  0.49202657  1
  Cr  Cr52  1  0.65994871  0.66312070  0.66079346  1
  Ni  Ni53  1  0.82746649  0.83022855  0.83004500  1
" 