5452,Ni63Fe14Cr22_8,-231.423447427552, 177.098783602172,Ni63Fe14Cr22,"# generated using pymatgen
 data_Cr13Fe7Ni34
_symmetry_space_group_name_H-M   'P 1'
_cell_length_a   7.45843582
_cell_length_b   7.45843582
_cell_length_c   10.54782109
_cell_angle_alpha   90.00000000
_cell_angle_beta   90.00000000
_cell_angle_gamma   90.00000000
_symmetry_Int_Tables_number   1
_chemical_formula_structural   Cr13Fe7Ni34
_chemical_formula_sum   'Cr13 Fe7 Ni34'
_cell_volume   586.75698520
_cell_formula_units_Z   1
loop_
 _symmetry_equiv_pos_site_id
 _symmetry_equiv_pos_as_xyz
  1  'x, y, z'
loop_
 _atom_site_type_symbol
 _atom_site_label
 _atom_site_symmetry_multiplicity
 _atom_site_fract_x
 _atom_site_fract_y
 _atom_site_fract_z
 _atom_site_occupancy
  Ni  Ni0  1  1.00054603  0.99849265  0.99832754  1
  Fe  Fe1  1  0.17071963  0.16879570  0.16673502  1
  Cr  Cr2  1  0.00130411  0.00115978  0.33446012  1
  Cr  Cr3  1  0.00241559  0.33567662  0.99963690  1
  Ni  Ni4  1  0.16798719  0.50097446  0.16820216  1
  Ni  Ni5  1  0.00353605  0.33637202  0.33494846  1
  Ni  Ni6  1  0.00119846  0.66832167  0.99951300  1
  Cr  Cr7  1  0.16826240  0.83309458  0.16531932  1
  Ni  Ni8  1  0.99888922  0.66453203  0.33258494  1
  Ni  Ni9  1  0.33505783  0.00171436  0.99933952  1
  Ni  Ni10  1  0.49926119  0.16817448  0.16566918  1
  Ni  Ni11  1  0.33575531  0.00342637  0.33435377  1
  Ni  Ni12  1  0.33429209  0.33273091  0.00148342  1
  Ni  Ni13  1  0.49976170  0.49903291  0.16890109  1
  Ni  Ni14  1  0.33348567  0.33341540  0.33400461  1
  Ni  Ni15  1  0.33222629  0.66723796  1.00019095  1
  Ni  Ni16  1  0.49947035  0.83445167  0.16761160  1
  Fe  Fe17  1  0.33560240  0.66506667  0.33398529  1
  Ni  Ni18  1  0.66614602  1.00056836  0.99961029  1
  Cr  Cr19  1  0.83220768  0.16865251  0.16613653  1
  Cr  Cr20  1  0.66458485  0.99841348  0.33422940  1
  Ni  Ni21  1  0.66526202  0.33208096  1.00026753  1
  Ni  Ni22  1  0.83404345  0.50105949  0.16897287  1
  Ni  Ni23  1  0.66490760  0.33597941  0.33422178  1
  Cr  Cr24  1  0.66906469  0.66864289  0.00133981  1
  Ni  Ni25  1  0.83397378  0.83206253  0.16700128  1
  Ni  Ni26  1  0.66707000  0.66680803  0.33364779  1
  Fe  Fe27  1  0.16816535  0.16962379  0.50039422  1
  Fe  Fe28  1  0.99944929  0.00284174  0.66895156  1
  Ni  Ni29  1  0.16575036  0.16513439  0.83364257  1
  Ni  Ni30  1  0.16857231  0.50015302  0.49938391  1
  Ni  Ni31  1  0.00249986  0.33164696  0.66752971  1
  Ni  Ni32  1  0.16659443  0.50181669  0.83424652  1
  Cr  Cr33  1  0.16951263  0.83294243  0.50102426  1
  Cr  Cr34  1  0.00186528  0.66612184  0.67033384  1
  Ni  Ni35  1  0.16859009  0.83469743  0.83497395  1
  Ni  Ni36  1  0.50156801  0.16603096  0.50021712  1
  Fe  Fe37  1  0.33524173  0.99957700  0.66801740  1
  Fe  Fe38  1  0.50075496  0.16410111  0.83595759  1
  Ni  Ni39  1  0.49808501  0.50119623  0.49764480  1
  Cr  Cr40  1  0.33088836  0.33400570  0.66669875  1
  Cr  Cr41  1  0.49921845  0.50096698  0.83537970  1
  Ni  Ni42  1  0.49887617  0.83454896  0.50063061  1
  Ni  Ni43  1  0.33345105  0.66864529  0.66678482  1
  Ni  Ni44  1  0.49798544  0.83689976  0.83335887  1
  Ni  Ni45  1  0.83402127  0.16730417  0.50208315  1
  Ni  Ni46  1  0.66716007  0.99992324  0.66700459  1
  Ni  Ni47  1  0.83432814  0.16590509  0.83330959  1
  Cr  Cr48  1  0.83446680  0.49754173  0.49815707  1
  Cr  Cr49  1  0.66814180  0.33112615  0.66796478  1
  Ni  Ni50  1  0.83650467  0.49826346  0.83504267  1
  Fe  Fe51  1  0.83164422  0.83462181  0.50028548  1
  Cr  Cr52  1  0.66567342  0.67099579  0.66701908  1
  Ni  Ni53  1  0.83513446  0.83760559  0.83444444  1
" 