8182,Ni63Cr37_10,-213.635564229252, 135.809671005455,Ni63Cr37,"# generated using pymatgen
 data_Cr17Ni10
_symmetry_space_group_name_H-M   'P 1'
_cell_length_a   7.55106674
_cell_length_b   7.55106674
_cell_length_c   10.67882099
_cell_angle_alpha   90.00000000
_cell_angle_beta   90.00000000
_cell_angle_gamma   90.00000000
_symmetry_Int_Tables_number   1
_chemical_formula_structural   Cr17Ni10
_chemical_formula_sum   'Cr34 Ni20'
_cell_volume   608.89151756
_cell_formula_units_Z   2
loop_
 _symmetry_equiv_pos_site_id
 _symmetry_equiv_pos_as_xyz
  1  'x, y, z'
loop_
 _atom_site_type_symbol
 _atom_site_label
 _atom_site_symmetry_multiplicity
 _atom_site_fract_x
 _atom_site_fract_y
 _atom_site_fract_z
 _atom_site_occupancy
  Ni  Ni0  1  0.99349034  0.99251310  0.99387302  1
  Cr  Cr1  1  0.15830875  0.16210586  0.16226000  1
  Ni  Ni2  1  0.99242906  -0.00536385  0.32866505  1
  Cr  Cr3  1  -0.00534964  0.32463930  0.99301003  1
  Cr  Cr4  1  0.15936454  0.49455689  0.16033464  1
  Ni  Ni5  1  0.99093241  0.32549304  0.32769564  1
  Ni  Ni6  1  -0.00370559  0.66522344  0.99288030  1
  Cr  Cr7  1  0.15708544  0.82627501  0.16207225  1
  Ni  Ni8  1  0.99379147  0.66306958  0.32950817  1
  Cr  Cr9  1  0.32363557  0.99244195  0.99378322  1
  Cr  Cr10  1  0.49436083  0.15972875  0.15795185  1
  Cr  Cr11  1  0.32421710  0.99118589  0.32895976  1
  Ni  Ni12  1  0.32604702  0.32868217  0.99287136  1
  Cr  Cr13  1  0.49354050  0.49644394  0.15865501  1
  Cr  Cr14  1  0.32861892  0.32910863  0.32699553  1
  Ni  Ni15  1  0.32607365  0.66108348  0.99296890  1
  Cr  Cr16  1  0.49764582  0.82663944  0.15863698  1
  Cr  Cr17  1  0.32898494  0.66288086  0.32977025  1
  Ni  Ni18  1  0.66493464  0.99322441  -0.00458455  1
  Ni  Ni19  1  0.83059762  0.15883734  0.16168932  1
  Cr  Cr20  1  0.66324633  -0.00554014  0.32654492  1
  Cr  Cr21  1  0.66209742  0.32784462  -0.00527053  1
  Cr  Cr22  1  0.83093269  0.49781479  0.16179325  1
  Cr  Cr23  1  0.66284109  0.32890189  0.32956872  1
  Ni  Ni24  1  0.66127114  0.66361222  -0.00497285  1
  Cr  Cr25  1  0.82849651  0.82797965  0.15976862  1
  Ni  Ni26  1  0.66311915  0.65984477  0.32870578  1
  Cr  Cr27  1  0.15936263  0.15931521  0.49285039  1
  Cr  Cr28  1  -0.00340856  0.99272849  0.66217287  1
  Ni  Ni29  1  0.16228762  0.15718000  0.82938962  1
  Cr  Cr30  1  0.15973716  0.49655306  0.49331749  1
  Cr  Cr31  1  0.99333936  0.32708226  0.66240072  1
  Cr  Cr32  1  0.16069966  0.49642411  0.82904260  1
  Ni  Ni33  1  0.15941513  0.82678988  0.49589989  1
  Ni  Ni34  1  -0.00007296  0.66470612  0.66129685  1
  Ni  Ni35  1  0.16122788  0.82729088  0.82744986  1
  Cr  Cr36  1  0.49430937  0.15935573  0.49790964  1
  Ni  Ni37  1  0.32518217  0.98987230  0.66240613  1
  Cr  Cr38  1  0.49251628  0.15786722  0.82697517  1
  Ni  Ni39  1  0.49405150  0.49735241  0.49448713  1
  Cr  Cr40  1  0.32730369  0.32912340  0.66227655  1
  Cr  Cr41  1  0.49266308  0.49608855  0.82957669  1
  Cr  Cr42  1  0.49397627  0.82836093  0.49666836  1
  Ni  Ni43  1  0.32438830  0.66541178  0.66003456  1
  Cr  Cr44  1  0.49514631  0.82898759  0.82778982  1
  Ni  Ni45  1  0.82908746  0.15950469  0.49282520  1
  Ni  Ni46  1  0.66085112  -0.00537690  0.65987214  1
  Cr  Cr47  1  0.82672824  0.15674145  0.82724255  1
  Cr  Cr48  1  0.83109330  0.49577078  0.49358179  1
  Cr  Cr49  1  0.66280038  0.32780553  0.65842360  1
  Cr  Cr50  1  0.83030078  0.49949219  0.82815851  1
  Cr  Cr51  1  0.83026784  0.82859444  0.49383510  1
  Cr  Cr52  1  0.66078181  0.66041766  0.65969012  1
  Cr  Cr53  1  0.82853314  0.82690991  0.82986869  1
" 