3702,Ni63Cr37_1,-213.96892310829, 139.891970460894,Ni63Cr37,"# generated using pymatgen
 data_Cr17Ni10
_symmetry_space_group_name_H-M   'P 1'
_cell_length_a   7.54586847
_cell_length_b   7.54586847
_cell_length_c   10.67146953
_cell_angle_alpha   90.00000000
_cell_angle_beta   90.00000000
_cell_angle_gamma   90.00000000
_symmetry_Int_Tables_number   1
_chemical_formula_structural   Cr17Ni10
_chemical_formula_sum   'Cr34 Ni20'
_cell_volume   607.63487344
_cell_formula_units_Z   2
loop_
 _symmetry_equiv_pos_site_id
 _symmetry_equiv_pos_as_xyz
  1  'x, y, z'
loop_
 _atom_site_type_symbol
 _atom_site_label
 _atom_site_symmetry_multiplicity
 _atom_site_fract_x
 _atom_site_fract_y
 _atom_site_fract_z
 _atom_site_occupancy
  Cr  Cr0  1  0.99271208  -0.00498829  -0.00182133  1
  Cr  Cr1  1  0.15847330  0.16201228  0.16583722  1
  Ni  Ni2  1  0.99073948  -0.00506081  0.32591901  1
  Cr  Cr3  1  0.98993744  0.32876502  -0.00204985  1
  Cr  Cr4  1  0.16374505  0.49234703  0.16598729  1
  Ni  Ni5  1  0.99223917  0.32685970  0.32641849  1
  Cr  Cr6  1  0.99144431  0.65876331  -0.00331927  1
  Cr  Cr7  1  0.15795927  0.82832833  0.16330157  1
  Cr  Cr8  1  0.99042841  0.65953712  0.32804716  1
  Cr  Cr9  1  0.32918670  0.99384530  -0.00329922  1
  Cr  Cr10  1  0.49645141  0.16417401  0.16348012  1
  Cr  Cr11  1  0.33083503  0.99420678  0.32874415  1
  Cr  Cr12  1  0.33052886  0.32810609  -0.00202930  1
  Ni  Ni13  1  0.50059667  0.49704262  0.16266725  1
  Ni  Ni14  1  0.32958009  0.32834292  0.32801391  1
  Cr  Cr15  1  0.32941222  0.66274707  -0.00073416  1
  Ni  Ni16  1  0.50116982  0.82574835  0.16318631  1
  Cr  Cr17  1  0.33041655  0.66319884  0.32832676  1
  Cr  Cr18  1  0.66141309  -0.00156033  -0.00172200  1
  Ni  Ni19  1  0.82600143  0.16187389  0.16467601  1
  Ni  Ni20  1  0.66243008  0.99339309  0.32683873  1
  Ni  Ni21  1  0.66390904  0.33278718  -0.00259528  1
  Ni  Ni22  1  0.82492819  0.49462886  0.16353141  1
  Cr  Cr23  1  0.66306605  0.32879110  0.32817872  1
  Ni  Ni24  1  0.66438074  0.65879776  -0.00003598  1
  Ni  Ni25  1  0.82304226  0.82808998  0.16373966  1
  Ni  Ni26  1  0.66217392  0.66237628  0.32676262  1
  Cr  Cr27  1  0.15992825  0.16261527  0.49161278  1
  Ni  Ni28  1  -0.00393197  -0.00362312  0.65892796  1
  Cr  Cr29  1  0.16044185  0.16240659  0.82701572  1
  Cr  Cr30  1  0.16080229  0.49266789  0.49200752  1
  Ni  Ni31  1  0.99394094  0.32804574  0.66045604  1
  Cr  Cr32  1  0.16243800  0.49283947  0.82655578  1
  Ni  Ni33  1  0.16008799  0.83104556  0.49316829  1
  Cr  Cr34  1  0.99343596  0.65934979  0.65975506  1
  Cr  Cr35  1  0.15895987  0.82856880  0.82774541  1
  Ni  Ni36  1  0.49372556  0.16074668  0.49212850  1
  Cr  Cr37  1  0.32972311  0.99464157  0.65919498  1
  Cr  Cr38  1  0.49544545  0.16468742  0.82775707  1
  Cr  Cr39  1  0.49614253  0.49429052  0.49195949  1
  Ni  Ni40  1  0.32766837  0.32677355  0.65803167  1
  Cr  Cr41  1  0.49656877  0.49557687  0.83096022  1
  Ni  Ni42  1  0.49649933  0.82985526  0.49022889  1
  Cr  Cr43  1  0.32814617  0.66345759  0.65724488  1
  Cr  Cr44  1  0.49812158  0.82575959  0.83124338  1
  Cr  Cr45  1  0.82859746  0.16047938  0.49207318  1
  Cr  Cr46  1  0.66002178  -0.00457403  0.65702985  1
  Cr  Cr47  1  0.82852651  0.16055311  0.82690560  1
  Ni  Ni48  1  0.82911220  0.49304852  0.49312455  1
  Cr  Cr49  1  0.66272606  0.32839672  0.65994814  1
  Ni  Ni50  1  0.82672996  0.49250639  0.82904138  1
  Cr  Cr51  1  0.82755638  0.82831345  0.49137615  1
  Cr  Cr52  1  0.66255824  0.65980025  0.65832563  1
  Cr  Cr53  1  0.82679643  0.82658742  0.82810161  1
" 