4214,Ni63Cr37_14,-213.727839223052, 136.029557183999,Ni63Cr37,"# generated using pymatgen
 data_Cr17Ni10
_symmetry_space_group_name_H-M   'P 1'
_cell_length_a   7.55086856
_cell_length_b   7.55086856
_cell_length_c   10.67854072
_cell_angle_alpha   90.00000000
_cell_angle_beta   90.00000000
_cell_angle_gamma   90.00000000
_symmetry_Int_Tables_number   1
_chemical_formula_structural   Cr17Ni10
_chemical_formula_sum   'Cr34 Ni20'
_cell_volume   608.84357716
_cell_formula_units_Z   2
loop_
 _symmetry_equiv_pos_site_id
 _symmetry_equiv_pos_as_xyz
  1  'x, y, z'
loop_
 _atom_site_type_symbol
 _atom_site_label
 _atom_site_symmetry_multiplicity
 _atom_site_fract_x
 _atom_site_fract_y
 _atom_site_fract_z
 _atom_site_occupancy
  Cr  Cr0  1  -0.00356499  -0.00394206  0.99345991  1
  Ni  Ni1  1  0.16095625  0.16124447  0.16075508  1
  Ni  Ni2  1  -0.00434812  -0.00438061  0.32903063  1
  Cr  Cr3  1  -0.00407829  0.32752792  -0.00436003  1
  Cr  Cr4  1  0.15967894  0.49310371  0.16207391  1
  Ni  Ni5  1  0.99349243  0.32670793  0.32632680  1
  Cr  Cr6  1  0.99099541  0.65960937  0.99340943  1
  Cr  Cr7  1  0.16041093  0.82912190  0.16226655  1
  Ni  Ni8  1  0.99430927  0.66107792  0.32767567  1
  Ni  Ni9  1  0.32766637  -0.00160856  0.99266640  1
  Cr  Cr10  1  0.49185174  0.16095673  0.15824231  1
  Cr  Cr11  1  0.32593040  0.99342269  0.32878595  1
  Ni  Ni12  1  0.32773186  0.32373387  0.99252586  1
  Cr  Cr13  1  0.49457445  0.49305046  0.16056983  1
  Cr  Cr14  1  0.32564012  0.32786395  0.32795573  1
  Cr  Cr15  1  0.32959017  0.66144344  0.99308849  1
  Cr  Cr16  1  0.49387782  0.82941039  0.15987881  1
  Cr  Cr17  1  0.32809813  0.66226381  0.33214444  1
  Cr  Cr18  1  0.65978867  0.99273215  0.99242764  1
  Cr  Cr19  1  0.82905328  0.16155311  0.16494103  1
  Cr  Cr20  1  0.66205676  0.99393362  0.32943277  1
  Cr  Cr21  1  0.66183812  0.32983830  0.99296663  1
  Ni  Ni22  1  0.83010068  0.49436694  0.16312399  1
  Cr  Cr23  1  0.66360968  0.32873006  0.32937532  1
  Cr  Cr24  1  0.66258755  0.66061437  0.99279838  1
  Cr  Cr25  1  0.82917713  0.82660332  0.16194132  1
  Cr  Cr26  1  0.66064077  0.66067575  0.32709681  1
  Cr  Cr27  1  0.15753876  0.15944346  0.49409685  1
  Ni  Ni28  1  0.99431044  0.99277203  0.66069974  1
  Ni  Ni29  1  0.16415595  0.15994200  0.82952170  1
  Cr  Cr30  1  0.16008389  0.49741125  0.49402836  1
  Cr  Cr31  1  0.99268231  0.32629412  0.66238707  1
  Cr  Cr32  1  0.16128093  0.49371122  0.82730055  1
  Ni  Ni33  1  0.15889020  0.82783415  0.49413823  1
  Ni  Ni34  1  0.99305871  0.66377137  0.66203435  1
  Cr  Cr35  1  0.15948831  0.82890659  0.82618470  1
  Cr  Cr36  1  0.49804827  0.16272838  0.49550571  1
  Cr  Cr37  1  0.32659791  0.99351132  0.66127163  1
  Ni  Ni38  1  0.49214787  0.16218228  0.82906630  1
  Ni  Ni39  1  0.49568924  0.49531517  0.49554550  1
  Cr  Cr40  1  0.32993196  0.32796828  0.66259837  1
  Ni  Ni41  1  0.49637607  0.49229535  0.82764897  1
  Ni  Ni42  1  0.49290880  0.82619271  0.49411473  1
  Cr  Cr43  1  0.32896764  0.66215621  0.65793343  1
  Ni  Ni44  1  0.49524950  0.82887838  0.82909590  1
  Ni  Ni45  1  0.82959190  0.16089233  0.49415805  1
  Cr  Cr46  1  0.66150280  -0.00529774  0.66118471  1
  Cr  Cr47  1  0.82680050  0.16025642  0.82417063  1
  Cr  Cr48  1  0.82825489  0.49278684  0.49474554  1
  Ni  Ni49  1  0.66067343  0.32890619  0.66178692  1
  Ni  Ni50  1  0.82555754  0.49635388  0.82625828  1
  Cr  Cr51  1  0.83123040  0.82961058  0.49478727  1
  Cr  Cr52  1  0.66011387  0.65993069  0.66338897  1
  Ni  Ni53  1  0.82747979  0.82586903  0.82602533  1
" 