4279,Ni63Fe26Cr10_15,-238.483799416658, 204.265038699705,Ni63Fe26Cr10,"# generated using pymatgen
 data_Cr3Fe7Ni17
_symmetry_space_group_name_H-M   'P 1'
_cell_length_a   7.43321124
_cell_length_b   7.43321124
_cell_length_c   10.51214814
_cell_angle_alpha   90.00000000
_cell_angle_beta   90.00000000
_cell_angle_gamma   90.00000000
_symmetry_Int_Tables_number   1
_chemical_formula_structural   Cr3Fe7Ni17
_chemical_formula_sum   'Cr6 Fe14 Ni34'
_cell_volume   580.82382439
_cell_formula_units_Z   2
loop_
 _symmetry_equiv_pos_site_id
 _symmetry_equiv_pos_as_xyz
  1  'x, y, z'
loop_
 _atom_site_type_symbol
 _atom_site_label
 _atom_site_symmetry_multiplicity
 _atom_site_fract_x
 _atom_site_fract_y
 _atom_site_fract_z
 _atom_site_occupancy
  Cr  Cr0  1  0.00284998  1.00128775  0.00261003  1
  Ni  Ni1  1  0.16714610  0.16970417  0.17009180  1
  Fe  Fe2  1  0.00291537  0.00256202  0.33504445  1
  Ni  Ni3  1  1.00168593  0.33811367  0.00363213  1
  Ni  Ni4  1  0.16871340  0.50320915  0.16810236  1
  Fe  Fe5  1  0.00263712  0.33549491  0.33569835  1
  Ni  Ni6  1  0.00503483  0.66710866  1.00092888  1
  Ni  Ni7  1  0.17030399  0.83391495  0.16845385  1
  Ni  Ni8  1  0.00310526  0.66893262  0.33561862  1
  Ni  Ni9  1  0.33518081  1.00156388  0.00267712  1
  Cr  Cr10  1  0.50230304  0.16920132  0.16786153  1
  Ni  Ni11  1  0.33601479  1.00134148  0.33653813  1
  Ni  Ni12  1  0.33574365  0.33738047  1.00162756  1
  Ni  Ni13  1  0.50130785  0.50380426  0.17002542  1
  Ni  Ni14  1  0.33541265  0.33640315  0.33697970  1
  Ni  Ni15  1  0.33244066  0.66788325  0.00316334  1
  Ni  Ni16  1  0.50019880  0.83379929  0.17022438  1
  Ni  Ni17  1  0.33451484  0.66908424  0.33521902  1
  Cr  Cr18  1  0.66836589  0.00468597  0.00237378  1
  Ni  Ni19  1  0.83692039  0.17081336  0.17001134  1
  Ni  Ni20  1  0.66943580  0.00261053  0.33603652  1
  Ni  Ni21  1  0.66940076  0.33536951  1.00019360  1
  Fe  Fe22  1  0.83683348  0.50120110  0.16988779  1
  Ni  Ni23  1  0.66958423  0.33467949  0.33663352  1
  Cr  Cr24  1  0.66931296  0.66727083  0.00322883  1
  Fe  Fe25  1  0.83681931  0.83481053  0.17072824  1
  Fe  Fe26  1  0.66744652  0.66895921  0.33534484  1
  Fe  Fe27  1  0.16926332  0.16924504  0.50172693  1
  Fe  Fe28  1  1.00119590  1.00086408  0.66881578  1
  Cr  Cr29  1  0.16924985  0.16979527  0.83562272  1
  Ni  Ni30  1  0.16787295  0.50346083  0.50221532  1
  Ni  Ni31  1  1.00116199  0.33706068  0.66793489  1
  Ni  Ni32  1  0.16868916  0.50472644  0.83651129  1
  Ni  Ni33  1  0.17001043  0.83420367  0.50271860  1
  Ni  Ni34  1  0.00348860  0.66847652  0.67027677  1
  Ni  Ni35  1  0.16766754  0.83196196  0.83565386  1
  Ni  Ni36  1  0.50377729  0.16777953  0.50248057  1
  Fe  Fe37  1  0.33540592  1.00148911  0.66729673  1
  Ni  Ni38  1  0.50468087  0.17141800  0.83584412  1
  Fe  Fe39  1  0.50183839  0.50222697  0.50178418  1
  Fe  Fe40  1  0.33606234  0.33709287  0.66855762  1
  Ni  Ni41  1  0.50131766  0.49984772  0.83488676  1
  Ni  Ni42  1  0.50147042  0.83653604  0.50179516  1
  Ni  Ni43  1  0.33358026  0.66828735  0.66844662  1
  Cr  Cr44  1  0.50026231  0.83577761  0.83555490  1
  Ni  Ni45  1  0.83440018  0.16991514  0.50227789  1
  Ni  Ni46  1  0.66968961  0.00387583  0.66876611  1
  Ni  Ni47  1  0.83322325  0.17040024  0.83453815  1
  Ni  Ni48  1  0.83672948  0.50115614  0.50232702  1
  Fe  Fe49  1  0.66946751  0.33549825  0.66900758  1
  Fe  Fe50  1  0.83704216  0.50139746  0.83466907  1
  Fe  Fe51  1  0.83553738  0.83554571  0.50287791  1
  Fe  Fe52  1  0.67009069  0.66835298  0.66849684  1
  Ni  Ni53  1  0.83810154  0.83532425  0.83288693  1
" 