2582,Ni63Cr37_0,-213.875909759732, 138.640295973279,Ni63Cr37,"# generated using pymatgen
 data_Cr17Ni10
_symmetry_space_group_name_H-M   'P 1'
_cell_length_a   7.55012967
_cell_length_b   7.55012967
_cell_length_c   10.67749578
_cell_angle_alpha   90.00000000
_cell_angle_beta   90.00000000
_cell_angle_gamma   90.00000000
_symmetry_Int_Tables_number   1
_chemical_formula_structural   Cr17Ni10
_chemical_formula_sum   'Cr34 Ni20'
_cell_volume   608.66486047
_cell_formula_units_Z   2
loop_
 _symmetry_equiv_pos_site_id
 _symmetry_equiv_pos_as_xyz
  1  'x, y, z'
loop_
 _atom_site_type_symbol
 _atom_site_label
 _atom_site_symmetry_multiplicity
 _atom_site_fract_x
 _atom_site_fract_y
 _atom_site_fract_z
 _atom_site_occupancy
  Cr  Cr0  1  -0.00143638  -0.00238676  -0.00483754  1
  Ni  Ni1  1  0.16571927  0.16337438  0.16341135  1
  Cr  Cr2  1  -0.00500087  -0.00428421  0.32702621  1
  Cr  Cr3  1  -0.00165274  0.32693593  -0.00390200  1
  Ni  Ni4  1  0.16442268  0.49109867  0.16468942  1
  Ni  Ni5  1  -0.00377933  0.32949694  0.32648625  1
  Cr  Cr6  1  -0.00405825  0.65909862  -0.00435334  1
  Cr  Cr7  1  0.16441802  0.82826517  0.16229725  1
  Cr  Cr8  1  -0.00540978  0.65914909  0.32819006  1
  Ni  Ni9  1  0.32829729  -0.00119739  -0.00512500  1
  Ni  Ni10  1  0.49126781  0.16430518  0.16163710  1
  Ni  Ni11  1  0.32946728  -0.00390812  0.32622651  1
  Cr  Cr12  1  0.32786621  0.32632486  0.99443229  1
  Ni  Ni13  1  0.49343915  0.49130450  0.16232039  1
  Ni  Ni14  1  0.32915553  0.32913922  0.32553126  1
  Cr  Cr15  1  0.32869844  0.65806316  -0.00240209  1
  Cr  Cr16  1  0.49302715  0.82794542  0.16088596  1
  Ni  Ni17  1  0.33014562  0.65823530  0.32777627  1
  Cr  Cr18  1  0.65788635  -0.00293502  0.99441601  1
  Cr  Cr19  1  0.82514896  0.16416362  0.16344452  1
  Cr  Cr20  1  0.65936308  0.99388358  0.33050525  1
  Ni  Ni21  1  0.65722675  0.32833831  -0.00407235  1
  Cr  Cr22  1  0.82518037  0.49244266  0.15982818  1
  Ni  Ni23  1  0.65824844  0.33034296  0.32753382  1
  Ni  Ni24  1  0.65905690  0.65757418  -0.00438372  1
  Cr  Cr25  1  0.82623838  0.82714995  0.15854237  1
  Cr  Cr26  1  0.65903158  0.65982546  0.33019459  1
  Cr  Cr27  1  0.16331718  0.16294783  0.49259108  1
  Cr  Cr28  1  0.99376584  0.99406250  0.66136847  1
  Ni  Ni29  1  0.16540634  0.16138856  0.82783414  1
  Cr  Cr30  1  0.16278346  0.49288495  0.49426183  1
  Cr  Cr31  1  -0.00355589  0.32837796  0.66158163  1
  Cr  Cr32  1  0.16147834  0.49462553  0.82447734  1
  Cr  Cr33  1  0.16364752  0.82754616  0.49361630  1
  Ni  Ni34  1  0.99215847  0.66068697  0.65900243  1
  Cr  Cr35  1  0.16228853  0.82765494  0.82773556  1
  Cr  Cr36  1  0.49209094  0.16353988  0.49287902  1
  Cr  Cr37  1  0.32954494  -0.00280327  0.66323526  1
  Ni  Ni38  1  0.49127540  0.16249303  0.82914171  1
  Ni  Ni39  1  0.49421411  0.49362600  0.49212092  1
  Ni  Ni40  1  0.32911288  0.32697311  0.66223641  1
  Cr  Cr41  1  0.49575432  0.49255103  0.82865843  1
  Ni  Ni42  1  0.49351991  0.82619291  0.49224701  1
  Cr  Cr43  1  0.32997838  0.65856398  0.65859734  1
  Cr  Cr44  1  0.49400780  0.82821179  0.83045735  1
  Cr  Cr45  1  0.82774754  0.16474169  0.49149656  1
  Cr  Cr46  1  0.65994053  0.99349234  0.65867511  1
  Cr  Cr47  1  0.82518226  0.16338802  0.82876915  1
  Ni  Ni48  1  0.82697420  0.49487764  0.49369708  1
  Cr  Cr49  1  0.65764039  0.32872001  0.66028962  1
  Cr  Cr50  1  0.82648315  0.49472037  0.82934810  1
  Ni  Ni51  1  0.82759576  0.82486030  0.49586420  1
  Cr  Cr52  1  0.66103234  0.66126971  0.65708803  1
  Cr  Cr53  1  0.82753790  0.82555082  0.82932135  1
" 