6523,Ni63Cr37_12,-213.702576906519, 134.701684787324,Ni63Cr37,"# generated using pymatgen
 data_Cr17Ni10
_symmetry_space_group_name_H-M   'P 1'
_cell_length_a   7.55139361
_cell_length_b   7.55139361
_cell_length_c   10.67928326
_cell_angle_alpha   90.00000000
_cell_angle_beta   90.00000000
_cell_angle_gamma   90.00000000
_symmetry_Int_Tables_number   1
_chemical_formula_structural   Cr17Ni10
_chemical_formula_sum   'Cr34 Ni20'
_cell_volume   608.97059410
_cell_formula_units_Z   2
loop_
 _symmetry_equiv_pos_site_id
 _symmetry_equiv_pos_as_xyz
  1  'x, y, z'
loop_
 _atom_site_type_symbol
 _atom_site_label
 _atom_site_symmetry_multiplicity
 _atom_site_fract_x
 _atom_site_fract_y
 _atom_site_fract_z
 _atom_site_occupancy
  Ni  Ni0  1  -0.00398727  -0.00394689  0.99414932  1
  Cr  Cr1  1  0.16228323  0.16230340  0.15946307  1
  Cr  Cr2  1  0.99369255  0.99338594  0.32940202  1
  Ni  Ni3  1  0.99425963  0.32575776  0.99438829  1
  Cr  Cr4  1  0.16067835  0.49279505  0.16365863  1
  Ni  Ni5  1  -0.00476543  0.33089537  0.33030084  1
  Cr  Cr6  1  0.99413835  0.66095400  -0.00533213  1
  Cr  Cr7  1  0.16124159  0.82812176  0.16089126  1
  Ni  Ni8  1  -0.00436412  0.65811890  0.33026417  1
  Ni  Ni9  1  0.32859639  -0.00466052  0.99324054  1
  Ni  Ni10  1  0.49217223  0.16100949  0.16060476  1
  Cr  Cr11  1  0.32890329  0.99290178  0.32769296  1
  Cr  Cr12  1  0.32966419  0.32684147  0.99363005  1
  Cr  Cr13  1  0.49461932  0.49521333  0.16314074  1
  Ni  Ni14  1  0.32692601  0.33083881  0.32844988  1
  Cr  Cr15  1  0.32934878  0.66212573  0.99254638  1
  Cr  Cr16  1  0.49508194  0.82673384  0.16171151  1
  Ni  Ni17  1  0.32726483  0.65905676  0.33154042  1
  Cr  Cr18  1  0.65900239  -0.00507836  -0.00489340  1
  Cr  Cr19  1  0.82944625  0.16181487  0.16067995  1
  Cr  Cr20  1  0.66058272  -0.00488983  0.32804682  1
  Cr  Cr21  1  0.66003027  0.32806554  0.99386524  1
  Cr  Cr22  1  0.82788441  0.49594123  0.16108805  1
  Cr  Cr23  1  0.66111675  0.32755528  0.32849360  1
  Ni  Ni24  1  0.65944503  0.66136905  0.99217523  1
  Cr  Cr25  1  0.82681070  0.82539859  0.16023925  1
  Ni  Ni26  1  0.66029681  0.65971046  0.33042519  1
  Cr  Cr27  1  0.16049011  0.16284274  0.49394414  1
  Cr  Cr28  1  0.99416231  0.99360112  0.65900089  1
  Cr  Cr29  1  0.16173462  0.16063982  0.82978719  1
  Ni  Ni30  1  0.16103102  0.49597258  0.49067956  1
  Cr  Cr31  1  0.99307252  0.32926737  0.65881998  1
  Cr  Cr32  1  0.16151671  0.49240728  0.82860655  1
  Ni  Ni33  1  0.16262062  0.82412479  0.49257450  1
  Cr  Cr34  1  -0.00469373  0.66037045  0.65875713  1
  Cr  Cr35  1  0.16201105  0.83020977  0.82906430  1
  Cr  Cr36  1  0.49410401  0.16184139  0.49353732  1
  Cr  Cr37  1  0.32910822  0.99192203  0.66168745  1
  Ni  Ni38  1  0.49331259  0.16002200  0.82921097  1
  Ni  Ni39  1  0.49448980  0.49805783  0.49306228  1
  Cr  Cr40  1  0.32969524  0.33028845  0.66190342  1
  Ni  Ni41  1  0.49644750  0.49645828  0.82764542  1
  Ni  Ni42  1  0.49367137  0.82299078  0.49386254  1
  Cr  Cr43  1  0.32885419  0.66097218  0.66008183  1
  Ni  Ni44  1  0.49548580  0.82681340  0.82861204  1
  Ni  Ni45  1  0.82909192  0.16394469  0.49362003  1
  Cr  Cr46  1  0.65984627  0.99436245  0.66017866  1
  Cr  Cr47  1  0.82911928  0.16094000  0.82783949  1
  Ni  Ni48  1  0.82769323  0.49483010  0.49274936  1
  Cr  Cr49  1  0.66049040  0.32907991  0.66079222  1
  Cr  Cr50  1  0.82541716  0.49574589  0.82882745  1
  Cr  Cr51  1  0.82577531  0.82565198  0.49413030  1
  Ni  Ni52  1  0.65829761  0.66014935  0.66074940  1
  Cr  Cr53  1  0.82520664  0.82658154  0.82883392  1
" 