4104,Ni63Fe26Cr10_14,-237.978027190778, 206.713357436117,Ni63Fe26Cr10,"# generated using pymatgen
 data_Cr3Fe7Ni17
_symmetry_space_group_name_H-M   'P 1'
_cell_length_a   7.43180844
_cell_length_b   7.43180844
_cell_length_c   10.51016429
_cell_angle_alpha   90.00000000
_cell_angle_beta   90.00000000
_cell_angle_gamma   90.00000000
_symmetry_Int_Tables_number   1
_chemical_formula_structural   Cr3Fe7Ni17
_chemical_formula_sum   'Cr6 Fe14 Ni34'
_cell_volume   580.49504699
_cell_formula_units_Z   2
loop_
 _symmetry_equiv_pos_site_id
 _symmetry_equiv_pos_as_xyz
  1  'x, y, z'
loop_
 _atom_site_type_symbol
 _atom_site_label
 _atom_site_symmetry_multiplicity
 _atom_site_fract_x
 _atom_site_fract_y
 _atom_site_fract_z
 _atom_site_occupancy
  Ni  Ni0  1  1.00189047  0.99980323  1.00129953  1
  Fe  Fe1  1  0.17208151  0.16894950  0.17013199  1
  Ni  Ni2  1  0.00292705  0.00270797  0.33702243  1
  Cr  Cr3  1  0.00293202  0.33614730  0.00306663  1
  Fe  Fe4  1  0.17056333  0.50216469  0.16944566  1
  Ni  Ni5  1  0.00270574  0.33535458  0.33659354  1
  Ni  Ni6  1  1.00192234  0.67161043  1.00220624  1
  Cr  Cr7  1  0.16846994  0.83560624  0.16837874  1
  Ni  Ni8  1  1.00093606  0.66904965  0.33590632  1
  Ni  Ni9  1  0.33675304  0.00241071  1.00220569  1
  Ni  Ni10  1  0.50122679  0.17068227  0.16873568  1
  Ni  Ni11  1  0.33588723  0.00353050  0.33659786  1
  Ni  Ni12  1  0.33880534  0.33600017  0.00337490  1
  Ni  Ni13  1  0.50250256  0.50162870  0.16887013  1
  Ni  Ni14  1  0.33620085  0.33462382  0.33490835  1
  Ni  Ni15  1  0.33702237  0.66869941  1.00127135  1
  Ni  Ni16  1  0.50349003  0.83480237  0.16911561  1
  Ni  Ni17  1  0.33714596  0.66895631  0.33605147  1
  Fe  Fe18  1  0.66819645  1.00113230  1.00165124  1
  Cr  Cr19  1  0.83494238  0.16826929  0.16934838  1
  Fe  Fe20  1  0.66816562  1.00200815  0.33660966  1
  Ni  Ni21  1  0.66555839  0.33596796  1.00202230  1
  Fe  Fe22  1  0.83356796  0.50514485  0.16985644  1
  Ni  Ni23  1  0.66820771  0.33661793  0.33625045  1
  Ni  Ni24  1  0.66816698  0.66955539  0.00319065  1
  Ni  Ni25  1  0.83520318  0.83406322  0.16912735  1
  Ni  Ni26  1  0.66902922  0.66873478  0.33541774  1
  Ni  Ni27  1  0.16866388  0.16856575  0.50156116  1
  Ni  Ni28  1  1.00112952  1.00176515  0.66878894  1
  Cr  Cr29  1  0.16953923  0.16812824  0.83477537  1
  Fe  Fe30  1  0.16897366  0.50138691  0.50289118  1
  Ni  Ni31  1  0.00412921  0.33478208  0.66748495  1
  Ni  Ni32  1  0.17184546  0.50483079  0.83458761  1
  Ni  Ni33  1  0.16860521  0.83581336  0.50295576  1
  Ni  Ni34  1  0.00362549  0.67056487  0.66900048  1
  Ni  Ni35  1  0.16797411  0.83430697  0.83574146  1
  Ni  Ni36  1  0.50199944  0.16930663  0.50152935  1
  Fe  Fe37  1  0.33573257  1.00145925  0.66783219  1
  Fe  Fe38  1  0.50254473  0.16887566  0.83665623  1
  Fe  Fe39  1  0.50114279  0.50235564  0.50157507  1
  Ni  Ni40  1  0.33484540  0.33680986  0.66882509  1
  Ni  Ni41  1  0.50045972  0.50256544  0.83645242  1
  Fe  Fe42  1  0.50191054  0.83662226  0.50198672  1
  Ni  Ni43  1  0.33550888  0.66869958  0.66978911  1
  Fe  Fe44  1  0.50198743  0.83431449  0.83602844  1
  Ni  Ni45  1  0.83644960  0.16894903  0.50264544  1
  Ni  Ni46  1  0.67000626  1.00110292  0.66958269  1
  Fe  Fe47  1  0.83512069  0.16622078  0.83514979  1
  Fe  Fe48  1  0.83699632  0.50223178  0.50154679  1
  Cr  Cr49  1  0.66836372  0.33467787  0.66903293  1
  Cr  Cr50  1  0.83509269  0.50407631  0.83595424  1
  Fe  Fe51  1  0.83633150  0.83684861  0.50269883  1
  Ni  Ni52  1  0.66797686  0.67169614  0.66850564  1
  Ni  Ni53  1  0.83656960  0.83684697  0.83579085  1
" 