2246,Ni63Cr37_7,-213.863453259385, 137.419694475611,Ni63Cr37,"# generated using pymatgen
 data_Cr17Ni10
_symmetry_space_group_name_H-M   'P 1'
_cell_length_a   7.55057230
_cell_length_b   7.55057230
_cell_length_c   10.67812176
_cell_angle_alpha   90.00000000
_cell_angle_beta   90.00000000
_cell_angle_gamma   90.00000000
_symmetry_Int_Tables_number   1
_chemical_formula_structural   Cr17Ni10
_chemical_formula_sum   'Cr34 Ni20'
_cell_volume   608.77191718
_cell_formula_units_Z   2
loop_
 _symmetry_equiv_pos_site_id
 _symmetry_equiv_pos_as_xyz
  1  'x, y, z'
loop_
 _atom_site_type_symbol
 _atom_site_label
 _atom_site_symmetry_multiplicity
 _atom_site_fract_x
 _atom_site_fract_y
 _atom_site_fract_z
 _atom_site_occupancy
  Cr  Cr0  1  -0.00329370  0.99273337  0.99388144  1
  Cr  Cr1  1  0.15927962  0.16245461  0.15776297  1
  Cr  Cr2  1  0.99309700  0.99181162  0.32830685  1
  Ni  Ni3  1  0.99379194  0.32828067  0.99149188  1
  Cr  Cr4  1  0.15967896  0.49595255  0.16511865  1
  Cr  Cr5  1  -0.00323502  0.32831552  0.33183887  1
  Cr  Cr6  1  0.99281866  0.66224676  0.99412528  1
  Cr  Cr7  1  0.16166105  0.82561019  0.16156009  1
  Ni  Ni8  1  0.99244518  0.66119715  0.33017088  1
  Ni  Ni9  1  0.32588363  -0.00494058  0.99196443  1
  Cr  Cr10  1  0.49658876  0.16049943  0.16076745  1
  Cr  Cr11  1  0.32797459  -0.00261220  0.32766973  1
  Cr  Cr12  1  0.32819619  0.32705056  0.99443489  1
  Cr  Cr13  1  0.49475951  0.49621261  0.16199983  1
  Cr  Cr14  1  0.32660794  0.32781484  0.33229554  1
  Cr  Cr15  1  0.32774463  0.66306584  0.99210172  1
  Cr  Cr16  1  0.49418190  0.82689760  0.16445856  1
  Ni  Ni17  1  0.32655929  0.66085371  0.32975421  1
  Cr  Cr18  1  0.66038134  0.99165055  -0.00239593  1
  Cr  Cr19  1  0.82747621  0.16156980  0.15848465  1
  Ni  Ni20  1  0.66213274  0.99048737  0.32914380  1
  Ni  Ni21  1  0.66261057  0.32967179  0.99143787  1
  Cr  Cr22  1  0.82876750  0.49342403  0.16056979  1
  Cr  Cr23  1  0.65958119  0.32665782  0.33106850  1
  Cr  Cr24  1  0.66197558  0.66036464  0.99153096  1
  Ni  Ni25  1  0.82705011  0.82596322  0.16594214  1
  Ni  Ni26  1  0.66425231  0.66328890  0.32885120  1
  Ni  Ni27  1  0.16234935  0.16020615  0.49731171  1
  Ni  Ni28  1  -0.00068731  0.99440480  0.66062319  1
  Ni  Ni29  1  0.16184618  0.15840398  0.82723216  1
  Ni  Ni30  1  0.15962674  0.49616901  0.49307014  1
  Cr  Cr31  1  -0.00446570  0.32819989  0.65898584  1
  Cr  Cr32  1  0.16054167  0.49533621  0.82730844  1
  Cr  Cr33  1  0.16157462  0.82601861  0.49680684  1
  Cr  Cr34  1  0.99296270  0.66220498  0.66055932  1
  Ni  Ni35  1  0.16275182  0.83147348  0.82518209  1
  Ni  Ni36  1  0.49257199  0.15852937  0.49452407  1
  Ni  Ni37  1  0.32389259  -0.00518395  0.66154059  1
  Cr  Cr38  1  0.49505336  0.16043436  0.82774402  1
  Cr  Cr39  1  0.49325500  0.49825551  0.49431980  1
  Cr  Cr40  1  0.32765000  0.32692530  0.65737365  1
  Ni  Ni41  1  0.49504157  0.49397383  0.82762626  1
  Cr  Cr42  1  0.49387990  0.82814909  0.49435329  1
  Ni  Ni43  1  0.32570998  0.66153122  0.66268091  1
  Cr  Cr44  1  0.48958738  0.82735837  0.82443919  1
  Cr  Cr45  1  0.82814630  0.15900096  0.49543937  1
  Cr  Cr46  1  0.66209401  0.99346095  0.65691605  1
  Cr  Cr47  1  0.83107268  0.16354798  0.82875973  1
  Ni  Ni48  1  0.82933239  0.49795708  0.49267576  1
  Cr  Cr49  1  0.66055525  0.33037482  0.66119962  1
  Ni  Ni50  1  0.82666912  0.49299565  0.82994958  1
  Ni  Ni51  1  0.82859077  0.82564899  0.49210899  1
  Cr  Cr52  1  0.66220782  0.65950137  0.66337788  1
  Cr  Cr53  1  0.83054718  0.82992466  0.82488030  1
" 