4260,Ni63Fe12Cr23_15,-230.827559416084, 174.221882697994,Ni63Fe12Cr23,"# generated using pymatgen
 data_Cr7Fe3Ni17
_symmetry_space_group_name_H-M   'P 1'
_cell_length_a   7.46438268
_cell_length_b   7.46438268
_cell_length_c   10.55623122
_cell_angle_alpha   90.00000000
_cell_angle_beta   90.00000000
_cell_angle_gamma   90.00000000
_symmetry_Int_Tables_number   1
_chemical_formula_structural   Cr7Fe3Ni17
_chemical_formula_sum   'Cr14 Fe6 Ni34'
_cell_volume   588.16162846
_cell_formula_units_Z   2
loop_
 _symmetry_equiv_pos_site_id
 _symmetry_equiv_pos_as_xyz
  1  'x, y, z'
loop_
 _atom_site_type_symbol
 _atom_site_label
 _atom_site_symmetry_multiplicity
 _atom_site_fract_x
 _atom_site_fract_y
 _atom_site_fract_z
 _atom_site_occupancy
  Ni  Ni0  1  0.00135598  0.00214024  0.99822577  1
  Cr  Cr1  1  0.16493982  0.16636792  0.16541733  1
  Ni  Ni2  1  0.00087977  0.00035727  0.33403643  1
  Ni  Ni3  1  0.00071940  0.33203654  0.99995173  1
  Ni  Ni4  1  0.16753313  0.50033453  0.16766642  1
  Ni  Ni5  1  0.99904197  0.33461386  0.33523370  1
  Cr  Cr6  1  0.00103001  0.66761635  0.00070273  1
  Fe  Fe7  1  0.16727097  0.83220058  0.16781458  1
  Ni  Ni8  1  0.00327595  0.66552607  0.33377885  1
  Ni  Ni9  1  0.33250288  0.00101400  0.99866184  1
  Fe  Fe10  1  0.50089144  0.16821595  0.16584754  1
  Ni  Ni11  1  0.33292669  0.99924408  0.33438736  1
  Ni  Ni12  1  0.33453787  0.33444995  0.99905238  1
  Ni  Ni13  1  0.49921739  0.50098350  0.16385687  1
  Cr  Cr14  1  0.33265636  0.33346742  0.33453420  1
  Ni  Ni15  1  0.33507022  0.66507336  0.99899233  1
  Cr  Cr16  1  0.49755808  0.83253689  0.16769962  1
  Ni  Ni17  1  0.32922345  0.66799482  0.33299677  1
  Cr  Cr18  1  0.66747953  0.00099716  0.99788775  1
  Ni  Ni19  1  0.83473882  0.16841030  0.16725753  1
  Ni  Ni20  1  0.66671056  0.00347291  0.33466248  1
  Fe  Fe21  1  0.66588649  0.33422339  0.00091396  1
  Ni  Ni22  1  0.83380904  0.49745302  0.16696285  1
  Cr  Cr23  1  0.66869849  0.33146525  0.33236034  1
  Ni  Ni24  1  0.66429058  0.66438104  0.99920504  1
  Cr  Cr25  1  0.83457142  0.83490998  0.16811025  1
  Cr  Cr26  1  0.66872157  0.66553004  0.33228870  1
  Ni  Ni27  1  0.16425060  0.16570404  0.50027710  1
  Ni  Ni28  1  0.00148688  1.00004064  0.66823348  1
  Ni  Ni29  1  0.16590329  0.16582484  0.83437255  1
  Ni  Ni30  1  0.16372296  0.50042069  0.49957479  1
  Ni  Ni31  1  0.00070204  0.33311521  0.66533335  1
  Ni  Ni32  1  0.16910757  0.49933750  0.83331574  1
  Ni  Ni33  1  0.16765526  0.83440605  0.49847228  1
  Ni  Ni34  1  0.00028969  0.66736523  0.66614541  1
  Ni  Ni35  1  0.16843332  0.83541262  0.83350899  1
  Fe  Fe36  1  0.49948396  0.16390327  0.50033241  1
  Ni  Ni37  1  0.33249349  0.99980650  0.66747832  1
  Ni  Ni38  1  0.49864875  0.16536906  0.83457100  1
  Cr  Cr39  1  0.49936056  0.50260653  0.50110743  1
  Cr  Cr40  1  0.33142402  0.33187329  0.66724440  1
  Ni  Ni41  1  0.49847111  0.50278884  0.83602658  1
  Cr  Cr42  1  0.49844611  0.83476466  0.50091743  1
  Fe  Fe43  1  0.33077052  0.66838440  0.66854222  1
  Ni  Ni44  1  0.49957755  0.83237448  0.83238609  1
  Ni  Ni45  1  0.83647786  0.16717955  0.49936608  1
  Fe  Fe46  1  0.66798252  0.00020686  0.66856709  1
  Ni  Ni47  1  0.83602340  0.16466259  0.83387683  1
  Ni  Ni48  1  0.83744975  0.49842331  0.50004611  1
  Cr  Cr49  1  0.66764096  0.33270418  0.66644801  1
  Cr  Cr50  1  0.83357542  0.49994533  0.83353459  1
  Cr  Cr51  1  0.83436304  0.83438643  0.50086031  1
  Ni  Ni52  1  0.66783853  0.66803643  0.66889226  1
  Ni  Ni53  1  0.83252245  0.83558058  0.83170334  1
" 