8608,Ni63Fe12Cr23_6,-230.860419616199, 173.271449844578,Ni63Fe12Cr23,"# generated using pymatgen
 data_Cr7Fe3Ni17
_symmetry_space_group_name_H-M   'P 1'
_cell_length_a   7.46440932
_cell_length_b   7.46440932
_cell_length_c   10.55626890
_cell_angle_alpha   90.00000000
_cell_angle_beta   90.00000000
_cell_angle_gamma   90.00000000
_symmetry_Int_Tables_number   1
_chemical_formula_structural   Cr7Fe3Ni17
_chemical_formula_sum   'Cr14 Fe6 Ni34'
_cell_volume   588.16792617
_cell_formula_units_Z   2
loop_
 _symmetry_equiv_pos_site_id
 _symmetry_equiv_pos_as_xyz
  1  'x, y, z'
loop_
 _atom_site_type_symbol
 _atom_site_label
 _atom_site_symmetry_multiplicity
 _atom_site_fract_x
 _atom_site_fract_y
 _atom_site_fract_z
 _atom_site_occupancy
  Cr  Cr0  1  0.99857386  0.99718161  0.99857083  1
  Cr  Cr1  1  0.16647815  0.16693761  0.16664259  1
  Ni  Ni2  1  0.99873184  0.99985064  0.33467562  1
  Ni  Ni3  1  0.99916828  0.33656275  0.99896275  1
  Fe  Fe4  1  0.16830645  0.50316422  0.16545367  1
  Cr  Cr5  1  0.00181280  0.33455089  0.33802127  1
  Fe  Fe6  1  1.00008934  0.66478671  0.99852743  1
  Ni  Ni7  1  0.16794034  0.83173215  0.16410041  1
  Cr  Cr8  1  0.00094795  0.66719985  0.33195331  1
  Fe  Fe9  1  0.33480848  0.99748371  0.99911391  1
  Fe  Fe10  1  0.50144197  0.16616552  0.16783161  1
  Cr  Cr11  1  0.33338180  0.99889108  0.33252113  1
  Cr  Cr12  1  0.33645982  0.33605924  0.99968939  1
  Ni  Ni13  1  0.50046560  0.50032454  0.16854304  1
  Ni  Ni14  1  0.33440167  0.33654113  0.33296270  1
  Ni  Ni15  1  0.33255704  0.66750368  1.00014062  1
  Ni  Ni16  1  0.49950273  0.82899638  0.16831084  1
  Ni  Ni17  1  0.33502170  0.66523405  0.33208778  1
  Cr  Cr18  1  0.66398044  0.00039560  0.99727620  1
  Cr  Cr19  1  0.83317105  0.16824490  0.16784265  1
  Ni  Ni20  1  0.66731731  0.99861295  0.33250151  1
  Ni  Ni21  1  0.66771375  0.33432629  0.99911450  1
  Fe  Fe22  1  0.83179372  0.50211325  0.16585855  1
  Ni  Ni23  1  0.66638592  0.33479997  0.33170296  1
  Cr  Cr24  1  0.66547586  0.66687923  0.99854319  1
  Ni  Ni25  1  0.83319147  0.83318850  0.16825178  1
  Ni  Ni26  1  0.66528612  0.66717053  0.33206941  1
  Ni  Ni27  1  0.16571763  0.16805290  0.50215038  1
  Ni  Ni28  1  0.99921351  0.00089244  0.66671305  1
  Cr  Cr29  1  0.16509421  0.16703070  0.83148471  1
  Ni  Ni30  1  0.16811619  0.49892017  0.50208317  1
  Ni  Ni31  1  0.99949351  0.33527347  0.66538516  1
  Ni  Ni32  1  0.16746509  0.50155974  0.83379312  1
  Cr  Cr33  1  0.16852231  0.83258515  0.50380316  1
  Ni  Ni34  1  0.00023516  0.66415692  0.67068655  1
  Ni  Ni35  1  0.16842019  0.83124745  0.83388213  1
  Cr  Cr36  1  0.50156007  0.16803012  0.50076408  1
  Ni  Ni37  1  0.33489676  0.99878638  0.66937114  1
  Fe  Fe38  1  0.50152664  0.16821196  0.83051558  1
  Cr  Cr39  1  0.50119511  0.50414391  0.50113747  1
  Ni  Ni40  1  0.33195962  0.33509717  0.66679344  1
  Ni  Ni41  1  0.50042992  0.50067480  0.83134193  1
  Ni  Ni42  1  0.50060892  0.83251924  0.50078878  1
  Ni  Ni43  1  0.33362476  0.66639099  0.66880929  1
  Ni  Ni44  1  0.49835639  0.83106668  0.83095391  1
  Ni  Ni45  1  0.83406842  0.16761871  0.50093393  1
  Ni  Ni46  1  0.66691040  0.99939292  0.66892662  1
  Ni  Ni47  1  0.83276922  0.16893278  0.83168411  1
  Ni  Ni48  1  0.83225627  0.49863166  0.50162337  1
  Ni  Ni49  1  0.66905254  0.33394676  0.66967543  1
  Ni  Ni50  1  0.83274051  0.49819183  0.83415346  1
  Cr  Cr51  1  0.83002788  0.83311443  0.50137567  1
  Ni  Ni52  1  0.66688225  0.66713802  0.66895989  1
  Ni  Ni53  1  0.83399419  0.83303885  0.83048392  1
" 