7450,Ni63Fe13Cr23_0,-231.200955742817, 175.861021812689,Ni63Fe13Cr23,"# generated using pymatgen
 data_Cr13Fe7Ni34
_symmetry_space_group_name_H-M   'P 1'
_cell_length_a   7.45987293
_cell_length_b   7.45987293
_cell_length_c   10.54985347
_cell_angle_alpha   90.00000000
_cell_angle_beta   90.00000000
_cell_angle_gamma   90.00000000
_symmetry_Int_Tables_number   1
_chemical_formula_structural   Cr13Fe7Ni34
_chemical_formula_sum   'Cr13 Fe7 Ni34'
_cell_volume   587.09622449
_cell_formula_units_Z   1
loop_
 _symmetry_equiv_pos_site_id
 _symmetry_equiv_pos_as_xyz
  1  'x, y, z'
loop_
 _atom_site_type_symbol
 _atom_site_label
 _atom_site_symmetry_multiplicity
 _atom_site_fract_x
 _atom_site_fract_y
 _atom_site_fract_z
 _atom_site_occupancy
  Cr  Cr0  1  1.00045280  0.00099869  0.99937560  1
  Ni  Ni1  1  0.16737291  0.16982198  0.16813376  1
  Fe  Fe2  1  0.99941323  0.00057760  0.33344492  1
  Ni  Ni3  1  0.00242413  0.33370173  0.00169292  1
  Ni  Ni4  1  0.16702615  0.49736227  0.16636738  1
  Fe  Fe5  1  1.00013822  0.33439077  0.33201699  1
  Ni  Ni6  1  0.99969465  0.66658701  0.00094906  1
  Cr  Cr7  1  0.17025002  0.83361426  0.16721289  1
  Cr  Cr8  1  0.99973140  0.66754731  0.33336270  1
  Ni  Ni9  1  0.33446793  0.00340608  0.99905407  1
  Fe  Fe10  1  0.49917679  0.16707345  0.16839011  1
  Ni  Ni11  1  0.33502672  0.00239507  0.33431179  1
  Ni  Ni12  1  0.33197275  0.33163771  0.99950891  1
  Cr  Cr13  1  0.49793148  0.50169292  0.16669336  1
  Ni  Ni14  1  0.33480545  0.33249402  0.33327875  1
  Ni  Ni15  1  0.33261017  0.66643220  0.99690225  1
  Cr  Cr16  1  0.49996517  0.83472951  0.16565007  1
  Ni  Ni17  1  0.33209621  0.66632301  0.33755824  1
  Fe  Fe18  1  0.66720335  1.00031224  0.99977770  1
  Ni  Ni19  1  0.83504909  0.16798489  0.16985666  1
  Ni  Ni20  1  0.66678854  0.00256924  0.33352656  1
  Cr  Cr21  1  0.66649406  0.33207114  0.00112637  1
  Ni  Ni22  1  0.83569887  0.49844947  0.16617024  1
  Ni  Ni23  1  0.66679220  0.33157004  0.33409339  1
  Ni  Ni24  1  0.66916001  0.66881568  0.99996497  1
  Ni  Ni25  1  0.83220954  0.83522204  0.16639262  1
  Cr  Cr26  1  0.66931134  0.66652653  0.33494896  1
  Cr  Cr27  1  0.16613054  0.16681357  0.49918186  1
  Ni  Ni28  1  0.99958730  0.99939769  0.66805526  1
  Ni  Ni29  1  0.16548510  0.16839420  0.83471618  1
  Fe  Fe30  1  0.16783125  0.50086620  0.50050255  1
  Ni  Ni31  1  0.99933468  0.33291877  0.66850544  1
  Ni  Ni32  1  0.16903698  0.50016972  0.83582372  1
  Ni  Ni33  1  0.16926755  0.83366463  0.49929218  1
  Cr  Cr34  1  0.00165464  0.66976081  0.66690923  1
  Ni  Ni35  1  0.16886267  0.83290338  0.83444673  1
  Ni  Ni36  1  0.50163423  0.16682175  0.49758481  1
  Cr  Cr37  1  0.33326932  0.99914274  0.66895615  1
  Ni  Ni38  1  0.50172201  0.16618324  0.83553776  1
  Fe  Fe39  1  0.50109894  0.50032868  0.50076753  1
  Cr  Cr40  1  0.33594916  0.33437690  0.66927084  1
  Ni  Ni41  1  0.49915779  0.50297206  0.83292739  1
  Ni  Ni42  1  0.49967665  0.83351205  0.50010791  1
  Ni  Ni43  1  0.33590208  0.66804561  0.66653304  1
  Ni  Ni44  1  0.50106289  0.83205751  0.83482879  1
  Cr  Cr45  1  0.83326885  0.16829619  0.50241193  1
  Fe  Fe46  1  0.66649385  0.99918137  0.66724588  1
  Ni  Ni47  1  0.83418680  0.16608659  0.83053022  1
  Ni  Ni48  1  0.83249027  0.49879038  0.50092685  1
  Ni  Ni49  1  0.66633306  0.33412228  0.66640487  1
  Cr  Cr50  1  0.83393942  0.49970137  0.83435824  1
  Ni  Ni51  1  0.83232558  0.83441420  0.50107147  1
  Ni  Ni52  1  0.66580739  0.66728186  0.66573436  1
  Ni  Ni53  1  0.83119560  0.83545713  0.83357537  1
" 