4226,Ni63Fe12Cr23_13,-230.575077595034, 172.369274282133,Ni63Fe12Cr23,"# generated using pymatgen
 data_Cr7Fe3Ni17
_symmetry_space_group_name_H-M   'P 1'
_cell_length_a   7.46560250
_cell_length_b   7.46560250
_cell_length_c   10.55795630
_cell_angle_alpha   90.00000000
_cell_angle_beta   90.00000000
_cell_angle_gamma   90.00000000
_symmetry_Int_Tables_number   1
_chemical_formula_structural   Cr7Fe3Ni17
_chemical_formula_sum   'Cr14 Fe6 Ni34'
_cell_volume   588.45002393
_cell_formula_units_Z   2
loop_
 _symmetry_equiv_pos_site_id
 _symmetry_equiv_pos_as_xyz
  1  'x, y, z'
loop_
 _atom_site_type_symbol
 _atom_site_label
 _atom_site_symmetry_multiplicity
 _atom_site_fract_x
 _atom_site_fract_y
 _atom_site_fract_z
 _atom_site_occupancy
  Ni  Ni0  1  0.99848126  0.00112611  0.00072849  1
  Cr  Cr1  1  0.16647207  0.16526535  0.16746011  1
  Ni  Ni2  1  0.00061953  0.99894610  0.33241862  1
  Ni  Ni3  1  0.99903964  0.33162650  0.99836813  1
  Cr  Cr4  1  0.16617023  0.50239590  0.16718878  1
  Ni  Ni5  1  0.00263965  0.33334035  0.33521304  1
  Ni  Ni6  1  0.00044705  0.66753760  0.00103414  1
  Ni  Ni7  1  0.16704578  0.83295443  0.16662143  1
  Ni  Ni8  1  0.00044196  0.66800364  0.33430456  1
  Ni  Ni9  1  0.33486146  0.99771264  0.00129748  1
  Ni  Ni10  1  0.50219346  0.16415899  0.16698833  1
  Fe  Fe11  1  0.33406366  0.99955659  0.33402780  1
  Cr  Cr12  1  0.33327377  0.33444548  0.99903130  1
  Fe  Fe13  1  0.50041994  0.50206339  0.16622727  1
  Ni  Ni14  1  0.33321228  0.33299835  0.33551663  1
  Ni  Ni15  1  0.33572857  0.66811734  0.99973957  1
  Ni  Ni16  1  0.50055717  0.83464326  0.16587960  1
  Fe  Fe17  1  0.33340918  0.66792297  0.33428210  1
  Ni  Ni18  1  0.66694770  0.99911893  0.00178854  1
  Ni  Ni19  1  0.83164446  0.16463612  0.16538999  1
  Ni  Ni20  1  0.66533662  0.99799205  0.33166138  1
  Fe  Fe21  1  0.66795911  0.33224950  0.00027086  1
  Cr  Cr22  1  0.83412402  0.50068519  0.16588610  1
  Cr  Cr23  1  0.66514081  0.33327150  0.33300175  1
  Ni  Ni24  1  0.66411497  0.66867651  0.00083320  1
  Ni  Ni25  1  0.83268732  0.83475714  0.16668720  1
  Ni  Ni26  1  0.66567945  0.66912501  0.33354230  1
  Ni  Ni27  1  0.16839524  0.16850302  0.50006985  1
  Ni  Ni28  1  0.00148906  0.00207888  0.66714381  1
  Fe  Fe29  1  0.16390279  0.16852089  0.83310729  1
  Ni  Ni30  1  0.16603002  0.50001088  0.50069781  1
  Ni  Ni31  1  0.00193337  0.33341231  0.66670939  1
  Ni  Ni32  1  0.16752447  0.49982065  0.83236808  1
  Ni  Ni33  1  0.16795868  0.83177644  0.49943874  1
  Ni  Ni34  1  0.00314597  0.66480131  0.66495087  1
  Cr  Cr35  1  0.16787369  0.83169874  0.83423558  1
  Ni  Ni36  1  0.49765009  0.16721735  0.49934203  1
  Cr  Cr37  1  0.33212544  1.00008315  0.66544320  1
  Cr  Cr38  1  0.50143190  0.16681836  0.83369971  1
  Fe  Fe39  1  0.49805042  0.49974912  0.50090845  1
  Ni  Ni40  1  0.33234847  0.33593730  0.66585486  1
  Ni  Ni41  1  0.49790700  0.50114919  0.83327595  1
  Ni  Ni42  1  0.49767739  0.83347121  0.49848138  1
  Ni  Ni43  1  0.33279703  0.66393591  0.66648148  1
  Ni  Ni44  1  0.49870060  0.83151930  0.83593030  1
  Cr  Cr45  1  0.83389341  0.16864547  0.50057654  1
  Cr  Cr46  1  0.66704672  0.00067331  0.66665533  1
  Ni  Ni47  1  0.83492673  0.16808738  0.83432341  1
  Ni  Ni48  1  0.83594027  0.50003844  0.50062826  1
  Ni  Ni49  1  0.66600676  0.33428134  0.66642846  1
  Cr  Cr50  1  0.83488306  0.49787476  0.83372631  1
  Cr  Cr51  1  0.83462504  0.83151821  0.49927798  1
  Cr  Cr52  1  0.66469348  0.66537772  0.66580669  1
  Cr  Cr53  1  0.83355814  0.83489881  0.83427590  1
" 