8798,Ni63Fe12Cr23_19,-230.767048750717, 173.619805322033,Ni63Fe12Cr23,"# generated using pymatgen
 data_Cr7Fe3Ni17
_symmetry_space_group_name_H-M   'P 1'
_cell_length_a   7.46706116
_cell_length_b   7.46706116
_cell_length_c   10.56001917
_cell_angle_alpha   90.00000000
_cell_angle_beta   90.00000000
_cell_angle_gamma   90.00000000
_symmetry_Int_Tables_number   1
_chemical_formula_structural   Cr7Fe3Ni17
_chemical_formula_sum   'Cr14 Fe6 Ni34'
_cell_volume   588.79501449
_cell_formula_units_Z   2
loop_
 _symmetry_equiv_pos_site_id
 _symmetry_equiv_pos_as_xyz
  1  'x, y, z'
loop_
 _atom_site_type_symbol
 _atom_site_label
 _atom_site_symmetry_multiplicity
 _atom_site_fract_x
 _atom_site_fract_y
 _atom_site_fract_z
 _atom_site_occupancy
  Ni  Ni0  1  0.00204542  0.99962676  0.00185339  1
  Ni  Ni1  1  0.16619173  0.16841320  0.16547971  1
  Cr  Cr2  1  0.00053956  0.99879224  0.33211340  1
  Fe  Fe3  1  0.00289249  0.33311715  0.00063371  1
  Ni  Ni4  1  0.16900281  0.49957563  0.16555458  1
  Cr  Cr5  1  0.00126775  0.33425425  0.33312127  1
  Ni  Ni6  1  0.00074476  0.66811397  0.00130168  1
  Fe  Fe7  1  0.16587429  0.83225776  0.16505442  1
  Ni  Ni8  1  0.00072155  0.66763458  0.33447654  1
  Cr  Cr9  1  0.33067734  0.99983961  0.99808913  1
  Cr  Cr10  1  0.49906636  0.16751989  0.17139977  1
  Ni  Ni11  1  0.33414696  0.00134158  0.33415275  1
  Ni  Ni12  1  0.33180009  0.33537064  0.00046311  1
  Ni  Ni13  1  0.49630225  0.50149763  0.16546328  1
  Ni  Ni14  1  0.33419802  0.33260388  0.33355165  1
  Ni  Ni15  1  0.33405640  0.66526030  0.00082454  1
  Ni  Ni16  1  0.50130142  0.83157644  0.16709537  1
  Cr  Cr17  1  0.33087469  0.66596193  0.33223725  1
  Cr  Cr18  1  0.66727956  0.99797780  0.00056638  1
  Ni  Ni19  1  0.83543113  0.16328043  0.16707212  1
  Ni  Ni20  1  0.66630715  0.00098899  0.33346105  1
  Cr  Cr21  1  0.66513749  0.33586178  0.99813065  1
  Cr  Cr22  1  0.83431197  0.50160619  0.16622614  1
  Ni  Ni23  1  0.66493457  0.33138712  0.33554115  1
  Ni  Ni24  1  0.66524441  0.66582972  0.99972577  1
  Ni  Ni25  1  0.83348532  0.83441129  0.16589588  1
  Cr  Cr26  1  0.66753336  0.66670876  0.33358577  1
  Ni  Ni27  1  0.16803933  0.16758846  0.50208139  1
  Ni  Ni28  1  0.00389418  0.00047419  0.66563054  1
  Ni  Ni29  1  0.16811172  0.16579391  0.83230183  1
  Ni  Ni30  1  0.16830300  0.49956204  0.50128699  1
  Ni  Ni31  1  0.00005991  0.33295025  0.66592873  1
  Cr  Cr32  1  0.16699808  0.50004915  0.83312990  1
  Fe  Fe33  1  0.16613226  0.83337683  0.50252344  1
  Ni  Ni34  1  0.00181862  0.66648917  0.66411035  1
  Ni  Ni35  1  0.16765003  0.83407619  0.83172042  1
  Fe  Fe36  1  0.49886013  0.16827634  0.49940589  1
  Ni  Ni37  1  0.33047491  0.00034208  0.66746958  1
  Ni  Ni38  1  0.49606367  0.16866937  0.83005587  1
  Ni  Ni39  1  0.49752917  0.49757933  0.50052298  1
  Ni  Ni40  1  0.33385063  0.33249317  0.66617479  1
  Ni  Ni41  1  0.49922499  0.50029491  0.83403246  1
  Fe  Fe42  1  0.49790759  0.83523031  0.49992750  1
  Ni  Ni43  1  0.33217228  0.66731707  0.66670174  1
  Ni  Ni44  1  0.49654766  0.83114168  0.83306977  1
  Ni  Ni45  1  0.83286672  0.16528520  0.50028449  1
  Cr  Cr46  1  0.66495510  0.00172529  0.66648472  1
  Cr  Cr47  1  0.83649993  0.16801808  0.83303500  1
  Fe  Fe48  1  0.83503401  0.49828066  0.50149878  1
  Ni  Ni49  1  0.66609779  0.33449626  0.66585766  1
  Ni  Ni50  1  0.83303642  0.50070222  0.83190423  1
  Ni  Ni51  1  0.83475588  0.83442949  0.49946574  1
  Cr  Cr52  1  0.66561424  0.66352351  0.66756662  1
  Cr  Cr53  1  0.83608389  0.83097631  0.83470911  1
" 