7861,Ni63Fe13Cr23_7,-231.646371615628, 180.969717098795,Ni63Fe13Cr23,"# generated using pymatgen
 data_Cr13Fe7Ni34
_symmetry_space_group_name_H-M   'P 1'
_cell_length_a   7.45523842
_cell_length_b   7.45523842
_cell_length_c   10.54329928
_cell_angle_alpha   90.00000000
_cell_angle_beta   90.00000000
_cell_angle_gamma   90.00000000
_symmetry_Int_Tables_number   1
_chemical_formula_structural   Cr13Fe7Ni34
_chemical_formula_sum   'Cr13 Fe7 Ni34'
_cell_volume   586.00268771
_cell_formula_units_Z   1
loop_
 _symmetry_equiv_pos_site_id
 _symmetry_equiv_pos_as_xyz
  1  'x, y, z'
loop_
 _atom_site_type_symbol
 _atom_site_label
 _atom_site_symmetry_multiplicity
 _atom_site_fract_x
 _atom_site_fract_y
 _atom_site_fract_z
 _atom_site_occupancy
  Cr  Cr0  1  0.00081321  0.00143853  1.00016129  1
  Ni  Ni1  1  0.16985302  0.17128528  0.16742246  1
  Cr  Cr2  1  0.00191476  1.00016868  0.33146338  1
  Ni  Ni3  1  0.00137428  0.33475044  0.99987419  1
  Ni  Ni4  1  0.16792513  0.49802885  0.16573285  1
  Fe  Fe5  1  1.00019119  0.33516172  0.33219848  1
  Ni  Ni6  1  1.00047046  0.66646289  0.99957752  1
  Cr  Cr7  1  0.16930663  0.83239947  0.16592486  1
  Fe  Fe8  1  1.00025913  0.66582861  0.33356444  1
  Ni  Ni9  1  0.33555932  0.00159824  1.00057524  1
  Ni  Ni10  1  0.50104430  0.16659343  0.16771845  1
  Ni  Ni11  1  0.33660605  0.00170660  0.33422376  1
  Ni  Ni12  1  0.33385330  0.33348164  0.00188449  1
  Fe  Fe13  1  0.50040656  0.50005909  0.16650598  1
  Ni  Ni14  1  0.33702631  0.33354602  0.33287093  1
  Ni  Ni15  1  0.33437973  0.66738508  0.99990553  1
  Ni  Ni16  1  0.50364356  0.83612383  0.16613620  1
  Cr  Cr17  1  0.33716955  0.66702852  0.33471209  1
  Ni  Ni18  1  0.66645254  1.00071864  1.00023649  1
  Ni  Ni19  1  0.83129151  0.16792092  0.16682914  1
  Ni  Ni20  1  0.66478628  0.00079868  0.33352067  1
  Ni  Ni21  1  0.66714065  0.33313638  0.00118777  1
  Cr  Cr22  1  0.83415355  0.50166612  0.16679790  1
  Ni  Ni23  1  0.66530164  0.33537796  0.33462325  1
  Ni  Ni24  1  0.66731825  0.66848598  0.00152228  1
  Ni  Ni25  1  0.82969367  0.83395286  0.16753802  1
  Ni  Ni26  1  0.66684147  0.66624098  0.33430666  1
  Cr  Cr27  1  0.16953299  0.16892154  0.49898100  1
  Cr  Cr28  1  0.00166771  1.00015233  0.67062935  1
  Ni  Ni29  1  0.16943703  0.17099819  0.83533588  1
  Cr  Cr30  1  0.16605294  0.50024493  0.50194689  1
  Ni  Ni31  1  1.00073490  0.33654900  0.66962857  1
  Ni  Ni32  1  0.16554964  0.50000506  0.83423124  1
  Ni  Ni33  1  0.16878082  0.83200858  0.50125726  1
  Ni  Ni34  1  0.99928564  0.66674660  0.66816752  1
  Ni  Ni35  1  0.16787472  0.83117291  0.83476544  1
  Ni  Ni36  1  0.50084574  0.16731950  0.49933946  1
  Cr  Cr37  1  0.33484043  1.00026793  0.66737988  1
  Ni  Ni38  1  0.50025430  0.16636439  0.83557342  1
  Ni  Ni39  1  0.50199006  0.50046646  0.50029006  1
  Ni  Ni40  1  0.33460069  0.33405786  0.66763157  1
  Cr  Cr41  1  0.49888031  0.50122598  0.83674191  1
  Ni  Ni42  1  0.50166590  0.83436402  0.50165452  1
  Fe  Fe43  1  0.33434924  0.66634735  0.66840892  1
  Ni  Ni44  1  0.50276483  0.83499707  0.83484640  1
  Cr  Cr45  1  0.83205716  0.16930032  0.50019264  1
  Fe  Fe46  1  0.66674956  0.99989800  0.66902981  1
  Fe  Fe47  1  0.83321153  0.16827592  0.83578605  1
  Ni  Ni48  1  0.83353885  0.50167392  0.50064944  1
  Cr  Cr49  1  0.66610887  0.33599757  0.66753943  1
  Fe  Fe50  1  0.83493692  0.50252522  0.83477986  1
  Cr  Cr51  1  0.83268975  0.83231925  0.49943653  1
  Ni  Ni52  1  0.66772159  0.66752196  0.66673561  1
  Ni  Ni53  1  0.83187018  0.83170106  0.83479535  1
" 