935,Ni63Fe14Cr22_2,-231.730347946767, 179.752848936528,Ni63Fe14Cr22,"# generated using pymatgen
 data_Cr13Fe7Ni34
_symmetry_space_group_name_H-M   'P 1'
_cell_length_a   7.45876366
_cell_length_b   7.45876366
_cell_length_c   10.54828472
_cell_angle_alpha   90.00000000
_cell_angle_beta   90.00000000
_cell_angle_gamma   90.00000000
_symmetry_Int_Tables_number   1
_chemical_formula_structural   Cr13Fe7Ni34
_chemical_formula_sum   'Cr13 Fe7 Ni34'
_cell_volume   586.83436223
_cell_formula_units_Z   1
loop_
 _symmetry_equiv_pos_site_id
 _symmetry_equiv_pos_as_xyz
  1  'x, y, z'
loop_
 _atom_site_type_symbol
 _atom_site_label
 _atom_site_symmetry_multiplicity
 _atom_site_fract_x
 _atom_site_fract_y
 _atom_site_fract_z
 _atom_site_occupancy
  Fe  Fe0  1  1.00046595  0.00323074  0.99969017  1
  Ni  Ni1  1  0.16650452  0.16808870  0.16709080  1
  Fe  Fe2  1  1.00023073  0.99909786  0.33438884  1
  Ni  Ni3  1  0.00158487  0.33102778  0.00117480  1
  Ni  Ni4  1  0.16877033  0.49932448  0.16659747  1
  Cr  Cr5  1  0.00186406  0.33453705  0.33409493  1
  Cr  Cr6  1  0.00372421  0.66694886  0.00096854  1
  Fe  Fe7  1  0.16791949  0.83526307  0.16733433  1
  Ni  Ni8  1  0.00107486  0.66829798  0.33500514  1
  Ni  Ni9  1  0.33329194  0.99875147  0.99991007  1
  Cr  Cr10  1  0.49993763  0.16705002  0.16697730  1
  Ni  Ni11  1  0.33344584  1.00013537  0.33499657  1
  Ni  Ni12  1  0.33161729  0.33539277  1.00054628  1
  Ni  Ni13  1  0.49771550  0.50039772  0.16532874  1
  Ni  Ni14  1  0.33063764  0.33248827  0.33337604  1
  Ni  Ni15  1  0.33412145  0.66752218  0.00076547  1
  Ni  Ni16  1  0.50091415  0.83429602  0.16678757  1
  Cr  Cr17  1  0.33183387  0.66832798  0.33200200  1
  Ni  Ni18  1  0.66806474  0.00101049  0.00073045  1
  Ni  Ni19  1  0.83513592  0.16489124  0.16502675  1
  Ni  Ni20  1  0.66775985  0.99868613  0.33400145  1
  Ni  Ni21  1  0.66846460  0.33185916  0.00145869  1
  Fe  Fe22  1  0.83470583  0.49952193  0.16673549  1
  Cr  Cr23  1  0.66874238  0.33246863  0.33274107  1
  Cr  Cr24  1  0.66382959  0.66867442  0.00072454  1
  Ni  Ni25  1  0.83406128  0.83656132  0.16888286  1
  Cr  Cr26  1  0.66901867  0.67009528  0.33376177  1
  Fe  Fe27  1  0.16592194  0.16620511  0.50114967  1
  Ni  Ni28  1  0.00158113  0.00144663  0.66745872  1
  Ni  Ni29  1  0.16576797  0.16725109  0.83340697  1
  Ni  Ni30  1  0.16416245  0.50046040  0.50110756  1
  Ni  Ni31  1  0.00080011  0.33289712  0.66628960  1
  Ni  Ni32  1  0.16922088  0.49921338  0.83396269  1
  Ni  Ni33  1  0.16478088  0.83455829  0.49964087  1
  Ni  Ni34  1  1.00031886  0.66732253  0.66542209  1
  Ni  Ni35  1  0.16715271  0.83520203  0.83456942  1
  Cr  Cr36  1  0.49944741  0.16607486  0.49947429  1
  Fe  Fe37  1  0.33041742  0.99961022  0.66739688  1
  Cr  Cr38  1  0.50028937  0.16856839  0.83521727  1
  Cr  Cr39  1  0.50071456  0.49961164  0.50218835  1
  Fe  Fe40  1  0.33104211  0.33428262  0.66833095  1
  Ni  Ni41  1  0.49860945  0.50051896  0.83413346  1
  Ni  Ni42  1  0.50077763  0.83617646  0.50005488  1
  Cr  Cr43  1  0.33359664  0.66860060  0.66907983  1
  Ni  Ni44  1  0.49970523  0.83292623  0.83482542  1
  Ni  Ni45  1  0.83542673  0.16632176  0.50126885  1
  Cr  Cr46  1  0.66872435  0.99878707  0.66739645  1
  Ni  Ni47  1  0.83611193  0.16615514  0.83537048  1
  Ni  Ni48  1  0.83704786  0.50173314  0.50256021  1
  Ni  Ni49  1  0.67000157  0.33530698  0.66713991  1
  Cr  Cr50  1  0.83387906  0.49956699  0.83175257  1
  Ni  Ni51  1  0.83610462  0.83361048  0.50043588  1
  Ni  Ni52  1  0.66813976  0.66725288  0.66690693  1
  Ni  Ni53  1  0.83480727  0.83637920  0.83234880  1
" 