8353,Ni63Fe26Cr10_7,-237.826379489139, 204.349829804006,Ni63Fe26Cr10,"# generated using pymatgen
 data_Cr3Fe7Ni17
_symmetry_space_group_name_H-M   'P 1'
_cell_length_a   7.42321311
_cell_length_b   7.42321311
_cell_length_c   10.49800865
_cell_angle_alpha   90.00000000
_cell_angle_beta   90.00000000
_cell_angle_gamma   90.00000000
_symmetry_Int_Tables_number   1
_chemical_formula_structural   Cr3Fe7Ni17
_chemical_formula_sum   'Cr6 Fe14 Ni34'
_cell_volume   578.48324321
_cell_formula_units_Z   2
loop_
 _symmetry_equiv_pos_site_id
 _symmetry_equiv_pos_as_xyz
  1  'x, y, z'
loop_
 _atom_site_type_symbol
 _atom_site_label
 _atom_site_symmetry_multiplicity
 _atom_site_fract_x
 _atom_site_fract_y
 _atom_site_fract_z
 _atom_site_occupancy
  Fe  Fe0  1  1.00224006  0.00627465  0.00387932  1
  Ni  Ni1  1  0.17063440  0.17064435  0.17132445  1
  Ni  Ni2  1  1.00291764  0.00645462  0.33719643  1
  Fe  Fe3  1  0.00326437  0.33679574  0.00313953  1
  Ni  Ni4  1  0.17052945  0.50067501  0.16831911  1
  Ni  Ni5  1  0.00336083  0.33455465  0.33566102  1
  Fe  Fe6  1  1.00107601  0.66566974  0.00338587  1
  Cr  Cr7  1  0.16924178  0.83649389  0.16732574  1
  Cr  Cr8  1  0.00317922  0.66756710  0.33746445  1
  Fe  Fe9  1  0.33951525  0.00555191  0.00295829  1
  Ni  Ni10  1  0.50331445  0.17050939  0.16938663  1
  Ni  Ni11  1  0.33627206  1.00232526  0.33481906  1
  Ni  Ni12  1  0.33415504  0.33671488  0.00307546  1
  Ni  Ni13  1  0.50360149  0.50112991  0.17060629  1
  Fe  Fe14  1  0.33611033  0.33721034  0.33436559  1
  Ni  Ni15  1  0.33884856  0.66616480  1.00264282  1
  Fe  Fe16  1  0.50407717  0.83527744  0.16955659  1
  Ni  Ni17  1  0.33847851  0.66901335  0.33634977  1
  Ni  Ni18  1  0.66999306  0.00374822  0.00380384  1
  Fe  Fe19  1  0.83624107  0.17046911  0.17094259  1
  Ni  Ni20  1  0.66969242  1.00255638  0.33502513  1
  Fe  Fe21  1  0.66738572  0.33762770  0.00327286  1
  Ni  Ni22  1  0.83444321  0.50336094  0.16918757  1
  Ni  Ni23  1  0.67162257  0.33701452  0.33420517  1
  Ni  Ni24  1  0.66783172  0.66983241  0.00433996  1
  Ni  Ni25  1  0.83449583  0.83722874  0.17014187  1
  Ni  Ni26  1  0.66678542  0.66930838  0.33567295  1
  Fe  Fe27  1  0.16963009  0.16961135  0.50284707  1
  Ni  Ni28  1  0.00373968  0.00602396  0.66738671  1
  Ni  Ni29  1  0.16948575  0.17082802  0.83521525  1
  Ni  Ni30  1  0.17097002  0.50281513  0.50414689  1
  Ni  Ni31  1  0.00307932  0.33620443  0.66994153  1
  Ni  Ni32  1  0.16950248  0.50105385  0.83666233  1
  Ni  Ni33  1  0.17016916  0.83693436  0.50485700  1
  Ni  Ni34  1  0.00548438  0.66664006  0.66888961  1
  Cr  Cr35  1  0.17026892  0.83566415  0.83688641  1
  Cr  Cr36  1  0.50487166  0.17129423  0.50358787  1
  Ni  Ni37  1  0.33654546  1.00214462  0.67146104  1
  Fe  Fe38  1  0.50261076  0.17013609  0.83708284  1
  Ni  Ni39  1  0.50182066  0.50240109  0.50163424  1
  Fe  Fe40  1  0.33569072  0.33746159  0.67139317  1
  Ni  Ni41  1  0.50282348  0.50179642  0.83645198  1
  Ni  Ni42  1  0.50087768  0.83669460  0.50121416  1
  Ni  Ni43  1  0.33572837  0.66926837  0.66978707  1
  Ni  Ni44  1  0.50291613  0.83715000  0.83765668  1
  Ni  Ni45  1  0.83670033  0.16969912  0.50277692  1
  Ni  Ni46  1  0.66867521  0.00499930  0.66997170  1
  Fe  Fe47  1  0.83650335  0.17109678  0.83501311  1
  Fe  Fe48  1  0.83549871  0.49959948  0.50292843  1
  Ni  Ni49  1  0.67148157  0.33549683  0.67235870  1
  Ni  Ni50  1  0.83619639  0.50092622  0.83668075  1
  Fe  Fe51  1  0.83570111  0.83831807  0.50248541  1
  Cr  Cr52  1  0.66677870  0.66877903  0.66734567  1
  Cr  Cr53  1  0.83637884  0.83622597  0.83472563  1
" 