8083,Ni64Fe30Cr5_7,-239.703490232068, 213.468557927522,Ni64Fe30Cr5,"# generated using pymatgen
 data_Cr2Fe8Ni17
_symmetry_space_group_name_H-M   'P 1'
_cell_length_a   7.41877039
_cell_length_b   7.41877039
_cell_length_c   10.49172570
_cell_angle_alpha   90.00000000
_cell_angle_beta   90.00000000
_cell_angle_gamma   90.00000000
_symmetry_Int_Tables_number   1
_chemical_formula_structural   Cr2Fe8Ni17
_chemical_formula_sum   'Cr4 Fe16 Ni34'
_cell_volume   577.44521563
_cell_formula_units_Z   2
loop_
 _symmetry_equiv_pos_site_id
 _symmetry_equiv_pos_as_xyz
  1  'x, y, z'
loop_
 _atom_site_type_symbol
 _atom_site_label
 _atom_site_symmetry_multiplicity
 _atom_site_fract_x
 _atom_site_fract_y
 _atom_site_fract_z
 _atom_site_occupancy
  Ni  Ni0  1  0.00563887  1.00240756  0.00410433  1
  Fe  Fe1  1  0.17200338  0.16771631  0.17025066  1
  Ni  Ni2  1  0.00377090  1.00234768  0.33538488  1
  Cr  Cr3  1  1.00253003  0.33423655  1.00179822  1
  Cr  Cr4  1  0.17126812  0.50536936  0.17074571  1
  Fe  Fe5  1  0.00395055  0.33669217  0.33751456  1
  Fe  Fe6  1  1.00151280  0.67221386  1.00271138  1
  Fe  Fe7  1  0.17113692  0.83867188  0.17117830  1
  Ni  Ni8  1  1.00263188  0.67179633  0.33680354  1
  Ni  Ni9  1  0.33461938  1.00255029  1.00217401  1
  Ni  Ni10  1  0.50260672  0.16884979  0.17043654  1
  Ni  Ni11  1  0.33531253  0.00335322  0.33822435  1
  Fe  Fe12  1  0.33737853  0.33479284  1.00199568  1
  Ni  Ni13  1  0.50339885  0.50415276  0.17075137  1
  Ni  Ni14  1  0.33954467  0.33584763  0.33558798  1
  Fe  Fe15  1  0.33886807  0.67230747  1.00231332  1
  Ni  Ni16  1  0.50150275  0.83675203  0.17221648  1
  Ni  Ni17  1  0.33671613  0.67028003  0.33823972  1
  Cr  Cr18  1  0.67013951  1.00209145  0.00345337  1
  Ni  Ni19  1  0.83676322  0.16859570  0.17382148  1
  Fe  Fe20  1  0.66819970  0.00328209  0.33769767  1
  Cr  Cr21  1  0.66859229  0.33855538  1.00123288  1
  Ni  Ni22  1  0.83614372  0.50417690  0.17156701  1
  Ni  Ni23  1  0.66945968  0.33732890  0.33632203  1
  Ni  Ni24  1  0.66874063  0.66944232  0.00394132  1
  Fe  Fe25  1  0.83597201  0.83502700  0.17071775  1
  Fe  Fe26  1  0.66912001  0.66969118  0.33699217  1
  Fe  Fe27  1  0.17029635  0.17045637  0.50378976  1
  Ni  Ni28  1  1.00294836  1.00249321  0.67090154  1
  Ni  Ni29  1  0.17047222  0.16900398  0.83572364  1
  Ni  Ni30  1  0.16979406  0.50433737  0.50287612  1
  Fe  Fe31  1  0.00401631  0.33830524  0.67064531  1
  Ni  Ni32  1  0.17129090  0.50481662  0.83574103  1
  Ni  Ni33  1  0.16799871  0.83581748  0.50348179  1
  Ni  Ni34  1  0.00355542  0.67152305  0.67113651  1
  Ni  Ni35  1  0.16900276  0.83613419  0.83719140  1
  Ni  Ni36  1  0.50348652  0.16971057  0.50346350  1
  Fe  Fe37  1  0.33627283  1.00118601  0.67014559  1
  Ni  Ni38  1  0.50226619  0.16942686  0.83510797  1
  Ni  Ni39  1  0.50246684  0.50103936  0.50160964  1
  Ni  Ni40  1  0.33695619  0.33727822  0.67091965  1
  Ni  Ni41  1  0.50115984  0.50440986  0.83643884  1
  Fe  Fe42  1  0.50324514  0.83477166  0.50400642  1
  Ni  Ni43  1  0.33620851  0.66777800  0.66931538  1
  Ni  Ni44  1  0.50325707  0.83589564  0.83416711  1
  Fe  Fe45  1  0.83696437  0.16997093  0.50298721  1
  Ni  Ni46  1  0.67117564  1.00277071  0.66961801  1
  Ni  Ni47  1  0.83718927  0.16726949  0.83268968  1
  Ni  Ni48  1  0.83764733  0.50466977  0.50300415  1
  Fe  Fe49  1  0.66901983  0.33782205  0.66895605  1
  Fe  Fe50  1  0.83597886  0.50576204  0.83466374  1
  Ni  Ni51  1  0.83826801  0.83722086  0.50228318  1
  Ni  Ni52  1  0.66984895  0.67013707  0.66930549  1
  Ni  Ni53  1  0.83739262  0.83716563  0.83735548  1
" 