3643,Ni64Fe7Cr28_9,-228.620513948357, 157.923913666106,Ni64Fe7Cr28,"# generated using pymatgen
 data_Cr8Fe2Ni17
_symmetry_space_group_name_H-M   'P 1'
_cell_length_a   7.47591263
_cell_length_b   7.47591263
_cell_length_c   10.57253703
_cell_angle_alpha   90.00000000
_cell_angle_beta   90.00000000
_cell_angle_gamma   90.00000000
_symmetry_Int_Tables_number   1
_chemical_formula_structural   Cr8Fe2Ni17
_chemical_formula_sum   'Cr16 Fe4 Ni34'
_cell_volume   590.89137287
_cell_formula_units_Z   2
loop_
 _symmetry_equiv_pos_site_id
 _symmetry_equiv_pos_as_xyz
  1  'x, y, z'
loop_
 _atom_site_type_symbol
 _atom_site_label
 _atom_site_symmetry_multiplicity
 _atom_site_fract_x
 _atom_site_fract_y
 _atom_site_fract_z
 _atom_site_occupancy
  Ni  Ni0  1  0.99915368  0.99905892  0.00085634  1
  Ni  Ni1  1  0.16925223  0.16320450  0.16397880  1
  Cr  Cr2  1  0.99920512  0.99851913  0.33155926  1
  Ni  Ni3  1  0.00214446  0.32950612  0.99919396  1
  Cr  Cr4  1  0.16669306  0.49924274  0.16574644  1
  Cr  Cr5  1  0.00013618  0.33149052  0.33370411  1
  Ni  Ni6  1  0.00109208  0.66976189  0.99820026  1
  Ni  Ni7  1  0.16415878  0.83569249  0.16588643  1
  Ni  Ni8  1  0.00036846  0.66859778  0.33499800  1
  Fe  Fe9  1  0.33158240  0.00214926  -0.00011891  1
  Ni  Ni10  1  0.49750015  0.16675548  0.16454518  1
  Ni  Ni11  1  0.33335621  -0.00002873  0.33171161  1
  Ni  Ni12  1  0.33248362  0.33031426  -0.00026445  1
  Ni  Ni13  1  0.49882264  0.49534526  0.16552780  1
  Ni  Ni14  1  0.33451510  0.33151436  0.33257711  1
  Cr  Cr15  1  0.33138755  0.66654828  0.99845768  1
  Fe  Fe16  1  0.49852787  0.83625388  0.16610061  1
  Cr  Cr17  1  0.33235263  0.66615436  0.33395742  1
  Ni  Ni18  1  0.66646485  0.00057100  0.00039512  1
  Ni  Ni19  1  0.83150429  0.16334853  0.16189848  1
  Cr  Cr20  1  0.66634925  0.00021808  0.33299033  1
  Ni  Ni21  1  0.66359780  0.32823085  0.00167702  1
  Cr  Cr22  1  0.83241101  0.50043439  0.16339065  1
  Cr  Cr23  1  0.66439847  0.33112216  0.33396587  1
  Cr  Cr24  1  0.66531775  0.66934492  0.00010842  1
  Ni  Ni25  1  0.83543023  0.83435498  0.16412320  1
  Cr  Cr26  1  0.66615353  0.66709707  0.33367333  1
  Cr  Cr27  1  0.16884655  0.16502377  0.50042441  1
  Ni  Ni28  1  0.99820585  0.99809235  0.66592202  1
  Ni  Ni29  1  0.16899537  0.16525994  0.83345017  1
  Ni  Ni30  1  0.16517868  0.50095289  0.50038357  1
  Ni  Ni31  1  0.00112156  0.33254176  0.66539528  1
  Ni  Ni32  1  0.16486416  0.49860423  0.83282742  1
  Ni  Ni33  1  0.16474091  0.83130750  0.49956277  1
  Ni  Ni34  1  0.00116437  0.66766331  0.66510869  1
  Ni  Ni35  1  0.16313922  0.83454432  0.83270364  1
  Ni  Ni36  1  0.49959717  0.16635675  0.50112325  1
  Fe  Fe37  1  0.33278235  0.00085290  0.66622804  1
  Ni  Ni38  1  0.49722725  0.16465080  0.83247343  1
  Ni  Ni39  1  0.49892952  0.49637380  0.49952246  1
  Ni  Ni40  1  0.33245725  0.33195435  0.66592783  1
  Cr  Cr41  1  0.49901064  0.49421141  0.83322067  1
  Ni  Ni42  1  0.49880298  0.83566080  0.50002748  1
  Cr  Cr43  1  0.33035111  0.66565673  0.66586166  1
  Fe  Fe44  1  0.49930328  0.83821552  0.83197120  1
  Ni  Ni45  1  0.83000766  0.16588494  0.50332572  1
  Ni  Ni46  1  0.66627207  0.00067047  0.66488753  1
  Cr  Cr47  1  0.83155063  0.16464524  0.83263327  1
  Ni  Ni48  1  0.83414723  0.50036681  0.50133354  1
  Ni  Ni49  1  0.66463097  0.32896060  0.66275443  1
  Cr  Cr50  1  0.83556265  0.50005026  0.83350418  1
  Ni  Ni51  1  0.83463145  0.83197400  0.50115869  1
  Cr  Cr52  1  0.66640540  0.66833785  0.66443408  1
  Ni  Ni53  1  0.83569738  0.83436730  0.83297760  1
" 