5142,Ni64Fe7Cr28_16,-228.716343325214, 159.626841230312,Ni64Fe7Cr28,"# generated using pymatgen
 data_Cr8Fe2Ni17
_symmetry_space_group_name_H-M   'P 1'
_cell_length_a   7.47736886
_cell_length_b   7.47736886
_cell_length_c   10.57459646
_cell_angle_alpha   90.00000000
_cell_angle_beta   90.00000000
_cell_angle_gamma   90.00000000
_symmetry_Int_Tables_number   1
_chemical_formula_structural   Cr8Fe2Ni17
_chemical_formula_sum   'Cr16 Fe4 Ni34'
_cell_volume   591.23673966
_cell_formula_units_Z   2
loop_
 _symmetry_equiv_pos_site_id
 _symmetry_equiv_pos_as_xyz
  1  'x, y, z'
loop_
 _atom_site_type_symbol
 _atom_site_label
 _atom_site_symmetry_multiplicity
 _atom_site_fract_x
 _atom_site_fract_y
 _atom_site_fract_z
 _atom_site_occupancy
  Ni  Ni0  1  0.00204798  0.00057320  0.99878064  1
  Ni  Ni1  1  0.16532076  0.16572298  0.16368952  1
  Cr  Cr2  1  0.99870556  0.00081125  0.33173279  1
  Ni  Ni3  1  -0.00063283  0.33100932  0.99743368  1
  Ni  Ni4  1  0.16634343  0.50088892  0.16520267  1
  Cr  Cr5  1  0.00273926  0.33146702  0.33419179  1
  Ni  Ni6  1  0.00322104  0.66627270  0.99649136  1
  Ni  Ni7  1  0.16565606  0.83126705  0.16200474  1
  Ni  Ni8  1  0.99885660  0.66502210  0.33488135  1
  Ni  Ni9  1  0.32671158  0.99665287  0.99896495  1
  Cr  Cr10  1  0.50120218  0.16799763  0.16646886  1
  Cr  Cr11  1  0.33186509  0.00144705  0.33269206  1
  Cr  Cr12  1  0.32886400  0.33417132  0.00068223  1
  Ni  Ni13  1  0.49887687  0.49893293  0.16692291  1
  Ni  Ni14  1  0.33326009  0.33395946  0.33425619  1
  Ni  Ni15  1  0.32843844  0.66735553  0.00104571  1
  Fe  Fe16  1  0.49829001  0.83200952  0.16617777  1
  Cr  Cr17  1  0.33246829  0.66322958  0.33095165  1
  Cr  Cr18  1  0.66951162  0.00001367  0.99803671  1
  Ni  Ni19  1  0.83291596  0.16662971  0.16462251  1
  Ni  Ni20  1  0.66677996  -0.00047917  0.33588059  1
  Ni  Ni21  1  0.67022142  0.33267730  0.99887625  1
  Cr  Cr22  1  0.83315301  0.49781448  0.16616276  1
  Ni  Ni23  1  0.66477144  0.33276231  0.33442534  1
  Cr  Cr24  1  0.66509085  0.66447868  0.99791433  1
  Cr  Cr25  1  0.83563769  0.83201046  0.16824482  1
  Ni  Ni26  1  0.66517357  0.66562198  0.33548468  1
  Ni  Ni27  1  0.16730378  0.16839635  0.50223142  1
  Ni  Ni28  1  0.99795923  0.00098548  0.66721171  1
  Ni  Ni29  1  0.16331748  0.16487585  0.83174428  1
  Ni  Ni30  1  0.16591776  0.49803254  0.50076022  1
  Fe  Fe31  1  -0.00006700  0.33205032  0.66626320  1
  Ni  Ni32  1  0.16312839  0.50057999  0.83175470  1
  Cr  Cr33  1  0.16359421  0.83145837  0.50211724  1
  Fe  Fe34  1  0.99913768  0.66503052  0.66676963  1
  Ni  Ni35  1  0.16334285  0.83241001  0.83320482  1
  Ni  Ni36  1  0.49954437  0.16649204  0.49964639  1
  Fe  Fe37  1  0.33211584  0.00015154  0.66522304  1
  Cr  Cr38  1  0.49784001  0.16573685  0.83112130  1
  Ni  Ni39  1  0.49844254  0.49783380  0.49783431  1
  Ni  Ni40  1  0.32816535  0.33418041  0.66311602  1
  Cr  Cr41  1  0.49691307  0.49786673  0.83399290  1
  Ni  Ni42  1  0.50157523  0.83374409  0.49939896  1
  Ni  Ni43  1  0.33022710  0.66357021  0.66576913  1
  Cr  Cr44  1  0.49529273  0.83438372  0.83209644  1
  Ni  Ni45  1  0.83122138  0.16500077  0.49936381  1
  Ni  Ni46  1  0.67088025  0.99919844  0.66366527  1
  Ni  Ni47  1  0.83616805  0.16568828  0.83390391  1
  Ni  Ni48  1  0.83323975  0.50042072  0.49772091  1
  Cr  Cr49  1  0.66789888  0.33209426  0.66592700  1
  Ni  Ni50  1  0.83792147  0.49855301  0.83453186  1
  Ni  Ni51  1  0.83139054  0.83265289  0.49907198  1
  Cr  Cr52  1  0.66674455  0.66738794  0.66486371  1
  Ni  Ni53  1  0.83802560  0.83363599  0.83120803  1
" 