1178,Ni64Cr36_19,-213.748654356883, 135.791506480389,Ni64Cr36,"# generated using pymatgen
 data_Cr17Ni10
_symmetry_space_group_name_H-M   'P 1'
_cell_length_a   7.55028583
_cell_length_b   7.55028583
_cell_length_c   10.67771663
_cell_angle_alpha   90.00000000
_cell_angle_beta   90.00000000
_cell_angle_gamma   90.00000000
_symmetry_Int_Tables_number   1
_chemical_formula_structural   Cr17Ni10
_chemical_formula_sum   'Cr34 Ni20'
_cell_volume   608.70262892
_cell_formula_units_Z   2
loop_
 _symmetry_equiv_pos_site_id
 _symmetry_equiv_pos_as_xyz
  1  'x, y, z'
loop_
 _atom_site_type_symbol
 _atom_site_label
 _atom_site_symmetry_multiplicity
 _atom_site_fract_x
 _atom_site_fract_y
 _atom_site_fract_z
 _atom_site_occupancy
  Cr  Cr0  1  -0.00421071  0.99416713  -0.00137808  1
  Cr  Cr1  1  0.16202991  0.16101447  0.16050197  1
  Cr  Cr2  1  -0.00482356  0.99402511  0.32680488  1
  Cr  Cr3  1  0.99325903  0.32930970  -0.00421303  1
  Ni  Ni4  1  0.16175974  0.50100870  0.16222432  1
  Cr  Cr5  1  0.99334864  0.32826122  0.32700337  1
  Cr  Cr6  1  -0.00279033  0.65935888  0.99404349  1
  Ni  Ni7  1  0.16350662  0.82300635  0.16148070  1
  Ni  Ni8  1  -0.00303269  0.66066258  0.32789508  1
  Ni  Ni9  1  0.32773729  0.99289426  0.99386863  1
  Cr  Cr10  1  0.49682794  0.16284635  0.15953255  1
  Cr  Cr11  1  0.32704041  0.99111254  0.32866693  1
  Cr  Cr12  1  0.32865373  0.32959634  -0.00472523  1
  Cr  Cr13  1  0.49499490  0.49624433  0.16333389  1
  Cr  Cr14  1  0.32945765  0.33218798  0.32781779  1
  Ni  Ni15  1  0.32588434  0.66326031  -0.00256972  1
  Cr  Cr16  1  0.49375677  0.82538652  0.16121264  1
  Ni  Ni17  1  0.32694008  0.66193505  0.32858464  1
  Cr  Cr18  1  0.66030621  -0.00208464  0.99388663  1
  Ni  Ni19  1  0.82511309  0.16444738  0.16173232  1
  Cr  Cr20  1  0.66136921  -0.00299646  0.32944831  1
  Ni  Ni21  1  0.66180167  0.32676026  0.99358151  1
  Cr  Cr22  1  0.82586994  0.49479865  0.16279446  1
  Ni  Ni23  1  0.66364121  0.33072496  0.32966799  1
  Cr  Cr24  1  0.66044551  0.65798070  0.99025485  1
  Cr  Cr25  1  0.82763576  0.82612028  0.16263535  1
  Ni  Ni26  1  0.65968652  0.65799389  0.33247866  1
  Cr  Cr27  1  0.16066369  0.16124449  0.50004424  1
  Cr  Cr28  1  0.99418748  0.99402865  0.65825068  1
  Cr  Cr29  1  0.16446998  0.16121472  0.82282171  1
  Cr  Cr30  1  0.16076859  0.49392359  0.49470020  1
  Ni  Ni31  1  0.99237619  0.32934116  0.65997054  1
  Cr  Cr32  1  0.16048127  0.49263398  0.82660349  1
  Ni  Ni33  1  0.16415139  0.82605145  0.49310241  1
  Cr  Cr34  1  0.99300983  0.65802087  0.66170116  1
  Cr  Cr35  1  0.16273620  0.82924173  0.82817234  1
  Cr  Cr36  1  0.49334237  0.16322158  0.49540872  1
  Ni  Ni37  1  0.32956856  -0.00538096  0.66022270  1
  Ni  Ni38  1  0.49241553  0.16173055  0.82816248  1
  Ni  Ni39  1  0.49669447  0.49642468  0.49188455  1
  Ni  Ni40  1  0.32902515  0.32659277  0.66128357  1
  Cr  Cr41  1  0.49370964  0.49230693  0.82927894  1
  Ni  Ni42  1  0.49164011  0.82443096  0.49326510  1
  Cr  Cr43  1  0.32990917  0.66107539  0.65827152  1
  Cr  Cr44  1  0.49231222  0.83061090  0.82888302  1
  Ni  Ni45  1  0.82737740  0.16618316  0.49385491  1
  Cr  Cr46  1  0.65819733  0.99417664  0.66003539  1
  Cr  Cr47  1  0.82816922  0.16255419  0.82767336  1
  Ni  Ni48  1  0.82625445  0.49285534  0.49291024  1
  Cr  Cr49  1  0.66082525  0.32983784  0.66076953  1
  Ni  Ni50  1  0.82746400  0.49019477  0.82735899  1
  Cr  Cr51  1  0.82779489  0.82505043  0.49243276  1
  Cr  Cr52  1  0.66049579  0.65928071  0.66033183  1
  Cr  Cr53  1  0.82808907  0.82546880  0.82837889  1
" 