3261,Ni64Fe30Cr5_15,-239.852893268247, 213.050388668766,Ni64Fe30Cr5,"# generated using pymatgen
 data_Cr2Fe8Ni17
_symmetry_space_group_name_H-M   'P 1'
_cell_length_a   7.42310060
_cell_length_b   7.42310060
_cell_length_c   10.49784954
_cell_angle_alpha   90.00000000
_cell_angle_beta   90.00000000
_cell_angle_gamma   90.00000000
_symmetry_Int_Tables_number   1
_chemical_formula_structural   Cr2Fe8Ni17
_chemical_formula_sum   'Cr4 Fe16 Ni34'
_cell_volume   578.45694130
_cell_formula_units_Z   2
loop_
 _symmetry_equiv_pos_site_id
 _symmetry_equiv_pos_as_xyz
  1  'x, y, z'
loop_
 _atom_site_type_symbol
 _atom_site_label
 _atom_site_symmetry_multiplicity
 _atom_site_fract_x
 _atom_site_fract_y
 _atom_site_fract_z
 _atom_site_occupancy
  Ni  Ni0  1  0.00326059  1.00224942  0.00328327  1
  Fe  Fe1  1  0.17063840  0.16868300  0.16951294  1
  Fe  Fe2  1  0.00413227  0.00420745  0.33554873  1
  Ni  Ni3  1  0.00473431  0.33679295  1.00267854  1
  Fe  Fe4  1  0.16830582  0.50362982  0.16948404  1
  Ni  Ni5  1  0.00305724  0.33780081  0.33698853  1
  Ni  Ni6  1  1.00250907  0.66983740  1.00279915  1
  Ni  Ni7  1  0.16813484  0.83622787  0.17002712  1
  Ni  Ni8  1  0.00299909  0.66772227  0.33546781  1
  Ni  Ni9  1  0.33683425  1.00289136  1.00262179  1
  Ni  Ni10  1  0.50198986  0.16793960  0.17027881  1
  Ni  Ni11  1  0.33790451  1.00252695  0.33641810  1
  Ni  Ni12  1  0.33434554  0.33513362  1.00223142  1
  Cr  Cr13  1  0.50107566  0.50270296  0.17090680  1
  Ni  Ni14  1  0.33487348  0.33565312  0.33610108  1
  Ni  Ni15  1  0.33592260  0.67085593  1.00235409  1
  Ni  Ni16  1  0.50363678  0.83813379  0.16897092  1
  Fe  Fe17  1  0.33541877  0.67065737  0.33694524  1
  Fe  Fe18  1  0.66966910  1.00114094  0.00309901  1
  Fe  Fe19  1  0.83668871  0.16769867  0.17050289  1
  Ni  Ni20  1  0.66797668  1.00247254  0.33384225  1
  Cr  Cr21  1  0.66983323  0.33548478  1.00164801  1
  Fe  Fe22  1  0.83865971  0.50496553  0.17070457  1
  Fe  Fe23  1  0.67113776  0.33582925  0.33653927  1
  Ni  Ni24  1  0.67044870  0.67232752  1.00209527  1
  Ni  Ni25  1  0.83711115  0.83648094  0.16913951  1
  Fe  Fe26  1  0.66932694  0.66977942  0.33606790  1
  Ni  Ni27  1  0.16774439  0.17067122  0.50282272  1
  Ni  Ni28  1  1.00248157  0.00359885  0.66903048  1
  Ni  Ni29  1  0.16957159  0.17020721  0.83704164  1
  Ni  Ni30  1  0.16983719  0.50220838  0.50231119  1
  Ni  Ni31  1  0.00335948  0.33666079  0.66921548  1
  Ni  Ni32  1  0.17064957  0.50280929  0.83761887  1
  Fe  Fe33  1  0.17082004  0.83589621  0.50290067  1
  Ni  Ni34  1  0.00329350  0.66862021  0.67061622  1
  Ni  Ni35  1  0.16773323  0.83586443  0.83611679  1
  Cr  Cr36  1  0.50274192  0.17032052  0.50289352  1
  Fe  Fe37  1  0.33442662  1.00280252  0.67042245  1
  Ni  Ni38  1  0.50227316  0.17039720  0.83611335  1
  Ni  Ni39  1  0.50223272  0.50434053  0.50255351  1
  Ni  Ni40  1  0.33568462  0.33722471  0.67055295  1
  Ni  Ni41  1  0.50121047  0.50263009  0.83539640  1
  Ni  Ni42  1  0.50204252  0.83423239  0.50240453  1
  Fe  Fe43  1  0.33550431  0.66918914  0.66991877  1
  Fe  Fe44  1  0.50266044  0.83675417  0.83663531  1
  Ni  Ni45  1  0.83858071  0.17086318  0.50256132  1
  Ni  Ni46  1  0.66957246  1.00270702  0.67185901  1
  Ni  Ni47  1  0.83703586  0.16748484  0.83539012  1
  Ni  Ni48  1  0.83681122  0.50169470  0.50286441  1
  Fe  Fe49  1  0.67127855  0.33654522  0.67049462  1
  Fe  Fe50  1  0.83807876  0.50353024  0.83547193  1
  Cr  Cr51  1  0.83691632  0.83717867  0.50267425  1
  Fe  Fe52  1  0.66947142  0.66866416  0.67044867  1
  Ni  Ni53  1  0.83721054  0.83692706  0.83726197  1
" 