4726,Ni64Cr36_10,-213.899942652067, 137.319583092723,Ni64Cr36,"# generated using pymatgen
 data_Cr17Ni10
_symmetry_space_group_name_H-M   'P 1'
_cell_length_a   7.54785436
_cell_length_b   7.54785436
_cell_length_c   10.67427801
_cell_angle_alpha   90.00000000
_cell_angle_beta   90.00000000
_cell_angle_gamma   90.00000000
_symmetry_Int_Tables_number   1
_chemical_formula_structural   Cr17Ni10
_chemical_formula_sum   'Cr34 Ni20'
_cell_volume   608.11474382
_cell_formula_units_Z   2
loop_
 _symmetry_equiv_pos_site_id
 _symmetry_equiv_pos_as_xyz
  1  'x, y, z'
loop_
 _atom_site_type_symbol
 _atom_site_label
 _atom_site_symmetry_multiplicity
 _atom_site_fract_x
 _atom_site_fract_y
 _atom_site_fract_z
 _atom_site_occupancy
  Cr  Cr0  1  0.99138858  -0.00370260  0.99264923  1
  Cr  Cr1  1  0.16271727  0.16096749  0.16606026  1
  Ni  Ni2  1  0.99461423  -0.00363080  0.32967203  1
  Cr  Cr3  1  -0.00508630  0.32882714  0.99421698  1
  Ni  Ni4  1  0.16629453  0.49501154  0.16089661  1
  Cr  Cr5  1  0.99314926  0.32839446  0.32774625  1
  Cr  Cr6  1  -0.00165154  0.65872558  0.99393542  1
  Cr  Cr7  1  0.16202297  0.82860517  0.16290915  1
  Cr  Cr8  1  0.99374827  0.65912712  0.32825341  1
  Cr  Cr9  1  0.33183444  0.99136191  -0.00279742  1
  Cr  Cr10  1  0.49605266  0.16392761  0.16179774  1
  Ni  Ni11  1  0.32964063  0.99420495  0.32818817  1
  Cr  Cr12  1  0.32815203  0.33339728  -0.00480655  1
  Ni  Ni13  1  0.49548945  0.49657649  0.16060565  1
  Ni  Ni14  1  0.33066517  0.32878980  0.32595423  1
  Ni  Ni15  1  0.33258015  0.65773414  -0.00436934  1
  Ni  Ni16  1  0.49616805  0.82429753  0.16066255  1
  Cr  Cr17  1  0.33211616  0.66156689  0.32491179  1
  Ni  Ni18  1  0.66178558  0.99320477  0.99273289  1
  Cr  Cr19  1  0.82516369  0.16176279  0.16015910  1
  Cr  Cr20  1  0.65946417  0.99342992  0.32942766  1
  Ni  Ni21  1  0.65961734  0.32963783  0.99352156  1
  Cr  Cr22  1  0.82179291  0.49540068  0.16263222  1
  Ni  Ni23  1  0.65956269  0.33078712  0.32909163  1
  Ni  Ni24  1  0.65632332  0.66112551  -0.00505561  1
  Cr  Cr25  1  0.82497065  0.82638116  0.15955769  1
  Ni  Ni26  1  0.65803034  0.65919964  0.32819682  1
  Cr  Cr27  1  0.16341022  0.16125411  0.49254849  1
  Cr  Cr28  1  0.98991699  -0.00357453  0.66261553  1
  Cr  Cr29  1  0.16309768  0.16273806  0.82596906  1
  Cr  Cr30  1  0.16224084  0.49288232  0.49627632  1
  Cr  Cr31  1  0.99310513  0.32811283  0.66195981  1
  Ni  Ni32  1  0.16564095  0.49475600  0.82801837  1
  Cr  Cr33  1  0.16279895  0.82983306  0.49329790  1
  Cr  Cr34  1  0.99360367  0.65923128  0.66203748  1
  Cr  Cr35  1  0.16025663  0.82581128  0.82800888  1
  Cr  Cr36  1  0.49262701  0.16347186  0.49362906  1
  Cr  Cr37  1  0.33197021  0.99399684  0.65898712  1
  Cr  Cr38  1  0.49628758  0.16545427  0.82876059  1
  Cr  Cr39  1  0.49656485  0.49356049  0.49404805  1
  Ni  Ni40  1  0.32815968  0.33094598  0.66404798  1
  Ni  Ni41  1  0.49307252  0.49478885  0.83023612  1
  Ni  Ni42  1  0.49523330  0.82765721  0.49136448  1
  Cr  Cr43  1  0.33039908  0.65943966  0.66324639  1
  Cr  Cr44  1  0.49726996  0.82517098  0.83023628  1
  Ni  Ni45  1  0.82771276  0.16330089  0.49232749  1
  Cr  Cr46  1  0.66235073  -0.00518162  0.66175881  1
  Ni  Ni47  1  0.82487332  0.16021354  0.83069380  1
  Ni  Ni48  1  0.82499574  0.49200697  0.49182430  1
  Cr  Cr49  1  0.66218077  0.32673954  0.66071105  1
  Cr  Cr50  1  0.82354044  0.49679586  0.82929068  1
  Cr  Cr51  1  0.82780744  0.82481558  0.49300198  1
  Cr  Cr52  1  0.66013743  0.66247187  0.65868087  1
  Ni  Ni53  1  0.82507947  0.82913575  0.83061306  1
" 