151,Ni64Fe29Cr6_19,-238.4154247811, 204.482017332233,Ni64Fe29Cr6,"# generated using pymatgen
 data_Cr5Fe15Ni34
_symmetry_space_group_name_H-M   'P 1'
_cell_length_a   7.42515876
_cell_length_b   7.42515876
_cell_length_c   10.50076022
_cell_angle_alpha   90.00000000
_cell_angle_beta   90.00000000
_cell_angle_gamma   90.00000000
_symmetry_Int_Tables_number   1
_chemical_formula_structural   Cr5Fe15Ni34
_chemical_formula_sum   'Cr5 Fe15 Ni34'
_cell_volume   578.93822981
_cell_formula_units_Z   1
loop_
 _symmetry_equiv_pos_site_id
 _symmetry_equiv_pos_as_xyz
  1  'x, y, z'
loop_
 _atom_site_type_symbol
 _atom_site_label
 _atom_site_symmetry_multiplicity
 _atom_site_fract_x
 _atom_site_fract_y
 _atom_site_fract_z
 _atom_site_occupancy
  Ni  Ni0  1  1.00108502  1.00073815  0.00330774  1
  Cr  Cr1  1  0.17127774  0.16885619  0.16980850  1
  Fe  Fe2  1  0.00398095  1.00184536  0.33697140  1
  Fe  Fe3  1  0.00307637  0.33721803  0.00295078  1
  Ni  Ni4  1  0.16993925  0.50471607  0.16838870  1
  Cr  Cr5  1  1.00274048  0.33973455  0.33776093  1
  Fe  Fe6  1  0.00403897  0.66973572  0.00302747  1
  Ni  Ni7  1  0.17007472  0.83531819  0.16951961  1
  Ni  Ni8  1  0.00405631  0.67051838  0.33523176  1
  Fe  Fe9  1  0.33503991  1.00110036  1.00245400  1
  Ni  Ni10  1  0.50340764  0.16975049  0.17010471  1
  Ni  Ni11  1  0.33931733  1.00041315  0.33627668  1
  Ni  Ni12  1  0.33733242  0.34034155  1.00255410  1
  Ni  Ni13  1  0.50321319  0.50347894  0.17008524  1
  Ni  Ni14  1  0.33866626  0.33860843  0.33717411  1
  Ni  Ni15  1  0.33467989  0.66806941  0.00302264  1
  Ni  Ni16  1  0.50159947  0.83519132  0.16965956  1
  Ni  Ni17  1  0.33386203  0.66881990  0.33573193  1
  Cr  Cr18  1  0.66976989  1.00281867  1.00174410  1
  Ni  Ni19  1  0.83536362  0.16987201  0.16968429  1
  Ni  Ni20  1  0.67036783  0.00334442  0.33622781  1
  Fe  Fe21  1  0.66887222  0.33832292  0.00365876  1
  Ni  Ni22  1  0.83496107  0.50339347  0.16813641  1
  Ni  Ni23  1  0.66893066  0.33444720  0.33536082  1
  Fe  Fe24  1  0.66801829  0.66842387  1.00190508  1
  Fe  Fe25  1  0.83623571  0.83521472  0.17076865  1
  Fe  Fe26  1  0.66826374  0.66853535  0.33644434  1
  Ni  Ni27  1  0.17169009  0.16799951  0.50428465  1
  Ni  Ni28  1  1.00255206  1.00095421  0.66849254  1
  Fe  Fe29  1  0.16940283  0.16947908  0.83586658  1
  Ni  Ni30  1  0.17032433  0.50266752  0.50373169  1
  Fe  Fe31  1  0.00533208  0.33559765  0.66849676  1
  Ni  Ni32  1  0.16898177  0.50254503  0.83616301  1
  Fe  Fe33  1  0.17033823  0.83578554  0.50269335  1
  Fe  Fe34  1  0.00360333  0.66963725  0.66913421  1
  Ni  Ni35  1  0.16908849  0.83677442  0.83608925  1
  Ni  Ni36  1  0.50019653  0.16855623  0.50096302  1
  Ni  Ni37  1  0.33463003  1.00151219  0.67133775  1
  Fe  Fe38  1  0.49861204  0.17121939  0.83667167  1
  Ni  Ni39  1  0.50223974  0.50435423  0.50158253  1
  Ni  Ni40  1  0.33577077  0.33855551  0.66873638  1
  Ni  Ni41  1  0.50243759  0.50433348  0.83648679  1
  Ni  Ni42  1  0.50223708  0.83557060  0.50320889  1
  Ni  Ni43  1  0.33433877  0.66842771  0.66965933  1
  Ni  Ni44  1  0.50087137  0.83431116  0.83607873  1
  Ni  Ni45  1  0.83768544  0.16844884  0.50192296  1
  Cr  Cr46  1  0.67000559  1.00230857  0.67001475  1
  Fe  Fe47  1  0.84022971  0.17018592  0.83676126  1
  Ni  Ni48  1  0.83589707  0.50501848  0.50381464  1
  Cr  Cr49  1  0.66881164  0.33648605  0.66856790  1
  Ni  Ni50  1  0.83716067  0.50346193  0.83624340  1
  Ni  Ni51  1  0.83614286  0.83502863  0.50120688  1
  Fe  Fe52  1  0.66768324  0.67021691  0.66991099  1
  Ni  Ni53  1  0.83788551  0.83405698  0.83623981  1
" 