3670,Ni64Fe30Cr5_9,-239.380544397016, 209.726461403777,Ni64Fe30Cr5,"# generated using pymatgen
 data_Cr2Fe8Ni17
_symmetry_space_group_name_H-M   'P 1'
_cell_length_a   7.41996918
_cell_length_b   7.41996918
_cell_length_c   10.49342105
_cell_angle_alpha   90.00000000
_cell_angle_beta   90.00000000
_cell_angle_gamma   90.00000000
_symmetry_Int_Tables_number   1
_chemical_formula_structural   Cr2Fe8Ni17
_chemical_formula_sum   'Cr4 Fe16 Ni34'
_cell_volume   577.72518806
_cell_formula_units_Z   2
loop_
 _symmetry_equiv_pos_site_id
 _symmetry_equiv_pos_as_xyz
  1  'x, y, z'
loop_
 _atom_site_type_symbol
 _atom_site_label
 _atom_site_symmetry_multiplicity
 _atom_site_fract_x
 _atom_site_fract_y
 _atom_site_fract_z
 _atom_site_occupancy
  Ni  Ni0  1  0.00322773  0.00382552  0.00391390  1
  Ni  Ni1  1  0.16955265  0.16976577  0.16939445  1
  Cr  Cr2  1  1.00214237  0.00402955  0.33790989  1
  Fe  Fe3  1  1.00190728  0.33585045  1.00261822  1
  Fe  Fe4  1  0.17118035  0.50245534  0.16918744  1
  Fe  Fe5  1  1.00259914  0.33701817  0.33689787  1
  Fe  Fe6  1  1.00292815  0.66862231  0.00361579  1
  Ni  Ni7  1  0.17222946  0.83751864  0.16800499  1
  Cr  Cr8  1  0.00369560  0.66932300  0.33634753  1
  Fe  Fe9  1  0.33735152  0.00354378  1.00281416  1
  Fe  Fe10  1  0.50361313  0.17002164  0.16945550  1
  Fe  Fe11  1  0.33841316  1.00180097  0.33712026  1
  Ni  Ni12  1  0.33602101  0.33639958  0.00406807  1
  Ni  Ni13  1  0.50447302  0.50467914  0.17058863  1
  Fe  Fe14  1  0.33682032  0.33666328  0.33666415  1
  Fe  Fe15  1  0.33696146  0.67090885  0.00427727  1
  Ni  Ni16  1  0.50293364  0.83544316  0.17009761  1
  Ni  Ni17  1  0.33831991  0.66846289  0.33625549  1
  Ni  Ni18  1  0.67017289  0.00399662  0.00440559  1
  Ni  Ni19  1  0.83681149  0.17131134  0.16930287  1
  Ni  Ni20  1  0.66885074  0.00320088  0.33577447  1
  Ni  Ni21  1  0.66975680  0.33584145  0.00378487  1
  Ni  Ni22  1  0.83473177  0.50201025  0.16839330  1
  Fe  Fe23  1  0.67009624  0.33729964  0.33571565  1
  Ni  Ni24  1  0.66988416  0.66968117  0.00526390  1
  Fe  Fe25  1  0.83453734  0.83685140  0.16847076  1
  Ni  Ni26  1  0.66754236  0.67004004  0.33658926  1
  Ni  Ni27  1  0.17109136  0.17067670  0.50391643  1
  Ni  Ni28  1  0.00326287  0.00390763  0.66857035  1
  Ni  Ni29  1  0.16984147  0.17035024  0.83621145  1
  Ni  Ni30  1  0.16951176  0.50212238  0.50327085  1
  Ni  Ni31  1  0.00383127  0.33694090  0.67020717  1
  Ni  Ni32  1  0.16795529  0.50210535  0.83702977  1
  Ni  Ni33  1  0.17149751  0.83671610  0.50561036  1
  Ni  Ni34  1  0.00457921  0.66866675  0.66907227  1
  Fe  Fe35  1  0.17107996  0.83688318  0.83595470  1
  Ni  Ni36  1  0.50230200  0.16870837  0.50272107  1
  Ni  Ni37  1  0.33689261  0.00335915  0.67009531  1
  Ni  Ni38  1  0.50256410  0.16767866  0.83745661  1
  Fe  Fe39  1  0.50215237  0.50402841  0.50258489  1
  Ni  Ni40  1  0.33518799  0.33635487  0.66881148  1
  Cr  Cr41  1  0.50363128  0.50357264  0.83519463  1
  Ni  Ni42  1  0.50357330  0.83700651  0.50305523  1
  Ni  Ni43  1  0.33498709  0.66980469  0.66915625  1
  Ni  Ni44  1  0.50201754  0.83839914  0.83636790  1
  Fe  Fe45  1  0.83620396  0.16951645  0.50415371  1
  Ni  Ni46  1  0.66936255  0.00410798  0.66933323  1
  Ni  Ni47  1  0.83711313  0.17144324  0.83590809  1
  Ni  Ni48  1  0.83641268  0.50339582  0.50444430  1
  Fe  Fe49  1  0.67090198  0.33511939  0.66982823  1
  Ni  Ni50  1  0.83845282  0.50156015  0.83668089  1
  Ni  Ni51  1  0.83444683  0.83542857  0.50384666  1
  Fe  Fe52  1  0.67019843  0.67050966  0.66817627  1
  Cr  Cr53  1  0.83550529  0.83638259  0.83672035  1
" 