4357,Ni64Fe29Cr6_12,-238.66023797807, 208.185303495694,Ni64Fe29Cr6,"# generated using pymatgen
 data_Cr5Fe15Ni34
_symmetry_space_group_name_H-M   'P 1'
_cell_length_a   7.42397089
_cell_length_b   7.42397089
_cell_length_c   10.49908032
_cell_angle_alpha   90.00000000
_cell_angle_beta   90.00000000
_cell_angle_gamma   90.00000000
_symmetry_Int_Tables_number   1
_chemical_formula_structural   Cr5Fe15Ni34
_chemical_formula_sum   'Cr5 Fe15 Ni34'
_cell_volume   578.66042138
_cell_formula_units_Z   1
loop_
 _symmetry_equiv_pos_site_id
 _symmetry_equiv_pos_as_xyz
  1  'x, y, z'
loop_
 _atom_site_type_symbol
 _atom_site_label
 _atom_site_symmetry_multiplicity
 _atom_site_fract_x
 _atom_site_fract_y
 _atom_site_fract_z
 _atom_site_occupancy
  Cr  Cr0  1  1.00161431  1.00275435  1.00268759  1
  Ni  Ni1  1  0.16988066  0.16980381  0.17122533  1
  Fe  Fe2  1  0.00385530  0.00550406  0.33588527  1
  Fe  Fe3  1  1.00245104  0.33815440  0.00298224  1
  Fe  Fe4  1  0.17140107  0.50140249  0.16863779  1
  Fe  Fe5  1  1.00209065  0.33467048  0.33608919  1
  Ni  Ni6  1  1.00277317  0.66810063  1.00163719  1
  Fe  Fe7  1  0.17166505  0.83618177  0.16969721  1
  Cr  Cr8  1  0.00301882  0.66868236  0.33561979  1
  Fe  Fe9  1  0.33812655  1.00222354  0.00300591  1
  Ni  Ni10  1  0.50211957  0.16950423  0.16967592  1
  Ni  Ni11  1  0.33660455  0.00386196  0.33617610  1
  Ni  Ni12  1  0.33613402  0.33658668  1.00226236  1
  Ni  Ni13  1  0.50341983  0.50401300  0.17012791  1
  Ni  Ni14  1  0.33576600  0.33475951  0.33630791  1
  Ni  Ni15  1  0.33595536  0.66786231  1.00287319  1
  Ni  Ni16  1  0.50208562  0.83518507  0.17040739  1
  Ni  Ni17  1  0.33661668  0.67008103  0.33591897  1
  Ni  Ni18  1  0.66897211  0.00319100  1.00208603  1
  Ni  Ni19  1  0.83670357  0.17113889  0.17096755  1
  Ni  Ni20  1  0.66858153  0.00470346  0.33626081  1
  Fe  Fe21  1  0.66940803  0.33707567  0.00335155  1
  Ni  Ni22  1  0.83518831  0.50216838  0.16925417  1
  Ni  Ni23  1  0.67022017  0.33472159  0.33560896  1
  Ni  Ni24  1  0.66997644  0.66969114  0.00308885  1
  Fe  Fe25  1  0.83331619  0.83652731  0.16894796  1
  Ni  Ni26  1  0.66853224  0.66928075  0.33466979  1
  Fe  Fe27  1  0.16895867  0.16970971  0.50195502  1
  Ni  Ni28  1  1.00151945  0.00434045  0.66983914  1
  Ni  Ni29  1  0.16938789  0.17003363  0.83595090  1
  Fe  Fe30  1  0.16939786  0.50259589  0.50340153  1
  Fe  Fe31  1  1.00182166  0.33585829  0.66963397  1
  Fe  Fe32  1  0.17016042  0.50322731  0.83666349  1
  Ni  Ni33  1  0.17147006  0.83647716  0.50247961  1
  Fe  Fe34  1  0.00316519  0.67011529  0.67064981  1
  Ni  Ni35  1  0.16945207  0.83522307  0.83641130  1
  Ni  Ni36  1  0.50335107  0.16897842  0.50150810  1
  Cr  Cr37  1  0.33682784  1.00276319  0.67040390  1
  Ni  Ni38  1  0.50295048  0.17049891  0.83752249  1
  Cr  Cr39  1  0.50371428  0.50383835  0.50193133  1
  Fe  Fe40  1  0.33638853  0.33642204  0.67083211  1
  Ni  Ni41  1  0.50316439  0.50348202  0.83636338  1
  Ni  Ni42  1  0.50067934  0.83643681  0.50180947  1
  Ni  Ni43  1  0.33548819  0.66838861  0.66991160  1
  Ni  Ni44  1  0.50292038  0.83472178  0.83648952  1
  Ni  Ni45  1  0.83688030  0.17141317  0.50261353  1
  Ni  Ni46  1  0.67140185  0.00382877  0.67035558  1
  Ni  Ni47  1  0.83636575  0.17027944  0.83512188  1
  Ni  Ni48  1  0.83684184  0.50029360  0.50339198  1
  Fe  Fe49  1  0.67049569  0.33519283  0.66990593  1
  Ni  Ni50  1  0.83586865  0.50341880  0.83605554  1
  Cr  Cr51  1  0.83535873  0.83685817  0.50367541  1
  Ni  Ni52  1  0.66982363  0.66942844  0.67094437  1
  Ni  Ni53  1  0.83633329  0.83501033  0.83539051  1
" 