933,Ni64Fe7Cr28_7,-228.639057225895, 160.651872189776,Ni64Fe7Cr28,"# generated using pymatgen
 data_Cr8Fe2Ni17
_symmetry_space_group_name_H-M   'P 1'
_cell_length_a   7.47684245
_cell_length_b   7.47684245
_cell_length_c   10.57385200
_cell_angle_alpha   90.00000000
_cell_angle_beta   90.00000000
_cell_angle_gamma   90.00000000
_symmetry_Int_Tables_number   1
_chemical_formula_structural   Cr8Fe2Ni17
_chemical_formula_sum   'Cr16 Fe4 Ni34'
_cell_volume   591.11187866
_cell_formula_units_Z   2
loop_
 _symmetry_equiv_pos_site_id
 _symmetry_equiv_pos_as_xyz
  1  'x, y, z'
loop_
 _atom_site_type_symbol
 _atom_site_label
 _atom_site_symmetry_multiplicity
 _atom_site_fract_x
 _atom_site_fract_y
 _atom_site_fract_z
 _atom_site_occupancy
  Ni  Ni0  1  0.99524747  0.99855563  0.99718949  1
  Cr  Cr1  1  0.16424407  0.16649926  0.16908686  1
  Ni  Ni2  1  -0.00061494  0.99815471  0.33653696  1
  Cr  Cr3  1  0.99925332  0.33317438  0.99274574  1
  Cr  Cr4  1  0.16331302  0.50117957  0.16770220  1
  Ni  Ni5  1  -0.00048546  0.33409750  0.33829193  1
  Ni  Ni6  1  0.99662658  0.66503873  0.99843709  1
  Cr  Cr7  1  0.16295468  0.83078364  0.16721831  1
  Ni  Ni8  1  0.99839067  0.66630342  0.33536508  1
  Cr  Cr9  1  0.33197101  -0.00063296  0.99864010  1
  Cr  Cr10  1  0.50037591  0.16747868  0.16966707  1
  Ni  Ni11  1  0.33069447  0.99754599  0.33639876  1
  Cr  Cr12  1  0.33164706  0.33524139  0.99505558  1
  Ni  Ni13  1  0.49823088  0.50173109  0.16972965  1
  Ni  Ni14  1  0.33089710  0.33461343  0.33516257  1
  Ni  Ni15  1  0.33292075  0.66376546  0.99912729  1
  Ni  Ni16  1  0.49826044  0.83126479  0.16694986  1
  Ni  Ni17  1  0.33259438  0.66541674  0.33560915  1
  Ni  Ni18  1  0.67035766  0.99770505  0.99915509  1
  Cr  Cr19  1  0.83457992  0.16746242  0.16951147  1
  Cr  Cr20  1  0.66754582  0.99405363  0.33486774  1
  Cr  Cr21  1  0.66747086  0.33527308  -0.00027380  1
  Ni  Ni22  1  0.83313485  0.50170704  0.17005465  1
  Fe  Fe23  1  0.66744618  0.33477681  0.33673619  1
  Cr  Cr24  1  0.66606671  0.66594361  -0.00004835  1
  Ni  Ni25  1  0.83372370  0.83180894  0.16485018  1
  Cr  Cr26  1  0.66678842  0.66566324  0.33496828  1
  Ni  Ni27  1  0.16560823  0.16644341  0.49922486  1
  Ni  Ni28  1  0.99852674  -0.00047442  0.66457767  1
  Ni  Ni29  1  0.16336091  0.16528086  0.82727226  1
  Ni  Ni30  1  0.16603063  0.50029633  0.49962916  1
  Fe  Fe31  1  -0.00037838  0.33356590  0.66410867  1
  Ni  Ni32  1  0.16522611  0.50125382  0.82924781  1
  Fe  Fe33  1  0.16432929  0.83087914  0.50011134  1
  Ni  Ni34  1  0.99811797  0.66569922  0.66460176  1
  Cr  Cr35  1  0.16319894  0.82957760  0.83174513  1
  Cr  Cr36  1  0.50044309  0.16793321  0.50114213  1
  Ni  Ni37  1  0.32964573  -0.00053025  0.66244411  1
  Cr  Cr38  1  0.50311054  0.16603371  0.82803306  1
  Ni  Ni39  1  0.49807616  0.50036260  0.50109162  1
  Ni  Ni40  1  0.33049005  0.33406093  0.66649983  1
  Ni  Ni41  1  0.49927509  0.50019864  0.82846712  1
  Fe  Fe42  1  0.49896464  0.83121828  0.50281536  1
  Ni  Ni43  1  0.33185748  0.66286456  0.66324995  1
  Cr  Cr44  1  0.50143097  0.83099353  0.82756937  1
  Ni  Ni45  1  0.83545847  0.16549397  0.50070236  1
  Ni  Ni46  1  0.67048005  0.99791973  0.66435436  1
  Ni  Ni47  1  0.83390039  0.16463167  0.82839440  1
  Ni  Ni48  1  0.83410468  0.50079274  0.50020310  1
  Ni  Ni49  1  0.66818309  0.33530591  0.66424681  1
  Ni  Ni50  1  0.83341582  0.50117448  0.82796492  1
  Ni  Ni51  1  0.83584626  0.83201089  0.50247974  1
  Ni  Ni52  1  0.66816069  0.66473979  0.66409282  1
  Ni  Ni53  1  0.83413017  0.83229779  0.83162445  1
" 