7940,Ni64Fe30Cr5_6,-239.434833520365, 212.07920815526,Ni64Fe30Cr5,"# generated using pymatgen
 data_Cr2Fe8Ni17
_symmetry_space_group_name_H-M   'P 1'
_cell_length_a   7.41973536
_cell_length_b   7.41973536
_cell_length_c   10.49309037
_cell_angle_alpha   90.00000000
_cell_angle_beta   90.00000000
_cell_angle_gamma   90.00000000
_symmetry_Int_Tables_number   1
_chemical_formula_structural   Cr2Fe8Ni17
_chemical_formula_sum   'Cr4 Fe16 Ni34'
_cell_volume   577.67057151
_cell_formula_units_Z   2
loop_
 _symmetry_equiv_pos_site_id
 _symmetry_equiv_pos_as_xyz
  1  'x, y, z'
loop_
 _atom_site_type_symbol
 _atom_site_label
 _atom_site_symmetry_multiplicity
 _atom_site_fract_x
 _atom_site_fract_y
 _atom_site_fract_z
 _atom_site_occupancy
  Cr  Cr0  1  1.00256116  1.00219427  1.00103777  1
  Cr  Cr1  1  0.17149502  0.17021374  0.17078308  1
  Ni  Ni2  1  1.00114421  0.00327068  0.33684685  1
  Ni  Ni3  1  1.00306325  0.33970732  1.00205822  1
  Ni  Ni4  1  0.16819209  0.50470562  0.16910037  1
  Ni  Ni5  1  0.00355744  0.33683305  0.33717378  1
  Ni  Ni6  1  0.00359001  0.66803561  0.00390599  1
  Ni  Ni7  1  0.17090308  0.83483444  0.17085462  1
  Fe  Fe8  1  1.00203886  0.66825920  0.33553661  1
  Ni  Ni9  1  0.33852216  1.00178345  0.00351350  1
  Fe  Fe10  1  0.50450750  0.17052116  0.16977069  1
  Fe  Fe11  1  0.33844442  0.00358502  0.33683198  1
  Ni  Ni12  1  0.33664337  0.33836968  0.00332647  1
  Fe  Fe13  1  0.50244007  0.50298073  0.16983143  1
  Ni  Ni14  1  0.33647796  0.33851878  0.33742620  1
  Fe  Fe15  1  0.33612024  0.66998776  0.00359061  1
  Fe  Fe16  1  0.50276804  0.83606437  0.17006631  1
  Ni  Ni17  1  0.33752599  0.66823020  0.33587605  1
  Ni  Ni18  1  0.66846212  1.00230366  0.00406052  1
  Fe  Fe19  1  0.83500448  0.17113121  0.17069883  1
  Ni  Ni20  1  0.67074651  1.00222498  0.33650292  1
  Ni  Ni21  1  0.66985937  0.33733736  0.00391926  1
  Ni  Ni22  1  0.83641733  0.50313133  0.16971667  1
  Ni  Ni23  1  0.66952344  0.33669597  0.33690722  1
  Fe  Fe24  1  0.67002293  0.66902124  1.00260359  1
  Fe  Fe25  1  0.83676123  0.83542623  0.17132349  1
  Ni  Ni26  1  0.66906721  0.67064262  0.33647771  1
  Ni  Ni27  1  0.17114820  0.17153318  0.50313779  1
  Ni  Ni28  1  1.00249212  0.00380339  0.67125211  1
  Ni  Ni29  1  0.16955933  0.16931623  0.83577313  1
  Ni  Ni30  1  0.16825617  0.50060398  0.50299106  1
  Ni  Ni31  1  0.00487452  0.33661107  0.67032782  1
  Fe  Fe32  1  0.17008675  0.50302392  0.83659780  1
  Cr  Cr33  1  0.16976914  0.83734748  0.50267333  1
  Ni  Ni34  1  1.00163432  0.66914547  0.67007114  1
  Ni  Ni35  1  0.17083267  0.83733104  0.83612111  1
  Ni  Ni36  1  0.50259452  0.16912375  0.50265109  1
  Ni  Ni37  1  0.33669394  0.00379689  0.66957393  1
  Cr  Cr38  1  0.50216261  0.16920662  0.83718616  1
  Fe  Fe39  1  0.50289474  0.50336205  0.50310633  1
  Ni  Ni40  1  0.33477463  0.33708862  0.66880723  1
  Ni  Ni41  1  0.50528094  0.50453405  0.83663312  1
  Ni  Ni42  1  0.50554445  0.83816375  0.50331881  1
  Fe  Fe43  1  0.33708066  0.66994367  0.67040610  1
  Ni  Ni44  1  0.50267464  0.83585644  0.83685232  1
  Fe  Fe45  1  0.83693198  0.16927332  0.50279263  1
  Ni  Ni46  1  0.67038119  1.00055656  0.66900351  1
  Fe  Fe47  1  0.83715272  0.17051910  0.83607091  1
  Ni  Ni48  1  0.83655674  0.50355387  0.50266536  1
  Fe  Fe49  1  0.67107306  0.33733760  0.66932097  1
  Ni  Ni50  1  0.83620792  0.50325666  0.83718529  1
  Ni  Ni51  1  0.83415316  0.83527414  0.50303994  1
  Ni  Ni52  1  0.66990763  0.67106821  0.67003658  1
  Fe  Fe53  1  0.83558840  0.83552585  0.83483034  1
" 