5713,Ni64Fe30Cr5_5,-239.246706018008, 208.831279766071,Ni64Fe30Cr5,"# generated using pymatgen
 data_Cr2Fe8Ni17
_symmetry_space_group_name_H-M   'P 1'
_cell_length_a   7.42245491
_cell_length_b   7.42245491
_cell_length_c   10.49693640
_cell_angle_alpha   90.00000000
_cell_angle_beta   90.00000000
_cell_angle_gamma   90.00000000
_symmetry_Int_Tables_number   1
_chemical_formula_structural   Cr2Fe8Ni17
_chemical_formula_sum   'Cr4 Fe16 Ni34'
_cell_volume   578.30600562
_cell_formula_units_Z   2
loop_
 _symmetry_equiv_pos_site_id
 _symmetry_equiv_pos_as_xyz
  1  'x, y, z'
loop_
 _atom_site_type_symbol
 _atom_site_label
 _atom_site_symmetry_multiplicity
 _atom_site_fract_x
 _atom_site_fract_y
 _atom_site_fract_z
 _atom_site_occupancy
  Ni  Ni0  1  0.00425918  0.00420754  1.00227216  1
  Ni  Ni1  1  0.17126895  0.16792594  0.16975337  1
  Ni  Ni2  1  0.00422872  0.00359792  0.33776709  1
  Ni  Ni3  1  0.00372705  0.33680440  1.00172336  1
  Fe  Fe4  1  0.16921187  0.50332078  0.16962154  1
  Ni  Ni5  1  0.00486861  0.33630703  0.33749480  1
  Ni  Ni6  1  1.00290604  0.66799794  0.00358114  1
  Ni  Ni7  1  0.17103042  0.83718925  0.17014485  1
  Ni  Ni8  1  0.00543072  0.66910407  0.33687041  1
  Ni  Ni9  1  0.33725705  0.00344119  0.00461260  1
  Fe  Fe10  1  0.50177099  0.16971892  0.16965120  1
  Fe  Fe11  1  0.33496043  0.00304650  0.33618717  1
  Fe  Fe12  1  0.33637469  0.33614153  1.00255386  1
  Ni  Ni13  1  0.50352548  0.50233687  0.16906607  1
  Ni  Ni14  1  0.33571666  0.33623384  0.33570756  1
  Ni  Ni15  1  0.33781972  0.66955874  0.00374992  1
  Fe  Fe16  1  0.50068987  0.83670971  0.16806513  1
  Ni  Ni17  1  0.33511869  0.66914681  0.33664198  1
  Ni  Ni18  1  0.66749254  1.00262015  1.00066031  1
  Cr  Cr19  1  0.83674249  0.17173200  0.17035547  1
  Ni  Ni20  1  0.66838760  0.00419710  0.33820929  1
  Ni  Ni21  1  0.66904912  0.33736690  1.00289710  1
  Ni  Ni22  1  0.83559948  0.50258090  0.16890321  1
  Fe  Fe23  1  0.66937799  0.33615682  0.33701953  1
  Ni  Ni24  1  0.66828475  0.66902468  1.00205734  1
  Cr  Cr25  1  0.83858192  0.83468684  0.16826842  1
  Cr  Cr26  1  0.66896071  0.66968485  0.33617606  1
  Ni  Ni27  1  0.17019672  0.16799097  0.50296024  1
  Ni  Ni28  1  1.00278347  0.00386761  0.66897260  1
  Ni  Ni29  1  0.16980271  0.17041594  0.83630144  1
  Fe  Fe30  1  0.16957532  0.50242678  0.50318223  1
  Ni  Ni31  1  0.00405698  0.33576412  0.66979754  1
  Ni  Ni32  1  0.16869060  0.50151004  0.83629813  1
  Ni  Ni33  1  0.16911764  0.83710236  0.50223368  1
  Ni  Ni34  1  1.00171403  0.66938042  0.66855847  1
  Cr  Cr35  1  0.16942283  0.83688675  0.83680302  1
  Ni  Ni36  1  0.50289640  0.16982092  0.50199793  1
  Fe  Fe37  1  0.33658995  0.00464850  0.66936564  1
  Ni  Ni38  1  0.50308354  0.16970028  0.83708962  1
  Fe  Fe39  1  0.50151314  0.50163474  0.50381016  1
  Ni  Ni40  1  0.33642954  0.33594923  0.67065169  1
  Ni  Ni41  1  0.50478874  0.50282520  0.83560085  1
  Fe  Fe42  1  0.50219120  0.83730787  0.50388053  1
  Fe  Fe43  1  0.33666226  0.66820209  0.66933990  1
  Ni  Ni44  1  0.50468253  0.83648812  0.83666251  1
  Fe  Fe45  1  0.83709053  0.16942921  0.50266877  1
  Fe  Fe46  1  0.66977519  0.00357768  0.66971756  1
  Fe  Fe47  1  0.83623078  0.17047761  0.83680742  1
  Ni  Ni48  1  0.83640482  0.50267638  0.50280910  1
  Ni  Ni49  1  0.66852430  0.33701971  0.66890127  1
  Ni  Ni50  1  0.83553110  0.50310989  0.83729807  1
  Fe  Fe51  1  0.83788525  0.83767352  0.50352735  1
  Ni  Ni52  1  0.66930754  0.66968230  0.67032667  1
  Fe  Fe53  1  0.83462205  0.83580341  0.83663750  1
" 