2230,Ni64Fe34Cr1_10,-241.175269569266, 218.811914590617,Ni64Fe34Cr1,"# generated using pymatgen
 data_CrFe9Ni17
_symmetry_space_group_name_H-M   'P 1'
_cell_length_a   7.41442837
_cell_length_b   7.41442837
_cell_length_c   10.48558516
_cell_angle_alpha   90.00000000
_cell_angle_beta   90.00000000
_cell_angle_gamma   90.00000000
_symmetry_Int_Tables_number   1
_chemical_formula_structural   CrFe9Ni17
_chemical_formula_sum   'Cr2 Fe18 Ni34'
_cell_volume   576.43191642
_cell_formula_units_Z   2
loop_
 _symmetry_equiv_pos_site_id
 _symmetry_equiv_pos_as_xyz
  1  'x, y, z'
loop_
 _atom_site_type_symbol
 _atom_site_label
 _atom_site_symmetry_multiplicity
 _atom_site_fract_x
 _atom_site_fract_y
 _atom_site_fract_z
 _atom_site_occupancy
  Fe  Fe0  1  1.00327910  0.00386706  1.00313081  1
  Fe  Fe1  1  0.16633211  0.17161368  0.17030112  1
  Fe  Fe2  1  1.00307197  1.00247395  0.33688873  1
  Ni  Ni3  1  1.00308315  0.33679986  0.00376849  1
  Ni  Ni4  1  0.17044027  0.50584722  0.17108850  1
  Ni  Ni5  1  1.00282755  0.33693990  0.33786891  1
  Fe  Fe6  1  0.00557597  0.66994258  1.00335256  1
  Fe  Fe7  1  0.16983423  0.83674745  0.16993771  1
  Ni  Ni8  1  1.00246418  0.66936875  0.33585846  1
  Ni  Ni9  1  0.33679022  1.00313672  1.00295840  1
  Cr  Cr10  1  0.50293274  0.17051648  0.17068954  1
  Ni  Ni11  1  0.33494367  1.00192261  0.33545842  1
  Ni  Ni12  1  0.33222177  0.33759487  1.00286887  1
  Fe  Fe13  1  0.50476844  0.50545243  0.17127006  1
  Ni  Ni14  1  0.33385949  0.33757566  0.33640600  1
  Ni  Ni15  1  0.33862512  0.67052781  0.00375530  1
  Fe  Fe16  1  0.50531196  0.83462759  0.17030372  1
  Ni  Ni17  1  0.33748020  0.67170871  0.33766804  1
  Ni  Ni18  1  0.67054682  1.00094270  1.00308332  1
  Ni  Ni19  1  0.83567665  0.16992534  0.17068948  1
  Fe  Fe20  1  0.67225140  1.00153312  0.33700655  1
  Fe  Fe21  1  0.66916718  0.33738136  1.00292516  1
  Ni  Ni22  1  0.83963859  0.50398455  0.16894274  1
  Ni  Ni23  1  0.67354617  0.34022581  0.33599224  1
  Ni  Ni24  1  0.67186629  0.67111953  1.00335854  1
  Ni  Ni25  1  0.83871636  0.83616888  0.16920906  1
  Ni  Ni26  1  0.67185186  0.67127858  0.33746606  1
  Fe  Fe27  1  0.16969055  0.16904353  0.50350128  1
  Fe  Fe28  1  1.00285190  1.00347349  0.67085308  1
  Fe  Fe29  1  0.16818157  0.17161504  0.83684537  1
  Fe  Fe30  1  0.17048357  0.50540901  0.50317928  1
  Ni  Ni31  1  1.00348881  0.33819210  0.66907643  1
  Ni  Ni32  1  0.16946180  0.50614498  0.83575144  1
  Ni  Ni33  1  0.16947697  0.83609735  0.50340287  1
  Ni  Ni34  1  1.00233321  0.66941730  0.67082749  1
  Ni  Ni35  1  0.17092895  0.83554674  0.83750022  1
  Cr  Cr36  1  0.50444377  0.17154056  0.50276194  1
  Ni  Ni37  1  0.33625349  1.00267028  0.67214642  1
  Ni  Ni38  1  0.50337835  0.16932023  0.83726548  1
  Ni  Ni39  1  0.50429499  0.50322129  0.50346857  1
  Ni  Ni40  1  0.33467646  0.33553767  0.67114455  1
  Fe  Fe41  1  0.50343087  0.50309369  0.83633496  1
  Ni  Ni42  1  0.50241168  0.83707171  0.50338540  1
  Fe  Fe43  1  0.33749167  0.66954239  0.66956609  1
  Fe  Fe44  1  0.50429138  0.83594124  0.83670483  1
  Fe  Fe45  1  0.83721343  0.16991436  0.50437324  1
  Ni  Ni46  1  0.66939600  1.00122863  0.67018651  1
  Ni  Ni47  1  0.83370842  0.17060946  0.83666485  1
  Ni  Ni48  1  0.83760021  0.50397293  0.50329989  1
  Ni  Ni49  1  0.67188198  0.33821522  0.67215617  1
  Ni  Ni50  1  0.83878509  0.50330286  0.83833634  1
  Ni  Ni51  1  0.83884170  0.83523755  0.50431174  1
  Ni  Ni52  1  0.67200160  0.67065758  0.66965620  1
  Fe  Fe53  1  0.83751364  0.83637516  0.83666807  1
" 