8702,Ni64Fe34Cr1_6,-241.412116044345, 218.120512774645,Ni64Fe34Cr1,"# generated using pymatgen
 data_CrFe9Ni17
_symmetry_space_group_name_H-M   'P 1'
_cell_length_a   7.41780101
_cell_length_b   7.41780101
_cell_length_c   10.49035479
_cell_angle_alpha   90.00000000
_cell_angle_beta   90.00000000
_cell_angle_gamma   90.00000000
_symmetry_Int_Tables_number   1
_chemical_formula_structural   CrFe9Ni17
_chemical_formula_sum   'Cr2 Fe18 Ni34'
_cell_volume   577.21888872
_cell_formula_units_Z   2
loop_
 _symmetry_equiv_pos_site_id
 _symmetry_equiv_pos_as_xyz
  1  'x, y, z'
loop_
 _atom_site_type_symbol
 _atom_site_label
 _atom_site_symmetry_multiplicity
 _atom_site_fract_x
 _atom_site_fract_y
 _atom_site_fract_z
 _atom_site_occupancy
  Ni  Ni0  1  1.00196916  0.00387027  1.00308180  1
  Fe  Fe1  1  0.16915429  0.17097219  0.17003785  1
  Ni  Ni2  1  1.00186581  0.00390574  0.33696894  1
  Ni  Ni3  1  0.00388404  0.33579888  0.00413456  1
  Ni  Ni4  1  0.16925966  0.50300248  0.16994438  1
  Ni  Ni5  1  1.00300101  0.33398554  0.33572512  1
  Ni  Ni6  1  0.00407339  0.67061771  0.00395850  1
  Fe  Fe7  1  0.16982888  0.83595208  0.17003370  1
  Fe  Fe8  1  0.00443688  0.67071918  0.33525583  1
  Fe  Fe9  1  0.33675366  0.00415676  1.00210746  1
  Ni  Ni10  1  0.50262093  0.16865420  0.17031272  1
  Fe  Fe11  1  0.33454865  0.00444873  0.33675367  1
  Ni  Ni12  1  0.33500832  0.33656749  1.00243716  1
  Cr  Cr13  1  0.50252212  0.50077339  0.16752820  1
  Ni  Ni14  1  0.33574327  0.33664620  0.33731314  1
  Ni  Ni15  1  0.33566458  0.67078063  1.00206510  1
  Fe  Fe16  1  0.50397782  0.83646606  0.16887003  1
  Ni  Ni17  1  0.33835451  0.67166972  0.33675185  1
  Ni  Ni18  1  0.67118137  0.00339521  0.00409552  1
  Fe  Fe19  1  0.83620428  0.17112460  0.17010791  1
  Fe  Fe20  1  0.66978703  0.00374346  0.33630412  1
  Ni  Ni21  1  0.67120445  0.33471411  1.00247858  1
  Ni  Ni22  1  0.83814042  0.50509951  0.17011762  1
  Fe  Fe23  1  0.67038962  0.33582170  0.33716538  1
  Ni  Ni24  1  0.67036915  0.67183774  1.00256694  1
  Ni  Ni25  1  0.83743162  0.83791871  0.17015505  1
  Fe  Fe26  1  0.67172739  0.66997231  0.33738212  1
  Ni  Ni27  1  0.16923081  0.16856732  0.50320407  1
  Fe  Fe28  1  0.00334786  0.00337005  0.66974423  1
  Ni  Ni29  1  0.17019537  0.17053347  0.83677298  1
  Cr  Cr30  1  0.17164061  0.50324421  0.50379856  1
  Ni  Ni31  1  1.00321859  0.33375028  0.67046545  1
  Ni  Ni32  1  0.17077459  0.50276005  0.83725371  1
  Ni  Ni33  1  0.16785857  0.83829917  0.50360090  1
  Fe  Fe34  1  1.00187925  0.66955900  0.67179571  1
  Ni  Ni35  1  0.16818863  0.83689327  0.83670311  1
  Fe  Fe36  1  0.50281013  0.16978512  0.50380433  1
  Fe  Fe37  1  0.33757446  0.00411070  0.67116901  1
  Ni  Ni38  1  0.50402313  0.17101598  0.83598658  1
  Ni  Ni39  1  0.50475068  0.50237073  0.50309713  1
  Ni  Ni40  1  0.33655352  0.33715669  0.67014182  1
  Ni  Ni41  1  0.50320696  0.50222015  0.83725320  1
  Fe  Fe42  1  0.50229750  0.83647969  0.50435053  1
  Ni  Ni43  1  0.33790218  0.67127429  0.67124871  1
  Ni  Ni44  1  0.50508237  0.83718986  0.83759781  1
  Ni  Ni45  1  0.83657670  0.16813239  0.50286700  1
  Ni  Ni46  1  0.67120958  1.00253342  0.66955026  1
  Fe  Fe47  1  0.83640106  0.16932412  0.83591947  1
  Fe  Fe48  1  0.83709665  0.50219321  0.50317040  1
  Ni  Ni49  1  0.67029120  0.33617804  0.66893081  1
  Fe  Fe50  1  0.83639006  0.50346436  0.83776067  1
  Ni  Ni51  1  0.83695693  0.83766081  0.50310334  1
  Ni  Ni52  1  0.66815416  0.67103322  0.66962817  1
  Ni  Ni53  1  0.83653852  0.83753813  0.83668113  1
" 