4903,Ni64Fe7Cr28_0,-228.408024050551, 158.110056065978,Ni64Fe7Cr28,"# generated using pymatgen
 data_Cr8Fe2Ni17
_symmetry_space_group_name_H-M   'P 1'
_cell_length_a   7.47658475
_cell_length_b   7.47658475
_cell_length_c   10.57348755
_cell_angle_alpha   90.00000000
_cell_angle_beta   90.00000000
_cell_angle_gamma   90.00000000
_symmetry_Int_Tables_number   1
_chemical_formula_structural   Cr8Fe2Ni17
_chemical_formula_sum   'Cr16 Fe4 Ni34'
_cell_volume   591.05075869
_cell_formula_units_Z   2
loop_
 _symmetry_equiv_pos_site_id
 _symmetry_equiv_pos_as_xyz
  1  'x, y, z'
loop_
 _atom_site_type_symbol
 _atom_site_label
 _atom_site_symmetry_multiplicity
 _atom_site_fract_x
 _atom_site_fract_y
 _atom_site_fract_z
 _atom_site_occupancy
  Ni  Ni0  1  0.99877525  0.00033371  0.00181518  1
  Ni  Ni1  1  0.16138724  0.16657298  0.16687072  1
  Ni  Ni2  1  0.99817873  0.00190802  0.33195049  1
  Ni  Ni3  1  0.99649765  0.33213607  0.00107221  1
  Ni  Ni4  1  0.16642538  0.49811885  0.16763602  1
  Ni  Ni5  1  -0.00046568  0.33029841  0.33130373  1
  Cr  Cr6  1  0.99907063  0.66500577  -0.00034073  1
  Ni  Ni7  1  0.16381164  0.83339052  0.16620565  1
  Cr  Cr8  1  0.00095683  0.66578618  0.33086003  1
  Cr  Cr9  1  0.33248332  0.99780194  0.99890870  1
  Cr  Cr10  1  0.50125686  0.16804772  0.16580970  1
  Cr  Cr11  1  0.33225516  0.99826943  0.33329589  1
  Cr  Cr12  1  0.33291916  0.33331634  0.99910991  1
  Ni  Ni13  1  0.50069192  0.50071656  0.16804529  1
  Ni  Ni14  1  0.33228422  0.33529874  0.33362934  1
  Cr  Cr15  1  0.33346317  0.66695428  -0.00000847  1
  Fe  Fe16  1  0.50174175  0.82967508  0.16720624  1
  Ni  Ni17  1  0.33440556  0.66433514  0.33265772  1
  Fe  Fe18  1  0.66749553  0.99919798  0.00021198  1
  Ni  Ni19  1  0.83476524  0.16521966  0.16605725  1
  Ni  Ni20  1  0.66780154  -0.00021126  0.33234253  1
  Ni  Ni21  1  0.66833902  0.33439924  0.99873878  1
  Ni  Ni22  1  0.83096460  0.49824426  0.16489187  1
  Ni  Ni23  1  0.66627113  0.33257920  0.33289633  1
  Ni  Ni24  1  0.66592218  0.66452919  -0.00026672  1
  Ni  Ni25  1  0.83219707  0.83461465  0.16607150  1
  Ni  Ni26  1  0.66278118  0.66570916  0.33108624  1
  Fe  Fe27  1  0.16666558  0.16604168  0.49908464  1
  Ni  Ni28  1  0.00320684  0.99870134  0.66432166  1
  Cr  Cr29  1  0.16671017  0.16547923  0.83193258  1
  Ni  Ni30  1  0.17087145  0.49877741  0.49859306  1
  Cr  Cr31  1  0.00048777  0.33271488  0.66538242  1
  Ni  Ni32  1  0.16806621  0.50030432  0.83188238  1
  Ni  Ni33  1  0.16812794  0.83333782  0.50133564  1
  Cr  Cr34  1  0.00130092  0.66656512  0.66756344  1
  Ni  Ni35  1  0.16726997  0.83218681  0.83057493  1
  Ni  Ni36  1  0.49917188  0.16725725  0.49963602  1
  Ni  Ni37  1  0.33190733  0.99793557  0.66601381  1
  Ni  Ni38  1  0.49947662  0.16697544  0.83233107  1
  Ni  Ni39  1  0.49615930  0.49953944  0.49871983  1
  Ni  Ni40  1  0.33374097  0.33330410  0.66560568  1
  Ni  Ni41  1  0.49943472  0.50018421  0.83134752  1
  Ni  Ni42  1  0.49763065  0.83128250  0.49944987  1
  Ni  Ni43  1  0.33389141  0.66684634  0.66633601  1
  Ni  Ni44  1  0.49883755  0.83092022  0.83196035  1
  Ni  Ni45  1  0.83311823  0.16450532  0.49646417  1
  Cr  Cr46  1  0.66313367  0.99934783  0.66508063  1
  Cr  Cr47  1  0.83231511  0.16584829  0.83559093  1
  Cr  Cr48  1  0.83087813  0.49837504  0.49846787  1
  Cr  Cr49  1  0.66335121  0.33382278  0.66614925  1
  Fe  Fe50  1  0.83049929  0.49975051  0.83484202  1
  Cr  Cr51  1  0.83232021  0.83532874  0.49900425  1
  Ni  Ni52  1  0.66171462  0.66549412  0.66726256  1
  Cr  Cr53  1  0.83259476  0.83248464  0.83256879  1
" 