4887,Ni64Fe29Cr6_13,-238.456989112542, 207.365980882311,Ni64Fe29Cr6,"# generated using pymatgen
 data_Cr5Fe15Ni34
_symmetry_space_group_name_H-M   'P 1'
_cell_length_a   7.42011681
_cell_length_b   7.42011681
_cell_length_c   10.49362983
_cell_angle_alpha   90.00000000
_cell_angle_beta   90.00000000
_cell_angle_gamma   90.00000000
_symmetry_Int_Tables_number   1
_chemical_formula_structural   Cr5Fe15Ni34
_chemical_formula_sum   'Cr5 Fe15 Ni34'
_cell_volume   577.75967270
_cell_formula_units_Z   1
loop_
 _symmetry_equiv_pos_site_id
 _symmetry_equiv_pos_as_xyz
  1  'x, y, z'
loop_
 _atom_site_type_symbol
 _atom_site_label
 _atom_site_symmetry_multiplicity
 _atom_site_fract_x
 _atom_site_fract_y
 _atom_site_fract_z
 _atom_site_occupancy
  Cr  Cr0  1  0.00379715  0.00344299  1.00179564  1
  Ni  Ni1  1  0.17222161  0.17236613  0.16864820  1
  Cr  Cr2  1  0.00372522  0.00414351  0.33532299  1
  Ni  Ni3  1  1.00141785  0.33677878  0.00380210  1
  Ni  Ni4  1  0.16830170  0.50301009  0.16885984  1
  Fe  Fe5  1  1.00290843  0.34036750  0.33546141  1
  Fe  Fe6  1  0.00340282  0.66703721  1.00158422  1
  Fe  Fe7  1  0.17272757  0.83410671  0.16973967  1
  Ni  Ni8  1  1.00301562  0.67002019  0.33662979  1
  Ni  Ni9  1  0.33764344  1.00172398  0.00481214  1
  Ni  Ni10  1  0.50333435  0.16778692  0.16969843  1
  Fe  Fe11  1  0.33801145  1.00033872  0.33574910  1
  Fe  Fe12  1  0.33660951  0.33534666  1.00310255  1
  Fe  Fe13  1  0.50389969  0.50452968  0.16920272  1
  Cr  Cr14  1  0.33845872  0.33766246  0.33677701  1
  Ni  Ni15  1  0.33736872  0.66936100  0.00390810  1
  Ni  Ni16  1  0.50216396  0.83789765  0.16977060  1
  Ni  Ni17  1  0.33742199  0.66988163  0.33691828  1
  Ni  Ni18  1  0.66805432  0.00552798  1.00161393  1
  Fe  Fe19  1  0.83479806  0.17244133  0.16920104  1
  Fe  Fe20  1  0.66758355  1.00165235  0.33699102  1
  Ni  Ni21  1  0.66979679  0.33736858  0.00505731  1
  Ni  Ni22  1  0.83850989  0.50210493  0.17022098  1
  Fe  Fe23  1  0.67205994  0.33817783  0.33650694  1
  Fe  Fe24  1  0.66894385  0.66945262  1.00148250  1
  Cr  Cr25  1  0.83296537  0.83353609  0.16824800  1
  Ni  Ni26  1  0.66921963  0.66813937  0.33718691  1
  Fe  Fe27  1  0.16820043  0.17103433  0.50392342  1
  Ni  Ni28  1  1.00158055  0.00339678  0.67063124  1
  Fe  Fe29  1  0.16992634  0.17087581  0.83726424  1
  Ni  Ni30  1  0.16929623  0.50388464  0.50446075  1
  Fe  Fe31  1  1.00293748  0.33792324  0.67066471  1
  Ni  Ni32  1  0.17006371  0.50339451  0.83618588  1
  Ni  Ni33  1  0.17008455  0.83445606  0.50101055  1
  Ni  Ni34  1  1.00287481  0.67223483  0.66985003  1
  Ni  Ni35  1  0.17052921  0.83358169  0.83775313  1
  Fe  Fe36  1  0.50502431  0.17051937  0.50401772  1
  Cr  Cr37  1  0.33389663  1.00200464  0.66941922  1
  Ni  Ni38  1  0.50403218  0.17008945  0.83741261  1
  Ni  Ni39  1  0.50314619  0.50422830  0.50381297  1
  Ni  Ni40  1  0.33859123  0.33811304  0.67143841  1
  Ni  Ni41  1  0.50228046  0.50234093  0.83762905  1
  Ni  Ni42  1  0.50387441  0.83592631  0.50217261  1
  Ni  Ni43  1  0.33719953  0.66781720  0.66872781  1
  Ni  Ni44  1  0.50321556  0.83657263  0.83751494  1
  Ni  Ni45  1  0.83578193  0.17065332  0.50256814  1
  Fe  Fe46  1  0.67031879  1.00253345  0.67073234  1
  Ni  Ni47  1  0.83428035  0.17091947  0.83663417  1
  Ni  Ni48  1  0.83777736  0.50313332  0.50283928  1
  Ni  Ni49  1  0.66950944  0.33767288  0.66909757  1
  Ni  Ni50  1  0.83720036  0.50249042  0.83644788  1
  Ni  Ni51  1  0.83549643  0.83695853  0.50482337  1
  Ni  Ni52  1  0.66970262  0.66730729  0.67068281  1
  Ni  Ni53  1  0.83558748  0.83650441  0.83476350  1
" 