7229,Ni64Fe30Cr5_17,-239.541393768276, 213.253931582589,Ni64Fe30Cr5,"# generated using pymatgen
 data_Cr2Fe8Ni17
_symmetry_space_group_name_H-M   'P 1'
_cell_length_a   7.42023586
_cell_length_b   7.42023586
_cell_length_c   10.49379819
_cell_angle_alpha   90.00000000
_cell_angle_beta   90.00000000
_cell_angle_gamma   90.00000000
_symmetry_Int_Tables_number   1
_chemical_formula_structural   Cr2Fe8Ni17
_chemical_formula_sum   'Cr4 Fe16 Ni34'
_cell_volume   577.78748056
_cell_formula_units_Z   2
loop_
 _symmetry_equiv_pos_site_id
 _symmetry_equiv_pos_as_xyz
  1  'x, y, z'
loop_
 _atom_site_type_symbol
 _atom_site_label
 _atom_site_symmetry_multiplicity
 _atom_site_fract_x
 _atom_site_fract_y
 _atom_site_fract_z
 _atom_site_occupancy
  Ni  Ni0  1  1.00313842  0.00347811  1.00220327  1
  Ni  Ni1  1  0.17085762  0.16891141  0.16985737  1
  Ni  Ni2  1  0.00358689  0.00325087  0.33581782  1
  Ni  Ni3  1  1.00282500  0.33622212  1.00297785  1
  Ni  Ni4  1  0.16960309  0.50403134  0.17093628  1
  Fe  Fe5  1  0.00328161  0.33704985  0.33615701  1
  Fe  Fe6  1  0.00315590  0.67020486  1.00277234  1
  Ni  Ni7  1  0.16928631  0.83652021  0.17001361  1
  Ni  Ni8  1  0.00319605  0.66976098  0.33523816  1
  Ni  Ni9  1  0.33572451  1.00191863  0.00430704  1
  Ni  Ni10  1  0.50250812  0.17084012  0.16943255  1
  Fe  Fe11  1  0.33559019  0.00408103  0.33545075  1
  Fe  Fe12  1  0.33548037  0.33602410  0.00433051  1
  Fe  Fe13  1  0.50199373  0.50245960  0.17066397  1
  Ni  Ni14  1  0.33648156  0.33718559  0.33624957  1
  Fe  Fe15  1  0.33605335  0.67031362  1.00275020  1
  Fe  Fe16  1  0.50094947  0.83624091  0.16854182  1
  Ni  Ni17  1  0.33619186  0.66791384  0.33601838  1
  Ni  Ni18  1  0.67060110  1.00300454  0.00368033  1
  Fe  Fe19  1  0.83808249  0.17053715  0.16839874  1
  Cr  Cr20  1  0.67059263  0.00385859  0.33722433  1
  Ni  Ni21  1  0.67108182  0.33653053  0.00367990  1
  Fe  Fe22  1  0.83713746  0.50247890  0.17006756  1
  Ni  Ni23  1  0.66896200  0.33757297  0.33683666  1
  Fe  Fe24  1  0.67025250  0.67043708  1.00224429  1
  Fe  Fe25  1  0.83840631  0.83644734  0.16953297  1
  Ni  Ni26  1  0.67007387  0.66834753  0.33718933  1
  Ni  Ni27  1  0.17074619  0.16999114  0.50298341  1
  Fe  Fe28  1  0.00390528  0.00344535  0.67036035  1
  Fe  Fe29  1  0.16811679  0.16949270  0.83666763  1
  Fe  Fe30  1  0.16980874  0.50122610  0.50308989  1
  Fe  Fe31  1  1.00312107  0.33718338  0.67039567  1
  Ni  Ni32  1  0.16975389  0.50456754  0.83596521  1
  Cr  Cr33  1  0.16924611  0.83664096  0.50269843  1
  Ni  Ni34  1  1.00270750  0.66899252  0.67107513  1
  Ni  Ni35  1  0.16949738  0.83598810  0.83688364  1
  Ni  Ni36  1  0.50171246  0.17270723  0.50270987  1
  Ni  Ni37  1  0.33502200  0.00334428  0.66929809  1
  Cr  Cr38  1  0.50327785  0.17109023  0.83702138  1
  Ni  Ni39  1  0.50465691  0.50197060  0.50294301  1
  Ni  Ni40  1  0.33568219  0.33744444  0.66968474  1
  Ni  Ni41  1  0.50349813  0.50431992  0.83681121  1
  Fe  Fe42  1  0.50387262  0.83491589  0.50384314  1
  Ni  Ni43  1  0.33649450  0.66867359  0.67106997  1
  Ni  Ni44  1  0.50184996  0.83432815  0.83693726  1
  Ni  Ni45  1  0.83700589  0.17159542  0.50256063  1
  Cr  Cr46  1  0.67066897  1.00255853  0.66900804  1
  Ni  Ni47  1  0.83786942  0.17056095  0.83759557  1
  Ni  Ni48  1  0.83456985  0.50359540  0.50287392  1
  Ni  Ni49  1  0.67028496  0.33856899  0.66894540  1
  Ni  Ni50  1  0.83620928  0.50325973  0.83634833  1
  Ni  Ni51  1  0.83728404  0.83427540  0.50291159  1
  Ni  Ni52  1  0.67026202  0.66833183  0.66978965  1
  Ni  Ni53  1  0.83811562  0.83564362  0.83729010  1
" 