2664,Ni64Fe29Cr6_17,-238.750431744321, 208.155587830611,Ni64Fe29Cr6,"# generated using pymatgen
 data_Cr5Fe15Ni34
_symmetry_space_group_name_H-M   'P 1'
_cell_length_a   7.42578533
_cell_length_b   7.42578533
_cell_length_c   10.50164632
_cell_angle_alpha   90.00000000
_cell_angle_beta   90.00000000
_cell_angle_gamma   90.00000000
_symmetry_Int_Tables_number   1
_chemical_formula_structural   Cr5Fe15Ni34
_chemical_formula_sum   'Cr5 Fe15 Ni34'
_cell_volume   579.08480360
_cell_formula_units_Z   1
loop_
 _symmetry_equiv_pos_site_id
 _symmetry_equiv_pos_as_xyz
  1  'x, y, z'
loop_
 _atom_site_type_symbol
 _atom_site_label
 _atom_site_symmetry_multiplicity
 _atom_site_fract_x
 _atom_site_fract_y
 _atom_site_fract_z
 _atom_site_occupancy
  Ni  Ni0  1  0.00363680  1.00254683  0.00390130  1
  Ni  Ni1  1  0.16840211  0.17017039  0.16974416  1
  Fe  Fe2  1  0.00326064  1.00257863  0.33531603  1
  Ni  Ni3  1  0.00317466  0.33584881  1.00198903  1
  Fe  Fe4  1  0.16928304  0.50185189  0.16891297  1
  Ni  Ni5  1  1.00233988  0.33466172  0.33565535  1
  Ni  Ni6  1  1.00219925  0.66987445  1.00275104  1
  Fe  Fe7  1  0.16977219  0.83483230  0.16886084  1
  Ni  Ni8  1  0.00337171  0.66887225  0.33482653  1
  Ni  Ni9  1  0.33475586  0.00441281  0.00377200  1
  Fe  Fe10  1  0.50296198  0.17048640  0.16838830  1
  Fe  Fe11  1  0.33481211  1.00240354  0.33387416  1
  Ni  Ni12  1  0.33661103  0.33528453  0.00314212  1
  Ni  Ni13  1  0.50373583  0.50525783  0.17008874  1
  Fe  Fe14  1  0.33702477  0.33597092  0.33471769  1
  Fe  Fe15  1  0.33590500  0.66845692  0.00397916  1
  Ni  Ni16  1  0.50378321  0.83630120  0.16881542  1
  Ni  Ni17  1  0.33624574  0.67018092  0.33462656  1
  Ni  Ni18  1  0.66968304  0.00353588  0.00292966  1
  Fe  Fe19  1  0.83556303  0.17078244  0.16857897  1
  Ni  Ni20  1  0.66843649  0.00483710  0.33439892  1
  Ni  Ni21  1  0.66856567  0.33699011  0.00296503  1
  Ni  Ni22  1  0.83715704  0.50340599  0.16970346  1
  Fe  Fe23  1  0.67053425  0.33823500  0.33596108  1
  Ni  Ni24  1  0.67060451  0.66823976  0.00375995  1
  Fe  Fe25  1  0.83496251  0.83555434  0.16876884  1
  Ni  Ni26  1  0.66888957  0.66934562  0.33551620  1
  Ni  Ni27  1  0.16985402  0.16954187  0.50261604  1
  Ni  Ni28  1  0.00395679  0.00383114  0.66910743  1
  Ni  Ni29  1  0.16915615  0.17105174  0.83571128  1
  Cr  Cr30  1  0.16737829  0.50122873  0.50250311  1
  Ni  Ni31  1  0.00363130  0.33436231  0.67075879  1
  Ni  Ni32  1  0.16894222  0.50080565  0.83784404  1
  Fe  Fe33  1  0.16873912  0.83751866  0.50270605  1
  Ni  Ni34  1  0.00326579  0.67048939  0.67094212  1
  Fe  Fe35  1  0.16723843  0.83640886  0.83662464  1
  Ni  Ni36  1  0.50038963  0.16752700  0.50031526  1
  Fe  Fe37  1  0.33353927  0.00503405  0.67042358  1
  Ni  Ni38  1  0.50044870  0.16929324  0.83835002  1
  Fe  Fe39  1  0.50319933  0.50079792  0.50182855  1
  Ni  Ni40  1  0.33625824  0.33513268  0.66971805  1
  Ni  Ni41  1  0.50109309  0.50316084  0.83667174  1
  Cr  Cr42  1  0.50186433  0.83543213  0.50453937  1
  Ni  Ni43  1  0.33466392  0.66801783  0.67073988  1
  Cr  Cr44  1  0.50475776  0.83634218  0.83652354  1
  Ni  Ni45  1  0.83813539  0.17016872  0.50072163  1
  Fe  Fe46  1  0.67201990  0.00512946  0.67038645  1
  Ni  Ni47  1  0.83859503  0.16800465  0.83804263  1
  Ni  Ni48  1  0.83763669  0.50250368  0.50206422  1
  Cr  Cr49  1  0.66969983  0.33556401  0.66939957  1
  Ni  Ni50  1  0.83815590  0.50436306  0.83647631  1
  Cr  Cr51  1  0.83544392  0.83411499  0.50258456  1
  Ni  Ni52  1  0.67005814  0.66737153  0.66966007  1
  Ni  Ni53  1  0.83623570  0.83591387  0.83682634  1
" 