8109,Ni64Cr36_2,-213.953499660734, 140.210809282108,Ni64Cr36,"# generated using pymatgen
 data_Cr17Ni10
_symmetry_space_group_name_H-M   'P 1'
_cell_length_a   7.54926781
_cell_length_b   7.54926781
_cell_length_c   10.67627692
_cell_angle_alpha   90.00000000
_cell_angle_beta   90.00000000
_cell_angle_gamma   90.00000000
_symmetry_Int_Tables_number   1
_chemical_formula_structural   Cr17Ni10
_chemical_formula_sum   'Cr34 Ni20'
_cell_volume   608.45644237
_cell_formula_units_Z   2
loop_
 _symmetry_equiv_pos_site_id
 _symmetry_equiv_pos_as_xyz
  1  'x, y, z'
loop_
 _atom_site_type_symbol
 _atom_site_label
 _atom_site_symmetry_multiplicity
 _atom_site_fract_x
 _atom_site_fract_y
 _atom_site_fract_z
 _atom_site_occupancy
  Cr  Cr0  1  -0.00458697  -0.00341070  0.99444789  1
  Cr  Cr1  1  0.16367652  0.15947541  0.16437188  1
  Ni  Ni2  1  -0.00533810  0.99354103  0.32660168  1
  Cr  Cr3  1  0.99388378  0.32774906  -0.00420848  1
  Ni  Ni4  1  0.15993250  0.49670048  0.16416395  1
  Cr  Cr5  1  -0.00475672  0.32491652  0.32745141  1
  Ni  Ni6  1  -0.00452982  0.66330689  -0.00413344  1
  Cr  Cr7  1  0.15846406  0.82605177  0.16173084  1
  Ni  Ni8  1  0.99445135  0.66087123  0.32579153  1
  Ni  Ni9  1  0.33022817  0.99285656  0.99159242  1
  Cr  Cr10  1  0.49631074  0.16173463  0.15779718  1
  Cr  Cr11  1  0.32835019  -0.00533604  0.33037622  1
  Cr  Cr12  1  0.32534284  0.32810337  -0.00197688  1
  Cr  Cr13  1  0.49176304  0.49266616  0.16256327  1
  Ni  Ni14  1  0.32495346  0.32986588  0.32805108  1
  Cr  Cr15  1  0.32644261  0.66282551  0.99363296  1
  Cr  Cr16  1  0.49403113  0.82976790  0.16079026  1
  Ni  Ni17  1  0.32455621  0.66018640  0.32805752  1
  Ni  Ni18  1  0.66212682  -0.00412818  -0.00511676  1
  Ni  Ni19  1  0.82816552  0.15794983  0.15904120  1
  Cr  Cr20  1  0.66320684  0.99375390  0.32609127  1
  Ni  Ni21  1  0.66422008  0.32394584  -0.00524308  1
  Cr  Cr22  1  0.82870798  0.49787378  0.15996124  1
  Cr  Cr23  1  0.66239699  0.32685801  0.32669700  1
  Cr  Cr24  1  0.65947881  0.66365494  0.99394222  1
  Ni  Ni25  1  0.82968125  0.83046936  0.16135953  1
  Cr  Cr26  1  0.65830327  0.66311055  0.33100641  1
  Ni  Ni27  1  0.16317029  0.16092544  0.49423429  1
  Cr  Cr28  1  -0.00275432  -0.00390112  0.66166499  1
  Cr  Cr29  1  0.16413981  0.15949232  0.82484220  1
  Cr  Cr30  1  0.16062263  0.49487877  0.49258353  1
  Cr  Cr31  1  0.99444336  0.32602080  0.66071282  1
  Cr  Cr32  1  0.16020957  0.49682795  0.82945917  1
  Cr  Cr33  1  0.16036916  0.82985856  0.49309988  1
  Cr  Cr34  1  -0.00488042  0.66091148  0.66310972  1
  Ni  Ni35  1  0.16454218  0.83035846  0.82963935  1
  Cr  Cr36  1  0.49211750  0.16175123  0.49607536  1
  Ni  Ni37  1  0.32830058  -0.00478143  0.66139464  1
  Cr  Cr38  1  0.49580530  0.16149548  0.82917894  1
  Cr  Cr39  1  0.49405975  0.49214990  0.49448727  1
  Ni  Ni40  1  0.32833113  0.32556407  0.65925442  1
  Cr  Cr41  1  0.49549745  0.49079654  0.82700357  1
  Ni  Ni42  1  0.49061432  0.82810196  0.49445945  1
  Cr  Cr43  1  0.32976767  0.66511245  0.66427912  1
  Ni  Ni44  1  0.49286071  0.83215363  0.82873584  1
  Cr  Cr45  1  0.82863066  0.16016768  0.49546021  1
  Cr  Cr46  1  0.65907296  0.99207670  0.66128487  1
  Ni  Ni47  1  0.82497338  0.16114826  0.82886025  1
  Ni  Ni48  1  0.82831901  0.49359297  0.49485464  1
  Ni  Ni49  1  0.66154141  0.32642873  0.66114997  1
  Cr  Cr50  1  0.82613546  0.49319508  0.82687911  1
  Cr  Cr51  1  0.83077045  0.82553694  0.49017356  1
  Cr  Cr52  1  0.65937135  0.66169699  0.65759626  1
  Cr  Cr53  1  0.83044513  0.82901908  0.83062522  1
" 