6456,Ni64Fe7Cr28_2,-228.44281731641, 156.182738301255,Ni64Fe7Cr28,"# generated using pymatgen
 data_Cr8Fe2Ni17
_symmetry_space_group_name_H-M   'P 1'
_cell_length_a   7.47459439
_cell_length_b   7.47459439
_cell_length_c   10.57067276
_cell_angle_alpha   90.00000000
_cell_angle_beta   90.00000000
_cell_angle_gamma   90.00000000
_symmetry_Int_Tables_number   1
_chemical_formula_structural   Cr8Fe2Ni17
_chemical_formula_sum   'Cr16 Fe4 Ni34'
_cell_volume   590.57884986
_cell_formula_units_Z   2
loop_
 _symmetry_equiv_pos_site_id
 _symmetry_equiv_pos_as_xyz
  1  'x, y, z'
loop_
 _atom_site_type_symbol
 _atom_site_label
 _atom_site_symmetry_multiplicity
 _atom_site_fract_x
 _atom_site_fract_y
 _atom_site_fract_z
 _atom_site_occupancy
  Ni  Ni0  1  0.00082595  0.99749938  0.00249214  1
  Ni  Ni1  1  0.16156469  0.16585046  0.16544740  1
  Ni  Ni2  1  0.99904471  0.00226020  0.33224774  1
  Fe  Fe3  1  -0.00016711  0.33247759  0.00317908  1
  Ni  Ni4  1  0.16520862  0.50035620  0.16518979  1
  Ni  Ni5  1  0.99681527  0.32871886  0.33007281  1
  Ni  Ni6  1  0.00179906  0.66855768  0.00167922  1
  Ni  Ni7  1  0.16661035  0.83229660  0.16442952  1
  Cr  Cr8  1  -0.00000730  0.66863271  0.33071252  1
  Ni  Ni9  1  0.33169882  0.99644249  0.99887338  1
  Cr  Cr10  1  0.50089908  0.16319041  0.16573633  1
  Cr  Cr11  1  0.32922305  0.99741573  0.33357188  1
  Cr  Cr12  1  0.33346726  0.33299766  0.00044905  1
  Ni  Ni13  1  0.49927137  0.50320459  0.16887237  1
  Cr  Cr14  1  0.33248842  0.33346204  0.33267731  1
  Ni  Ni15  1  0.33146613  0.66873816  0.00067852  1
  Ni  Ni16  1  0.49951055  0.83062920  0.16586919  1
  Ni  Ni17  1  0.33628004  0.66730710  0.33151241  1
  Ni  Ni18  1  0.66596707  0.99894602  0.00055013  1
  Ni  Ni19  1  0.83541273  0.16567246  0.16741336  1
  Fe  Fe20  1  0.66808378  0.99904109  0.33252483  1
  Cr  Cr21  1  0.66592177  0.33297970  0.99895047  1
  Ni  Ni22  1  0.83401065  0.49841891  0.16703874  1
  Ni  Ni23  1  0.66812609  0.33407892  0.33307855  1
  Cr  Cr24  1  0.66530602  0.66658678  0.00047609  1
  Ni  Ni25  1  0.83238112  0.83439854  0.16637188  1
  Ni  Ni26  1  0.66309690  0.66489107  0.33040468  1
  Ni  Ni27  1  0.16409105  0.16519476  0.50123544  1
  Ni  Ni28  1  0.00175124  -0.00046611  0.66397166  1
  Cr  Cr29  1  0.16728319  0.16418677  0.83259763  1
  Cr  Cr30  1  0.16732942  0.49953163  0.50150126  1
  Ni  Ni31  1  0.99925175  0.33052880  0.66474028  1
  Cr  Cr32  1  0.16652036  0.50199291  0.83179562  1
  Ni  Ni33  1  0.16933435  0.83464602  0.50209858  1
  Ni  Ni34  1  0.00289551  0.66844518  0.66672142  1
  Ni  Ni35  1  0.16888631  0.83225568  0.83203488  1
  Fe  Fe36  1  0.50051578  0.16529167  0.50190637  1
  Ni  Ni37  1  0.33280748  0.99904087  0.66610250  1
  Ni  Ni38  1  0.49972424  0.16396096  0.83025185  1
  Fe  Fe39  1  0.49915932  0.49999933  0.49932229  1
  Ni  Ni40  1  0.33559536  0.33151396  0.66539443  1
  Ni  Ni41  1  0.49726531  0.49958340  0.83013220  1
  Ni  Ni42  1  0.49759552  0.83298083  0.49928961  1
  Ni  Ni43  1  0.33267247  0.66795499  0.66628408  1
  Ni  Ni44  1  0.49601046  0.83493959  0.83335918  1
  Ni  Ni45  1  0.83293250  0.16668575  0.49944824  1
  Ni  Ni46  1  0.66394145  0.00258703  0.66542456  1
  Cr  Cr47  1  0.83160978  0.16505270  0.83212176  1
  Cr  Cr48  1  0.83237977  0.49636913  0.50029111  1
  Ni  Ni49  1  0.66361790  0.33043115  0.66563238  1
  Cr  Cr50  1  0.83494576  0.49863728  0.83121030  1
  Cr  Cr51  1  0.83202681  0.83582653  0.49973950  1
  Cr  Cr52  1  0.66411207  0.66576949  0.66744850  1
  Cr  Cr53  1  0.83417901  0.83474843  0.83218427  1
" 