1874,Ni64Cr36_14,-213.702027787991, 130.225803638722,Ni64Cr36,"# generated using pymatgen
 data_Cr17Ni10
_symmetry_space_group_name_H-M   'P 1'
_cell_length_a   7.54596066
_cell_length_b   7.54596066
_cell_length_c   10.67159991
_cell_angle_alpha   90.00000000
_cell_angle_beta   90.00000000
_cell_angle_gamma   90.00000000
_symmetry_Int_Tables_number   1
_chemical_formula_structural   Cr17Ni10
_chemical_formula_sum   'Cr34 Ni20'
_cell_volume   607.65714370
_cell_formula_units_Z   2
loop_
 _symmetry_equiv_pos_site_id
 _symmetry_equiv_pos_as_xyz
  1  'x, y, z'
loop_
 _atom_site_type_symbol
 _atom_site_label
 _atom_site_symmetry_multiplicity
 _atom_site_fract_x
 _atom_site_fract_y
 _atom_site_fract_z
 _atom_site_occupancy
  Cr  Cr0  1  -0.00204299  0.99476801  0.99280614  1
  Cr  Cr1  1  0.16262773  0.15903772  0.16254046  1
  Cr  Cr2  1  -0.00394106  0.99467456  0.33103756  1
  Cr  Cr3  1  -0.00369248  0.32900909  0.99238817  1
  Cr  Cr4  1  0.16157313  0.49607496  0.16110597  1
  Cr  Cr5  1  -0.00362798  0.32873192  0.33105213  1
  Ni  Ni6  1  0.99343985  0.65998189  0.99401177  1
  Cr  Cr7  1  0.16265567  0.82925608  0.16016502  1
  Cr  Cr8  1  0.99359316  0.66103355  0.32878367  1
  Ni  Ni9  1  0.33112012  -0.00412099  0.99401723  1
  Ni  Ni10  1  0.49332271  0.15778565  0.16032900  1
  Ni  Ni11  1  0.33129245  -0.00429438  0.32885310  1
  Cr  Cr12  1  0.32997787  0.32446763  0.99439111  1
  Cr  Cr13  1  0.49571919  0.49296457  0.16099550  1
  Cr  Cr14  1  0.32874857  0.32449115  0.32845049  1
  Cr  Cr15  1  0.32890740  0.66404836  -0.00453876  1
  Ni  Ni16  1  0.49280702  0.83260357  0.16157008  1
  Cr  Cr17  1  0.33058840  0.66415841  0.32701491  1
  Cr  Cr18  1  0.65623361  -0.00435812  0.99407877  1
  Cr  Cr19  1  0.82475927  0.16155354  0.16017869  1
  Cr  Cr20  1  0.65763439  0.99349563  0.32939085  1
  Ni  Ni21  1  0.65957952  0.32714374  0.99376942  1
  Cr  Cr22  1  0.82702997  0.49376839  0.15969114  1
  Cr  Cr23  1  0.65943487  0.32705912  0.32780750  1
  Cr  Cr24  1  0.66008892  0.66211478  0.99308014  1
  Cr  Cr25  1  0.82813567  0.82932544  0.16077577  1
  Cr  Cr26  1  0.66070328  0.66359191  0.33108529  1
  Ni  Ni27  1  0.16603074  0.16091466  0.49719458  1
  Cr  Cr28  1  -0.00317968  -0.00271659  0.66066467  1
  Ni  Ni29  1  0.16589307  0.16127749  0.82540038  1
  Cr  Cr30  1  0.16389771  0.49357335  0.49688462  1
  Ni  Ni31  1  -0.00306119  0.32834388  0.66132658  1
  Cr  Cr32  1  0.16266922  0.49494901  0.82607298  1
  Cr  Cr33  1  0.16481876  0.83014396  0.49524710  1
  Cr  Cr34  1  0.99249524  0.66048100  0.66117320  1
  Cr  Cr35  1  0.16470078  0.82970652  0.82881545  1
  Ni  Ni36  1  0.49013611  0.15860833  0.49528588  1
  Ni  Ni37  1  0.33020067  -0.00326503  0.66164901  1
  Ni  Ni38  1  0.49095897  0.15989405  0.82847828  1
  Cr  Cr39  1  0.49438678  0.49470794  0.49766096  1
  Ni  Ni40  1  0.32668240  0.32393000  0.66133642  1
  Cr  Cr41  1  0.49570078  0.49451882  0.82538383  1
  Ni  Ni42  1  0.49409088  0.83018623  0.49686032  1
  Ni  Ni43  1  0.33170618  0.66384186  0.66138601  1
  Ni  Ni44  1  0.49238393  0.83013538  0.82585965  1
  Cr  Cr45  1  0.82761668  0.16159142  0.49488491  1
  Cr  Cr46  1  0.65802407  0.99221936  0.66074976  1
  Cr  Cr47  1  0.82678890  0.16352226  0.82916601  1
  Ni  Ni48  1  0.82762976  0.49596609  0.49736821  1
  Cr  Cr49  1  0.66102479  0.32765886  0.66209666  1
  Ni  Ni50  1  0.82760214  0.49453428  0.82798454  1
  Ni  Ni51  1  0.82529585  0.82552488  0.49575102  1
  Ni  Ni52  1  0.66005969  0.66218000  0.66040444  1
  Cr  Cr53  1  0.82642186  0.82684914  0.82772672  1
" 