8643,Ni64Fe34Cr1_7,-241.413502601486, 218.798526712405,Ni64Fe34Cr1,"# generated using pymatgen
 data_CrFe9Ni17
_symmetry_space_group_name_H-M   'P 1'
_cell_length_a   7.41269919
_cell_length_b   7.41269919
_cell_length_c   10.48313972
_cell_angle_alpha   90.00000000
_cell_angle_beta   90.00000000
_cell_angle_gamma   90.00000000
_symmetry_Int_Tables_number   1
_chemical_formula_structural   CrFe9Ni17
_chemical_formula_sum   'Cr2 Fe18 Ni34'
_cell_volume   576.02870660
_cell_formula_units_Z   2
loop_
 _symmetry_equiv_pos_site_id
 _symmetry_equiv_pos_as_xyz
  1  'x, y, z'
loop_
 _atom_site_type_symbol
 _atom_site_label
 _atom_site_symmetry_multiplicity
 _atom_site_fract_x
 _atom_site_fract_y
 _atom_site_fract_z
 _atom_site_occupancy
  Ni  Ni0  1  0.00461574  1.00298162  0.00438181  1
  Ni  Ni1  1  0.17058970  0.17075831  0.17046369  1
  Fe  Fe2  1  1.00248464  0.00560772  0.33700144  1
  Ni  Ni3  1  0.00413447  0.33749292  0.00432317  1
  Fe  Fe4  1  0.17083571  0.50281988  0.16992797  1
  Fe  Fe5  1  1.00274086  0.33578743  0.33709023  1
  Ni  Ni6  1  0.00576418  0.67052387  1.00342746  1
  Fe  Fe7  1  0.17080666  0.83829923  0.16834125  1
  Cr  Cr8  1  1.00281579  0.67068755  0.33727072  1
  Ni  Ni9  1  0.33704876  0.00383168  1.00347963  1
  Ni  Ni10  1  0.50273525  0.16968989  0.16945346  1
  Fe  Fe11  1  0.33878158  0.00418970  0.33602189  1
  Fe  Fe12  1  0.33681939  0.33553256  1.00357678  1
  Fe  Fe13  1  0.50371494  0.50251939  0.17159313  1
  Ni  Ni14  1  0.33781315  0.33670938  0.33691633  1
  Fe  Fe15  1  0.33549418  0.67131598  1.00268680  1
  Ni  Ni16  1  0.50376856  0.83822623  0.17090684  1
  Fe  Fe17  1  0.34032540  0.66990269  0.33791973  1
  Ni  Ni18  1  0.66932880  0.00545693  0.00419121  1
  Fe  Fe19  1  0.83618090  0.16988046  0.17029262  1
  Ni  Ni20  1  0.66979990  1.00356187  0.33619733  1
  Ni  Ni21  1  0.66981225  0.33501508  0.00425501  1
  Ni  Ni22  1  0.83767507  0.50304946  0.17049403  1
  Ni  Ni23  1  0.66874363  0.33665316  0.33689349  1
  Cr  Cr24  1  0.67055763  0.67088181  1.00362980  1
  Ni  Ni25  1  0.83661134  0.83718403  0.16973926  1
  Ni  Ni26  1  0.66924744  0.67077910  0.33784424  1
  Fe  Fe27  1  0.17018937  0.17124986  0.50387787  1
  Ni  Ni28  1  1.00319341  1.00262326  0.66989536  1
  Ni  Ni29  1  0.17016843  0.16999412  0.83660102  1
  Ni  Ni30  1  0.17042567  0.50244492  0.50498245  1
  Ni  Ni31  1  0.00426134  0.33761343  0.66926036  1
  Fe  Fe32  1  0.17135961  0.50387596  0.83608138  1
  Fe  Fe33  1  0.17074118  0.83691517  0.50556950  1
  Ni  Ni34  1  0.00479953  0.67076169  0.67069684  1
  Ni  Ni35  1  0.16987618  0.83743500  0.83774661  1
  Ni  Ni36  1  0.50367267  0.17024121  0.50409894  1
  Fe  Fe37  1  0.33685024  0.00406213  0.67140176  1
  Ni  Ni38  1  0.50318550  0.17045422  0.83744610  1
  Ni  Ni39  1  0.50347522  0.50383361  0.50295428  1
  Ni  Ni40  1  0.33750204  0.33785012  0.67059848  1
  Ni  Ni41  1  0.50342105  0.50273083  0.83649450  1
  Ni  Ni42  1  0.50428081  0.83692229  0.50375809  1
  Ni  Ni43  1  0.33612704  0.66969102  0.66979870  1
  Ni  Ni44  1  0.50264485  0.83781119  0.83633084  1
  Ni  Ni45  1  0.83742105  0.17050453  0.50287800  1
  Ni  Ni46  1  0.67030606  0.00399718  0.67060379  1
  Fe  Fe47  1  0.83646510  0.16988343  0.83651188  1
  Ni  Ni48  1  0.83709869  0.50305028  0.50484986  1
  Ni  Ni49  1  0.66923643  0.33624103  0.66984703  1
  Fe  Fe50  1  0.83775006  0.50242215  0.83656970  1
  Ni  Ni51  1  0.83603442  0.83744360  0.50484951  1
  Fe  Fe52  1  0.67038038  0.66987762  0.66961485  1
  Fe  Fe53  1  0.83784633  0.83869083  0.83632157  1
" 