392,Ni64Fe34Cr1_8,-241.11295882562, 220.669753683862,Ni64Fe34Cr1,"# generated using pymatgen
 data_CrFe9Ni17
_symmetry_space_group_name_H-M   'P 1'
_cell_length_a   7.41142253
_cell_length_b   7.41142253
_cell_length_c   10.48133426
_cell_angle_alpha   90.00000000
_cell_angle_beta   90.00000000
_cell_angle_gamma   90.00000000
_symmetry_Int_Tables_number   1
_chemical_formula_structural   CrFe9Ni17
_chemical_formula_sum   'Cr2 Fe18 Ni34'
_cell_volume   575.73113800
_cell_formula_units_Z   2
loop_
 _symmetry_equiv_pos_site_id
 _symmetry_equiv_pos_as_xyz
  1  'x, y, z'
loop_
 _atom_site_type_symbol
 _atom_site_label
 _atom_site_symmetry_multiplicity
 _atom_site_fract_x
 _atom_site_fract_y
 _atom_site_fract_z
 _atom_site_occupancy
  Fe  Fe0  1  1.00331941  0.00425168  0.00521075  1
  Ni  Ni1  1  0.17022097  0.17164814  0.17054629  1
  Ni  Ni2  1  0.00445703  1.00340404  0.33669232  1
  Ni  Ni3  1  1.00321741  0.33724032  1.00338173  1
  Ni  Ni4  1  0.16992190  0.50364807  0.17024889  1
  Ni  Ni5  1  1.00344853  0.33743494  0.33756640  1
  Ni  Ni6  1  0.00502875  0.66924752  0.00417262  1
  Ni  Ni7  1  0.16972005  0.83596335  0.17004479  1
  Ni  Ni8  1  0.00417684  0.67041650  0.33729697  1
  Fe  Fe9  1  0.33785707  1.00320820  0.00398476  1
  Ni  Ni10  1  0.50428881  0.17032585  0.16958574  1
  Ni  Ni11  1  0.33739906  1.00342027  0.33700675  1
  Fe  Fe12  1  0.33771530  0.33796723  1.00340586  1
  Fe  Fe13  1  0.50368390  0.50374687  0.16940780  1
  Fe  Fe14  1  0.33652070  0.33605652  0.33737594  1
  Ni  Ni15  1  0.33717645  0.67140887  1.00301249  1
  Ni  Ni16  1  0.50447851  0.83760236  0.16991929  1
  Fe  Fe17  1  0.33622647  0.67115753  0.33653068  1
  Ni  Ni18  1  0.66871599  0.00475827  0.00418141  1
  Ni  Ni19  1  0.83674665  0.17011880  0.17049564  1
  Ni  Ni20  1  0.66940243  0.00415180  0.33774773  1
  Ni  Ni21  1  0.67087236  0.33644492  1.00301905  1
  Fe  Fe22  1  0.83775219  0.50351064  0.17062461  1
  Ni  Ni23  1  0.67050038  0.33659983  0.33724449  1
  Ni  Ni24  1  0.66905555  0.67005382  0.00534962  1
  Ni  Ni25  1  0.83705981  0.83730068  0.17059966  1
  Fe  Fe26  1  0.67144760  0.67144770  0.33753286  1
  Fe  Fe27  1  0.17125262  0.17071695  0.50283821  1
  Cr  Cr28  1  0.00511763  0.00424333  0.66871064  1
  Fe  Fe29  1  0.17182504  0.17136708  0.83759543  1
  Ni  Ni30  1  0.16893574  0.50390394  0.50448605  1
  Ni  Ni31  1  0.00404524  0.33910543  0.67031298  1
  Fe  Fe32  1  0.17064253  0.50337709  0.83706081  1
  Ni  Ni33  1  0.17052953  0.83513782  0.50332354  1
  Ni  Ni34  1  1.00366914  0.66774172  0.66979544  1
  Fe  Fe35  1  0.17347064  0.83651541  0.83774664  1
  Ni  Ni36  1  0.50383486  0.16981509  0.50449611  1
  Ni  Ni37  1  0.33913295  0.00406984  0.67086544  1
  Ni  Ni38  1  0.50412949  0.17083615  0.83717943  1
  Fe  Fe39  1  0.50407171  0.50440555  0.50450122  1
  Ni  Ni40  1  0.33722331  0.33617890  0.67035451  1
  Ni  Ni41  1  0.50283087  0.50327249  0.83664712  1
  Ni  Ni42  1  0.50407493  0.83856291  0.50473767  1
  Fe  Fe43  1  0.33661278  0.67033063  0.67079462  1
  Ni  Ni44  1  0.50255404  0.83715014  0.83660699  1
  Fe  Fe45  1  0.83658683  0.17101447  0.50244837  1
  Fe  Fe46  1  0.66788854  0.00450465  0.66981988  1
  Ni  Ni47  1  0.83603750  0.17280253  0.83743011  1
  Ni  Ni48  1  0.83904602  0.50415077  0.50473302  1
  Fe  Fe49  1  0.67035974  0.33710642  0.67070091  1
  Fe  Fe50  1  0.83598161  0.50205446  0.83671306  1
  Ni  Ni51  1  0.83665350  0.83569886  0.50290572  1
  Ni  Ni52  1  0.66964544  0.66964043  0.66963962  1
  Cr  Cr53  1  0.83608121  0.83640581  0.83801485  1
" 