378,Ni64Fe32Cr3_18,-240.363873841048, 212.09350160044,Ni64Fe32Cr3,"# generated using pymatgen
 data_Cr3(FeNi2)17
_symmetry_space_group_name_H-M   'P 1'
_cell_length_a   7.41929630
_cell_length_b   7.41929630
_cell_length_c   10.49246945
_cell_angle_alpha   90.00000000
_cell_angle_beta   90.00000000
_cell_angle_gamma   90.00000000
_symmetry_Int_Tables_number   1
_chemical_formula_structural   Cr3(FeNi2)17
_chemical_formula_sum   'Cr3 Fe17 Ni34'
_cell_volume   577.56802795
_cell_formula_units_Z   1
loop_
 _symmetry_equiv_pos_site_id
 _symmetry_equiv_pos_as_xyz
  1  'x, y, z'
loop_
 _atom_site_type_symbol
 _atom_site_label
 _atom_site_symmetry_multiplicity
 _atom_site_fract_x
 _atom_site_fract_y
 _atom_site_fract_z
 _atom_site_occupancy
  Fe  Fe0  1  0.00348056  1.00156775  0.00414211  1
  Ni  Ni1  1  0.17089829  0.16876315  0.17116917  1
  Ni  Ni2  1  0.00419241  0.00424057  0.33650727  1
  Cr  Cr3  1  0.00335583  0.33549661  0.00558903  1
  Ni  Ni4  1  0.17006641  0.50422673  0.17027420  1
  Ni  Ni5  1  1.00282474  0.33647324  0.33657518  1
  Fe  Fe6  1  0.00384600  0.67207717  0.00468241  1
  Ni  Ni7  1  0.16955479  0.83666685  0.16929136  1
  Ni  Ni8  1  1.00289416  0.66893830  0.33614540  1
  Ni  Ni9  1  0.33671908  1.00225395  1.00277371  1
  Ni  Ni10  1  0.50287906  0.17016528  0.16913153  1
  Ni  Ni11  1  0.33652194  1.00317640  0.33683796  1
  Fe  Fe12  1  0.33908338  0.33679283  1.00318682  1
  Ni  Ni13  1  0.50403802  0.50314599  0.16906029  1
  Fe  Fe14  1  0.33659536  0.33558981  0.33619519  1
  Ni  Ni15  1  0.33774486  0.67122883  1.00293835  1
  Ni  Ni16  1  0.50313880  0.83634333  0.17021521  1
  Fe  Fe17  1  0.33635146  0.67050737  0.33596320  1
  Fe  Fe18  1  0.66879071  1.00286114  0.00326445  1
  Ni  Ni19  1  0.83587853  0.16965444  0.17055540  1
  Ni  Ni20  1  0.66893988  0.00325341  0.33586261  1
  Ni  Ni21  1  0.66852531  0.33640910  0.00332218  1
  Ni  Ni22  1  0.83555821  0.50448667  0.17104292  1
  Ni  Ni23  1  0.67108135  0.33669562  0.33683895  1
  Ni  Ni24  1  0.66774597  0.67019455  0.00397468  1
  Ni  Ni25  1  0.83695802  0.83550823  0.16941034  1
  Ni  Ni26  1  0.67001368  0.66970668  0.33644998  1
  Ni  Ni27  1  0.17029632  0.16900933  0.50314750  1
  Fe  Fe28  1  0.00323457  1.00276426  0.66898452  1
  Ni  Ni29  1  0.17146420  0.16852731  0.83533922  1
  Fe  Fe30  1  0.16823144  0.50306483  0.50338476  1
  Ni  Ni31  1  0.00440165  0.33564640  0.66866922  1
  Fe  Fe32  1  0.17336903  0.50393364  0.83559506  1
  Ni  Ni33  1  0.16926604  0.83664068  0.50398587  1
  Ni  Ni34  1  0.00629027  0.66909657  0.66987500  1
  Fe  Fe35  1  0.17159619  0.83628516  0.83649702  1
  Ni  Ni36  1  0.50304076  0.17001534  0.50398976  1
  Fe  Fe37  1  0.33622265  1.00308808  0.66999617  1
  Ni  Ni38  1  0.50215410  0.16986305  0.83652912  1
  Fe  Fe39  1  0.50313376  0.50228086  0.50247729  1
  Fe  Fe40  1  0.33643153  0.33659583  0.67026908  1
  Ni  Ni41  1  0.50182103  0.50268834  0.83735907  1
  Fe  Fe42  1  0.50311876  0.83846416  0.50251009  1
  Ni  Ni43  1  0.33490617  0.67017788  0.67019023  1
  Ni  Ni44  1  0.50209202  0.83710499  0.83678458  1
  Ni  Ni45  1  0.83631548  0.17057139  0.50434821  1
  Ni  Ni46  1  0.66921380  0.00496372  0.67048467  1
  Fe  Fe47  1  0.83469336  0.16803714  0.83553250  1
  Ni  Ni48  1  0.83716085  0.50318242  0.50224372  1
  Fe  Fe49  1  0.66935945  0.33472864  0.66909027  1
  Cr  Cr50  1  0.83567246  0.50417518  0.83660901  1
  Ni  Ni51  1  0.83816957  0.83589898  0.50304309  1
  Cr  Cr52  1  0.66834421  0.67156056  0.66849461  1
  Fe  Fe53  1  0.83609817  0.83898587  0.83694509  1
" 