554,Ni64Fe29Cr6_3,-238.837130953384, 207.479481612283,Ni64Fe29Cr6,"# generated using pymatgen
 data_Cr5Fe15Ni34
_symmetry_space_group_name_H-M   'P 1'
_cell_length_a   7.42628956
_cell_length_b   7.42628956
_cell_length_c   10.50235942
_cell_angle_alpha   90.00000000
_cell_angle_beta   90.00000000
_cell_angle_gamma   90.00000000
_symmetry_Int_Tables_number   1
_chemical_formula_structural   Cr5Fe15Ni34
_chemical_formula_sum   'Cr5 Fe15 Ni34'
_cell_volume   579.20277686
_cell_formula_units_Z   1
loop_
 _symmetry_equiv_pos_site_id
 _symmetry_equiv_pos_as_xyz
  1  'x, y, z'
loop_
 _atom_site_type_symbol
 _atom_site_label
 _atom_site_symmetry_multiplicity
 _atom_site_fract_x
 _atom_site_fract_y
 _atom_site_fract_z
 _atom_site_occupancy
  Fe  Fe0  1  1.00092809  1.00268257  0.00313811  1
  Ni  Ni1  1  0.16946106  0.16853772  0.16669266  1
  Ni  Ni2  1  0.00336056  1.00065313  0.33548621  1
  Fe  Fe3  1  1.00268189  0.33493982  1.00261632  1
  Ni  Ni4  1  0.17141074  0.50525920  0.16785258  1
  Cr  Cr5  1  1.00116073  0.33440786  0.33747910  1
  Ni  Ni6  1  0.00297564  0.67161729  1.00155578  1
  Fe  Fe7  1  0.16811742  0.83733269  0.16873875  1
  Ni  Ni8  1  0.00318576  0.67339359  0.33804953  1
  Ni  Ni9  1  0.33536760  0.00296797  1.00017762  1
  Cr  Cr10  1  0.50386209  0.16769424  0.17014852  1
  Ni  Ni11  1  0.33358146  1.00050937  0.33853384  1
  Ni  Ni12  1  0.33597111  0.33519077  1.00123546  1
  Fe  Fe13  1  0.50364326  0.50435869  0.16827795  1
  Cr  Cr14  1  0.33732873  0.33607837  0.33813242  1
  Fe  Fe15  1  0.33768664  0.66957658  1.00214289  1
  Fe  Fe16  1  0.50305101  0.83501568  0.16888865  1
  Ni  Ni17  1  0.33582302  0.67225252  0.33470716  1
  Ni  Ni18  1  0.66980048  1.00216843  1.00216913  1
  Ni  Ni19  1  0.83609249  0.16578170  0.16938086  1
  Fe  Fe20  1  0.67073251  1.00101526  0.33671264  1
  Ni  Ni21  1  0.66875163  0.33498143  1.00113609  1
  Cr  Cr22  1  0.83639567  0.50464307  0.16882740  1
  Ni  Ni23  1  0.66985095  0.33599979  0.33818328  1
  Ni  Ni24  1  0.67092015  0.67102371  0.99982069  1
  Ni  Ni25  1  0.83526845  0.83676508  0.16939818  1
  Ni  Ni26  1  0.66934731  0.66981638  0.33814661  1
  Ni  Ni27  1  0.16991094  0.16838225  0.50511818  1
  Fe  Fe28  1  1.00159717  0.00354888  0.66902058  1
  Fe  Fe29  1  0.17061262  0.16855314  0.83584421  1
  Ni  Ni30  1  0.16891487  0.50398884  0.50262488  1
  Fe  Fe31  1  0.00288325  0.33703806  0.66871918  1
  Ni  Ni32  1  0.16862354  0.50230883  0.83742121  1
  Fe  Fe33  1  0.16846562  0.83682255  0.50259820  1
  Ni  Ni34  1  1.00103131  0.67151275  0.66876134  1
  Ni  Ni35  1  0.16785080  0.83527689  0.83728097  1
  Ni  Ni36  1  0.50347312  0.16750711  0.50371092  1
  Fe  Fe37  1  0.33700701  0.00329883  0.67005799  1
  Ni  Ni38  1  0.50351270  0.16940536  0.83551419  1
  Ni  Ni39  1  0.50345229  0.50328980  0.50121117  1
  Ni  Ni40  1  0.33796833  0.33455440  0.66915081  1
  Ni  Ni41  1  0.50171757  0.50118085  0.83810142  1
  Ni  Ni42  1  0.50415409  0.83731722  0.50141044  1
  Cr  Cr43  1  0.33560558  0.66943822  0.66978325  1
  Ni  Ni44  1  0.50367937  0.83757666  0.83782733  1
  Ni  Ni45  1  0.83483443  0.16744559  0.50139351  1
  Fe  Fe46  1  0.66960396  1.00230813  0.67033522  1
  Ni  Ni47  1  0.83530158  0.16861327  0.83771801  1
  Ni  Ni48  1  0.83588423  0.50448747  0.50442748  1
  Ni  Ni49  1  0.66885346  0.33461824  0.66905954  1
  Fe  Fe50  1  0.83522745  0.50356542  0.83538825  1
  Ni  Ni51  1  0.83544514  0.83607357  0.50255908  1
  Fe  Fe52  1  0.66914788  0.66852833  0.66952596  1
  Ni  Ni53  1  0.83667058  0.83688176  0.83599358  1
" 