2345,Ni64Fe30Cr5_1,-239.654033112122, 209.263374161161,Ni64Fe30Cr5,"# generated using pymatgen
 data_Cr2Fe8Ni17
_symmetry_space_group_name_H-M   'P 1'
_cell_length_a   7.42016654
_cell_length_b   7.42016654
_cell_length_c   10.49370016
_cell_angle_alpha   90.00000000
_cell_angle_beta   90.00000000
_cell_angle_gamma   90.00000000
_symmetry_Int_Tables_number   1
_chemical_formula_structural   Cr2Fe8Ni17
_chemical_formula_sum   'Cr4 Fe16 Ni34'
_cell_volume   577.77128830
_cell_formula_units_Z   2
loop_
 _symmetry_equiv_pos_site_id
 _symmetry_equiv_pos_as_xyz
  1  'x, y, z'
loop_
 _atom_site_type_symbol
 _atom_site_label
 _atom_site_symmetry_multiplicity
 _atom_site_fract_x
 _atom_site_fract_y
 _atom_site_fract_z
 _atom_site_occupancy
  Ni  Ni0  1  1.00217369  1.00306591  1.00270378  1
  Ni  Ni1  1  0.16869422  0.16977701  0.17004592  1
  Ni  Ni2  1  1.00152296  1.00089100  0.33510182  1
  Ni  Ni3  1  0.00343681  0.33725277  0.00369603  1
  Fe  Fe4  1  0.17134324  0.50202576  0.16941939  1
  Fe  Fe5  1  1.00231749  0.33541627  0.33476253  1
  Ni  Ni6  1  1.00229775  0.66948325  0.00333822  1
  Ni  Ni7  1  0.17006590  0.83589012  0.16900691  1
  Fe  Fe8  1  0.00375287  0.67031927  0.33613830  1
  Ni  Ni9  1  0.33599769  0.00563616  0.00479876  1
  Ni  Ni10  1  0.50373497  0.16971526  0.17015629  1
  Ni  Ni11  1  0.33690937  1.00211632  0.33542518  1
  Ni  Ni12  1  0.33715673  0.33644098  0.00343828  1
  Ni  Ni13  1  0.50384331  0.50436953  0.16913275  1
  Ni  Ni14  1  0.33867117  0.33802487  0.33566493  1
  Fe  Fe15  1  0.33412016  0.66978911  0.00485712  1
  Ni  Ni16  1  0.50316429  0.83553830  0.17020540  1
  Ni  Ni17  1  0.33533677  0.66902343  0.33597000  1
  Ni  Ni18  1  0.67092454  0.00424641  0.00435448  1
  Ni  Ni19  1  0.83728601  0.17051067  0.16948576  1
  Ni  Ni20  1  0.67115574  0.00433388  0.33669883  1
  Fe  Fe21  1  0.67110411  0.33436836  0.00399078  1
  Fe  Fe22  1  0.83609792  0.50288032  0.16961298  1
  Ni  Ni23  1  0.66974361  0.33635395  0.33540754  1
  Fe  Fe24  1  0.67163928  0.66950911  0.00393043  1
  Fe  Fe25  1  0.83583552  0.83830735  0.16845686  1
  Fe  Fe26  1  0.66814407  0.67048445  0.33630743  1
  Cr  Cr27  1  0.16779816  0.17154169  0.50217523  1
  Ni  Ni28  1  1.00003275  1.00125566  0.67178199  1
  Ni  Ni29  1  0.16810018  0.17335854  0.83711397  1
  Ni  Ni30  1  0.16782471  0.50394081  0.50159250  1
  Fe  Fe31  1  1.00217173  0.33744726  0.67112910  1
  Ni  Ni32  1  0.16843516  0.50235686  0.83762481  1
  Ni  Ni33  1  0.16887544  0.83394662  0.50291862  1
  Ni  Ni34  1  1.00154806  0.66990747  0.66987946  1
  Fe  Fe35  1  0.16664916  0.83815559  0.83822929  1
  Ni  Ni36  1  0.50655345  0.16988965  0.50213028  1
  Cr  Cr37  1  0.33605048  0.00556069  0.66952701  1
  Ni  Ni38  1  0.50461379  0.17085187  0.83738372  1
  Fe  Fe39  1  0.50319894  0.50127778  0.50161616  1
  Ni  Ni40  1  0.33846427  0.33817991  0.66997673  1
  Fe  Fe41  1  0.50463603  0.50020932  0.83778606  1
  Ni  Ni42  1  0.50527901  0.83536953  0.50125577  1
  Cr  Cr43  1  0.33500862  0.66709820  0.67032650  1
  Cr  Cr44  1  0.50603702  0.83636343  0.83834867  1
  Ni  Ni45  1  0.83511287  0.17098855  0.50392752  1
  Ni  Ni46  1  0.67271508  0.00434940  0.66841367  1
  Ni  Ni47  1  0.83670782  0.16935949  0.83639712  1
  Fe  Fe48  1  0.83624099  0.50226790  0.50307567  1
  Ni  Ni49  1  0.66901118  0.33647889  0.67069280  1
  Fe  Fe50  1  0.83693958  0.50277328  0.83659457  1
  Fe  Fe51  1  0.83760411  0.83811010  0.50397452  1
  Ni  Ni52  1  0.67244739  0.66792242  0.66849665  1
  Ni  Ni53  1  0.83606150  0.83585694  0.83611259  1
" 