4294,Ni64Fe32Cr3_8,-240.356300811273, 213.773821015611,Ni64Fe32Cr3,"# generated using pymatgen
 data_Cr3(FeNi2)17
_symmetry_space_group_name_H-M   'P 1'
_cell_length_a   7.41942805
_cell_length_b   7.41942805
_cell_length_c   10.49265577
_cell_angle_alpha   90.00000000
_cell_angle_beta   90.00000000
_cell_angle_gamma   90.00000000
_symmetry_Int_Tables_number   1
_chemical_formula_structural   Cr3(FeNi2)17
_chemical_formula_sum   'Cr3 Fe17 Ni34'
_cell_volume   577.59879683
_cell_formula_units_Z   1
loop_
 _symmetry_equiv_pos_site_id
 _symmetry_equiv_pos_as_xyz
  1  'x, y, z'
loop_
 _atom_site_type_symbol
 _atom_site_label
 _atom_site_symmetry_multiplicity
 _atom_site_fract_x
 _atom_site_fract_y
 _atom_site_fract_z
 _atom_site_occupancy
  Ni  Ni0  1  0.00328248  1.00287596  0.00336946  1
  Ni  Ni1  1  0.16848451  0.17029506  0.16940686  1
  Ni  Ni2  1  1.00180629  1.00300856  0.33658271  1
  Ni  Ni3  1  1.00116801  0.33662219  0.00343615  1
  Ni  Ni4  1  0.16853952  0.50435975  0.17144290  1
  Fe  Fe5  1  1.00256966  0.33559370  0.33602278  1
  Ni  Ni6  1  1.00302395  0.67013476  1.00260686  1
  Fe  Fe7  1  0.16844753  0.83649886  0.16854061  1
  Fe  Fe8  1  1.00252426  0.66961619  0.33568995  1
  Ni  Ni9  1  0.33606578  1.00102052  1.00276005  1
  Ni  Ni10  1  0.50477826  0.16866080  0.17057428  1
  Cr  Cr11  1  0.33592443  0.00464206  0.33685572  1
  Cr  Cr12  1  0.33685228  0.33647789  1.00227641  1
  Fe  Fe13  1  0.50428678  0.50259001  0.17136808  1
  Ni  Ni14  1  0.33703602  0.33835570  0.33762745  1
  Ni  Ni15  1  0.33657443  0.67174067  0.00400255  1
  Fe  Fe16  1  0.50423323  0.83613454  0.16870479  1
  Fe  Fe17  1  0.33765015  0.66823073  0.33659174  1
  Ni  Ni18  1  0.67027335  1.00287938  0.00342304  1
  Ni  Ni19  1  0.83636260  0.16999408  0.16967637  1
  Ni  Ni20  1  0.67211342  1.00299005  0.33723124  1
  Ni  Ni21  1  0.67188826  0.33712653  0.00343664  1
  Ni  Ni22  1  0.83769061  0.50328357  0.16951475  1
  Ni  Ni23  1  0.66922467  0.33754706  0.33642603  1
  Ni  Ni24  1  0.67003254  0.66961683  1.00260974  1
  Fe  Fe25  1  0.83694766  0.83716705  0.16947080  1
  Ni  Ni26  1  0.66996667  0.66908299  0.33709347  1
  Ni  Ni27  1  0.16906053  0.17081364  0.50436992  1
  Ni  Ni28  1  0.00365163  0.00350007  0.66966954  1
  Fe  Fe29  1  0.16850017  0.16880791  0.83534032  1
  Fe  Fe30  1  0.17045619  0.50107186  0.50274711  1
  Ni  Ni31  1  1.00262684  0.33577048  0.66958763  1
  Ni  Ni32  1  0.16743408  0.50363286  0.83648469  1
  Fe  Fe33  1  0.16903913  0.83814225  0.50342813  1
  Fe  Fe34  1  1.00212162  0.66908949  0.67097303  1
  Fe  Fe35  1  0.16872539  0.83765308  0.83766136  1
  Ni  Ni36  1  0.50352787  0.16998781  0.50405793  1
  Ni  Ni37  1  0.33569799  0.00457078  0.66982841  1
  Ni  Ni38  1  0.50383604  0.16760634  0.83499566  1
  Ni  Ni39  1  0.50325265  0.50338784  0.50216921  1
  Ni  Ni40  1  0.33700721  0.33497746  0.66935323  1
  Fe  Fe41  1  0.50583418  0.50311016  0.83612897  1
  Ni  Ni42  1  0.50462305  0.83625575  0.50298060  1
  Cr  Cr43  1  0.33750470  0.66997280  0.66991012  1
  Ni  Ni44  1  0.50380384  0.83808938  0.83778347  1
  Ni  Ni45  1  0.83703555  0.16944326  0.50264588  1
  Fe  Fe46  1  0.66940240  0.00452122  0.67006597  1
  Ni  Ni47  1  0.83623015  0.17006336  0.83730725  1
  Fe  Fe48  1  0.83503742  0.50208451  0.50323494  1
  Ni  Ni49  1  0.66999150  0.33710750  0.66976187  1
  Ni  Ni50  1  0.83832209  0.50360253  0.83657441  1
  Fe  Fe51  1  0.83578331  0.83780175  0.50304744  1
  Fe  Fe52  1  0.67110484  0.66972006  0.66991325  1
  Ni  Ni53  1  0.83593437  0.83596244  0.83653029  1
" 