6282,Ni64Fe7Cr28_6,-228.849838744392, 163.707240982871,Ni64Fe7Cr28,"# generated using pymatgen
 data_Cr8Fe2Ni17
_symmetry_space_group_name_H-M   'P 1'
_cell_length_a   7.47480669
_cell_length_b   7.47480669
_cell_length_c   10.57097300
_cell_angle_alpha   90.00000000
_cell_angle_beta   90.00000000
_cell_angle_gamma   90.00000000
_symmetry_Int_Tables_number   1
_chemical_formula_structural   Cr8Fe2Ni17
_chemical_formula_sum   'Cr16 Fe4 Ni34'
_cell_volume   590.62917336
_cell_formula_units_Z   2
loop_
 _symmetry_equiv_pos_site_id
 _symmetry_equiv_pos_as_xyz
  1  'x, y, z'
loop_
 _atom_site_type_symbol
 _atom_site_label
 _atom_site_symmetry_multiplicity
 _atom_site_fract_x
 _atom_site_fract_y
 _atom_site_fract_z
 _atom_site_occupancy
  Ni  Ni0  1  0.99889558  0.99912029  -0.00036637  1
  Ni  Ni1  1  0.16491594  0.16222335  0.16481224  1
  Ni  Ni2  1  0.00025532  0.99812726  0.33224468  1
  Ni  Ni3  1  0.99802446  0.33032524  0.99926517  1
  Ni  Ni4  1  0.16630835  0.50161912  0.16476480  1
  Cr  Cr5  1  0.00059380  0.32965105  0.33156814  1
  Ni  Ni6  1  0.99926555  0.66900550  -0.00024640  1
  Ni  Ni7  1  0.16600977  0.83450459  0.16465779  1
  Cr  Cr8  1  0.00110188  0.67082250  0.33286745  1
  Ni  Ni9  1  0.33205136  0.99888078  0.99887338  1
  Ni  Ni10  1  0.50114132  0.16370902  0.16625503  1
  Ni  Ni11  1  0.32971220  0.99895607  0.33175586  1
  Cr  Cr12  1  0.33347868  0.32951722  0.00054748  1
  Cr  Cr13  1  0.50066408  0.50156747  0.16637885  1
  Cr  Cr14  1  0.33151091  0.33092201  0.33181327  1
  Ni  Ni15  1  0.33159050  0.66871471  0.99945149  1
  Cr  Cr16  1  0.49879399  0.83428446  0.16673301  1
  Ni  Ni17  1  0.33032017  0.66827545  0.33272024  1
  Ni  Ni18  1  0.66766349  0.00047295  0.99919452  1
  Ni  Ni19  1  0.83232891  0.16342801  0.16509039  1
  Ni  Ni20  1  0.66851137  0.99928869  0.33094751  1
  Ni  Ni21  1  0.66777235  0.33015685  0.99845691  1
  Cr  Cr22  1  0.83272119  0.49957713  0.16312969  1
  Ni  Ni23  1  0.66585202  0.33002794  0.32986609  1
  Ni  Ni24  1  0.66766425  0.66783043  0.99601267  1
  Ni  Ni25  1  0.83344775  0.83563729  0.16565068  1
  Ni  Ni26  1  0.66726976  0.66913534  0.33359583  1
  Ni  Ni27  1  0.16622460  0.16255932  0.50234550  1
  Ni  Ni28  1  -0.00006820  -0.00042143  0.66669533  1
  Ni  Ni29  1  0.16505027  0.16297194  0.83122771  1
  Fe  Fe30  1  0.16633373  0.49871645  0.50005621  1
  Ni  Ni31  1  0.00197999  0.33009219  0.66719616  1
  Cr  Cr32  1  0.16325925  0.49813470  0.83409391  1
  Ni  Ni33  1  0.16644943  0.83804309  0.49871117  1
  Cr  Cr34  1  0.99740242  0.66972389  0.66510742  1
  Ni  Ni35  1  0.16643400  0.83696003  0.83495036  1
  Cr  Cr36  1  0.49787436  0.16339493  0.49886619  1
  Ni  Ni37  1  0.33132428  0.00117956  0.66803563  1
  Fe  Fe38  1  0.49948248  0.16259357  0.83382912  1
  Cr  Cr39  1  0.49996107  0.50054253  0.49778667  1
  Ni  Ni40  1  0.33055398  0.32983968  0.66616519  1
  Fe  Fe41  1  0.50053138  0.50085668  0.83441971  1
  Cr  Cr42  1  0.50038861  0.83462128  0.49805973  1
  Cr  Cr43  1  0.33330290  0.66779211  0.66670941  1
  Fe  Fe44  1  0.50009099  0.83505915  0.83417472  1
  Cr  Cr45  1  0.83520049  0.16268933  0.49949501  1
  Ni  Ni46  1  0.66735345  0.99672068  0.66837566  1
  Ni  Ni47  1  0.83471964  0.16515397  0.83364907  1
  Cr  Cr48  1  0.83138236  0.49966994  0.49994017  1
  Cr  Cr49  1  0.66575876  0.33184797  0.66999786  1
  Ni  Ni50  1  0.83092479  0.49929002  0.83459478  1
  Ni  Ni51  1  0.83290421  0.83473745  0.49986503  1
  Ni  Ni52  1  0.66695955  0.66936309  0.66867837  1
  Ni  Ni53  1  0.83232944  0.83406034  0.83290666  1
" 