67,Ni64Fe29Cr6_11,-238.636783830398, 207.70552410665,Ni64Fe29Cr6,"# generated using pymatgen
 data_Cr5Fe15Ni34
_symmetry_space_group_name_H-M   'P 1'
_cell_length_a   7.42531846
_cell_length_b   7.42531846
_cell_length_c   10.50098607
_cell_angle_alpha   90.00000000
_cell_angle_beta   90.00000000
_cell_angle_gamma   90.00000000
_symmetry_Int_Tables_number   1
_chemical_formula_structural   Cr5Fe15Ni34
_chemical_formula_sum   'Cr5 Fe15 Ni34'
_cell_volume   578.97558617
_cell_formula_units_Z   1
loop_
 _symmetry_equiv_pos_site_id
 _symmetry_equiv_pos_as_xyz
  1  'x, y, z'
loop_
 _atom_site_type_symbol
 _atom_site_label
 _atom_site_symmetry_multiplicity
 _atom_site_fract_x
 _atom_site_fract_y
 _atom_site_fract_z
 _atom_site_occupancy
  Fe  Fe0  1  0.00314513  1.00208886  1.00254697  1
  Ni  Ni1  1  0.16732060  0.17082916  0.16924104  1
  Ni  Ni2  1  1.00067002  0.00366057  0.33468660  1
  Ni  Ni3  1  1.00119777  0.33647363  1.00232368  1
  Ni  Ni4  1  0.16736343  0.50159403  0.17261675  1
  Ni  Ni5  1  1.00236478  0.33550506  0.33736549  1
  Ni  Ni6  1  1.00054177  0.66841163  0.00388296  1
  Fe  Fe7  1  0.16926929  0.83577881  0.16959090  1
  Fe  Fe8  1  0.00291729  0.67002408  0.33631617  1
  Ni  Ni9  1  0.33729718  0.00299725  0.00311478  1
  Ni  Ni10  1  0.50389635  0.16966387  0.16949605  1
  Cr  Cr11  1  0.33610390  0.00305038  0.33458860  1
  Cr  Cr12  1  0.33475092  0.33412285  0.00375215  1
  Ni  Ni13  1  0.50423547  0.50293265  0.17089553  1
  Ni  Ni14  1  0.33596651  0.33779671  0.33610725  1
  Cr  Cr15  1  0.33591464  0.67190896  1.00276840  1
  Ni  Ni16  1  0.50719254  0.83582463  0.17003098  1
  Ni  Ni17  1  0.33612047  0.66767521  0.33606763  1
  Ni  Ni18  1  0.66959850  1.00210265  1.00210561  1
  Fe  Fe19  1  0.83537605  0.16928448  0.16914405  1
  Ni  Ni20  1  0.67161798  0.00352465  0.33752413  1
  Fe  Fe21  1  0.67036511  0.33619470  0.00291597  1
  Fe  Fe22  1  0.83609856  0.50212520  0.16978906  1
  Ni  Ni23  1  0.67017553  0.33538556  0.33458882  1
  Ni  Ni24  1  0.67174493  0.67057083  1.00269626  1
  Ni  Ni25  1  0.83609094  0.83533995  0.16982136  1
  Fe  Fe26  1  0.66936825  0.66928534  0.33560197  1
  Ni  Ni27  1  0.16917162  0.16887847  0.50393591  1
  Ni  Ni28  1  1.00232473  1.00205525  0.67020337  1
  Ni  Ni29  1  0.16896735  0.16845986  0.83485049  1
  Fe  Fe30  1  0.17056714  0.50245611  0.50221227  1
  Fe  Fe31  1  0.00419753  0.33566919  0.66930020  1
  Fe  Fe32  1  0.16723245  0.50276744  0.83567220  1
  Ni  Ni33  1  0.16720907  0.83616037  0.50293743  1
  Ni  Ni34  1  0.00448520  0.66978623  0.66910117  1
  Ni  Ni35  1  0.16779453  0.83714218  0.83673693  1
  Ni  Ni36  1  0.50195058  0.17092613  0.50264574  1
  Ni  Ni37  1  0.33566491  1.00279544  0.67021420  1
  Ni  Ni38  1  0.50239023  0.16745054  0.83621019  1
  Ni  Ni39  1  0.50324371  0.50192234  0.50096019  1
  Ni  Ni40  1  0.33487347  0.33638801  0.66892264  1
  Fe  Fe41  1  0.50205901  0.50315182  0.83601862  1
  Fe  Fe42  1  0.50081309  0.83641469  0.50298720  1
  Ni  Ni43  1  0.33363721  0.66927249  0.66991323  1
  Ni  Ni44  1  0.50334127  0.83820141  0.83504304  1
  Fe  Fe45  1  0.83691025  0.16936595  0.50210799  1
  Ni  Ni46  1  0.67039849  0.00343596  0.66860566  1
  Ni  Ni47  1  0.83727869  0.16795652  0.83691462  1
  Ni  Ni48  1  0.83697905  0.50402956  0.50088169  1
  Cr  Cr49  1  0.67000609  0.33370241  0.67104412  1
  Fe  Fe50  1  0.83846424  0.50326098  0.83714772  1
  Fe  Fe51  1  0.83740197  0.83800271  0.50229147  1
  Cr  Cr52  1  0.67037805  0.67161390  0.66949226  1
  Ni  Ni53  1  0.83729202  0.83631822  0.83580610  1
" 