2577,Ni64Fe34Cr1_3,-241.129348844328, 218.074637229389,Ni64Fe34Cr1,"# generated using pymatgen
 data_CrFe9Ni17
_symmetry_space_group_name_H-M   'P 1'
_cell_length_a   7.40984120
_cell_length_b   7.40984120
_cell_length_c   10.47909792
_cell_angle_alpha   90.00000000
_cell_angle_beta   90.00000000
_cell_angle_gamma   90.00000000
_symmetry_Int_Tables_number   1
_chemical_formula_structural   CrFe9Ni17
_chemical_formula_sum   'Cr2 Fe18 Ni34'
_cell_volume   575.36269446
_cell_formula_units_Z   2
loop_
 _symmetry_equiv_pos_site_id
 _symmetry_equiv_pos_as_xyz
  1  'x, y, z'
loop_
 _atom_site_type_symbol
 _atom_site_label
 _atom_site_symmetry_multiplicity
 _atom_site_fract_x
 _atom_site_fract_y
 _atom_site_fract_z
 _atom_site_occupancy
  Ni  Ni0  1  0.00393316  1.00370233  1.00253409  1
  Fe  Fe1  1  0.17034323  0.16981370  0.17023156  1
  Ni  Ni2  1  1.00379451  1.00385607  0.33863455  1
  Ni  Ni3  1  1.00357128  0.33768547  1.00378504  1
  Fe  Fe4  1  0.17009456  0.50388832  0.17069067  1
  Ni  Ni5  1  1.00261915  0.33833662  0.33739371  1
  Ni  Ni6  1  1.00310018  0.67018626  1.00318296  1
  Ni  Ni7  1  0.16973704  0.83663370  0.17070478  1
  Ni  Ni8  1  1.00382274  0.66939127  0.33691519  1
  Ni  Ni9  1  0.33697890  0.00488938  0.00433037  1
  Ni  Ni10  1  0.50421202  0.17153573  0.17027248  1
  Ni  Ni11  1  0.33840804  1.00378251  0.33732805  1
  Ni  Ni12  1  0.33760614  0.33679383  1.00300997  1
  Ni  Ni13  1  0.50338771  0.50343070  0.17111701  1
  Fe  Fe14  1  0.33714122  0.33604570  0.33692545  1
  Ni  Ni15  1  0.33689966  0.66989341  0.00421580  1
  Fe  Fe16  1  0.50412824  0.83785883  0.17028976  1
  Fe  Fe17  1  0.33639641  0.67069554  0.33712736  1
  Fe  Fe18  1  0.67196540  0.00469707  0.00468433  1
  Ni  Ni19  1  0.83672053  0.16977621  0.17098020  1
  Ni  Ni20  1  0.66938217  0.00498853  0.33677121  1
  Fe  Fe21  1  0.66998183  0.33762791  0.00417439  1
  Fe  Fe22  1  0.83711968  0.50391880  0.17067112  1
  Ni  Ni23  1  0.67120483  0.33655086  0.33750805  1
  Ni  Ni24  1  0.67157948  0.66955352  0.00407093  1
  Ni  Ni25  1  0.83882084  0.83745989  0.17055671  1
  Fe  Fe26  1  0.67182280  0.67073147  0.33648327  1
  Ni  Ni27  1  0.17057082  0.17041288  0.50311797  1
  Fe  Fe28  1  0.00436524  0.00577438  0.67115073  1
  Ni  Ni29  1  0.17035857  0.16962375  0.83720371  1
  Ni  Ni30  1  0.17093498  0.50355458  0.50279399  1
  Ni  Ni31  1  1.00303457  0.33650396  0.67038945  1
  Fe  Fe32  1  0.17099761  0.50265925  0.83785894  1
  Fe  Fe33  1  0.17139292  0.83852908  0.50276301  1
  Cr  Cr34  1  0.00427585  0.66881518  0.67227275  1
  Ni  Ni35  1  0.16946797  0.83822088  0.83775189  1
  Ni  Ni36  1  0.50370450  0.16994212  0.50395713  1
  Ni  Ni37  1  0.33847297  0.00448758  0.66993183  1
  Ni  Ni38  1  0.50321381  0.17292253  0.83734498  1
  Fe  Fe39  1  0.50379461  0.50265515  0.50390618  1
  Fe  Fe40  1  0.33715527  0.33649763  0.67096825  1
  Ni  Ni41  1  0.50403875  0.50249864  0.83610384  1
  Fe  Fe42  1  0.50356914  0.83833081  0.50452946  1
  Ni  Ni43  1  0.33795332  0.67029627  0.67003761  1
  Cr  Cr44  1  0.50263446  0.83648233  0.83906387  1
  Ni  Ni45  1  0.83730284  0.17075788  0.50390115  1
  Ni  Ni46  1  0.66971994  0.00565511  0.66990330  1
  Ni  Ni47  1  0.83801391  0.17080676  0.83670481  1
  Ni  Ni48  1  0.83696004  0.50319578  0.50187775  1
  Fe  Fe49  1  0.67028788  0.33677647  0.67020934  1
  Ni  Ni50  1  0.83593836  0.50338552  0.83885680  1
  Fe  Fe51  1  0.83662733  0.83883479  0.50253070  1
  Fe  Fe52  1  0.66965121  0.66971043  0.67073425  1
  Ni  Ni53  1  0.83924025  0.83739548  0.83799619  1
" 