170,Ni64Fe32Cr3_17,-240.032672677253, 211.994283482179,Ni64Fe32Cr3,"# generated using pymatgen
 data_Cr3(FeNi2)17
_symmetry_space_group_name_H-M   'P 1'
_cell_length_a   7.41561014
_cell_length_b   7.41561014
_cell_length_c   10.48725643
_cell_angle_alpha   90.00000000
_cell_angle_beta   90.00000000
_cell_angle_gamma   90.00000000
_symmetry_Int_Tables_number   1
_chemical_formula_structural   Cr3(FeNi2)17
_chemical_formula_sum   'Cr3 Fe17 Ni34'
_cell_volume   576.70758937
_cell_formula_units_Z   1
loop_
 _symmetry_equiv_pos_site_id
 _symmetry_equiv_pos_as_xyz
  1  'x, y, z'
loop_
 _atom_site_type_symbol
 _atom_site_label
 _atom_site_symmetry_multiplicity
 _atom_site_fract_x
 _atom_site_fract_y
 _atom_site_fract_z
 _atom_site_occupancy
  Fe  Fe0  1  0.00400710  0.00392015  1.00319455  1
  Fe  Fe1  1  0.17157606  0.16959784  0.17001492  1
  Fe  Fe2  1  0.00440630  1.00243710  0.33732624  1
  Ni  Ni3  1  1.00251309  0.33590878  0.00408547  1
  Fe  Fe4  1  0.17154510  0.50415150  0.16975552  1
  Fe  Fe5  1  0.00520057  0.33601201  0.33651990  1
  Fe  Fe6  1  1.00293524  0.67110810  0.00366842  1
  Ni  Ni7  1  0.16981051  0.83631710  0.16947397  1
  Fe  Fe8  1  0.00507104  0.67195310  0.33638556  1
  Ni  Ni9  1  0.33709898  1.00295711  1.00298374  1
  Ni  Ni10  1  0.50298622  0.17138479  0.17019899  1
  Ni  Ni11  1  0.33662791  0.00363792  0.33710401  1
  Ni  Ni12  1  0.33684482  0.33588203  0.00464378  1
  Ni  Ni13  1  0.50329401  0.50246638  0.16943846  1
  Ni  Ni14  1  0.33608357  0.33663424  0.33656988  1
  Ni  Ni15  1  0.33712598  0.67156582  0.00464303  1
  Ni  Ni16  1  0.50298617  0.83655328  0.17081772  1
  Ni  Ni17  1  0.33712587  0.67013170  0.33745922  1
  Ni  Ni18  1  0.67019622  0.00349903  0.00419082  1
  Fe  Fe19  1  0.83573746  0.16953933  0.16950376  1
  Fe  Fe20  1  0.66898896  1.00302675  0.33675790  1
  Ni  Ni21  1  0.67104731  0.33593676  1.00300394  1
  Fe  Fe22  1  0.83583079  0.50414725  0.16961984  1
  Fe  Fe23  1  0.66721267  0.33640464  0.33629675  1
  Fe  Fe24  1  0.66935835  0.66997247  0.00369997  1
  Ni  Ni25  1  0.83760928  0.83601003  0.17017430  1
  Ni  Ni26  1  0.66955815  0.67178873  0.33590321  1
  Ni  Ni27  1  0.17012853  0.16892044  0.50276657  1
  Fe  Fe28  1  1.00275698  1.00307043  0.66988388  1
  Ni  Ni29  1  0.16987163  0.16806207  0.83802667  1
  Fe  Fe30  1  0.17101020  0.50385546  0.50305336  1
  Ni  Ni31  1  1.00159405  0.33513643  0.66977100  1
  Cr  Cr32  1  0.16897409  0.50418656  0.83682258  1
  Ni  Ni33  1  0.16988507  0.83681773  0.50403733  1
  Ni  Ni34  1  1.00328300  0.67178337  0.66974244  1
  Ni  Ni35  1  0.17043181  0.83809261  0.83689180  1
  Ni  Ni36  1  0.50364466  0.17083055  0.50237880  1
  Fe  Fe37  1  0.33687717  1.00175398  0.67037873  1
  Ni  Ni38  1  0.50429401  0.16953197  0.83782760  1
  Ni  Ni39  1  0.50281263  0.50330244  0.50318773  1
  Cr  Cr40  1  0.33678717  0.33617703  0.66980861  1
  Fe  Fe41  1  0.50611350  0.50434588  0.83746944  1
  Fe  Fe42  1  0.50363480  0.83709688  0.50348723  1
  Ni  Ni43  1  0.33697125  0.67264398  0.66830097  1
  Ni  Ni44  1  0.50312364  0.83723559  0.83669349  1
  Ni  Ni45  1  0.83663011  0.16920518  0.50372875  1
  Ni  Ni46  1  0.67126891  1.00319911  0.66920153  1
  Ni  Ni47  1  0.83624027  0.17140259  0.83625417  1
  Cr  Cr48  1  0.83567215  0.50382893  0.50444823  1
  Ni  Ni49  1  0.67212307  0.33519734  0.67094705  1
  Ni  Ni50  1  0.83537953  0.50308106  0.83684059  1
  Ni  Ni51  1  0.83799420  0.83765158  0.50364148  1
  Ni  Ni52  1  0.67015219  0.67200903  0.67167029  1
  Ni  Ni53  1  0.83684981  0.83592000  0.83658798  1
" 