3397,Ni64Cr36_6,-213.95705830131, 140.27478557094,Ni64Cr36,"# generated using pymatgen
 data_Cr17Ni10
_symmetry_space_group_name_H-M   'P 1'
_cell_length_a   7.54438876
_cell_length_b   7.54438876
_cell_length_c   10.66937690
_cell_angle_alpha   90.00000000
_cell_angle_beta   90.00000000
_cell_angle_gamma   90.00000000
_symmetry_Int_Tables_number   1
_chemical_formula_structural   Cr17Ni10
_chemical_formula_sum   'Cr34 Ni20'
_cell_volume   607.27747967
_cell_formula_units_Z   2
loop_
 _symmetry_equiv_pos_site_id
 _symmetry_equiv_pos_as_xyz
  1  'x, y, z'
loop_
 _atom_site_type_symbol
 _atom_site_label
 _atom_site_symmetry_multiplicity
 _atom_site_fract_x
 _atom_site_fract_y
 _atom_site_fract_z
 _atom_site_occupancy
  Ni  Ni0  1  0.99251881  0.99351128  0.99376979  1
  Cr  Cr1  1  0.15917472  0.16065051  0.16324608  1
  Ni  Ni2  1  -0.00224965  0.99417480  0.32721727  1
  Ni  Ni3  1  0.99186414  0.32744417  -0.00427744  1
  Ni  Ni4  1  0.16199197  0.49519676  0.16015421  1
  Cr  Cr5  1  0.99481920  0.32980233  0.32808748  1
  Cr  Cr6  1  -0.00408924  0.66253430  -0.00213510  1
  Ni  Ni7  1  0.15932281  0.82853732  0.16112430  1
  Cr  Cr8  1  0.99342386  0.66141034  0.32492038  1
  Cr  Cr9  1  0.32630089  0.99285137  -0.00509434  1
  Cr  Cr10  1  0.49648290  0.16293024  0.16234620  1
  Ni  Ni11  1  0.32397837  -0.00297568  0.32839171  1
  Cr  Cr12  1  0.32704167  0.32949517  -0.00334515  1
  Ni  Ni13  1  0.49504083  0.49332980  0.16131229  1
  Ni  Ni14  1  0.32840590  0.32740388  0.32769509  1
  Ni  Ni15  1  0.32624342  0.66199488  -0.00309367  1
  Cr  Cr16  1  0.49436933  0.82868090  0.16141496  1
  Cr  Cr17  1  0.32673393  0.66127153  0.32450763  1
  Ni  Ni18  1  0.66647110  -0.00462385  0.99350649  1
  Cr  Cr19  1  0.82890590  0.16072009  0.15872839  1
  Cr  Cr20  1  0.66271686  0.99473746  0.32650595  1
  Ni  Ni21  1  0.66464337  0.32777651  -0.00397629  1
  Ni  Ni22  1  0.82732616  0.49337293  0.16121655  1
  Ni  Ni23  1  0.66093011  0.33098961  0.32695391  1
  Cr  Cr24  1  0.66295315  0.66269053  -0.00274030  1
  Ni  Ni25  1  0.83149755  0.82953101  0.16068530  1
  Cr  Cr26  1  0.66463488  0.65956326  0.32730001  1
  Ni  Ni27  1  0.16047809  0.15953989  0.49278503  1
  Ni  Ni28  1  -0.00497084  -0.00489988  0.66335091  1
  Cr  Cr29  1  0.15632853  0.16120827  0.82887202  1
  Cr  Cr30  1  0.16089887  0.49393193  0.49518301  1
  Cr  Cr31  1  0.99453227  0.32548493  0.66092181  1
  Cr  Cr32  1  0.16091359  0.49700208  0.83038066  1
  Cr  Cr33  1  0.16037504  0.83069227  0.49407731  1
  Cr  Cr34  1  0.99341994  0.66311335  0.66153319  1
  Ni  Ni35  1  0.15769425  0.82960124  0.82937433  1
  Cr  Cr36  1  0.49336936  0.16155733  0.49086084  1
  Cr  Cr37  1  0.32590787  -0.00321167  0.66126472  1
  Cr  Cr38  1  0.49894377  0.16247700  0.83138472  1
  Cr  Cr39  1  0.49542649  0.49485296  0.49434154  1
  Cr  Cr40  1  0.32732504  0.32530931  0.66045065  1
  Cr  Cr41  1  0.49498223  0.49527894  0.82985307  1
  Cr  Cr42  1  0.49368721  0.82823195  0.49410872  1
  Cr  Cr43  1  0.32695791  0.66289014  0.66440572  1
  Cr  Cr44  1  0.49506174  0.82709635  0.82919463  1
  Cr  Cr45  1  0.83096679  0.16074601  0.49380614  1
  Cr  Cr46  1  0.66367276  -0.00471994  0.66452251  1
  Ni  Ni47  1  0.83012694  0.15863448  0.83121171  1
  Ni  Ni48  1  0.82752047  0.49307367  0.49362299  1
  Cr  Cr49  1  0.66282470  0.32665503  0.66127546  1
  Cr  Cr50  1  0.82896591  0.49269707  0.82882894  1
  Cr  Cr51  1  0.83037455  0.82859188  0.49427801  1
  Cr  Cr52  1  0.66429585  0.66211489  0.65982955  1
  Ni  Ni53  1  0.83167781  0.83225910  0.82907015  1
" 