341,Ni64Fe34Cr1_1,-241.586806907102, 219.383161780517,Ni64Fe34Cr1,"# generated using pymatgen
 data_CrFe9Ni17
_symmetry_space_group_name_H-M   'P 1'
_cell_length_a   7.41577396
_cell_length_b   7.41577396
_cell_length_c   10.48748811
_cell_angle_alpha   90.00000000
_cell_angle_beta   90.00000000
_cell_angle_gamma   90.00000000
_symmetry_Int_Tables_number   1
_chemical_formula_structural   CrFe9Ni17
_chemical_formula_sum   'Cr2 Fe18 Ni34'
_cell_volume   576.74581018
_cell_formula_units_Z   2
loop_
 _symmetry_equiv_pos_site_id
 _symmetry_equiv_pos_as_xyz
  1  'x, y, z'
loop_
 _atom_site_type_symbol
 _atom_site_label
 _atom_site_symmetry_multiplicity
 _atom_site_fract_x
 _atom_site_fract_y
 _atom_site_fract_z
 _atom_site_occupancy
  Ni  Ni0  1  0.00397099  0.00375247  1.00316936  1
  Ni  Ni1  1  0.17057926  0.17084688  0.17002149  1
  Ni  Ni2  1  0.00402754  0.00358714  0.33731555  1
  Ni  Ni3  1  1.00236316  0.33548078  0.00404863  1
  Fe  Fe4  1  0.16896104  0.50441622  0.17037791  1
  Ni  Ni5  1  0.00393677  0.33684465  0.33748267  1
  Ni  Ni6  1  1.00241741  0.67115059  1.00281743  1
  Fe  Fe7  1  0.16927344  0.83723496  0.17035579  1
  Ni  Ni8  1  1.00235958  0.67006449  0.33803309  1
  Ni  Ni9  1  0.33646286  1.00316957  1.00177557  1
  Fe  Fe10  1  0.50447094  0.16921901  0.17105213  1
  Ni  Ni11  1  0.33669656  0.00424301  0.33826907  1
  Fe  Fe12  1  0.33757503  0.33562705  0.00439558  1
  Fe  Fe13  1  0.50467857  0.50372016  0.16935237  1
  Ni  Ni14  1  0.33646470  0.33591419  0.33716988  1
  Ni  Ni15  1  0.33790887  0.67194104  0.00414051  1
  Ni  Ni16  1  0.50437199  0.83676071  0.16934850  1
  Fe  Fe17  1  0.33702925  0.67070981  0.33726522  1
  Ni  Ni18  1  0.66987312  1.00321726  1.00329006  1
  Fe  Fe19  1  0.83653331  0.16964687  0.17022471  1
  Ni  Ni20  1  0.66971350  1.00267971  0.33730945  1
  Ni  Ni21  1  0.67074773  0.33697899  1.00172610  1
  Ni  Ni22  1  0.83678589  0.50420999  0.16830011  1
  Ni  Ni23  1  0.67000769  0.33747990  0.33863006  1
  Ni  Ni24  1  0.66989206  0.67009779  1.00252014  1
  Ni  Ni25  1  0.83500906  0.83569852  0.17072135  1
  Ni  Ni26  1  0.67052725  0.67017038  0.33728008  1
  Ni  Ni27  1  0.16932224  0.16980204  0.50293680  1
  Fe  Fe28  1  0.00354446  1.00344982  0.67025293  1
  Ni  Ni29  1  0.16881258  0.16849563  0.83729778  1
  Ni  Ni30  1  0.16853833  0.50405194  0.50153483  1
  Ni  Ni31  1  1.00175087  0.33481656  0.66889939  1
  Cr  Cr32  1  0.16998964  0.50329226  0.83893061  1
  Ni  Ni33  1  0.17181715  0.83641241  0.50346140  1
  Fe  Fe34  1  1.00318459  0.67004785  0.66888474  1
  Fe  Fe35  1  0.16983091  0.83827115  0.83661678  1
  Ni  Ni36  1  0.50434376  0.16795761  0.50252296  1
  Fe  Fe37  1  0.33644307  1.00175484  0.66932950  1
  Fe  Fe38  1  0.50482119  0.16959758  0.83753231  1
  Fe  Fe39  1  0.50386151  0.50391814  0.50331374  1
  Cr  Cr40  1  0.33604000  0.33577070  0.66880876  1
  Ni  Ni41  1  0.50504727  0.50545823  0.83793170  1
  Ni  Ni42  1  0.50338150  0.83697944  0.50364986  1
  Ni  Ni43  1  0.33866165  0.67230032  0.66854642  1
  Fe  Fe44  1  0.50353909  0.83676804  0.83701334  1
  Ni  Ni45  1  0.83671591  0.17130734  0.50236069  1
  Fe  Fe46  1  0.67034011  0.00362260  0.66985293  1
  Ni  Ni47  1  0.83760921  0.16901944  0.83787061  1
  Ni  Ni48  1  0.83731055  0.50298799  0.50498637  1
  Fe  Fe49  1  0.67158180  0.33761879  0.67018156  1
  Fe  Fe50  1  0.83549173  0.50264190  0.83694748  1
  Fe  Fe51  1  0.83710084  0.83726028  0.50293122  1
  Ni  Ni52  1  0.66959545  0.67091006  0.67064260  1
  Ni  Ni53  1  0.83536866  0.83730652  0.83705149  1
" 