6856,Ni64Fe32Cr3_15,-240.308237147909, 215.45102686529,Ni64Fe32Cr3,"# generated using pymatgen
 data_Cr3(FeNi2)17
_symmetry_space_group_name_H-M   'P 1'
_cell_length_a   7.41787652
_cell_length_b   7.41787652
_cell_length_c   10.49046158
_cell_angle_alpha   90.00000000
_cell_angle_beta   90.00000000
_cell_angle_gamma   90.00000000
_symmetry_Int_Tables_number   1
_chemical_formula_structural   Cr3(FeNi2)17
_chemical_formula_sum   'Cr3 Fe17 Ni34'
_cell_volume   577.23651568
_cell_formula_units_Z   1
loop_
 _symmetry_equiv_pos_site_id
 _symmetry_equiv_pos_as_xyz
  1  'x, y, z'
loop_
 _atom_site_type_symbol
 _atom_site_label
 _atom_site_symmetry_multiplicity
 _atom_site_fract_x
 _atom_site_fract_y
 _atom_site_fract_z
 _atom_site_occupancy
  Ni  Ni0  1  1.00091963  0.00409987  0.00388165  1
  Fe  Fe1  1  0.16971901  0.17079964  0.17056075  1
  Fe  Fe2  1  0.00385950  1.00244123  0.33713631  1
  Ni  Ni3  1  0.00387487  0.33680857  0.00341706  1
  Fe  Fe4  1  0.16872754  0.50300560  0.16936116  1
  Fe  Fe5  1  1.00268573  0.33580129  0.33562446  1
  Ni  Ni6  1  1.00257397  0.66903184  1.00324008  1
  Ni  Ni7  1  0.16869657  0.83471074  0.17056158  1
  Ni  Ni8  1  1.00198978  0.67009577  0.33594753  1
  Cr  Cr9  1  0.33698311  0.00456891  1.00300716  1
  Ni  Ni10  1  0.50520616  0.17021863  0.17103801  1
  Ni  Ni11  1  0.33701931  0.00434253  0.33719720  1
  Ni  Ni12  1  0.33483446  0.33734641  1.00241476  1
  Cr  Cr13  1  0.50191488  0.50337957  0.16927924  1
  Ni  Ni14  1  0.33602537  0.33450867  0.33674762  1
  Ni  Ni15  1  0.33582467  0.66818543  1.00296319  1
  Fe  Fe16  1  0.50431643  0.83807925  0.17134837  1
  Ni  Ni17  1  0.33629498  0.67108967  0.33654600  1
  Ni  Ni18  1  0.67207974  1.00310925  1.00321403  1
  Ni  Ni19  1  0.83602545  0.16912831  0.16884816  1
  Ni  Ni20  1  0.66966626  1.00307364  0.33677856  1
  Fe  Fe21  1  0.67101560  0.33534077  1.00233732  1
  Fe  Fe22  1  0.83836345  0.50352202  0.16984880  1
  Fe  Fe23  1  0.66988678  0.33603583  0.33771489  1
  Ni  Ni24  1  0.67154398  0.67114252  1.00272193  1
  Fe  Fe25  1  0.83617332  0.83709016  0.16962003  1
  Ni  Ni26  1  0.67165696  0.67109047  0.33808309  1
  Ni  Ni27  1  0.16928254  0.16856994  0.50293555  1
  Ni  Ni28  1  0.00341982  0.00379025  0.66954647  1
  Ni  Ni29  1  0.16922703  0.17194940  0.83655874  1
  Cr  Cr30  1  0.17239671  0.50401754  0.50273935  1
  Fe  Fe31  1  1.00275935  0.33480990  0.67134765  1
  Ni  Ni32  1  0.17144237  0.50346697  0.83798776  1
  Ni  Ni33  1  0.17002019  0.83765435  0.50409899  1
  Fe  Fe34  1  1.00260028  0.67155234  0.67069286  1
  Fe  Fe35  1  0.16876694  0.83674563  0.83603325  1
  Fe  Fe36  1  0.50286446  0.16914233  0.50339050  1
  Ni  Ni37  1  0.33569177  0.00407945  0.66928722  1
  Ni  Ni38  1  0.50454029  0.17148730  0.83592846  1
  Ni  Ni39  1  0.50405685  0.50417547  0.50369824  1
  Ni  Ni40  1  0.33720929  0.33563162  0.67078041  1
  Fe  Fe41  1  0.50301399  0.50266234  0.83611017  1
  Ni  Ni42  1  0.50378817  0.83506722  0.50259530  1
  Ni  Ni43  1  0.33753463  0.67023419  0.67043288  1
  Fe  Fe44  1  0.50435482  0.83651572  0.83535993  1
  Ni  Ni45  1  0.83658871  0.16883329  0.50372706  1
  Ni  Ni46  1  0.67082801  0.00346478  0.66994958  1
  Ni  Ni47  1  0.83617457  0.16852672  0.83736931  1
  Fe  Fe48  1  0.83480159  0.50424172  0.50311253  1
  Ni  Ni49  1  0.66997060  0.33689987  0.66952905  1
  Fe  Fe50  1  0.83692857  0.50270235  0.83698081  1
  Ni  Ni51  1  0.83613363  0.83766332  0.50262883  1
  Ni  Ni52  1  0.67026219  0.66957562  0.66913304  1
  Ni  Ni53  1  0.83644079  0.83746943  0.83758282  1
" 