4387,Ni64Fe30Cr5_12,-239.599006520693, 211.58780335535,Ni64Fe30Cr5,"# generated using pymatgen
 data_Cr2Fe8Ni17
_symmetry_space_group_name_H-M   'P 1'
_cell_length_a   7.41894552
_cell_length_b   7.41894552
_cell_length_c   10.49197337
_cell_angle_alpha   90.00000000
_cell_angle_beta   90.00000000
_cell_angle_gamma   90.00000000
_symmetry_Int_Tables_number   1
_chemical_formula_structural   Cr2Fe8Ni17
_chemical_formula_sum   'Cr4 Fe16 Ni34'
_cell_volume   577.48610993
_cell_formula_units_Z   2
loop_
 _symmetry_equiv_pos_site_id
 _symmetry_equiv_pos_as_xyz
  1  'x, y, z'
loop_
 _atom_site_type_symbol
 _atom_site_label
 _atom_site_symmetry_multiplicity
 _atom_site_fract_x
 _atom_site_fract_y
 _atom_site_fract_z
 _atom_site_occupancy
  Ni  Ni0  1  1.00195099  0.00492023  1.00228762  1
  Fe  Fe1  1  0.16997611  0.17131253  0.17002969  1
  Ni  Ni2  1  1.00171428  0.00612422  0.33708874  1
  Ni  Ni3  1  0.00330609  0.33633758  0.00423580  1
  Fe  Fe4  1  0.17015638  0.50024589  0.17023694  1
  Ni  Ni5  1  1.00314123  0.33437316  0.33639470  1
  Ni  Ni6  1  1.00220364  0.66846537  1.00165389  1
  Cr  Cr7  1  0.16996019  0.83798458  0.16968646  1
  Cr  Cr8  1  1.00292682  0.66901382  0.33769226  1
  Ni  Ni9  1  0.33796660  0.00543620  1.00224841  1
  Ni  Ni10  1  0.50330663  0.16946530  0.17016276  1
  Fe  Fe11  1  0.33687854  0.00493653  0.33670489  1
  Fe  Fe12  1  0.33605251  0.33403151  1.00270372  1
  Fe  Fe13  1  0.50335393  0.50182394  0.17243345  1
  Ni  Ni14  1  0.33698221  0.33763617  0.33582407  1
  Cr  Cr15  1  0.33669722  0.66936198  1.00140920  1
  Ni  Ni16  1  0.50416744  0.83870860  0.17231828  1
  Ni  Ni17  1  0.33981188  0.66844949  0.33727636  1
  Ni  Ni18  1  0.66980121  0.00434868  0.00341869  1
  Fe  Fe19  1  0.83616961  0.16977739  0.17009493  1
  Fe  Fe20  1  0.67008568  0.00394321  0.33641761  1
  Fe  Fe21  1  0.67070415  0.33439746  0.00355008  1
  Ni  Ni22  1  0.83688576  0.50153599  0.17079894  1
  Ni  Ni23  1  0.66960227  0.33655606  0.33668121  1
  Cr  Cr24  1  0.67062019  0.67099925  0.00346866  1
  Fe  Fe25  1  0.83460815  0.83841372  0.16956009  1
  Fe  Fe26  1  0.66845845  0.66894633  0.33675202  1
  Ni  Ni27  1  0.16903833  0.17031469  0.50192161  1
  Ni  Ni28  1  1.00253790  0.00430740  0.67034246  1
  Ni  Ni29  1  0.17014738  0.16943467  0.83753373  1
  Ni  Ni30  1  0.17178804  0.50198293  0.50299734  1
  Ni  Ni31  1  0.00369015  0.33600921  0.66909269  1
  Ni  Ni32  1  0.16904371  0.50302773  0.83669994  1
  Fe  Fe33  1  0.17034913  0.83753659  0.50417450  1
  Fe  Fe34  1  0.00364605  0.67043625  0.67067222  1
  Ni  Ni35  1  0.16907994  0.83726000  0.83533268  1
  Fe  Fe36  1  0.50307206  0.17066992  0.50323403  1
  Ni  Ni37  1  0.33687929  1.00293205  0.66999061  1
  Ni  Ni38  1  0.50311841  0.16959691  0.83650443  1
  Ni  Ni39  1  0.50224481  0.50369241  0.50190085  1
  Ni  Ni40  1  0.33579772  0.33745513  0.67041859  1
  Ni  Ni41  1  0.50312943  0.50176391  0.83591058  1
  Fe  Fe42  1  0.50304269  0.83615634  0.50375840  1
  Ni  Ni43  1  0.33800399  0.66934029  0.67014117  1
  Ni  Ni44  1  0.50292734  0.83834910  0.83516294  1
  Ni  Ni45  1  0.83763745  0.16894254  0.50219674  1
  Ni  Ni46  1  0.67030931  1.00209834  0.67033179  1
  Ni  Ni47  1  0.83645764  0.16964046  0.83733310  1
  Fe  Fe48  1  0.83624206  0.50157839  0.50367446  1
  Fe  Fe49  1  0.66932401  0.33617727  0.66985095  1
  Ni  Ni50  1  0.83755209  0.50283717  0.83490865  1
  Ni  Ni51  1  0.83593034  0.83823834  0.50282511  1
  Ni  Ni52  1  0.66886161  0.67049058  0.66963490  1
  Ni  Ni53  1  0.83772042  0.83724568  0.83738553  1
" 