1239,Ni64Cr36_11,-213.732199967573, 140.030277093447,Ni64Cr36,"# generated using pymatgen
 data_Cr17Ni10
_symmetry_space_group_name_H-M   'P 1'
_cell_length_a   7.55065444
_cell_length_b   7.55065444
_cell_length_c   10.67823792
_cell_angle_alpha   90.00000000
_cell_angle_beta   90.00000000
_cell_angle_gamma   90.00000000
_symmetry_Int_Tables_number   1
_chemical_formula_structural   Cr17Ni10
_chemical_formula_sum   'Cr34 Ni20'
_cell_volume   608.79178478
_cell_formula_units_Z   2
loop_
 _symmetry_equiv_pos_site_id
 _symmetry_equiv_pos_as_xyz
  1  'x, y, z'
loop_
 _atom_site_type_symbol
 _atom_site_label
 _atom_site_symmetry_multiplicity
 _atom_site_fract_x
 _atom_site_fract_y
 _atom_site_fract_z
 _atom_site_occupancy
  Cr  Cr0  1  0.99151933  -0.00487299  -0.00426864  1
  Cr  Cr1  1  0.16277318  0.16112284  0.16077604  1
  Cr  Cr2  1  0.99223350  0.99279925  0.32907531  1
  Cr  Cr3  1  -0.00516488  0.32972218  0.99223563  1
  Ni  Ni4  1  0.16453300  0.49540039  0.15959812  1
  Cr  Cr5  1  -0.00516005  0.32879779  0.32810987  1
  Cr  Cr6  1  -0.00326785  0.65850339  -0.00546437  1
  Cr  Cr7  1  0.15956595  0.82678963  0.15924431  1
  Cr  Cr8  1  -0.00512609  0.66179846  0.32903420  1
  Cr  Cr9  1  0.33076611  0.99259862  -0.00492842  1
  Ni  Ni10  1  0.49537567  0.16466256  0.16209222  1
  Cr  Cr11  1  0.32915566  0.99339876  0.32870682  1
  Cr  Cr12  1  0.32683762  0.33159466  -0.00301697  1
  Ni  Ni13  1  0.49360658  0.49321819  0.16213606  1
  Cr  Cr14  1  0.32833334  0.33007489  0.32548493  1
  Ni  Ni15  1  0.32765724  0.65899174  -0.00539479  1
  Cr  Cr16  1  0.49568392  0.82548514  0.15984612  1
  Cr  Cr17  1  0.32778162  0.65992832  0.32830708  1
  Cr  Cr18  1  0.66110244  -0.00543515  0.99383742  1
  Cr  Cr19  1  0.82621535  0.16068682  0.16205496  1
  Cr  Cr20  1  0.66198080  0.99351820  0.32836501  1
  Cr  Cr21  1  0.66173708  0.32655462  0.99354898  1
  Cr  Cr22  1  0.82486360  0.49670593  0.16320388  1
  Ni  Ni23  1  0.66009473  0.32846356  0.32616914  1
  Cr  Cr24  1  0.65921029  0.66223757  0.99358376  1
  Ni  Ni25  1  0.82664377  0.82659287  0.16238518  1
  Ni  Ni26  1  0.66112711  0.66129607  0.32736242  1
  Cr  Cr27  1  0.16103692  0.15918516  0.49733257  1
  Ni  Ni28  1  -0.00547968  0.99293061  0.65899856  1
  Cr  Cr29  1  0.16076693  0.16037676  0.82536338  1
  Ni  Ni30  1  0.16090988  0.49681087  0.49661535  1
  Cr  Cr31  1  -0.00488373  0.32943566  0.66302422  1
  Ni  Ni32  1  0.15999952  0.49532468  0.82721110  1
  Ni  Ni33  1  0.15968062  0.82735804  0.49757663  1
  Ni  Ni34  1  -0.00372070  0.66205206  0.66023139  1
  Cr  Cr35  1  0.16267413  0.82749962  0.82695166  1
  Cr  Cr36  1  0.49416954  0.16183117  0.49507147  1
  Ni  Ni37  1  0.32674925  0.99318055  0.66021990  1
  Cr  Cr38  1  0.49331425  0.15996695  0.82599383  1
  Cr  Cr39  1  0.49541931  0.49446049  0.49248434  1
  Ni  Ni40  1  0.32487763  0.32772907  0.66120771  1
  Cr  Cr41  1  0.49408215  0.49597951  0.82788632  1
  Ni  Ni42  1  0.49432096  0.82793964  0.49474876  1
  Cr  Cr43  1  0.32557175  0.66168072  0.66025571  1
  Ni  Ni44  1  0.49254343  0.82767001  0.82803859  1
  Ni  Ni45  1  0.82813967  0.15866524  0.49450764  1
  Cr  Cr46  1  0.66145422  0.99350091  0.66121735  1
  Ni  Ni47  1  0.82887578  0.16236775  0.82694010  1
  Cr  Cr48  1  0.82685334  0.49574893  0.49326028  1
  Cr  Cr49  1  0.66277959  0.32613139  0.66301163  1
  Ni  Ni50  1  0.83062120  0.49337829  0.82701862  1
  Ni  Ni51  1  0.82935918  0.82862090  0.49482518  1
  Cr  Cr52  1  0.66215522  0.66373324  0.66143382  1
  Cr  Cr53  1  0.82868520  0.82684206  0.82752420  1
" 