6174,Ni64Fe34Cr1_17,-240.963150508702, 217.39103639244,Ni64Fe34Cr1,"# generated using pymatgen
 data_CrFe9Ni17
_symmetry_space_group_name_H-M   'P 1'
_cell_length_a   7.41322094
_cell_length_b   7.41322094
_cell_length_c   10.48387760
_cell_angle_alpha   90.00000000
_cell_angle_beta   90.00000000
_cell_angle_gamma   90.00000000
_symmetry_Int_Tables_number   1
_chemical_formula_structural   CrFe9Ni17
_chemical_formula_sum   'Cr2 Fe18 Ni34'
_cell_volume   576.15034996
_cell_formula_units_Z   2
loop_
 _symmetry_equiv_pos_site_id
 _symmetry_equiv_pos_as_xyz
  1  'x, y, z'
loop_
 _atom_site_type_symbol
 _atom_site_label
 _atom_site_symmetry_multiplicity
 _atom_site_fract_x
 _atom_site_fract_y
 _atom_site_fract_z
 _atom_site_occupancy
  Fe  Fe0  1  1.00312054  1.00211790  0.00418157  1
  Ni  Ni1  1  0.17065351  0.16970439  0.17082791  1
  Fe  Fe2  1  0.00450871  0.00444753  0.33690284  1
  Cr  Cr3  1  1.00293457  0.33804743  0.00433129  1
  Ni  Ni4  1  0.17304466  0.50404603  0.17144616  1
  Ni  Ni5  1  1.00294817  0.33668870  0.33678027  1
  Ni  Ni6  1  1.00280517  0.67189706  1.00333003  1
  Ni  Ni7  1  0.17005687  0.83713815  0.16955990  1
  Fe  Fe8  1  0.00456717  0.67003444  0.33638675  1
  Ni  Ni9  1  0.33683129  1.00328688  1.00352140  1
  Fe  Fe10  1  0.50269044  0.17057961  0.17068694  1
  Ni  Ni11  1  0.33579978  1.00343576  0.33690212  1
  Ni  Ni12  1  0.33818397  0.33572277  0.00375127  1
  Ni  Ni13  1  0.50246541  0.50345619  0.16976236  1
  Ni  Ni14  1  0.33643099  0.33642376  0.33752927  1
  Fe  Fe15  1  0.33723040  0.66916720  1.00356701  1
  Fe  Fe16  1  0.50269377  0.83710987  0.16996795  1
  Ni  Ni17  1  0.33584037  0.67103331  0.33534642  1
  Fe  Fe18  1  0.67082060  1.00354045  1.00290285  1
  Ni  Ni19  1  0.83675416  0.16868033  0.17117800  1
  Fe  Fe20  1  0.67092488  0.00546118  0.33689388  1
  Ni  Ni21  1  0.66943754  0.33752070  1.00324015  1
  Fe  Fe22  1  0.83696863  0.50422295  0.17082411  1
  Ni  Ni23  1  0.67151239  0.33672890  0.33736585  1
  Ni  Ni24  1  0.67123640  0.67054495  1.00341853  1
  Ni  Ni25  1  0.83734367  0.83815757  0.17003038  1
  Fe  Fe26  1  0.67030914  0.66846136  0.33637267  1
  Ni  Ni27  1  0.17016554  0.17008231  0.50342102  1
  Fe  Fe28  1  1.00226634  1.00361461  0.66980575  1
  Fe  Fe29  1  0.17088327  0.17019813  0.83650006  1
  Fe  Fe30  1  0.17012033  0.50321669  0.50347992  1
  Ni  Ni31  1  1.00271523  0.33667033  0.67010670  1
  Ni  Ni32  1  0.17212198  0.50400355  0.83620574  1
  Ni  Ni33  1  0.16887747  0.83768330  0.50381195  1
  Fe  Fe34  1  1.00236199  0.66998694  0.67081169  1
  Fe  Fe35  1  0.17018572  0.83587730  0.83717950  1
  Ni  Ni36  1  0.50329787  0.17277801  0.50361353  1
  Fe  Fe37  1  0.33704147  0.00433119  0.67060967  1
  Fe  Fe38  1  0.50465963  0.17077135  0.83685209  1
  Ni  Ni39  1  0.50372809  0.50179647  0.50423070  1
  Fe  Fe40  1  0.33801382  0.33766863  0.67020863  1
  Ni  Ni41  1  0.50295758  0.50420655  0.83689761  1
  Cr  Cr42  1  0.50366593  0.83597884  0.50303134  1
  Ni  Ni43  1  0.33645900  0.67078288  0.67161377  1
  Ni  Ni44  1  0.50399807  0.83606689  0.83750150  1
  Ni  Ni45  1  0.83743038  0.17055953  0.50364792  1
  Ni  Ni46  1  0.67112329  0.00403292  0.67102266  1
  Ni  Ni47  1  0.83642666  0.16916377  0.83606614  1
  Ni  Ni48  1  0.83606228  0.50308518  0.50352478  1
  Ni  Ni49  1  0.67192027  0.33669156  0.67028630  1
  Ni  Ni50  1  0.83581358  0.50401483  0.83705052  1
  Ni  Ni51  1  0.83876233  0.83724667  0.50403424  1
  Ni  Ni52  1  0.67065120  0.67016714  0.67069766  1
  Ni  Ni53  1  0.83622181  0.83771342  0.83682506  1
" 