1814,Ni64Fe29Cr6_16,-238.48999105911, 208.59327625476,Ni64Fe29Cr6,"# generated using pymatgen
 data_Cr5Fe15Ni34
_symmetry_space_group_name_H-M   'P 1'
_cell_length_a   7.42285576
_cell_length_b   7.42285576
_cell_length_c   10.49750328
_cell_angle_alpha   90.00000000
_cell_angle_beta   90.00000000
_cell_angle_gamma   90.00000000
_symmetry_Int_Tables_number   1
_chemical_formula_structural   Cr5Fe15Ni34
_chemical_formula_sum   'Cr5 Fe15 Ni34'
_cell_volume   578.39970351
_cell_formula_units_Z   1
loop_
 _symmetry_equiv_pos_site_id
 _symmetry_equiv_pos_as_xyz
  1  'x, y, z'
loop_
 _atom_site_type_symbol
 _atom_site_label
 _atom_site_symmetry_multiplicity
 _atom_site_fract_x
 _atom_site_fract_y
 _atom_site_fract_z
 _atom_site_occupancy
  Ni  Ni0  1  1.00231617  0.00375491  1.00241168  1
  Ni  Ni1  1  0.16793642  0.17021726  0.16951027  1
  Ni  Ni2  1  1.00176231  1.00206200  0.33613441  1
  Fe  Fe3  1  0.00362570  0.33315138  0.00310257  1
  Ni  Ni4  1  0.16996970  0.50041779  0.17014125  1
  Fe  Fe5  1  0.00396816  0.33800006  0.33688321  1
  Cr  Cr6  1  1.00262752  0.67098307  0.00430575  1
  Fe  Fe7  1  0.16882082  0.83639709  0.17050768  1
  Ni  Ni8  1  1.00230220  0.67075959  0.33622538  1
  Ni  Ni9  1  0.33520522  0.00415145  1.00203898  1
  Cr  Cr10  1  0.50200069  0.16973801  0.16935858  1
  Fe  Fe11  1  0.33384296  1.00226325  0.33839487  1
  Ni  Ni12  1  0.33807256  0.33654816  1.00202832  1
  Ni  Ni13  1  0.50285153  0.50296333  0.16920332  1
  Ni  Ni14  1  0.33747055  0.33742387  0.33778255  1
  Ni  Ni15  1  0.33734395  0.66812500  0.00366300  1
  Cr  Cr16  1  0.50296570  0.83504757  0.17087604  1
  Ni  Ni17  1  0.33559466  0.66622254  0.33677903  1
  Ni  Ni18  1  0.67134514  0.00422252  1.00130323  1
  Fe  Fe19  1  0.83801434  0.16975124  0.16939900  1
  Fe  Fe20  1  0.67102581  1.00156108  0.33845768  1
  Fe  Fe21  1  0.66988402  0.33717372  1.00145590  1
  Ni  Ni22  1  0.83645234  0.50269487  0.17030808  1
  Fe  Fe23  1  0.67010604  0.33866391  0.33813853  1
  Fe  Fe24  1  0.66811136  0.66986179  0.00304696  1
  Ni  Ni25  1  0.83622283  0.83720876  0.16996592  1
  Ni  Ni26  1  0.67098296  0.66798953  0.33743316  1
  Fe  Fe27  1  0.16915507  0.16918263  0.50316010  1
  Ni  Ni28  1  1.00289527  0.00420994  0.67049592  1
  Ni  Ni29  1  0.16815519  0.16711665  0.83557015  1
  Ni  Ni30  1  0.16998169  0.50254415  0.50244758  1
  Ni  Ni31  1  1.00060365  0.33440433  0.66830923  1
  Cr  Cr32  1  0.17051920  0.50041202  0.83547227  1
  Ni  Ni33  1  0.17052920  0.83675687  0.50135899  1
  Cr  Cr34  1  1.00224197  0.67132094  0.66806727  1
  Ni  Ni35  1  0.17300164  0.84042903  0.83783127  1
  Ni  Ni36  1  0.50390006  0.16879153  0.50341377  1
  Ni  Ni37  1  0.33687862  0.00326918  0.66946919  1
  Fe  Fe38  1  0.50273171  0.16963345  0.83579313  1
  Ni  Ni39  1  0.50257331  0.50322653  0.50302684  1
  Fe  Fe40  1  0.33709878  0.33407588  0.66839669  1
  Ni  Ni41  1  0.50504991  0.50490885  0.83683170  1
  Ni  Ni42  1  0.50274847  0.83680494  0.50248755  1
  Fe  Fe43  1  0.33871485  0.67165522  0.66875220  1
  Ni  Ni44  1  0.50262878  0.83665407  0.83654562  1
  Ni  Ni45  1  0.83635141  0.16932208  0.50204934  1
  Ni  Ni46  1  0.66924669  0.00475882  0.66924835  1
  Ni  Ni47  1  0.83739211  0.16970846  0.83713299  1
  Ni  Ni48  1  0.83650708  0.50174701  0.50246973  1
  Ni  Ni49  1  0.66899248  0.33610607  0.66945075  1
  Ni  Ni50  1  0.83305071  0.49987184  0.83607100  1
  Ni  Ni51  1  0.83554276  0.83814497  0.50317229  1
  Fe  Fe52  1  0.66835264  0.67006197  0.66860447  1
  Fe  Fe53  1  0.83507918  0.83827284  0.83626034  1
" 