4225,Ni64Fe30Cr5_14,-239.456260531226, 211.196144446312,Ni64Fe30Cr5,"# generated using pymatgen
 data_Cr2Fe8Ni17
_symmetry_space_group_name_H-M   'P 1'
_cell_length_a   7.41828740
_cell_length_b   7.41828740
_cell_length_c   10.49104265
_cell_angle_alpha   90.00000000
_cell_angle_beta   90.00000000
_cell_angle_gamma   90.00000000
_symmetry_Int_Tables_number   1
_chemical_formula_structural   Cr2Fe8Ni17
_chemical_formula_sum   'Cr4 Fe16 Ni34'
_cell_volume   577.33244187
_cell_formula_units_Z   2
loop_
 _symmetry_equiv_pos_site_id
 _symmetry_equiv_pos_as_xyz
  1  'x, y, z'
loop_
 _atom_site_type_symbol
 _atom_site_label
 _atom_site_symmetry_multiplicity
 _atom_site_fract_x
 _atom_site_fract_y
 _atom_site_fract_z
 _atom_site_occupancy
  Fe  Fe0  1  1.00324262  1.00236070  0.00331131  1
  Fe  Fe1  1  0.17046378  0.16943592  0.17005234  1
  Ni  Ni2  1  1.00269316  0.00417822  0.33610173  1
  Ni  Ni3  1  0.00452197  0.33645565  0.00369212  1
  Fe  Fe4  1  0.17099926  0.50278927  0.16974866  1
  Ni  Ni5  1  0.00352537  0.33444410  0.33615170  1
  Fe  Fe6  1  1.00325375  0.67110268  0.00418059  1
  Ni  Ni7  1  0.17089781  0.83894227  0.17036609  1
  Cr  Cr8  1  0.00569179  0.67112511  0.33686996  1
  Ni  Ni9  1  0.33686577  1.00125201  1.00277260  1
  Ni  Ni10  1  0.50222573  0.16860272  0.17088395  1
  Ni  Ni11  1  0.33593776  1.00294998  0.33663782  1
  Fe  Fe12  1  0.33776058  0.33639285  1.00282019  1
  Ni  Ni13  1  0.50327516  0.50412519  0.17168018  1
  Ni  Ni14  1  0.33695758  0.33745571  0.33593077  1
  Ni  Ni15  1  0.33648695  0.67138351  0.00333461  1
  Ni  Ni16  1  0.50266698  0.83712787  0.16960833  1
  Ni  Ni17  1  0.33682936  0.66945087  0.33614955  1
  Ni  Ni18  1  0.66889595  1.00219148  1.00264522  1
  Ni  Ni19  1  0.83823235  0.16952044  0.17105422  1
  Ni  Ni20  1  0.67107926  0.00478770  0.33552699  1
  Cr  Cr21  1  0.67034361  0.33545046  1.00297083  1
  Ni  Ni22  1  0.83646009  0.50253122  0.17034916  1
  Ni  Ni23  1  0.66932067  0.33485638  0.33604603  1
  Ni  Ni24  1  0.66842867  0.67135083  0.00437646  1
  Ni  Ni25  1  0.83604920  0.83778416  0.16886451  1
  Fe  Fe26  1  0.66922425  0.67033051  0.33470814  1
  Ni  Ni27  1  0.16968137  0.17028463  0.50241654  1
  Ni  Ni28  1  1.00326794  0.00379740  0.66929980  1
  Ni  Ni29  1  0.16918836  0.16980549  0.83815247  1
  Ni  Ni30  1  0.17196381  0.49934863  0.50476437  1
  Ni  Ni31  1  0.00373931  0.33361179  0.67063946  1
  Fe  Fe32  1  0.17210947  0.50309630  0.83616238  1
  Fe  Fe33  1  0.16984034  0.83665545  0.50407558  1
  Fe  Fe34  1  0.00395127  0.66937955  0.66992009  1
  Ni  Ni35  1  0.16950311  0.83773668  0.83463349  1
  Fe  Fe36  1  0.50277223  0.17245029  0.50263954  1
  Fe  Fe37  1  0.33534222  0.00528293  0.67131672  1
  Ni  Ni38  1  0.50118404  0.16932705  0.83485885  1
  Ni  Ni39  1  0.50179906  0.50214901  0.50300184  1
  Ni  Ni40  1  0.33685982  0.33775757  0.67073998  1
  Ni  Ni41  1  0.50404019  0.50468544  0.83539840  1
  Cr  Cr42  1  0.50416238  0.83614537  0.50268264  1
  Ni  Ni43  1  0.33676570  0.66992383  0.67013344  1
  Ni  Ni44  1  0.50274467  0.83608029  0.83739941  1
  Fe  Fe45  1  0.83694290  0.16925002  0.50271169  1
  Fe  Fe46  1  0.67020512  0.00438903  0.67105551  1
  Fe  Fe47  1  0.83718869  0.16852631  0.83635619  1
  Cr  Cr48  1  0.83467001  0.50277200  0.50320318  1
  Ni  Ni49  1  0.66942534  0.33627596  0.67071795  1
  Fe  Fe50  1  0.83738170  0.50386263  0.83629853  1
  Ni  Ni51  1  0.83672094  0.83924756  0.50433434  1
  Ni  Ni52  1  0.66819920  0.66996768  0.67161867  1
  Fe  Fe53  1  0.83549168  0.83728360  0.83610519  1
" 