5297,Ni64Fe34Cr1_0,-241.21527855942, 217.283529725444,Ni64Fe34Cr1,"# generated using pymatgen
 data_CrFe9Ni17
_symmetry_space_group_name_H-M   'P 1'
_cell_length_a   7.41194712
_cell_length_b   7.41194712
_cell_length_c   10.48207614
_cell_angle_alpha   90.00000000
_cell_angle_beta   90.00000000
_cell_angle_gamma   90.00000000
_symmetry_Int_Tables_number   1
_chemical_formula_structural   CrFe9Ni17
_chemical_formula_sum   'Cr2 Fe18 Ni34'
_cell_volume   575.85339938
_cell_formula_units_Z   2
loop_
 _symmetry_equiv_pos_site_id
 _symmetry_equiv_pos_as_xyz
  1  'x, y, z'
loop_
 _atom_site_type_symbol
 _atom_site_label
 _atom_site_symmetry_multiplicity
 _atom_site_fract_x
 _atom_site_fract_y
 _atom_site_fract_z
 _atom_site_occupancy
  Ni  Ni0  1  1.00341491  0.00461055  0.00390219  1
  Ni  Ni1  1  0.17102741  0.17113565  0.17098251  1
  Fe  Fe2  1  1.00341931  1.00285421  0.33665586  1
  Ni  Ni3  1  0.00378547  0.33584733  0.00376429  1
  Ni  Ni4  1  0.17133207  0.50386626  0.17022825  1
  Fe  Fe5  1  0.00517519  0.33792934  0.33688583  1
  Ni  Ni6  1  0.00502305  0.67069253  1.00241148  1
  Ni  Ni7  1  0.17029212  0.83614924  0.17053177  1
  Ni  Ni8  1  0.00493078  0.67115257  0.33797592  1
  Fe  Fe9  1  0.33635336  1.00356405  0.00389727  1
  Ni  Ni10  1  0.50361808  0.17006247  0.16945677  1
  Fe  Fe11  1  0.33747352  1.00294910  0.33693095  1
  Fe  Fe12  1  0.33679358  0.33740674  0.00423307  1
  Fe  Fe13  1  0.50247598  0.50431206  0.16924082  1
  Ni  Ni14  1  0.33506500  0.33750697  0.33715946  1
  Ni  Ni15  1  0.33636624  0.66984881  0.00376334  1
  Fe  Fe16  1  0.50371643  0.83760200  0.17095901  1
  Ni  Ni17  1  0.33591148  0.66961566  0.33749006  1
  Ni  Ni18  1  0.67160333  0.00484985  1.00321686  1
  Ni  Ni19  1  0.83650774  0.16902389  0.16940805  1
  Ni  Ni20  1  0.67140370  1.00274525  0.33770016  1
  Ni  Ni21  1  0.67076181  0.33607981  1.00313864  1
  Fe  Fe22  1  0.83861165  0.50435259  0.16932023  1
  Cr  Cr23  1  0.67018143  0.33634043  0.33712520  1
  Ni  Ni24  1  0.66976089  0.67022188  0.00397638  1
  Ni  Ni25  1  0.83647054  0.83748913  0.17100455  1
  Ni  Ni26  1  0.67030995  0.67253519  0.33728730  1
  Fe  Fe27  1  0.17045808  0.17101409  0.50289666  1
  Cr  Cr28  1  1.00262454  1.00363780  0.67061121  1
  Ni  Ni29  1  0.17119808  0.17109220  0.83817513  1
  Ni  Ni30  1  0.17069385  0.50409552  0.50391328  1
  Fe  Fe31  1  1.00305792  0.33898679  0.67087807  1
  Ni  Ni32  1  0.17119168  0.50400205  0.83700955  1
  Ni  Ni33  1  0.17217848  0.83524369  0.50261682  1
  Fe  Fe34  1  1.00334968  0.66939522  0.67020540  1
  Ni  Ni35  1  0.17123713  0.83605704  0.83800002  1
  Fe  Fe36  1  0.50360371  0.16897342  0.50376158  1
  Fe  Fe37  1  0.33889927  1.00252314  0.67032446  1
  Fe  Fe38  1  0.50426616  0.17062341  0.83753869  1
  Fe  Fe39  1  0.50316509  0.50588012  0.50471372  1
  Fe  Fe40  1  0.33741059  0.33756398  0.67027343  1
  Ni  Ni41  1  0.50363509  0.50372993  0.83696733  1
  Ni  Ni42  1  0.50395246  0.83734277  0.50336169  1
  Ni  Ni43  1  0.33714013  0.66934654  0.66989498  1
  Fe  Fe44  1  0.50406327  0.83619296  0.83635426  1
  Ni  Ni45  1  0.83581265  0.17040639  0.50336301  1
  Ni  Ni46  1  0.67006362  0.00408416  0.67023078  1
  Ni  Ni47  1  0.83571093  0.17079118  0.83837969  1
  Ni  Ni48  1  0.83790901  0.50416769  0.50451057  1
  Fe  Fe49  1  0.67068105  0.33744637  0.67084200  1
  Ni  Ni50  1  0.83632263  0.50369694  0.83721878  1
  Ni  Ni51  1  0.83502377  0.83658319  0.50264668  1
  Ni  Ni52  1  0.66930748  0.67043261  0.66988573  1
  Ni  Ni53  1  0.83597691  0.83666550  0.83749851  1
" 