2251,Ni64Fe32Cr3_10,-240.954638281781, 216.901322154551,Ni64Fe32Cr3,"# generated using pymatgen
 data_Cr3(FeNi2)17
_symmetry_space_group_name_H-M   'P 1'
_cell_length_a   7.42018392
_cell_length_b   7.42018392
_cell_length_c   10.49372473
_cell_angle_alpha   90.00000000
_cell_angle_beta   90.00000000
_cell_angle_gamma   90.00000000
_symmetry_Int_Tables_number   1
_chemical_formula_structural   Cr3(FeNi2)17
_chemical_formula_sum   'Cr3 Fe17 Ni34'
_cell_volume   577.77534727
_cell_formula_units_Z   1
loop_
 _symmetry_equiv_pos_site_id
 _symmetry_equiv_pos_as_xyz
  1  'x, y, z'
loop_
 _atom_site_type_symbol
 _atom_site_label
 _atom_site_symmetry_multiplicity
 _atom_site_fract_x
 _atom_site_fract_y
 _atom_site_fract_z
 _atom_site_occupancy
  Fe  Fe0  1  0.00338792  1.00156013  1.00307735  1
  Ni  Ni1  1  0.16868951  0.16965455  0.17087012  1
  Ni  Ni2  1  1.00313043  1.00285716  0.33455263  1
  Cr  Cr3  1  0.00425891  0.33704134  1.00276528  1
  Ni  Ni4  1  0.17211668  0.50376848  0.17004760  1
  Fe  Fe5  1  0.00457072  0.33595585  0.33563942  1
  Ni  Ni6  1  0.00377816  0.67087784  0.00335432  1
  Fe  Fe7  1  0.16948386  0.83660850  0.16923566  1
  Fe  Fe8  1  1.00296366  0.67074190  0.33637481  1
  Fe  Fe9  1  0.33494968  1.00235422  1.00274338  1
  Cr  Cr10  1  0.50315649  0.17080049  0.17033664  1
  Ni  Ni11  1  0.33603463  0.00371255  0.33744844  1
  Ni  Ni12  1  0.33663962  0.33840836  1.00219081  1
  Ni  Ni13  1  0.50177243  0.50460533  0.16982828  1
  Ni  Ni14  1  0.33521514  0.33707974  0.33720002  1
  Ni  Ni15  1  0.33610917  0.66862365  0.00426831  1
  Fe  Fe16  1  0.50343352  0.83537893  0.17048726  1
  Fe  Fe17  1  0.33735188  0.67005424  0.33663254  1
  Ni  Ni18  1  0.67100644  1.00213443  1.00304315  1
  Ni  Ni19  1  0.83744750  0.16692441  0.17059128  1
  Ni  Ni20  1  0.67030848  1.00077221  0.33664550  1
  Fe  Fe21  1  0.66884887  0.33791674  1.00179528  1
  Fe  Fe22  1  0.83611485  0.50365116  0.17016532  1
  Fe  Fe23  1  0.66896540  0.33712432  0.33679839  1
  Fe  Fe24  1  0.66964019  0.66942385  0.00364372  1
  Ni  Ni25  1  0.83661554  0.83761347  0.16956544  1
  Ni  Ni26  1  0.66998036  0.67068615  0.33636044  1
  Ni  Ni27  1  0.17155447  0.17064170  0.50284766  1
  Ni  Ni28  1  1.00240167  1.00226085  0.67141568  1
  Ni  Ni29  1  0.17013418  0.16912602  0.83575193  1
  Ni  Ni30  1  0.17136376  0.50269449  0.50364807  1
  Ni  Ni31  1  0.00434951  0.33751458  0.67042356  1
  Ni  Ni32  1  0.17176792  0.50395663  0.83577960  1
  Fe  Fe33  1  0.17036490  0.83683131  0.50382694  1
  Ni  Ni34  1  0.00371306  0.66969931  0.66974521  1
  Ni  Ni35  1  0.16876788  0.83638915  0.83662054  1
  Ni  Ni36  1  0.50143228  0.16988927  0.50329548  1
  Fe  Fe37  1  0.33576917  0.00383938  0.66907502  1
  Fe  Fe38  1  0.50357527  0.17044662  0.83612486  1
  Ni  Ni39  1  0.50169387  0.50351300  0.50280689  1
  Ni  Ni40  1  0.33628246  0.33752353  0.67008229  1
  Ni  Ni41  1  0.50248529  0.50290382  0.83684011  1
  Ni  Ni42  1  0.50439455  0.83607189  0.50269482  1
  Ni  Ni43  1  0.33577366  0.66854499  0.66938261  1
  Fe  Fe44  1  0.50309376  0.83618470  0.83624591  1
  Cr  Cr45  1  0.83664072  0.16790305  0.50291711  1
  Ni  Ni46  1  0.66999420  1.00276686  0.66978482  1
  Ni  Ni47  1  0.83594643  0.16790820  0.83611141  1
  Fe  Fe48  1  0.83604802  0.50460664  0.50398358  1
  Ni  Ni49  1  0.66884094  0.33621169  0.67084243  1
  Ni  Ni50  1  0.83521717  0.50426911  0.83553248  1
  Ni  Ni51  1  0.83566753  0.83587601  0.50356997  1
  Fe  Fe52  1  0.67028462  0.66932414  0.66917708  1
  Ni  Ni53  1  0.83699674  0.83729705  0.83633655  1
" 