3946,Ni64Fe29Cr6_1,-238.840321578886, 209.5440722804,Ni64Fe29Cr6,"# generated using pymatgen
 data_Cr5Fe15Ni34
_symmetry_space_group_name_H-M   'P 1'
_cell_length_a   7.42574176
_cell_length_b   7.42574176
_cell_length_c   10.50158471
_cell_angle_alpha   90.00000000
_cell_angle_beta   90.00000000
_cell_angle_gamma   90.00000000
_symmetry_Int_Tables_number   1
_chemical_formula_structural   Cr5Fe15Ni34
_chemical_formula_sum   'Cr5 Fe15 Ni34'
_cell_volume   579.07461125
_cell_formula_units_Z   1
loop_
 _symmetry_equiv_pos_site_id
 _symmetry_equiv_pos_as_xyz
  1  'x, y, z'
loop_
 _atom_site_type_symbol
 _atom_site_label
 _atom_site_symmetry_multiplicity
 _atom_site_fract_x
 _atom_site_fract_y
 _atom_site_fract_z
 _atom_site_occupancy
  Ni  Ni0  1  0.00390826  0.00391764  1.00260879  1
  Ni  Ni1  1  0.16920134  0.16924251  0.16883760  1
  Ni  Ni2  1  0.00411657  0.00433792  0.33671180  1
  Ni  Ni3  1  1.00165591  0.33255293  0.00452246  1
  Ni  Ni4  1  0.16838297  0.50353217  0.16867630  1
  Ni  Ni5  1  1.00232021  0.33432424  0.33545222  1
  Fe  Fe6  1  0.00422298  0.67044540  0.00356910  1
  Ni  Ni7  1  0.16789437  0.83574801  0.16869966  1
  Ni  Ni8  1  0.00288905  0.66950027  0.33553232  1
  Ni  Ni9  1  0.33430073  1.00254611  0.00393661  1
  Ni  Ni10  1  0.50370769  0.16857729  0.16990130  1
  Fe  Fe11  1  0.33297985  0.00368322  0.33612008  1
  Ni  Ni12  1  0.33611575  0.33366834  0.00292870  1
  Cr  Cr13  1  0.50078853  0.50092874  0.17085380  1
  Fe  Fe14  1  0.33181169  0.33468365  0.33601808  1
  Ni  Ni15  1  0.33734997  0.67241749  0.00323657  1
  Fe  Fe16  1  0.50217744  0.83845039  0.17100680  1
  Ni  Ni17  1  0.33472566  0.67168980  0.33487560  1
  Fe  Fe18  1  0.66937122  0.00462636  0.00306429  1
  Ni  Ni19  1  0.83554747  0.16828469  0.16850091  1
  Fe  Fe20  1  0.67201421  0.00337149  0.33530440  1
  Ni  Ni21  1  0.67082513  0.33557931  1.00277637  1
  Ni  Ni22  1  0.83782330  0.50247784  0.16959894  1
  Fe  Fe23  1  0.67254445  0.33465338  0.33599666  1
  Cr  Cr24  1  0.67031485  0.66990503  1.00220705  1
  Ni  Ni25  1  0.83774858  0.83777275  0.17030090  1
  Ni  Ni26  1  0.67112042  0.66956027  0.33565362  1
  Ni  Ni27  1  0.16867939  0.16975615  0.50382376  1
  Ni  Ni28  1  0.00460373  0.00399873  0.66881680  1
  Ni  Ni29  1  0.16791001  0.16808696  0.83582416  1
  Ni  Ni30  1  0.16860853  0.50394978  0.50254037  1
  Ni  Ni31  1  1.00040553  0.33382279  0.66828366  1
  Cr  Cr32  1  0.17034970  0.50261174  0.83718434  1
  Ni  Ni33  1  0.16803239  0.83494573  0.50382351  1
  Ni  Ni34  1  1.00181150  0.67016508  0.66808212  1
  Ni  Ni35  1  0.16819570  0.83692423  0.83584458  1
  Ni  Ni36  1  0.50432244  0.16989256  0.50330334  1
  Ni  Ni37  1  0.33433628  0.00365221  0.66914777  1
  Fe  Fe38  1  0.50162974  0.16846600  0.83645258  1
  Cr  Cr39  1  0.50142725  0.50177674  0.50268784  1
  Fe  Fe40  1  0.33425731  0.33501059  0.66953156  1
  Fe  Fe41  1  0.50357154  0.50148119  0.83564800  1
  Cr  Cr42  1  0.50363442  0.83720622  0.50221122  1
  Ni  Ni43  1  0.33653145  0.67223704  0.67042045  1
  Fe  Fe44  1  0.50101914  0.83841488  0.83477439  1
  Ni  Ni45  1  0.83561006  0.16829730  0.50308625  1
  Fe  Fe46  1  0.67111829  0.00344283  0.66990715  1
  Ni  Ni47  1  0.83526960  0.16810591  0.83690231  1
  Fe  Fe48  1  0.83807931  0.50178338  0.50208106  1
  Ni  Ni49  1  0.67082116  0.33597878  0.67015957  1
  Fe  Fe50  1  0.83831415  0.50101442  0.83554010  1
  Fe  Fe51  1  0.83838993  0.83665029  0.50252776  1
  Ni  Ni52  1  0.67055255  0.66768031  0.67043320  1
  Ni  Ni53  1  0.83684835  0.83835902  0.83425928  1
" 