1938,Ni64Fe34Cr1_19,-241.393186746251, 219.700639883028,Ni64Fe34Cr1,"# generated using pymatgen
 data_CrFe9Ni17
_symmetry_space_group_name_H-M   'P 1'
_cell_length_a   7.41529554
_cell_length_b   7.41529554
_cell_length_c   10.48681152
_cell_angle_alpha   90.00000000
_cell_angle_beta   90.00000000
_cell_angle_gamma   90.00000000
_symmetry_Int_Tables_number   1
_chemical_formula_structural   CrFe9Ni17
_chemical_formula_sum   'Cr2 Fe18 Ni34'
_cell_volume   576.63419319
_cell_formula_units_Z   2
loop_
 _symmetry_equiv_pos_site_id
 _symmetry_equiv_pos_as_xyz
  1  'x, y, z'
loop_
 _atom_site_type_symbol
 _atom_site_label
 _atom_site_symmetry_multiplicity
 _atom_site_fract_x
 _atom_site_fract_y
 _atom_site_fract_z
 _atom_site_occupancy
  Fe  Fe0  1  1.00283289  0.00358475  0.00369678  1
  Ni  Ni1  1  0.16979497  0.16993725  0.16963615  1
  Ni  Ni2  1  0.00391928  0.00514710  0.33609750  1
  Ni  Ni3  1  1.00099379  0.33655492  0.00416173  1
  Ni  Ni4  1  0.17013217  0.50433385  0.17026703  1
  Ni  Ni5  1  1.00226073  0.33606456  0.33697248  1
  Ni  Ni6  1  0.00412894  0.66966583  0.00482956  1
  Ni  Ni7  1  0.16986357  0.83619748  0.17021105  1
  Fe  Fe8  1  0.00458862  0.67046963  0.33598795  1
  Fe  Fe9  1  0.33700372  0.00379732  0.00376036  1
  Ni  Ni10  1  0.50367492  0.17016016  0.17040964  1
  Ni  Ni11  1  0.33645861  1.00227721  0.33679967  1
  Fe  Fe12  1  0.33814157  0.33650689  0.00463272  1
  Ni  Ni13  1  0.50275916  0.50353032  0.16939163  1
  Fe  Fe14  1  0.33591128  0.33634997  0.33697372  1
  Ni  Ni15  1  0.33701470  0.67110328  0.00451582  1
  Fe  Fe16  1  0.50238322  0.83682519  0.17022274  1
  Ni  Ni17  1  0.33727007  0.67066995  0.33693093  1
  Ni  Ni18  1  0.66995189  0.00532073  1.00322920  1
  Ni  Ni19  1  0.83699622  0.16989274  0.17002327  1
  Fe  Fe20  1  0.67022352  0.00390760  0.33730251  1
  Ni  Ni21  1  0.67138718  0.33610065  0.00363971  1
  Ni  Ni22  1  0.83757812  0.50346154  0.16989255  1
  Fe  Fe23  1  0.66984650  0.33618658  0.33618230  1
  Fe  Fe24  1  0.67075983  0.66911134  1.00244535  1
  Fe  Fe25  1  0.83756947  0.83705788  0.16999480  1
  Fe  Fe26  1  0.67000948  0.67037227  0.33774669  1
  Ni  Ni27  1  0.16975176  0.17115709  0.50399880  1
  Ni  Ni28  1  0.00390135  0.00421296  0.67069758  1
  Fe  Fe29  1  0.16986147  0.16841493  0.83637433  1
  Ni  Ni30  1  0.17091003  0.50311129  0.50306980  1
  Fe  Fe31  1  0.00422937  0.33536640  0.66908841  1
  Cr  Cr32  1  0.17042355  0.50356338  0.83715993  1
  Fe  Fe33  1  0.17115067  0.83772939  0.50297365  1
  Fe  Fe34  1  1.00200459  0.67220573  0.66998415  1
  Fe  Fe35  1  0.17045158  0.83807091  0.83720212  1
  Ni  Ni36  1  0.50254845  0.16863834  0.50282251  1
  Ni  Ni37  1  0.33627452  1.00215136  0.67030969  1
  Ni  Ni38  1  0.50339491  0.16842675  0.83723585  1
  Ni  Ni39  1  0.50088172  0.50511907  0.50337773  1
  Fe  Fe40  1  0.33691561  0.33557565  0.66886214  1
  Ni  Ni41  1  0.50365532  0.50488435  0.83770090  1
  Ni  Ni42  1  0.50449704  0.83670896  0.50386694  1
  Ni  Ni43  1  0.33822682  0.67159718  0.66902130  1
  Ni  Ni44  1  0.50450770  0.83715673  0.83655858  1
  Ni  Ni45  1  0.83816738  0.16754411  0.50280007  1
  Ni  Ni46  1  0.67029369  1.00244200  0.66939667  1
  Ni  Ni47  1  0.83718311  0.16813463  0.83764333  1
  Fe  Fe48  1  0.83714865  0.50372174  0.50267750  1
  Cr  Cr49  1  0.67098371  0.33690353  0.67045061  1
  Ni  Ni50  1  0.83659005  0.50484537  0.83722121  1
  Ni  Ni51  1  0.83615868  0.83786989  0.50379334  1
  Ni  Ni52  1  0.66883951  0.67080650  0.67122823  1
  Ni  Ni53  1  0.83602999  0.83749041  0.83696647  1
" 