7016,Ni64Fe34Cr1_15,-241.143176531253, 217.160285481626,Ni64Fe34Cr1,"# generated using pymatgen
 data_CrFe9Ni17
_symmetry_space_group_name_H-M   'P 1'
_cell_length_a   7.41268013
_cell_length_b   7.41268013
_cell_length_c   10.48311278
_cell_angle_alpha   90.00000000
_cell_angle_beta   90.00000000
_cell_angle_gamma   90.00000000
_symmetry_Int_Tables_number   1
_chemical_formula_structural   CrFe9Ni17
_chemical_formula_sum   'Cr2 Fe18 Ni34'
_cell_volume   576.02426433
_cell_formula_units_Z   2
loop_
 _symmetry_equiv_pos_site_id
 _symmetry_equiv_pos_as_xyz
  1  'x, y, z'
loop_
 _atom_site_type_symbol
 _atom_site_label
 _atom_site_symmetry_multiplicity
 _atom_site_fract_x
 _atom_site_fract_y
 _atom_site_fract_z
 _atom_site_occupancy
  Ni  Ni0  1  1.00362877  1.00300335  0.00386153  1
  Fe  Fe1  1  0.17002402  0.17077640  0.17062001  1
  Ni  Ni2  1  0.00390254  0.00421118  0.33679439  1
  Fe  Fe3  1  1.00289038  0.33716611  0.00425426  1
  Ni  Ni4  1  0.17061431  0.50389176  0.17008137  1
  Ni  Ni5  1  0.00497402  0.33643195  0.33614326  1
  Fe  Fe6  1  1.00303698  0.67008768  0.00387327  1
  Ni  Ni7  1  0.16953132  0.83719647  0.17120337  1
  Ni  Ni8  1  0.00369482  0.67035745  0.33495986  1
  Fe  Fe9  1  0.33724896  0.00387533  1.00333566  1
  Ni  Ni10  1  0.50389524  0.17098110  0.17061808  1
  Ni  Ni11  1  0.33705785  0.00474596  0.33714799  1
  Ni  Ni12  1  0.33804285  0.33708317  1.00328609  1
  Ni  Ni13  1  0.50371027  0.50271021  0.17088934  1
  Ni  Ni14  1  0.33690475  0.33681436  0.33733838  1
  Fe  Fe15  1  0.33748411  0.66991427  1.00316170  1
  Fe  Fe16  1  0.50461285  0.83661723  0.17089501  1
  Fe  Fe17  1  0.33655369  0.67041589  0.33754954  1
  Fe  Fe18  1  0.67052697  0.00401912  0.00431920  1
  Ni  Ni19  1  0.83656024  0.16989917  0.17066373  1
  Ni  Ni20  1  0.67004227  1.00346547  0.33590573  1
  Ni  Ni21  1  0.66905479  0.33844820  0.00419498  1
  Ni  Ni22  1  0.83667601  0.50372255  0.17098874  1
  Fe  Fe23  1  0.67018592  0.33569923  0.33542935  1
  Ni  Ni24  1  0.67071992  0.66952572  1.00313872  1
  Ni  Ni25  1  0.83774284  0.83737752  0.17048424  1
  Ni  Ni26  1  0.66965857  0.67051263  0.33552504  1
  Ni  Ni27  1  0.17019741  0.17051053  0.50274500  1
  Ni  Ni28  1  0.00419305  1.00352648  0.67034659  1
  Ni  Ni29  1  0.17049912  0.16953065  0.83755093  1
  Ni  Ni30  1  0.17284688  0.50240650  0.50432809  1
  Fe  Fe31  1  0.00583569  0.33598996  0.67027470  1
  Fe  Fe32  1  0.17073782  0.50454267  0.83643675  1
  Fe  Fe33  1  0.17181946  0.83702957  0.50399997  1
  Ni  Ni34  1  0.00466212  0.67125748  0.67253188  1
  Ni  Ni35  1  0.17023997  0.83861146  0.83571922  1
  Fe  Fe36  1  0.50296036  0.17056815  0.50301682  1
  Ni  Ni37  1  0.33647622  0.00403602  0.67059702  1
  Fe  Fe38  1  0.50320185  0.17037754  0.83757100  1
  Ni  Ni39  1  0.50121661  0.50419785  0.50347005  1
  Ni  Ni40  1  0.33782252  0.33733986  0.67037712  1
  Ni  Ni41  1  0.50441237  0.50389579  0.83664167  1
  Ni  Ni42  1  0.50197296  0.83674496  0.50333606  1
  Ni  Ni43  1  0.33713213  0.66962699  0.66990661  1
  Ni  Ni44  1  0.50366110  0.83647489  0.83739137  1
  Ni  Ni45  1  0.83827456  0.16974966  0.50385387  1
  Fe  Fe46  1  0.66917834  1.00353715  0.67048177  1
  Fe  Fe47  1  0.83719106  0.16961951  0.83710034  1
  Cr  Cr48  1  0.83718444  0.50236789  0.50260694  1
  Fe  Fe49  1  0.66932904  0.33668703  0.67161001  1
  Ni  Ni50  1  0.83599459  0.50415368  0.83686802  1
  Cr  Cr51  1  0.83703308  0.83895135  0.50348031  1
  Fe  Fe52  1  0.66788273  0.67077730  0.67234116  1
  Ni  Ni53  1  0.83709776  0.83656810  0.83678238  1
" 