3804,Ni64Fe34Cr1_4,-241.443876861572, 218.279229354121,Ni64Fe34Cr1,"# generated using pymatgen
 data_CrFe9Ni17
_symmetry_space_group_name_H-M   'P 1'
_cell_length_a   7.41378483
_cell_length_b   7.41378483
_cell_length_c   10.48467506
_cell_angle_alpha   90.00000000
_cell_angle_beta   90.00000000
_cell_angle_gamma   90.00000000
_symmetry_Int_Tables_number   1
_chemical_formula_structural   CrFe9Ni17
_chemical_formula_sum   'Cr2 Fe18 Ni34'
_cell_volume   576.28183523
_cell_formula_units_Z   2
loop_
 _symmetry_equiv_pos_site_id
 _symmetry_equiv_pos_as_xyz
  1  'x, y, z'
loop_
 _atom_site_type_symbol
 _atom_site_label
 _atom_site_symmetry_multiplicity
 _atom_site_fract_x
 _atom_site_fract_y
 _atom_site_fract_z
 _atom_site_occupancy
  Ni  Ni0  1  0.00383709  1.00354648  1.00278264  1
  Fe  Fe1  1  0.16997136  0.16883715  0.16915085  1
  Ni  Ni2  1  1.00290516  1.00211990  0.33661992  1
  Fe  Fe3  1  1.00319671  0.33686461  1.00281779  1
  Fe  Fe4  1  0.17003048  0.50587543  0.17005771  1
  Fe  Fe5  1  1.00052234  0.33806948  0.33699446  1
  Ni  Ni6  1  0.00408896  0.67001417  1.00318030  1
  Ni  Ni7  1  0.17151006  0.83786478  0.17120154  1
  Ni  Ni8  1  0.00427755  0.67058491  0.33726497  1
  Ni  Ni9  1  0.33696342  0.00405039  1.00342069  1
  Fe  Fe10  1  0.50444314  0.16902417  0.16982736  1
  Ni  Ni11  1  0.33757297  1.00149899  0.33644783  1
  Fe  Fe12  1  0.33734727  0.33686516  1.00329013  1
  Ni  Ni13  1  0.50593992  0.50527990  0.17017973  1
  Cr  Cr14  1  0.33872727  0.33823119  0.33685807  1
  Ni  Ni15  1  0.33671535  0.66950671  0.00381735  1
  Ni  Ni16  1  0.50188348  0.83659200  0.16998019  1
  Ni  Ni17  1  0.33618073  0.67123065  0.33714893  1
  Ni  Ni18  1  0.66997563  0.00415316  1.00338407  1
  Fe  Fe19  1  0.83636417  0.16963184  0.17057813  1
  Ni  Ni20  1  0.67029606  0.00453945  0.33728445  1
  Fe  Fe21  1  0.67023481  0.33746603  1.00319508  1
  Ni  Ni22  1  0.83603617  0.50286264  0.17048526  1
  Ni  Ni23  1  0.67094349  0.33667687  0.33743934  1
  Ni  Ni24  1  0.66997367  0.66966105  1.00300629  1
  Fe  Fe25  1  0.83648398  0.83605620  0.17012927  1
  Ni  Ni26  1  0.67031687  0.66955756  0.33745856  1
  Cr  Cr27  1  0.16876116  0.16814303  0.50443703  1
  Ni  Ni28  1  1.00269096  1.00294263  0.67137329  1
  Ni  Ni29  1  0.16980283  0.16828401  0.83703468  1
  Ni  Ni30  1  0.16801219  0.50688372  0.50404690  1
  Ni  Ni31  1  1.00286205  0.33802172  0.67068653  1
  Fe  Fe32  1  0.16996402  0.50298916  0.83634177  1
  Ni  Ni33  1  0.17146504  0.83535366  0.50263983  1
  Ni  Ni34  1  0.00481457  0.66981292  0.67033034  1
  Ni  Ni35  1  0.17039329  0.83810161  0.83693491  1
  Ni  Ni36  1  0.50674214  0.16839717  0.50383947  1
  Fe  Fe37  1  0.33721288  1.00332684  0.67096429  1
  Ni  Ni38  1  0.50371433  0.17036528  0.83730616  1
  Fe  Fe39  1  0.50437844  0.50407842  0.50390357  1
  Fe  Fe40  1  0.33742480  0.33699879  0.67113815  1
  Ni  Ni41  1  0.50525526  0.50355501  0.83687394  1
  Ni  Ni42  1  0.50238183  0.83744346  0.50303370  1
  Fe  Fe43  1  0.33621650  0.67044759  0.66994358  1
  Fe  Fe44  1  0.50387842  0.83757358  0.83762131  1
  Ni  Ni45  1  0.83497850  0.17185116  0.50315781  1
  Ni  Ni46  1  0.67021907  0.00539756  0.67010770  1
  Ni  Ni47  1  0.83725756  0.17124649  0.83690537  1
  Ni  Ni48  1  0.83706554  0.50252158  0.50303923  1
  Ni  Ni49  1  0.66973339  0.33588676  0.67003591  1
  Ni  Ni50  1  0.83601407  0.50296947  0.83725124  1
  Fe  Fe51  1  0.83731667  0.83737476  0.50344511  1
  Fe  Fe52  1  0.67156419  0.66971709  0.67038104  1
  Fe  Fe53  1  0.83711800  0.83763151  0.83720205  1
" 