3326,Ni64Fe32Cr3_1,-240.225091968583, 212.888489386511,Ni64Fe32Cr3,"# generated using pymatgen
 data_Cr3(FeNi2)17
_symmetry_space_group_name_H-M   'P 1'
_cell_length_a   7.41637430
_cell_length_b   7.41637430
_cell_length_c   10.48833712
_cell_angle_alpha   90.00000000
_cell_angle_beta   90.00000000
_cell_angle_gamma   90.00000000
_symmetry_Int_Tables_number   1
_chemical_formula_structural   Cr3(FeNi2)17
_chemical_formula_sum   'Cr3 Fe17 Ni34'
_cell_volume   576.88589357
_cell_formula_units_Z   1
loop_
 _symmetry_equiv_pos_site_id
 _symmetry_equiv_pos_as_xyz
  1  'x, y, z'
loop_
 _atom_site_type_symbol
 _atom_site_label
 _atom_site_symmetry_multiplicity
 _atom_site_fract_x
 _atom_site_fract_y
 _atom_site_fract_z
 _atom_site_occupancy
  Ni  Ni0  1  0.00521658  1.00302754  0.00420929  1
  Ni  Ni1  1  0.16806121  0.17007002  0.16994804  1
  Ni  Ni2  1  0.00355585  0.00424462  0.33627957  1
  Ni  Ni3  1  1.00270957  0.33742303  0.00466502  1
  Ni  Ni4  1  0.17184028  0.50261825  0.16887272  1
  Fe  Fe5  1  0.00455322  0.33437435  0.33704806  1
  Ni  Ni6  1  0.00343911  0.66979964  1.00333964  1
  Ni  Ni7  1  0.17086180  0.83755908  0.16953530  1
  Cr  Cr8  1  1.00319971  0.67047173  0.33605077  1
  Ni  Ni9  1  0.33450820  1.00175823  1.00305066  1
  Cr  Cr10  1  0.50256281  0.17075639  0.16979324  1
  Ni  Ni11  1  0.33600169  1.00338215  0.33741110  1
  Fe  Fe12  1  0.33582844  0.33824082  1.00330341  1
  Ni  Ni13  1  0.50265853  0.50542154  0.17021087  1
  Ni  Ni14  1  0.33674653  0.33710689  0.33725102  1
  Ni  Ni15  1  0.33687326  0.67047976  0.00475416  1
  Ni  Ni16  1  0.50258018  0.83370608  0.17074050  1
  Fe  Fe17  1  0.33760844  0.67017971  0.33572023  1
  Cr  Cr18  1  0.67046313  1.00246134  1.00266701  1
  Ni  Ni19  1  0.83960933  0.17014669  0.17137823  1
  Fe  Fe20  1  0.67111404  1.00267086  0.33758758  1
  Ni  Ni21  1  0.67120302  0.33978768  1.00285787  1
  Fe  Fe22  1  0.83618681  0.50298960  0.16859156  1
  Fe  Fe23  1  0.67082050  0.33674528  0.33740309  1
  Ni  Ni24  1  0.66993515  0.66797477  0.00410550  1
  Ni  Ni25  1  0.83680520  0.83748434  0.16941547  1
  Fe  Fe26  1  0.66838910  0.67083414  0.33620810  1
  Ni  Ni27  1  0.17003302  0.17074618  0.50312142  1
  Ni  Ni28  1  1.00301339  1.00285565  0.66975939  1
  Fe  Fe29  1  0.16961426  0.16935193  0.83647460  1
  Ni  Ni30  1  0.17137967  0.50164441  0.50481842  1
  Ni  Ni31  1  1.00294658  0.33743383  0.66878229  1
  Fe  Fe32  1  0.16946277  0.50414501  0.83683448  1
  Fe  Fe33  1  0.16946350  0.83816725  0.50409479  1
  Fe  Fe34  1  1.00307517  0.67002320  0.67009858  1
  Ni  Ni35  1  0.17061015  0.83742665  0.83664097  1
  Fe  Fe36  1  0.50337543  0.17055638  0.50365243  1
  Ni  Ni37  1  0.33703912  1.00332040  0.66978397  1
  Fe  Fe38  1  0.50355617  0.17034593  0.83560924  1
  Fe  Fe39  1  0.50369073  0.50234440  0.50345743  1
  Ni  Ni40  1  0.33710147  0.33696364  0.67026709  1
  Ni  Ni41  1  0.50366118  0.50343453  0.83683791  1
  Fe  Fe42  1  0.50366922  0.83734803  0.50351442  1
  Fe  Fe43  1  0.33677966  0.67002406  0.67087281  1
  Ni  Ni44  1  0.50218339  0.83562921  0.83636984  1
  Ni  Ni45  1  0.83729401  0.16976383  0.50324711  1
  Ni  Ni46  1  0.67019592  1.00332268  0.66958413  1
  Ni  Ni47  1  0.83751890  0.17093136  0.83562217  1
  Ni  Ni48  1  0.83620374  0.50237074  0.50426291  1
  Ni  Ni49  1  0.67020155  0.33702747  0.66981345  1
  Ni  Ni50  1  0.83572052  0.50264656  0.83700218  1
  Ni  Ni51  1  0.83551292  0.83811230  0.50497476  1
  Fe  Fe52  1  0.67039166  0.67015986  0.67072860  1
  Ni  Ni53  1  0.83745505  0.83667087  0.83585748  1
" 