1393,Ni64Fe7Cr28_10,-228.353584410775, 160.211127822167,Ni64Fe7Cr28,"# generated using pymatgen
 data_Cr8Fe2Ni17
_symmetry_space_group_name_H-M   'P 1'
_cell_length_a   7.47420345
_cell_length_b   7.47420345
_cell_length_c   10.57011989
_cell_angle_alpha   90.00000000
_cell_angle_beta   90.00000000
_cell_angle_gamma   90.00000000
_symmetry_Int_Tables_number   1
_chemical_formula_structural   Cr8Fe2Ni17
_chemical_formula_sum   'Cr16 Fe4 Ni34'
_cell_volume   590.48618848
_cell_formula_units_Z   2
loop_
 _symmetry_equiv_pos_site_id
 _symmetry_equiv_pos_as_xyz
  1  'x, y, z'
loop_
 _atom_site_type_symbol
 _atom_site_label
 _atom_site_symmetry_multiplicity
 _atom_site_fract_x
 _atom_site_fract_y
 _atom_site_fract_z
 _atom_site_occupancy
  Ni  Ni0  1  0.99474273  0.00181394  0.00033353  1
  Cr  Cr1  1  0.16345786  0.16638566  0.16659796  1
  Ni  Ni2  1  0.99708197  0.00006463  0.33277846  1
  Ni  Ni3  1  0.99899612  0.33308307  0.99845962  1
  Ni  Ni4  1  0.16587071  0.50026451  0.16454716  1
  Ni  Ni5  1  -0.00034558  0.33236265  0.33253586  1
  Fe  Fe6  1  -0.00047318  0.66367000  0.99913904  1
  Cr  Cr7  1  0.16525761  0.83208757  0.16592594  1
  Ni  Ni8  1  0.99722026  0.66613723  0.33276606  1
  Cr  Cr9  1  0.33452225  0.99787712  0.99938011  1
  Cr  Cr10  1  0.50256561  0.16676491  0.16629373  1
  Ni  Ni11  1  0.33465141  -0.00034985  0.33501778  1
  Ni  Ni12  1  0.33106010  0.33828591  0.00067694  1
  Ni  Ni13  1  0.50019605  0.50161322  0.16437403  1
  Cr  Cr14  1  0.33199089  0.33306872  0.33379410  1
  Ni  Ni15  1  0.33481087  0.66303644  -0.00003188  1
  Ni  Ni16  1  0.50171003  0.83089793  0.16601380  1
  Cr  Cr17  1  0.33527746  0.66536533  0.33281832  1
  Ni  Ni18  1  0.66918700  0.99803483  0.00014956  1
  Ni  Ni19  1  0.83294024  0.16540679  0.16574654  1
  Ni  Ni20  1  0.66681140  0.99723803  0.33251097  1
  Ni  Ni21  1  0.66853086  0.33328675  0.99884467  1
  Cr  Cr22  1  0.83183012  0.49861733  0.16681406  1
  Ni  Ni23  1  0.66656367  0.33286016  0.33306875  1
  Ni  Ni24  1  0.66399743  0.66723389  0.00070828  1
  Fe  Fe25  1  0.83083459  0.83422388  0.16699022  1
  Ni  Ni26  1  0.66622198  0.66846991  0.33275879  1
  Ni  Ni27  1  0.16762408  0.16568196  0.49993798  1
  Ni  Ni28  1  0.99833470  0.00124681  0.66545300  1
  Cr  Cr29  1  0.16452732  0.16692703  0.83241330  1
  Fe  Fe30  1  0.16644220  0.49815949  0.50138823  1
  Ni  Ni31  1  0.00167065  0.33340139  0.66758541  1
  Ni  Ni32  1  0.16409747  0.49998973  0.83275286  1
  Cr  Cr33  1  0.16501892  0.83455102  0.50085201  1
  Ni  Ni34  1  0.00103489  0.66385925  0.66676510  1
  Cr  Cr35  1  0.16749496  0.83101665  0.83181522  1
  Ni  Ni36  1  0.49781418  0.16560056  0.50025291  1
  Ni  Ni37  1  0.33494686  -0.00008503  0.66431804  1
  Cr  Cr38  1  0.50176444  0.16556066  0.83197362  1
  Ni  Ni39  1  0.49946984  0.49858253  0.49970149  1
  Ni  Ni40  1  0.33056191  0.33372513  0.66364538  1
  Cr  Cr41  1  0.49948556  0.49987641  0.83446485  1
  Ni  Ni42  1  0.50001963  0.83434874  0.49970897  1
  Ni  Ni43  1  0.33254740  0.66490515  0.66604367  1
  Ni  Ni44  1  0.49909982  0.83267648  0.83284899  1
  Cr  Cr45  1  0.83288061  0.16562128  0.49936693  1
  Ni  Ni46  1  0.66529013  0.99934021  0.66589243  1
  Ni  Ni47  1  0.83304225  0.16822993  0.83330968  1
  Cr  Cr48  1  0.83265559  0.50059625  0.49870422  1
  Fe  Fe49  1  0.66622769  0.33113846  0.66617402  1
  Ni  Ni50  1  0.83541640  0.49679602  0.83357376  1
  Ni  Ni51  1  0.83278950  0.83293185  0.49761963  1
  Cr  Cr52  1  0.66534774  0.66835929  0.66510308  1
  Cr  Cr53  1  0.83303486  0.83331224  0.83347289  1
" 