7169,Ni64Fe7Cr28_4,-228.344767969803, 158.928922431216,Ni64Fe7Cr28,"# generated using pymatgen
 data_Cr8Fe2Ni17
_symmetry_space_group_name_H-M   'P 1'
_cell_length_a   7.47438320
_cell_length_b   7.47438320
_cell_length_c   10.57037410
_cell_angle_alpha   90.00000000
_cell_angle_beta   90.00000000
_cell_angle_gamma   90.00000000
_symmetry_Int_Tables_number   1
_chemical_formula_structural   Cr8Fe2Ni17
_chemical_formula_sum   'Cr16 Fe4 Ni34'
_cell_volume   590.52879277
_cell_formula_units_Z   2
loop_
 _symmetry_equiv_pos_site_id
 _symmetry_equiv_pos_as_xyz
  1  'x, y, z'
loop_
 _atom_site_type_symbol
 _atom_site_label
 _atom_site_symmetry_multiplicity
 _atom_site_fract_x
 _atom_site_fract_y
 _atom_site_fract_z
 _atom_site_occupancy
  Ni  Ni0  1  0.99913663  -0.00010200  0.00087683  1
  Ni  Ni1  1  0.16426970  0.16444858  0.16536046  1
  Ni  Ni2  1  0.00468957  0.99845598  0.33192597  1
  Ni  Ni3  1  0.00072333  0.33465262  0.99917100  1
  Ni  Ni4  1  0.16491697  0.50139086  0.16300266  1
  Cr  Cr5  1  0.99899938  0.33296276  0.33175703  1
  Ni  Ni6  1  0.99850526  0.66391942  0.00124931  1
  Ni  Ni7  1  0.16662278  0.83273800  0.16791645  1
  Cr  Cr8  1  0.99843347  0.66676155  0.33188147  1
  Cr  Cr9  1  0.33322373  0.00103724  0.00063491  1
  Cr  Cr10  1  0.49983152  0.16594945  0.16632977  1
  Ni  Ni11  1  0.32959022  0.99792602  0.33326794  1
  Ni  Ni12  1  0.33080900  0.33380249  0.99752374  1
  Cr  Cr13  1  0.49978030  0.50146642  0.16605366  1
  Cr  Cr14  1  0.33329226  0.33106882  0.33395589  1
  Fe  Fe15  1  0.33185810  0.66387554  0.00025978  1
  Ni  Ni16  1  0.49845821  0.83094043  0.16616072  1
  Ni  Ni17  1  0.33405598  0.66913348  0.33111612  1
  Ni  Ni18  1  0.66719423  0.99889613  0.99937534  1
  Cr  Cr19  1  0.83422690  0.16717014  0.16488986  1
  Cr  Cr20  1  0.66428544  0.99819919  0.33099684  1
  Ni  Ni21  1  0.66692712  0.33437787  0.99678474  1
  Ni  Ni22  1  0.83327592  0.50068265  0.16528522  1
  Ni  Ni23  1  0.66591301  0.33699503  0.33546268  1
  Ni  Ni24  1  0.66814177  0.66519466  0.00096243  1
  Fe  Fe25  1  0.83358183  0.83117302  0.16418810  1
  Ni  Ni26  1  0.66535242  0.66347024  0.33209621  1
  Ni  Ni27  1  0.16843635  0.16199128  0.50014204  1
  Ni  Ni28  1  0.00165695  0.99914268  0.66571943  1
  Fe  Fe29  1  0.16613753  0.16842768  0.83289940  1
  Cr  Cr30  1  0.16834627  0.50146240  0.50100166  1
  Cr  Cr31  1  0.99925020  0.33400801  0.66799433  1
  Ni  Ni32  1  0.16711687  0.49914944  0.83448785  1
  Fe  Fe33  1  0.16738542  0.83494336  0.50022192  1
  Ni  Ni34  1  0.99909503  0.66613332  0.66593084  1
  Cr  Cr35  1  0.16513604  0.83068406  0.82976977  1
  Ni  Ni36  1  0.49766299  0.16757682  0.50104602  1
  Ni  Ni37  1  0.33233950  0.00220679  0.66414550  1
  Ni  Ni38  1  0.50159767  0.16885650  0.83144492  1
  Ni  Ni39  1  0.50146119  0.49900260  0.50016314  1
  Ni  Ni40  1  0.33562684  0.33171355  0.66708263  1
  Ni  Ni41  1  0.49880065  0.49705076  0.83229620  1
  Cr  Cr42  1  0.49711215  0.83139730  0.50069749  1
  Ni  Ni43  1  0.33303431  0.66461500  0.66654545  1
  Cr  Cr44  1  0.50017883  0.83189103  0.83218838  1
  Cr  Cr45  1  0.83223455  0.16675890  0.49971478  1
  Ni  Ni46  1  0.66468188  0.00175104  0.66790081  1
  Ni  Ni47  1  0.83137137  0.16688971  0.83372391  1
  Ni  Ni48  1  0.82872228  0.50039497  0.50011768  1
  Ni  Ni49  1  0.66318322  0.33411039  0.66627362  1
  Ni  Ni50  1  0.83259048  0.49790211  0.83318447  1
  Cr  Cr51  1  0.83460066  0.83205141  0.50200911  1
  Ni  Ni52  1  0.66642695  0.66268506  0.66568092  1
  Cr  Cr53  1  0.83322013  0.83411859  0.83263398  1
" 