4329,Ni64Fe32Cr3_12,-240.451264140754, 217.136178771489,Ni64Fe32Cr3,"# generated using pymatgen
 data_Cr3(FeNi2)17
_symmetry_space_group_name_H-M   'P 1'
_cell_length_a   7.41474545
_cell_length_b   7.41474545
_cell_length_c   10.48603358
_cell_angle_alpha   90.00000000
_cell_angle_beta   90.00000000
_cell_angle_gamma   90.00000000
_symmetry_Int_Tables_number   1
_chemical_formula_structural   Cr3(FeNi2)17
_chemical_formula_sum   'Cr3 Fe17 Ni34'
_cell_volume   576.50587471
_cell_formula_units_Z   1
loop_
 _symmetry_equiv_pos_site_id
 _symmetry_equiv_pos_as_xyz
  1  'x, y, z'
loop_
 _atom_site_type_symbol
 _atom_site_label
 _atom_site_symmetry_multiplicity
 _atom_site_fract_x
 _atom_site_fract_y
 _atom_site_fract_z
 _atom_site_occupancy
  Fe  Fe0  1  1.00316522  1.00242949  1.00294532  1
  Ni  Ni1  1  0.16977712  0.16907451  0.17193045  1
  Fe  Fe2  1  1.00258194  0.00362911  0.33675720  1
  Fe  Fe3  1  1.00268132  0.33666964  1.00314694  1
  Fe  Fe4  1  0.17113937  0.50442255  0.17121855  1
  Ni  Ni5  1  0.00379949  0.33660698  0.33747581  1
  Ni  Ni6  1  0.00440962  0.67091474  1.00288287  1
  Fe  Fe7  1  0.17076872  0.83697114  0.16993423  1
  Ni  Ni8  1  0.00464135  0.66993061  0.33711337  1
  Fe  Fe9  1  0.33704438  1.00105121  0.00378051  1
  Ni  Ni10  1  0.50348883  0.16871948  0.17122989  1
  Ni  Ni11  1  0.33810787  0.00377545  0.33633302  1
  Cr  Cr12  1  0.33669026  0.33791518  0.00464005  1
  Ni  Ni13  1  0.50287035  0.50505220  0.17220978  1
  Fe  Fe14  1  0.33734166  0.33712380  0.33669859  1
  Ni  Ni15  1  0.33595790  0.67065629  0.00373107  1
  Ni  Ni16  1  0.50343545  0.83680934  0.16943567  1
  Ni  Ni17  1  0.33617394  0.67016692  0.33575253  1
  Ni  Ni18  1  0.67104235  0.00371144  0.00411470  1
  Ni  Ni19  1  0.83731560  0.16851181  0.16982259  1
  Ni  Ni20  1  0.66979803  0.00461826  0.33632981  1
  Fe  Fe21  1  0.67064714  0.33728548  1.00285368  1
  Cr  Cr22  1  0.83612802  0.50426325  0.16988494  1
  Ni  Ni23  1  0.67003397  0.33467118  0.33659342  1
  Ni  Ni24  1  0.67021263  0.67219756  1.00228407  1
  Ni  Ni25  1  0.83623416  0.83815348  0.17112413  1
  Ni  Ni26  1  0.66976583  0.67129004  0.33787829  1
  Fe  Fe27  1  0.17041839  0.17032259  0.50383340  1
  Ni  Ni28  1  0.00485995  1.00289194  0.67014152  1
  Ni  Ni29  1  0.16990377  0.16868258  0.83456661  1
  Ni  Ni30  1  0.16914774  0.50376107  0.50359235  1
  Fe  Fe31  1  0.00433797  0.33699306  0.66970309  1
  Ni  Ni32  1  0.16936892  0.50428367  0.83647444  1
  Fe  Fe33  1  0.17046262  0.83662005  0.50435192  1
  Ni  Ni34  1  0.00456737  0.67019816  0.67058694  1
  Ni  Ni35  1  0.17021013  0.83761138  0.83663083  1
  Ni  Ni36  1  0.50284086  0.16956460  0.50248936  1
  Ni  Ni37  1  0.33514128  0.00420098  0.67150489  1
  Fe  Fe38  1  0.50308850  0.17075402  0.83629934  1
  Fe  Fe39  1  0.50409298  0.50301106  0.50365242  1
  Ni  Ni40  1  0.33725433  0.33716082  0.66946155  1
  Ni  Ni41  1  0.50484092  0.50454063  0.83498018  1
  Ni  Ni42  1  0.50232143  0.83699667  0.50311926  1
  Ni  Ni43  1  0.33510074  0.66921662  0.67109872  1
  Fe  Fe44  1  0.50202485  0.83501763  0.83790125  1
  Ni  Ni45  1  0.83726526  0.17166627  0.50253212  1
  Cr  Cr46  1  0.67061452  0.00455926  0.66992761  1
  Fe  Fe47  1  0.83827241  0.17122057  0.83743396  1
  Ni  Ni48  1  0.83772321  0.50324547  0.50411689  1
  Ni  Ni49  1  0.66960102  0.33745230  0.67111120  1
  Ni  Ni50  1  0.83636980  0.50423239  0.83651227  1
  Fe  Fe51  1  0.83744242  0.83587536  0.50260631  1
  Fe  Fe52  1  0.66996127  0.66852434  0.67053209  1
  Ni  Ni53  1  0.83796753  0.83522810  0.83719066  1
" 