7483,Ni64Fe34Cr1_9,-241.038418712023, 217.409219945061,Ni64Fe34Cr1,"# generated using pymatgen
 data_CrFe9Ni17
_symmetry_space_group_name_H-M   'P 1'
_cell_length_a   7.41218403
_cell_length_b   7.41218403
_cell_length_c   10.48241118
_cell_angle_alpha   90.00000000
_cell_angle_beta   90.00000000
_cell_angle_gamma   90.00000000
_symmetry_Int_Tables_number   1
_chemical_formula_structural   CrFe9Ni17
_chemical_formula_sum   'Cr2 Fe18 Ni34'
_cell_volume   575.90861905
_cell_formula_units_Z   2
loop_
 _symmetry_equiv_pos_site_id
 _symmetry_equiv_pos_as_xyz
  1  'x, y, z'
loop_
 _atom_site_type_symbol
 _atom_site_label
 _atom_site_symmetry_multiplicity
 _atom_site_fract_x
 _atom_site_fract_y
 _atom_site_fract_z
 _atom_site_occupancy
  Fe  Fe0  1  0.00443430  0.00590002  1.00312867  1
  Ni  Ni1  1  0.16989503  0.17035045  0.17004997  1
  Fe  Fe2  1  1.00298660  1.00267330  0.33672832  1
  Ni  Ni3  1  0.00382419  0.33568226  1.00343138  1
  Ni  Ni4  1  0.17022182  0.50225888  0.17165626  1
  Fe  Fe5  1  1.00239507  0.33852685  0.33575307  1
  Cr  Cr6  1  0.00404161  0.67002287  1.00297163  1
  Ni  Ni7  1  0.17257129  0.83849686  0.17097928  1
  Ni  Ni8  1  0.00532306  0.67050085  0.33769803  1
  Ni  Ni9  1  0.33714806  0.00426969  1.00344132  1
  Fe  Fe10  1  0.50304418  0.17053193  0.16994062  1
  Fe  Fe11  1  0.33801914  1.00185242  0.33551402  1
  Ni  Ni12  1  0.33711309  0.33622632  0.00453072  1
  Fe  Fe13  1  0.50284209  0.50407513  0.16999830  1
  Fe  Fe14  1  0.33774975  0.33849850  0.33651042  1
  Ni  Ni15  1  0.33815266  0.67060806  1.00304221  1
  Ni  Ni16  1  0.50344177  0.83694732  0.16994373  1
  Ni  Ni17  1  0.33487723  0.67026157  0.33745443  1
  Fe  Fe18  1  0.66938193  1.00368840  1.00315176  1
  Fe  Fe19  1  0.83750938  0.17069160  0.17066772  1
  Ni  Ni20  1  0.67038736  0.00519954  0.33737710  1
  Ni  Ni21  1  0.67016197  0.33668480  1.00284920  1
  Ni  Ni22  1  0.83639359  0.50243477  0.17100139  1
  Ni  Ni23  1  0.67014738  0.33538881  0.33805496  1
  Ni  Ni24  1  0.66914786  0.67016922  0.00446676  1
  Fe  Fe25  1  0.83710234  0.83718866  0.17091339  1
  Fe  Fe26  1  0.67012667  0.67016559  0.33715135  1
  Cr  Cr27  1  0.16912255  0.17009880  0.50345520  1
  Ni  Ni28  1  1.00227602  1.00205501  0.67112328  1
  Ni  Ni29  1  0.16983919  0.17083143  0.83771312  1
  Ni  Ni30  1  0.17001118  0.50526855  0.50309333  1
  Fe  Fe31  1  1.00239679  0.33785101  0.67167229  1
  Ni  Ni32  1  0.17089547  0.50184744  0.83635099  1
  Ni  Ni33  1  0.17157667  0.83587538  0.50363627  1
  Ni  Ni34  1  1.00364449  0.67097284  0.66989023  1
  Fe  Fe35  1  0.17089980  0.83788889  0.83623920  1
  Fe  Fe36  1  0.50555676  0.17091614  0.50395320  1
  Fe  Fe37  1  0.33789129  1.00233667  0.67165118  1
  Ni  Ni38  1  0.50338893  0.16953110  0.83679353  1
  Ni  Ni39  1  0.50457012  0.50524832  0.50311946  1
  Ni  Ni40  1  0.33786590  0.33758248  0.67093975  1
  Ni  Ni41  1  0.50392825  0.50474755  0.83812522  1
  Ni  Ni42  1  0.50359592  0.83648524  0.50366306  1
  Fe  Fe43  1  0.33719778  0.67067215  0.66986403  1
  Ni  Ni44  1  0.50438531  0.83682349  0.83749153  1
  Ni  Ni45  1  0.83591356  0.17093628  0.50355203  1
  Ni  Ni46  1  0.67094932  0.00389982  0.67032857  1
  Ni  Ni47  1  0.83787620  0.17037387  0.83772760  1
  Ni  Ni48  1  0.83652220  0.50295758  0.50395148  1
  Fe  Fe49  1  0.67107617  0.33715450  0.67030704  1
  Ni  Ni50  1  0.83628050  0.50285138  0.83614830  1
  Fe  Fe51  1  0.83733111  0.83647521  0.50465103  1
  Ni  Ni52  1  0.67144258  0.67099311  0.66955865  1
  Ni  Ni53  1  0.83497540  0.83787995  0.83644331  1
" 