2957,Ni64Fe34Cr1_5,-241.217993886974, 220.253409267217,Ni64Fe34Cr1,"# generated using pymatgen
 data_CrFe9Ni17
_symmetry_space_group_name_H-M   'P 1'
_cell_length_a   7.41380625
_cell_length_b   7.41380625
_cell_length_c   10.48470534
_cell_angle_alpha   90.00000000
_cell_angle_beta   90.00000000
_cell_angle_gamma   90.00000000
_symmetry_Int_Tables_number   1
_chemical_formula_structural   CrFe9Ni17
_chemical_formula_sum   'Cr2 Fe18 Ni34'
_cell_volume   576.28682896
_cell_formula_units_Z   2
loop_
 _symmetry_equiv_pos_site_id
 _symmetry_equiv_pos_as_xyz
  1  'x, y, z'
loop_
 _atom_site_type_symbol
 _atom_site_label
 _atom_site_symmetry_multiplicity
 _atom_site_fract_x
 _atom_site_fract_y
 _atom_site_fract_z
 _atom_site_occupancy
  Ni  Ni0  1  1.00298028  0.00470365  1.00348032  1
  Ni  Ni1  1  0.16852695  0.16994606  0.17066067  1
  Fe  Fe2  1  0.00396995  0.00485944  0.33552119  1
  Ni  Ni3  1  1.00299972  0.33576889  1.00353294  1
  Ni  Ni4  1  0.17061607  0.50440931  0.17059888  1
  Ni  Ni5  1  0.00428785  0.33589611  0.33736910  1
  Fe  Fe6  1  0.00438894  0.67133067  1.00330625  1
  Ni  Ni7  1  0.16941962  0.83641698  0.17021394  1
  Fe  Fe8  1  0.00448527  0.66896552  0.33650266  1
  Ni  Ni9  1  0.33690576  1.00180221  0.00369816  1
  Fe  Fe10  1  0.50407045  0.16932434  0.17117024  1
  Fe  Fe11  1  0.33741446  0.00402686  0.33708780  1
  Cr  Cr12  1  0.33506792  0.33744563  0.00383335  1
  Ni  Ni13  1  0.50391570  0.50416953  0.17087469  1
  Ni  Ni14  1  0.33552202  0.33724767  0.33726766  1
  Ni  Ni15  1  0.33793723  0.67185098  1.00305079  1
  Fe  Fe16  1  0.50348344  0.83661715  0.17005015  1
  Ni  Ni17  1  0.33740963  0.67011568  0.33743731  1
  Ni  Ni18  1  0.67088666  1.00210147  1.00352973  1
  Ni  Ni19  1  0.83670474  0.16945416  0.17012854  1
  Ni  Ni20  1  0.67015025  0.00368275  0.33623263  1
  Fe  Fe21  1  0.67123631  0.33637348  0.00390576  1
  Fe  Fe22  1  0.83758502  0.50338404  0.17046359  1
  Ni  Ni23  1  0.67096364  0.33618826  0.33714715  1
  Ni  Ni24  1  0.66953647  0.67187453  0.00364773  1
  Ni  Ni25  1  0.83694516  0.83803687  0.16970579  1
  Ni  Ni26  1  0.66880078  0.67089962  0.33658266  1
  Ni  Ni27  1  0.16998689  0.17151887  0.50394126  1
  Fe  Fe28  1  0.00508452  0.00374853  0.67092520  1
  Fe  Fe29  1  0.17062277  0.16981466  0.83648164  1
  Ni  Ni30  1  0.17057849  0.50352111  0.50355408  1
  Ni  Ni31  1  0.00471338  0.33636526  0.66987183  1
  Ni  Ni32  1  0.16978907  0.50510054  0.83661969  1
  Ni  Ni33  1  0.17159298  0.83572891  0.50355157  1
  Ni  Ni34  1  0.00427734  0.66927344  0.67102647  1
  Ni  Ni35  1  0.17006478  0.83572264  0.83700627  1
  Ni  Ni36  1  0.50455704  0.17075206  0.50317068  1
  Fe  Fe37  1  0.33670187  1.00295196  0.67048258  1
  Ni  Ni38  1  0.50555164  0.16991195  0.83671848  1
  Fe  Fe39  1  0.50277027  0.50360233  0.50326363  1
  Ni  Ni40  1  0.33557587  0.33693961  0.66985717  1
  Ni  Ni41  1  0.50394822  0.50413526  0.83558956  1
  Ni  Ni42  1  0.50269866  0.83676126  0.50354713  1
  Ni  Ni43  1  0.33744471  0.67013537  0.67028223  1
  Ni  Ni44  1  0.50370790  0.83672533  0.83749937  1
  Ni  Ni45  1  0.83622870  0.17176076  0.50362069  1
  Fe  Fe46  1  0.66898872  0.00421524  0.67069790  1
  Fe  Fe47  1  0.83693051  0.17031523  0.83739605  1
  Fe  Fe48  1  0.83740270  0.50176185  0.50377149  1
  Fe  Fe49  1  0.66990436  0.33773084  0.66994152  1
  Fe  Fe50  1  0.83663831  0.50422804  0.83653875  1
  Cr  Cr51  1  0.83677579  0.83714912  0.50361680  1
  Ni  Ni52  1  0.66904759  0.67090607  0.67053995  1
  Fe  Fe53  1  0.83610388  0.83622916  0.83738561  1
" 