229,Ni64Cr36_1,-213.919600698662, 141.343955949216,Ni64Cr36,"# generated using pymatgen
 data_Cr17Ni10
_symmetry_space_group_name_H-M   'P 1'
_cell_length_a   7.54652641
_cell_length_b   7.54652641
_cell_length_c   10.67240000
_cell_angle_alpha   90.00000000
_cell_angle_beta   90.00000000
_cell_angle_gamma   90.00000000
_symmetry_Int_Tables_number   1
_chemical_formula_structural   Cr17Ni10
_chemical_formula_sum   'Cr34 Ni20'
_cell_volume   607.79383001
_cell_formula_units_Z   2
loop_
 _symmetry_equiv_pos_site_id
 _symmetry_equiv_pos_as_xyz
  1  'x, y, z'
loop_
 _atom_site_type_symbol
 _atom_site_label
 _atom_site_symmetry_multiplicity
 _atom_site_fract_x
 _atom_site_fract_y
 _atom_site_fract_z
 _atom_site_occupancy
  Cr  Cr0  1  0.99354493  -0.00204114  0.99179976  1
  Cr  Cr1  1  0.16168396  0.16309924  0.16335383  1
  Ni  Ni2  1  0.99463488  -0.00095199  0.33089125  1
  Ni  Ni3  1  0.99311540  0.33060789  -0.00492324  1
  Ni  Ni4  1  0.15910128  0.49155453  0.16109519  1
  Ni  Ni5  1  -0.00408035  0.32676177  0.32862228  1
  Cr  Cr6  1  -0.00317708  0.65834426  -0.00429751  1
  Cr  Cr7  1  0.16202195  0.82998868  0.16298353  1
  Cr  Cr8  1  -0.00346310  0.65671048  0.32704555  1
  Cr  Cr9  1  0.32947254  0.99434174  -0.00284046  1
  Ni  Ni10  1  0.49603797  0.16156419  0.16224940  1
  Ni  Ni11  1  0.32887529  -0.00355630  0.32664231  1
  Cr  Cr12  1  0.32835023  0.33073232  -0.00429248  1
  Ni  Ni13  1  0.49591807  0.49227282  0.16002156  1
  Cr  Cr14  1  0.32628477  0.32994211  0.32945820  1
  Cr  Cr15  1  0.32845604  0.65933074  -0.00295496  1
  Ni  Ni16  1  0.49494564  0.83036542  0.16404809  1
  Cr  Cr17  1  0.32898541  0.65818970  0.32569374  1
  Cr  Cr18  1  0.66153561  -0.00262075  0.99431160  1
  Cr  Cr19  1  0.82845835  0.16480597  0.16149494  1
  Ni  Ni20  1  0.66102194  -0.00348598  0.32708528  1
  Ni  Ni21  1  0.66181256  0.32923146  -0.00440989  1
  Ni  Ni22  1  0.82904776  0.49092934  0.16027044  1
  Cr  Cr23  1  0.66202391  0.32846163  0.32764970  1
  Cr  Cr24  1  0.65892797  0.65927487  -0.00203950  1
  Cr  Cr25  1  0.82813571  0.82766150  0.16384154  1
  Cr  Cr26  1  0.65870659  0.65942097  0.32575002  1
  Ni  Ni27  1  0.16000685  0.16411693  0.49248933  1
  Cr  Cr28  1  0.99341627  -0.00250046  0.66167872  1
  Cr  Cr29  1  0.16197138  0.16584495  0.82911484  1
  Ni  Ni30  1  0.16179364  0.49111928  0.49606089  1
  Cr  Cr31  1  -0.00323237  0.32646043  0.65945863  1
  Ni  Ni32  1  0.16196234  0.49265277  0.82695518  1
  Cr  Cr33  1  0.16128445  0.82837679  0.49378937  1
  Ni  Ni34  1  -0.00230599  0.65816479  0.66161066  1
  Cr  Cr35  1  0.16130411  0.82477295  0.82753314  1
  Cr  Cr36  1  0.49268908  0.16226183  0.49376855  1
  Cr  Cr37  1  0.32600639  -0.00087260  0.66128660  1
  Cr  Cr38  1  0.49511890  0.16594168  0.82887746  1
  Ni  Ni39  1  0.49115328  0.49295380  0.49644013  1
  Ni  Ni40  1  0.32625095  0.33148721  0.66031060  1
  Ni  Ni41  1  0.49281167  0.49192703  0.82797466  1
  Cr  Cr42  1  0.49437522  0.82857277  0.49264310  1
  Cr  Cr43  1  0.32699418  0.65630493  0.66144542  1
  Cr  Cr44  1  0.49403663  0.82637138  0.82756689  1
  Ni  Ni45  1  0.83087335  0.16086788  0.49130196  1
  Cr  Cr46  1  0.66478345  -0.00181547  0.66183098  1
  Ni  Ni47  1  0.82805974  0.16584345  0.83012090  1
  Cr  Cr48  1  0.82921151  0.49352878  0.49352599  1
  Cr  Cr49  1  0.66039645  0.32734850  0.66091826  1
  Cr  Cr50  1  0.82829003  0.49275586  0.83009607  1
  Cr  Cr51  1  0.82851960  0.82777476  0.49386228  1
  Cr  Cr52  1  0.66068648  0.65913212  0.66030291  1
  Cr  Cr53  1  0.82880451  0.82531250  0.82612663  1
" 