207,Ni64Fe32Cr3_2,-240.172765047878, 214.904048598824,Ni64Fe32Cr3,"# generated using pymatgen
 data_Cr3(FeNi2)17
_symmetry_space_group_name_H-M   'P 1'
_cell_length_a   7.41765708
_cell_length_b   7.41765708
_cell_length_c   10.49015124
_cell_angle_alpha   90.00000000
_cell_angle_beta   90.00000000
_cell_angle_gamma   90.00000000
_symmetry_Int_Tables_number   1
_chemical_formula_structural   Cr3(FeNi2)17
_chemical_formula_sum   'Cr3 Fe17 Ni34'
_cell_volume   577.18528818
_cell_formula_units_Z   1
loop_
 _symmetry_equiv_pos_site_id
 _symmetry_equiv_pos_as_xyz
  1  'x, y, z'
loop_
 _atom_site_type_symbol
 _atom_site_label
 _atom_site_symmetry_multiplicity
 _atom_site_fract_x
 _atom_site_fract_y
 _atom_site_fract_z
 _atom_site_occupancy
  Ni  Ni0  1  0.00384898  0.00359181  1.00330874  1
  Ni  Ni1  1  0.17316557  0.17215996  0.16876578  1
  Cr  Cr2  1  0.00505079  0.00524562  0.33486867  1
  Ni  Ni3  1  1.00218915  0.33656709  0.00376120  1
  Ni  Ni4  1  0.16903756  0.50346003  0.17143112  1
  Ni  Ni5  1  0.00342637  0.33692704  0.33541449  1
  Ni  Ni6  1  0.00639258  0.66945085  1.00276986  1
  Fe  Fe7  1  0.16951237  0.83689500  0.16879732  1
  Ni  Ni8  1  0.00582260  0.66964259  0.33629748  1
  Ni  Ni9  1  0.33656193  1.00087266  1.00253682  1
  Ni  Ni10  1  0.50273189  0.16842815  0.16999459  1
  Ni  Ni11  1  0.33758707  1.00097507  0.33680606  1
  Fe  Fe12  1  0.33538593  0.33609329  1.00318325  1
  Fe  Fe13  1  0.50402839  0.50180599  0.16962296  1
  Fe  Fe14  1  0.33671814  0.33608065  0.33670694  1
  Ni  Ni15  1  0.33610864  0.67039119  0.00334479  1
  Fe  Fe16  1  0.50299705  0.83715317  0.16925005  1
  Ni  Ni17  1  0.33580724  0.67069096  0.33651144  1
  Ni  Ni18  1  0.66978030  0.00510261  0.00346878  1
  Ni  Ni19  1  0.83429317  0.17051824  0.16969671  1
  Ni  Ni20  1  0.66770037  0.00380887  0.33758661  1
  Ni  Ni21  1  0.67061608  0.33639264  1.00215751  1
  Ni  Ni22  1  0.83749806  0.50512906  0.16966827  1
  Ni  Ni23  1  0.67019775  0.33579595  0.33646821  1
  Fe  Fe24  1  0.67144132  0.67145462  1.00293469  1
  Ni  Ni25  1  0.83436318  0.83455661  0.17040739  1
  Ni  Ni26  1  0.66690068  0.67034351  0.33584598  1
  Ni  Ni27  1  0.17415079  0.17069158  0.50430206  1
  Fe  Fe28  1  0.00381357  1.00220793  0.67092515  1
  Ni  Ni29  1  0.17263897  0.17079582  0.83653746  1
  Ni  Ni30  1  0.16956196  0.50312518  0.50344062  1
  Ni  Ni31  1  0.00527945  0.33457119  0.67078542  1
  Ni  Ni32  1  0.16876048  0.50274701  0.83533323  1
  Ni  Ni33  1  0.17029753  0.83577818  0.50445497  1
  Fe  Fe34  1  1.00269522  0.67033233  0.67092339  1
  Ni  Ni35  1  0.16994187  0.83623594  0.83692825  1
  Ni  Ni36  1  0.50283776  0.16784298  0.50219651  1
  Fe  Fe37  1  0.33751751  0.00350549  0.67065959  1
  Ni  Ni38  1  0.50265449  0.16851956  0.83785512  1
  Fe  Fe39  1  0.50013912  0.50360562  0.50275927  1
  Fe  Fe40  1  0.33727741  0.33719977  0.67005200  1
  Fe  Fe41  1  0.50026094  0.50573885  0.83804802  1
  Fe  Fe42  1  0.50153462  0.83583827  0.50397803  1
  Ni  Ni43  1  0.33504535  0.67134818  0.67032082  1
  Ni  Ni44  1  0.50462687  0.83890835  0.83672047  1
  Fe  Fe45  1  0.83919194  0.17001605  0.50281990  1
  Ni  Ni46  1  0.66974394  1.00308628  0.66898547  1
  Fe  Fe47  1  0.83898928  0.16641003  0.83829873  1
  Cr  Cr48  1  0.83739424  0.50737705  0.50151597  1
  Cr  Cr49  1  0.67111267  0.33527266  0.67181221  1
  Fe  Fe50  1  0.83800964  0.50403739  0.83780261  1
  Fe  Fe51  1  0.83618728  0.83852206  0.50323479  1
  Ni  Ni52  1  0.66555377  0.67165786  0.67142321  1
  Ni  Ni53  1  0.83539990  0.83487489  0.83606075  1
" 