4736,Ni64Fe7Cr28_18,-228.86549862176, 164.233394143671,Ni64Fe7Cr28,"# generated using pymatgen
 data_Cr8Fe2Ni17
_symmetry_space_group_name_H-M   'P 1'
_cell_length_a   7.47395624
_cell_length_b   7.47395624
_cell_length_c   10.56977029
_cell_angle_alpha   90.00000000
_cell_angle_beta   90.00000000
_cell_angle_gamma   90.00000000
_symmetry_Int_Tables_number   1
_chemical_formula_structural   Cr8Fe2Ni17
_chemical_formula_sum   'Cr16 Fe4 Ni34'
_cell_volume   590.42760021
_cell_formula_units_Z   2
loop_
 _symmetry_equiv_pos_site_id
 _symmetry_equiv_pos_as_xyz
  1  'x, y, z'
loop_
 _atom_site_type_symbol
 _atom_site_label
 _atom_site_symmetry_multiplicity
 _atom_site_fract_x
 _atom_site_fract_y
 _atom_site_fract_z
 _atom_site_occupancy
  Ni  Ni0  1  0.00189085  0.99857123  -0.00030217  1
  Cr  Cr1  1  0.16432241  0.16684631  0.16470902  1
  Fe  Fe2  1  0.99706655  0.99807755  0.33384853  1
  Ni  Ni3  1  0.00143060  0.33466200  0.99944994  1
  Ni  Ni4  1  0.16659533  0.50161844  0.16504691  1
  Ni  Ni5  1  0.99751738  0.33319510  0.33259163  1
  Fe  Fe6  1  0.00193673  0.66612010  -0.00040505  1
  Ni  Ni7  1  0.16691614  0.83049838  0.16447224  1
  Cr  Cr8  1  0.00033417  0.66598409  0.33124001  1
  Ni  Ni9  1  0.33021918  0.99770339  0.99873579  1
  Cr  Cr10  1  0.49984476  0.16564313  0.16411746  1
  Cr  Cr11  1  0.33358100  0.99671340  0.33274346  1
  Ni  Ni12  1  0.33041518  0.33523940  0.99927156  1
  Ni  Ni13  1  0.49714997  0.50228523  0.16476900  1
  Cr  Cr14  1  0.33219991  0.33609741  0.33312267  1
  Ni  Ni15  1  0.33228958  0.66565085  0.00116303  1
  Ni  Ni16  1  0.49767730  0.83067843  0.16662238  1
  Ni  Ni17  1  0.33255080  0.66676134  0.33032960  1
  Cr  Cr18  1  0.66606005  0.99658908  0.00004766  1
  Cr  Cr19  1  0.83440877  0.16605984  0.16650392  1
  Ni  Ni20  1  0.66861972  0.99860303  0.33329382  1
  Fe  Fe21  1  0.66559686  0.33617249  0.99917032  1
  Ni  Ni22  1  0.83486469  0.49965369  0.16433753  1
  Cr  Cr23  1  0.66778300  0.33276516  0.33445683  1
  Cr  Cr24  1  0.66638266  0.66545057  -0.00024099  1
  Ni  Ni25  1  0.83406740  0.83300051  0.16678655  1
  Cr  Cr26  1  0.66575980  0.66737938  0.33214596  1
  Cr  Cr27  1  0.16433931  0.16521805  0.50106792  1
  Ni  Ni28  1  0.00124810  0.99786643  0.66519394  1
  Ni  Ni29  1  0.16622029  0.16662201  0.83302631  1
  Cr  Cr30  1  0.16666274  0.50148898  0.50042973  1
  Ni  Ni31  1  0.99869615  0.33390544  0.66657645  1
  Ni  Ni32  1  0.16640387  0.49870307  0.83319575  1
  Ni  Ni33  1  0.16461238  0.83314720  0.50149942  1
  Ni  Ni34  1  0.99795500  0.66681838  0.66756303  1
  Fe  Fe35  1  0.16659870  0.83249641  0.83246585  1
  Ni  Ni36  1  0.50187054  0.16770507  0.50116983  1
  Ni  Ni37  1  0.33024256  0.99912803  0.66755539  1
  Cr  Cr38  1  0.49602898  0.16715369  0.83318746  1
  Ni  Ni39  1  0.50051609  0.49855400  0.50221004  1
  Ni  Ni40  1  0.33370837  0.33355439  0.66675093  1
  Ni  Ni41  1  0.49802403  0.50122276  0.83163567  1
  Cr  Cr42  1  0.49852459  0.83122092  0.49997297  1
  Ni  Ni43  1  0.33316679  0.66590804  0.66714337  1
  Ni  Ni44  1  0.49724896  0.83018098  0.83234556  1
  Ni  Ni45  1  0.83266655  0.16607902  0.49863591  1
  Cr  Cr46  1  0.66684098  0.99845597  0.66499891  1
  Cr  Cr47  1  0.83641145  0.16757665  0.83340064  1
  Ni  Ni48  1  0.83184076  0.49802894  0.50248339  1
  Ni  Ni49  1  0.66621663  0.33685195  0.66423884  1
  Ni  Ni50  1  0.83420454  0.50087920  0.83174970  1
  Ni  Ni51  1  0.83500001  0.83449684  0.49998392  1
  Ni  Ni52  1  0.66749234  0.66337708  0.66670614  1
  Ni  Ni53  1  0.83482074  0.83038321  0.83182754  1
" 