7752,Ni64Fe32Cr3_7,-240.045433634355, 212.152670925878,Ni64Fe32Cr3,"# generated using pymatgen
 data_Cr3(FeNi2)17
_symmetry_space_group_name_H-M   'P 1'
_cell_length_a   7.41796564
_cell_length_b   7.41796564
_cell_length_c   10.49058762
_cell_angle_alpha   90.00000000
_cell_angle_beta   90.00000000
_cell_angle_gamma   90.00000000
_symmetry_Int_Tables_number   1
_chemical_formula_structural   Cr3(FeNi2)17
_chemical_formula_sum   'Cr3 Fe17 Ni34'
_cell_volume   577.25732231
_cell_formula_units_Z   1
loop_
 _symmetry_equiv_pos_site_id
 _symmetry_equiv_pos_as_xyz
  1  'x, y, z'
loop_
 _atom_site_type_symbol
 _atom_site_label
 _atom_site_symmetry_multiplicity
 _atom_site_fract_x
 _atom_site_fract_y
 _atom_site_fract_z
 _atom_site_occupancy
  Fe  Fe0  1  1.00293146  0.00341835  1.00273685  1
  Ni  Ni1  1  0.16998980  0.16963223  0.17063825  1
  Fe  Fe2  1  0.00361615  1.00318592  0.33681662  1
  Fe  Fe3  1  1.00306509  0.33578668  0.00350628  1
  Fe  Fe4  1  0.16920937  0.50347992  0.17052779  1
  Ni  Ni5  1  0.00350625  0.33789944  0.33670366  1
  Ni  Ni6  1  1.00275874  0.66907292  1.00320804  1
  Fe  Fe7  1  0.16981259  0.83639884  0.17058532  1
  Ni  Ni8  1  1.00267610  0.66828074  0.33634841  1
  Ni  Ni9  1  0.33617982  0.00434992  0.00485888  1
  Fe  Fe10  1  0.50395676  0.16915642  0.17026600  1
  Ni  Ni11  1  0.33791039  0.00432180  0.33639525  1
  Fe  Fe12  1  0.33547803  0.33695289  0.00388866  1
  Ni  Ni13  1  0.50319760  0.50472561  0.16947171  1
  Ni  Ni14  1  0.33598412  0.33623192  0.33621553  1
  Fe  Fe15  1  0.33627379  0.66992351  0.00425817  1
  Ni  Ni16  1  0.50321832  0.83618004  0.17080164  1
  Ni  Ni17  1  0.33623352  0.66937211  0.33591071  1
  Ni  Ni18  1  0.67094897  0.00422391  0.00439081  1
  Ni  Ni19  1  0.83753455  0.16961461  0.16950314  1
  Ni  Ni20  1  0.66934626  0.00349481  0.33653467  1
  Fe  Fe21  1  0.67138437  0.33724504  0.00401100  1
  Ni  Ni22  1  0.83624852  0.50364860  0.17043384  1
  Fe  Fe23  1  0.66979641  0.33740224  0.33704863  1
  Fe  Fe24  1  0.67101429  0.67006099  0.00452480  1
  Ni  Ni25  1  0.83564094  0.83666107  0.17030850  1
  Ni  Ni26  1  0.67101155  0.67020583  0.33615052  1
  Fe  Fe27  1  0.17056623  0.17100028  0.50328592  1
  Ni  Ni28  1  1.00310890  1.00284806  0.67134042  1
  Ni  Ni29  1  0.16850778  0.17075604  0.83495295  1
  Ni  Ni30  1  0.17038597  0.50434656  0.50296390  1
  Fe  Fe31  1  0.00496400  0.33672570  0.66993952  1
  Ni  Ni32  1  0.16937936  0.50279353  0.83620524  1
  Ni  Ni33  1  0.17092732  0.83600597  0.50371319  1
  Ni  Ni34  1  1.00313986  0.67006807  0.67036826  1
  Fe  Fe35  1  0.16722592  0.83676454  0.83573245  1
  Ni  Ni36  1  0.50272147  0.16865464  0.50193338  1
  Ni  Ni37  1  0.33496392  0.00425110  0.66866248  1
  Cr  Cr38  1  0.50217390  0.16895593  0.83739247  1
  Ni  Ni39  1  0.50193041  0.50422624  0.50358168  1
  Ni  Ni40  1  0.33457239  0.33721296  0.66992926  1
  Fe  Fe41  1  0.50273462  0.50368987  0.83679129  1
  Fe  Fe42  1  0.50334663  0.83631820  0.50307706  1
  Ni  Ni43  1  0.33514307  0.66846094  0.66998726  1
  Cr  Cr44  1  0.50387783  0.83574611  0.83474524  1
  Ni  Ni45  1  0.83656709  0.16918706  0.50290813  1
  Ni  Ni46  1  0.67184989  1.00227891  0.66899302  1
  Ni  Ni47  1  0.83959038  0.16882440  0.83752058  1
  Ni  Ni48  1  0.83760706  0.50393899  0.50234941  1
  Cr  Cr49  1  0.67031496  0.33716388  0.66925483  1
  Ni  Ni50  1  0.83872428  0.50472216  0.83714810  1
  Fe  Fe51  1  0.83636514  0.83594267  0.50370091  1
  Ni  Ni52  1  0.67164226  0.67046092  0.67025838  1
  Ni  Ni53  1  0.83739472  0.83637905  0.83587010  1
" 