1898,Ni64Fe30Cr5_4,-239.478562357844, 212.739920305622,Ni64Fe30Cr5,"# generated using pymatgen
 data_Cr2Fe8Ni17
_symmetry_space_group_name_H-M   'P 1'
_cell_length_a   7.41901232
_cell_length_b   7.41901232
_cell_length_c   10.49206784
_cell_angle_alpha   90.00000000
_cell_angle_beta   90.00000000
_cell_angle_gamma   90.00000000
_symmetry_Int_Tables_number   1
_chemical_formula_structural   Cr2Fe8Ni17
_chemical_formula_sum   'Cr4 Fe16 Ni34'
_cell_volume   577.50171031
_cell_formula_units_Z   2
loop_
 _symmetry_equiv_pos_site_id
 _symmetry_equiv_pos_as_xyz
  1  'x, y, z'
loop_
 _atom_site_type_symbol
 _atom_site_label
 _atom_site_symmetry_multiplicity
 _atom_site_fract_x
 _atom_site_fract_y
 _atom_site_fract_z
 _atom_site_occupancy
  Ni  Ni0  1  1.00186826  1.00162985  1.00225032  1
  Cr  Cr1  1  0.16913450  0.16932661  0.17066116  1
  Ni  Ni2  1  1.00215108  0.00357691  0.33831005  1
  Fe  Fe3  1  1.00069775  0.33690699  1.00242362  1
  Ni  Ni4  1  0.17128245  0.50397321  0.16827766  1
  Fe  Fe5  1  1.00284696  0.33737093  0.33796076  1
  Ni  Ni6  1  0.00345670  0.67106065  0.00341608  1
  Fe  Fe7  1  0.16777212  0.83423919  0.17051202  1
  Fe  Fe8  1  0.00435562  0.66986895  0.33606373  1
  Fe  Fe9  1  0.33751160  1.00286073  1.00234560  1
  Fe  Fe10  1  0.50540396  0.17168271  0.17085976  1
  Ni  Ni11  1  0.33660121  0.00389841  0.33646404  1
  Ni  Ni12  1  0.33751191  0.33717604  1.00176467  1
  Ni  Ni13  1  0.50201737  0.50329956  0.17214795  1
  Ni  Ni14  1  0.33617152  0.33739556  0.33882879  1
  Fe  Fe15  1  0.33638322  0.66928157  1.00313649  1
  Fe  Fe16  1  0.50393985  0.83718159  0.17250135  1
  Ni  Ni17  1  0.33751036  0.66817088  0.33653524  1
  Ni  Ni18  1  0.67150924  0.00441551  1.00284698  1
  Ni  Ni19  1  0.83541498  0.16880898  0.16923004  1
  Ni  Ni20  1  0.67131263  1.00243391  0.33705488  1
  Ni  Ni21  1  0.66759089  0.33573341  0.00400939  1
  Ni  Ni22  1  0.83644370  0.50252077  0.17031729  1
  Fe  Fe23  1  0.66972960  0.33546435  0.33576972  1
  Cr  Cr24  1  0.67217305  0.66965271  0.00384538  1
  Ni  Ni25  1  0.83655380  0.83814243  0.17149412  1
  Ni  Ni26  1  0.67070665  0.66940315  0.33658277  1
  Ni  Ni27  1  0.16921294  0.17040893  0.50240879  1
  Ni  Ni28  1  1.00217510  0.00385632  0.66915598  1
  Ni  Ni29  1  0.16889749  0.16930405  0.83704228  1
  Ni  Ni30  1  0.16958422  0.50422613  0.50478052  1
  Ni  Ni31  1  0.00425615  0.33567153  0.67080809  1
  Fe  Fe32  1  0.16785064  0.50314874  0.83616820  1
  Ni  Ni33  1  0.17137995  0.83525624  0.50146978  1
  Ni  Ni34  1  0.00343182  0.67023289  0.66935263  1
  Ni  Ni35  1  0.16930545  0.83625536  0.83791900  1
  Ni  Ni36  1  0.50453148  0.16945216  0.50211052  1
  Cr  Cr37  1  0.33419017  0.00524513  0.66893011  1
  Fe  Fe38  1  0.50441565  0.17136386  0.83701933  1
  Fe  Fe39  1  0.50178844  0.50212572  0.50243831  1
  Ni  Ni40  1  0.33589358  0.33727535  0.66909634  1
  Ni  Ni41  1  0.50140467  0.50208157  0.83531122  1
  Ni  Ni42  1  0.50222271  0.83630331  0.50178657  1
  Ni  Ni43  1  0.33541696  0.66778010  0.67058728  1
  Fe  Fe44  1  0.50343778  0.83762839  0.83645534  1
  Ni  Ni45  1  0.83611570  0.17086921  0.50376027  1
  Fe  Fe46  1  0.67133270  0.00543556  0.66905393  1
  Ni  Ni47  1  0.83714744  0.16951010  0.83702125  1
  Ni  Ni48  1  0.83708891  0.50203964  0.50175100  1
  Fe  Fe49  1  0.67125784  0.33544818  0.67061483  1
  Ni  Ni50  1  0.83596106  0.50169499  0.83782713  1
  Fe  Fe51  1  0.83825601  0.83771356  0.50205605  1
  Cr  Cr52  1  0.67095110  0.67039476  0.66933070  1
  Ni  Ni53  1  0.83925780  0.83861740  0.83494946  1
" 