8943,Ni64Fe7Cr28_19,-228.644997426587, 159.561593524338,Ni64Fe7Cr28,"# generated using pymatgen
 data_Cr8Fe2Ni17
_symmetry_space_group_name_H-M   'P 1'
_cell_length_a   7.47437499
_cell_length_b   7.47437499
_cell_length_c   10.57036249
_cell_angle_alpha   90.00000000
_cell_angle_beta   90.00000000
_cell_angle_gamma   90.00000000
_symmetry_Int_Tables_number   1
_chemical_formula_structural   Cr8Fe2Ni17
_chemical_formula_sum   'Cr16 Fe4 Ni34'
_cell_volume   590.52684689
_cell_formula_units_Z   2
loop_
 _symmetry_equiv_pos_site_id
 _symmetry_equiv_pos_as_xyz
  1  'x, y, z'
loop_
 _atom_site_type_symbol
 _atom_site_label
 _atom_site_symmetry_multiplicity
 _atom_site_fract_x
 _atom_site_fract_y
 _atom_site_fract_z
 _atom_site_occupancy
  Ni  Ni0  1  0.99781587  -0.00028698  0.00021390  1
  Ni  Ni1  1  0.16612150  0.16599683  0.16568021  1
  Ni  Ni2  1  0.99941000  0.99837618  0.33177024  1
  Ni  Ni3  1  0.99695352  0.33109410  0.99905886  1
  Cr  Cr4  1  0.16775248  0.49675959  0.16260565  1
  Cr  Cr5  1  0.99700816  0.33281391  0.33131216  1
  Fe  Fe6  1  0.99856041  0.66565039  0.99791152  1
  Cr  Cr7  1  0.16705582  0.83446809  0.16501736  1
  Cr  Cr8  1  0.99559503  0.66793228  0.33328474  1
  Ni  Ni9  1  0.33250003  0.00001621  0.00079474  1
  Ni  Ni10  1  0.49920264  0.16764988  0.16534271  1
  Ni  Ni11  1  0.33261550  0.00172949  0.33159899  1
  Ni  Ni12  1  0.33480883  0.33280981  0.99903875  1
  Ni  Ni13  1  0.50152825  0.49921571  0.16546448  1
  Ni  Ni14  1  0.33608736  0.33153606  0.33262263  1
  Ni  Ni15  1  0.33507733  0.66559954  0.99823943  1
  Ni  Ni16  1  0.50166397  0.83206263  0.16472125  1
  Cr  Cr17  1  0.33484647  0.66518033  0.33366313  1
  Fe  Fe18  1  0.66600191  0.00176989  0.00055751  1
  Ni  Ni19  1  0.83290207  0.16598035  0.16445623  1
  Cr  Cr20  1  0.66767485  0.99938408  0.33044681  1
  Ni  Ni21  1  0.66654625  0.33384548  -0.00024634  1
  Fe  Fe22  1  0.82983930  0.49855082  0.16469210  1
  Ni  Ni23  1  0.66374889  0.33502492  0.33167372  1
  Ni  Ni24  1  0.66656310  0.66473112  0.00098055  1
  Ni  Ni25  1  0.83093544  0.83318599  0.16391187  1
  Ni  Ni26  1  0.66728059  0.66390363  0.33181380  1
  Cr  Cr27  1  0.16650137  0.16722463  0.49656268  1
  Cr  Cr28  1  0.99818012  0.99720484  0.66643063  1
  Cr  Cr29  1  0.16466796  0.16785251  0.83535148  1
  Ni  Ni30  1  0.16449803  0.50001465  0.50123077  1
  Ni  Ni31  1  0.99767446  0.33697233  0.66733139  1
  Ni  Ni32  1  0.16390454  0.50130305  0.83437500  1
  Ni  Ni33  1  0.16360755  0.83168014  0.49845217  1
  Ni  Ni34  1  0.99745992  0.66495735  0.66707986  1
  Ni  Ni35  1  0.16424584  0.83023589  0.83546973  1
  Ni  Ni36  1  0.50052646  0.16770156  0.49804609  1
  Cr  Cr37  1  0.33428913  -0.00015890  0.66597668  1
  Ni  Ni38  1  0.50307478  0.16660455  0.83548846  1
  Ni  Ni39  1  0.50199620  0.49844536  0.49792665  1
  Cr  Cr40  1  0.33376433  0.33454236  0.66714557  1
  Ni  Ni41  1  0.50130088  0.49990317  0.83514301  1
  Cr  Cr42  1  0.50272108  0.83329047  0.49906703  1
  Cr  Cr43  1  0.33125748  0.66457958  0.66637710  1
  Cr  Cr44  1  0.50136917  0.83227354  0.83479764  1
  Cr  Cr45  1  0.83091322  0.16674533  0.50033789  1
  Ni  Ni46  1  0.66780138  0.99871834  0.66859969  1
  Ni  Ni47  1  0.83139830  0.16694694  0.83427133  1
  Ni  Ni48  1  0.83167062  0.50186069  0.49952605  1
  Cr  Cr49  1  0.66590716  0.33352318  0.66714559  1
  Ni  Ni50  1  0.83326160  0.49958969  0.83397969  1
  Ni  Ni51  1  0.83297373  0.83025373  0.50109503  1
  Ni  Ni52  1  0.66954592  0.66525626  0.66556623  1
  Fe  Fe53  1  0.83292416  0.83102940  0.83413053  1
" 