6196,Ni64Fe30Cr5_2,-239.701270951813, 212.002012511428,Ni64Fe30Cr5,"# generated using pymatgen
 data_Cr2Fe8Ni17
_symmetry_space_group_name_H-M   'P 1'
_cell_length_a   7.41870230
_cell_length_b   7.41870230
_cell_length_c   10.49162940
_cell_angle_alpha   90.00000000
_cell_angle_beta   90.00000000
_cell_angle_gamma   90.00000000
_symmetry_Int_Tables_number   1
_chemical_formula_structural   Cr2Fe8Ni17
_chemical_formula_sum   'Cr4 Fe16 Ni34'
_cell_volume   577.42931570
_cell_formula_units_Z   2
loop_
 _symmetry_equiv_pos_site_id
 _symmetry_equiv_pos_as_xyz
  1  'x, y, z'
loop_
 _atom_site_type_symbol
 _atom_site_label
 _atom_site_symmetry_multiplicity
 _atom_site_fract_x
 _atom_site_fract_y
 _atom_site_fract_z
 _atom_site_occupancy
  Ni  Ni0  1  0.00479732  1.00295761  0.00558593  1
  Ni  Ni1  1  0.17147244  0.16898804  0.17089066  1
  Fe  Fe2  1  1.00316421  0.00520341  0.33701893  1
  Cr  Cr3  1  1.00265220  0.33608650  0.00462217  1
  Ni  Ni4  1  0.17286762  0.50362768  0.16921009  1
  Ni  Ni5  1  0.00505994  0.33761308  0.33592339  1
  Fe  Fe6  1  1.00175899  0.67185731  0.00515458  1
  Ni  Ni7  1  0.17081118  0.83726868  0.16949479  1
  Cr  Cr8  1  1.00146567  0.66945871  0.33566374  1
  Ni  Ni9  1  0.33707317  1.00262224  0.00381967  1
  Ni  Ni10  1  0.50282748  0.17118038  0.16749950  1
  Ni  Ni11  1  0.33743209  1.00306129  0.33669650  1
  Fe  Fe12  1  0.33860200  0.33588397  0.00344443  1
  Ni  Ni13  1  0.50229872  0.50312759  0.17041324  1
  Ni  Ni14  1  0.33514283  0.33481890  0.33546033  1
  Fe  Fe15  1  0.33813308  0.66926556  0.00374731  1
  Fe  Fe16  1  0.50315643  0.83730976  0.16965135  1
  Fe  Fe17  1  0.33767640  0.66989713  0.33635551  1
  Fe  Fe18  1  0.67137697  0.00433891  1.00286190  1
  Ni  Ni19  1  0.83604394  0.16873388  0.17118914  1
  Ni  Ni20  1  0.66747621  1.00097706  0.33593917  1
  Ni  Ni21  1  0.66919178  0.33894460  1.00256666  1
  Ni  Ni22  1  0.83485973  0.50382667  0.16825003  1
  Cr  Cr23  1  0.67085928  0.33639089  0.33729320  1
  Ni  Ni24  1  0.66941377  0.66991174  0.00472060  1
  Ni  Ni25  1  0.83661174  0.83807272  0.16870649  1
  Fe  Fe26  1  0.66843662  0.67089557  0.33672610  1
  Ni  Ni27  1  0.17059388  0.16994876  0.50316200  1
  Ni  Ni28  1  0.00330629  0.00409868  0.66745639  1
  Fe  Fe29  1  0.17010837  0.16913034  0.83563801  1
  Fe  Fe30  1  0.17033972  0.50156247  0.50322933  1
  Ni  Ni31  1  0.00378132  0.33698022  0.66943048  1
  Fe  Fe32  1  0.17020401  0.50255538  0.83590345  1
  Ni  Ni33  1  0.17144096  0.83760875  0.50421764  1
  Fe  Fe34  1  1.00198809  0.67012537  0.66811468  1
  Cr  Cr35  1  0.16883661  0.83680121  0.83535539  1
  Ni  Ni36  1  0.50251738  0.16976014  0.50589467  1
  Ni  Ni37  1  0.33765703  1.00311608  0.66915476  1
  Fe  Fe38  1  0.50414577  0.16839184  0.83621924  1
  Fe  Fe39  1  0.50234314  0.50249535  0.50463531  1
  Ni  Ni40  1  0.33571819  0.33576546  0.67092399  1
  Ni  Ni41  1  0.50291371  0.50263308  0.83592571  1
  Ni  Ni42  1  0.50254447  0.83659229  0.50344533  1
  Fe  Fe43  1  0.33887599  0.66943765  0.66933632  1
  Ni  Ni44  1  0.50406748  0.83420692  0.83734950  1
  Ni  Ni45  1  0.83680581  0.16983530  0.50379045  1
  Ni  Ni46  1  0.66891104  1.00144080  0.67105306  1
  Ni  Ni47  1  0.83669552  0.16960708  0.83501035  1
  Ni  Ni48  1  0.83605118  0.50242572  0.50589657  1
  Ni  Ni49  1  0.67000612  0.33751751  0.67041231  1
  Fe  Fe50  1  0.83372254  0.50530883  0.83558409  1
  Ni  Ni51  1  0.83573413  0.83778363  0.50480671  1
  Ni  Ni52  1  0.66978369  0.67079821  0.66879202  1
  Ni  Ni53  1  0.83619615  0.83770343  0.83630719  1
" 