4738,Ni64Fe29Cr6_7,-238.258876519693, 205.50848567111,Ni64Fe29Cr6,"# generated using pymatgen
 data_Cr5Fe15Ni34
_symmetry_space_group_name_H-M   'P 1'
_cell_length_a   7.42174721
_cell_length_b   7.42174721
_cell_length_c   10.49593555
_cell_angle_alpha   90.00000000
_cell_angle_beta   90.00000000
_cell_angle_gamma   90.00000000
_symmetry_Int_Tables_number   1
_chemical_formula_structural   Cr5Fe15Ni34
_chemical_formula_sum   'Cr5 Fe15 Ni34'
_cell_volume   578.14060243
_cell_formula_units_Z   1
loop_
 _symmetry_equiv_pos_site_id
 _symmetry_equiv_pos_as_xyz
  1  'x, y, z'
loop_
 _atom_site_type_symbol
 _atom_site_label
 _atom_site_symmetry_multiplicity
 _atom_site_fract_x
 _atom_site_fract_y
 _atom_site_fract_z
 _atom_site_occupancy
  Ni  Ni0  1  1.00149093  0.00387014  1.00233755  1
  Ni  Ni1  1  0.17097542  0.16881889  0.16956735  1
  Ni  Ni2  1  1.00230365  0.00373787  0.33716838  1
  Ni  Ni3  1  1.00251284  0.33671783  1.00298668  1
  Fe  Fe4  1  0.16824025  0.50248261  0.16976001  1
  Ni  Ni5  1  0.00341731  0.33515989  0.33547560  1
  Fe  Fe6  1  0.00427038  0.67101488  0.00342819  1
  Ni  Ni7  1  0.17075213  0.83789979  0.16923398  1
  Fe  Fe8  1  0.00572628  0.67114197  0.33521068  1
  Ni  Ni9  1  0.33692530  1.00183290  0.00333029  1
  Fe  Fe10  1  0.50269436  0.16907726  0.16920706  1
  Ni  Ni11  1  0.33566065  1.00200817  0.33545024  1
  Ni  Ni12  1  0.33518521  0.33803416  1.00270599  1
  Fe  Fe13  1  0.50223966  0.50306441  0.16957300  1
  Ni  Ni14  1  0.33508488  0.33739778  0.33661066  1
  Ni  Ni15  1  0.33762708  0.66919854  0.00376018  1
  Fe  Fe16  1  0.50352522  0.83702868  0.16964355  1
  Ni  Ni17  1  0.33810438  0.66986670  0.33589544  1
  Ni  Ni18  1  0.67113283  1.00179623  0.00357439  1
  Ni  Ni19  1  0.83756644  0.17055326  0.16991935  1
  Fe  Fe20  1  0.66924223  1.00280251  0.33626503  1
  Fe  Fe21  1  0.66913696  0.33534147  1.00240088  1
  Ni  Ni22  1  0.83498232  0.50318168  0.16926806  1
  Fe  Fe23  1  0.66842801  0.33561030  0.33527447  1
  Fe  Fe24  1  0.66980692  0.67025259  0.00400570  1
  Ni  Ni25  1  0.83751982  0.83551576  0.17082494  1
  Ni  Ni26  1  0.66868925  0.67088975  0.33597211  1
  Ni  Ni27  1  0.17104889  0.16892557  0.50183807  1
  Ni  Ni28  1  1.00213559  1.00117050  0.66977997  1
  Ni  Ni29  1  0.17086870  0.16941541  0.83784385  1
  Fe  Fe30  1  0.17127557  0.50386849  0.50222485  1
  Cr  Cr31  1  0.00497139  0.33388307  0.67061364  1
  Fe  Fe32  1  0.17071865  0.50382646  0.83730989  1
  Ni  Ni33  1  0.16987612  0.83662313  0.50273048  1
  Ni  Ni34  1  0.00446762  0.67137873  0.67038489  1
  Fe  Fe35  1  0.16936502  0.83587579  0.83761880  1
  Ni  Ni36  1  0.49997087  0.17062431  0.50030875  1
  Cr  Cr37  1  0.33606386  1.00302675  0.67094360  1
  Ni  Ni38  1  0.50004822  0.17069386  0.83959038  1
  Fe  Fe39  1  0.50077420  0.50384865  0.50240843  1
  Ni  Ni40  1  0.33643409  0.33926078  0.66940243  1
  Ni  Ni41  1  0.50252763  0.50470298  0.83619092  1
  Ni  Ni42  1  0.50188549  0.83483041  0.50132674  1
  Ni  Ni43  1  0.33649364  0.66837852  0.66913743  1
  Ni  Ni44  1  0.50284838  0.83388234  0.83832327  1
  Ni  Ni45  1  0.83767189  0.16886463  0.50010997  1
  Cr  Cr46  1  0.67141623  1.00244413  0.66868405  1
  Ni  Ni47  1  0.83800181  0.16915629  0.83896262  1
  Cr  Cr48  1  0.83616085  0.50486804  0.50194300  1
  Cr  Cr49  1  0.66782678  0.33484579  0.67105156  1
  Ni  Ni50  1  0.83558427  0.50575693  0.83870501  1
  Ni  Ni51  1  0.83755104  0.83543926  0.50178637  1
  Fe  Fe52  1  0.66892246  0.67066830  0.67016047  1
  Ni  Ni53  1  0.83665097  0.83424581  0.83657173  1
" 