1946,Ni64Fe7Cr28_12,-228.392787248411, 159.997930134979,Ni64Fe7Cr28,"# generated using pymatgen
 data_Cr8Fe2Ni17
_symmetry_space_group_name_H-M   'P 1'
_cell_length_a   7.47591859
_cell_length_b   7.47591859
_cell_length_c   10.57254547
_cell_angle_alpha   90.00000000
_cell_angle_beta   90.00000000
_cell_angle_gamma   90.00000000
_symmetry_Int_Tables_number   1
_chemical_formula_structural   Cr8Fe2Ni17
_chemical_formula_sum   'Cr16 Fe4 Ni34'
_cell_volume   590.89278752
_cell_formula_units_Z   2
loop_
 _symmetry_equiv_pos_site_id
 _symmetry_equiv_pos_as_xyz
  1  'x, y, z'
loop_
 _atom_site_type_symbol
 _atom_site_label
 _atom_site_symmetry_multiplicity
 _atom_site_fract_x
 _atom_site_fract_y
 _atom_site_fract_z
 _atom_site_occupancy
  Ni  Ni0  1  0.00221241  0.99748667  0.99903375  1
  Fe  Fe1  1  0.16756814  0.16489325  0.16413148  1
  Cr  Cr2  1  0.99923204  0.99767199  0.33352107  1
  Cr  Cr3  1  -0.00014724  0.33375791  0.99817674  1
  Ni  Ni4  1  0.16725989  0.50311482  0.16736066  1
  Cr  Cr5  1  -0.00046247  0.33478603  0.33464435  1
  Cr  Cr6  1  0.99875178  0.66773300  0.99892557  1
  Fe  Fe7  1  0.16746297  0.83036431  0.16475059  1
  Ni  Ni8  1  0.99741207  0.66488670  0.33109732  1
  Ni  Ni9  1  0.33037298  0.99852241  0.00147762  1
  Ni  Ni10  1  0.49996593  0.16561816  0.16379614  1
  Cr  Cr11  1  0.33305471  0.99909184  0.33178900  1
  Cr  Cr12  1  0.33380196  0.33355088  -0.00015885  1
  Ni  Ni13  1  0.49906309  0.50023593  0.16699354  1
  Cr  Cr14  1  0.33339974  0.33389377  0.33207359  1
  Ni  Ni15  1  0.33286115  0.66750748  -0.00029361  1
  Ni  Ni16  1  0.49774571  0.83230628  0.16563182  1
  Ni  Ni17  1  0.33453460  0.66467678  0.33196606  1
  Fe  Fe18  1  0.66574199  0.99833103  0.00097698  1
  Cr  Cr19  1  0.83027442  0.16692450  0.16411450  1
  Cr  Cr20  1  0.66599026  0.99612322  0.33367008  1
  Ni  Ni21  1  0.66432698  0.33461262  0.00049158  1
  Ni  Ni22  1  0.83189086  0.50072045  0.16823932  1
  Ni  Ni23  1  0.66560797  0.33736607  0.33241765  1
  Cr  Cr24  1  0.66636306  0.66453079  -0.00041675  1
  Ni  Ni25  1  0.83300881  0.83173744  0.16617455  1
  Ni  Ni26  1  0.66630362  0.66432686  0.33281421  1
  Ni  Ni27  1  0.16289425  0.16670172  0.50190854  1
  Ni  Ni28  1  -0.00014902  0.99903572  0.66629557  1
  Ni  Ni29  1  0.16474668  0.16310421  0.83230208  1
  Ni  Ni30  1  0.16476997  0.50050748  0.49986226  1
  Ni  Ni31  1  0.99926539  0.33361768  0.66513616  1
  Ni  Ni32  1  0.16582074  0.50198159  0.83081992  1
  Cr  Cr33  1  0.16654424  0.82988041  0.50056690  1
  Ni  Ni34  1  0.99673536  0.66555448  0.66751203  1
  Ni  Ni35  1  0.16524525  0.83319591  0.83306803  1
  Cr  Cr36  1  0.50220924  0.16583383  0.50108050  1
  Ni  Ni37  1  0.33066736  0.99885100  0.66605491  1
  Cr  Cr38  1  0.50082003  0.16594558  0.83369792  1
  Ni  Ni39  1  0.50108556  0.50288887  0.49857049  1
  Cr  Cr40  1  0.33058116  0.33332226  0.66627167  1
  Ni  Ni41  1  0.49985231  0.50028836  0.83252617  1
  Ni  Ni42  1  0.50075407  0.82942746  0.50086856  1
  Fe  Fe43  1  0.33282425  0.66583079  0.66614204  1
  Cr  Cr44  1  0.49759426  0.83222753  0.83112303  1
  Ni  Ni45  1  0.83353870  0.16726645  0.50225495  1
  Ni  Ni46  1  0.66774435  0.99629743  0.66446922  1
  Cr  Cr47  1  0.83276013  0.16580666  0.83197563  1
  Ni  Ni48  1  0.83234984  0.49964549  0.49939036  1
  Ni  Ni49  1  0.66819624  0.33641655  0.66531219  1
  Ni  Ni50  1  0.83251208  0.49962933  0.83046748  1
  Ni  Ni51  1  0.83140181  0.83131657  0.50089971  1
  Ni  Ni52  1  0.66798759  0.66559707  0.66487135  1
  Ni  Ni53  1  0.83561231  0.83301995  0.83111494  1
" 