4734,Ni64Fe34Cr1_18,-241.150360949326, 219.358735797883,Ni64Fe34Cr1,"# generated using pymatgen
 data_CrFe9Ni17
_symmetry_space_group_name_H-M   'P 1'
_cell_length_a   7.41175907
_cell_length_b   7.41175907
_cell_length_c   10.48181020
_cell_angle_alpha   90.00000000
_cell_angle_beta   90.00000000
_cell_angle_gamma   90.00000000
_symmetry_Int_Tables_number   1
_chemical_formula_structural   CrFe9Ni17
_chemical_formula_sum   'Cr2 Fe18 Ni34'
_cell_volume   575.80956948
_cell_formula_units_Z   2
loop_
 _symmetry_equiv_pos_site_id
 _symmetry_equiv_pos_as_xyz
  1  'x, y, z'
loop_
 _atom_site_type_symbol
 _atom_site_label
 _atom_site_symmetry_multiplicity
 _atom_site_fract_x
 _atom_site_fract_y
 _atom_site_fract_z
 _atom_site_occupancy
  Ni  Ni0  1  0.00445103  0.00376628  1.00343141  1
  Fe  Fe1  1  0.17009516  0.16907360  0.16947915  1
  Ni  Ni2  1  0.00480037  1.00289286  0.33520202  1
  Ni  Ni3  1  1.00138314  0.33648815  1.00256180  1
  Cr  Cr4  1  0.16815194  0.50250078  0.16970373  1
  Ni  Ni5  1  1.00080982  0.33641564  0.33665145  1
  Fe  Fe6  1  1.00193333  0.67158200  1.00171564  1
  Fe  Fe7  1  0.17103447  0.83779552  0.16952202  1
  Ni  Ni8  1  0.00401249  0.67127099  0.33689425  1
  Ni  Ni9  1  0.33726138  1.00123808  0.00379747  1
  Ni  Ni10  1  0.50347088  0.16899968  0.17226439  1
  Fe  Fe11  1  0.33825992  1.00278220  0.33689260  1
  Fe  Fe12  1  0.33796391  0.33298017  1.00246230  1
  Ni  Ni13  1  0.50388815  0.50355014  0.17024340  1
  Fe  Fe14  1  0.33721350  0.33935021  0.33777657  1
  Fe  Fe15  1  0.33728165  0.67032027  1.00270799  1
  Ni  Ni16  1  0.50394003  0.83795324  0.16979249  1
  Ni  Ni17  1  0.33776847  0.67253129  0.33779612  1
  Ni  Ni18  1  0.66951467  0.00518215  0.00450627  1
  Ni  Ni19  1  0.83643907  0.17043413  0.17034677  1
  Fe  Fe20  1  0.67176368  1.00230251  0.33695072  1
  Ni  Ni21  1  0.67019677  0.33773237  0.00451332  1
  Ni  Ni22  1  0.83610721  0.50347838  0.17069286  1
  Ni  Ni23  1  0.67002965  0.33729613  0.33655316  1
  Fe  Fe24  1  0.67126127  0.67131608  0.00499018  1
  Fe  Fe25  1  0.83620987  0.83714105  0.17034069  1
  Ni  Ni26  1  0.66885383  0.66887449  0.33594696  1
  Cr  Cr27  1  0.17174344  0.17183181  0.50524728  1
  Ni  Ni28  1  1.00258808  1.00256276  0.67218267  1
  Ni  Ni29  1  0.17262505  0.17008793  0.83761885  1
  Ni  Ni30  1  0.16905796  0.50388624  0.50449711  1
  Ni  Ni31  1  1.00242006  0.33797799  0.67193795  1
  Ni  Ni32  1  0.16915045  0.50276618  0.83623365  1
  Fe  Fe33  1  0.16931194  0.83513858  0.50453000  1
  Ni  Ni34  1  0.00473145  0.67036062  0.66977084  1
  Ni  Ni35  1  0.16949861  0.83707928  0.83549697  1
  Fe  Fe36  1  0.50687467  0.17183646  0.50528009  1
  Ni  Ni37  1  0.33818335  1.00190683  0.67127917  1
  Ni  Ni38  1  0.50379213  0.16885589  0.83642478  1
  Fe  Fe39  1  0.50407178  0.50547930  0.50331316  1
  Ni  Ni40  1  0.33905865  0.33899664  0.67194527  1
  Fe  Fe41  1  0.50345369  0.50336165  0.83782237  1
  Ni  Ni42  1  0.50506349  0.83903941  0.50472372  1
  Ni  Ni43  1  0.33680517  0.67039235  0.67034597  1
  Fe  Fe44  1  0.50299831  0.83685683  0.83702249  1
  Fe  Fe45  1  0.83695287  0.17016425  0.50326501  1
  Ni  Ni46  1  0.67098822  0.00508919  0.67080280  1
  Fe  Fe47  1  0.83803263  0.17062119  0.83828908  1
  Ni  Ni48  1  0.83840060  0.50458709  0.50268529  1
  Ni  Ni49  1  0.67163952  0.33756605  0.67079074  1
  Ni  Ni50  1  0.83725377  0.50558180  0.83701564  1
  Ni  Ni51  1  0.83560975  0.83620486  0.50264132  1
  Fe  Fe52  1  0.67147066  0.67096362  0.66929934  1
  Ni  Ni53  1  0.83553647  0.83696522  0.83721114  1
" 