6929,Ni64Fe29Cr6_6,-238.802732615955, 207.874005389872,Ni64Fe29Cr6,"# generated using pymatgen
 data_Cr5Fe15Ni34
_symmetry_space_group_name_H-M   'P 1'
_cell_length_a   7.42437896
_cell_length_b   7.42437896
_cell_length_c   10.49965742
_cell_angle_alpha   90.00000000
_cell_angle_beta   90.00000000
_cell_angle_gamma   90.00000000
_symmetry_Int_Tables_number   1
_chemical_formula_structural   Cr5Fe15Ni34
_chemical_formula_sum   'Cr5 Fe15 Ni34'
_cell_volume   578.75584819
_cell_formula_units_Z   1
loop_
 _symmetry_equiv_pos_site_id
 _symmetry_equiv_pos_as_xyz
  1  'x, y, z'
loop_
 _atom_site_type_symbol
 _atom_site_label
 _atom_site_symmetry_multiplicity
 _atom_site_fract_x
 _atom_site_fract_y
 _atom_site_fract_z
 _atom_site_occupancy
  Ni  Ni0  1  0.00405440  0.00295666  0.00365323  1
  Ni  Ni1  1  0.16892206  0.16980852  0.16939424  1
  Ni  Ni2  1  0.00497952  0.00547222  0.33607975  1
  Ni  Ni3  1  0.00396913  0.33598325  0.00455261  1
  Ni  Ni4  1  0.17123819  0.50277480  0.16822208  1
  Fe  Fe5  1  0.00305186  0.33338378  0.33626330  1
  Fe  Fe6  1  0.00351605  0.66842454  1.00192860  1
  Ni  Ni7  1  0.17125220  0.83603581  0.17023844  1
  Cr  Cr8  1  0.00560736  0.66925423  0.33548007  1
  Fe  Fe9  1  0.33664005  0.00320557  0.00363573  1
  Ni  Ni10  1  0.50390334  0.17011092  0.16955882  1
  Ni  Ni11  1  0.33547054  0.00356910  0.33571909  1
  Ni  Ni12  1  0.33619156  0.33678901  1.00259743  1
  Ni  Ni13  1  0.50134190  0.50222821  0.16915374  1
  Ni  Ni14  1  0.33672012  0.33528649  0.33601899  1
  Ni  Ni15  1  0.33686540  0.66913669  0.00431722  1
  Ni  Ni16  1  0.50102613  0.83628133  0.16898819  1
  Fe  Fe17  1  0.33636816  0.66990418  0.33549710  1
  Ni  Ni18  1  0.66899946  1.00228414  0.00340306  1
  Ni  Ni19  1  0.83579659  0.17012464  0.17072131  1
  Ni  Ni20  1  0.66816871  0.00620552  0.33621499  1
  Ni  Ni21  1  0.66846074  0.33728033  0.00435431  1
  Fe  Fe22  1  0.83576670  0.49939522  0.16729820  1
  Ni  Ni23  1  0.66866452  0.33438498  0.33580498  1
  Ni  Ni24  1  0.66819540  0.66905348  1.00208336  1
  Cr  Cr25  1  0.83620636  0.83900669  0.16677282  1
  Cr  Cr26  1  0.66684254  0.66783163  0.33562336  1
  Ni  Ni27  1  0.16925492  0.17041405  0.50340862  1
  Ni  Ni28  1  0.00451448  1.00254681  0.66888951  1
  Fe  Fe29  1  0.17082711  0.17030646  0.83614890  1
  Ni  Ni30  1  0.17079260  0.50251113  0.50439743  1
  Ni  Ni31  1  0.00372645  0.33629284  0.66768933  1
  Fe  Fe32  1  0.17009385  0.50253526  0.83587213  1
  Fe  Fe33  1  0.17122938  0.83796065  0.50384491  1
  Ni  Ni34  1  0.00327858  0.66977972  0.67119705  1
  Ni  Ni35  1  0.16879350  0.83528806  0.83559484  1
  Ni  Ni36  1  0.50362499  0.17000031  0.50288416  1
  Fe  Fe37  1  0.33576933  0.00320746  0.66910493  1
  Ni  Ni38  1  0.50218322  0.17053565  0.83617828  1
  Fe  Fe39  1  0.50191642  0.50068236  0.50403094  1
  Ni  Ni40  1  0.33648782  0.33631713  0.67000503  1
  Ni  Ni41  1  0.50316946  0.50259011  0.83562265  1
  Fe  Fe42  1  0.50052752  0.83768847  0.50301836  1
  Ni  Ni43  1  0.33642446  0.66924615  0.66806754  1
  Fe  Fe44  1  0.50335514  0.83516491  0.83680481  1
  Ni  Ni45  1  0.83574057  0.17001616  0.50232607  1
  Fe  Fe46  1  0.66834603  0.00346890  0.66919523  1
  Cr  Cr47  1  0.83527632  0.16988806  0.83562607  1
  Fe  Fe48  1  0.83642917  0.49874182  0.50544696  1
  Ni  Ni49  1  0.66840674  0.33755184  0.66846092  1
  Ni  Ni50  1  0.83562352  0.50481561  0.83578789  1
  Cr  Cr51  1  0.83646942  0.83855634  0.50535586  1
  Ni  Ni52  1  0.66891649  0.66846029  0.67054468  1
  Fe  Fe53  1  0.83577524  0.83443323  0.83609360  1
" 