1330,Ni64Cr36_0,-213.869372702938, 137.303756475224,Ni64Cr36,"# generated using pymatgen
 data_Cr17Ni10
_symmetry_space_group_name_H-M   'P 1'
_cell_length_a   7.54721812
_cell_length_b   7.54721812
_cell_length_c   10.67337822
_cell_angle_alpha   90.00000000
_cell_angle_beta   90.00000000
_cell_angle_gamma   90.00000000
_symmetry_Int_Tables_number   1
_chemical_formula_structural   Cr17Ni10
_chemical_formula_sum   'Cr34 Ni20'
_cell_volume   607.96097428
_cell_formula_units_Z   2
loop_
 _symmetry_equiv_pos_site_id
 _symmetry_equiv_pos_as_xyz
  1  'x, y, z'
loop_
 _atom_site_type_symbol
 _atom_site_label
 _atom_site_symmetry_multiplicity
 _atom_site_fract_x
 _atom_site_fract_y
 _atom_site_fract_z
 _atom_site_occupancy
  Ni  Ni0  1  -0.00503465  0.99455192  0.99438285  1
  Cr  Cr1  1  0.16077021  0.15848022  0.16385374  1
  Ni  Ni2  1  -0.00428000  0.99339403  0.32682596  1
  Cr  Cr3  1  -0.00387273  0.32607565  -0.00498179  1
  Ni  Ni4  1  0.16342009  0.49508698  0.16293273  1
  Cr  Cr5  1  -0.00318130  0.32627630  0.32481741  1
  Cr  Cr6  1  -0.00345210  0.66095258  0.99343511  1
  Ni  Ni7  1  0.16180880  0.83041706  0.16237053  1
  Cr  Cr8  1  -0.00372261  0.66170433  0.32930315  1
  Cr  Cr9  1  0.32847942  -0.00361298  -0.00506055  1
  Ni  Ni10  1  0.49312040  0.15935670  0.16354028  1
  Ni  Ni11  1  0.32748274  -0.00462136  0.32681492  1
  Cr  Cr12  1  0.32737592  0.32485802  0.99458840  1
  Cr  Cr13  1  0.49442354  0.49446534  0.16202040  1
  Ni  Ni14  1  0.32970285  0.32614274  0.32671822  1
  Cr  Cr15  1  0.32674005  0.66356659  -0.00040343  1
  Ni  Ni16  1  0.49124282  0.83213215  0.16322264  1
  Cr  Cr17  1  0.32813390  0.66313527  0.32701026  1
  Cr  Cr18  1  0.65920136  -0.00425396  -0.00330411  1
  Ni  Ni19  1  0.82821347  0.15752652  0.16130285  1
  Cr  Cr20  1  0.65957937  0.99414545  0.32682015  1
  Cr  Cr21  1  0.66092916  0.32342397  0.99443111  1
  Cr  Cr22  1  0.82764113  0.49348468  0.15989318  1
  Cr  Cr23  1  0.66071877  0.32451377  0.32693004  1
  Cr  Cr24  1  0.66132353  0.66446483  0.99274236  1
  Cr  Cr25  1  0.82980890  0.82971464  0.16058065  1
  Cr  Cr26  1  0.65955339  0.66474621  0.33258450  1
  Cr  Cr27  1  0.16247443  0.15940112  0.49559515  1
  Ni  Ni28  1  -0.00454511  0.99463214  0.66269724  1
  Ni  Ni29  1  0.16290609  0.15886377  0.82511815  1
  Cr  Cr30  1  0.16548113  0.49118560  0.49345670  1
  Cr  Cr31  1  -0.00443165  0.32652411  0.66344101  1
  Cr  Cr32  1  0.16380500  0.49343061  0.82777085  1
  Cr  Cr33  1  0.16071591  0.83362203  0.49487675  1
  Cr  Cr34  1  0.99366690  0.66240614  0.66094281  1
  Cr  Cr35  1  0.16012930  0.83274740  0.82775664  1
  Cr  Cr36  1  0.49194989  0.16304929  0.49586030  1
  Ni  Ni37  1  0.32727517  -0.00161323  0.66240080  1
  Ni  Ni38  1  0.49202221  0.16166074  0.82480328  1
  Ni  Ni39  1  0.49315883  0.49364830  0.49601071  1
  Ni  Ni40  1  0.33064222  0.32445287  0.66262612  1
  Cr  Cr41  1  0.49638281  0.49270559  0.82644450  1
  Ni  Ni42  1  0.49310837  0.82977765  0.49433323  1
  Cr  Cr43  1  0.32862476  0.66323620  0.65871369  1
  Cr  Cr44  1  0.49411043  0.82983912  0.82828679  1
  Cr  Cr45  1  0.83028981  0.15864771  0.49310334  1
  Cr  Cr46  1  0.66018682  -0.00494298  0.66059549  1
  Cr  Cr47  1  0.82842459  0.15946770  0.82817074  1
  Cr  Cr48  1  0.82456263  0.49331491  0.49562422  1
  Ni  Ni49  1  0.65839642  0.32809806  0.66253805  1
  Ni  Ni50  1  0.82693832  0.49513835  0.82697646  1
  Ni  Ni51  1  0.82841782  0.83130112  0.49532806  1
  Cr  Cr52  1  0.66194802  0.66334813  0.65865936  1
  Ni  Ni53  1  0.83042435  0.82912173  0.82768984  1
" 