4871,Ni64Fe7Cr28_1,-228.541183385847, 162.662135729812,Ni64Fe7Cr28,"# generated using pymatgen
 data_Cr8Fe2Ni17
_symmetry_space_group_name_H-M   'P 1'
_cell_length_a   7.47583044
_cell_length_b   7.47583044
_cell_length_c   10.57242080
_cell_angle_alpha   90.00000000
_cell_angle_beta   90.00000000
_cell_angle_gamma   90.00000000
_symmetry_Int_Tables_number   1
_chemical_formula_structural   Cr8Fe2Ni17
_chemical_formula_sum   'Cr16 Fe4 Ni34'
_cell_volume   590.87188417
_cell_formula_units_Z   2
loop_
 _symmetry_equiv_pos_site_id
 _symmetry_equiv_pos_as_xyz
  1  'x, y, z'
loop_
 _atom_site_type_symbol
 _atom_site_label
 _atom_site_symmetry_multiplicity
 _atom_site_fract_x
 _atom_site_fract_y
 _atom_site_fract_z
 _atom_site_occupancy
  Ni  Ni0  1  -0.00047698  0.99616456  0.00046301  1
  Cr  Cr1  1  0.16541101  0.16485639  0.16740248  1
  Cr  Cr2  1  0.99904679  0.99671680  0.33331046  1
  Cr  Cr3  1  0.99708461  0.33163371  0.99859246  1
  Cr  Cr4  1  0.16540925  0.50406029  0.16727467  1
  Ni  Ni5  1  0.99510252  0.33373569  0.33578474  1
  Ni  Ni6  1  0.99744662  0.67005564  0.00076260  1
  Ni  Ni7  1  0.16626478  0.83036395  0.16504135  1
  Ni  Ni8  1  -0.00003282  0.66570940  0.33310502  1
  Cr  Cr9  1  0.33132181  0.99805839  0.99819543  1
  Ni  Ni10  1  0.50361168  0.16350149  0.16761192  1
  Ni  Ni11  1  0.33368501  0.99586952  0.33325869  1
  Cr  Cr12  1  0.33684484  0.33305623  0.99851667  1
  Ni  Ni13  1  0.50091669  0.50176822  0.16547762  1
  Cr  Cr14  1  0.33498439  0.33400425  0.33252409  1
  Ni  Ni15  1  0.33513788  0.66852362  -0.00045976  1
  Ni  Ni16  1  0.49967383  0.83293871  0.16560271  1
  Ni  Ni17  1  0.33215093  0.66913350  0.33344852  1
  Fe  Fe18  1  0.66623188  0.99706635  0.00169925  1
  Ni  Ni19  1  0.82939923  0.16451025  0.16676650  1
  Ni  Ni20  1  0.66570420  0.00051657  0.33121738  1
  Cr  Cr21  1  0.66441163  0.33540387  0.00101958  1
  Ni  Ni22  1  0.83217064  0.50073447  0.16610012  1
  Ni  Ni23  1  0.66890326  0.33242061  0.33101385  1
  Ni  Ni24  1  0.66580377  0.66551606  -0.00050466  1
  Ni  Ni25  1  0.83230994  0.83288019  0.16362102  1
  Cr  Cr26  1  0.66646059  0.66550209  0.33362568  1
  Ni  Ni27  1  0.16459794  0.16643405  0.50018369  1
  Cr  Cr28  1  0.00192390  0.99868581  0.66378965  1
  Ni  Ni29  1  0.16786145  0.16388784  0.83153510  1
  Ni  Ni30  1  0.16409300  0.50184266  0.49933473  1
  Fe  Fe31  1  -0.00052807  0.33465249  0.66386464  1
  Cr  Cr32  1  0.16499550  0.50215872  0.83268141  1
  Ni  Ni33  1  0.16819868  0.83003157  0.49972524  1
  Ni  Ni34  1  0.99864062  0.66558004  0.66432070  1
  Fe  Fe35  1  0.16731740  0.83198676  0.83269028  1
  Cr  Cr36  1  0.50095504  0.16201587  0.49752559  1
  Ni  Ni37  1  0.33258071  0.99730243  0.66711298  1
  Ni  Ni38  1  0.49793982  0.16316196  0.83218594  1
  Ni  Ni39  1  0.49866839  0.50346496  0.49958351  1
  Cr  Cr40  1  0.33240351  0.33221261  0.66723120  1
  Ni  Ni41  1  0.50000483  0.50295202  0.83324111  1
  Ni  Ni42  1  0.49855371  0.83221390  0.50151948  1
  Ni  Ni43  1  0.33371883  0.66843338  0.66528799  1
  Fe  Fe44  1  0.49878240  0.83121173  0.83113023  1
  Ni  Ni45  1  0.83332219  0.16653302  0.49843838  1
  Ni  Ni46  1  0.66409272  0.99702124  0.66556542  1
  Cr  Cr47  1  0.83227779  0.16448630  0.83255400  1
  Ni  Ni48  1  0.83552490  0.49997702  0.50033943  1
  Cr  Cr49  1  0.66690941  0.33604506  0.66598943  1
  Ni  Ni50  1  0.83200378  0.50308787  0.83186193  1
  Ni  Ni51  1  0.83147673  0.83187337  0.50053914  1
  Ni  Ni52  1  0.66581599  0.66608592  0.66564987  1
  Cr  Cr53  1  0.83117045  0.83024020  0.83392711  1
" 