620,Ni64Fe7Cr28_15,-228.495833797862, 159.707227732106,Ni64Fe7Cr28,"# generated using pymatgen
 data_Cr8Fe2Ni17
_symmetry_space_group_name_H-M   'P 1'
_cell_length_a   7.47656079
_cell_length_b   7.47656079
_cell_length_c   10.57345367
_cell_angle_alpha   90.00000000
_cell_angle_beta   90.00000000
_cell_angle_gamma   90.00000000
_symmetry_Int_Tables_number   1
_chemical_formula_structural   Cr8Fe2Ni17
_chemical_formula_sum   'Cr16 Fe4 Ni34'
_cell_volume   591.04507671
_cell_formula_units_Z   2
loop_
 _symmetry_equiv_pos_site_id
 _symmetry_equiv_pos_as_xyz
  1  'x, y, z'
loop_
 _atom_site_type_symbol
 _atom_site_label
 _atom_site_symmetry_multiplicity
 _atom_site_fract_x
 _atom_site_fract_y
 _atom_site_fract_z
 _atom_site_occupancy
  Ni  Ni0  1  0.99723036  0.99751214  0.00045281  1
  Ni  Ni1  1  0.16730643  0.16652297  0.16486260  1
  Cr  Cr2  1  0.99571464  -0.00059635  0.33116784  1
  Cr  Cr3  1  -0.00039823  0.33258350  0.00193350  1
  Ni  Ni4  1  0.16806152  0.49864965  0.16708556  1
  Ni  Ni5  1  0.99692614  0.33442712  0.33020159  1
  Cr  Cr6  1  0.99738426  0.66675398  0.99711343  1
  Cr  Cr7  1  0.16562967  0.83353163  0.16464522  1
  Ni  Ni8  1  0.99691042  0.66386636  0.33206507  1
  Ni  Ni9  1  0.33470036  0.99833142  0.00098015  1
  Ni  Ni10  1  0.50040218  0.16632385  0.16671431  1
  Ni  Ni11  1  0.33776444  -0.00027062  0.33233661  1
  Ni  Ni12  1  0.33350950  0.33495942  0.00148763  1
  Ni  Ni13  1  0.50085996  0.49990562  0.16484847  1
  Cr  Cr14  1  0.33317224  0.33178910  0.33238934  1
  Ni  Ni15  1  0.33455525  0.66512729  0.99774346  1
  Fe  Fe16  1  0.50031876  0.83432886  0.16515361  1
  Cr  Cr17  1  0.33267035  0.66691982  0.33322021  1
  Ni  Ni18  1  0.66624482  0.99637649  0.00139308  1
  Ni  Ni19  1  0.83108058  0.16359808  0.16660546  1
  Ni  Ni20  1  0.66510541  -0.00013723  0.33301143  1
  Cr  Cr21  1  0.66546666  0.33338711  -0.00035573  1
  Fe  Fe22  1  0.83186029  0.49960399  0.16774610  1
  Ni  Ni23  1  0.66809908  0.32977510  0.33083317  1
  Ni  Ni24  1  0.66384223  0.66872737  0.00004193  1
  Ni  Ni25  1  0.82896937  0.83262714  0.16643600  1
  Fe  Fe26  1  0.66737816  0.66803010  0.33082585  1
  Cr  Cr27  1  0.16357141  0.16559035  0.50011226  1
  Ni  Ni28  1  0.99675478  0.99696619  0.66654518  1
  Cr  Cr29  1  0.16604514  0.16284201  0.83482827  1
  Ni  Ni30  1  0.16315485  0.49905302  0.49895689  1
  Ni  Ni31  1  0.99735459  0.33473059  0.66579526  1
  Ni  Ni32  1  0.16605802  0.50075325  0.83239994  1
  Cr  Cr33  1  0.16455258  0.83194668  0.50006889  1
  Ni  Ni34  1  0.99721017  0.66634323  0.66734354  1
  Ni  Ni35  1  0.16623157  0.83290746  0.83262027  1
  Fe  Fe36  1  0.50279434  0.16360926  0.49918320  1
  Ni  Ni37  1  0.33563129  0.99687746  0.66489501  1
  Cr  Cr38  1  0.50003763  0.16462915  0.83213434  1
  Cr  Cr39  1  0.50358165  0.50073771  0.50004983  1
  Cr  Cr40  1  0.33366654  0.33373384  0.66630827  1
  Ni  Ni41  1  0.50138188  0.50239839  0.83402751  1
  Ni  Ni42  1  0.50326331  0.83537830  0.49795780  1
  Cr  Cr43  1  0.33335558  0.66736987  0.66807137  1
  Ni  Ni44  1  0.50083818  0.83152865  0.83498235  1
  Ni  Ni45  1  0.83018720  0.16547957  0.50025835  1
  Ni  Ni46  1  0.66640403  0.99718542  0.66367334  1
  Cr  Cr47  1  0.83267270  0.16383432  0.83078387  1
  Cr  Cr48  1  0.83319024  0.49995582  0.49818289  1
  Ni  Ni49  1  0.66855062  0.33240172  0.66597939  1
  Ni  Ni50  1  0.83019500  0.50254860  0.83005954  1
  Ni  Ni51  1  0.82947289  0.83368092  0.50008511  1
  Ni  Ni52  1  0.66769797  0.66878449  0.66776724  1
  Ni  Ni53  1  0.83102619  0.83172498  0.83163655  1
" 