3940,Ni64Fe32Cr3_4,-240.517452096961, 212.917587548723,Ni64Fe32Cr3,"# generated using pymatgen
 data_Cr3(FeNi2)17
_symmetry_space_group_name_H-M   'P 1'
_cell_length_a   7.41866615
_cell_length_b   7.41866615
_cell_length_c   10.49157829
_cell_angle_alpha   90.00000000
_cell_angle_beta   90.00000000
_cell_angle_gamma   90.00000000
_symmetry_Int_Tables_number   1
_chemical_formula_structural   Cr3(FeNi2)17
_chemical_formula_sum   'Cr3 Fe17 Ni34'
_cell_volume   577.42087613
_cell_formula_units_Z   1
loop_
 _symmetry_equiv_pos_site_id
 _symmetry_equiv_pos_as_xyz
  1  'x, y, z'
loop_
 _atom_site_type_symbol
 _atom_site_label
 _atom_site_symmetry_multiplicity
 _atom_site_fract_x
 _atom_site_fract_y
 _atom_site_fract_z
 _atom_site_occupancy
  Ni  Ni0  1  1.00284275  0.00378997  1.00242696  1
  Ni  Ni1  1  0.16841935  0.16892183  0.17018634  1
  Ni  Ni2  1  1.00321052  0.00369925  0.33751944  1
  Ni  Ni3  1  0.00412645  0.33534341  0.00415567  1
  Ni  Ni4  1  0.16933518  0.50348919  0.16897875  1
  Ni  Ni5  1  0.00378700  0.33524570  0.33607687  1
  Ni  Ni6  1  0.00412214  0.67064878  1.00240270  1
  Ni  Ni7  1  0.17003613  0.83737018  0.16969278  1
  Ni  Ni8  1  0.00381282  0.67083987  0.33785430  1
  Fe  Fe9  1  0.33419451  0.00332224  1.00313904  1
  Cr  Cr10  1  0.50297561  0.17060655  0.16936490  1
  Fe  Fe11  1  0.33397563  1.00310054  0.33637695  1
  Ni  Ni12  1  0.33566297  0.33807955  1.00164943  1
  Ni  Ni13  1  0.50447213  0.50480703  0.16969297  1
  Ni  Ni14  1  0.33585811  0.33800510  0.33848899  1
  Ni  Ni15  1  0.33625561  0.66850156  0.00432543  1
  Fe  Fe16  1  0.50264525  0.83372288  0.16964596  1
  Ni  Ni17  1  0.33641699  0.66866630  0.33583690  1
  Ni  Ni18  1  0.67214091  1.00319571  0.00334720  1
  Fe  Fe19  1  0.83909625  0.17086750  0.17016199  1
  Fe  Fe20  1  0.67220541  0.00338400  0.33721665  1
  Ni  Ni21  1  0.66999625  0.33679862  1.00133595  1
  Ni  Ni22  1  0.83597544  0.50319305  0.17028069  1
  Ni  Ni23  1  0.67013901  0.33740220  0.33860713  1
  Ni  Ni24  1  0.66940694  0.66978315  0.00401072  1
  Fe  Fe25  1  0.83736675  0.83584635  0.17010132  1
  Ni  Ni26  1  0.66955277  0.66924471  0.33600412  1
  Fe  Fe27  1  0.16873687  0.17070125  0.50292029  1
  Fe  Fe28  1  1.00316526  1.00253491  0.66970547  1
  Ni  Ni29  1  0.16958558  0.16858964  0.83714834  1
  Ni  Ni30  1  0.16978598  0.50341347  0.50339296  1
  Ni  Ni31  1  0.00389591  0.33566930  0.66954730  1
  Fe  Fe32  1  0.17015989  0.50332162  0.83684880  1
  Ni  Ni33  1  0.16868213  0.83696361  0.50356035  1
  Fe  Fe34  1  1.00280288  0.67009397  0.66948840  1
  Ni  Ni35  1  0.16905004  0.83836072  0.83652777  1
  Fe  Fe36  1  0.50404099  0.17181356  0.50294538  1
  Fe  Fe37  1  0.33493068  0.00405020  0.67026648  1
  Fe  Fe38  1  0.50325518  0.17159530  0.83713055  1
  Ni  Ni39  1  0.50388354  0.50181643  0.50303865  1
  Fe  Fe40  1  0.33722842  0.33728744  0.66999202  1
  Ni  Ni41  1  0.50510808  0.50201193  0.83705236  1
  Cr  Cr42  1  0.50285004  0.83567732  0.50198357  1
  Ni  Ni43  1  0.33580499  0.66838309  0.66961683  1
  Cr  Cr44  1  0.50263008  0.83577229  0.83799783  1
  Ni  Ni45  1  0.83648879  0.17028202  0.50276306  1
  Ni  Ni46  1  0.67172429  0.00408668  0.66939315  1
  Fe  Fe47  1  0.83683835  0.17006882  0.83648152  1
  Ni  Ni48  1  0.83611361  0.50234682  0.50296627  1
  Fe  Fe49  1  0.67003707  0.33764817  0.66970194  1
  Ni  Ni50  1  0.83528722  0.50254087  0.83653522  1
  Ni  Ni51  1  0.83807912  0.83715676  0.50387271  1
  Ni  Ni52  1  0.67005561  0.66969883  0.66976998  1
  Fe  Fe53  1  0.83783329  0.83632253  0.83655539  1
" 