4677,Ni64Fe7Cr28_3,-228.601681971488, 164.678226784794,Ni64Fe7Cr28,"# generated using pymatgen
 data_Cr8Fe2Ni17
_symmetry_space_group_name_H-M   'P 1'
_cell_length_a   7.47283394
_cell_length_b   7.47283394
_cell_length_c   10.56818311
_cell_angle_alpha   90.00000000
_cell_angle_beta   90.00000000
_cell_angle_gamma   90.00000000
_symmetry_Int_Tables_number   1
_chemical_formula_structural   Cr8Fe2Ni17
_chemical_formula_sum   'Cr16 Fe4 Ni34'
_cell_volume   590.16166115
_cell_formula_units_Z   2
loop_
 _symmetry_equiv_pos_site_id
 _symmetry_equiv_pos_as_xyz
  1  'x, y, z'
loop_
 _atom_site_type_symbol
 _atom_site_label
 _atom_site_symmetry_multiplicity
 _atom_site_fract_x
 _atom_site_fract_y
 _atom_site_fract_z
 _atom_site_occupancy
  Ni  Ni0  1  0.99806807  0.99820230  0.00140872  1
  Cr  Cr1  1  0.16505402  0.16546045  0.16620988  1
  Ni  Ni2  1  0.99796075  0.99668767  0.33317217  1
  Ni  Ni3  1  0.99664622  0.33495841  0.00038331  1
  Ni  Ni4  1  0.16765437  0.50080634  0.16244938  1
  Cr  Cr5  1  0.99775818  0.33316677  0.33142541  1
  Ni  Ni6  1  0.99930204  0.66603250  0.00005290  1
  Ni  Ni7  1  0.16526475  0.83189771  0.16655424  1
  Cr  Cr8  1  0.99757484  0.66723286  0.33121010  1
  Ni  Ni9  1  0.33315600  0.99856722  0.99807331  1
  Cr  Cr10  1  0.50123163  0.16678162  0.16486370  1
  Ni  Ni11  1  0.33289189  0.99888053  0.33439217  1
  Ni  Ni12  1  0.33420178  0.33408433  -0.00031019  1
  Ni  Ni13  1  0.49825808  0.50001919  0.16748486  1
  Ni  Ni14  1  0.33505955  0.33392954  0.33282304  1
  Ni  Ni15  1  0.33120727  0.66677726  0.00152601  1
  Cr  Cr16  1  0.50023704  0.83215696  0.16706819  1
  Fe  Fe17  1  0.33313427  0.66542757  0.33186087  1
  Fe  Fe18  1  0.66778116  0.00029847  0.99760097  1
  Ni  Ni19  1  0.83349931  0.16467726  0.16430299  1
  Ni  Ni20  1  0.66824799  0.99878975  0.33305988  1
  Ni  Ni21  1  0.66785839  0.33276011  0.00014094  1
  Ni  Ni22  1  0.83256348  0.49997660  0.16490601  1
  Cr  Cr23  1  0.66573465  0.33511392  0.33313750  1
  Cr  Cr24  1  0.66779190  0.66537127  0.00107766  1
  Ni  Ni25  1  0.83479570  0.83399434  0.16635227  1
  Ni  Ni26  1  0.66676337  0.66666684  0.33251865  1
  Cr  Cr27  1  0.16671237  0.16538804  0.49671041  1
  Cr  Cr28  1  0.99728807  0.99764336  0.66399878  1
  Cr  Cr29  1  0.16572926  0.16955699  0.83601734  1
  Cr  Cr30  1  0.16880864  0.50095603  0.50273865  1
  Cr  Cr31  1  0.99618466  0.33392919  0.66674680  1
  Fe  Fe32  1  0.16525167  0.50049441  0.83430716  1
  Ni  Ni33  1  0.16457532  0.83065229  0.49802932  1
  Ni  Ni34  1  0.99701358  0.66639757  0.66693925  1
  Cr  Cr35  1  0.16567982  0.82987248  0.83347958  1
  Ni  Ni36  1  0.50244179  0.16816591  0.50008241  1
  Cr  Cr37  1  0.33669903  0.00030869  0.66655737  1
  Ni  Ni38  1  0.50272728  0.16711907  0.83375398  1
  Ni  Ni39  1  0.50045983  0.49897077  0.49978785  1
  Ni  Ni40  1  0.33705766  0.33448072  0.66649634  1
  Cr  Cr41  1  0.49964640  0.50038708  0.83203893  1
  Cr  Cr42  1  0.50214490  0.83058774  0.49893909  1
  Ni  Ni43  1  0.33344473  0.66559358  0.66614973  1
  Ni  Ni44  1  0.50167768  0.83322254  0.83299162  1
  Ni  Ni45  1  0.82889204  0.16322153  0.49911730  1
  Ni  Ni46  1  0.66701666  0.00021207  0.66872568  1
  Ni  Ni47  1  0.82993759  0.16696009  0.83546578  1
  Fe  Fe48  1  0.82989513  0.50190381  0.50128568  1
  Ni  Ni49  1  0.66520514  0.33277382  0.66482062  1
  Ni  Ni50  1  0.83323997  0.49984865  0.83177847  1
  Ni  Ni51  1  0.83236597  0.83310664  0.49993522  1
  Ni  Ni52  1  0.66771689  0.66615388  0.66570151  1
  Ni  Ni53  1  0.83158471  0.83246870  0.83275369  1
" 