2540,Ni64Fe30Cr5_11,-239.346179439563, 212.178802202777,Ni64Fe30Cr5,"# generated using pymatgen
 data_Cr2Fe8Ni17
_symmetry_space_group_name_H-M   'P 1'
_cell_length_a   7.42143098
_cell_length_b   7.42143098
_cell_length_c   10.49548834
_cell_angle_alpha   90.00000000
_cell_angle_beta   90.00000000
_cell_angle_gamma   90.00000000
_symmetry_Int_Tables_number   1
_chemical_formula_structural   Cr2Fe8Ni17
_chemical_formula_sum   'Cr4 Fe16 Ni34'
_cell_volume   578.06670501
_cell_formula_units_Z   2
loop_
 _symmetry_equiv_pos_site_id
 _symmetry_equiv_pos_as_xyz
  1  'x, y, z'
loop_
 _atom_site_type_symbol
 _atom_site_label
 _atom_site_symmetry_multiplicity
 _atom_site_fract_x
 _atom_site_fract_y
 _atom_site_fract_z
 _atom_site_occupancy
  Ni  Ni0  1  0.00425198  1.00281242  0.00372181  1
  Ni  Ni1  1  0.16963540  0.16960121  0.17070289  1
  Fe  Fe2  1  0.00352998  0.00420363  0.33607632  1
  Ni  Ni3  1  1.00211494  0.33490825  1.00296546  1
  Ni  Ni4  1  0.16908523  0.50094685  0.17038751  1
  Ni  Ni5  1  1.00235058  0.33867097  0.33659055  1
  Cr  Cr6  1  0.00506324  0.67249629  0.00403521  1
  Ni  Ni7  1  0.17077096  0.83921132  0.17197154  1
  Ni  Ni8  1  0.00443433  0.67030692  0.33625229  1
  Ni  Ni9  1  0.33670358  1.00162943  1.00264121  1
  Ni  Ni10  1  0.50200565  0.16921630  0.16894031  1
  Fe  Fe11  1  0.33734191  0.00449721  0.33635226  1
  Fe  Fe12  1  0.33329558  0.33425014  0.00495133  1
  Ni  Ni13  1  0.50447316  0.50260582  0.17127851  1
  Ni  Ni14  1  0.33707035  0.33764417  0.33565996  1
  Fe  Fe15  1  0.33627061  0.67080174  0.00556511  1
  Ni  Ni16  1  0.50339331  0.83730049  0.17017565  1
  Ni  Ni17  1  0.33424205  0.67015327  0.33603079  1
  Fe  Fe18  1  0.67171946  0.00314005  0.00364600  1
  Fe  Fe19  1  0.83665125  0.17006746  0.16935083  1
  Ni  Ni20  1  0.66928819  0.00401266  0.33551908  1
  Ni  Ni21  1  0.66855777  0.33442093  0.00490597  1
  Ni  Ni22  1  0.83537511  0.50199608  0.17041720  1
  Ni  Ni23  1  0.66924429  0.33375668  0.33747499  1
  Fe  Fe24  1  0.67010300  0.67258022  0.00530360  1
  Ni  Ni25  1  0.83561079  0.83662855  0.17214289  1
  Fe  Fe26  1  0.66984367  0.66842078  0.33631631  1
  Ni  Ni27  1  0.17009988  0.16874097  0.50131381  1
  Ni  Ni28  1  0.00333757  1.00006178  0.66986328  1
  Ni  Ni29  1  0.16773179  0.16779841  0.83691011  1
  Ni  Ni30  1  0.16602146  0.50303964  0.50275506  1
  Fe  Fe31  1  1.00286073  0.33131341  0.66831330  1
  Ni  Ni32  1  0.16957669  0.50222499  0.83565662  1
  Ni  Ni33  1  0.17131270  0.83797241  0.50231674  1
  Fe  Fe34  1  0.00410470  0.67125282  0.66827316  1
  Ni  Ni35  1  0.17144140  0.83846564  0.83461839  1
  Ni  Ni36  1  0.50365318  0.16696349  0.50300438  1
  Ni  Ni37  1  0.33659799  1.00163305  0.66918831  1
  Fe  Fe38  1  0.50384324  0.16713007  0.83713532  1
  Fe  Fe39  1  0.50143027  0.50350674  0.50079772  1
  Cr  Cr40  1  0.33691317  0.33461518  0.66913443  1
  Cr  Cr41  1  0.50333287  0.50506605  0.83767883  1
  Ni  Ni42  1  0.50395047  0.83888335  0.50215690  1
  Fe  Fe43  1  0.33591058  0.67305229  0.66786351  1
  Ni  Ni44  1  0.50297345  0.83832925  0.83707850  1
  Fe  Fe45  1  0.83702855  0.16830446  0.50371212  1
  Ni  Ni46  1  0.66964287  0.00396566  0.67188112  1
  Ni  Ni47  1  0.83737114  0.16851271  0.83646300  1
  Ni  Ni48  1  0.83566655  0.50261469  0.50377237  1
  Ni  Ni49  1  0.67018189  0.33436848  0.66701583  1
  Cr  Cr50  1  0.83683492  0.50146122  0.83485098  1
  Fe  Fe51  1  0.83736702  0.83774390  0.50234396  1
  Fe  Fe52  1  0.66914426  0.67341689  0.66761194  1
  Ni  Ni53  1  0.83520275  0.83924102  0.83487315  1
" 