3497,Ni64Fe30Cr5_19,-239.707366054099, 212.084918784637,Ni64Fe30Cr5,"# generated using pymatgen
 data_Cr2Fe8Ni17
_symmetry_space_group_name_H-M   'P 1'
_cell_length_a   7.42399806
_cell_length_b   7.42399806
_cell_length_c   10.49911875
_cell_angle_alpha   90.00000000
_cell_angle_beta   90.00000000
_cell_angle_gamma   90.00000000
_symmetry_Int_Tables_number   1
_chemical_formula_structural   Cr2Fe8Ni17
_chemical_formula_sum   'Cr4 Fe16 Ni34'
_cell_volume   578.66677513
_cell_formula_units_Z   2
loop_
 _symmetry_equiv_pos_site_id
 _symmetry_equiv_pos_as_xyz
  1  'x, y, z'
loop_
 _atom_site_type_symbol
 _atom_site_label
 _atom_site_symmetry_multiplicity
 _atom_site_fract_x
 _atom_site_fract_y
 _atom_site_fract_z
 _atom_site_occupancy
  Ni  Ni0  1  0.00382108  0.00305965  1.00237128  1
  Ni  Ni1  1  0.17096342  0.16947217  0.16937780  1
  Fe  Fe2  1  0.00300600  1.00045481  0.33594868  1
  Ni  Ni3  1  0.00322750  0.33664383  1.00166409  1
  Ni  Ni4  1  0.17005838  0.50197095  0.16899770  1
  Fe  Fe5  1  0.00306367  0.33828542  0.33550346  1
  Fe  Fe6  1  0.00340097  0.66965580  0.00304499  1
  Ni  Ni7  1  0.16987398  0.83725474  0.16972271  1
  Ni  Ni8  1  0.00363881  0.66896975  0.33612484  1
  Ni  Ni9  1  0.33606433  1.00287771  1.00244154  1
  Fe  Fe10  1  0.50094597  0.16942087  0.16995996  1
  Ni  Ni11  1  0.33769837  1.00149161  0.33561425  1
  Ni  Ni12  1  0.33529584  0.33546103  0.00382660  1
  Ni  Ni13  1  0.50310067  0.50322632  0.16975767  1
  Fe  Fe14  1  0.33742871  0.33731415  0.33520884  1
  Ni  Ni15  1  0.33656931  0.67035967  0.00363899  1
  Ni  Ni16  1  0.50279051  0.83550200  0.16912722  1
  Ni  Ni17  1  0.33512826  0.67000937  0.33660337  1
  Fe  Fe18  1  0.66818630  1.00148240  1.00235676  1
  Cr  Cr19  1  0.83745833  0.16936723  0.16947318  1
  Ni  Ni20  1  0.66831517  0.00376315  0.33752442  1
  Fe  Fe21  1  0.66912288  0.33678840  0.00323779  1
  Ni  Ni22  1  0.83553842  0.50431217  0.16934670  1
  Ni  Ni23  1  0.66935456  0.33624460  0.33696541  1
  Ni  Ni24  1  0.66999280  0.66976365  0.00410586  1
  Ni  Ni25  1  0.83603267  0.83460017  0.16934742  1
  Fe  Fe26  1  0.66917680  0.67001384  0.33572936  1
  Cr  Cr27  1  0.17032488  0.16864031  0.50222288  1
  Ni  Ni28  1  1.00210269  1.00206250  0.66962865  1
  Ni  Ni29  1  0.17011441  0.16866613  0.83645746  1
  Ni  Ni30  1  0.16859132  0.50317008  0.50272620  1
  Fe  Fe31  1  1.00283213  0.33718003  0.67078455  1
  Fe  Fe32  1  0.16749648  0.50251795  0.83723488  1
  Ni  Ni33  1  0.16840417  0.83622230  0.50205936  1
  Ni  Ni34  1  1.00148045  0.66936220  0.67029378  1
  Ni  Ni35  1  0.16824468  0.83900165  0.83691662  1
  Ni  Ni36  1  0.50361455  0.16983165  0.50279688  1
  Ni  Ni37  1  0.33716591  0.00345769  0.67064222  1
  Ni  Ni38  1  0.50123323  0.16813067  0.83664887  1
  Ni  Ni39  1  0.50444584  0.50175502  0.50200225  1
  Fe  Fe40  1  0.33556215  0.33406408  0.66978916  1
  Cr  Cr41  1  0.50408929  0.50247772  0.83703330  1
  Ni  Ni42  1  0.50410488  0.83711216  0.50271693  1
  Cr  Cr43  1  0.33492296  0.67129126  0.66858141  1
  Ni  Ni44  1  0.50364122  0.83899782  0.83685555  1
  Fe  Fe45  1  0.83402009  0.16945869  0.50243864  1
  Fe  Fe46  1  0.66936793  1.00190886  0.66906171  1
  Fe  Fe47  1  0.83674560  0.16868514  0.83655501  1
  Ni  Ni48  1  0.83566113  0.50365897  0.50274392  1
  Fe  Fe49  1  0.67030638  0.33547335  0.66806623  1
  Ni  Ni50  1  0.83734933  0.50344004  0.83660778  1
  Ni  Ni51  1  0.83619020  0.83539279  0.50283135  1
  Fe  Fe52  1  0.67248480  0.67131469  0.66932689  1
  Ni  Ni53  1  0.83681454  0.83552570  0.83652154  1
" 