4934,Ni64Fe7Cr28_8,-228.277251619764, 157.631173283294,Ni64Fe7Cr28,"# generated using pymatgen
 data_Cr8Fe2Ni17
_symmetry_space_group_name_H-M   'P 1'
_cell_length_a   7.47453042
_cell_length_b   7.47453042
_cell_length_c   10.57058229
_cell_angle_alpha   90.00000000
_cell_angle_beta   90.00000000
_cell_angle_gamma   90.00000000
_symmetry_Int_Tables_number   1
_chemical_formula_structural   Cr8Fe2Ni17
_chemical_formula_sum   'Cr16 Fe4 Ni34'
_cell_volume   590.56368589
_cell_formula_units_Z   2
loop_
 _symmetry_equiv_pos_site_id
 _symmetry_equiv_pos_as_xyz
  1  'x, y, z'
loop_
 _atom_site_type_symbol
 _atom_site_label
 _atom_site_symmetry_multiplicity
 _atom_site_fract_x
 _atom_site_fract_y
 _atom_site_fract_z
 _atom_site_occupancy
  Ni  Ni0  1  0.99934759  0.99939990  0.99798887  1
  Fe  Fe1  1  0.16565354  0.16699975  0.16669000  1
  Ni  Ni2  1  0.99704571  0.99909337  0.33451233  1
  Cr  Cr3  1  0.99819688  0.33173468  0.00064787  1
  Ni  Ni4  1  0.16784326  0.50023471  0.16537159  1
  Cr  Cr5  1  0.99894282  0.33091897  0.33206736  1
  Ni  Ni6  1  0.00134194  0.66710793  0.99945670  1
  Cr  Cr7  1  0.16464327  0.83189738  0.16680951  1
  Ni  Ni8  1  0.99878942  0.66803459  0.33157390  1
  Cr  Cr9  1  0.33354609  -0.00020198  0.00108471  1
  Ni  Ni10  1  0.50134154  0.16950543  0.16689264  1
  Cr  Cr11  1  0.33416650  0.00103440  0.33263554  1
  Fe  Fe12  1  0.33416672  0.33367000  -0.00012995  1
  Ni  Ni13  1  0.49853788  0.49776439  0.16729600  1
  Ni  Ni14  1  0.33486021  0.33312140  0.33190510  1
  Ni  Ni15  1  0.33132620  0.66417040  0.99927725  1
  Ni  Ni16  1  0.50030987  0.83132739  0.16801654  1
  Ni  Ni17  1  0.33368832  0.66445396  0.33196934  1
  Cr  Cr18  1  0.66728388  0.00200493  0.00130028  1
  Ni  Ni19  1  0.83161574  0.16544974  0.16678855  1
  Ni  Ni20  1  0.66791052  0.00042635  0.33146288  1
  Ni  Ni21  1  0.66481526  0.33197904  0.00022443  1
  Ni  Ni22  1  0.83236394  0.49955954  0.16723651  1
  Ni  Ni23  1  0.66416543  0.33135764  0.33206175  1
  Cr  Cr24  1  0.66543090  0.66571794  0.00130196  1
  Ni  Ni25  1  0.83437021  0.83368571  0.16739998  1
  Ni  Ni26  1  0.66594452  0.66652569  0.33115601  1
  Ni  Ni27  1  0.16761498  0.16361846  0.49960731  1
  Fe  Fe28  1  -0.00024085  -0.00026480  0.66591550  1
  Ni  Ni29  1  0.16720952  0.16417395  0.83279788  1
  Cr  Cr30  1  0.16910745  0.49920913  0.49736413  1
  Cr  Cr31  1  0.00172513  0.32960162  0.66540816  1
  Fe  Fe32  1  0.16797678  0.49854743  0.83484451  1
  Ni  Ni33  1  0.16385120  0.83568177  0.49874894  1
  Cr  Cr34  1  0.99905861  0.66801108  0.66666803  1
  Ni  Ni35  1  0.16436223  0.83496951  0.83346765  1
  Ni  Ni36  1  0.49927390  0.16772690  0.49997090  1
  Ni  Ni37  1  0.33193524  0.00230320  0.66596435  1
  Ni  Ni38  1  0.49841875  0.16908487  0.83217956  1
  Ni  Ni39  1  0.49895503  0.49702304  0.49794466  1
  Ni  Ni40  1  0.33332098  0.32948530  0.66746887  1
  Ni  Ni41  1  0.49700126  0.49652587  0.83337737  1
  Cr  Cr42  1  0.50111565  0.83293377  0.49853962  1
  Cr  Cr43  1  0.33287245  0.66603406  0.66639549  1
  Cr  Cr44  1  0.49947386  0.83368201  0.83200785  1
  Ni  Ni45  1  0.83147429  0.16169268  0.49885677  1
  Ni  Ni46  1  0.66656016  0.00008288  0.66665030  1
  Ni  Ni47  1  0.83319582  0.16340223  0.83274717  1
  Cr  Cr48  1  0.82900719  0.50118724  0.49643696  1
  Cr  Cr49  1  0.66518780  0.33166773  0.66554568  1
  Cr  Cr50  1  0.83064646  0.49991485  0.83385515  1
  Ni  Ni51  1  0.83359281  0.83570063  0.49878656  1
  Ni  Ni52  1  0.66622202  0.66846769  0.66613223  1
  Ni  Ni53  1  0.83640323  0.83553378  0.83229087  1
" 