3805,Ni64Fe32Cr3_16,-240.267967008773, 215.837969278505,Ni64Fe32Cr3,"# generated using pymatgen
 data_Cr3(FeNi2)17
_symmetry_space_group_name_H-M   'P 1'
_cell_length_a   7.41502417
_cell_length_b   7.41502417
_cell_length_c   10.48642774
_cell_angle_alpha   90.00000000
_cell_angle_beta   90.00000000
_cell_angle_gamma   90.00000000
_symmetry_Int_Tables_number   1
_chemical_formula_structural   Cr3(FeNi2)17
_chemical_formula_sum   'Cr3 Fe17 Ni34'
_cell_volume   576.57088787
_cell_formula_units_Z   1
loop_
 _symmetry_equiv_pos_site_id
 _symmetry_equiv_pos_as_xyz
  1  'x, y, z'
loop_
 _atom_site_type_symbol
 _atom_site_label
 _atom_site_symmetry_multiplicity
 _atom_site_fract_x
 _atom_site_fract_y
 _atom_site_fract_z
 _atom_site_occupancy
  Ni  Ni0  1  1.00228096  1.00303509  1.00340415  1
  Cr  Cr1  1  0.17032763  0.16899690  0.16990065  1
  Fe  Fe2  1  1.00345415  1.00085537  0.33726450  1
  Fe  Fe3  1  1.00158052  0.33806067  1.00240422  1
  Ni  Ni4  1  0.16962950  0.50697013  0.16984905  1
  Cr  Cr5  1  0.00352451  0.33838394  0.33736942  1
  Ni  Ni6  1  1.00290211  0.67057456  0.00446798  1
  Fe  Fe7  1  0.17052937  0.83474304  0.17013148  1
  Ni  Ni8  1  0.00378153  0.67169576  0.33636219  1
  Ni  Ni9  1  0.33758134  1.00222462  1.00320487  1
  Ni  Ni10  1  0.50570174  0.16851480  0.17059605  1
  Fe  Fe11  1  0.33755927  1.00242400  0.33724070  1
  Cr  Cr12  1  0.33778167  0.33754619  1.00319373  1
  Ni  Ni13  1  0.50412915  0.50505657  0.17122240  1
  Ni  Ni14  1  0.33927882  0.33760288  0.33773414  1
  Ni  Ni15  1  0.33696915  0.67137819  0.00426989  1
  Ni  Ni16  1  0.50307880  0.83695031  0.16985033  1
  Ni  Ni17  1  0.33663958  0.66964180  0.33591096  1
  Fe  Fe18  1  0.66979171  1.00299134  1.00348146  1
  Ni  Ni19  1  0.83491218  0.16950311  0.16895668  1
  Fe  Fe20  1  0.66951126  1.00338896  0.33725314  1
  Fe  Fe21  1  0.67170943  0.33717684  1.00330108  1
  Ni  Ni22  1  0.83676592  0.50434768  0.16883264  1
  Fe  Fe23  1  0.66820390  0.33770585  0.33678325  1
  Ni  Ni24  1  0.67065181  0.67036636  0.00392160  1
  Fe  Fe25  1  0.83660666  0.83629341  0.17021741  1
  Fe  Fe26  1  0.66977510  0.66943077  0.33693680  1
  Fe  Fe27  1  0.17149101  0.16997694  0.50455132  1
  Fe  Fe28  1  1.00303180  0.00358239  0.67057149  1
  Ni  Ni29  1  0.16928851  0.16908198  0.83569740  1
  Ni  Ni30  1  0.17035382  0.50479008  0.50439316  1
  Ni  Ni31  1  0.00385330  0.33681768  0.67061494  1
  Ni  Ni32  1  0.16900438  0.50439939  0.83628201  1
  Ni  Ni33  1  0.16957410  0.83657997  0.50304551  1
  Ni  Ni34  1  1.00335100  0.66968492  0.66969186  1
  Fe  Fe35  1  0.17013683  0.83662201  0.83710680  1
  Ni  Ni36  1  0.50319335  0.16989146  0.50315229  1
  Fe  Fe37  1  0.33752352  0.00378991  0.67041693  1
  Ni  Ni38  1  0.50397843  0.16880023  0.83677633  1
  Ni  Ni39  1  0.50336662  0.50321975  0.50337498  1
  Ni  Ni40  1  0.33663805  0.33679695  0.66938567  1
  Ni  Ni41  1  0.50420286  0.50461923  0.83592364  1
  Ni  Ni42  1  0.50340963  0.83741094  0.50409435  1
  Ni  Ni43  1  0.33683350  0.66939879  0.67034373  1
  Fe  Fe44  1  0.50349022  0.83648031  0.83703604  1
  Fe  Fe45  1  0.83554706  0.16944735  0.50468584  1
  Ni  Ni46  1  0.67031975  0.00382277  0.67049417  1
  Ni  Ni47  1  0.83725715  0.17012879  0.83707287  1
  Ni  Ni48  1  0.83680282  0.50500498  0.50472046  1
  Ni  Ni49  1  0.67003190  0.33579054  0.66975756  1
  Ni  Ni50  1  0.83731714  0.50357648  0.83696874  1
  Ni  Ni51  1  0.83754006  0.83640852  0.50337141  1
  Ni  Ni52  1  0.67033943  0.67091040  0.66937401  1
  Fe  Fe53  1  0.83689668  0.83653876  0.83646643  1
" 