3233,Ni64Fe29Cr6_8,-239.016649425135, 211.235964159795,Ni64Fe29Cr6,"# generated using pymatgen
 data_Cr5Fe15Ni34
_symmetry_space_group_name_H-M   'P 1'
_cell_length_a   7.42229884
_cell_length_b   7.42229884
_cell_length_c   10.49671568
_cell_angle_alpha   90.00000000
_cell_angle_beta   90.00000000
_cell_angle_gamma   90.00000000
_symmetry_Int_Tables_number   1
_chemical_formula_structural   Cr5Fe15Ni34
_chemical_formula_sum   'Cr5 Fe15 Ni34'
_cell_volume   578.26952543
_cell_formula_units_Z   1
loop_
 _symmetry_equiv_pos_site_id
 _symmetry_equiv_pos_as_xyz
  1  'x, y, z'
loop_
 _atom_site_type_symbol
 _atom_site_label
 _atom_site_symmetry_multiplicity
 _atom_site_fract_x
 _atom_site_fract_y
 _atom_site_fract_z
 _atom_site_occupancy
  Cr  Cr0  1  1.00217199  1.00117945  1.00252215  1
  Fe  Fe1  1  0.16979422  0.17209430  0.16911543  1
  Fe  Fe2  1  1.00093087  0.00465830  0.33612943  1
  Fe  Fe3  1  0.00462686  0.33697564  0.00466791  1
  Ni  Ni4  1  0.17142797  0.50174206  0.16831702  1
  Ni  Ni5  1  1.00289141  0.33594031  0.33588239  1
  Fe  Fe6  1  0.00378231  0.66912601  0.00360179  1
  Fe  Fe7  1  0.17098535  0.83374430  0.16827350  1
  Cr  Cr8  1  1.00159566  0.66963809  0.33375735  1
  Ni  Ni9  1  0.33617914  0.00301541  1.00280736  1
  Fe  Fe10  1  0.50495468  0.17196131  0.16892903  1
  Cr  Cr11  1  0.33677677  0.00306000  0.33468044  1
  Ni  Ni12  1  0.33769630  0.33649795  1.00283487  1
  Ni  Ni13  1  0.50212216  0.50411639  0.17119976  1
  Ni  Ni14  1  0.33596828  0.33740800  0.33662943  1
  Ni  Ni15  1  0.33737888  0.66976016  1.00212710  1
  Ni  Ni16  1  0.50306166  0.83597587  0.16817520  1
  Ni  Ni17  1  0.33708214  0.66905161  0.33692764  1
  Fe  Fe18  1  0.66721397  1.00240958  0.00344781  1
  Ni  Ni19  1  0.83542883  0.17080902  0.16986320  1
  Ni  Ni20  1  0.67051680  1.00276006  0.33488232  1
  Ni  Ni21  1  0.66847602  0.33702292  0.00351979  1
  Ni  Ni22  1  0.83592907  0.50121453  0.16861377  1
  Ni  Ni23  1  0.67036541  0.33660770  0.33663783  1
  Ni  Ni24  1  0.66955402  0.66979419  0.00340078  1
  Ni  Ni25  1  0.83299099  0.83748829  0.17024200  1
  Ni  Ni26  1  0.66932807  0.67001017  0.33721686  1
  Fe  Fe27  1  0.16860713  0.16964107  0.50304885  1
  Fe  Fe28  1  1.00297180  0.00391471  0.67002973  1
  Fe  Fe29  1  0.17123076  0.16951727  0.83661021  1
  Ni  Ni30  1  0.16805205  0.50405978  0.50296635  1
  Ni  Ni31  1  1.00262490  0.33767376  0.67037732  1
  Ni  Ni32  1  0.17011285  0.50379441  0.83747496  1
  Ni  Ni33  1  0.17071872  0.83572639  0.50406912  1
  Ni  Ni34  1  0.00329980  0.67048392  0.67043934  1
  Ni  Ni35  1  0.17102037  0.83509177  0.83578040  1
  Ni  Ni36  1  0.50600593  0.16761087  0.50155831  1
  Ni  Ni37  1  0.33692646  1.00204187  0.67094304  1
  Ni  Ni38  1  0.50411087  0.16850253  0.83838764  1
  Fe  Fe39  1  0.50434998  0.50313575  0.50150106  1
  Cr  Cr40  1  0.33809352  0.33522294  0.66894344  1
  Ni  Ni41  1  0.50192698  0.50292270  0.83611207  1
  Ni  Ni42  1  0.50234353  0.83806505  0.50435201  1
  Fe  Fe43  1  0.33620138  0.67011420  0.67011491  1
  Ni  Ni44  1  0.50214473  0.83775497  0.83669236  1
  Ni  Ni45  1  0.83536482  0.17029444  0.50351845  1
  Ni  Ni46  1  0.66848083  0.00325752  0.67134396  1
  Fe  Fe47  1  0.83460845  0.16905322  0.83545873  1
  Ni  Ni48  1  0.83766067  0.50041617  0.50315477  1
  Ni  Ni49  1  0.67010189  0.33489885  0.66892537  1
  Cr  Cr50  1  0.83691163  0.50202843  0.83793742  1
  Fe  Fe51  1  0.83514759  0.83680018  0.50403400  1
  Fe  Fe52  1  0.66905226  0.66940817  0.66961728  1
  Ni  Ni53  1  0.83548229  0.83728946  0.83498877  1
" 