4796,Ni64Cr36_4,-213.84612099067, 137.572380361935,Ni64Cr36,"# generated using pymatgen
 data_Cr17Ni10
_symmetry_space_group_name_H-M   'P 1'
_cell_length_a   7.54993199
_cell_length_b   7.54993199
_cell_length_c   10.67721622
_cell_angle_alpha   90.00000000
_cell_angle_beta   90.00000000
_cell_angle_gamma   90.00000000
_symmetry_Int_Tables_number   1
_chemical_formula_structural   Cr17Ni10
_chemical_formula_sum   'Cr34 Ni20'
_cell_volume   608.61705332
_cell_formula_units_Z   2
loop_
 _symmetry_equiv_pos_site_id
 _symmetry_equiv_pos_as_xyz
  1  'x, y, z'
loop_
 _atom_site_type_symbol
 _atom_site_label
 _atom_site_symmetry_multiplicity
 _atom_site_fract_x
 _atom_site_fract_y
 _atom_site_fract_z
 _atom_site_occupancy
  Cr  Cr0  1  0.99210743  0.99344313  -0.00419083  1
  Cr  Cr1  1  0.15883422  0.16035732  0.16771638  1
  Ni  Ni2  1  0.99342918  -0.00349449  0.32830902  1
  Cr  Cr3  1  0.99436886  0.32943560  -0.00240461  1
  Ni  Ni4  1  0.15947455  0.49523251  0.16010036  1
  Ni  Ni5  1  0.99182882  0.32600087  0.32533895  1
  Ni  Ni6  1  -0.00048208  0.65981989  0.99332922  1
  Cr  Cr7  1  0.16282798  0.82791196  0.15997849  1
  Cr  Cr8  1  0.99265382  0.66159510  0.32612781  1
  Cr  Cr9  1  0.32831170  -0.00444827  0.99332643  1
  Cr  Cr10  1  0.49651578  0.16134345  0.16029986  1
  Ni  Ni11  1  0.32842900  0.99449881  0.33065933  1
  Cr  Cr12  1  0.32727016  0.32998950  0.99245526  1
  Cr  Cr13  1  0.49492252  0.49545938  0.16088068  1
  Cr  Cr14  1  0.32762220  0.32672930  0.32756903  1
  Ni  Ni15  1  0.32428075  0.65897415  0.99242942  1
  Cr  Cr16  1  0.49333814  0.82755988  0.16053119  1
  Cr  Cr17  1  0.32769224  0.66172485  0.32760707  1
  Ni  Ni18  1  0.66103859  -0.00068188  -0.00542723  1
  Ni  Ni19  1  0.82651192  0.16228146  0.16212692  1
  Cr  Cr20  1  0.66200448  0.99412722  0.32864414  1
  Ni  Ni21  1  0.66022041  0.32535693  0.99384367  1
  Cr  Cr22  1  0.82628425  0.49177709  0.16287647  1
  Ni  Ni23  1  0.66320541  0.32645519  0.32765753  1
  Cr  Cr24  1  0.66301066  0.66104970  0.99406804  1
  Cr  Cr25  1  0.82735007  0.82901236  0.15971371  1
  Ni  Ni26  1  0.66148453  0.66135996  0.33065707  1
  Cr  Cr27  1  0.16076822  0.16058044  0.49406074  1
  Ni  Ni28  1  -0.00514634  0.99367022  0.66055032  1
  Cr  Cr29  1  0.15994923  0.15859607  0.82290679  1
  Cr  Cr30  1  0.15837249  0.49120117  0.49476449  1
  Ni  Ni31  1  -0.00442899  0.32700684  0.66268513  1
  Ni  Ni32  1  0.16158425  0.49606770  0.82910074  1
  Cr  Cr33  1  0.16126732  0.83121167  0.49462983  1
  Cr  Cr34  1  -0.00537725  0.66202364  0.66276770  1
  Ni  Ni35  1  0.16109176  0.82470898  0.82887344  1
  Ni  Ni36  1  0.49578309  0.15941535  0.49210311  1
  Cr  Cr37  1  0.33130662  -0.00492094  0.65984572  1
  Ni  Ni38  1  0.49610548  0.16301114  0.83042981  1
  Cr  Cr39  1  0.49661416  0.49467601  0.49188065  1
  Cr  Cr40  1  0.32867120  0.32811398  0.66380641  1
  Ni  Ni41  1  0.49259560  0.49323404  0.83076244  1
  Ni  Ni42  1  0.49672288  0.83008488  0.49094577  1
  Cr  Cr43  1  0.32807143  0.66003613  0.66307921  1
  Cr  Cr44  1  0.49339100  0.82734479  0.83152930  1
  Cr  Cr45  1  0.83129931  0.16286777  0.49546171  1
  Cr  Cr46  1  0.66194313  0.99432892  0.65999510  1
  Cr  Cr47  1  0.82738384  0.16168491  0.82843372  1
  Cr  Cr48  1  0.82753593  0.49377883  0.49331238  1
  Cr  Cr49  1  0.65814800  0.32626338  0.66301927  1
  Cr  Cr50  1  0.82702510  0.49325095  0.82690348  1
  Ni  Ni51  1  0.82751394  0.82994431  0.49298146  1
  Cr  Cr52  1  0.66075273  0.66348522  0.65600899  1
  Cr  Cr53  1  0.83010991  0.82905220  0.82852846  1
" 