1573,Ni64Fe7Cr28_17,-228.909206238752, 167.917189149106,Ni64Fe7Cr28,"# generated using pymatgen
 data_Cr8Fe2Ni17
_symmetry_space_group_name_H-M   'P 1'
_cell_length_a   7.47107466
_cell_length_b   7.47107466
_cell_length_c   10.56569511
_cell_angle_alpha   90.00000000
_cell_angle_beta   90.00000000
_cell_angle_gamma   90.00000000
_symmetry_Int_Tables_number   1
_chemical_formula_structural   Cr8Fe2Ni17
_chemical_formula_sum   'Cr16 Fe4 Ni34'
_cell_volume   589.74494437
_cell_formula_units_Z   2
loop_
 _symmetry_equiv_pos_site_id
 _symmetry_equiv_pos_as_xyz
  1  'x, y, z'
loop_
 _atom_site_type_symbol
 _atom_site_label
 _atom_site_symmetry_multiplicity
 _atom_site_fract_x
 _atom_site_fract_y
 _atom_site_fract_z
 _atom_site_occupancy
  Ni  Ni0  1  0.00101289  0.99662289  0.99902047  1
  Ni  Ni1  1  0.16732671  0.16419585  0.16602978  1
  Ni  Ni2  1  0.00114212  0.99864704  0.33430693  1
  Cr  Cr3  1  0.00145260  0.33566222  0.00006578  1
  Ni  Ni4  1  0.16499965  0.49989903  0.16685859  1
  Ni  Ni5  1  0.99894898  0.33370250  0.33242908  1
  Ni  Ni6  1  0.99773613  0.66777999  0.99964161  1
  Ni  Ni7  1  0.16390943  0.83509515  0.16709646  1
  Ni  Ni8  1  0.99904172  0.66684086  0.33199109  1
  Ni  Ni9  1  0.33297658  0.00099734  0.99917174  1
  Cr  Cr10  1  0.49782273  0.16729917  0.16416140  1
  Ni  Ni11  1  0.33044423  0.99742128  0.33201127  1
  Ni  Ni12  1  0.33289104  0.33067303  0.99916622  1
  Ni  Ni13  1  0.50251435  0.49914557  0.16618511  1
  Cr  Cr14  1  0.33147830  0.33425912  0.33204218  1
  Cr  Cr15  1  0.33192417  0.66699692  0.00062240  1
  Fe  Fe16  1  0.50021935  0.83185684  0.16557136  1
  Cr  Cr17  1  0.33294682  0.66787925  0.33407760  1
  Ni  Ni18  1  0.66520250  0.99737333  0.99836353  1
  Cr  Cr19  1  0.83407526  0.16640578  0.16789217  1
  Cr  Cr20  1  0.66662267  0.99748780  0.33438086  1
  Ni  Ni21  1  0.66494214  0.33395224  0.99944857  1
  Ni  Ni22  1  0.83167843  0.50256406  0.16697313  1
  Ni  Ni23  1  0.66883187  0.33580339  0.33372410  1
  Ni  Ni24  1  0.66931798  0.66786666  0.00039313  1
  Ni  Ni25  1  0.83505031  0.83015082  0.16517973  1
  Ni  Ni26  1  0.66760563  0.66587514  0.33261966  1
  Cr  Cr27  1  0.16479906  0.16498926  0.49846276  1
  Fe  Fe28  1  0.99961287  0.99748145  0.66629117  1
  Fe  Fe29  1  0.16900577  0.16543485  0.83452623  1
  Ni  Ni30  1  0.16820063  0.50122932  0.49989772  1
  Cr  Cr31  1  0.00059405  0.33332692  0.66718957  1
  Ni  Ni32  1  0.16649407  0.50009494  0.83243728  1
  Ni  Ni33  1  0.16521610  0.83304273  0.49881186  1
  Cr  Cr34  1  0.00099081  0.66748860  0.66801011  1
  Ni  Ni35  1  0.16498565  0.83394236  0.83328450  1
  Cr  Cr36  1  0.50084459  0.16890021  0.49973234  1
  Cr  Cr37  1  0.33312766  0.99755205  0.66790132  1
  Ni  Ni38  1  0.49842453  0.16683808  0.83488203  1
  Ni  Ni39  1  0.50033904  0.50059652  0.50192942  1
  Ni  Ni40  1  0.33348938  0.33571619  0.66744101  1
  Cr  Cr41  1  0.50068718  0.49796450  0.83101183  1
  Ni  Ni42  1  0.49985035  0.83020523  0.49947962  1
  Ni  Ni43  1  0.33356369  0.66543618  0.66462625  1
  Ni  Ni44  1  0.50023373  0.83480990  0.83383578  1
  Fe  Fe45  1  0.83369011  0.16582202  0.49859896  1
  Cr  Cr46  1  0.66730493  0.99794980  0.66611760  1
  Cr  Cr47  1  0.83127386  0.16561548  0.83306845  1
  Cr  Cr48  1  0.83073872  0.50004282  0.49784648  1
  Ni  Ni49  1  0.66486369  0.33414309  0.66601945  1
  Ni  Ni50  1  0.83229037  0.50190228  0.83443141  1
  Ni  Ni51  1  0.83412560  0.83367424  0.49927811  1
  Ni  Ni52  1  0.66461281  0.66683389  0.66617765  1
  Ni  Ni53  1  0.83397270  0.83196032  0.83473367  1
" 