4039,Ni64Fe30Cr5_3,-239.651989774538, 211.2528218955,Ni64Fe30Cr5,"# generated using pymatgen
 data_Cr2Fe8Ni17
_symmetry_space_group_name_H-M   'P 1'
_cell_length_a   7.42683618
_cell_length_b   7.42683618
_cell_length_c   10.50313246
_cell_angle_alpha   90.00000000
_cell_angle_beta   90.00000000
_cell_angle_gamma   90.00000000
_symmetry_Int_Tables_number   1
_chemical_formula_structural   Cr2Fe8Ni17
_chemical_formula_sum   'Cr4 Fe16 Ni34'
_cell_volume   579.33068467
_cell_formula_units_Z   2
loop_
 _symmetry_equiv_pos_site_id
 _symmetry_equiv_pos_as_xyz
  1  'x, y, z'
loop_
 _atom_site_type_symbol
 _atom_site_label
 _atom_site_symmetry_multiplicity
 _atom_site_fract_x
 _atom_site_fract_y
 _atom_site_fract_z
 _atom_site_occupancy
  Ni  Ni0  1  1.00189598  1.00237889  0.00376816  1
  Fe  Fe1  1  0.16876988  0.17015679  0.16831586  1
  Cr  Cr2  1  0.99976641  0.00312488  0.33455326  1
  Fe  Fe3  1  0.99944629  0.33814452  0.00353246  1
  Ni  Ni4  1  0.16898478  0.50179101  0.16805136  1
  Ni  Ni5  1  0.00298648  0.33702417  0.33559757  1
  Ni  Ni6  1  0.00319275  0.67045301  1.00244320  1
  Fe  Fe7  1  0.16856536  0.83362457  0.16800439  1
  Ni  Ni8  1  1.00214172  0.66713581  0.33461175  1
  Fe  Fe9  1  0.33831502  0.99985195  0.00297135  1
  Fe  Fe10  1  0.50481160  0.17061325  0.16963399  1
  Ni  Ni11  1  0.33814449  0.00370395  0.33382818  1
  Fe  Fe12  1  0.33767415  0.33713349  0.00341447  1
  Fe  Fe13  1  0.50495981  0.50412259  0.16922610  1
  Ni  Ni14  1  0.33580667  0.33677268  0.33578901  1
  Ni  Ni15  1  0.33586407  0.66819385  0.00272244  1
  Ni  Ni16  1  0.50304344  0.83757361  0.16936686  1
  Ni  Ni17  1  0.33687839  0.66797139  0.33454847  1
  Ni  Ni18  1  0.67082343  0.00397766  0.00285223  1
  Ni  Ni19  1  0.83421591  0.17125240  0.16783868  1
  Ni  Ni20  1  0.66862959  0.00314184  0.33536168  1
  Ni  Ni21  1  0.66880161  0.33605841  1.00269516  1
  Ni  Ni22  1  0.83734416  0.50276559  0.17046262  1
  Ni  Ni23  1  0.66951094  0.33582994  0.33592527  1
  Ni  Ni24  1  0.66909316  0.66852986  1.00270128  1
  Ni  Ni25  1  0.83276514  0.83443121  0.16795346  1
  Ni  Ni26  1  0.66889464  0.66982337  0.33550055  1
  Fe  Fe27  1  0.17105508  0.16964641  0.50372462  1
  Ni  Ni28  1  1.00069681  1.00266507  0.66948646  1
  Cr  Cr29  1  0.17091739  0.16907535  0.83506716  1
  Ni  Ni30  1  0.16659234  0.49927603  0.50349651  1
  Ni  Ni31  1  1.00131388  0.33624526  0.66902065  1
  Fe  Fe32  1  0.16801857  0.50254409  0.83665391  1
  Cr  Cr33  1  0.16980099  0.83378519  0.50130601  1
  Ni  Ni34  1  1.00138599  0.66916220  0.67128721  1
  Ni  Ni35  1  0.16864501  0.83587010  0.83725913  1
  Ni  Ni36  1  0.50291717  0.16938887  0.50236221  1
  Ni  Ni37  1  0.33776934  0.00355946  0.66989553  1
  Ni  Ni38  1  0.50415497  0.16920995  0.83663646  1
  Fe  Fe39  1  0.50341352  0.50331217  0.50158558  1
  Ni  Ni40  1  0.33772621  0.33570548  0.66870476  1
  Fe  Fe41  1  0.50422731  0.50075714  0.83729959  1
  Ni  Ni42  1  0.50606436  0.83968492  0.50256056  1
  Cr  Cr43  1  0.33790645  0.66827128  0.67065809  1
  Fe  Fe44  1  0.50416651  0.83729557  0.83741052  1
  Fe  Fe45  1  0.83433000  0.16953193  0.50264588  1
  Ni  Ni46  1  0.66978822  0.00377606  0.67039409  1
  Fe  Fe47  1  0.83513769  0.16976359  0.83688200  1
  Fe  Fe48  1  0.83474982  0.50357668  0.50283129  1
  Ni  Ni49  1  0.66889020  0.33541898  0.66984104  1
  Ni  Ni50  1  0.83582897  0.50339763  0.83605838  1
  Ni  Ni51  1  0.83275502  0.83367847  0.50406741  1
  Ni  Ni52  1  0.67034955  0.66931546  0.67070006  1
  Fe  Fe53  1  0.83625998  0.83669315  0.83668232  1
" 