8300,Ni64Fe34Cr1_13,-241.199948424572, 217.376514281415,Ni64Fe34Cr1,"# generated using pymatgen
 data_CrFe9Ni17
_symmetry_space_group_name_H-M   'P 1'
_cell_length_a   7.41185766
_cell_length_b   7.41185766
_cell_length_c   10.48194962
_cell_angle_alpha   90.00000000
_cell_angle_beta   90.00000000
_cell_angle_gamma   90.00000000
_symmetry_Int_Tables_number   1
_chemical_formula_structural   CrFe9Ni17
_chemical_formula_sum   'Cr2 Fe18 Ni34'
_cell_volume   575.83254679
_cell_formula_units_Z   2
loop_
 _symmetry_equiv_pos_site_id
 _symmetry_equiv_pos_as_xyz
  1  'x, y, z'
loop_
 _atom_site_type_symbol
 _atom_site_label
 _atom_site_symmetry_multiplicity
 _atom_site_fract_x
 _atom_site_fract_y
 _atom_site_fract_z
 _atom_site_occupancy
  Ni  Ni0  1  1.00248393  1.00370064  1.00227320  1
  Ni  Ni1  1  0.17141222  0.17031526  0.17001954  1
  Ni  Ni2  1  1.00275404  0.00443438  0.33858786  1
  Ni  Ni3  1  1.00305950  0.33710946  1.00354809  1
  Fe  Fe4  1  0.17106789  0.50293386  0.16998100  1
  Ni  Ni5  1  1.00328411  0.33644170  0.33738779  1
  Ni  Ni6  1  0.00554631  0.67035740  1.00284721  1
  Fe  Fe7  1  0.17207428  0.83675408  0.17063003  1
  Fe  Fe8  1  0.00426582  0.66881162  0.33784935  1
  Fe  Fe9  1  0.33687894  0.00437213  0.00402864  1
  Ni  Ni10  1  0.50220161  0.17078055  0.17009699  1
  Fe  Fe11  1  0.33705566  0.00498572  0.33739621  1
  Ni  Ni12  1  0.33792142  0.33885606  0.00378644  1
  Ni  Ni13  1  0.50398464  0.50302623  0.16971419  1
  Ni  Ni14  1  0.33775310  0.33896278  0.33756302  1
  Ni  Ni15  1  0.33662814  0.66980630  1.00323820  1
  Fe  Fe16  1  0.50221572  0.83699104  0.17032395  1
  Ni  Ni17  1  0.33720552  0.66973343  0.33771110  1
  Ni  Ni18  1  0.67074080  0.00499811  1.00275609  1
  Fe  Fe19  1  0.83653678  0.17258583  0.17038750  1
  Ni  Ni20  1  0.67068850  0.00498193  0.33846940  1
  Ni  Ni21  1  0.67019006  0.33579287  0.00384946  1
  Ni  Ni22  1  0.83679767  0.50286377  0.16958772  1
  Ni  Ni23  1  0.67013175  0.33592459  0.33733330  1
  Fe  Fe24  1  0.67045494  0.66902711  1.00266026  1
  Cr  Cr25  1  0.83707517  0.83626655  0.17015471  1
  Fe  Fe26  1  0.66959155  0.66852720  0.33805520  1
  Ni  Ni27  1  0.17001459  0.17015998  0.50439584  1
  Ni  Ni28  1  1.00214814  0.00513798  0.67030978  1
  Fe  Fe29  1  0.16892632  0.17080378  0.83703173  1
  Ni  Ni30  1  0.17090043  0.50287134  0.50203624  1
  Ni  Ni31  1  0.00385378  0.33484121  0.67023494  1
  Ni  Ni32  1  0.17062402  0.50257072  0.83862473  1
  Ni  Ni33  1  0.17170591  0.83814102  0.50290887  1
  Cr  Cr34  1  0.00487824  0.67091953  0.66958277  1
  Fe  Fe35  1  0.16993393  0.83703488  0.83766036  1
  Ni  Ni36  1  0.50334438  0.16985341  0.50371111  1
  Fe  Fe37  1  0.33626074  1.00370695  0.66974527  1
  Fe  Fe38  1  0.50479701  0.17078834  0.83761353  1
  Ni  Ni39  1  0.50360556  0.50432346  0.50437930  1
  Ni  Ni40  1  0.33761098  0.33852352  0.66981963  1
  Fe  Fe41  1  0.50385814  0.50409052  0.83724680  1
  Ni  Ni42  1  0.50310605  0.83699410  0.50282886  1
  Ni  Ni43  1  0.33900822  0.66954615  0.67021996  1
  Ni  Ni44  1  0.50405588  0.83712652  0.83812486  1
  Ni  Ni45  1  0.83780699  0.17065684  0.50281415  1
  Fe  Fe46  1  0.67035689  0.00386580  0.67057866  1
  Ni  Ni47  1  0.83787546  0.17008058  0.83844588  1
  Ni  Ni48  1  0.83666457  0.50263060  0.50281848  1
  Fe  Fe49  1  0.67108184  0.33730320  0.66995817  1
  Ni  Ni50  1  0.83753300  0.50310348  0.83875957  1
  Fe  Fe51  1  0.83651142  0.83864699  0.50295559  1
  Fe  Fe52  1  0.66891124  0.67000096  0.67045365  1
  Ni  Ni53  1  0.83567279  0.83798416  0.83755140  1
" 