3405,Ni64Fe34Cr1_16,-241.568742146209, 217.023740596239,Ni64Fe34Cr1,"# generated using pymatgen
 data_CrFe9Ni17
_symmetry_space_group_name_H-M   'P 1'
_cell_length_a   7.41600777
_cell_length_b   7.41600777
_cell_length_c   10.48781877
_cell_angle_alpha   90.00000000
_cell_angle_beta   90.00000000
_cell_angle_gamma   90.00000000
_symmetry_Int_Tables_number   1
_chemical_formula_structural   CrFe9Ni17
_chemical_formula_sum   'Cr2 Fe18 Ni34'
_cell_volume   576.80036547
_cell_formula_units_Z   2
loop_
 _symmetry_equiv_pos_site_id
 _symmetry_equiv_pos_as_xyz
  1  'x, y, z'
loop_
 _atom_site_type_symbol
 _atom_site_label
 _atom_site_symmetry_multiplicity
 _atom_site_fract_x
 _atom_site_fract_y
 _atom_site_fract_z
 _atom_site_occupancy
  Ni  Ni0  1  0.00581419  1.00099936  1.00267988  1
  Fe  Fe1  1  0.17209832  0.16871533  0.17030262  1
  Ni  Ni2  1  0.00454223  1.00234322  0.33725320  1
  Ni  Ni3  1  0.00444721  0.33913859  0.00347733  1
  Fe  Fe4  1  0.17002240  0.50503363  0.16912455  1
  Fe  Fe5  1  1.00237263  0.33738046  0.33656323  1
  Ni  Ni6  1  1.00224517  0.67133786  0.00414894  1
  Ni  Ni7  1  0.16973809  0.83706403  0.16969900  1
  Fe  Fe8  1  0.00430270  0.67127922  0.33699467  1
  Ni  Ni9  1  0.33749969  1.00291009  0.00606304  1
  Fe  Fe10  1  0.50294282  0.16799711  0.17056701  1
  Fe  Fe11  1  0.33760691  1.00197651  0.33739782  1
  Ni  Ni12  1  0.33741511  0.33607207  0.00499127  1
  Ni  Ni13  1  0.50267514  0.50286464  0.16993918  1
  Ni  Ni14  1  0.33551570  0.33731212  0.33562006  1
  Fe  Fe15  1  0.33663943  0.66942036  1.00327658  1
  Ni  Ni16  1  0.50395834  0.83374145  0.17077159  1
  Fe  Fe17  1  0.33804987  0.67118514  0.33724237  1
  Fe  Fe18  1  0.66972468  1.00290217  1.00291341  1
  Cr  Cr19  1  0.83845611  0.17001889  0.16739058  1
  Ni  Ni20  1  0.67099580  0.99995437  0.33670335  1
  Ni  Ni21  1  0.66729586  0.34046197  0.00355695  1
  Fe  Fe22  1  0.83575846  0.50687185  0.16888385  1
  Fe  Fe23  1  0.66878204  0.33589794  0.33684450  1
  Ni  Ni24  1  0.67056537  0.67043314  0.00370623  1
  Ni  Ni25  1  0.83781088  0.83662326  0.17007611  1
  Ni  Ni26  1  0.67156559  0.66894004  0.33688971  1
  Ni  Ni27  1  0.16800204  0.17137130  0.50198469  1
  Ni  Ni28  1  1.00262003  1.00127393  0.66980998  1
  Cr  Cr29  1  0.16972204  0.16974672  0.83712476  1
  Fe  Fe30  1  0.17190729  0.50465831  0.50458169  1
  Fe  Fe31  1  1.00092261  0.33652052  0.67026239  1
  Ni  Ni32  1  0.16968272  0.50313135  0.83664294  1
  Ni  Ni33  1  0.16922735  0.83870952  0.50458862  1
  Ni  Ni34  1  1.00312337  0.67087865  0.67024357  1
  Fe  Fe35  1  0.17198126  0.83466337  0.83636946  1
  Ni  Ni36  1  0.50175485  0.17118113  0.50161121  1
  Ni  Ni37  1  0.33710222  0.00565187  0.66713708  1
  Ni  Ni38  1  0.50284008  0.17063650  0.83813502  1
  Ni  Ni39  1  0.50403175  0.50284195  0.50376856  1
  Ni  Ni40  1  0.33710580  0.33702942  0.66947079  1
  Ni  Ni41  1  0.50312347  0.50347938  0.83661133  1
  Ni  Ni42  1  0.50546461  0.83606183  0.50331009  1
  Fe  Fe43  1  0.33858437  0.67157881  0.67002283  1
  Ni  Ni44  1  0.50517652  0.83734427  0.83637482  1
  Fe  Fe45  1  0.83468850  0.16753881  0.50323577  1
  Ni  Ni46  1  0.66964762  1.00339841  0.67059701  1
  Fe  Fe47  1  0.83348204  0.17140732  0.83804256  1
  Fe  Fe48  1  0.83625885  0.50351315  0.50461309  1
  Ni  Ni49  1  0.66667544  0.33705183  0.66969013  1
  Ni  Ni50  1  0.83660815  0.50428343  0.83783205  1
  Ni  Ni51  1  0.83770569  0.83630625  0.50258486  1
  Ni  Ni52  1  0.67218839  0.66992961  0.67012696  1
  Ni  Ni53  1  0.83735668  0.83676199  0.83797518  1
" 