5553,Ni64Fe29Cr6_9,-238.982385220851, 207.810403366289,Ni64Fe29Cr6,"# generated using pymatgen
 data_Cr5Fe15Ni34
_symmetry_space_group_name_H-M   'P 1'
_cell_length_a   7.42368784
_cell_length_b   7.42368784
_cell_length_c   10.49868003
_cell_angle_alpha   90.00000000
_cell_angle_beta   90.00000000
_cell_angle_gamma   90.00000000
_symmetry_Int_Tables_number   1
_chemical_formula_structural   Cr5Fe15Ni34
_chemical_formula_sum   'Cr5 Fe15 Ni34'
_cell_volume   578.59423689
_cell_formula_units_Z   1
loop_
 _symmetry_equiv_pos_site_id
 _symmetry_equiv_pos_as_xyz
  1  'x, y, z'
loop_
 _atom_site_type_symbol
 _atom_site_label
 _atom_site_symmetry_multiplicity
 _atom_site_fract_x
 _atom_site_fract_y
 _atom_site_fract_z
 _atom_site_occupancy
  Fe  Fe0  1  1.00283594  1.00265999  1.00234483  1
  Fe  Fe1  1  0.17099510  0.17136476  0.16883726  1
  Cr  Cr2  1  0.00302877  0.00392389  0.33611595  1
  Ni  Ni3  1  1.00256706  0.33590225  0.00298512  1
  Ni  Ni4  1  0.16957813  0.50215699  0.16962448  1
  Ni  Ni5  1  0.00323852  0.33691638  0.33673201  1
  Ni  Ni6  1  1.00275017  0.66917664  0.00347586  1
  Fe  Fe7  1  0.17113763  0.83425425  0.16803525  1
  Fe  Fe8  1  0.00314012  0.66717588  0.33556153  1
  Ni  Ni9  1  0.33584152  1.00182947  0.00458084  1
  Ni  Ni10  1  0.50219799  0.16953539  0.17066365  1
  Fe  Fe11  1  0.33800558  0.00302878  0.33606852  1
  Ni  Ni12  1  0.33497552  0.33645721  1.00263476  1
  Ni  Ni13  1  0.50220241  0.50255564  0.16913750  1
  Ni  Ni14  1  0.33465863  0.33586475  0.33659951  1
  Ni  Ni15  1  0.33664482  0.67047552  1.00258688  1
  Ni  Ni16  1  0.50352859  0.83667059  0.16951784  1
  Ni  Ni17  1  0.33681626  0.67025881  0.33558258  1
  Ni  Ni18  1  0.66991897  1.00201202  0.00341986  1
  Fe  Fe19  1  0.83462469  0.17114024  0.16861950  1
  Fe  Fe20  1  0.66781218  1.00250127  0.33648575  1
  Ni  Ni21  1  0.67121545  0.33670749  0.00418535  1
  Ni  Ni22  1  0.83698188  0.50348711  0.17080646  1
  Fe  Fe23  1  0.66994771  0.33622789  0.33487070  1
  Ni  Ni24  1  0.66936706  0.67004305  1.00203988  1
  Ni  Ni25  1  0.83509262  0.83517496  0.16848988  1
  Ni  Ni26  1  0.66929784  0.67067021  0.33582744  1
  Ni  Ni27  1  0.16878078  0.17242728  0.50308994  1
  Fe  Fe28  1  1.00073948  0.00295465  0.66948456  1
  Ni  Ni29  1  0.16704160  0.17048901  0.83708557  1
  Ni  Ni30  1  0.16881455  0.50135784  0.50348499  1
  Ni  Ni31  1  0.00390390  0.33555519  0.66904730  1
  Fe  Fe32  1  0.16930212  0.50316403  0.83646232  1
  Fe  Fe33  1  0.16980952  0.83476969  0.50334617  1
  Fe  Fe34  1  1.00226373  0.66985869  0.67014098  1
  Ni  Ni35  1  0.16867970  0.83598506  0.83687620  1
  Fe  Fe36  1  0.50291946  0.16766270  0.50115065  1
  Cr  Cr37  1  0.33614171  1.00117406  0.66788588  1
  Cr  Cr38  1  0.50265530  0.17013514  0.83703072  1
  Cr  Cr39  1  0.50098561  0.50426943  0.50215532  1
  Fe  Fe40  1  0.33353232  0.33805488  0.66936172  1
  Ni  Ni41  1  0.50205538  0.50550930  0.83760542  1
  Ni  Ni42  1  0.50482994  0.83674092  0.50230890  1
  Ni  Ni43  1  0.33612101  0.67009349  0.67059248  1
  Ni  Ni44  1  0.50394835  0.83320829  0.83692998  1
  Ni  Ni45  1  0.83750553  0.16827254  0.50314015  1
  Ni  Ni46  1  0.67173569  1.00011399  0.66787952  1
  Ni  Ni47  1  0.83934808  0.16859433  0.83733639  1
  Fe  Fe48  1  0.83886297  0.50349897  0.50220939  1
  Cr  Cr49  1  0.67248326  0.33616230  0.66963057  1
  Ni  Ni50  1  0.83656993  0.50387005  0.83647267  1
  Ni  Ni51  1  0.83453522  0.83677501  0.50448841  1
  Ni  Ni52  1  0.66960333  0.67253567  0.67089523  1
  Ni  Ni53  1  0.83613012  0.83629582  0.83577914  1
" 