8916,Ni64Cr36_16,-213.702224518966, 135.698616205111,Ni64Cr36,"# generated using pymatgen
 data_Cr17Ni10
_symmetry_space_group_name_H-M   'P 1'
_cell_length_a   7.55025928
_cell_length_b   7.55025928
_cell_length_c   10.67767908
_cell_angle_alpha   90.00000000
_cell_angle_beta   90.00000000
_cell_angle_gamma   90.00000000
_symmetry_Int_Tables_number   1
_chemical_formula_structural   Cr17Ni10
_chemical_formula_sum   'Cr34 Ni20'
_cell_volume   608.69620728
_cell_formula_units_Z   2
loop_
 _symmetry_equiv_pos_site_id
 _symmetry_equiv_pos_as_xyz
  1  'x, y, z'
loop_
 _atom_site_type_symbol
 _atom_site_label
 _atom_site_symmetry_multiplicity
 _atom_site_fract_x
 _atom_site_fract_y
 _atom_site_fract_z
 _atom_site_occupancy
  Ni  Ni0  1  0.99099798  -0.00324012  0.99082107  1
  Cr  Cr1  1  0.15671316  0.15996490  0.16001114  1
  Ni  Ni2  1  0.99344914  -0.00458514  0.33141511  1
  Ni  Ni3  1  -0.00355141  0.32595566  0.99227275  1
  Ni  Ni4  1  0.15738469  0.49115848  0.16100494  1
  Ni  Ni5  1  -0.00173492  0.32657496  0.32856642  1
  Cr  Cr6  1  0.99436076  0.66043560  -0.00532452  1
  Cr  Cr7  1  0.15855950  0.83119368  0.16174263  1
  Cr  Cr8  1  -0.00445217  0.66150357  0.32931306  1
  Cr  Cr9  1  0.32766972  -0.00528477  0.99138121  1
  Cr  Cr10  1  0.49626877  0.15880741  0.16242342  1
  Cr  Cr11  1  0.32645648  -0.00512283  0.33191797  1
  Cr  Cr12  1  0.32458916  0.32874678  0.99416902  1
  Cr  Cr13  1  0.49367848  0.49421796  0.16120514  1
  Cr  Cr14  1  0.32577593  0.32794779  0.32945823  1
  Cr  Cr15  1  0.32629157  0.66033891  -0.00355081  1
  Cr  Cr16  1  0.49522315  0.83067650  0.15995030  1
  Cr  Cr17  1  0.32464869  0.66044984  0.32549031  1
  Ni  Ni18  1  0.66509740  0.99358812  0.99134095  1
  Cr  Cr19  1  0.83014414  0.16001658  0.16099598  1
  Ni  Ni20  1  0.66393932  0.99418664  0.33019095  1
  Cr  Cr21  1  0.66375268  0.32660395  0.99287385  1
  Cr  Cr22  1  0.83092791  0.49020342  0.16218107  1
  Cr  Cr23  1  0.66126224  0.32681517  0.32976489  1
  Cr  Cr24  1  0.66314492  0.66393691  0.99421974  1
  Cr  Cr25  1  0.82941361  0.83304428  0.16185344  1
  Cr  Cr26  1  0.66388522  0.66354585  0.32696246  1
  Ni  Ni27  1  0.15973490  0.16105415  0.49223170  1
  Cr  Cr28  1  0.99405027  0.99351831  0.66117356  1
  Ni  Ni29  1  0.15641182  0.16271764  0.83012097  1
  Ni  Ni30  1  0.16001280  0.49562800  0.49567459  1
  Cr  Cr31  1  -0.00344585  0.32596311  0.66245764  1
  Ni  Ni32  1  0.15958089  0.49403440  0.82684276  1
  Ni  Ni33  1  0.15787769  0.82691559  0.49527510  1
  Ni  Ni34  1  -0.00463832  0.66232535  0.66006388  1
  Cr  Cr35  1  0.16096453  0.82735395  0.82672916  1
  Ni  Ni36  1  0.49350033  0.15928451  0.49300577  1
  Cr  Cr37  1  0.32549932  -0.00428328  0.65949947  1
  Cr  Cr38  1  0.49452856  0.15949608  0.82803709  1
  Cr  Cr39  1  0.49383346  0.49575823  0.49862666  1
  Cr  Cr40  1  0.32443451  0.32552331  0.65952360  1
  Cr  Cr41  1  0.49246774  0.49842897  0.82373282  1
  Cr  Cr42  1  0.49419001  0.82673792  0.49619098  1
  Ni  Ni43  1  0.32422706  0.66172973  0.66135300  1
  Ni  Ni44  1  0.49718759  0.82711411  0.82686953  1
  Cr  Cr45  1  0.82941201  0.16028843  0.49126803  1
  Cr  Cr46  1  0.66388453  0.99409232  0.66211540  1
  Ni  Ni47  1  0.83157919  0.15795655  0.83189504  1
  Cr  Cr48  1  0.82975350  0.49643281  0.49651690  1
  Cr  Cr49  1  0.66227909  0.32451725  0.66089054  1
  Cr  Cr50  1  0.82980477  0.49451746  0.82495178  1
  Ni  Ni51  1  0.83025660  0.82850122  0.49487928  1
  Ni  Ni52  1  0.66360599  0.66573901  0.66246538  1
  Ni  Ni53  1  0.82754297  0.82940679  0.82739072  1
" 