4718,Ni64Fe34Cr1_12,-241.770461129246, 219.94601276403,Ni64Fe34Cr1,"# generated using pymatgen
 data_CrFe9Ni17
_symmetry_space_group_name_H-M   'P 1'
_cell_length_a   7.41676992
_cell_length_b   7.41676992
_cell_length_c   10.48889661
_cell_angle_alpha   90.00000000
_cell_angle_beta   90.00000000
_cell_angle_gamma   90.00000000
_symmetry_Int_Tables_number   1
_chemical_formula_structural   CrFe9Ni17
_chemical_formula_sum   'Cr2 Fe18 Ni34'
_cell_volume   576.97821725
_cell_formula_units_Z   2
loop_
 _symmetry_equiv_pos_site_id
 _symmetry_equiv_pos_as_xyz
  1  'x, y, z'
loop_
 _atom_site_type_symbol
 _atom_site_label
 _atom_site_symmetry_multiplicity
 _atom_site_fract_x
 _atom_site_fract_y
 _atom_site_fract_z
 _atom_site_occupancy
  Ni  Ni0  1  1.00336516  0.00411539  0.00342066  1
  Fe  Fe1  1  0.17144386  0.17010521  0.17002655  1
  Fe  Fe2  1  1.00258025  0.00352067  0.33757628  1
  Fe  Fe3  1  0.00361239  0.33456942  1.00316830  1
  Ni  Ni4  1  0.17183850  0.50213872  0.17045429  1
  Ni  Ni5  1  0.00400353  0.33809300  0.33700646  1
  Cr  Cr6  1  1.00293667  0.67089616  1.00226903  1
  Fe  Fe7  1  0.17203136  0.83718219  0.17047959  1
  Ni  Ni8  1  1.00259643  0.67006851  0.33842993  1
  Ni  Ni9  1  0.33680744  0.00387125  1.00214860  1
  Ni  Ni10  1  0.50369542  0.17055464  0.17052684  1
  Ni  Ni11  1  0.33649084  0.00476776  0.33675740  1
  Ni  Ni12  1  0.33760505  0.33646404  1.00297507  1
  Ni  Ni13  1  0.50233164  0.50348326  0.17010669  1
  Ni  Ni14  1  0.33681721  0.33603088  0.33767576  1
  Ni  Ni15  1  0.33848184  0.66983273  1.00336852  1
  Ni  Ni16  1  0.50479957  0.83612950  0.16875553  1
  Fe  Fe17  1  0.33634719  0.66833893  0.33561707  1
  Ni  Ni18  1  0.66999817  1.00324079  1.00270229  1
  Fe  Fe19  1  0.83539803  0.17020580  0.17002829  1
  Ni  Ni20  1  0.67004511  1.00336112  0.33643564  1
  Ni  Ni21  1  0.66884983  0.33675034  1.00282638  1
  Fe  Fe22  1  0.83474046  0.50314931  0.17130512  1
  Ni  Ni23  1  0.66934578  0.33706866  0.33810699  1
  Ni  Ni24  1  0.66860579  0.67017876  1.00316769  1
  Ni  Ni25  1  0.83528799  0.83812561  0.17117235  1
  Ni  Ni26  1  0.67210649  0.66973948  0.33582385  1
  Ni  Ni27  1  0.16860713  0.17103184  0.50306648  1
  Ni  Ni28  1  1.00325894  1.00275210  0.66925001  1
  Ni  Ni29  1  0.16934187  0.16990274  0.83758560  1
  Ni  Ni30  1  0.17106086  0.50256811  0.50374751  1
  Ni  Ni31  1  0.00436120  0.33644666  0.67058171  1
  Fe  Fe32  1  0.17117190  0.50173272  0.83591852  1
  Ni  Ni33  1  0.16738670  0.83656907  0.50243977  1
  Fe  Fe34  1  0.00413381  0.67041365  0.66947353  1
  Ni  Ni35  1  0.16961225  0.83782002  0.83627301  1
  Fe  Fe36  1  0.50264232  0.17162328  0.50266458  1
  Fe  Fe37  1  0.33427661  0.00520680  0.67095610  1
  Ni  Ni38  1  0.50353741  0.17156205  0.83643611  1
  Ni  Ni39  1  0.50243621  0.50168991  0.50217528  1
  Ni  Ni40  1  0.33650728  0.33676417  0.66951766  1
  Ni  Ni41  1  0.50292879  0.50304432  0.83788830  1
  Cr  Cr42  1  0.50406427  0.83566083  0.50290676  1
  Fe  Fe43  1  0.33480971  0.66851318  0.67106717  1
  Fe  Fe44  1  0.50339169  0.83755616  0.83784138  1
  Ni  Ni45  1  0.83775562  0.16931788  0.50297274  1
  Fe  Fe46  1  0.67210170  0.00528375  0.67095803  1
  Ni  Ni47  1  0.83728997  0.16896823  0.83791191  1
  Fe  Fe48  1  0.83774071  0.50341719  0.50272726  1
  Fe  Fe49  1  0.67020312  0.33610076  0.67037642  1
  Fe  Fe50  1  0.83570495  0.50195815  0.83613750  1
  Ni  Ni51  1  0.83862893  0.83793639  0.50315689  1
  Fe  Fe52  1  0.67122510  0.66878253  0.67082975  1
  Ni  Ni53  1  0.83668980  0.83842623  0.83583970  1
" 