2194,Ni64Cr36_8,-213.921078701527, 138.167519721669,Ni64Cr36,"# generated using pymatgen
 data_Cr17Ni10
_symmetry_space_group_name_H-M   'P 1'
_cell_length_a   7.54555540
_cell_length_b   7.54555540
_cell_length_c   10.67102678
_cell_angle_alpha   90.00000000
_cell_angle_beta   90.00000000
_cell_angle_gamma   90.00000000
_symmetry_Int_Tables_number   1
_chemical_formula_structural   Cr17Ni10
_chemical_formula_sum   'Cr34 Ni20'
_cell_volume   607.55924548
_cell_formula_units_Z   2
loop_
 _symmetry_equiv_pos_site_id
 _symmetry_equiv_pos_as_xyz
  1  'x, y, z'
loop_
 _atom_site_type_symbol
 _atom_site_label
 _atom_site_symmetry_multiplicity
 _atom_site_fract_x
 _atom_site_fract_y
 _atom_site_fract_z
 _atom_site_occupancy
  Cr  Cr0  1  0.99439379  0.99383671  -0.00362232  1
  Ni  Ni1  1  0.16309403  0.16345253  0.16126694  1
  Cr  Cr2  1  -0.00263566  0.99125736  0.32819546  1
  Ni  Ni3  1  -0.00381676  0.33357468  -0.00492579  1
  Ni  Ni4  1  0.15818697  0.49543090  0.15947366  1
  Cr  Cr5  1  0.99476803  0.33203568  0.32621260  1
  Ni  Ni6  1  -0.00413377  0.65595132  -0.00424531  1
  Cr  Cr7  1  0.16123160  0.82515313  0.16368657  1
  Ni  Ni8  1  0.99380858  0.66090695  0.32712854  1
  Cr  Cr9  1  0.32981545  0.99408986  -0.00461984  1
  Ni  Ni10  1  0.49176872  0.16027593  0.16277870  1
  Ni  Ni11  1  0.32823462  0.99467736  0.32862858  1
  Cr  Cr12  1  0.32489947  0.32975811  -0.00332159  1
  Cr  Cr13  1  0.49344141  0.49651613  0.16312163  1
  Cr  Cr14  1  0.32958115  0.32688426  0.32756704  1
  Ni  Ni15  1  0.32448401  0.66025689  0.99296845  1
  Cr  Cr16  1  0.49468976  0.82698179  0.16203675  1
  Ni  Ni17  1  0.32694878  0.66277784  0.32944121  1
  Cr  Cr18  1  0.66018733  0.99346590  -0.00428325  1
  Cr  Cr19  1  0.82926153  0.16229527  0.15950745  1
  Cr  Cr20  1  0.65922675  0.99442228  0.32554978  1
  Cr  Cr21  1  0.66340092  0.32875818  -0.00361889  1
  Ni  Ni22  1  0.83236205  0.49837010  0.16142897  1
  Cr  Cr23  1  0.66000894  0.33071587  0.32952123  1
  Cr  Cr24  1  0.66354837  0.66225086  0.99408760  1
  Ni  Ni25  1  0.82929975  0.82335802  0.16240117  1
  Ni  Ni26  1  0.66367957  0.65965706  0.32879396  1
  Cr  Cr27  1  0.16272668  0.15868782  0.49472146  1
  Cr  Cr28  1  -0.00387826  0.99288927  0.65979967  1
  Cr  Cr29  1  0.15935725  0.16446419  0.82850781  1
  Cr  Cr30  1  0.16212042  0.49801047  0.49319040  1
  Cr  Cr31  1  0.99418272  0.33130634  0.66285418  1
  Ni  Ni32  1  0.15846786  0.49601108  0.83177243  1
  Ni  Ni33  1  0.16293787  0.82728700  0.49191072  1
  Cr  Cr34  1  0.99343452  0.66018108  0.66111947  1
  Cr  Cr35  1  0.16357306  0.82492810  0.82874433  1
  Ni  Ni36  1  0.49368028  0.16239230  0.49378567  1
  Cr  Cr37  1  0.32855405  0.99378525  0.66046369  1
  Cr  Cr38  1  0.49537949  0.16010687  0.82812813  1
  Ni  Ni39  1  0.49796271  0.49587350  0.49428679  1
  Cr  Cr40  1  0.32909913  0.32916446  0.66019406  1
  Cr  Cr41  1  0.49418990  0.49881216  0.82744579  1
  Cr  Cr42  1  0.49306097  0.82528283  0.49365244  1
  Cr  Cr43  1  0.32905186  0.66139893  0.66275765  1
  Ni  Ni44  1  0.49476796  0.82563129  0.82800140  1
  Cr  Cr45  1  0.82737926  0.16314350  0.49679571  1
  Cr  Cr46  1  0.65976021  0.99299814  0.66307995  1
  Cr  Cr47  1  0.82968204  0.16397054  0.82808765  1
  Ni  Ni48  1  0.82465485  0.49781541  0.49423080  1
  Cr  Cr49  1  0.66110747  0.33175805  0.65856735  1
  Ni  Ni50  1  0.83109233  0.49589946  0.82872579  1
  Cr  Cr51  1  0.82921305  0.82471669  0.49346061  1
  Ni  Ni52  1  0.66171151  0.65937008  0.66146810  1
  Cr  Cr53  1  0.82607373  0.82608253  0.82816694  1
" 