3912,Ni64Fe30Cr5_10,-239.326584473744, 210.462574872273,Ni64Fe30Cr5,"# generated using pymatgen
 data_Cr2Fe8Ni17
_symmetry_space_group_name_H-M   'P 1'
_cell_length_a   7.42232954
_cell_length_b   7.42232954
_cell_length_c   10.49675910
_cell_angle_alpha   90.00000000
_cell_angle_beta   90.00000000
_cell_angle_gamma   90.00000000
_symmetry_Int_Tables_number   1
_chemical_formula_structural   Cr2Fe8Ni17
_chemical_formula_sum   'Cr4 Fe16 Ni34'
_cell_volume   578.27670086
_cell_formula_units_Z   2
loop_
 _symmetry_equiv_pos_site_id
 _symmetry_equiv_pos_as_xyz
  1  'x, y, z'
loop_
 _atom_site_type_symbol
 _atom_site_label
 _atom_site_symmetry_multiplicity
 _atom_site_fract_x
 _atom_site_fract_y
 _atom_site_fract_z
 _atom_site_occupancy
  Ni  Ni0  1  0.00372223  1.00225863  1.00169390  1
  Ni  Ni1  1  0.17237343  0.16906440  0.16973272  1
  Fe  Fe2  1  0.00327146  1.00235390  0.33615786  1
  Fe  Fe3  1  0.00370894  0.33668277  1.00174288  1
  Fe  Fe4  1  0.16992075  0.50379168  0.16980793  1
  Fe  Fe5  1  0.00393330  0.33734532  0.33748488  1
  Fe  Fe6  1  1.00268370  0.67018404  0.00320149  1
  Ni  Ni7  1  0.17057307  0.83646698  0.16917446  1
  Ni  Ni8  1  1.00295102  0.66800700  0.33598218  1
  Ni  Ni9  1  0.33498433  0.00377974  0.00371099  1
  Ni  Ni10  1  0.50097465  0.16909438  0.16923362  1
  Ni  Ni11  1  0.33735247  0.00328873  0.33546978  1
  Ni  Ni12  1  0.33645283  0.33662281  1.00274367  1
  Fe  Fe13  1  0.50318000  0.50332250  0.16960758  1
  Fe  Fe14  1  0.33667390  0.33585979  0.33657727  1
  Ni  Ni15  1  0.33539980  0.66863421  0.00352399  1
  Ni  Ni16  1  0.50245058  0.83675670  0.17054935  1
  Ni  Ni17  1  0.33568948  0.66916986  0.33600147  1
  Ni  Ni18  1  0.67033144  0.00330679  1.00277174  1
  Cr  Cr19  1  0.83550034  0.17005452  0.16953937  1
  Ni  Ni20  1  0.66864428  0.00319743  0.33738477  1
  Ni  Ni21  1  0.66915462  0.33738880  1.00106812  1
  Ni  Ni22  1  0.83598549  0.50498396  0.16978774  1
  Ni  Ni23  1  0.66981125  0.33666661  0.33790043  1
  Ni  Ni24  1  0.67067651  0.66834153  0.00448999  1
  Ni  Ni25  1  0.83601366  0.83379506  0.16929944  1
  Fe  Fe26  1  0.66984996  0.67006048  0.33604116  1
  Ni  Ni27  1  0.17161379  0.17024292  0.50209777  1
  Ni  Ni28  1  1.00232925  1.00243448  0.66995468  1
  Ni  Ni29  1  0.17099100  0.16892132  0.83720133  1
  Ni  Ni30  1  0.17030269  0.50220784  0.50179157  1
  Cr  Cr31  1  1.00296590  0.33630644  0.66949972  1
  Ni  Ni32  1  0.16974001  0.50378307  0.83699863  1
  Cr  Cr33  1  0.16916650  0.83696581  0.50375238  1
  Fe  Fe34  1  1.00205438  0.67136029  0.67002440  1
  Ni  Ni35  1  0.16821885  0.83633313  0.83637171  1
  Ni  Ni36  1  0.50261119  0.17022733  0.50302621  1
  Ni  Ni37  1  0.33635315  0.00400203  0.66985915  1
  Ni  Ni38  1  0.50295011  0.17090673  0.83677499  1
  Ni  Ni39  1  0.50360140  0.50190163  0.50335592  1
  Fe  Fe40  1  0.33737160  0.33485468  0.66978078  1
  Fe  Fe41  1  0.50295683  0.50136709  0.83672755  1
  Fe  Fe42  1  0.50402251  0.83643786  0.50261507  1
  Fe  Fe43  1  0.33577083  0.66899136  0.66962466  1
  Cr  Cr44  1  0.50271408  0.83788445  0.83636845  1
  Fe  Fe45  1  0.83540922  0.16939477  0.50266541  1
  Ni  Ni46  1  0.67035415  0.00349994  0.66888260  1
  Ni  Ni47  1  0.83509570  0.16938147  0.83686724  1
  Ni  Ni48  1  0.83513580  0.50439517  0.50202889  1
  Fe  Fe49  1  0.66832059  0.33516818  0.66959209  1
  Ni  Ni50  1  0.83602273  0.50364450  0.83722181  1
  Ni  Ni51  1  0.83512030  0.83559408  0.50298787  1
  Fe  Fe52  1  0.67120941  0.66997237  0.66917274  1
  Ni  Ni53  1  0.83800425  0.83601211  0.83674729  1
" 