7585,Ni64Fe30Cr5_13,-239.601829124886, 211.371735856601,Ni64Fe30Cr5,"# generated using pymatgen
 data_Cr2Fe8Ni17
_symmetry_space_group_name_H-M   'P 1'
_cell_length_a   7.41853373
_cell_length_b   7.41853373
_cell_length_c   10.49139102
_cell_angle_alpha   90.00000000
_cell_angle_beta   90.00000000
_cell_angle_gamma   90.00000000
_symmetry_Int_Tables_number   1
_chemical_formula_structural   Cr2Fe8Ni17
_chemical_formula_sum   'Cr4 Fe16 Ni34'
_cell_volume   577.38995620
_cell_formula_units_Z   2
loop_
 _symmetry_equiv_pos_site_id
 _symmetry_equiv_pos_as_xyz
  1  'x, y, z'
loop_
 _atom_site_type_symbol
 _atom_site_label
 _atom_site_symmetry_multiplicity
 _atom_site_fract_x
 _atom_site_fract_y
 _atom_site_fract_z
 _atom_site_occupancy
  Fe  Fe0  1  0.00360517  0.00335567  1.00218434  1
  Ni  Ni1  1  0.17003169  0.16957037  0.17070037  1
  Fe  Fe2  1  1.00321341  0.00329125  0.33624297  1
  Ni  Ni3  1  0.00337405  0.33770372  1.00265129  1
  Ni  Ni4  1  0.16998227  0.50305778  0.17026255  1
  Fe  Fe5  1  0.00400254  0.33823924  0.33609434  1
  Ni  Ni6  1  1.00314323  0.66958312  1.00301496  1
  Ni  Ni7  1  0.17103778  0.83718543  0.16929426  1
  Ni  Ni8  1  1.00197838  0.66914855  0.33572894  1
  Ni  Ni9  1  0.33617768  0.00466715  1.00308455  1
  Fe  Fe10  1  0.50211703  0.17049601  0.17039658  1
  Ni  Ni11  1  0.33713430  0.00489483  0.33675395  1
  Ni  Ni12  1  0.33651879  0.33614034  0.00338217  1
  Ni  Ni13  1  0.50399367  0.50382741  0.17056249  1
  Ni  Ni14  1  0.33679766  0.33597088  0.33652830  1
  Ni  Ni15  1  0.33461973  0.66900383  0.00389259  1
  Ni  Ni16  1  0.50293641  0.83641228  0.17093945  1
  Ni  Ni17  1  0.33628110  0.66894635  0.33634972  1
  Ni  Ni18  1  0.67049293  0.00443056  0.00443750  1
  Fe  Fe19  1  0.83660635  0.17092797  0.16894943  1
  Fe  Fe20  1  0.66878096  1.00255288  0.33709390  1
  Ni  Ni21  1  0.66991541  0.33614149  1.00240083  1
  Ni  Ni22  1  0.83583425  0.50281950  0.16945652  1
  Ni  Ni23  1  0.66967599  0.33678906  0.33695433  1
  Ni  Ni24  1  0.67205278  0.66923708  0.00354622  1
  Fe  Fe25  1  0.83684553  0.83498425  0.16983320  1
  Ni  Ni26  1  0.67155485  0.66948234  0.33756209  1
  Fe  Fe27  1  0.16915146  0.17067418  0.50255140  1
  Ni  Ni28  1  1.00151765  0.00465172  0.67129557  1
  Ni  Ni29  1  0.16804978  0.16906943  0.83622659  1
  Ni  Ni30  1  0.16961835  0.50183930  0.50098054  1
  Fe  Fe31  1  1.00257914  0.33432481  0.67054322  1
  Ni  Ni32  1  0.17075426  0.50288202  0.83856802  1
  Cr  Cr33  1  0.17139367  0.83693150  0.50319027  1
  Cr  Cr34  1  1.00290814  0.66975200  0.67192130  1
  Ni  Ni35  1  0.16941151  0.83785611  0.83740483  1
  Ni  Ni36  1  0.50442991  0.16886860  0.50274954  1
  Ni  Ni37  1  0.33685152  0.00385158  0.66996974  1
  Fe  Fe38  1  0.50367515  0.17019907  0.83708884  1
  Fe  Fe39  1  0.50417937  0.50434814  0.50201169  1
  Cr  Cr40  1  0.33643916  0.33658019  0.67043669  1
  Ni  Ni41  1  0.50375099  0.50287032  0.83694714  1
  Fe  Fe42  1  0.50477995  0.83622545  0.50309510  1
  Ni  Ni43  1  0.33711531  0.66966763  0.66956223  1
  Cr  Cr44  1  0.50267443  0.83587588  0.83549681  1
  Fe  Fe45  1  0.83648064  0.17008322  0.50418958  1
  Ni  Ni46  1  0.67143935  0.00438866  0.66826213  1
  Ni  Ni47  1  0.83718354  0.16962461  0.83561956  1
  Ni  Ni48  1  0.83574998  0.50239566  0.50325000  1
  Fe  Fe49  1  0.67104487  0.33574993  0.66977664  1
  Fe  Fe50  1  0.83660557  0.50256758  0.83823611  1
  Ni  Ni51  1  0.83386489  0.83720054  0.50227171  1
  Fe  Fe52  1  0.66901989  0.67054790  0.66904752  1
  Ni  Ni53  1  0.83719545  0.83868251  0.83757727  1
" 