5610,Ni64Cr36_13,-213.885379074142, 137.365570898275,Ni64Cr36,"# generated using pymatgen
 data_Cr17Ni10
_symmetry_space_group_name_H-M   'P 1'
_cell_length_a   7.55079654
_cell_length_b   7.55079654
_cell_length_c   10.67843887
_cell_angle_alpha   90.00000000
_cell_angle_beta   90.00000000
_cell_angle_gamma   90.00000000
_symmetry_Int_Tables_number   1
_chemical_formula_structural   Cr17Ni10
_chemical_formula_sum   'Cr34 Ni20'
_cell_volume   608.82615555
_cell_formula_units_Z   2
loop_
 _symmetry_equiv_pos_site_id
 _symmetry_equiv_pos_as_xyz
  1  'x, y, z'
loop_
 _atom_site_type_symbol
 _atom_site_label
 _atom_site_symmetry_multiplicity
 _atom_site_fract_x
 _atom_site_fract_y
 _atom_site_fract_z
 _atom_site_occupancy
  Cr  Cr0  1  0.99191387  0.99385247  0.99401195  1
  Cr  Cr1  1  0.15778988  0.16252461  0.16315147  1
  Cr  Cr2  1  0.99050724  0.99445063  0.32643045  1
  Cr  Cr3  1  0.98788659  0.32639841  -0.00324442  1
  Cr  Cr4  1  0.15795814  0.49136545  0.16078813  1
  Ni  Ni5  1  0.98768870  0.32714221  0.32657921  1
  Cr  Cr6  1  0.99308556  0.66502521  0.99367009  1
  Cr  Cr7  1  0.16217590  0.82926956  0.16042237  1
  Cr  Cr8  1  0.99408185  0.66152386  0.32597476  1
  Cr  Cr9  1  0.32775252  0.99288061  0.99059297  1
  Cr  Cr10  1  0.49317948  0.15912792  0.16023761  1
  Cr  Cr11  1  0.32860954  0.99084471  0.32943409  1
  Cr  Cr12  1  0.33293555  0.32834919  0.99354589  1
  Ni  Ni13  1  0.50080663  0.49410461  0.16070906  1
  Cr  Cr14  1  0.32820691  0.33057148  0.32947084  1
  Cr  Cr15  1  0.32923120  0.66044226  -0.00452028  1
  Cr  Cr16  1  0.49969544  0.82524883  0.16276001  1
  Cr  Cr17  1  0.32983360  0.65854315  0.32903256  1
  Cr  Cr18  1  0.66503190  -0.00304048  -0.00550831  1
  Ni  Ni19  1  0.82259800  0.16199673  0.16339672  1
  Ni  Ni20  1  0.66487732  0.99215097  0.32634520  1
  Ni  Ni21  1  0.66246267  0.32909743  -0.00509412  1
  Ni  Ni22  1  0.82249339  0.49374412  0.16132409  1
  Cr  Cr23  1  0.66047159  0.32621186  0.32958003  1
  Ni  Ni24  1  0.66505439  0.66004378  -0.00307243  1
  Ni  Ni25  1  0.82532741  0.82602365  0.16120897  1
  Ni  Ni26  1  0.66304559  0.65959555  0.32535766  1
  Cr  Cr27  1  0.15802320  0.15875895  0.49336390  1
  Ni  Ni28  1  -0.00400492  0.99241618  0.66218266  1
  Cr  Cr29  1  0.16284019  0.16043329  0.82669842  1
  Cr  Cr30  1  0.15553431  0.49402562  0.49537926  1
  Cr  Cr31  1  0.98912994  0.32451685  0.66024498  1
  Cr  Cr32  1  0.15668361  0.49574511  0.82669367  1
  Ni  Ni33  1  0.16074625  0.82905538  0.49897522  1
  Ni  Ni34  1  0.99199061  0.66744608  0.66262304  1
  Ni  Ni35  1  0.15849258  0.82972482  0.82282251  1
  Cr  Cr36  1  0.49516777  0.15666272  0.49545934  1
  Ni  Ni37  1  0.32677319  0.99262606  0.66284039  1
  Ni  Ni38  1  0.49922579  0.16125764  0.82746679  1
  Ni  Ni39  1  0.49704934  0.49706882  0.49471917  1
  Cr  Cr40  1  0.33053685  0.32726216  0.66029929  1
  Cr  Cr41  1  0.49751858  0.49547475  0.82861278  1
  Cr  Cr42  1  0.49890397  0.82608443  0.49316863  1
  Cr  Cr43  1  0.32630840  0.66151339  0.65876398  1
  Cr  Cr44  1  0.49816871  0.82821148  0.82726419  1
  Ni  Ni45  1  0.82864799  0.15953520  0.49251860  1
  Cr  Cr46  1  0.66641534  -0.00218645  0.66250761  1
  Ni  Ni47  1  0.82739072  0.16058775  0.82824562  1
  Cr  Cr48  1  0.82563680  0.49705933  0.49545553  1
  Cr  Cr49  1  0.66024301  0.32822507  0.66099613  1
  Cr  Cr50  1  0.82573981  0.49884391  0.82737408  1
  Cr  Cr51  1  0.82872909  0.82818962  0.49496825  1
  Ni  Ni52  1  0.66348191  0.66414196  0.66149402  1
  Ni  Ni53  1  0.83045825  0.83036321  0.82680949  1
" 