6307,Ni64Fe34Cr1_2,-240.702624816575, 218.012474004647,Ni64Fe34Cr1,"# generated using pymatgen
 data_CrFe9Ni17
_symmetry_space_group_name_H-M   'P 1'
_cell_length_a   7.41219402
_cell_length_b   7.41219402
_cell_length_c   10.48242530
_cell_angle_alpha   90.00000000
_cell_angle_beta   90.00000000
_cell_angle_gamma   90.00000000
_symmetry_Int_Tables_number   1
_chemical_formula_structural   CrFe9Ni17
_chemical_formula_sum   'Cr2 Fe18 Ni34'
_cell_volume   575.91094659
_cell_formula_units_Z   2
loop_
 _symmetry_equiv_pos_site_id
 _symmetry_equiv_pos_as_xyz
  1  'x, y, z'
loop_
 _atom_site_type_symbol
 _atom_site_label
 _atom_site_symmetry_multiplicity
 _atom_site_fract_x
 _atom_site_fract_y
 _atom_site_fract_z
 _atom_site_occupancy
  Fe  Fe0  1  0.00386175  0.00432935  0.00443804  1
  Ni  Ni1  1  0.17110428  0.16993759  0.17005436  1
  Fe  Fe2  1  0.00453532  1.00315568  0.33774511  1
  Ni  Ni3  1  1.00348275  0.33703452  1.00362145  1
  Ni  Ni4  1  0.16824956  0.50399040  0.17023403  1
  Fe  Fe5  1  0.00427566  0.33737483  0.33696514  1
  Fe  Fe6  1  0.00395205  0.66883270  0.00451752  1
  Ni  Ni7  1  0.16959911  0.83717386  0.16961658  1
  Fe  Fe8  1  0.00432462  0.67057396  0.33751408  1
  Fe  Fe9  1  0.33813920  0.00385192  0.00389868  1
  Ni  Ni10  1  0.50362784  0.16875183  0.16996255  1
  Ni  Ni11  1  0.33711732  0.00395488  0.33628850  1
  Fe  Fe12  1  0.33717387  0.33672259  1.00299211  1
  Cr  Cr13  1  0.50390938  0.50276092  0.17046204  1
  Ni  Ni14  1  0.33502818  0.33597396  0.33725365  1
  Ni  Ni15  1  0.33655613  0.67168296  1.00267386  1
  Fe  Fe16  1  0.50307896  0.83815082  0.17048667  1
  Ni  Ni17  1  0.33632801  0.67116870  0.33851232  1
  Ni  Ni18  1  0.66924289  0.00422042  0.00450203  1
  Fe  Fe19  1  0.83749890  0.17092325  0.17007577  1
  Ni  Ni20  1  0.67008064  1.00295476  0.33725552  1
  Ni  Ni21  1  0.67237314  0.33625794  1.00326872  1
  Ni  Ni22  1  0.83854201  0.50450683  0.16915402  1
  Fe  Fe23  1  0.66996978  0.33606273  0.33782872  1
  Ni  Ni24  1  0.66957946  0.67062506  0.00412983  1
  Fe  Fe25  1  0.83694167  0.83695469  0.17049415  1
  Ni  Ni26  1  0.67118897  0.67185332  0.33724980  1
  Ni  Ni27  1  0.17084965  0.17061255  0.50397458  1
  Ni  Ni28  1  0.00543676  0.00454336  0.66924652  1
  Fe  Fe29  1  0.17117397  0.17072374  0.83643767  1
  Ni  Ni30  1  0.16974776  0.50370967  0.50305617  1
  Ni  Ni31  1  1.00368062  0.33682697  0.67020697  1
  Ni  Ni32  1  0.17054669  0.50332060  0.83781993  1
  Ni  Ni33  1  0.17002657  0.83677327  0.50470687  1
  Ni  Ni34  1  0.00372064  0.66973226  0.66963186  1
  Fe  Fe35  1  0.17309493  0.83669875  0.83674726  1
  Ni  Ni36  1  0.50377700  0.16982949  0.50375624  1
  Ni  Ni37  1  0.33622820  0.00390519  0.67037228  1
  Ni  Ni38  1  0.50390229  0.17066709  0.83737905  1
  Fe  Fe39  1  0.50381021  0.50374996  0.50388317  1
  Ni  Ni40  1  0.33660901  0.33608798  0.67064144  1
  Ni  Ni41  1  0.50318364  0.50304525  0.83683945  1
  Ni  Ni42  1  0.50433250  0.83784004  0.50378257  1
  Fe  Fe43  1  0.33642663  0.66995464  0.67069722  1
  Ni  Ni44  1  0.50333876  0.83739339  0.83780062  1
  Ni  Ni45  1  0.83646977  0.17009738  0.50409029  1
  Fe  Fe46  1  0.66973451  0.00490444  0.66937658  1
  Fe  Fe47  1  0.83627719  0.17254667  0.83683929  1
  Ni  Ni48  1  0.83753063  0.50426736  0.50456576  1
  Ni  Ni49  1  0.67080669  0.33781020  0.67030058  1
  Fe  Fe50  1  0.83583530  0.50207765  0.83697817  1
  Ni  Ni51  1  0.83674579  0.83673779  0.50345729  1
  Ni  Ni52  1  0.67017141  0.66934745  0.66971971  1
  Cr  Cr53  1  0.83659364  0.83682861  0.83630942  1
" 