2589,Ni64Fe7Cr28_14,-228.634969702384, 163.059687294472,Ni64Fe7Cr28,"# generated using pymatgen
 data_Cr8Fe2Ni17
_symmetry_space_group_name_H-M   'P 1'
_cell_length_a   7.47353412
_cell_length_b   7.47353412
_cell_length_c   10.56917331
_cell_angle_alpha   90.00000000
_cell_angle_beta   90.00000000
_cell_angle_gamma   90.00000000
_symmetry_Int_Tables_number   1
_chemical_formula_structural   Cr8Fe2Ni17
_chemical_formula_sum   'Cr16 Fe4 Ni34'
_cell_volume   590.32756432
_cell_formula_units_Z   2
loop_
 _symmetry_equiv_pos_site_id
 _symmetry_equiv_pos_as_xyz
  1  'x, y, z'
loop_
 _atom_site_type_symbol
 _atom_site_label
 _atom_site_symmetry_multiplicity
 _atom_site_fract_x
 _atom_site_fract_y
 _atom_site_fract_z
 _atom_site_occupancy
  Cr  Cr0  1  0.00036679  0.99716015  -0.00021387  1
  Ni  Ni1  1  0.16528844  0.16450935  0.16915848  1
  Fe  Fe2  1  -0.00000601  0.99895053  0.33336669  1
  Ni  Ni3  1  0.00034634  0.33576165  0.99821854  1
  Ni  Ni4  1  0.16412215  0.50185620  0.16580617  1
  Ni  Ni5  1  0.99922239  0.33328562  0.33438501  1
  Ni  Ni6  1  -0.00030212  0.66467764  0.99873785  1
  Ni  Ni7  1  0.16535392  0.83204065  0.16681769  1
  Ni  Ni8  1  0.99844237  0.66582783  0.33108650  1
  Ni  Ni9  1  0.33350841  0.99871267  0.00012034  1
  Ni  Ni10  1  0.49860648  0.16601283  0.16564702  1
  Ni  Ni11  1  0.33169269  0.99889913  0.33115674  1
  Cr  Cr12  1  0.33026092  0.33092953  0.00141694  1
  Cr  Cr13  1  0.50155221  0.50080781  0.16698707  1
  Cr  Cr14  1  0.33097896  0.33109320  0.33077400  1
  Ni  Ni15  1  0.33003948  0.66816450  0.99879135  1
  Cr  Cr16  1  0.49861539  0.83119635  0.16663880  1
  Ni  Ni17  1  0.33117672  0.66855536  0.33168623  1
  Cr  Cr18  1  0.66435453  0.99877200  0.99682532  1
  Cr  Cr19  1  0.83360667  0.16720704  0.16528434  1
  Cr  Cr20  1  0.66574690  0.99847482  0.33316408  1
  Fe  Fe21  1  0.66715164  0.33353412  0.99725381  1
  Cr  Cr22  1  0.83324641  0.50066522  0.16598527  1
  Ni  Ni23  1  0.66921987  0.33264936  0.33298004  1
  Ni  Ni24  1  0.66912575  0.66846633  0.99750910  1
  Ni  Ni25  1  0.83641382  0.83067019  0.16748720  1
  Ni  Ni26  1  0.66940760  0.66746266  0.33573283  1
  Fe  Fe27  1  0.16467846  0.16411368  0.50078332  1
  Ni  Ni28  1  0.99637562  0.00039789  0.66525725  1
  Cr  Cr29  1  0.16440403  0.16436472  0.82848583  1
  Cr  Cr30  1  0.16570707  0.49939458  0.50103301  1
  Ni  Ni31  1  0.99779392  0.33193374  0.66588211  1
  Ni  Ni32  1  0.16469337  0.50099718  0.83317001  1
  Cr  Cr33  1  0.16750876  0.83440011  0.49955521  1
  Cr  Cr34  1  0.99703935  0.66606057  0.66999840  1
  Ni  Ni35  1  0.16787320  0.83168621  0.83345117  1
  Cr  Cr36  1  0.50078085  0.16511334  0.50214954  1
  Ni  Ni37  1  0.33506198  0.99839004  0.66776722  1
  Ni  Ni38  1  0.50133289  0.16469391  0.83140268  1
  Cr  Cr39  1  0.50086189  0.50256290  0.49995541  1
  Ni  Ni40  1  0.33181254  0.33208572  0.66704615  1
  Cr  Cr41  1  0.49990979  0.50095216  0.83178459  1
  Ni  Ni42  1  0.49997839  0.83248174  0.50084200  1
  Ni  Ni43  1  0.33411094  0.66781035  0.66852868  1
  Ni  Ni44  1  0.49842971  0.83337248  0.83067349  1
  Ni  Ni45  1  0.83511366  0.16698815  0.50084749  1
  Ni  Ni46  1  0.66730880  0.99809571  0.66748251  1
  Ni  Ni47  1  0.83178244  0.16781175  0.83089403  1
  Fe  Fe48  1  0.83210505  0.49966720  0.49967149  1
  Ni  Ni49  1  0.66892612  0.33171068  0.66775457  1
  Ni  Ni50  1  0.83342888  0.49825075  0.83293934  1
  Ni  Ni51  1  0.83253416  0.83498751  0.49912768  1
  Ni  Ni52  1  0.66685347  0.66913210  0.66530135  1
  Ni  Ni53  1  0.83262180  0.83276799  0.83197781  1
" 