3121,Ni64Cr36_7,-213.714495230929, 134.748359536392,Ni64Cr36,"# generated using pymatgen
 data_Cr17Ni10
_symmetry_space_group_name_H-M   'P 1'
_cell_length_a   7.55040690
_cell_length_b   7.55040690
_cell_length_c   10.67788783
_cell_angle_alpha   90.00000000
_cell_angle_beta   90.00000000
_cell_angle_gamma   90.00000000
_symmetry_Int_Tables_number   1
_chemical_formula_structural   Cr17Ni10
_chemical_formula_sum   'Cr34 Ni20'
_cell_volume   608.73190940
_cell_formula_units_Z   2
loop_
 _symmetry_equiv_pos_site_id
 _symmetry_equiv_pos_as_xyz
  1  'x, y, z'
loop_
 _atom_site_type_symbol
 _atom_site_label
 _atom_site_symmetry_multiplicity
 _atom_site_fract_x
 _atom_site_fract_y
 _atom_site_fract_z
 _atom_site_occupancy
  Cr  Cr0  1  -0.00441925  -0.00443651  -0.00486976  1
  Ni  Ni1  1  0.16351227  0.15888095  0.16089814  1
  Ni  Ni2  1  -0.00091800  -0.00328725  0.32792910  1
  Ni  Ni3  1  -0.00549425  0.32785137  0.99421471  1
  Cr  Cr4  1  0.16212642  0.49369766  0.16077330  1
  Cr  Cr5  1  -0.00497504  0.32602863  0.32775981  1
  Cr  Cr6  1  0.99012771  0.65998695  0.99198011  1
  Cr  Cr7  1  0.16433766  0.82949807  0.16368766  1
  Cr  Cr8  1  0.99424385  0.66167514  0.32982815  1
  Ni  Ni9  1  0.32890502  -0.00435254  -0.00197299  1
  Ni  Ni10  1  0.49174739  0.15999847  0.16262850  1
  Ni  Ni11  1  0.32715521  -0.00385498  0.32662737  1
  Cr  Cr12  1  0.32756737  0.32622407  -0.00376448  1
  Ni  Ni13  1  0.49551966  0.49555770  0.16203139  1
  Cr  Cr14  1  0.32961538  0.32610269  0.32674791  1
  Cr  Cr15  1  0.33194876  0.66006386  -0.00448930  1
  Ni  Ni16  1  0.49213651  0.82806083  0.16089569  1
  Ni  Ni17  1  0.33019277  0.66308830  0.32552487  1
  Cr  Cr18  1  0.65966546  0.99104009  0.99435076  1
  Cr  Cr19  1  0.82843612  0.16265114  0.16179753  1
  Cr  Cr20  1  0.65957945  -0.00350088  0.32743954  1
  Cr  Cr21  1  0.65953667  0.33101041  -0.00468721  1
  Cr  Cr22  1  0.82582980  0.49231423  0.16089091  1
  Ni  Ni23  1  0.65860750  0.32774106  0.32834472  1
  Ni  Ni24  1  0.66006875  0.65995017  0.99340807  1
  Cr  Cr25  1  0.82634561  0.82849205  0.16121476  1
  Cr  Cr26  1  0.65994887  0.65896455  0.32582697  1
  Ni  Ni27  1  0.16159655  0.16031043  0.49327759  1
  Cr  Cr28  1  0.99397740  0.99357311  0.66064315  1
  Cr  Cr29  1  0.16023332  0.16209211  0.82980212  1
  Cr  Cr30  1  0.15922444  0.49518118  0.49567117  1
  Ni  Ni31  1  0.99169200  0.33072083  0.66058054  1
  Cr  Cr32  1  0.15919039  0.49353131  0.82680968  1
  Cr  Cr33  1  0.16247778  0.82779068  0.49262128  1
  Ni  Ni34  1  0.99082022  0.65764951  0.66212252  1
  Cr  Cr35  1  0.16138669  0.82745673  0.82727770  1
  Ni  Ni36  1  0.49368040  0.16258302  0.49349834  1
  Cr  Cr37  1  0.32782325  -0.00266807  0.65946798  1
  Cr  Cr38  1  0.49540935  0.16241863  0.82666065  1
  Cr  Cr39  1  0.49707243  0.49272576  0.49360829  1
  Cr  Cr40  1  0.32877983  0.32680477  0.66044261  1
  Ni  Ni41  1  0.49926391  0.49474816  0.82806516  1
  Cr  Cr42  1  0.49195408  0.82904588  0.49234217  1
  Cr  Cr43  1  0.32740665  0.65934363  0.66175252  1
  Cr  Cr44  1  0.49456954  0.82713423  0.82968344  1
  Cr  Cr45  1  0.82625871  0.16506059  0.49403119  1
  Cr  Cr46  1  0.66127882  -0.00466818  0.66129871  1
  Cr  Cr47  1  0.82792147  0.16450637  0.82755747  1
  Ni  Ni48  1  0.82761709  0.49169865  0.49701216  1
  Ni  Ni49  1  0.66324698  0.33043283  0.66051273  1
  Ni  Ni50  1  0.82672414  0.49513112  0.82644422  1
  Cr  Cr51  1  0.82919679  0.82668208  0.49414594  1
  Cr  Cr52  1  0.66415420  0.65978378  0.66373926  1
  Ni  Ni53  1  0.82760593  0.82339461  0.82782517  1
" 