1466,Ni64Fe32Cr3_14,-240.674658772128, 213.042729921039,Ni64Fe32Cr3,"# generated using pymatgen
 data_Cr3(FeNi2)17
_symmetry_space_group_name_H-M   'P 1'
_cell_length_a   7.42228536
_cell_length_b   7.42228536
_cell_length_c   10.49669662
_cell_angle_alpha   90.00000000
_cell_angle_beta   90.00000000
_cell_angle_gamma   90.00000000
_symmetry_Int_Tables_number   1
_chemical_formula_structural   Cr3(FeNi2)17
_chemical_formula_sum   'Cr3 Fe17 Ni34'
_cell_volume   578.26637528
_cell_formula_units_Z   1
loop_
 _symmetry_equiv_pos_site_id
 _symmetry_equiv_pos_as_xyz
  1  'x, y, z'
loop_
 _atom_site_type_symbol
 _atom_site_label
 _atom_site_symmetry_multiplicity
 _atom_site_fract_x
 _atom_site_fract_y
 _atom_site_fract_z
 _atom_site_occupancy
  Ni  Ni0  1  0.00367478  1.00266295  1.00217148  1
  Ni  Ni1  1  0.16865038  0.17010273  0.16978742  1
  Ni  Ni2  1  1.00279973  1.00149670  0.33636463  1
  Fe  Fe3  1  0.00377191  0.33535324  1.00253642  1
  Fe  Fe4  1  0.16837642  0.50320187  0.17042045  1
  Fe  Fe5  1  1.00270203  0.33749924  0.33619473  1
  Fe  Fe6  1  1.00301248  0.67007834  0.00302605  1
  Fe  Fe7  1  0.16958691  0.83754234  0.17044259  1
  Ni  Ni8  1  1.00250587  0.67100229  0.33631952  1
  Ni  Ni9  1  0.33404819  0.00381126  0.00422973  1
  Fe  Fe10  1  0.50305358  0.16778439  0.17023584  1
  Ni  Ni11  1  0.33590350  1.00237715  0.33505279  1
  Ni  Ni12  1  0.33736791  0.33511925  1.00107562  1
  Cr  Cr13  1  0.50208360  0.50489022  0.16996007  1
  Ni  Ni14  1  0.33814440  0.33583389  0.33713405  1
  Ni  Ni15  1  0.33555478  0.67016351  0.00339647  1
  Ni  Ni16  1  0.50361390  0.83581987  0.17002461  1
  Ni  Ni17  1  0.33544011  0.67088837  0.33746336  1
  Fe  Fe18  1  0.67015153  0.00334388  0.00402832  1
  Ni  Ni19  1  0.83867989  0.16854096  0.16987119  1
  Fe  Fe20  1  0.66966048  1.00238822  0.33630060  1
  Ni  Ni21  1  0.67022846  0.33646036  1.00195605  1
  Fe  Fe22  1  0.83699884  0.50319801  0.17039376  1
  Ni  Ni23  1  0.67030340  0.33603455  0.33734405  1
  Ni  Ni24  1  0.67126355  0.66799081  1.00252273  1
  Ni  Ni25  1  0.83548727  0.83710909  0.16904443  1
  Ni  Ni26  1  0.67103233  0.66877562  0.33802953  1
  Cr  Cr27  1  0.16861213  0.16989537  0.50305389  1
  Ni  Ni28  1  1.00285727  1.00187518  0.67049886  1
  Ni  Ni29  1  0.16849325  0.17030761  0.83616750  1
  Ni  Ni30  1  0.17093740  0.50485001  0.50270454  1
  Ni  Ni31  1  0.99983659  0.33664890  0.67007685  1
  Fe  Fe32  1  0.16960911  0.50309427  0.83560491  1
  Ni  Ni33  1  0.16922271  0.83464464  0.50317988  1
  Ni  Ni34  1  0.00335043  0.67057153  0.66992980  1
  Fe  Fe35  1  0.16814474  0.83717344  0.83547126  1
  Ni  Ni36  1  0.50415709  0.17085639  0.50297968  1
  Ni  Ni37  1  0.33529298  1.00223797  0.66978195  1
  Fe  Fe38  1  0.50331012  0.17127516  0.83594358  1
  Ni  Ni39  1  0.50254931  0.50346954  0.50338354  1
  Fe  Fe40  1  0.33616338  0.33740602  0.67031921  1
  Ni  Ni41  1  0.50207121  0.50258355  0.83625327  1
  Fe  Fe42  1  0.50237909  0.83599101  0.50243827  1
  Ni  Ni43  1  0.33508414  0.66994467  0.66818787  1
  Cr  Cr44  1  0.50397260  0.83396695  0.83649129  1
  Ni  Ni45  1  0.83525942  0.16907802  0.50292479  1
  Fe  Fe46  1  0.67169004  0.00399538  0.66874759  1
  Ni  Ni47  1  0.83874293  0.16881888  0.83624424  1
  Ni  Ni48  1  0.83557131  0.50370169  0.50273940  1
  Ni  Ni49  1  0.67017820  0.33640923  0.66975874  1
  Fe  Fe50  1  0.83569907  0.50244062  0.83564990  1
  Ni  Ni51  1  0.83672162  0.83624664  0.50327651  1
  Fe  Fe52  1  0.67119640  0.66880893  0.66894528  1
  Ni  Ni53  1  0.83763257  0.83707063  0.83675228  1
" 