857,Ni64Fe29Cr6_0,-239.1926335611, 212.247843977721,Ni64Fe29Cr6,"# generated using pymatgen
 data_Cr5Fe15Ni34
_symmetry_space_group_name_H-M   'P 1'
_cell_length_a   7.42459264
_cell_length_b   7.42459264
_cell_length_c   10.49995961
_cell_angle_alpha   90.00000000
_cell_angle_beta   90.00000000
_cell_angle_gamma   90.00000000
_symmetry_Int_Tables_number   1
_chemical_formula_structural   Cr5Fe15Ni34
_chemical_formula_sum   'Cr5 Fe15 Ni34'
_cell_volume   578.80582090
_cell_formula_units_Z   1
loop_
 _symmetry_equiv_pos_site_id
 _symmetry_equiv_pos_as_xyz
  1  'x, y, z'
loop_
 _atom_site_type_symbol
 _atom_site_label
 _atom_site_symmetry_multiplicity
 _atom_site_fract_x
 _atom_site_fract_y
 _atom_site_fract_z
 _atom_site_occupancy
  Cr  Cr0  1  0.00319853  0.00307250  1.00249527  1
  Ni  Ni1  1  0.16956993  0.17163483  0.17022644  1
  Fe  Fe2  1  1.00173986  1.00238267  0.33597634  1
  Ni  Ni3  1  1.00177414  0.33707670  0.00307093  1
  Ni  Ni4  1  0.16757936  0.50216989  0.16984501  1
  Fe  Fe5  1  1.00257494  0.33707367  0.33556046  1
  Ni  Ni6  1  1.00125169  0.66763351  0.00305938  1
  Fe  Fe7  1  0.16873332  0.83608017  0.17099399  1
  Ni  Ni8  1  0.00365253  0.67023730  0.33492397  1
  Ni  Ni9  1  0.33585405  1.00261668  0.00304197  1
  Cr  Cr10  1  0.50348655  0.16843230  0.16820758  1
  Fe  Fe11  1  0.33645934  1.00166883  0.33680482  1
  Fe  Fe12  1  0.33385002  0.33693406  0.00334811  1
  Fe  Fe13  1  0.50467126  0.50352624  0.17039870  1
  Ni  Ni14  1  0.33562249  0.33714712  0.33625761  1
  Cr  Cr15  1  0.33623328  0.67015774  0.00298682  1
  Ni  Ni16  1  0.50419353  0.83650633  0.17057705  1
  Ni  Ni17  1  0.33531640  0.66921583  0.33614773  1
  Fe  Fe18  1  0.67008529  1.00081673  0.00317166  1
  Ni  Ni19  1  0.83619109  0.17051811  0.17053664  1
  Ni  Ni20  1  0.67092788  1.00282085  0.33581919  1
  Ni  Ni21  1  0.67194959  0.33784967  0.00286101  1
  Ni  Ni22  1  0.83791739  0.50354170  0.16959733  1
  Ni  Ni23  1  0.66991037  0.33569876  0.33736841  1
  Ni  Ni24  1  0.67069892  0.66863330  1.00277285  1
  Ni  Ni25  1  0.83447705  0.83451529  0.16962747  1
  Ni  Ni26  1  0.66961034  0.67005929  0.33602649  1
  Fe  Fe27  1  0.16869117  0.16845675  0.50178490  1
  Fe  Fe28  1  1.00274148  0.00289524  0.66936586  1
  Fe  Fe29  1  0.16817969  0.16989492  0.83698197  1
  Ni  Ni30  1  0.16903134  0.50509055  0.50235899  1
  Ni  Ni31  1  1.00045271  0.33640943  0.66976288  1
  Ni  Ni32  1  0.16703057  0.50436474  0.83637851  1
  Ni  Ni33  1  0.16967984  0.83414472  0.50240105  1
  Ni  Ni34  1  0.00401224  0.66951423  0.67059033  1
  Ni  Ni35  1  0.17062448  0.83453881  0.83451878  1
  Ni  Ni36  1  0.50499374  0.16868170  0.50204790  1
  Ni  Ni37  1  0.33592998  0.99946702  0.66850576  1
  Cr  Cr38  1  0.50469013  0.16808182  0.83825693  1
  Fe  Fe39  1  0.50355235  0.50338363  0.50196913  1
  Cr  Cr40  1  0.33560140  0.33730687  0.67017221  1
  Ni  Ni41  1  0.50405107  0.50441198  0.83653911  1
  Fe  Fe42  1  0.50277998  0.83692409  0.50287648  1
  Ni  Ni43  1  0.33496888  0.67217888  0.66966287  1
  Ni  Ni44  1  0.50226176  0.83629654  0.83455817  1
  Ni  Ni45  1  0.83372855  0.16933214  0.50262180  1
  Ni  Ni46  1  0.67011746  0.00302240  0.66966478  1
  Ni  Ni47  1  0.83573618  0.17145867  0.83541541  1
  Fe  Fe48  1  0.83676458  0.50285400  0.50294291  1
  Ni  Ni49  1  0.67278030  0.33544755  0.66834792  1
  Ni  Ni50  1  0.83749418  0.50200801  0.83584217  1
  Ni  Ni51  1  0.83656921  0.83682064  0.50341980  1
  Fe  Fe52  1  0.66916116  0.66938992  0.67025093  1
  Fe  Fe53  1  0.83523660  0.83399486  0.83544939  1
" 