3563,Ni64Fe29Cr6_2,-238.767513742945, 209.404531196106,Ni64Fe29Cr6,"# generated using pymatgen
 data_Cr5Fe15Ni34
_symmetry_space_group_name_H-M   'P 1'
_cell_length_a   7.42150165
_cell_length_b   7.42150165
_cell_length_c   10.49558828
_cell_angle_alpha   90.00000000
_cell_angle_beta   90.00000000
_cell_angle_gamma   90.00000000
_symmetry_Int_Tables_number   1
_chemical_formula_structural   Cr5Fe15Ni34
_chemical_formula_sum   'Cr5 Fe15 Ni34'
_cell_volume   578.08321901
_cell_formula_units_Z   1
loop_
 _symmetry_equiv_pos_site_id
 _symmetry_equiv_pos_as_xyz
  1  'x, y, z'
loop_
 _atom_site_type_symbol
 _atom_site_label
 _atom_site_symmetry_multiplicity
 _atom_site_fract_x
 _atom_site_fract_y
 _atom_site_fract_z
 _atom_site_occupancy
  Cr  Cr0  1  0.00480999  1.00286524  0.00428553  1
  Ni  Ni1  1  0.16899079  0.17033752  0.17153540  1
  Ni  Ni2  1  1.00300174  0.00351387  0.33684097  1
  Fe  Fe3  1  0.00749071  0.33611230  1.00293790  1
  Ni  Ni4  1  0.17217520  0.50201119  0.16979961  1
  Ni  Ni5  1  0.00454238  0.33623948  0.33650265  1
  Cr  Cr6  1  0.00350166  0.66991092  1.00193760  1
  Fe  Fe7  1  0.17216055  0.83637995  0.17148454  1
  Ni  Ni8  1  0.00382278  0.66934106  0.33633776  1
  Ni  Ni9  1  0.33759661  0.00522533  1.00260922  1
  Fe  Fe10  1  0.50193809  0.17111674  0.17055512  1
  Ni  Ni11  1  0.33699403  0.00462318  0.33598701  1
  Ni  Ni12  1  0.33769799  0.33587896  1.00281166  1
  Ni  Ni13  1  0.50115889  0.50482569  0.17108642  1
  Fe  Fe14  1  0.33563088  0.33615905  0.33680046  1
  Ni  Ni15  1  0.33873493  0.66858528  0.00431311  1
  Ni  Ni16  1  0.50095684  0.83663353  0.16848113  1
  Fe  Fe17  1  0.33431651  0.67148481  0.33667669  1
  Fe  Fe18  1  0.66700441  1.00116082  0.00345679  1
  Ni  Ni19  1  0.83623965  0.16924300  0.17035603  1
  Ni  Ni20  1  0.66899967  0.00356445  0.33494861  1
  Fe  Fe21  1  0.66633221  0.33712730  1.00230887  1
  Cr  Cr22  1  0.83606868  0.49956333  0.16906119  1
  Fe  Fe23  1  0.67031373  0.33356630  0.33816764  1
  Ni  Ni24  1  0.66787765  0.66933305  1.00125136  1
  Fe  Fe25  1  0.83481192  0.83700986  0.17041942  1
  Cr  Cr26  1  0.66898252  0.66984459  0.33995345  1
  Fe  Fe27  1  0.17001740  0.16961762  0.50357948  1
  Ni  Ni28  1  0.00376809  1.00187255  0.66768799  1
  Ni  Ni29  1  0.17109628  0.16978497  0.83401377  1
  Ni  Ni30  1  0.16832813  0.50425493  0.50320419  1
  Ni  Ni31  1  0.00380167  0.33784433  0.67016241  1
  Fe  Fe32  1  0.17141038  0.50353118  0.83526715  1
  Ni  Ni33  1  0.17184252  0.83597351  0.50236574  1
  Ni  Ni34  1  1.00279900  0.66979592  0.67016084  1
  Ni  Ni35  1  0.17304476  0.83742742  0.83544681  1
  Ni  Ni36  1  0.50429837  0.16732242  0.50288165  1
  Ni  Ni37  1  0.33683220  0.00355168  0.67040774  1
  Fe  Fe38  1  0.50185462  0.16971296  0.83453667  1
  Fe  Fe39  1  0.50132188  0.50196937  0.50467890  1
  Ni  Ni40  1  0.33712025  0.33629949  0.66913901  1
  Ni  Ni41  1  0.50323215  0.50459352  0.83564326  1
  Ni  Ni42  1  0.50034804  0.83830187  0.50496214  1
  Ni  Ni43  1  0.33588187  0.66930626  0.66967693  1
  Ni  Ni44  1  0.50113392  0.83532448  0.83633905  1
  Ni  Ni45  1  0.83640280  0.17076218  0.50270581  1
  Ni  Ni46  1  0.66875164  1.00284998  0.66939734  1
  Cr  Cr47  1  0.83712200  0.17135048  0.83562220  1
  Ni  Ni48  1  0.83860002  0.50017792  0.50470889  1
  Ni  Ni49  1  0.66847372  0.33704182  0.66827868  1
  Ni  Ni50  1  0.83476449  0.50261249  0.83575100  1
  Fe  Fe51  1  0.83766404  0.83775483  0.50403642  1
  Fe  Fe52  1  0.66919864  0.66950618  0.66999273  1
  Ni  Ni53  1  0.83443986  0.83550258  0.83414678  1
" 