3624,Ni64Fe30Cr5_16,-240.14702101124, 212.428382353594,Ni64Fe30Cr5,"# generated using pymatgen
 data_Cr2Fe8Ni17
_symmetry_space_group_name_H-M   'P 1'
_cell_length_a   7.42498370
_cell_length_b   7.42498370
_cell_length_c   10.50051264
_cell_angle_alpha   90.00000000
_cell_angle_beta   90.00000000
_cell_angle_gamma   90.00000000
_symmetry_Int_Tables_number   1
_chemical_formula_structural   Cr2Fe8Ni17
_chemical_formula_sum   'Cr4 Fe16 Ni34'
_cell_volume   578.89728241
_cell_formula_units_Z   2
loop_
 _symmetry_equiv_pos_site_id
 _symmetry_equiv_pos_as_xyz
  1  'x, y, z'
loop_
 _atom_site_type_symbol
 _atom_site_label
 _atom_site_symmetry_multiplicity
 _atom_site_fract_x
 _atom_site_fract_y
 _atom_site_fract_z
 _atom_site_occupancy
  Ni  Ni0  1  0.00400102  0.00374196  1.00226056  1
  Ni  Ni1  1  0.16933452  0.16655168  0.16887811  1
  Ni  Ni2  1  0.00389584  1.00273305  0.33621579  1
  Cr  Cr3  1  1.00206595  0.33382294  0.00334386  1
  Fe  Fe4  1  0.17089082  0.50383320  0.17084108  1
  Ni  Ni5  1  1.00084274  0.33614601  0.33680232  1
  Cr  Cr6  1  1.00274126  0.67116205  1.00223781  1
  Ni  Ni7  1  0.17049912  0.83814698  0.16993941  1
  Ni  Ni8  1  1.00198742  0.66962010  0.33680556  1
  Ni  Ni9  1  0.33508003  1.00176656  1.00255312  1
  Ni  Ni10  1  0.50277089  0.16878175  0.16784622  1
  Ni  Ni11  1  0.33544203  1.00158831  0.33765751  1
  Fe  Fe12  1  0.33730819  0.33676821  0.00383103  1
  Ni  Ni13  1  0.50529676  0.50386355  0.16745548  1
  Cr  Cr14  1  0.33676867  0.33548903  0.33600907  1
  Ni  Ni15  1  0.33923432  0.67016612  0.00334948  1
  Ni  Ni16  1  0.50167113  0.83585145  0.16907905  1
  Fe  Fe17  1  0.33586322  0.67113924  0.33643789  1
  Fe  Fe18  1  0.66960009  1.00159861  0.00284312  1
  Fe  Fe19  1  0.83522227  0.16909825  0.17024234  1
  Fe  Fe20  1  0.66970824  0.00301120  0.33726749  1
  Ni  Ni21  1  0.66839331  0.33771949  0.00328663  1
  Ni  Ni22  1  0.83409721  0.50269949  0.17127863  1
  Ni  Ni23  1  0.67105156  0.33730598  0.33689488  1
  Ni  Ni24  1  0.66642353  0.66817132  1.00148410  1
  Fe  Fe25  1  0.83536357  0.83657977  0.17081500  1
  Ni  Ni26  1  0.66990590  0.66845686  0.33689705  1
  Ni  Ni27  1  0.16843292  0.16806242  0.50368392  1
  Ni  Ni28  1  1.00232356  0.00374721  0.67002182  1
  Ni  Ni29  1  0.16759370  0.16777588  0.83593618  1
  Ni  Ni30  1  0.16795993  0.50379741  0.50308137  1
  Fe  Fe31  1  1.00274099  0.33547706  0.66924471  1
  Fe  Fe32  1  0.17162172  0.50264531  0.83411734  1
  Ni  Ni33  1  0.16959849  0.83663847  0.50262566  1
  Fe  Fe34  1  1.00266470  0.67011620  0.66855254  1
  Fe  Fe35  1  0.17054893  0.83722400  0.83582040  1
  Ni  Ni36  1  0.50338637  0.16838022  0.50361598  1
  Fe  Fe37  1  0.33552333  1.00167746  0.66836548  1
  Cr  Cr38  1  0.50225881  0.16898044  0.83713930  1
  Ni  Ni39  1  0.50424043  0.50386128  0.50365400  1
  Fe  Fe40  1  0.33532555  0.33647254  0.66823093  1
  Ni  Ni41  1  0.50397055  0.50562370  0.83738642  1
  Ni  Ni42  1  0.50228226  0.83625617  0.50238621  1
  Ni  Ni43  1  0.33675315  0.66878259  0.66908968  1
  Ni  Ni44  1  0.50230879  0.83367617  0.83703200  1
  Ni  Ni45  1  0.83667991  0.17001954  0.50231413  1
  Ni  Ni46  1  0.67090606  1.00261625  0.66856830  1
  Ni  Ni47  1  0.83852482  0.16944029  0.83645916  1
  Ni  Ni48  1  0.83629651  0.50269568  0.50261360  1
  Fe  Fe49  1  0.67043286  0.33658022  0.66873769  1
  Ni  Ni50  1  0.83441253  0.50286291  0.83460536  1
  Ni  Ni51  1  0.83661638  0.83578578  0.50267883  1
  Fe  Fe52  1  0.66920673  0.67031426  0.66948299  1
  Fe  Fe53  1  0.83489044  0.83763742  0.83496342  1
" 