8690,Ni64Fe32Cr3_13,-240.643789088659, 213.608642821106,Ni64Fe32Cr3,"# generated using pymatgen
 data_Cr3(FeNi2)17
_symmetry_space_group_name_H-M   'P 1'
_cell_length_a   7.41771861
_cell_length_b   7.41771861
_cell_length_c   10.49023826
_cell_angle_alpha   90.00000000
_cell_angle_beta   90.00000000
_cell_angle_gamma   90.00000000
_symmetry_Int_Tables_number   1
_chemical_formula_structural   Cr3(FeNi2)17
_chemical_formula_sum   'Cr3 Fe17 Ni34'
_cell_volume   577.19965184
_cell_formula_units_Z   1
loop_
 _symmetry_equiv_pos_site_id
 _symmetry_equiv_pos_as_xyz
  1  'x, y, z'
loop_
 _atom_site_type_symbol
 _atom_site_label
 _atom_site_symmetry_multiplicity
 _atom_site_fract_x
 _atom_site_fract_y
 _atom_site_fract_z
 _atom_site_occupancy
  Fe  Fe0  1  1.00281094  0.00405933  0.00346645  1
  Ni  Ni1  1  0.16837787  0.16863968  0.17053331  1
  Fe  Fe2  1  0.00336277  1.00109999  0.33593584  1
  Ni  Ni3  1  1.00198340  0.33744878  0.00332649  1
  Ni  Ni4  1  0.16862198  0.50429793  0.17136553  1
  Fe  Fe5  1  1.00324741  0.33846783  0.33624506  1
  Ni  Ni6  1  1.00204721  0.66889084  0.00339846  1
  Ni  Ni7  1  0.17052088  0.83704470  0.16967177  1
  Ni  Ni8  1  1.00301038  0.66922024  0.33768993  1
  Ni  Ni9  1  0.33768822  1.00323374  1.00325616  1
  Ni  Ni10  1  0.50441481  0.16830080  0.17114289  1
  Ni  Ni11  1  0.33779551  0.00352589  0.33596026  1
  Cr  Cr12  1  0.33636204  0.33472402  1.00302177  1
  Ni  Ni13  1  0.50472158  0.50517754  0.17039841  1
  Fe  Fe14  1  0.33751123  0.33899546  0.33525449  1
  Fe  Fe15  1  0.33738654  0.67119929  0.00361491  1
  Ni  Ni16  1  0.50316208  0.83650504  0.16961962  1
  Ni  Ni17  1  0.33630140  0.67057049  0.33697096  1
  Ni  Ni18  1  0.66844145  1.00329753  0.00369597  1
  Fe  Fe19  1  0.83643820  0.17025972  0.16940079  1
  Fe  Fe20  1  0.66923502  1.00198492  0.33626089  1
  Ni  Ni21  1  0.67179926  0.33628098  1.00270760  1
  Fe  Fe22  1  0.83672085  0.50385337  0.16948457  1
  Fe  Fe23  1  0.66920556  0.33772854  0.33656496  1
  Ni  Ni24  1  0.67140895  0.67039754  0.00369328  1
  Fe  Fe25  1  0.83648400  0.83585866  0.16974881  1
  Ni  Ni26  1  0.67066740  0.66985385  0.33668843  1
  Cr  Cr27  1  0.16797525  0.16878879  0.50255777  1
  Fe  Fe28  1  1.00314678  1.00234809  0.67057826  1
  Ni  Ni29  1  0.16704648  0.16830970  0.83710970  1
  Ni  Ni30  1  0.16853007  0.50666047  0.50233968  1
  Ni  Ni31  1  1.00104948  0.33799219  0.67085525  1
  Ni  Ni32  1  0.16728612  0.50461599  0.83626942  1
  Ni  Ni33  1  0.17126712  0.83489659  0.50371472  1
  Ni  Ni34  1  1.00235360  0.66878706  0.66888417  1
  Fe  Fe35  1  0.17076096  0.83656345  0.83626542  1
  Fe  Fe36  1  0.50524888  0.16915275  0.50240080  1
  Ni  Ni37  1  0.33811578  1.00187030  0.67075624  1
  Ni  Ni38  1  0.50544953  0.16710536  0.83620304  1
  Ni  Ni39  1  0.50505179  0.50639247  0.50263319  1
  Cr  Cr40  1  0.33666384  0.33634929  0.67071742  1
  Ni  Ni41  1  0.50574956  0.50636946  0.83693664  1
  Ni  Ni42  1  0.50266551  0.83553011  0.50310206  1
  Ni  Ni43  1  0.33661512  0.67218991  0.66974320  1
  Ni  Ni44  1  0.50300939  0.83650332  0.83725866  1
  Ni  Ni45  1  0.83575755  0.17080655  0.50361991  1
  Fe  Fe46  1  0.66970782  1.00286561  0.67062761  1
  Ni  Ni47  1  0.83748425  0.17104652  0.83703021  1
  Ni  Ni48  1  0.83639770  0.50251812  0.50362070  1
  Fe  Fe49  1  0.67182452  0.33773408  0.67053121  1
  Ni  Ni50  1  0.83694470  0.50217963  0.83685894  1
  Fe  Fe51  1  0.83685560  0.83490255  0.50318940  1
  Ni  Ni52  1  0.67100919  0.67030271  0.66959312  1
  Fe  Fe53  1  0.83586076  0.83585650  0.83703994  1
" 