7535,Ni64Fe29Cr6_14,-238.204020356648, 204.733102734323,Ni64Fe29Cr6,"# generated using pymatgen
 data_Cr5Fe15Ni34
_symmetry_space_group_name_H-M   'P 1'
_cell_length_a   7.42482860
_cell_length_b   7.42482860
_cell_length_c   10.50029331
_cell_angle_alpha   90.00000000
_cell_angle_beta   90.00000000
_cell_angle_gamma   90.00000000
_symmetry_Int_Tables_number   1
_chemical_formula_structural   Cr5Fe15Ni34
_chemical_formula_sum   'Cr5 Fe15 Ni34'
_cell_volume   578.86100703
_cell_formula_units_Z   1
loop_
 _symmetry_equiv_pos_site_id
 _symmetry_equiv_pos_as_xyz
  1  'x, y, z'
loop_
 _atom_site_type_symbol
 _atom_site_label
 _atom_site_symmetry_multiplicity
 _atom_site_fract_x
 _atom_site_fract_y
 _atom_site_fract_z
 _atom_site_occupancy
  Ni  Ni0  1  1.00206940  1.00115138  0.00290965  1
  Ni  Ni1  1  0.17220946  0.16762471  0.16909749  1
  Fe  Fe2  1  0.00373249  1.00041813  0.33620043  1
  Ni  Ni3  1  0.00336783  0.33707121  1.00222502  1
  Fe  Fe4  1  0.17273535  0.50373192  0.16885162  1
  Cr  Cr5  1  0.00466014  0.33599639  0.33693363  1
  Ni  Ni6  1  0.00383274  0.67030940  1.00260822  1
  Ni  Ni7  1  0.17005715  0.83718208  0.16929423  1
  Fe  Fe8  1  0.00374016  0.67104000  0.33676181  1
  Ni  Ni9  1  0.33713144  1.00174096  0.00432863  1
  Ni  Ni10  1  0.50033295  0.17008852  0.16918395  1
  Fe  Fe11  1  0.33609771  0.00366135  0.33508616  1
  Ni  Ni12  1  0.33646009  0.33710461  0.00484595  1
  Ni  Ni13  1  0.50153870  0.50278514  0.17051976  1
  Ni  Ni14  1  0.33762904  0.33654446  0.33604541  1
  Ni  Ni15  1  0.33539835  0.66968538  1.00255139  1
  Ni  Ni16  1  0.50155158  0.83565654  0.16873853  1
  Ni  Ni17  1  0.33623240  0.66881655  0.33594966  1
  Ni  Ni18  1  0.66933238  1.00220612  1.00243767  1
  Cr  Cr19  1  0.83591251  0.16847198  0.16714484  1
  Fe  Fe20  1  0.66869450  0.00329946  0.33599252  1
  Ni  Ni21  1  0.66870314  0.33533407  1.00086391  1
  Cr  Cr22  1  0.83418974  0.50434748  0.16800595  1
  Ni  Ni23  1  0.66648451  0.33653861  0.33916639  1
  Fe  Fe24  1  0.66888737  0.67008817  1.00211286  1
  Ni  Ni25  1  0.83692319  0.83597471  0.17001756  1
  Ni  Ni26  1  0.66916428  0.67011403  0.33554532  1
  Fe  Fe27  1  0.17074803  0.17009118  0.50374962  1
  Fe  Fe28  1  1.00198853  1.00232993  0.66933664  1
  Cr  Cr29  1  0.16889576  0.16805130  0.83657037  1
  Ni  Ni30  1  0.17007193  0.50408358  0.50397325  1
  Ni  Ni31  1  1.00272098  0.33724166  0.66869922  1
  Fe  Fe32  1  0.16848679  0.50414577  0.83614293  1
  Ni  Ni33  1  0.16839768  0.83610399  0.50298275  1
  Fe  Fe34  1  0.00291643  0.66962047  0.66987935  1
  Ni  Ni35  1  0.16962771  0.83563743  0.83625255  1
  Ni  Ni36  1  0.50344267  0.17178394  0.50294230  1
  Ni  Ni37  1  0.33672057  0.00302363  0.66906131  1
  Fe  Fe38  1  0.50488433  0.16915220  0.83628431  1
  Ni  Ni39  1  0.50321115  0.50069454  0.50216129  1
  Ni  Ni40  1  0.33556227  0.33651782  0.66764067  1
  Ni  Ni41  1  0.50383914  0.50303906  0.83584881  1
  Cr  Cr42  1  0.50130586  0.83552956  0.50297243  1
  Fe  Fe43  1  0.33564837  0.66871285  0.66993628  1
  Fe  Fe44  1  0.50366669  0.83635185  0.83621523  1
  Ni  Ni45  1  0.83529972  0.17011772  0.50401042  1
  Ni  Ni46  1  0.67006452  1.00236518  0.66991477  1
  Ni  Ni47  1  0.83520998  0.16999608  0.83676359  1
  Ni  Ni48  1  0.83524893  0.50207688  0.50392321  1
  Fe  Fe49  1  0.66928473  0.33587919  0.66921044  1
  Ni  Ni50  1  0.83476460  0.50233674  0.83624081  1
  Fe  Fe51  1  0.83682624  0.83550334  0.50294172  1
  Ni  Ni52  1  0.67078707  0.66996148  0.67024720  1
  Ni  Ni53  1  0.83683793  0.83619650  0.83620721  1
" 