5661,Ni64Fe29Cr6_15,-239.288303470375, 209.588488211622,Ni64Fe29Cr6,"# generated using pymatgen
 data_Cr5Fe15Ni34
_symmetry_space_group_name_H-M   'P 1'
_cell_length_a   7.42694062
_cell_length_b   7.42694062
_cell_length_c   10.50328015
_cell_angle_alpha   90.00000000
_cell_angle_beta   90.00000000
_cell_angle_gamma   90.00000000
_symmetry_Int_Tables_number   1
_chemical_formula_structural   Cr5Fe15Ni34
_chemical_formula_sum   'Cr5 Fe15 Ni34'
_cell_volume   579.35512381
_cell_formula_units_Z   1
loop_
 _symmetry_equiv_pos_site_id
 _symmetry_equiv_pos_as_xyz
  1  'x, y, z'
loop_
 _atom_site_type_symbol
 _atom_site_label
 _atom_site_symmetry_multiplicity
 _atom_site_fract_x
 _atom_site_fract_y
 _atom_site_fract_z
 _atom_site_occupancy
  Ni  Ni0  1  1.00060622  0.00435089  0.00282960  1
  Fe  Fe1  1  0.16718224  0.17068469  0.16928927  1
  Fe  Fe2  1  0.00314039  1.00209390  0.33590212  1
  Ni  Ni3  1  0.00355625  0.33452969  1.00243051  1
  Ni  Ni4  1  0.16966734  0.50170925  0.17051734  1
  Ni  Ni5  1  0.00360563  0.33722321  0.33553844  1
  Cr  Cr6  1  0.00274011  0.66904926  0.00296726  1
  Fe  Fe7  1  0.16812320  0.83568628  0.17028549  1
  Ni  Ni8  1  1.00200124  0.66826594  0.33553687  1
  Fe  Fe9  1  0.33387480  1.00269198  1.00050232  1
  Cr  Cr10  1  0.50284369  0.17010013  0.16904456  1
  Ni  Ni11  1  0.33640915  0.00331854  0.33725169  1
  Ni  Ni12  1  0.33502861  0.33754346  1.00241001  1
  Ni  Ni13  1  0.50203646  0.50310095  0.16980317  1
  Ni  Ni14  1  0.33454631  0.33674807  0.33642229  1
  Ni  Ni15  1  0.33701816  0.66735879  1.00168198  1
  Cr  Cr16  1  0.50278341  0.83469077  0.16929842  1
  Ni  Ni17  1  0.33544096  0.66803356  0.33717667  1
  Ni  Ni18  1  0.67136809  1.00236184  1.00093581  1
  Ni  Ni19  1  0.83768794  0.16947974  0.16960639  1
  Ni  Ni20  1  0.67018508  1.00171575  0.33777010  1
  Fe  Fe21  1  0.67062231  0.33629961  1.00253324  1
  Ni  Ni22  1  0.83639655  0.50173574  0.16945947  1
  Fe  Fe23  1  0.66980944  0.33732228  0.33643303  1
  Fe  Fe24  1  0.66880317  0.66893870  1.00211256  1
  Ni  Ni25  1  0.83629374  0.83688479  0.17044295  1
  Ni  Ni26  1  0.67065600  0.67012870  0.33597433  1
  Ni  Ni27  1  0.17002487  0.16955253  0.50297248  1
  Ni  Ni28  1  0.00393648  0.00435476  0.66944226  1
  Ni  Ni29  1  0.16843693  0.16995235  0.83603034  1
  Ni  Ni30  1  0.16898026  0.50166522  0.50198466  1
  Ni  Ni31  1  0.00420450  0.33510566  0.67012950  1
  Ni  Ni32  1  0.17088637  0.50058788  0.83559958  1
  Ni  Ni33  1  0.17134863  0.83688567  0.50213118  1
  Cr  Cr34  1  1.00230654  0.66921293  0.66983605  1
  Ni  Ni35  1  0.17161566  0.83756317  0.83600713  1
  Ni  Ni36  1  0.50161022  0.16870551  0.50217322  1
  Ni  Ni37  1  0.33534620  0.00397400  0.67014169  1
  Fe  Fe38  1  0.50109659  0.16911113  0.83646308  1
  Fe  Fe39  1  0.50169155  0.50295304  0.50212945  1
  Ni  Ni40  1  0.33500167  0.33541492  0.66926766  1
  Fe  Fe41  1  0.50179727  0.50331069  0.83661850  1
  Ni  Ni42  1  0.50172207  0.83629761  0.50191558  1
  Fe  Fe43  1  0.33670333  0.67006426  0.66961101  1
  Ni  Ni44  1  0.50229202  0.83511501  0.83696370  1
  Fe  Fe45  1  0.83764490  0.17012296  0.50207367  1
  Cr  Cr46  1  0.66906942  1.00137845  0.66892705  1
  Ni  Ni47  1  0.83743603  0.16988360  0.83661947  1
  Ni  Ni48  1  0.83588258  0.50177571  0.50220113  1
  Fe  Fe49  1  0.66983231  0.33694808  0.66913266  1
  Fe  Fe50  1  0.83568637  0.50160428  0.83549528  1
  Fe  Fe51  1  0.83612801  0.83567065  0.50108164  1
  Ni  Ni52  1  0.66850826  0.66898414  0.67005516  1
  Ni  Ni53  1  0.83418996  0.83756478  0.83664646  1
" 