8551,Ni64Fe34Cr1_11,-241.366160027741, 218.817061445444,Ni64Fe34Cr1,"# generated using pymatgen
 data_CrFe9Ni17
_symmetry_space_group_name_H-M   'P 1'
_cell_length_a   7.41367181
_cell_length_b   7.41367181
_cell_length_c   10.48451522
_cell_angle_alpha   90.00000000
_cell_angle_beta   90.00000000
_cell_angle_gamma   90.00000000
_symmetry_Int_Tables_number   1
_chemical_formula_structural   CrFe9Ni17
_chemical_formula_sum   'Cr2 Fe18 Ni34'
_cell_volume   576.25547925
_cell_formula_units_Z   2
loop_
 _symmetry_equiv_pos_site_id
 _symmetry_equiv_pos_as_xyz
  1  'x, y, z'
loop_
 _atom_site_type_symbol
 _atom_site_label
 _atom_site_symmetry_multiplicity
 _atom_site_fract_x
 _atom_site_fract_y
 _atom_site_fract_z
 _atom_site_occupancy
  Fe  Fe0  1  1.00296251  0.00435908  0.00412088  1
  Ni  Ni1  1  0.17068365  0.17034058  0.17008007  1
  Ni  Ni2  1  0.00445900  1.00274901  0.33674959  1
  Ni  Ni3  1  1.00310763  0.33671417  0.00368352  1
  Fe  Fe4  1  0.16991509  0.50238975  0.17081233  1
  Fe  Fe5  1  0.00586665  0.33731144  0.33645658  1
  Fe  Fe6  1  1.00277806  0.67027424  1.00347411  1
  Fe  Fe7  1  0.17000257  0.83761947  0.17088488  1
  Ni  Ni8  1  1.00309776  0.67169993  0.33717527  1
  Ni  Ni9  1  0.33682099  0.00426509  1.00330468  1
  Ni  Ni10  1  0.50186279  0.17059267  0.16860266  1
  Ni  Ni11  1  0.33549238  0.00410996  0.33755489  1
  Ni  Ni12  1  0.33715702  0.33569681  1.00359627  1
  Ni  Ni13  1  0.50322587  0.50352177  0.16940932  1
  Ni  Ni14  1  0.33619140  0.33603950  0.33728133  1
  Fe  Fe15  1  0.33819971  0.66983369  1.00293946  1
  Fe  Fe16  1  0.50454024  0.83743179  0.17016726  1
  Ni  Ni17  1  0.33654212  0.67065005  0.33726536  1
  Ni  Ni18  1  0.67011837  0.00367593  0.00387516  1
  Ni  Ni19  1  0.83825494  0.16927009  0.16938438  1
  Fe  Fe20  1  0.66988758  1.00133346  0.33657858  1
  Ni  Ni21  1  0.67053467  0.33703873  1.00339118  1
  Ni  Ni22  1  0.83690834  0.50486209  0.16869238  1
  Cr  Cr23  1  0.66952294  0.33767697  0.33662584  1
  Ni  Ni24  1  0.67113771  0.67008335  1.00319865  1
  Ni  Ni25  1  0.83716191  0.83666626  0.16999503  1
  Ni  Ni26  1  0.67116002  0.67100002  0.33786661  1
  Ni  Ni27  1  0.17103767  0.17085822  0.50379226  1
  Fe  Fe28  1  0.00400362  1.00236813  0.66974476  1
  Fe  Fe29  1  0.17105812  0.16985589  0.83738492  1
  Ni  Ni30  1  0.17030795  0.50259975  0.50363314  1
  Fe  Fe31  1  0.00557510  0.33837223  0.67018350  1
  Fe  Fe32  1  0.17082825  0.50465846  0.83620380  1
  Ni  Ni33  1  0.16968203  0.83734230  0.50370172  1
  Ni  Ni34  1  1.00345811  0.67157018  0.67013121  1
  Ni  Ni35  1  0.16970399  0.83749935  0.83704043  1
  Ni  Ni36  1  0.50079505  0.16930756  0.50380870  1
  Fe  Fe37  1  0.33704778  1.00254302  0.66997919  1
  Fe  Fe38  1  0.50266727  0.16875165  0.83828191  1
  Ni  Ni39  1  0.50212774  0.50474427  0.50370835  1
  Ni  Ni40  1  0.33600516  0.33657667  0.66992258  1
  Ni  Ni41  1  0.50292676  0.50406012  0.83768002  1
  Ni  Ni42  1  0.50429883  0.83673870  0.50371868  1
  Ni  Ni43  1  0.33635649  0.67051646  0.67007383  1
  Ni  Ni44  1  0.50402014  0.83616357  0.83703257  1
  Fe  Fe45  1  0.83858754  0.16861017  0.50319894  1
  Fe  Fe46  1  0.66974478  1.00083245  0.67059633  1
  Fe  Fe47  1  0.83707119  0.16883678  0.83871609  1
  Ni  Ni48  1  0.83836959  0.50610127  0.50389755  1
  Cr  Cr49  1  0.66908955  0.33793352  0.67038985  1
  Fe  Fe50  1  0.83715581  0.50582767  0.83786449  1
  Ni  Ni51  1  0.83681855  0.83601045  0.50390910  1
  Ni  Ni52  1  0.67098599  0.67160809  0.66973409  1
  Ni  Ni53  1  0.83707540  0.83689756  0.83689615  1
" 