6190,Ni64Cr36_9,-213.920789491652, 140.16156479429,Ni64Cr36,"# generated using pymatgen
 data_Cr17Ni10
_symmetry_space_group_name_H-M   'P 1'
_cell_length_a   7.54699713
_cell_length_b   7.54699713
_cell_length_c   10.67306570
_cell_angle_alpha   90.00000000
_cell_angle_beta   90.00000000
_cell_angle_gamma   90.00000000
_symmetry_Int_Tables_number   1
_chemical_formula_structural   Cr17Ni10
_chemical_formula_sum   'Cr34 Ni20'
_cell_volume   607.90757191
_cell_formula_units_Z   2
loop_
 _symmetry_equiv_pos_site_id
 _symmetry_equiv_pos_as_xyz
  1  'x, y, z'
loop_
 _atom_site_type_symbol
 _atom_site_label
 _atom_site_symmetry_multiplicity
 _atom_site_fract_x
 _atom_site_fract_y
 _atom_site_fract_z
 _atom_site_occupancy
  Cr  Cr0  1  0.99446762  0.99384510  0.99325167  1
  Cr  Cr1  1  0.15975321  0.16112299  0.16119615  1
  Ni  Ni2  1  0.99205998  -0.00338358  0.32873204  1
  Ni  Ni3  1  0.99147612  0.32931435  0.99334102  1
  Cr  Cr4  1  0.16218205  0.49383349  0.16209260  1
  Cr  Cr5  1  -0.00359438  0.32730410  0.33079679  1
  Cr  Cr6  1  0.99231989  0.66143626  0.99309606  1
  Cr  Cr7  1  0.15807251  0.82901109  0.16191086  1
  Cr  Cr8  1  0.99391835  0.66024327  0.32789491  1
  Cr  Cr9  1  0.32829918  0.99330917  0.99098585  1
  Cr  Cr10  1  0.49628849  0.16308450  0.16098971  1
  Cr  Cr11  1  0.32844481  -0.00243472  0.32884366  1
  Cr  Cr12  1  0.32881626  0.32842731  -0.00202335  1
  Ni  Ni13  1  0.49615076  0.49421541  0.16036856  1
  Ni  Ni14  1  0.32731298  0.32843019  0.32883562  1
  Cr  Cr15  1  0.33010773  0.66221496  0.99405555  1
  Cr  Cr16  1  0.49699784  0.82709561  0.16222034  1
  Cr  Cr17  1  0.32886867  0.65737569  0.32908539  1
  Cr  Cr18  1  0.66121926  0.99287276  0.99313369  1
  Cr  Cr19  1  0.82818045  0.15950700  0.16155195  1
  Ni  Ni20  1  0.66402158  0.99450032  0.32919613  1
  Ni  Ni21  1  0.66327562  0.33202955  0.99447317  1
  Cr  Cr22  1  0.82626005  0.49581159  0.15747297  1
  Cr  Cr23  1  0.66010514  0.32769713  0.32811328  1
  Ni  Ni24  1  0.66223447  0.66035436  0.99404214  1
  Ni  Ni25  1  0.82649027  0.82906799  0.16215461  1
  Cr  Cr26  1  0.66090386  0.66133428  0.32668773  1
  Ni  Ni27  1  0.16008466  0.16439220  0.49463965  1
  Cr  Cr28  1  0.99427130  -0.00376521  0.66164684  1
  Cr  Cr29  1  0.16059944  0.16327976  0.82835924  1
  Ni  Ni30  1  0.16371485  0.49087133  0.49685140  1
  Ni  Ni31  1  0.99466130  0.32794590  0.65979356  1
  Cr  Cr32  1  0.16011356  0.49384971  0.82594362  1
  Cr  Cr33  1  0.16218747  0.82674062  0.49460476  1
  Cr  Cr34  1  -0.00510412  0.66003573  0.66293901  1
  Ni  Ni35  1  0.16202902  0.82615555  0.82715651  1
  Cr  Cr36  1  0.49608439  0.16150293  0.49561094  1
  Cr  Cr37  1  0.32840772  0.99346289  0.66421020  1
  Cr  Cr38  1  0.49592685  0.16380751  0.82787442  1
  Cr  Cr39  1  0.49277917  0.49538855  0.49647800  1
  Ni  Ni40  1  0.32603753  0.32939767  0.65866098  1
  Cr  Cr41  1  0.49664650  0.49384665  0.82754665  1
  Ni  Ni42  1  0.49420977  0.82827745  0.49488894  1
  Ni  Ni43  1  0.32818813  0.66105067  0.66125629  1
  Ni  Ni44  1  0.49519273  0.82498069  0.82753054  1
  Ni  Ni45  1  0.83003775  0.16141658  0.49473665  1
  Cr  Cr46  1  0.66164736  0.99441443  0.66072990  1
  Cr  Cr47  1  0.82761146  0.16555914  0.82738185  1
  Cr  Cr48  1  0.82909094  0.49285839  0.49823109  1
  Ni  Ni49  1  0.66351854  0.32818640  0.66173607  1
  Ni  Ni50  1  0.82700668  0.49411880  0.82903197  1
  Cr  Cr51  1  0.82680193  0.83077569  0.49082997  1
  Cr  Cr52  1  0.66076899  0.66249995  0.66294726  1
  Ni  Ni53  1  0.82682734  0.82530390  0.82985862  1
" 