2319,Ni64Cr36_3,-213.707357392815, 136.526807816117,Ni64Cr36,"# generated using pymatgen
 data_Cr17Ni10
_symmetry_space_group_name_H-M   'P 1'
_cell_length_a   7.54920499
_cell_length_b   7.54920499
_cell_length_c   10.67618808
_cell_angle_alpha   90.00000000
_cell_angle_beta   90.00000000
_cell_angle_gamma   90.00000000
_symmetry_Int_Tables_number   1
_chemical_formula_structural   Cr17Ni10
_chemical_formula_sum   'Cr34 Ni20'
_cell_volume   608.44125310
_cell_formula_units_Z   2
loop_
 _symmetry_equiv_pos_site_id
 _symmetry_equiv_pos_as_xyz
  1  'x, y, z'
loop_
 _atom_site_type_symbol
 _atom_site_label
 _atom_site_symmetry_multiplicity
 _atom_site_fract_x
 _atom_site_fract_y
 _atom_site_fract_z
 _atom_site_occupancy
  Cr  Cr0  1  0.99330386  0.99401982  0.99298769  1
  Cr  Cr1  1  0.16468549  0.16240440  0.16216824  1
  Cr  Cr2  1  -0.00485790  -0.00395180  0.33068370  1
  Cr  Cr3  1  -0.00315672  0.33065393  -0.00484676  1
  Ni  Ni4  1  0.16044350  0.49576186  0.15927294  1
  Cr  Cr5  1  0.99397838  0.32871486  0.32875367  1
  Ni  Ni6  1  -0.00433086  0.65780047  -0.00433874  1
  Cr  Cr7  1  0.16294762  0.82587222  0.16237033  1
  Cr  Cr8  1  -0.00541874  0.65896521  0.32659473  1
  Cr  Cr9  1  0.33010118  -0.00433209  -0.00303796  1
  Ni  Ni10  1  0.49245235  0.15944274  0.16083628  1
  Ni  Ni11  1  0.33105611  0.99341559  0.32884136  1
  Ni  Ni12  1  0.32756614  0.33021429  0.99432481  1
  Cr  Cr13  1  0.49379582  0.49365787  0.16119137  1
  Cr  Cr14  1  0.32766909  0.32695007  0.32816876  1
  Cr  Cr15  1  0.32606221  0.65840433  0.99368129  1
  Ni  Ni16  1  0.49249206  0.82966667  0.16332033  1
  Ni  Ni17  1  0.32991962  0.66332324  0.32761095  1
  Cr  Cr18  1  0.66029661  -0.00491279  -0.00391188  1
  Cr  Cr19  1  0.82581328  0.16313958  0.16028749  1
  Cr  Cr20  1  0.65804628  0.99424648  0.32772389  1
  Cr  Cr21  1  0.65978745  0.32680740  0.99423247  1
  Ni  Ni22  1  0.83066224  0.49574753  0.16021282  1
  Cr  Cr23  1  0.66209494  0.32746959  0.32999860  1
  Cr  Cr24  1  0.66129406  0.66179446  -0.00515579  1
  Cr  Cr25  1  0.82757812  0.82522974  0.15942277  1
  Cr  Cr26  1  0.65979894  0.66195431  0.33028198  1
  Ni  Ni27  1  0.16212081  0.15799235  0.49577243  1
  Ni  Ni28  1  0.99432889  -0.00337037  0.65959633  1
  Cr  Cr29  1  0.16103234  0.16121007  0.82608920  1
  Cr  Cr30  1  0.16220372  0.49405249  0.49310056  1
  Cr  Cr31  1  0.99430197  0.32533249  0.65968088  1
  Ni  Ni32  1  0.16301077  0.49442434  0.83099642  1
  Cr  Cr33  1  0.16265130  0.83119487  0.49484999  1
  Cr  Cr34  1  0.99426874  0.66173641  0.66128028  1
  Cr  Cr35  1  0.15982396  0.82765417  0.82638649  1
  Ni  Ni36  1  0.49305735  0.15931334  0.49425174  1
  Ni  Ni37  1  0.32681382  -0.00452905  0.65798173  1
  Cr  Cr38  1  0.49456255  0.16353734  0.82914635  1
  Ni  Ni39  1  0.49616408  0.49532735  0.49424233  1
  Cr  Cr40  1  0.32818350  0.32820944  0.66190271  1
  Ni  Ni41  1  0.49167469  0.49325032  0.82873768  1
  Ni  Ni42  1  0.49386138  0.82905597  0.49321049  1
  Cr  Cr43  1  0.32993325  0.66068995  0.66210524  1
  Cr  Cr44  1  0.49394259  0.82716282  0.82699768  1
  Ni  Ni45  1  0.82853227  0.16025065  0.49613031  1
  Cr  Cr46  1  0.66230218  -0.00506470  0.65987751  1
  Ni  Ni47  1  0.82900553  0.16057328  0.82686880  1
  Ni  Ni48  1  0.82548876  0.49441764  0.49413663  1
  Cr  Cr49  1  0.66116388  0.32806099  0.65946760  1
  Cr  Cr50  1  0.82751124  0.49417764  0.82908637  1
  Ni  Ni51  1  0.82679125  0.82902263  0.49591832  1
  Cr  Cr52  1  0.65942029  0.66075627  0.65848953  1
  Cr  Cr53  1  0.82992897  0.82926253  0.82818224  1
" 