8854,Ni64Fe32Cr3_6,-240.855765035991, 217.720062728494,Ni64Fe32Cr3,"# generated using pymatgen
 data_Cr3(FeNi2)17
_symmetry_space_group_name_H-M   'P 1'
_cell_length_a   7.41829010
_cell_length_b   7.41829010
_cell_length_c   10.49104646
_cell_angle_alpha   90.00000000
_cell_angle_beta   90.00000000
_cell_angle_gamma   90.00000000
_symmetry_Int_Tables_number   1
_chemical_formula_structural   Cr3(FeNi2)17
_chemical_formula_sum   'Cr3 Fe17 Ni34'
_cell_volume   577.33307124
_cell_formula_units_Z   1
loop_
 _symmetry_equiv_pos_site_id
 _symmetry_equiv_pos_as_xyz
  1  'x, y, z'
loop_
 _atom_site_type_symbol
 _atom_site_label
 _atom_site_symmetry_multiplicity
 _atom_site_fract_x
 _atom_site_fract_y
 _atom_site_fract_z
 _atom_site_occupancy
  Ni  Ni0  1  1.00114897  0.00386503  1.00231426  1
  Ni  Ni1  1  0.17119396  0.17095239  0.16996063  1
  Fe  Fe2  1  1.00322492  0.00350070  0.33704411  1
  Ni  Ni3  1  0.00565649  0.33740867  1.00255217  1
  Ni  Ni4  1  0.17272726  0.50312492  0.16965738  1
  Cr  Cr5  1  0.00359100  0.33838306  0.33713356  1
  Ni  Ni6  1  1.00276447  0.66826477  1.00268125  1
  Cr  Cr7  1  0.16654147  0.83792177  0.16987972  1
  Ni  Ni8  1  1.00292836  0.66973948  0.33601882  1
  Fe  Fe9  1  0.33581018  0.00375090  1.00208367  1
  Ni  Ni10  1  0.50353911  0.17194228  0.16933979  1
  Ni  Ni11  1  0.33960984  0.00369776  0.33634522  1
  Fe  Fe12  1  0.33577001  0.33634503  0.00394256  1
  Ni  Ni13  1  0.50390345  0.50209820  0.17095266  1
  Ni  Ni14  1  0.33765556  0.33661553  0.33643553  1
  Fe  Fe15  1  0.33640838  0.67020712  1.00322043  1
  Fe  Fe16  1  0.50334038  0.83741569  0.16948167  1
  Ni  Ni17  1  0.33543958  0.67036713  0.33801082  1
  Ni  Ni18  1  0.66851662  1.00258309  1.00268128  1
  Ni  Ni19  1  0.83559092  0.16735873  0.16990092  1
  Ni  Ni20  1  0.66850340  1.00301646  0.33645287  1
  Fe  Fe21  1  0.67300817  0.33620490  0.00448973  1
  Fe  Fe22  1  0.83708422  0.50229011  0.16876646  1
  Ni  Ni23  1  0.66880635  0.33475160  0.33580766  1
  Ni  Ni24  1  0.67105637  0.67224524  0.00446062  1
  Ni  Ni25  1  0.83515609  0.83629943  0.17096167  1
  Fe  Fe26  1  0.66884260  0.66939163  0.33577839  1
  Ni  Ni27  1  0.17337869  0.16778643  0.50266571  1
  Fe  Fe28  1  0.00380537  0.00340661  0.67026796  1
  Ni  Ni29  1  0.17116966  0.16963476  0.83679977  1
  Fe  Fe30  1  0.16949084  0.50454534  0.50413488  1
  Fe  Fe31  1  1.00301775  0.33546330  0.67006173  1
  Ni  Ni32  1  0.16901248  0.50314754  0.83552075  1
  Ni  Ni33  1  0.16845527  0.83781427  0.50319263  1
  Ni  Ni34  1  0.00336792  0.66873009  0.67099465  1
  Ni  Ni35  1  0.16871080  0.83704279  0.83658700  1
  Ni  Ni36  1  0.50282738  0.17177813  0.50295022  1
  Ni  Ni37  1  0.33825285  0.00415019  0.67126288  1
  Ni  Ni38  1  0.50288560  0.16943906  0.83737452  1
  Fe  Fe39  1  0.50285157  0.50287144  0.50283961  1
  Ni  Ni40  1  0.33604138  0.33513082  0.66854318  1
  Cr  Cr41  1  0.50486040  0.50157577  0.83558472  1
  Fe  Fe42  1  0.50316943  0.83863194  0.50401715  1
  Fe  Fe43  1  0.33635364  0.67159732  0.66933858  1
  Ni  Ni44  1  0.50385070  0.83794531  0.83685729  1
  Fe  Fe45  1  0.83559973  0.16813675  0.50317363  1
  Ni  Ni46  1  0.66893191  0.00397626  0.67100877  1
  Fe  Fe47  1  0.83655104  0.16967478  0.83775814  1
  Ni  Ni48  1  0.83353755  0.50513121  0.50358999  1
  Ni  Ni49  1  0.67048616  0.33432125  0.66986593  1
  Ni  Ni50  1  0.83751039  0.50422978  0.83752395  1
  Ni  Ni51  1  0.83756462  0.83480094  0.50253176  1
  Fe  Fe52  1  0.67084209  0.67099818  0.67025108  1
  Ni  Ni53  1  0.83711707  0.83575852  0.83641007  1
" 