6238,Ni64Fe30Cr5_0,-239.529176052246, 212.079853857535,Ni64Fe30Cr5,"# generated using pymatgen
 data_Cr2Fe8Ni17
_symmetry_space_group_name_H-M   'P 1'
_cell_length_a   7.41875638
_cell_length_b   7.41875638
_cell_length_c   10.49170589
_cell_angle_alpha   90.00000000
_cell_angle_beta   90.00000000
_cell_angle_gamma   90.00000000
_symmetry_Int_Tables_number   1
_chemical_formula_structural   Cr2Fe8Ni17
_chemical_formula_sum   'Cr4 Fe16 Ni34'
_cell_volume   577.44194477
_cell_formula_units_Z   2
loop_
 _symmetry_equiv_pos_site_id
 _symmetry_equiv_pos_as_xyz
  1  'x, y, z'
loop_
 _atom_site_type_symbol
 _atom_site_label
 _atom_site_symmetry_multiplicity
 _atom_site_fract_x
 _atom_site_fract_y
 _atom_site_fract_z
 _atom_site_occupancy
  Ni  Ni0  1  1.00186864  0.00479280  1.00281654  1
  Ni  Ni1  1  0.17051820  0.17154858  0.16865094  1
  Cr  Cr2  1  1.00259285  0.00366575  0.33770254  1
  Ni  Ni3  1  0.00372953  0.33689365  0.00385326  1
  Fe  Fe4  1  0.17026771  0.50149102  0.17006792  1
  Fe  Fe5  1  0.00494689  0.33647355  0.33574041  1
  Ni  Ni6  1  1.00081345  0.66806992  0.00422545  1
  Cr  Cr7  1  0.17084002  0.83699673  0.16903301  1
  Fe  Fe8  1  0.00398482  0.66865336  0.33692630  1
  Ni  Ni9  1  0.33838350  0.00507953  0.00412352  1
  Ni  Ni10  1  0.50306255  0.17070731  0.16999049  1
  Ni  Ni11  1  0.33862173  0.00371778  0.33740808  1
  Fe  Fe12  1  0.33643857  0.33584550  1.00324875  1
  Ni  Ni13  1  0.50388378  0.50335041  0.17038639  1
  Ni  Ni14  1  0.33773684  0.33719049  0.33642237  1
  Fe  Fe15  1  0.33828192  0.66916029  0.00397004  1
  Ni  Ni16  1  0.50416885  0.83570602  0.16951970  1
  Ni  Ni17  1  0.33778068  0.66884980  0.33742344  1
  Ni  Ni18  1  0.66951179  1.00216745  0.00428617  1
  Ni  Ni19  1  0.83618401  0.17125755  0.16922815  1
  Fe  Fe20  1  0.66726032  0.00361451  0.33658784  1
  Fe  Fe21  1  0.67064042  0.33610013  1.00303261  1
  Fe  Fe22  1  0.83595429  0.50303745  0.16924723  1
  Ni  Ni23  1  0.66838368  0.33641635  0.33532917  1
  Ni  Ni24  1  0.67029291  0.67042288  0.00354594  1
  Ni  Ni25  1  0.83507764  0.83515547  0.16876183  1
  Fe  Fe26  1  0.66772637  0.67093958  0.33507713  1
  Ni  Ni27  1  0.17115514  0.16953283  0.50445599  1
  Ni  Ni28  1  1.00219591  0.00337833  0.66942899  1
  Ni  Ni29  1  0.16967914  0.17015943  0.83665596  1
  Fe  Fe30  1  0.17141132  0.50330947  0.50333297  1
  Ni  Ni31  1  0.00400776  0.33629127  0.67004236  1
  Fe  Fe32  1  0.16917921  0.50038058  0.83636901  1
  Ni  Ni33  1  0.17112260  0.83618856  0.50385771  1
  Ni  Ni34  1  1.00294639  0.67009033  0.66944023  1
  Cr  Cr35  1  0.16946452  0.83818293  0.83679468  1
  Ni  Ni36  1  0.50249550  0.16981014  0.50300797  1
  Ni  Ni37  1  0.33748947  0.00442435  0.66823042  1
  Ni  Ni38  1  0.50320838  0.17110988  0.83676279  1
  Fe  Fe39  1  0.50163716  0.50264117  0.50286354  1
  Ni  Ni40  1  0.33696008  0.33652822  0.66959374  1
  Ni  Ni41  1  0.50478368  0.50290799  0.83579906  1
  Ni  Ni42  1  0.50173363  0.83670696  0.50318335  1
  Fe  Fe43  1  0.33708047  0.66934984  0.66847155  1
  Fe  Fe44  1  0.50524428  0.83765233  0.83694976  1
  Ni  Ni45  1  0.83611263  0.17001232  0.50454408  1
  Ni  Ni46  1  0.67007771  0.00336683  0.66911931  1
  Ni  Ni47  1  0.83687934  0.17136986  0.83599107  1
  Cr  Cr48  1  0.83604230  0.50229156  0.50310036  1
  Ni  Ni49  1  0.66879741  0.33577690  0.67121480  1
  Ni  Ni50  1  0.83558363  0.50292646  0.83717182  1
  Ni  Ni51  1  0.83690059  0.83646959  0.50467342  1
  Fe  Fe52  1  0.66964656  0.67058918  0.67116410  1
  Fe  Fe53  1  0.83496548  0.83700105  0.83692800  1
" 