1200,Ni64Fe29Cr6_18,-238.212993548704, 207.739346182011,Ni64Fe29Cr6,"# generated using pymatgen
 data_Cr5Fe15Ni34
_symmetry_space_group_name_H-M   'P 1'
_cell_length_a   7.41885479
_cell_length_b   7.41885479
_cell_length_c   10.49184506
_cell_angle_alpha   90.00000000
_cell_angle_beta   90.00000000
_cell_angle_gamma   90.00000000
_symmetry_Int_Tables_number   1
_chemical_formula_structural   Cr5Fe15Ni34
_chemical_formula_sum   'Cr5 Fe15 Ni34'
_cell_volume   577.46492393
_cell_formula_units_Z   1
loop_
 _symmetry_equiv_pos_site_id
 _symmetry_equiv_pos_as_xyz
  1  'x, y, z'
loop_
 _atom_site_type_symbol
 _atom_site_label
 _atom_site_symmetry_multiplicity
 _atom_site_fract_x
 _atom_site_fract_y
 _atom_site_fract_z
 _atom_site_occupancy
  Cr  Cr0  1  0.00491930  0.00422744  0.00450515  1
  Ni  Ni1  1  0.17120935  0.17052035  0.17088335  1
  Fe  Fe2  1  0.00350820  0.00400242  0.33521379  1
  Fe  Fe3  1  1.00309776  0.33885620  0.00338253  1
  Fe  Fe4  1  0.16961855  0.50352513  0.17012462  1
  Ni  Ni5  1  1.00315686  0.33597708  0.33577541  1
  Ni  Ni6  1  0.00483013  0.66825596  1.00311477  1
  Ni  Ni7  1  0.17011253  0.83587359  0.17035826  1
  Ni  Ni8  1  0.00456521  0.66918286  0.33629739  1
  Fe  Fe9  1  0.33728168  1.00298044  1.00299147  1
  Ni  Ni10  1  0.50196404  0.17021824  0.17008644  1
  Fe  Fe11  1  0.33733614  0.00351472  0.33634187  1
  Ni  Ni12  1  0.33677343  0.33706209  1.00217507  1
  Fe  Fe13  1  0.50371260  0.50322514  0.16977953  1
  Ni  Ni14  1  0.33602294  0.33674147  0.33771785  1
  Ni  Ni15  1  0.33625563  0.66944262  1.00296354  1
  Ni  Ni16  1  0.50302456  0.83620944  0.17111620  1
  Ni  Ni17  1  0.33622136  0.67002177  0.33669706  1
  Cr  Cr18  1  0.66838684  0.00454694  0.00338786  1
  Ni  Ni19  1  0.83657515  0.17132897  0.17232509  1
  Ni  Ni20  1  0.66973065  0.00439023  0.33611887  1
  Ni  Ni21  1  0.66954934  0.33766553  1.00298725  1
  Ni  Ni22  1  0.83691818  0.50441756  0.16936704  1
  Ni  Ni23  1  0.67056328  0.33546273  0.33670055  1
  Ni  Ni24  1  0.66866103  0.66742550  0.00442300  1
  Ni  Ni25  1  0.83661302  0.83400305  0.17179657  1
  Ni  Ni26  1  0.66896140  0.66989429  0.33503856  1
  Fe  Fe27  1  0.17086178  0.17032296  0.50263162  1
  Ni  Ni28  1  0.00555226  0.00424170  0.66972389  1
  Ni  Ni29  1  0.17179369  0.17078200  0.83646636  1
  Ni  Ni30  1  0.17085158  0.50395895  0.50188869  1
  Cr  Cr31  1  1.00204628  0.33557377  0.67068568  1
  Ni  Ni32  1  0.17119460  0.50347440  0.83771506  1
  Fe  Fe33  1  0.17197300  0.83543079  0.50324044  1
  Fe  Fe34  1  0.00496794  0.66981108  0.66958111  1
  Fe  Fe35  1  0.17316500  0.83622647  0.83587540  1
  Ni  Ni36  1  0.50257246  0.17078704  0.50385195  1
  Ni  Ni37  1  0.33561661  1.00184140  0.67099805  1
  Ni  Ni38  1  0.50190877  0.17088994  0.83580781  1
  Ni  Ni39  1  0.50258235  0.50206610  0.50320015  1
  Fe  Fe40  1  0.33860132  0.33670537  0.67013372  1
  Ni  Ni41  1  0.50226083  0.50312029  0.83636049  1
  Fe  Fe42  1  0.50174451  0.83513164  0.50338982  1
  Ni  Ni43  1  0.33745643  0.67141744  0.67008002  1
  Ni  Ni44  1  0.50181321  0.83573382  0.83516493  1
  Fe  Fe45  1  0.83521576  0.17223879  0.50248865  1
  Fe  Fe46  1  0.66778147  0.00484012  0.67009916  1
  Ni  Ni47  1  0.83604207  0.17122727  0.83511542  1
  Ni  Ni48  1  0.83631083  0.50387207  0.50330260  1
  Ni  Ni49  1  0.66936340  0.33670876  0.67005761  1
  Fe  Fe50  1  0.83462518  0.50177460  0.83757129  1
  Cr  Cr51  1  0.83661043  0.83553479  0.50267896  1
  Ni  Ni52  1  0.66695634  0.66788299  0.67028268  1
  Cr  Cr53  1  0.83595452  0.83482545  0.83533113  1
" 