1553,Ni64Fe34Cr1_14,-240.546413632519, 217.635663983595,Ni64Fe34Cr1,"# generated using pymatgen
 data_CrFe9Ni17
_symmetry_space_group_name_H-M   'P 1'
_cell_length_a   7.40696470
_cell_length_b   7.40696470
_cell_length_c   10.47502993
_cell_angle_alpha   90.00000000
_cell_angle_beta   90.00000000
_cell_angle_gamma   90.00000000
_symmetry_Int_Tables_number   1
_chemical_formula_structural   CrFe9Ni17
_chemical_formula_sum   'Cr2 Fe18 Ni34'
_cell_volume   574.69288688
_cell_formula_units_Z   2
loop_
 _symmetry_equiv_pos_site_id
 _symmetry_equiv_pos_as_xyz
  1  'x, y, z'
loop_
 _atom_site_type_symbol
 _atom_site_label
 _atom_site_symmetry_multiplicity
 _atom_site_fract_x
 _atom_site_fract_y
 _atom_site_fract_z
 _atom_site_occupancy
  Ni  Ni0  1  0.00435144  0.00453019  0.00429921  1
  Ni  Ni1  1  0.17028740  0.17101505  0.17085158  1
  Ni  Ni2  1  0.00416644  1.00392102  0.33704466  1
  Ni  Ni3  1  1.00252336  0.33579788  0.00497910  1
  Ni  Ni4  1  0.16933385  0.50578626  0.17150540  1
  Fe  Fe5  1  1.00394188  0.33832993  0.33718388  1
  Ni  Ni6  1  0.00413391  0.67127052  1.00241131  1
  Ni  Ni7  1  0.16967760  0.83630738  0.17040664  1
  Ni  Ni8  1  0.00571323  0.67279092  0.33858456  1
  Ni  Ni9  1  0.33437625  1.00118697  0.00448411  1
  Cr  Cr10  1  0.50353172  0.17067481  0.16859559  1
  Fe  Fe11  1  0.33671405  1.00366758  0.33797619  1
  Fe  Fe12  1  0.33408836  0.34050856  1.00386168  1
  Fe  Fe13  1  0.50418181  0.50496125  0.17014678  1
  Ni  Ni14  1  0.33801991  0.33925541  0.33799453  1
  Ni  Ni15  1  0.33778505  0.67207776  1.00377084  1
  Fe  Fe16  1  0.50394289  0.83562765  0.17172663  1
  Ni  Ni17  1  0.33684542  0.67072937  0.33751392  1
  Fe  Fe18  1  0.67380402  1.00087193  0.00461034  1
  Ni  Ni19  1  0.83744528  0.17091606  0.17129384  1
  Ni  Ni20  1  0.67274086  0.00469251  0.33804646  1
  Ni  Ni21  1  0.67351019  0.33884014  1.00295570  1
  Ni  Ni22  1  0.83787220  0.50560763  0.16987123  1
  Ni  Ni23  1  0.67066537  0.33719666  0.33932791  1
  Ni  Ni24  1  0.66990770  0.66969336  0.00454737  1
  Ni  Ni25  1  0.83827564  0.83547544  0.17207304  1
  Fe  Fe26  1  0.67159439  0.67029617  0.33807231  1
  Ni  Ni27  1  0.17283342  0.17032842  0.50303171  1
  Fe  Fe28  1  0.00491914  0.00409902  0.67103028  1
  Ni  Ni29  1  0.16973169  0.17195484  0.83847147  1
  Fe  Fe30  1  0.17174934  0.50423692  0.50437068  1
  Ni  Ni31  1  0.00407002  0.33448357  0.66977086  1
  Ni  Ni32  1  0.17050736  0.50444260  0.83640478  1
  Ni  Ni33  1  0.17138312  0.83748114  0.50509810  1
  Fe  Fe34  1  1.00374690  0.66802480  0.67037551  1
  Fe  Fe35  1  0.17030033  0.83782784  0.83736242  1
  Ni  Ni36  1  0.50343667  0.17061587  0.50488765  1
  Fe  Fe37  1  0.33689215  0.00493678  0.67008621  1
  Cr  Cr38  1  0.50366113  0.17183090  0.83834174  1
  Fe  Fe39  1  0.50293551  0.50424844  0.50532514  1
  Ni  Ni40  1  0.33651022  0.33872843  0.67069268  1
  Ni  Ni41  1  0.50360364  0.50542232  0.83699162  1
  Ni  Ni42  1  0.50363929  0.83853604  0.50365922  1
  Ni  Ni43  1  0.33796862  0.67205934  0.67130898  1
  Fe  Fe44  1  0.50404414  0.83607924  0.83698108  1
  Fe  Fe45  1  0.83785285  0.17031107  0.50370276  1
  Fe  Fe46  1  0.67090107  1.00372915  0.66912073  1
  Ni  Ni47  1  0.83818649  0.16839719  0.83712930  1
  Ni  Ni48  1  0.83746215  0.50498806  0.50480635  1
  Ni  Ni49  1  0.67167140  0.33775343  0.66969283  1
  Fe  Fe50  1  0.83747815  0.50203548  0.83654025  1
  Fe  Fe51  1  0.83787626  0.83834295  0.50398521  1
  Ni  Ni52  1  0.66910519  0.67080010  0.66974253  1
  Ni  Ni53  1  0.83711884  0.83529297  0.83597038  1
" 