3826,Ni64Fe29Cr6_4,-238.654525043982, 209.985464178572,Ni64Fe29Cr6,"# generated using pymatgen
 data_Cr5Fe15Ni34
_symmetry_space_group_name_H-M   'P 1'
_cell_length_a   7.42606041
_cell_length_b   7.42606041
_cell_length_c   10.50203535
_cell_angle_alpha   90.00000000
_cell_angle_beta   90.00000000
_cell_angle_gamma   90.00000000
_symmetry_Int_Tables_number   1
_chemical_formula_structural   Cr5Fe15Ni34
_chemical_formula_sum   'Cr5 Fe15 Ni34'
_cell_volume   579.14916109
_cell_formula_units_Z   1
loop_
 _symmetry_equiv_pos_site_id
 _symmetry_equiv_pos_as_xyz
  1  'x, y, z'
loop_
 _atom_site_type_symbol
 _atom_site_label
 _atom_site_symmetry_multiplicity
 _atom_site_fract_x
 _atom_site_fract_y
 _atom_site_fract_z
 _atom_site_occupancy
  Fe  Fe0  1  1.00259322  1.00162532  0.00319865  1
  Ni  Ni1  1  0.16924711  0.16929064  0.16999304  1
  Ni  Ni2  1  1.00257688  0.00422050  0.33551788  1
  Ni  Ni3  1  1.00275190  0.33639921  0.00298281  1
  Ni  Ni4  1  0.16981037  0.50315473  0.17024131  1
  Ni  Ni5  1  0.00340199  0.33503917  0.33632764  1
  Ni  Ni6  1  1.00263718  0.66785236  1.00190307  1
  Ni  Ni7  1  0.16955792  0.83583062  0.17093065  1
  Ni  Ni8  1  0.00507605  0.66902025  0.33673474  1
  Ni  Ni9  1  0.33662256  1.00212947  0.00279222  1
  Fe  Fe10  1  0.50307267  0.16907129  0.16946135  1
  Fe  Fe11  1  0.33455400  1.00244400  0.33510316  1
  Fe  Fe12  1  0.33605848  0.33696691  0.00314557  1
  Ni  Ni13  1  0.50190483  0.50235187  0.16981632  1
  Ni  Ni14  1  0.33414958  0.33745709  0.33544252  1
  Ni  Ni15  1  0.33650903  0.66998302  0.00281732  1
  Ni  Ni16  1  0.50223286  0.83671347  0.16899870  1
  Ni  Ni17  1  0.33467773  0.66881433  0.33589102  1
  Ni  Ni18  1  0.66889609  1.00201160  1.00198129  1
  Ni  Ni19  1  0.83568175  0.16896240  0.17098751  1
  Ni  Ni20  1  0.67093784  0.00368952  0.33583540  1
  Fe  Fe21  1  0.66962812  0.33689620  1.00227303  1
  Ni  Ni22  1  0.83656274  0.50204257  0.16910911  1
  Ni  Ni23  1  0.67072943  0.33494943  0.33511155  1
  Ni  Ni24  1  0.66913381  0.66997710  1.00275201  1
  Ni  Ni25  1  0.83648781  0.83727083  0.16898356  1
  Cr  Cr26  1  0.66822801  0.66952600  0.33487333  1
  Ni  Ni27  1  0.17003699  0.16983485  0.50173340  1
  Cr  Cr28  1  0.00312145  0.00344446  0.67089503  1
  Fe  Fe29  1  0.17065132  0.16966531  0.83762500  1
  Ni  Ni30  1  0.16985723  0.50412437  0.50201252  1
  Cr  Cr31  1  1.00248030  0.33656494  0.66939156  1
  Ni  Ni32  1  0.17045953  0.50499553  0.83602686  1
  Fe  Fe33  1  0.17059448  0.83523260  0.50207104  1
  Fe  Fe34  1  0.00433141  0.66977728  0.67004187  1
  Ni  Ni35  1  0.16948616  0.83438094  0.83556863  1
  Cr  Cr36  1  0.50330776  0.16939202  0.50236915  1
  Ni  Ni37  1  0.33688095  1.00114253  0.67007775  1
  Ni  Ni38  1  0.50391757  0.16961898  0.83516233  1
  Fe  Fe39  1  0.50010782  0.50203927  0.50260191  1
  Fe  Fe40  1  0.33761125  0.33651489  0.66973325  1
  Ni  Ni41  1  0.50173562  0.50073561  0.83528474  1
  Fe  Fe42  1  0.50010918  0.83640408  0.50265959  1
  Ni  Ni43  1  0.33561429  0.66988849  0.66957214  1
  Fe  Fe44  1  0.50221072  0.83673213  0.83728767  1
  Fe  Fe45  1  0.83645496  0.16988905  0.50092505  1
  Ni  Ni46  1  0.66812672  0.00364799  0.67045701  1
  Ni  Ni47  1  0.83254689  0.16865281  0.83605393  1
  Fe  Fe48  1  0.83762651  0.50087628  0.50171295  1
  Ni  Ni49  1  0.66946564  0.33548812  0.67063485  1
  Ni  Ni50  1  0.83608673  0.50305982  0.83690714  1
  Fe  Fe51  1  0.83757337  0.83751689  0.50166053  1
  Cr  Cr52  1  0.66810216  0.66914682  0.67015628  1
  Ni  Ni53  1  0.83680611  0.83656709  0.83719616  1
" 