4692,Ni64Cr36_12,-213.857155197354, 139.005209886272,Ni64Cr36,"# generated using pymatgen
 data_Cr17Ni10
_symmetry_space_group_name_H-M   'P 1'
_cell_length_a   7.54754536
_cell_length_b   7.54754536
_cell_length_c   10.67384101
_cell_angle_alpha   90.00000000
_cell_angle_beta   90.00000000
_cell_angle_gamma   90.00000000
_symmetry_Int_Tables_number   1
_chemical_formula_structural   Cr17Ni10
_chemical_formula_sum   'Cr34 Ni20'
_cell_volume   608.04006031
_cell_formula_units_Z   2
loop_
 _symmetry_equiv_pos_site_id
 _symmetry_equiv_pos_as_xyz
  1  'x, y, z'
loop_
 _atom_site_type_symbol
 _atom_site_label
 _atom_site_symmetry_multiplicity
 _atom_site_fract_x
 _atom_site_fract_y
 _atom_site_fract_z
 _atom_site_occupancy
  Cr  Cr0  1  0.99316445  0.99283482  -0.00358401  1
  Ni  Ni1  1  0.16185596  0.15800628  0.16174909  1
  Cr  Cr2  1  -0.00493484  -0.00490606  0.32808014  1
  Cr  Cr3  1  -0.00309271  0.32763691  -0.00281782  1
  Cr  Cr4  1  0.16201985  0.49684131  0.16248202  1
  Cr  Cr5  1  -0.00424910  0.32450574  0.32650252  1
  Cr  Cr6  1  0.99433597  0.66319332  0.99326638  1
  Cr  Cr7  1  0.16583540  0.82921926  0.16143948  1
  Cr  Cr8  1  0.99196891  0.66517415  0.32641052  1
  Ni  Ni9  1  0.32847330  0.99324256  -0.00369453  1
  Cr  Cr10  1  0.49480856  0.15744173  0.15968291  1
  Ni  Ni11  1  0.32856830  0.99263306  0.32771190  1
  Cr  Cr12  1  0.32666963  0.32815852  0.99296396  1
  Cr  Cr13  1  0.49539970  0.49788873  0.16411291  1
  Cr  Cr14  1  0.32711891  0.32484272  0.32786931  1
  Cr  Cr15  1  0.32788558  0.66078728  0.99183794  1
  Ni  Ni16  1  0.49564716  0.82944184  0.16252823  1
  Ni  Ni17  1  0.33236132  0.66527751  0.32841314  1
  Ni  Ni18  1  0.66175767  0.99217010  -0.00347676  1
  Ni  Ni19  1  0.82735957  0.15905100  0.16128017  1
  Cr  Cr20  1  0.66180384  0.99231965  0.32832054  1
  Cr  Cr21  1  0.66022168  0.32729903  -0.00530061  1
  Cr  Cr22  1  0.82620074  0.49460356  0.16419525  1
  Ni  Ni23  1  0.66177012  0.32803174  0.32678120  1
  Cr  Cr24  1  0.66194836  0.66459262  0.99434860  1
  Ni  Ni25  1  0.82419673  0.83020675  0.16125798  1
  Ni  Ni26  1  0.65920591  0.66453591  0.32809091  1
  Ni  Ni27  1  0.16016599  0.15958920  0.49539799  1
  Ni  Ni28  1  -0.00498507  0.99401709  0.66112404  1
  Cr  Cr29  1  0.16042517  0.15800066  0.82714749  1
  Cr  Cr30  1  0.16092762  0.49629678  0.49497025  1
  Ni  Ni31  1  -0.00241946  0.32649444  0.66131631  1
  Ni  Ni32  1  0.16256747  0.49665439  0.82561067  1
  Cr  Cr33  1  0.16349544  0.82872986  0.49478488  1
  Cr  Cr34  1  -0.00516637  0.66413251  0.66377010  1
  Ni  Ni35  1  0.16081300  0.82714414  0.82705494  1
  Cr  Cr36  1  0.49396925  0.15906167  0.49360347  1
  Cr  Cr37  1  0.32737439  0.99325134  0.65904385  1
  Cr  Cr38  1  0.49571405  0.15948842  0.83057351  1
  Cr  Cr39  1  0.49486822  0.49766078  0.49236626  1
  Cr  Cr40  1  0.32688610  0.33023605  0.66285877  1
  Ni  Ni41  1  0.49186541  0.49683283  0.82659736  1
  Ni  Ni42  1  0.49408084  0.82589210  0.49209233  1
  Ni  Ni43  1  0.32793026  0.66181357  0.66316363  1
  Cr  Cr44  1  0.49268076  0.82987392  0.82932398  1
  Cr  Cr45  1  0.82978936  0.16220407  0.49747587  1
  Cr  Cr46  1  0.66348985  0.99095120  0.66045231  1
  Cr  Cr47  1  0.82796359  0.15927980  0.82703954  1
  Cr  Cr48  1  0.82739600  0.49465902  0.49248340  1
  Cr  Cr49  1  0.65908106  0.32898449  0.66211481  1
  Cr  Cr50  1  0.82898539  0.49375468  0.82708705  1
  Ni  Ni51  1  0.82673191  0.82810035  0.49497834  1
  Cr  Cr52  1  0.65923706  0.66372248  0.66106869  1
  Ni  Ni53  1  0.82986536  0.83017775  0.82808245  1
" 