319,Ni64Fe29Cr6_5,-238.849872534117, 208.02834205335,Ni64Fe29Cr6,"# generated using pymatgen
 data_Cr5Fe15Ni34
_symmetry_space_group_name_H-M   'P 1'
_cell_length_a   7.42896197
_cell_length_b   7.42896197
_cell_length_c   10.50613877
_cell_angle_alpha   90.00000000
_cell_angle_beta   90.00000000
_cell_angle_gamma   90.00000000
_symmetry_Int_Tables_number   1
_chemical_formula_structural   Cr5Fe15Ni34
_chemical_formula_sum   'Cr5 Fe15 Ni34'
_cell_volume   579.82829242
_cell_formula_units_Z   1
loop_
 _symmetry_equiv_pos_site_id
 _symmetry_equiv_pos_as_xyz
  1  'x, y, z'
loop_
 _atom_site_type_symbol
 _atom_site_label
 _atom_site_symmetry_multiplicity
 _atom_site_fract_x
 _atom_site_fract_y
 _atom_site_fract_z
 _atom_site_occupancy
  Fe  Fe0  1  0.00302090  0.00259326  1.00174361  1
  Ni  Ni1  1  0.16924399  0.16795718  0.16872764  1
  Fe  Fe2  1  1.00212165  0.00364376  0.33661051  1
  Fe  Fe3  1  0.00367020  0.33463027  1.00144880  1
  Ni  Ni4  1  0.16738389  0.50270120  0.16791661  1
  Ni  Ni5  1  0.00279929  0.33596319  0.33611469  1
  Fe  Fe6  1  0.00391501  0.67063532  1.00169052  1
  Ni  Ni7  1  0.16836254  0.83723851  0.16955213  1
  Fe  Fe8  1  0.00320440  0.67029672  0.33690627  1
  Ni  Ni9  1  0.33609184  1.00249698  0.00300431  1
  Ni  Ni10  1  0.50193478  0.16682308  0.16785168  1
  Ni  Ni11  1  0.33589632  1.00140965  0.33552962  1
  Ni  Ni12  1  0.33437366  0.33493748  1.00188356  1
  Cr  Cr13  1  0.50236543  0.50128816  0.16935691  1
  Cr  Cr14  1  0.33418202  0.33369081  0.33596370  1
  Ni  Ni15  1  0.33365105  0.67028489  0.00286579  1
  Ni  Ni16  1  0.50234101  0.83887165  0.17032795  1
  Fe  Fe17  1  0.33597802  0.66996898  0.33628433  1
  Ni  Ni18  1  0.66914366  0.00379225  0.00314429  1
  Fe  Fe19  1  0.83585651  0.16777420  0.16966765  1
  Ni  Ni20  1  0.66847217  1.00192836  0.33513307  1
  Ni  Ni21  1  0.66968198  0.33284014  1.00136064  1
  Cr  Cr22  1  0.83663952  0.50344578  0.17036366  1
  Ni  Ni23  1  0.67117878  0.33419414  0.33749426  1
  Cr  Cr24  1  0.66822027  0.67208029  1.00074064  1
  Ni  Ni25  1  0.83702569  0.83748877  0.16956466  1
  Ni  Ni26  1  0.66995484  0.67151633  0.33766980  1
  Ni  Ni27  1  0.16940618  0.16799803  0.50349414  1
  Ni  Ni28  1  1.00254345  0.00451614  0.66887887  1
  Ni  Ni29  1  0.16996541  0.16860111  0.83515297  1
  Ni  Ni30  1  0.16880657  0.50112075  0.50281120  1
  Ni  Ni31  1  0.00285196  0.33492387  0.66928481  1
  Fe  Fe32  1  0.17114683  0.50189084  0.83626439  1
  Fe  Fe33  1  0.17051720  0.83623931  0.50232784  1
  Cr  Cr34  1  1.00224647  0.66851714  0.66985933  1
  Fe  Fe35  1  0.17155594  0.83717031  0.83624916  1
  Ni  Ni36  1  0.50169666  0.16806538  0.50350336  1
  Ni  Ni37  1  0.33599384  1.00241599  0.66932400  1
  Ni  Ni38  1  0.50032214  0.16867751  0.83631382  1
  Ni  Ni39  1  0.50400362  0.50240860  0.50364207  1
  Fe  Fe40  1  0.33569948  0.33529937  0.66913712  1
  Ni  Ni41  1  0.50275886  0.50154342  0.83486597  1
  Fe  Fe42  1  0.50259768  0.83601614  0.50292585  1
  Ni  Ni43  1  0.33768100  0.66909700  0.66884655  1
  Ni  Ni44  1  0.50288298  0.83730643  0.83477661  1
  Fe  Fe45  1  0.83559904  0.17029020  0.50267604  1
  Ni  Ni46  1  0.66912467  1.00183756  0.66947202  1
  Fe  Fe47  1  0.83429750  0.16883005  0.83529919  1
  Ni  Ni48  1  0.83520728  0.50383216  0.50205711  1
  Fe  Fe49  1  0.66912553  0.33579629  0.66931593  1
  Ni  Ni50  1  0.83573029  0.50243323  0.83546072  1
  Ni  Ni51  1  0.83530614  0.83644911  0.50237849  1
  Ni  Ni52  1  0.66827934  0.66976307  0.66938138  1
  Ni  Ni53  1  0.83636391  0.83688903  0.83580314  1
" 