4980,Ni64Fe30Cr5_18,-239.40247245548, 210.670068583472,Ni64Fe30Cr5,"# generated using pymatgen
 data_Cr2Fe8Ni17
_symmetry_space_group_name_H-M   'P 1'
_cell_length_a   7.41908857
_cell_length_b   7.41908857
_cell_length_c   10.49217567
_cell_angle_alpha   90.00000000
_cell_angle_beta   90.00000000
_cell_angle_gamma   90.00000000
_symmetry_Int_Tables_number   1
_chemical_formula_structural   Cr2Fe8Ni17
_chemical_formula_sum   'Cr4 Fe16 Ni34'
_cell_volume   577.51951608
_cell_formula_units_Z   2
loop_
 _symmetry_equiv_pos_site_id
 _symmetry_equiv_pos_as_xyz
  1  'x, y, z'
loop_
 _atom_site_type_symbol
 _atom_site_label
 _atom_site_symmetry_multiplicity
 _atom_site_fract_x
 _atom_site_fract_y
 _atom_site_fract_z
 _atom_site_occupancy
  Ni  Ni0  1  1.00283283  1.00205376  0.00483078  1
  Ni  Ni1  1  0.16883405  0.16970265  0.16965011  1
  Fe  Fe2  1  1.00157468  0.00421549  0.33559908  1
  Fe  Fe3  1  0.00365736  0.33695951  1.00295297  1
  Fe  Fe4  1  0.17028911  0.50303335  0.16896727  1
  Fe  Fe5  1  1.00303824  0.33489951  0.33707460  1
  Ni  Ni6  1  0.00412242  0.67116768  1.00263196  1
  Ni  Ni7  1  0.16958147  0.83759369  0.16840955  1
  Cr  Cr8  1  0.00382185  0.67013811  0.33702967  1
  Fe  Fe9  1  0.33559888  0.00334942  1.00293919  1
  Fe  Fe10  1  0.50467380  0.17091920  0.16898655  1
  Cr  Cr11  1  0.33729447  1.00272472  0.33686073  1
  Ni  Ni12  1  0.33705052  0.33622785  0.00491767  1
  Ni  Ni13  1  0.50319464  0.50338250  0.17069991  1
  Fe  Fe14  1  0.33697924  0.33818683  0.33671632  1
  Ni  Ni15  1  0.33454400  0.67017192  0.00487762  1
  Fe  Fe16  1  0.50408060  0.83557477  0.16965796  1
  Ni  Ni17  1  0.33721732  0.66826320  0.33630137  1
  Fe  Fe18  1  0.67002920  1.00301415  1.00305758  1
  Ni  Ni19  1  0.83757905  0.16938436  0.17004111  1
  Ni  Ni20  1  0.67161265  0.00444485  0.33628745  1
  Ni  Ni21  1  0.66978454  0.33493319  0.00419749  1
  Ni  Ni22  1  0.83461964  0.50263303  0.16920331  1
  Fe  Fe23  1  0.66967861  0.33678918  0.33654732  1
  Fe  Fe24  1  0.67107509  0.67002524  0.00367418  1
  Ni  Ni25  1  0.83660002  0.83767894  0.16954480  1
  Fe  Fe26  1  0.66809944  0.67034286  0.33709064  1
  Fe  Fe27  1  0.16981693  0.17221939  0.50345810  1
  Cr  Cr28  1  1.00217226  1.00240906  0.66862788  1
  Ni  Ni29  1  0.17125966  0.17049599  0.83698521  1
  Ni  Ni30  1  0.17116285  0.50237343  0.50392745  1
  Ni  Ni31  1  1.00319114  0.33851938  0.67051762  1
  Ni  Ni32  1  0.16798496  0.50284986  0.83714211  1
  Fe  Fe33  1  0.17084734  0.83471149  0.50383701  1
  Ni  Ni34  1  0.00371765  0.66839254  0.67035881  1
  Ni  Ni35  1  0.17022522  0.83635235  0.83694640  1
  Ni  Ni36  1  0.50397096  0.17047553  0.50415226  1
  Fe  Fe37  1  0.33884394  0.00334708  0.67022709  1
  Ni  Ni38  1  0.50227237  0.16822846  0.83652780  1
  Ni  Ni39  1  0.50241678  0.50340729  0.50323488  1
  Ni  Ni40  1  0.33647323  0.33646099  0.66847716  1
  Cr  Cr41  1  0.50343059  0.50302208  0.83487685  1
  Ni  Ni42  1  0.50422408  0.83581694  0.50409154  1
  Ni  Ni43  1  0.33543024  0.66993710  0.66851679  1
  Ni  Ni44  1  0.50325367  0.83867257  0.83656456  1
  Ni  Ni45  1  0.83582374  0.16999329  0.50228696  1
  Ni  Ni46  1  0.66848808  0.00382546  0.67013538  1
  Fe  Fe47  1  0.83587507  0.17041501  0.83709386  1
  Ni  Ni48  1  0.83611554  0.50262852  0.50445742  1
  Ni  Ni49  1  0.67003334  0.33511354  0.66857982  1
  Ni  Ni50  1  0.83848544  0.50383125  0.83603690  1
  Ni  Ni51  1  0.83478926  0.83707647  0.50278526  1
  Ni  Ni52  1  0.67055057  0.67075833  0.66857929  1
  Ni  Ni53  1  0.83621683  0.83539208  0.83736388  1
" 