990,Ni64Fe32Cr3_19,-240.012464161608, 214.387523063305,Ni64Fe32Cr3,"# generated using pymatgen
 data_Cr3(FeNi2)17
_symmetry_space_group_name_H-M   'P 1'
_cell_length_a   7.41460142
_cell_length_b   7.41460142
_cell_length_c   10.48582988
_cell_angle_alpha   90.00000000
_cell_angle_beta   90.00000000
_cell_angle_gamma   90.00000000
_symmetry_Int_Tables_number   1
_chemical_formula_structural   Cr3(FeNi2)17
_chemical_formula_sum   'Cr3 Fe17 Ni34'
_cell_volume   576.47227824
_cell_formula_units_Z   1
loop_
 _symmetry_equiv_pos_site_id
 _symmetry_equiv_pos_as_xyz
  1  'x, y, z'
loop_
 _atom_site_type_symbol
 _atom_site_label
 _atom_site_symmetry_multiplicity
 _atom_site_fract_x
 _atom_site_fract_y
 _atom_site_fract_z
 _atom_site_occupancy
  Ni  Ni0  1  1.00253061  1.00347121  0.00379712  1
  Ni  Ni1  1  0.16937342  0.17050400  0.16983742  1
  Ni  Ni2  1  1.00313456  0.00358677  0.33727923  1
  Ni  Ni3  1  1.00098368  0.33601445  0.00459295  1
  Ni  Ni4  1  0.16993783  0.50237515  0.17065217  1
  Ni  Ni5  1  0.00470034  0.33650858  0.33846970  1
  Fe  Fe6  1  1.00061357  0.67085854  0.00616947  1
  Ni  Ni7  1  0.16709878  0.83862704  0.17024200  1
  Ni  Ni8  1  1.00109354  0.66995777  0.33653424  1
  Ni  Ni9  1  0.33681601  0.00456893  1.00277793  1
  Ni  Ni10  1  0.50496819  0.17061554  0.16856408  1
  Ni  Ni11  1  0.33730659  0.00548597  0.33595504  1
  Ni  Ni12  1  0.33822852  0.33593361  0.00403527  1
  Ni  Ni13  1  0.50414058  0.50213704  0.17219008  1
  Ni  Ni14  1  0.33721674  0.33646152  0.33655853  1
  Cr  Cr15  1  0.33877578  0.67178436  0.00583841  1
  Fe  Fe16  1  0.50289933  0.84033110  0.17161201  1
  Fe  Fe17  1  0.33520476  0.67144926  0.33551518  1
  Ni  Ni18  1  0.67086666  1.00306483  1.00297552  1
  Ni  Ni19  1  0.83663941  0.16762802  0.17051623  1
  Ni  Ni20  1  0.67013133  1.00131618  0.33786932  1
  Ni  Ni21  1  0.67064634  0.33841945  1.00346335  1
  Fe  Fe22  1  0.83761566  0.50000344  0.17213636  1
  Fe  Fe23  1  0.67134983  0.33415484  0.33778818  1
  Fe  Fe24  1  0.67191124  0.67026609  0.00462604  1
  Fe  Fe25  1  0.83614952  0.83790638  0.17123260  1
  Ni  Ni26  1  0.67005982  0.66969711  0.33627379  1
  Fe  Fe27  1  0.17040889  0.16906860  0.50323807  1
  Ni  Ni28  1  0.00418893  1.00238709  0.66985546  1
  Ni  Ni29  1  0.16720534  0.16852592  0.83887097  1
  Ni  Ni30  1  0.16990017  0.50458938  0.50207323  1
  Ni  Ni31  1  1.00106532  0.33585213  0.66884742  1
  Cr  Cr32  1  0.16865627  0.50084603  0.83837809  1
  Fe  Fe33  1  0.17041331  0.83740989  0.50158686  1
  Fe  Fe34  1  1.00288266  0.67093690  0.66801828  1
  Fe  Fe35  1  0.17027687  0.83819721  0.83756488  1
  Ni  Ni36  1  0.50553473  0.16860999  0.50324040  1
  Ni  Ni37  1  0.33653014  0.99980087  0.67163434  1
  Fe  Fe38  1  0.50441232  0.16953502  0.83776817  1
  Ni  Ni39  1  0.50297980  0.50493157  0.50169161  1
  Cr  Cr40  1  0.33872419  0.33392835  0.66976010  1
  Ni  Ni41  1  0.50572238  0.50530452  0.83642693  1
  Ni  Ni42  1  0.50381962  0.83741606  0.50294826  1
  Fe  Fe43  1  0.33756606  0.67054458  0.66972063  1
  Ni  Ni44  1  0.50742746  0.83742733  0.83620357  1
  Ni  Ni45  1  0.83740189  0.16880668  0.50402237  1
  Fe  Fe46  1  0.67092088  0.00598554  0.66955235  1
  Fe  Fe47  1  0.83619971  0.17088755  0.83675286  1
  Ni  Ni48  1  0.83747107  0.50383210  0.50321668  1
  Ni  Ni49  1  0.67177422  0.34033399  0.66864860  1
  Fe  Fe50  1  0.83495451  0.50420323  0.83567966  1
  Ni  Ni51  1  0.83652061  0.83815558  0.50257938  1
  Fe  Fe52  1  0.67082893  0.67206747  0.66822044  1
  Ni  Ni53  1  0.83680194  0.83827014  0.83697902  1
" 