8442,Ni64Fe32Cr3_9,-240.360878513724, 214.806486368794,Ni64Fe32Cr3,"# generated using pymatgen
 data_Cr3(FeNi2)17
_symmetry_space_group_name_H-M   'P 1'
_cell_length_a   7.41637602
_cell_length_b   7.41637602
_cell_length_c   10.48833955
_cell_angle_alpha   90.00000000
_cell_angle_beta   90.00000000
_cell_angle_gamma   90.00000000
_symmetry_Int_Tables_number   1
_chemical_formula_structural   Cr3(FeNi2)17
_chemical_formula_sum   'Cr3 Fe17 Ni34'
_cell_volume   576.88629447
_cell_formula_units_Z   1
loop_
 _symmetry_equiv_pos_site_id
 _symmetry_equiv_pos_as_xyz
  1  'x, y, z'
loop_
 _atom_site_type_symbol
 _atom_site_label
 _atom_site_symmetry_multiplicity
 _atom_site_fract_x
 _atom_site_fract_y
 _atom_site_fract_z
 _atom_site_occupancy
  Fe  Fe0  1  1.00270188  1.00303389  1.00333437  1
  Fe  Fe1  1  0.16979890  0.17020835  0.17063543  1
  Ni  Ni2  1  1.00304416  1.00328604  0.33589069  1
  Ni  Ni3  1  1.00282237  0.33749811  1.00311905  1
  Ni  Ni4  1  0.17042576  0.50343405  0.17018817  1
  Ni  Ni5  1  0.00480935  0.33799390  0.33712794  1
  Fe  Fe6  1  1.00264160  0.67009516  0.00401509  1
  Ni  Ni7  1  0.17044791  0.83690393  0.16980628  1
  Ni  Ni8  1  1.00299222  0.66897044  0.33584373  1
  Ni  Ni9  1  0.33748455  1.00207741  0.00353981  1
  Fe  Fe10  1  0.50385016  0.17002586  0.17058179  1
  Fe  Fe11  1  0.33744549  0.00430534  0.33613473  1
  Fe  Fe12  1  0.33780132  0.33730021  0.00398564  1
  Ni  Ni13  1  0.50318199  0.50324038  0.17025680  1
  Ni  Ni14  1  0.33603675  0.33742050  0.33703849  1
  Ni  Ni15  1  0.33701301  0.67086308  1.00276220  1
  Ni  Ni16  1  0.50296280  0.83690002  0.17050210  1
  Ni  Ni17  1  0.33712662  0.66881581  0.33657189  1
  Ni  Ni18  1  0.66922359  1.00307656  1.00297304  1
  Fe  Fe19  1  0.83660005  0.17029258  0.16985705  1
  Ni  Ni20  1  0.66955730  1.00219508  0.33627198  1
  Ni  Ni21  1  0.67122154  0.33702584  1.00306572  1
  Ni  Ni22  1  0.83664157  0.50297947  0.17014560  1
  Ni  Ni23  1  0.66940252  0.33747364  0.33620641  1
  Ni  Ni24  1  0.66941192  0.67014565  1.00293683  1
  Ni  Ni25  1  0.83683605  0.83713959  0.17024792  1
  Ni  Ni26  1  0.67013164  0.67058024  0.33759185  1
  Ni  Ni27  1  0.17201166  0.17168787  0.50349646  1
  Ni  Ni28  1  1.00335561  0.00536751  0.67206798  1
  Fe  Fe29  1  0.16931658  0.16985940  0.83594662  1
  Ni  Ni30  1  0.17079965  0.50088050  0.50253124  1
  Ni  Ni31  1  0.00440183  0.33645266  0.66999998  1
  Fe  Fe32  1  0.17015001  0.50297064  0.83751052  1
  Cr  Cr33  1  0.16999054  0.83791578  0.50196312  1
  Cr  Cr34  1  1.00217635  0.66848674  0.67065792  1
  Fe  Fe35  1  0.17093667  0.83741954  0.83763588  1
  Ni  Ni36  1  0.50157384  0.17011857  0.50371593  1
  Ni  Ni37  1  0.33830135  0.00429850  0.67016188  1
  Fe  Fe38  1  0.50495827  0.16941634  0.83639853  1
  Fe  Fe39  1  0.50330302  0.50297653  0.50268837  1
  Fe  Fe40  1  0.33609618  0.33553917  0.66903909  1
  Ni  Ni41  1  0.50328748  0.50385262  0.83663161  1
  Fe  Fe42  1  0.50508953  0.83714226  0.50346886  1
  Fe  Fe43  1  0.33853768  0.67001890  0.67114945  1
  Ni  Ni44  1  0.50304792  0.83653152  0.83633342  1
  Cr  Cr45  1  0.83722582  0.16983635  0.50326773  1
  Ni  Ni46  1  0.66859594  1.00248752  0.67100357  1
  Ni  Ni47  1  0.83740718  0.16992993  0.83640968  1
  Ni  Ni48  1  0.83635360  0.50397635  0.50255599  1
  Fe  Fe49  1  0.67006376  0.33656178  0.67109063  1
  Ni  Ni50  1  0.83565793  0.50182646  0.83754901  1
  Ni  Ni51  1  0.83478449  0.83615732  0.50271050  1
  Fe  Fe52  1  0.66960841  0.67098939  0.67056368  1
  Ni  Ni53  1  0.83583028  0.83849330  0.83729633  1
" 