5080,Ni64Cr36_18,-213.801039012109, 133.49223578011,Ni64Cr36,"# generated using pymatgen
 data_Cr17Ni10
_symmetry_space_group_name_H-M   'P 1'
_cell_length_a   7.54524426
_cell_length_b   7.54524426
_cell_length_c   10.67058677
_cell_angle_alpha   90.00000000
_cell_angle_beta   90.00000000
_cell_angle_gamma   90.00000000
_symmetry_Int_Tables_number   1
_chemical_formula_structural   Cr17Ni10
_chemical_formula_sum   'Cr34 Ni20'
_cell_volume   607.48409087
_cell_formula_units_Z   2
loop_
 _symmetry_equiv_pos_site_id
 _symmetry_equiv_pos_as_xyz
  1  'x, y, z'
loop_
 _atom_site_type_symbol
 _atom_site_label
 _atom_site_symmetry_multiplicity
 _atom_site_fract_x
 _atom_site_fract_y
 _atom_site_fract_z
 _atom_site_occupancy
  Cr  Cr0  1  -0.00497727  0.99391378  -0.00393179  1
  Cr  Cr1  1  0.16030090  0.16139571  0.15995567  1
  Ni  Ni2  1  0.99274366  0.99038538  0.32601887  1
  Ni  Ni3  1  0.99247913  0.33071607  0.99391118  1
  Cr  Cr4  1  0.16045475  0.49565336  0.16188729  1
  Cr  Cr5  1  0.99090559  0.33106947  0.32870507  1
  Cr  Cr6  1  0.99188752  0.66064494  -0.00269366  1
  Ni  Ni7  1  0.15760013  0.82814080  0.16380429  1
  Ni  Ni8  1  0.99227141  0.66393419  0.32596897  1
  Cr  Cr9  1  0.32783649  0.99480739  -0.00364998  1
  Ni  Ni10  1  0.49686762  0.16317806  0.16420932  1
  Cr  Cr11  1  0.32897573  -0.00419044  0.32727112  1
  Cr  Cr12  1  0.33003180  0.32846508  -0.00394209  1
  Ni  Ni13  1  0.49871768  0.49325327  0.16091652  1
  Cr  Cr14  1  0.33347010  0.32708412  0.32757426  1
  Cr  Cr15  1  0.32964611  0.66105549  -0.00391679  1
  Cr  Cr16  1  0.49736578  0.82732667  0.16063013  1
  Cr  Cr17  1  0.32476329  0.66158150  0.32609039  1
  Cr  Cr18  1  0.66158288  0.99422173  -0.00346407  1
  Cr  Cr19  1  0.82703084  0.16127324  0.16272912  1
  Ni  Ni20  1  0.66255163  -0.00200918  0.32700478  1
  Cr  Cr21  1  0.66215477  0.33147380  -0.00395275  1
  Ni  Ni22  1  0.82614675  0.49699108  0.16124921  1
  Ni  Ni23  1  0.66067953  0.32684892  0.32700510  1
  Ni  Ni24  1  0.66276968  0.65787085  -0.00514859  1
  Ni  Ni25  1  0.82981871  0.82625642  0.16350848  1
  Cr  Cr26  1  0.66535193  0.65883884  0.32760952  1
  Cr  Cr27  1  0.16138957  0.16186222  0.49885737  1
  Ni  Ni28  1  -0.00244908  -0.00327853  0.66160946  1
  Cr  Cr29  1  0.15944336  0.16339177  0.82572353  1
  Cr  Cr30  1  0.15958478  0.49346267  0.49511807  1
  Ni  Ni31  1  -0.00498956  0.32818681  0.66229280  1
  Cr  Cr32  1  0.16114809  0.49083285  0.82750755  1
  Cr  Cr33  1  0.16014499  0.82921007  0.49402951  1
  Cr  Cr34  1  0.99132487  0.65997512  0.66022349  1
  Cr  Cr35  1  0.16232739  0.83021285  0.82654964  1
  Ni  Ni36  1  0.49478835  0.16156808  0.49431594  1
  Ni  Ni37  1  0.32687890  -0.00181915  0.66064237  1
  Cr  Cr38  1  0.49300049  0.16219831  0.82691757  1
  Cr  Cr39  1  0.49638202  0.49352711  0.49542937  1
  Ni  Ni40  1  0.32827454  0.32566121  0.66166155  1
  Ni  Ni41  1  0.49788881  0.49621663  0.82739458  1
  Cr  Cr42  1  0.49644996  0.82974490  0.49710021  1
  Cr  Cr43  1  0.32985461  0.66102788  0.66214116  1
  Cr  Cr44  1  0.49662392  0.82467183  0.82684886  1
  Cr  Cr45  1  0.82788809  0.16174016  0.49348001  1
  Cr  Cr46  1  0.66075745  -0.00517982  0.66056043  1
  Cr  Cr47  1  0.83212212  0.16364023  0.82809104  1
  Ni  Ni48  1  0.82803613  0.49458157  0.49517630  1
  Cr  Cr49  1  0.66192709  0.33102037  0.66053498  1
  Ni  Ni50  1  0.82607371  0.49490889  0.82803762  1
  Cr  Cr51  1  0.82781480  0.82791581  0.49353040  1
  Ni  Ni52  1  0.66257743  0.65821285  0.66350030  1
  Cr  Cr53  1  0.82549011  0.82650687  0.82755641  1
" 