7891,Ni64Cr36_17,-213.712434217254, 133.154061836724,Ni64Cr36,"# generated using pymatgen
 data_Cr17Ni10
_symmetry_space_group_name_H-M   'P 1'
_cell_length_a   7.55125044
_cell_length_b   7.55125044
_cell_length_c   10.67908079
_cell_angle_alpha   90.00000000
_cell_angle_beta   90.00000000
_cell_angle_gamma   90.00000000
_symmetry_Int_Tables_number   1
_chemical_formula_structural   Cr17Ni10
_chemical_formula_sum   'Cr34 Ni20'
_cell_volume   608.93595870
_cell_formula_units_Z   2
loop_
 _symmetry_equiv_pos_site_id
 _symmetry_equiv_pos_as_xyz
  1  'x, y, z'
loop_
 _atom_site_type_symbol
 _atom_site_label
 _atom_site_symmetry_multiplicity
 _atom_site_fract_x
 _atom_site_fract_y
 _atom_site_fract_z
 _atom_site_occupancy
  Cr  Cr0  1  -0.00452378  0.99073574  -0.00437034  1
  Cr  Cr1  1  0.15998701  0.16162799  0.16141242  1
  Cr  Cr2  1  -0.00553696  0.99256632  0.32441678  1
  Cr  Cr3  1  0.99375503  0.33106527  0.99421420  1
  Cr  Cr4  1  0.16293572  0.49722365  0.15946120  1
  Cr  Cr5  1  -0.00557453  0.33127695  0.32987998  1
  Ni  Ni6  1  -0.00352035  0.65959800  0.99297917  1
  Ni  Ni7  1  0.16221219  0.82154544  0.15941776  1
  Cr  Cr8  1  0.99418075  0.66029841  0.32769749  1
  Cr  Cr9  1  0.32643952  0.99298925  0.99385494  1
  Cr  Cr10  1  0.49750480  0.16437242  0.16040253  1
  Cr  Cr11  1  0.32743339  0.99265878  0.32504866  1
  Cr  Cr12  1  0.32977250  0.32847003  0.99331450  1
  Ni  Ni13  1  0.49722881  0.49605674  0.16147156  1
  Cr  Cr14  1  0.33005163  0.33077557  0.32869199  1
  Ni  Ni15  1  0.32510543  0.65982118  -0.00480522  1
  Cr  Cr16  1  0.49268128  0.82250092  0.16311412  1
  Ni  Ni17  1  0.33003562  0.65822382  0.32702590  1
  Cr  Cr18  1  0.65992638  -0.00466994  0.99196756  1
  Cr  Cr19  1  0.82552890  0.16552398  0.16379204  1
  Ni  Ni20  1  0.65925397  0.99382499  0.32691932  1
  Ni  Ni21  1  0.66170355  0.33195606  -0.00513689  1
  Ni  Ni22  1  0.82491617  0.49612160  0.16099615  1
  Ni  Ni23  1  0.66036401  0.33317064  0.32706020  1
  Cr  Cr24  1  0.66333399  0.65973601  0.99384591  1
  Cr  Cr25  1  0.82724457  0.82575891  0.16136814  1
  Ni  Ni26  1  0.65940616  0.65737930  0.32812963  1
  Cr  Cr27  1  0.16090933  0.16164120  0.49592934  1
  Cr  Cr28  1  -0.00468040  0.99241754  0.66375063  1
  Ni  Ni29  1  0.16247835  0.16107739  0.82672845  1
  Ni  Ni30  1  0.16232107  0.49708009  0.49318602  1
  Cr  Cr31  1  -0.00515207  0.33239673  0.65907963  1
  Ni  Ni32  1  0.15910746  0.49617172  0.82912132  1
  Cr  Cr33  1  0.16325145  0.82690307  0.49388401  1
  Cr  Cr34  1  0.99312418  0.65981128  0.66216395  1
  Ni  Ni35  1  0.16066276  0.82485635  0.83008204  1
  Cr  Cr36  1  0.49530800  0.15970021  0.49598686  1
  Ni  Ni37  1  0.32613247  0.99408773  0.66592550  1
  Ni  Ni38  1  0.49200876  0.16250097  0.82800971  1
  Ni  Ni39  1  0.49530533  0.49486934  0.49048619  1
  Cr  Cr40  1  0.32708828  0.32796063  0.66106173  1
  Cr  Cr41  1  0.49381848  0.49415968  0.83058512  1
  Cr  Cr42  1  0.49393398  0.82530694  0.49337355  1
  Cr  Cr43  1  0.32706833  0.65844923  0.65940563  1
  Cr  Cr44  1  0.49250503  0.82586748  0.82667022  1
  Cr  Cr45  1  0.82623383  0.16219709  0.49064609  1
  Cr  Cr46  1  0.65979024  0.99237269  0.66526082  1
  Cr  Cr47  1  0.82764934  0.16401340  0.82905973  1
  Ni  Ni48  1  0.82575133  0.49555025  0.49155607  1
  Cr  Cr49  1  0.66058468  0.33126808  0.66156105  1
  Ni  Ni50  1  0.83037352  0.49685335  0.83037930  1
  Cr  Cr51  1  0.82539618  0.82814577  0.49312214  1
  Cr  Cr52  1  0.66403532  0.65871016  0.66025742  1
  Ni  Ni53  1  0.83207618  0.82395077  0.82948495  1
" 