4988,Ni64Cr36_5,-213.800738436806, 137.826811686731,Ni64Cr36,"# generated using pymatgen
 data_Cr17Ni10
_symmetry_space_group_name_H-M   'P 1'
_cell_length_a   7.55355793
_cell_length_b   7.55355793
_cell_length_c   10.68234406
_cell_angle_alpha   90.00000000
_cell_angle_beta   90.00000000
_cell_angle_gamma   90.00000000
_symmetry_Int_Tables_number   1
_chemical_formula_structural   Cr17Ni10
_chemical_formula_sum   'Cr34 Ni20'
_cell_volume   609.49435846
_cell_formula_units_Z   2
loop_
 _symmetry_equiv_pos_site_id
 _symmetry_equiv_pos_as_xyz
  1  'x, y, z'
loop_
 _atom_site_type_symbol
 _atom_site_label
 _atom_site_symmetry_multiplicity
 _atom_site_fract_x
 _atom_site_fract_y
 _atom_site_fract_z
 _atom_site_occupancy
  Ni  Ni0  1  -0.00160536  -0.00259128  0.99378503  1
  Ni  Ni1  1  0.15908295  0.15916470  0.15710162  1
  Cr  Cr2  1  -0.00370069  -0.00431083  0.32627207  1
  Ni  Ni3  1  -0.00229360  0.32248380  0.99354933  1
  Cr  Cr4  1  0.15863213  0.49087302  0.15809078  1
  Ni  Ni5  1  -0.00388836  0.32869483  0.32540612  1
  Ni  Ni6  1  -0.00238192  0.66283194  -0.00427189  1
  Ni  Ni7  1  0.16024659  0.82932408  0.15789842  1
  Ni  Ni8  1  -0.00427603  0.66078922  0.32527232  1
  Ni  Ni9  1  0.32348949  -0.00147121  -0.00492576  1
  Cr  Cr10  1  0.49107245  0.15860370  0.15937940  1
  Cr  Cr11  1  0.32586327  0.99379232  0.32398187  1
  Ni  Ni12  1  0.32354504  0.32069656  0.99215707  1
  Cr  Cr13  1  0.49198122  0.49218162  0.15784560  1
  Cr  Cr14  1  0.32535843  0.32683656  0.32674143  1
  Cr  Cr15  1  0.32668235  0.66302099  -0.00437846  1
  Ni  Ni16  1  0.49047930  0.82982581  0.16029562  1
  Cr  Cr17  1  0.32554566  0.66099301  0.32837171  1
  Cr  Cr18  1  0.66158611  -0.00393037  0.99394404  1
  Cr  Cr19  1  0.82937118  0.16177067  0.16264959  1
  Ni  Ni20  1  0.65947601  0.99242268  0.32550368  1
  Cr  Cr21  1  0.66154559  0.32492024  0.99079032  1
  Cr  Cr22  1  0.83070348  0.49391215  0.15848855  1
  Cr  Cr23  1  0.66080147  0.32634879  0.32838937  1
  Cr  Cr24  1  0.66081141  0.66183267  0.99284938  1
  Cr  Cr25  1  0.82774674  0.82786669  0.16064352  1
  Cr  Cr26  1  0.65809565  0.66037140  0.32765807  1
  Cr  Cr27  1  0.16100553  0.16257964  0.49690945  1
  Ni  Ni28  1  -0.00267360  0.00180753  0.66380454  1
  Ni  Ni29  1  0.16099359  0.16107597  0.82828954  1
  Cr  Cr30  1  0.16028544  0.49126297  0.49491282  1
  Ni  Ni31  1  0.99410667  0.32338957  0.66357974  1
  Cr  Cr32  1  0.16036719  0.49006161  0.82943669  1
  Cr  Cr33  1  0.15998773  0.83101593  0.49776764  1
  Cr  Cr34  1  -0.00563630  0.66229088  0.66170273  1
  Cr  Cr35  1  0.16120841  0.83256898  0.82743407  1
  Cr  Cr36  1  0.49382638  0.16099776  0.49566118  1
  Ni  Ni37  1  0.32621392  0.00086637  0.66424822  1
  Ni  Ni38  1  0.49176609  0.16163918  0.82703314  1
  Ni  Ni39  1  0.49467116  0.49055425  0.49854497  1
  Ni  Ni40  1  0.32760298  0.32293718  0.66305768  1
  Cr  Cr41  1  0.49128718  0.48943634  0.82667122  1
  Cr  Cr42  1  0.49404342  0.83148474  0.49520027  1
  Cr  Cr43  1  0.32805343  0.65983655  0.65904411  1
  Cr  Cr44  1  0.49125061  0.83339605  0.82810547  1
  Cr  Cr45  1  0.82862435  0.16088489  0.49279392  1
  Cr  Cr46  1  0.66474296  -0.00307265  0.66337829  1
  Ni  Ni47  1  0.83130547  0.16252329  0.82727665  1
  Cr  Cr48  1  0.82962331  0.49206693  0.49348731  1
  Ni  Ni49  1  0.66138525  0.32368505  0.66307297  1
  Cr  Cr50  1  0.83121220  0.49235526  0.83040476  1
  Cr  Cr51  1  0.82876102  0.82948833  0.49343784  1
  Cr  Cr52  1  0.66062044  0.65733879  0.66282879  1
  Cr  Cr53  1  0.83216568  0.83104595  0.82919826  1
" 