2108,Ni64Fe32Cr3_3,-240.324889077225, 216.8879428025,Ni64Fe32Cr3,"# generated using pymatgen
 data_Cr3(FeNi2)17
_symmetry_space_group_name_H-M   'P 1'
_cell_length_a   7.41642755
_cell_length_b   7.41642755
_cell_length_c   10.48841242
_cell_angle_alpha   90.00000000
_cell_angle_beta   90.00000000
_cell_angle_gamma   90.00000000
_symmetry_Int_Tables_number   1
_chemical_formula_structural   Cr3(FeNi2)17
_chemical_formula_sum   'Cr3 Fe17 Ni34'
_cell_volume   576.89831772
_cell_formula_units_Z   1
loop_
 _symmetry_equiv_pos_site_id
 _symmetry_equiv_pos_as_xyz
  1  'x, y, z'
loop_
 _atom_site_type_symbol
 _atom_site_label
 _atom_site_symmetry_multiplicity
 _atom_site_fract_x
 _atom_site_fract_y
 _atom_site_fract_z
 _atom_site_occupancy
  Ni  Ni0  1  0.00345353  1.00150742  1.00204773  1
  Cr  Cr1  1  0.16853141  0.16992185  0.17044186  1
  Ni  Ni2  1  1.00341047  1.00099911  0.33710458  1
  Fe  Fe3  1  1.00208785  0.33629948  1.00284014  1
  Ni  Ni4  1  0.17002806  0.50524665  0.17003882  1
  Ni  Ni5  1  1.00313233  0.33889102  0.33707858  1
  Ni  Ni6  1  0.00535399  0.67086051  1.00329523  1
  Ni  Ni7  1  0.17074324  0.83452277  0.17018719  1
  Ni  Ni8  1  0.00390907  0.67034879  0.33670159  1
  Ni  Ni9  1  0.33737713  1.00273841  1.00225705  1
  Fe  Fe10  1  0.50469642  0.16952638  0.17022341  1
  Ni  Ni11  1  0.33797441  1.00255567  0.33814746  1
  Fe  Fe12  1  0.33758360  0.33689124  1.00220597  1
  Fe  Fe13  1  0.50209086  0.50249607  0.17105035  1
  Ni  Ni14  1  0.33822716  0.33730918  0.33807130  1
  Fe  Fe15  1  0.33549441  0.67130984  0.00396759  1
  Ni  Ni16  1  0.50248350  0.83656757  0.17068415  1
  Ni  Ni17  1  0.33589295  0.67037179  0.33650126  1
  Ni  Ni18  1  0.66940775  0.00562336  1.00294032  1
  Ni  Ni19  1  0.83565685  0.17049072  0.17006260  1
  Ni  Ni20  1  0.66885488  1.00333579  0.33546258  1
  Ni  Ni21  1  0.66940582  0.33474265  1.00291584  1
  Fe  Fe22  1  0.83832395  0.50271086  0.17135113  1
  Ni  Ni23  1  0.66887837  0.33680811  0.33612595  1
  Cr  Cr24  1  0.67090706  0.67026028  1.00316311  1
  Fe  Fe25  1  0.83854592  0.83796259  0.17072573  1
  Fe  Fe26  1  0.66978210  0.67033820  0.33737580  1
  Ni  Ni27  1  0.17118024  0.17067924  0.50281007  1
  Fe  Fe28  1  0.00415636  0.00363093  0.67128351  1
  Ni  Ni29  1  0.16903386  0.17016177  0.83715508  1
  Fe  Fe30  1  0.17006933  0.50309018  0.50276678  1
  Ni  Ni31  1  0.00396676  0.33836678  0.67123105  1
  Fe  Fe32  1  0.17008465  0.50353056  0.83681269  1
  Fe  Fe33  1  0.17006878  0.83666432  0.50278417  1
  Ni  Ni34  1  1.00295809  0.67029507  0.67023907  1
  Ni  Ni35  1  0.16976407  0.83682077  0.83762235  1
  Ni  Ni36  1  0.50108655  0.17067169  0.50253975  1
  Fe  Fe37  1  0.33641040  0.00452638  0.67032058  1
  Ni  Ni38  1  0.50380303  0.17089384  0.83748149  1
  Ni  Ni39  1  0.50353147  0.50392654  0.50256110  1
  Ni  Ni40  1  0.33768342  0.33606668  0.66993131  1
  Ni  Ni41  1  0.50278103  0.50294348  0.83635750  1
  Ni  Ni42  1  0.50353452  0.83563692  0.50347513  1
  Fe  Fe43  1  0.33708408  0.66891778  0.67000073  1
  Ni  Ni44  1  0.50276384  0.83639943  0.83607982  1
  Cr  Cr45  1  0.83813723  0.17078687  0.50312182  1
  Fe  Fe46  1  0.66967077  1.00316086  0.67098778  1
  Ni  Ni47  1  0.83739985  0.17018075  0.83710947  1
  Ni  Ni48  1  0.83652781  0.50493053  0.50304358  1
  Ni  Ni49  1  0.66858930  0.33734925  0.67119447  1
  Fe  Fe50  1  0.83722427  0.50256385  0.83535877  1
  Ni  Ni51  1  0.83652552  0.83463303  0.50247950  1
  Fe  Fe52  1  0.67030619  0.66897705  0.66996889  1
  Ni  Ni53  1  0.83771121  0.83784484  0.83660198  1
" 