4484,Ni64Fe7Cr28_5,-228.517305938355, 159.026574900655,Ni64Fe7Cr28,"# generated using pymatgen
 data_Cr8Fe2Ni17
_symmetry_space_group_name_H-M   'P 1'
_cell_length_a   7.47777817
_cell_length_b   7.47777817
_cell_length_c   10.57517530
_cell_angle_alpha   90.00000000
_cell_angle_beta   90.00000000
_cell_angle_gamma   90.00000000
_symmetry_Int_Tables_number   1
_chemical_formula_structural   Cr8Fe2Ni17
_chemical_formula_sum   'Cr16 Fe4 Ni34'
_cell_volume   591.33383659
_cell_formula_units_Z   2
loop_
 _symmetry_equiv_pos_site_id
 _symmetry_equiv_pos_as_xyz
  1  'x, y, z'
loop_
 _atom_site_type_symbol
 _atom_site_label
 _atom_site_symmetry_multiplicity
 _atom_site_fract_x
 _atom_site_fract_y
 _atom_site_fract_z
 _atom_site_occupancy
  Ni  Ni0  1  0.99901655  0.00136603  -0.00039486  1
  Ni  Ni1  1  0.16414983  0.16437309  0.16669630  1
  Ni  Ni2  1  0.99886203  0.99762566  0.33051283  1
  Ni  Ni3  1  -0.00064123  0.32777817  0.99720000  1
  Cr  Cr4  1  0.16571561  0.50107360  0.16522412  1
  Ni  Ni5  1  0.00094010  0.33090979  0.33087043  1
  Fe  Fe6  1  -0.00019780  0.66817003  -0.00052930  1
  Ni  Ni7  1  0.16632256  0.83426740  0.16645972  1
  Ni  Ni8  1  0.00040021  0.66942477  0.33328668  1
  Ni  Ni9  1  0.32758030  0.99881783  0.00072487  1
  Cr  Cr10  1  0.49847584  0.16493112  0.16375004  1
  Ni  Ni11  1  0.33174480  0.99662436  0.33105863  1
  Ni  Ni12  1  0.32942719  0.33283159  -0.00040571  1
  Ni  Ni13  1  0.49786727  0.50015259  0.16811421  1
  Ni  Ni14  1  0.33192508  0.33480358  0.33230870  1
  Ni  Ni15  1  0.33076677  0.66642718  0.00063443  1
  Ni  Ni16  1  0.49734312  0.83230732  0.16629693  1
  Ni  Ni17  1  0.33372145  0.66660530  0.33384433  1
  Ni  Ni18  1  0.67132845  -0.00019100  -0.00000701  1
  Ni  Ni19  1  0.83451487  0.16497307  0.16632015  1
  Ni  Ni20  1  0.66718723  0.99629813  0.33100577  1
  Ni  Ni21  1  0.66885494  0.33128436  0.99904774  1
  Cr  Cr22  1  0.83395057  0.49857103  0.16823766  1
  Ni  Ni23  1  0.66456520  0.33303484  0.33125888  1
  Cr  Cr24  1  0.66622725  0.66629974  0.00290440  1
  Ni  Ni25  1  0.83426363  0.83530038  0.16784087  1
  Ni  Ni26  1  0.66355868  0.66860796  0.33224538  1
  Cr  Cr27  1  0.16551360  0.16730145  0.49482702  1
  Cr  Cr28  1  0.99808280  0.00000850  0.66610836  1
  Ni  Ni29  1  0.16462257  0.16695724  0.83442654  1
  Ni  Ni30  1  0.16612444  0.49946337  0.49853769  1
  Ni  Ni31  1  0.00189385  0.33306094  0.66898868  1
  Fe  Fe32  1  0.16414606  0.49811268  0.83519877  1
  Ni  Ni33  1  0.16590456  0.82897147  0.49429782  1
  Cr  Cr34  1  -0.00006446  0.66627763  0.66838308  1
  Ni  Ni35  1  0.16339416  0.83283479  0.83740923  1
  Cr  Cr36  1  0.50001662  0.16475730  0.50074503  1
  Cr  Cr37  1  0.32921530  0.99816607  0.66542062  1
  Cr  Cr38  1  0.49877846  0.16498936  0.83314585  1
  Fe  Fe39  1  0.49792369  0.49960510  0.49535812  1
  Ni  Ni40  1  0.32824271  0.33484277  0.66607397  1
  Cr  Cr41  1  0.49906896  0.49738159  0.83389994  1
  Ni  Ni42  1  0.50011622  0.83363428  0.49609507  1
  Cr  Cr43  1  0.33149727  0.66496416  0.66325088  1
  Cr  Cr44  1  0.49785365  0.83544306  0.83605742  1
  Cr  Cr45  1  0.83205771  0.16500916  0.49746859  1
  Ni  Ni46  1  0.66926381  0.99770720  0.66693147  1
  Ni  Ni47  1  0.83420375  0.16710238  0.83276177  1
  Cr  Cr48  1  0.83661893  0.49887199  0.49565444  1
  Fe  Fe49  1  0.66884646  0.33220628  0.66730388  1
  Ni  Ni50  1  0.83611566  0.49714830  0.83407957  1
  Ni  Ni51  1  0.83182443  0.83199095  0.49602098  1
  Cr  Cr52  1  0.66650920  0.66823100  0.66348951  1
  Ni  Ni53  1  0.83561431  0.83354823  0.83481467  1
" 