6971,Ni64Fe32Cr3_0,-239.922832395979, 214.170039700201,Ni64Fe32Cr3,"# generated using pymatgen
 data_Cr3(FeNi2)17
_symmetry_space_group_name_H-M   'P 1'
_cell_length_a   7.41428752
_cell_length_b   7.41428752
_cell_length_c   10.48538597
_cell_angle_alpha   90.00000000
_cell_angle_beta   90.00000000
_cell_angle_gamma   90.00000000
_symmetry_Int_Tables_number   1
_chemical_formula_structural   Cr3(FeNi2)17
_chemical_formula_sum   'Cr3 Fe17 Ni34'
_cell_volume   576.39906619
_cell_formula_units_Z   1
loop_
 _symmetry_equiv_pos_site_id
 _symmetry_equiv_pos_as_xyz
  1  'x, y, z'
loop_
 _atom_site_type_symbol
 _atom_site_label
 _atom_site_symmetry_multiplicity
 _atom_site_fract_x
 _atom_site_fract_y
 _atom_site_fract_z
 _atom_site_occupancy
  Ni  Ni0  1  0.00438211  0.00506712  0.00461947  1
  Fe  Fe1  1  0.17155154  0.17045971  0.17051700  1
  Fe  Fe2  1  1.00353431  1.00234182  0.33644631  1
  Ni  Ni3  1  1.00269445  0.33619382  0.00419873  1
  Ni  Ni4  1  0.17122431  0.50309655  0.17144163  1
  Ni  Ni5  1  1.00180996  0.33970106  0.33594631  1
  Ni  Ni6  1  1.00225638  0.66951581  0.00598380  1
  Fe  Fe7  1  0.17152502  0.83658441  0.17060672  1
  Ni  Ni8  1  1.00231867  0.66897143  0.33651925  1
  Ni  Ni9  1  0.33842259  0.00423311  1.00330902  1
  Ni  Ni10  1  0.50402171  0.17050987  0.17168532  1
  Ni  Ni11  1  0.34144079  1.00244754  0.33647599  1
  Ni  Ni12  1  0.33779690  0.33514429  0.00469338  1
  Ni  Ni13  1  0.49969026  0.50380490  0.16815248  1
  Ni  Ni14  1  0.33784403  0.33786949  0.33610636  1
  Ni  Ni15  1  0.33895331  0.67136534  0.00361111  1
  Ni  Ni16  1  0.50431043  0.83640484  0.17014125  1
  Ni  Ni17  1  0.33669985  0.67023409  0.33736771  1
  Fe  Fe18  1  0.66895485  0.00446961  0.00483880  1
  Ni  Ni19  1  0.83756855  0.16890253  0.16997913  1
  Ni  Ni20  1  0.66968273  1.00318769  0.33707700  1
  Fe  Fe21  1  0.66996706  0.33629314  0.00356412  1
  Fe  Fe22  1  0.83559977  0.50375460  0.16910354  1
  Fe  Fe23  1  0.66920719  0.33699962  0.33672012  1
  Ni  Ni24  1  0.66969600  0.66964589  0.00462678  1
  Ni  Ni25  1  0.83668130  0.83842292  0.17057521  1
  Fe  Fe26  1  0.66851606  0.67025026  0.33609030  1
  Cr  Cr27  1  0.16921392  0.17104719  0.50314169  1
  Ni  Ni28  1  1.00237058  1.00327850  0.66954336  1
  Fe  Fe29  1  0.16993084  0.16833954  0.83633756  1
  Fe  Fe30  1  0.16974876  0.50562590  0.50274724  1
  Ni  Ni31  1  1.00179902  0.33810323  0.67041058  1
  Cr  Cr32  1  0.17086228  0.50380315  0.83590786  1
  Ni  Ni33  1  0.17017161  0.83533652  0.50402921  1
  Ni  Ni34  1  1.00181836  0.66948965  0.66820083  1
  Fe  Fe35  1  0.17082702  0.83937500  0.83658062  1
  Fe  Fe36  1  0.50502685  0.16828241  0.50334488  1
  Ni  Ni37  1  0.33986790  1.00336309  0.67093200  1
  Ni  Ni38  1  0.50374758  0.16957745  0.83609149  1
  Ni  Ni39  1  0.50161009  0.50381773  0.50465345  1
  Ni  Ni40  1  0.33918329  0.33637382  0.66966976  1
  Fe  Fe41  1  0.50679939  0.50300766  0.83753828  1
  Ni  Ni42  1  0.50393733  0.83499850  0.50338574  1
  Fe  Fe43  1  0.33680497  0.67243373  0.66879921  1
  Ni  Ni44  1  0.50204944  0.83745117  0.83713639  1
  Ni  Ni45  1  0.83634787  0.16954579  0.50414142  1
  Ni  Ni46  1  0.66853785  0.00376931  0.66953898  1
  Ni  Ni47  1  0.83707773  0.17149847  0.83657603  1
  Fe  Fe48  1  0.83696358  0.50472112  0.50436638  1
  Fe  Fe49  1  0.67121775  0.33527866  0.67043371  1
  Ni  Ni50  1  0.83753016  0.50158403  0.83761370  1
  Ni  Ni51  1  0.83661283  0.83830973  0.50339941  1
  Fe  Fe52  1  0.66935105  0.66994032  0.67011978  1
  Cr  Cr53  1  0.83637389  0.83790891  0.83709568  1
" 