8311,Ni64Fe30Cr5_8,-239.571894149268, 211.55163319729,Ni64Fe30Cr5,"# generated using pymatgen
 data_Cr2Fe8Ni17
_symmetry_space_group_name_H-M   'P 1'
_cell_length_a   7.41961037
_cell_length_b   7.41961037
_cell_length_c   10.49291361
_cell_angle_alpha   90.00000000
_cell_angle_beta   90.00000000
_cell_angle_gamma   90.00000000
_symmetry_Int_Tables_number   1
_chemical_formula_structural   Cr2Fe8Ni17
_chemical_formula_sum   'Cr4 Fe16 Ni34'
_cell_volume   577.64137965
_cell_formula_units_Z   2
loop_
 _symmetry_equiv_pos_site_id
 _symmetry_equiv_pos_as_xyz
  1  'x, y, z'
loop_
 _atom_site_type_symbol
 _atom_site_label
 _atom_site_symmetry_multiplicity
 _atom_site_fract_x
 _atom_site_fract_y
 _atom_site_fract_z
 _atom_site_occupancy
  Ni  Ni0  1  0.00464999  0.00349744  1.00231708  1
  Ni  Ni1  1  0.16924417  0.16777251  0.16966170  1
  Ni  Ni2  1  0.00335843  1.00164927  0.33611048  1
  Fe  Fe3  1  1.00293521  0.33427912  1.00272609  1
  Cr  Cr4  1  0.17001489  0.49951128  0.17189038  1
  Fe  Fe5  1  1.00238984  0.33496465  0.33784095  1
  Cr  Cr6  1  1.00195204  0.67216598  1.00213152  1
  Fe  Fe7  1  0.17186848  0.83673732  0.17037378  1
  Ni  Ni8  1  1.00198091  0.67095719  0.33845912  1
  Ni  Ni9  1  0.33459287  0.00475976  0.00426363  1
  Ni  Ni10  1  0.50051962  0.16981724  0.17177468  1
  Ni  Ni11  1  0.33591514  0.00415348  0.33661152  1
  Ni  Ni12  1  0.33929771  0.33547349  1.00167106  1
  Ni  Ni13  1  0.50440067  0.50400474  0.16912494  1
  Ni  Ni14  1  0.33886846  0.33603299  0.33806496  1
  Ni  Ni15  1  0.33575574  0.66795334  1.00218819  1
  Ni  Ni16  1  0.50196491  0.83607761  0.17119886  1
  Ni  Ni17  1  0.33645020  0.66940409  0.33805550  1
  Cr  Cr18  1  0.67139373  0.00682467  0.00375687  1
  Fe  Fe19  1  0.83568526  0.17185325  0.17137275  1
  Ni  Ni20  1  0.67018600  0.00416770  0.33768941  1
  Ni  Ni21  1  0.66833749  0.33803484  1.00255918  1
  Ni  Ni22  1  0.83478991  0.50239779  0.17158929  1
  Ni  Ni23  1  0.66829827  0.33701938  0.33713939  1
  Fe  Fe24  1  0.66834028  0.66901578  0.00382573  1
  Fe  Fe25  1  0.83592553  0.83722198  0.17214262  1
  Ni  Ni26  1  0.67038180  0.66877035  0.33549298  1
  Fe  Fe27  1  0.16967992  0.16896513  0.50269799  1
  Ni  Ni28  1  1.00303377  1.00178984  0.67141222  1
  Ni  Ni29  1  0.16998314  0.16984521  0.83718690  1
  Fe  Fe30  1  0.16909398  0.50394426  0.50243448  1
  Fe  Fe31  1  1.00234438  0.33536108  0.66953108  1
  Fe  Fe32  1  0.17003092  0.50248962  0.83552195  1
  Fe  Fe33  1  0.16858689  0.83680784  0.50394080  1
  Ni  Ni34  1  1.00275011  0.66904536  0.66978363  1
  Ni  Ni35  1  0.17038390  0.83835239  0.83587487  1
  Fe  Fe36  1  0.50586314  0.16967786  0.50312509  1
  Ni  Ni37  1  0.33563517  0.00617529  0.66875552  1
  Ni  Ni38  1  0.50183982  0.17091767  0.83446292  1
  Ni  Ni39  1  0.50351221  0.50517516  0.50306482  1
  Fe  Fe40  1  0.33638835  0.33686389  0.66901632  1
  Fe  Fe41  1  0.50394121  0.50155129  0.83585786  1
  Ni  Ni42  1  0.50307758  0.83636234  0.50287635  1
  Fe  Fe43  1  0.33614598  0.67209740  0.66830924  1
  Cr  Cr44  1  0.50266520  0.83708812  0.83568903  1
  Ni  Ni45  1  0.83915386  0.16939686  0.50284908  1
  Ni  Ni46  1  0.67099310  0.00429609  0.66868571  1
  Ni  Ni47  1  0.83832489  0.17117043  0.83617225  1
  Ni  Ni48  1  0.83646368  0.50292470  0.50213492  1
  Fe  Fe49  1  0.67152964  0.33574661  0.66910602  1
  Ni  Ni50  1  0.83647273  0.50172764  0.83603073  1
  Ni  Ni51  1  0.83516901  0.83632936  0.50390331  1
  Ni  Ni52  1  0.67229810  0.66796122  0.66992553  1
  Ni  Ni53  1  0.83776613  0.83604441  0.83424306  1
" 