3029,Ni64Fe32Cr3_5,-240.210132818561, 216.162529108584,Ni64Fe32Cr3,"# generated using pymatgen
 data_Cr3(FeNi2)17
_symmetry_space_group_name_H-M   'P 1'
_cell_length_a   7.41302634
_cell_length_b   7.41302634
_cell_length_c   10.48360238
_cell_angle_alpha   90.00000000
_cell_angle_beta   90.00000000
_cell_angle_gamma   90.00000000
_symmetry_Int_Tables_number   1
_chemical_formula_structural   Cr3(FeNi2)17
_chemical_formula_sum   'Cr3 Fe17 Ni34'
_cell_volume   576.10497692
_cell_formula_units_Z   1
loop_
 _symmetry_equiv_pos_site_id
 _symmetry_equiv_pos_as_xyz
  1  'x, y, z'
loop_
 _atom_site_type_symbol
 _atom_site_label
 _atom_site_symmetry_multiplicity
 _atom_site_fract_x
 _atom_site_fract_y
 _atom_site_fract_z
 _atom_site_occupancy
  Ni  Ni0  1  0.00373189  1.00312637  1.00228196  1
  Ni  Ni1  1  0.17261119  0.17005898  0.17066337  1
  Fe  Fe2  1  0.00494257  1.00294273  0.33748451  1
  Ni  Ni3  1  0.00576549  0.33720995  1.00326185  1
  Fe  Fe4  1  0.17077971  0.50375548  0.16959918  1
  Fe  Fe5  1  0.00466007  0.33785715  0.33817026  1
  Ni  Ni6  1  1.00287066  0.67059468  0.00407729  1
  Ni  Ni7  1  0.17045980  0.83707269  0.17008593  1
  Fe  Fe8  1  1.00343663  0.67013139  0.33679810  1
  Fe  Fe9  1  0.33670975  0.00397410  0.00435074  1
  Ni  Ni10  1  0.50102023  0.17080709  0.17009416  1
  Ni  Ni11  1  0.33593012  1.00346830  0.33563130  1
  Ni  Ni12  1  0.33615917  0.33614425  0.00395100  1
  Ni  Ni13  1  0.50369065  0.50388476  0.17097335  1
  Ni  Ni14  1  0.33617382  0.33668251  0.33648788  1
  Fe  Fe15  1  0.33690116  0.67025775  1.00352354  1
  Ni  Ni16  1  0.50326148  0.83623746  0.17096035  1
  Ni  Ni17  1  0.33756441  0.67078081  0.33655135  1
  Ni  Ni18  1  0.66977929  1.00206956  0.00378343  1
  Cr  Cr19  1  0.83702603  0.17039953  0.17092161  1
  Fe  Fe20  1  0.66909815  1.00198683  0.33662733  1
  Fe  Fe21  1  0.67004612  0.33762138  1.00296067  1
  Ni  Ni22  1  0.83645967  0.50603862  0.16987892  1
  Ni  Ni23  1  0.67028547  0.33833352  0.33661857  1
  Ni  Ni24  1  0.67084538  0.67185592  1.00336991  1
  Ni  Ni25  1  0.83720654  0.83440572  0.17069435  1
  Ni  Ni26  1  0.67029892  0.67053333  0.33759944  1
  Ni  Ni27  1  0.16906456  0.17041123  0.50392239  1
  Fe  Fe28  1  0.00422804  1.00363642  0.67048097  1
  Ni  Ni29  1  0.17011657  0.17111761  0.83634783  1
  Fe  Fe30  1  0.16929074  0.50331801  0.50447712  1
  Ni  Ni31  1  0.00372881  0.33657797  0.66997470  1
  Ni  Ni32  1  0.17085458  0.50317610  0.83687051  1
  Fe  Fe33  1  0.16961923  0.83723993  0.50316866  1
  Ni  Ni34  1  0.00413881  0.66979794  0.67031127  1
  Fe  Fe35  1  0.17045197  0.83695203  0.83720694  1
  Cr  Cr36  1  0.50240020  0.17179970  0.50284476  1
  Fe  Fe37  1  0.33481682  1.00285983  0.67083217  1
  Ni  Ni38  1  0.50262570  0.17141924  0.83808876  1
  Fe  Fe39  1  0.50479169  0.50486412  0.50339977  1
  Fe  Fe40  1  0.33616339  0.33867063  0.67178199  1
  Ni  Ni41  1  0.50301877  0.50400442  0.83581496  1
  Fe  Fe42  1  0.50344348  0.83468762  0.50277468  1
  Ni  Ni43  1  0.33685110  0.67052962  0.67018266  1
  Ni  Ni44  1  0.50374966  0.83550984  0.83726242  1
  Ni  Ni45  1  0.83976075  0.17123989  0.50296162  1
  Cr  Cr46  1  0.67126893  1.00327984  0.67065647  1
  Ni  Ni47  1  0.83818703  0.17038516  0.83681297  1
  Ni  Ni48  1  0.83675896  0.50461192  0.50452922  1
  Ni  Ni49  1  0.67176288  0.33853895  0.67181147  1
  Fe  Fe50  1  0.83679594  0.50333612  0.83665074  1
  Ni  Ni51  1  0.83785737  0.83507584  0.50236223  1
  Ni  Ni52  1  0.66994034  0.66924541  0.66995868  1
  Ni  Ni53  1  0.83735760  0.83624205  0.83787195  1
" 