3814,Ni64Fe7Cr28_13,-228.251285811915, 154.808697290106,Ni64Fe7Cr28,"# generated using pymatgen
 data_Cr8Fe2Ni17
_symmetry_space_group_name_H-M   'P 1'
_cell_length_a   7.47808319
_cell_length_b   7.47808319
_cell_length_c   10.57560667
_cell_angle_alpha   90.00000000
_cell_angle_beta   90.00000000
_cell_angle_gamma   90.00000000
_symmetry_Int_Tables_number   1
_chemical_formula_structural   Cr8Fe2Ni17
_chemical_formula_sum   'Cr16 Fe4 Ni34'
_cell_volume   591.40620177
_cell_formula_units_Z   2
loop_
 _symmetry_equiv_pos_site_id
 _symmetry_equiv_pos_as_xyz
  1  'x, y, z'
loop_
 _atom_site_type_symbol
 _atom_site_label
 _atom_site_symmetry_multiplicity
 _atom_site_fract_x
 _atom_site_fract_y
 _atom_site_fract_z
 _atom_site_occupancy
  Ni  Ni0  1  0.99752674  0.00165771  0.99902438  1
  Ni  Ni1  1  0.16380606  0.16819837  0.16832977  1
  Fe  Fe2  1  -0.00033822  0.00285748  0.33373320  1
  Ni  Ni3  1  0.99854279  0.33130633  -0.00028192  1
  Ni  Ni4  1  0.16319423  0.49459929  0.16688609  1
  Ni  Ni5  1  -0.00056980  0.33245678  0.33343021  1
  Cr  Cr6  1  0.99797959  0.66364939  0.99762813  1
  Cr  Cr7  1  0.16399920  0.83663441  0.16568016  1
  Cr  Cr8  1  0.99805492  0.66192638  0.33394157  1
  Cr  Cr9  1  0.33313605  0.00182432  0.99576009  1
  Ni  Ni10  1  0.49804888  0.16460388  0.16861368  1
  Ni  Ni11  1  0.33453509  0.00201127  0.33487171  1
  Cr  Cr12  1  0.33224376  0.33122052  0.00042091  1
  Cr  Cr13  1  0.49897123  0.49849504  0.16581236  1
  Ni  Ni14  1  0.33125898  0.32969432  0.33338611  1
  Cr  Cr15  1  0.33255201  0.66497482  0.99468008  1
  Cr  Cr16  1  0.50163768  0.83254413  0.16807162  1
  Cr  Cr17  1  0.32957218  0.66405594  0.33657845  1
  Cr  Cr18  1  0.66647464  0.00210462  0.99746682  1
  Ni  Ni19  1  0.83614136  0.16465644  0.16697536  1
  Ni  Ni20  1  0.66559405  0.00088489  0.33319634  1
  Cr  Cr21  1  0.66899044  0.33205025  0.99811253  1
  Ni  Ni22  1  0.83432359  0.49925315  0.16560962  1
  Cr  Cr23  1  0.66817777  0.33006516  0.33285273  1
  Ni  Ni24  1  0.66866606  0.66632382  0.99903620  1
  Ni  Ni25  1  0.83166595  0.83407424  0.16715394  1
  Fe  Fe26  1  0.66578791  0.66376286  0.33420521  1
  Ni  Ni27  1  0.16641164  0.16837855  0.49719992  1
  Cr  Cr28  1  0.99802040  0.00184722  0.66605707  1
  Ni  Ni29  1  0.16333510  0.16974723  0.83286585  1
  Ni  Ni30  1  0.16743460  0.49554313  0.50078000  1
  Ni  Ni31  1  0.99835162  0.33298504  0.66470659  1
  Ni  Ni32  1  0.16648689  0.49418581  0.83014617  1
  Ni  Ni33  1  0.16774307  0.83435741  0.49971877  1
  Cr  Cr34  1  0.00070341  0.66319031  0.66606305  1
  Fe  Fe35  1  0.16492371  0.83318424  0.83124912  1
  Ni  Ni36  1  0.49917950  0.16728975  0.49974874  1
  Cr  Cr37  1  0.33369611  0.00063686  0.66656497  1
  Ni  Ni38  1  0.49926227  0.16802860  0.82909282  1
  Ni  Ni39  1  0.49871731  0.49779047  0.50196478  1
  Ni  Ni40  1  0.33288639  0.33358350  0.66504833  1
  Ni  Ni41  1  0.50016635  0.50018859  0.82964979  1
  Fe  Fe42  1  0.49928951  0.83345371  0.50057450  1
  Ni  Ni43  1  0.33378161  0.66423354  0.66565664  1
  Ni  Ni44  1  0.50341262  0.83003853  0.82910249  1
  Ni  Ni45  1  0.83235407  0.16762681  0.50038718  1
  Ni  Ni46  1  0.66517525  0.00149804  0.66673212  1
  Ni  Ni47  1  0.83480862  0.16662481  0.83053036  1
  Ni  Ni48  1  0.83121039  0.49710164  0.50114736  1
  Ni  Ni49  1  0.66626593  0.33185348  0.66608334  1
  Ni  Ni50  1  0.83171251  0.49864982  0.83100764  1
  Cr  Cr51  1  0.83044710  0.83465818  0.49828231  1
  Ni  Ni52  1  0.66503373  0.66465848  0.66535329  1
  Ni  Ni53  1  0.82937262  0.83293591  0.83326690  1
" 