8754,Ni64Fe29Cr6_10,-238.577917808946, 208.721115414095,Ni64Fe29Cr6,"# generated using pymatgen
 data_Cr5Fe15Ni34
_symmetry_space_group_name_H-M   'P 1'
_cell_length_a   7.42446805
_cell_length_b   7.42446805
_cell_length_c   10.49978341
_cell_angle_alpha   90.00000000
_cell_angle_beta   90.00000000
_cell_angle_gamma   90.00000000
_symmetry_Int_Tables_number   1
_chemical_formula_structural   Cr5Fe15Ni34
_chemical_formula_sum   'Cr5 Fe15 Ni34'
_cell_volume   578.77668170
_cell_formula_units_Z   1
loop_
 _symmetry_equiv_pos_site_id
 _symmetry_equiv_pos_as_xyz
  1  'x, y, z'
loop_
 _atom_site_type_symbol
 _atom_site_label
 _atom_site_symmetry_multiplicity
 _atom_site_fract_x
 _atom_site_fract_y
 _atom_site_fract_z
 _atom_site_occupancy
  Ni  Ni0  1  0.00438892  0.00386022  0.00385361  1
  Ni  Ni1  1  0.16642613  0.16975535  0.16890553  1
  Ni  Ni2  1  0.00494819  1.00272129  0.33706747  1
  Ni  Ni3  1  0.00389330  0.33638705  0.00384964  1
  Ni  Ni4  1  0.16931615  0.50320440  0.16783210  1
  Ni  Ni5  1  1.00048872  0.33546934  0.33572539  1
  Fe  Fe6  1  1.00174091  0.66928702  0.00348716  1
  Fe  Fe7  1  0.17013352  0.83663495  0.16951633  1
  Ni  Ni8  1  1.00134267  0.67041439  0.33496194  1
  Ni  Ni9  1  0.33659768  0.00327701  0.00364682  1
  Fe  Fe10  1  0.50331394  0.16905858  0.16864504  1
  Ni  Ni11  1  0.33525531  1.00150932  0.33611712  1
  Fe  Fe12  1  0.33651806  0.33582597  0.00287051  1
  Ni  Ni13  1  0.50241134  0.50512552  0.16939030  1
  Cr  Cr14  1  0.33763143  0.33397570  0.33509995  1
  Ni  Ni15  1  0.33799594  0.66966698  0.00386104  1
  Ni  Ni16  1  0.50287516  0.83474625  0.16942002  1
  Fe  Fe17  1  0.33707079  0.67130230  0.33478441  1
  Ni  Ni18  1  0.66761462  1.00164665  0.00318708  1
  Ni  Ni19  1  0.83776977  0.16928938  0.16989284  1
  Fe  Fe20  1  0.67030199  0.00298486  0.33678721  1
  Ni  Ni21  1  0.66892249  0.33778477  0.00383212  1
  Fe  Fe22  1  0.83604148  0.50202207  0.16984013  1
  Ni  Ni23  1  0.67078596  0.33789814  0.33659208  1
  Ni  Ni24  1  0.66833752  0.66916957  1.00191840  1
  Fe  Fe25  1  0.83632626  0.83611632  0.16948548  1
  Ni  Ni26  1  0.66957829  0.66833526  0.33665734  1
  Fe  Fe27  1  0.16800556  0.16732652  0.50267532  1
  Ni  Ni28  1  1.00266830  0.00296179  0.66768183  1
  Ni  Ni29  1  0.16911449  0.17234768  0.83651061  1
  Cr  Cr30  1  0.16965729  0.50364258  0.50392640  1
  Ni  Ni31  1  0.00295745  0.33652008  0.66902526  1
  Fe  Fe32  1  0.16977400  0.50135482  0.83634093  1
  Fe  Fe33  1  0.16868977  0.83757005  0.50203454  1
  Ni  Ni34  1  1.00055395  0.66911829  0.67028875  1
  Cr  Cr35  1  0.16792045  0.83560947  0.83706254  1
  Ni  Ni36  1  0.50582616  0.16960085  0.50251639  1
  Cr  Cr37  1  0.33706975  0.00392344  0.66902782  1
  Ni  Ni38  1  0.50254392  0.17098637  0.83775762  1
  Ni  Ni39  1  0.50384144  0.50412242  0.50356130  1
  Fe  Fe40  1  0.33744982  0.33676592  0.67032596  1
  Ni  Ni41  1  0.50202346  0.50341075  0.83565041  1
  Ni  Ni42  1  0.50432595  0.83487699  0.50250023  1
  Fe  Fe43  1  0.33839482  0.66789149  0.66997065  1
  Ni  Ni44  1  0.50574793  0.83420694  0.83668221  1
  Ni  Ni45  1  0.83652757  0.16829674  0.50293157  1
  Ni  Ni46  1  0.66922562  1.00159399  0.66883563  1
  Cr  Cr47  1  0.83651016  0.16761010  0.83567893  1
  Fe  Fe48  1  0.83344341  0.50282913  0.50286155  1
  Ni  Ni49  1  0.66864782  0.33817528  0.66817989  1
  Fe  Fe50  1  0.83531798  0.50419592  0.83590090  1
  Ni  Ni51  1  0.83618075  0.83802419  0.50336979  1
  Ni  Ni52  1  0.66967916  0.66883380  0.67002763  1
  Ni  Ni53  1  0.83472236  0.83558164  0.83629415  1
" 