8331,Ni64Fe32Cr3_11,-240.812044730617, 215.31408462636,Ni64Fe32Cr3,"# generated using pymatgen
 data_Cr3(FeNi2)17
_symmetry_space_group_name_H-M   'P 1'
_cell_length_a   7.42468065
_cell_length_b   7.42468065
_cell_length_c   10.50008407
_cell_angle_alpha   90.00000000
_cell_angle_beta   90.00000000
_cell_angle_gamma   90.00000000
_symmetry_Int_Tables_number   1
_chemical_formula_structural   Cr3(FeNi2)17
_chemical_formula_sum   'Cr3 Fe17 Ni34'
_cell_volume   578.82640302
_cell_formula_units_Z   1
loop_
 _symmetry_equiv_pos_site_id
 _symmetry_equiv_pos_as_xyz
  1  'x, y, z'
loop_
 _atom_site_type_symbol
 _atom_site_label
 _atom_site_symmetry_multiplicity
 _atom_site_fract_x
 _atom_site_fract_y
 _atom_site_fract_z
 _atom_site_occupancy
  Fe  Fe0  1  1.00215924  0.00358534  0.00349768  1
  Ni  Ni1  1  0.17039819  0.16896460  0.16866532  1
  Ni  Ni2  1  0.00384789  1.00140801  0.33567783  1
  Ni  Ni3  1  1.00218081  0.33645530  1.00257610  1
  Ni  Ni4  1  0.17063628  0.50311262  0.16886148  1
  Cr  Cr5  1  0.00308581  0.33635155  0.33579114  1
  Ni  Ni6  1  1.00234542  0.66924783  0.00393318  1
  Ni  Ni7  1  0.16943950  0.83648413  0.17022086  1
  Fe  Fe8  1  0.00311524  0.67107039  0.33599000  1
  Fe  Fe9  1  0.33511359  1.00251569  0.00382572  1
  Ni  Ni10  1  0.50218322  0.16992536  0.17050266  1
  Ni  Ni11  1  0.33617286  0.00316252  0.33570579  1
  Fe  Fe12  1  0.33503314  0.33737131  0.00401001  1
  Ni  Ni13  1  0.50250671  0.50270731  0.16948676  1
  Ni  Ni14  1  0.33663909  0.33420374  0.33470779  1
  Fe  Fe15  1  0.33620666  0.66867266  0.00326544  1
  Ni  Ni16  1  0.50274103  0.83592420  0.16941663  1
  Fe  Fe17  1  0.33547803  0.67043206  0.33498921  1
  Fe  Fe18  1  0.67128688  1.00241187  0.00366307  1
  Ni  Ni19  1  0.83597654  0.16872827  0.16837483  1
  Fe  Fe20  1  0.66945912  1.00269535  0.33598874  1
  Ni  Ni21  1  0.67072625  0.33704138  0.00432737  1
  Ni  Ni22  1  0.83541589  0.50367117  0.16923449  1
  Fe  Fe23  1  0.66882182  0.33505838  0.33499319  1
  Fe  Fe24  1  0.67024903  0.66872268  1.00277945  1
  Ni  Ni25  1  0.83638048  0.83616021  0.16984489  1
  Ni  Ni26  1  0.67033779  0.67068287  0.33447091  1
  Ni  Ni27  1  0.16987823  0.16934733  0.50379736  1
  Fe  Fe28  1  1.00243160  0.00385385  0.66909600  1
  Ni  Ni29  1  0.16776982  0.16987743  0.83609299  1
  Ni  Ni30  1  0.16907578  0.50234946  0.50410760  1
  Ni  Ni31  1  1.00267092  0.33675109  0.67003399  1
  Fe  Fe32  1  0.16862970  0.50257670  0.83595116  1
  Fe  Fe33  1  0.16876190  0.83649982  0.50240312  1
  Ni  Ni34  1  1.00134879  0.66891979  0.66864962  1
  Fe  Fe35  1  0.16909559  0.83620054  0.83650839  1
  Fe  Fe36  1  0.50252588  0.16844364  0.50278922  1
  Ni  Ni37  1  0.33590838  1.00261603  0.66857107  1
  Cr  Cr38  1  0.50239909  0.17032027  0.83501575  1
  Cr  Cr39  1  0.50238231  0.50322150  0.50319317  1
  Ni  Ni40  1  0.33464126  0.33452310  0.66989201  1
  Ni  Ni41  1  0.50294197  0.50498755  0.83592223  1
  Ni  Ni42  1  0.50323178  0.83726813  0.50331350  1
  Fe  Fe43  1  0.33608890  0.66932672  0.67030954  1
  Ni  Ni44  1  0.50314334  0.83375447  0.83582830  1
  Ni  Ni45  1  0.83680923  0.16838716  0.50435777  1
  Fe  Fe46  1  0.67052109  1.00208105  0.66890620  1
  Ni  Ni47  1  0.83889401  0.16967990  0.83582686  1
  Ni  Ni48  1  0.83720999  0.50371014  0.50394158  1
  Ni  Ni49  1  0.67124633  0.33707807  0.66901172  1
  Ni  Ni50  1  0.83594751  0.50323210  0.83538372  1
  Ni  Ni51  1  0.83571862  0.83646346  0.50285844  1
  Ni  Ni52  1  0.67097096  0.67018338  0.67165045  1
  Ni  Ni53  1  0.83588882  0.83564882  0.83585601  1
" 