8397,Ni64Cr36_15,-213.645361090677, 136.110192350838,Ni64Cr36,"# generated using pymatgen
 data_Cr17Ni10
_symmetry_space_group_name_H-M   'P 1'
_cell_length_a   7.55317696
_cell_length_b   7.55317696
_cell_length_c   10.68180530
_cell_angle_alpha   90.00000000
_cell_angle_beta   90.00000000
_cell_angle_gamma   90.00000000
_symmetry_Int_Tables_number   1
_chemical_formula_structural   Cr17Ni10
_chemical_formula_sum   'Cr34 Ni20'
_cell_volume   609.40214345
_cell_formula_units_Z   2
loop_
 _symmetry_equiv_pos_site_id
 _symmetry_equiv_pos_as_xyz
  1  'x, y, z'
loop_
 _atom_site_type_symbol
 _atom_site_label
 _atom_site_symmetry_multiplicity
 _atom_site_fract_x
 _atom_site_fract_y
 _atom_site_fract_z
 _atom_site_occupancy
  Cr  Cr0  1  0.99305173  0.99347390  -0.00410211  1
  Ni  Ni1  1  0.15982829  0.16197846  0.16206644  1
  Cr  Cr2  1  -0.00492102  -0.00420985  0.32799095  1
  Ni  Ni3  1  0.99398595  0.32965436  -0.00544353  1
  Cr  Cr4  1  0.15818208  0.49211624  0.16091726  1
  Ni  Ni5  1  -0.00534494  0.32787361  0.32985479  1
  Ni  Ni6  1  0.99272758  0.65759393  0.99316815  1
  Cr  Cr7  1  0.16232570  0.82809168  0.16269653  1
  Cr  Cr8  1  -0.00472404  0.65948530  0.32983364  1
  Cr  Cr9  1  0.32806557  -0.00465983  -0.00413453  1
  Cr  Cr10  1  0.49274855  0.15989713  0.16030627  1
  Ni  Ni11  1  0.32540215  0.99197867  0.32770211  1
  Cr  Cr12  1  0.32777746  0.32923426  0.99260442  1
  Cr  Cr13  1  0.49675430  0.49670516  0.16156507  1
  Cr  Cr14  1  0.32527002  0.32839162  0.32636298  1
  Cr  Cr15  1  0.32614140  0.65832399  0.99172499  1
  Cr  Cr16  1  0.49511784  0.82637654  0.16332664  1
  Ni  Ni17  1  0.32723271  0.66300535  0.32995801  1
  Ni  Ni18  1  0.66148499  -0.00553389  -0.00558545  1
  Cr  Cr19  1  0.82995727  0.16412190  0.15871236  1
  Cr  Cr20  1  0.66187122  -0.00519009  0.32752061  1
  Ni  Ni21  1  0.66213681  0.32875156  0.99317888  1
  Cr  Cr22  1  0.82792113  0.49454331  0.15957849  1
  Cr  Cr23  1  0.66423406  0.32806085  0.33038843  1
  Ni  Ni24  1  0.66198038  0.65968024  0.99322847  1
  Cr  Cr25  1  0.82528267  0.82419925  0.15707673  1
  Ni  Ni26  1  0.65982411  0.65990419  0.32875963  1
  Cr  Cr27  1  0.15919620  0.16030901  0.49552872  1
  Ni  Ni28  1  -0.00377396  -0.00385245  0.65865332  1
  Cr  Cr29  1  0.15899402  0.16256382  0.82545227  1
  Ni  Ni30  1  0.15732025  0.49496298  0.49332917  1
  Ni  Ni31  1  -0.00560365  0.32764996  0.65846329  1
  Ni  Ni32  1  0.15967380  0.49297222  0.82889744  1
  Ni  Ni33  1  0.16284934  0.82785131  0.49427401  1
  Cr  Cr34  1  -0.00486474  0.66012247  0.65978989  1
  Cr  Cr35  1  0.15978575  0.82790873  0.82563132  1
  Cr  Cr36  1  0.49275572  0.15872130  0.49465496  1
  Ni  Ni37  1  0.32435676  0.99302163  0.65939903  1
  Cr  Cr38  1  0.49437884  0.16115370  0.82789266  1
  Cr  Cr39  1  0.49568850  0.49757156  0.49268349  1
  Cr  Cr40  1  0.32670865  0.33036071  0.66400040  1
  Ni  Ni41  1  0.49579348  0.49566384  0.82904908  1
  Cr  Cr42  1  0.49138855  0.82678474  0.49275955  1
  Cr  Cr43  1  0.32659035  0.65943796  0.66191364  1
  Cr  Cr44  1  0.49617032  0.82646435  0.82690651  1
  Ni  Ni45  1  0.83175391  0.16448660  0.49550469  1
  Cr  Cr46  1  0.66318471  -0.00530919  0.66032072  1
  Cr  Cr47  1  0.82953197  0.16224508  0.82787279  1
  Ni  Ni48  1  0.83000285  0.49221840  0.49398118  1
  Cr  Cr49  1  0.66241639  0.32945052  0.65920176  1
  Cr  Cr50  1  0.82806289  0.49439803  0.82994805  1
  Cr  Cr51  1  0.82759102  0.82586839  0.49597067  1
  Ni  Ni52  1  0.66103380  0.65903517  0.66103642  1
  Cr  Cr53  1  0.82681762  0.82620865  0.82974602  1
" 