1219,Ni64Fe7Cr28_11,-228.611375609455, 162.123495315528,Ni64Fe7Cr28,"# generated using pymatgen
 data_Cr8Fe2Ni17
_symmetry_space_group_name_H-M   'P 1'
_cell_length_a   7.47729098
_cell_length_b   7.47729098
_cell_length_c   10.57448632
_cell_angle_alpha   90.00000000
_cell_angle_beta   90.00000000
_cell_angle_gamma   90.00000000
_symmetry_Int_Tables_number   1
_chemical_formula_structural   Cr8Fe2Ni17
_chemical_formula_sum   'Cr16 Fe4 Ni34'
_cell_volume   591.21826605
_cell_formula_units_Z   2
loop_
 _symmetry_equiv_pos_site_id
 _symmetry_equiv_pos_as_xyz
  1  'x, y, z'
loop_
 _atom_site_type_symbol
 _atom_site_label
 _atom_site_symmetry_multiplicity
 _atom_site_fract_x
 _atom_site_fract_y
 _atom_site_fract_z
 _atom_site_occupancy
  Ni  Ni0  1  0.99606717  0.99846761  0.00016097  1
  Cr  Cr1  1  0.16448124  0.16555275  0.16798367  1
  Ni  Ni2  1  0.00039705  0.99748354  0.33153276  1
  Cr  Cr3  1  0.99791747  0.33261666  0.99759815  1
  Cr  Cr4  1  0.16671475  0.50064461  0.16582307  1
  Ni  Ni5  1  0.99815676  0.33401524  0.33236950  1
  Fe  Fe6  1  0.99729037  0.66788110  0.00028755  1
  Ni  Ni7  1  0.16423421  0.83188525  0.16728729  1
  Ni  Ni8  1  0.99556564  0.66670961  0.33086018  1
  Cr  Cr9  1  0.33305673  0.99899354  0.99921386  1
  Cr  Cr10  1  0.50137365  0.16553881  0.16607983  1
  Ni  Ni11  1  0.33356746  0.99814519  0.33456018  1
  Ni  Ni12  1  0.33117668  0.33393322  0.99547989  1
  Cr  Cr13  1  0.49884550  0.50035107  0.16721415  1
  Ni  Ni14  1  0.33284451  0.33071198  0.33578203  1
  Ni  Ni15  1  0.33311411  0.66660862  0.00170191  1
  Ni  Ni16  1  0.50075916  0.83145269  0.16639599  1
  Fe  Fe17  1  0.33266170  0.66999310  0.33350183  1
  Ni  Ni18  1  0.66992669  0.99648705  -0.00010536  1
  Ni  Ni19  1  0.83288541  0.16345938  0.16842697  1
  Ni  Ni20  1  0.66446609  0.99519936  0.33078112  1
  Cr  Cr21  1  0.66870222  0.33274884  -0.00057634  1
  Ni  Ni22  1  0.83254563  0.50124326  0.16792028  1
  Fe  Fe23  1  0.66767680  0.33277062  0.33369193  1
  Ni  Ni24  1  0.66859046  0.66854206  0.00102415  1
  Ni  Ni25  1  0.83252532  0.83337657  0.16524811  1
  Ni  Ni26  1  0.66687252  0.66646100  0.33272684  1
  Ni  Ni27  1  0.16599957  0.16408990  0.49646763  1
  Ni  Ni28  1  0.99916263  0.99871516  0.66661715  1
  Ni  Ni29  1  0.16355150  0.16644522  0.83374456  1
  Cr  Cr30  1  0.16430115  0.50200076  0.49750133  1
  Cr  Cr31  1  0.99786330  0.33253957  0.66755093  1
  Ni  Ni32  1  0.16563061  0.50124386  0.83432997  1
  Ni  Ni33  1  0.16530386  0.83312872  0.49829010  1
  Ni  Ni34  1  0.99757444  0.66592998  0.66762958  1
  Cr  Cr35  1  0.16261820  0.83002311  0.83184089  1
  Ni  Ni36  1  0.50097216  0.16611035  0.49806636  1
  Cr  Cr37  1  0.33280821  0.99928448  0.66291365  1
  Ni  Ni38  1  0.50316686  0.16715456  0.83298656  1
  Ni  Ni39  1  0.50108590  0.50000732  0.49811321  1
  Cr  Cr40  1  0.33300926  0.33102088  0.66707424  1
  Cr  Cr41  1  0.49764241  0.50123698  0.83287098  1
  Ni  Ni42  1  0.50019445  0.83162823  0.49876574  1
  Ni  Ni43  1  0.33290153  0.66585305  0.66242539  1
  Cr  Cr44  1  0.50388676  0.83179133  0.83226967  1
  Cr  Cr45  1  0.83267631  0.16439855  0.49719785  1
  Ni  Ni46  1  0.66619705  -0.00040728  0.66733125  1
  Ni  Ni47  1  0.83136355  0.16170466  0.83153979  1
  Ni  Ni48  1  0.83013772  0.50052132  0.49896093  1
  Ni  Ni49  1  0.66644801  0.33352898  0.66469702  1
  Fe  Fe50  1  0.83178091  0.50183585  0.83141083  1
  Cr  Cr51  1  0.83393257  0.83262993  0.50190985  1
  Ni  Ni52  1  0.66722648  0.66540282  0.66488944  1
  Ni  Ni53  1  0.83316113  0.83392082  0.83264646  1
" 