7347,Ni65Fe35_2,-237.723555975441, 208.334182338613,Ni65Fe35,"# generated using pymatgen
 data_Fe35Ni19
_symmetry_space_group_name_H-M   'P 1'
_cell_length_a   7.39968048
_cell_length_b   7.39968048
_cell_length_c   10.46472850
_cell_angle_alpha   90.00000000
_cell_angle_beta   90.00000000
_cell_angle_gamma   90.00000000
_symmetry_Int_Tables_number   1
_chemical_formula_structural   Fe35Ni19
_chemical_formula_sum   'Fe35 Ni19'
_cell_volume   572.99904724
_cell_formula_units_Z   1
loop_
 _symmetry_equiv_pos_site_id
 _symmetry_equiv_pos_as_xyz
  1  'x, y, z'
loop_
 _atom_site_type_symbol
 _atom_site_label
 _atom_site_symmetry_multiplicity
 _atom_site_fract_x
 _atom_site_fract_y
 _atom_site_fract_z
 _atom_site_occupancy
  Fe  Fe0  1  1.00418799  0.00491703  0.00509376  1
  Fe  Fe1  1  0.17129312  0.17180124  0.17189634  1
  Ni  Ni2  1  1.00444571  1.00301017  0.33798885  1
  Fe  Fe3  1  1.00442286  0.33821548  0.00505738  1
  Ni  Ni4  1  0.17204503  0.50474827  0.17131050  1
  Fe  Fe5  1  0.00490568  0.33684666  0.33758002  1
  Fe  Fe6  1  0.00497667  0.67052367  0.00476551  1
  Fe  Fe7  1  0.17044688  0.83807860  0.17218689  1
  Ni  Ni8  1  1.00337110  0.67199787  0.33707220  1
  Fe  Fe9  1  0.33836586  1.00426715  1.00432290  1
  Fe  Fe10  1  0.50406914  0.17170459  0.17164354  1
  Ni  Ni11  1  0.33754337  0.00644581  0.33696762  1
  Ni  Ni12  1  0.33778171  0.33706602  1.00428616  1
  Fe  Fe13  1  0.50431915  0.50377696  0.17021630  1
  Ni  Ni14  1  0.33790032  0.33675171  0.33788653  1
  Fe  Fe15  1  0.33839485  0.67036037  0.00462896  1
  Fe  Fe16  1  0.50491895  0.83817380  0.17120239  1
  Fe  Fe17  1  0.33702904  0.67226011  0.33750333  1
  Fe  Fe18  1  0.67110117  0.00481933  0.00540134  1
  Ni  Ni19  1  0.83751570  0.17065476  0.17176949  1
  Ni  Ni20  1  0.67166743  1.00419172  0.33808623  1
  Fe  Fe21  1  0.67094082  0.33823914  1.00399295  1
  Fe  Fe22  1  0.83838911  0.50462699  0.17155017  1
  Fe  Fe23  1  0.67177420  0.33682600  0.33829301  1
  Ni  Ni24  1  0.67265636  0.67123450  0.00484640  1
  Fe  Fe25  1  0.83829054  0.83782756  0.17189731  1
  Fe  Fe26  1  0.67143189  0.67220083  0.33823536  1
  Ni  Ni27  1  0.17188258  0.17023368  0.50400038  1
  Fe  Fe28  1  0.00478405  1.00447094  0.67040151  1
  Fe  Fe29  1  0.17249125  0.17183903  0.83726774  1
  Fe  Fe30  1  0.17015306  0.50503623  0.50391817  1
  Fe  Fe31  1  1.00440102  0.33823860  0.67101774  1
  Fe  Fe32  1  0.17186206  0.50425959  0.83853431  1
  Ni  Ni33  1  0.17105477  0.83906465  0.50435945  1
  Ni  Ni34  1  1.00274938  0.67178102  0.67193883  1
  Fe  Fe35  1  0.17162349  0.83755651  0.83705095  1
  Fe  Fe36  1  0.50402987  0.17073805  0.50455327  1
  Ni  Ni37  1  0.33732862  0.00635153  0.67133009  1
  Fe  Fe38  1  0.50397239  0.17207426  0.83745979  1
  Fe  Fe39  1  0.50464286  0.50445373  0.50561595  1
  Ni  Ni40  1  0.33851144  0.33624232  0.67148318  1
  Ni  Ni41  1  0.50455892  0.50455811  0.83814189  1
  Fe  Fe42  1  0.50462621  0.83846634  0.50447831  1
  Fe  Fe43  1  0.33844479  0.67081142  0.67152370  1
  Fe  Fe44  1  0.50484719  0.83731662  0.83797470  1
  Fe  Fe45  1  0.83850473  0.17052453  0.50378174  1
  Fe  Fe46  1  0.67100446  1.00441391  0.67075091  1
  Fe  Fe47  1  0.83718992  0.17183688  0.83853618  1
  Ni  Ni48  1  0.83696099  0.50517581  0.50446187  1
  Ni  Ni49  1  0.67013921  0.33896424  0.67184204  1
  Fe  Fe50  1  0.83695300  0.50513271  0.83690137  1
  Ni  Ni51  1  0.83814705  0.83741803  0.50446009  1
  Ni  Ni52  1  0.67357296  0.67059552  0.67092322  1
  Fe  Fe53  1  0.83718867  0.83668899  0.83742077  1
" 