4252,Ni65Fe11Cr23_10,-231.17336224089, 168.869499947151,Ni65Fe11Cr23,"# generated using pymatgen
 data_Cr13Fe6Ni35
_symmetry_space_group_name_H-M   'P 1'
_cell_length_a   7.46053811
_cell_length_b   7.46053811
_cell_length_c   10.55079418
_cell_angle_alpha   90.00000000
_cell_angle_beta   90.00000000
_cell_angle_gamma   90.00000000
_symmetry_Int_Tables_number   1
_chemical_formula_structural   Cr13Fe6Ni35
_chemical_formula_sum   'Cr13 Fe6 Ni35'
_cell_volume   587.25328937
_cell_formula_units_Z   1
loop_
 _symmetry_equiv_pos_site_id
 _symmetry_equiv_pos_as_xyz
  1  'x, y, z'
loop_
 _atom_site_type_symbol
 _atom_site_label
 _atom_site_symmetry_multiplicity
 _atom_site_fract_x
 _atom_site_fract_y
 _atom_site_fract_z
 _atom_site_occupancy
  Ni  Ni0  1  0.00180515  0.00195500  0.00161774  1
  Ni  Ni1  1  0.16689119  0.16967705  0.16754551  1
  Cr  Cr2  1  0.00260652  0.00241684  0.33420466  1
  Ni  Ni3  1  0.00115983  0.33152508  0.00095619  1
  Ni  Ni4  1  0.16607436  0.49714459  0.16522337  1
  Ni  Ni5  1  0.99950295  0.33382626  0.33371854  1
  Fe  Fe6  1  0.00302770  0.66515072  0.00249622  1
  Fe  Fe7  1  0.16705736  0.83543220  0.16494610  1
  Cr  Cr8  1  1.00015008  0.66493780  0.33229456  1
  Ni  Ni9  1  0.33015382  0.00045267  0.00084929  1
  Cr  Cr10  1  0.49776609  0.16673895  0.16731353  1
  Ni  Ni11  1  0.33295432  1.00017221  0.33444351  1
  Ni  Ni12  1  0.33305723  0.33494062  0.99976181  1
  Fe  Fe13  1  0.50184830  0.49964043  0.16578900  1
  Fe  Fe14  1  0.33269236  0.33411234  0.33461360  1
  Ni  Ni15  1  0.33406756  0.66612198  0.00117780  1
  Ni  Ni16  1  0.50063022  0.83288295  0.16585560  1
  Cr  Cr17  1  0.33508766  0.66697054  0.33204879  1
  Fe  Fe18  1  0.66646952  0.00247368  0.00161896  1
  Ni  Ni19  1  0.83535829  0.16917594  0.16528898  1
  Cr  Cr20  1  0.66679534  1.00035452  0.33485616  1
  Ni  Ni21  1  0.66749245  0.33530101  1.00034504  1
  Ni  Ni22  1  0.83457132  0.49972539  0.16673180  1
  Ni  Ni23  1  0.66876973  0.33620981  0.33367418  1
  Ni  Ni24  1  0.66512168  0.66461790  0.00364745  1
  Ni  Ni25  1  0.83106552  0.83216096  0.16496185  1
  Ni  Ni26  1  0.66610423  0.66423600  0.33386115  1
  Ni  Ni27  1  0.16823259  0.17028522  0.49882645  1
  Cr  Cr28  1  0.00165581  0.00379107  0.66560455  1
  Ni  Ni29  1  0.16741178  0.16960322  0.83512519  1
  Ni  Ni30  1  0.16717592  0.49775957  0.50149938  1
  Ni  Ni31  1  0.00233029  0.33264877  0.66658856  1
  Ni  Ni32  1  0.16951538  0.49866996  0.83386150  1
  Ni  Ni33  1  0.17105377  0.83310301  0.49987090  1
  Cr  Cr34  1  0.00377941  0.66576565  0.66546298  1
  Ni  Ni35  1  0.16808439  0.83254007  0.83717598  1
  Ni  Ni36  1  0.49830029  0.16838515  0.49845827  1
  Cr  Cr37  1  0.33244498  0.00190112  0.66701422  1
  Ni  Ni38  1  0.49818415  0.16914938  0.83686454  1
  Ni  Ni39  1  0.50026053  0.50070564  0.49962243  1
  Ni  Ni40  1  0.33290376  0.33602259  0.66700111  1
  Ni  Ni41  1  0.49801220  0.50042031  0.83515805  1
  Ni  Ni42  1  0.49953030  0.83230745  0.50047789  1
  Ni  Ni43  1  0.33456079  0.66442141  0.66724162  1
  Cr  Cr44  1  0.50003503  0.83204601  0.83447323  1
  Ni  Ni45  1  0.83462230  0.17200089  0.49937945  1
  Cr  Cr46  1  0.66707669  0.00300600  0.66598776  1
  Ni  Ni47  1  0.83544183  0.16792981  0.83738997  1
  Ni  Ni48  1  0.83368417  0.49878310  0.49930360  1
  Cr  Cr49  1  0.66526536  0.33396436  0.66832882  1
  Cr  Cr50  1  0.83533671  0.50013425  0.83467672  1
  Fe  Fe51  1  0.83282990  0.83176903  0.49967934  1
  Ni  Ni52  1  0.66387606  0.66497739  0.66300299  1
  Cr  Cr53  1  0.83367296  0.83311428  0.83564121  1
" 