6249,Ni65Fe28Cr5_13,-239.363663792439, 208.10241477309,Ni65Fe28Cr5,"# generated using pymatgen
 data_Cr4(Fe3Ni7)5
_symmetry_space_group_name_H-M   'P 1'
_cell_length_a   7.42410467
_cell_length_b   7.42410467
_cell_length_c   10.49926951
_cell_angle_alpha   90.00000000
_cell_angle_beta   90.00000000
_cell_angle_gamma   90.00000000
_symmetry_Int_Tables_number   1
_chemical_formula_structural   Cr4(Fe3Ni7)5
_chemical_formula_sum   'Cr4 Fe15 Ni35'
_cell_volume   578.69170371
_cell_formula_units_Z   1
loop_
 _symmetry_equiv_pos_site_id
 _symmetry_equiv_pos_as_xyz
  1  'x, y, z'
loop_
 _atom_site_type_symbol
 _atom_site_label
 _atom_site_symmetry_multiplicity
 _atom_site_fract_x
 _atom_site_fract_y
 _atom_site_fract_z
 _atom_site_occupancy
  Fe  Fe0  1  0.00323983  1.00270798  1.00286908  1
  Ni  Ni1  1  0.17009243  0.16909675  0.17011009  1
  Fe  Fe2  1  0.00471204  0.00324489  0.33668508  1
  Ni  Ni3  1  0.00344396  0.33574238  0.00339676  1
  Ni  Ni4  1  0.17011878  0.50379837  0.17000196  1
  Ni  Ni5  1  0.00309752  0.33601315  0.33612512  1
  Ni  Ni6  1  0.00302149  0.67001010  0.00410635  1
  Ni  Ni7  1  0.16938765  0.83578033  0.17060002  1
  Fe  Fe8  1  0.00499157  0.66940345  0.33558286  1
  Ni  Ni9  1  0.33653788  1.00286260  1.00273219  1
  Ni  Ni10  1  0.50262694  0.17140668  0.16959058  1
  Ni  Ni11  1  0.33463573  1.00277655  0.33673844  1
  Ni  Ni12  1  0.33580972  0.33583938  0.00324895  1
  Ni  Ni13  1  0.50232922  0.50121792  0.16874659  1
  Ni  Ni14  1  0.33497125  0.33583137  0.33534452  1
  Ni  Ni15  1  0.33629235  0.66997582  1.00270618  1
  Fe  Fe16  1  0.50093498  0.83606813  0.16767072  1
  Ni  Ni17  1  0.33442654  0.67006704  0.33588583  1
  Fe  Fe18  1  0.66918973  0.00336946  1.00251692  1
  Ni  Ni19  1  0.83595733  0.17067193  0.16939570  1
  Cr  Cr20  1  0.66950902  0.00386978  0.33472221  1
  Ni  Ni21  1  0.66942403  0.33550052  0.00401487  1
  Ni  Ni22  1  0.83622956  0.50192602  0.16990082  1
  Ni  Ni23  1  0.67060542  0.33580365  0.33638665  1
  Ni  Ni24  1  0.66936043  0.67074077  0.00356783  1
  Ni  Ni25  1  0.83854022  0.83608028  0.16784763  1
  Cr  Cr26  1  0.66987617  0.66901714  0.33559057  1
  Fe  Fe27  1  0.16855671  0.16910275  0.50245466  1
  Ni  Ni28  1  1.00130042  0.00490676  0.66964411  1
  Fe  Fe29  1  0.17023813  0.17022208  0.83647297  1
  Fe  Fe30  1  0.16972594  0.50218254  0.50233098  1
  Ni  Ni31  1  0.00428661  0.33317274  0.66915668  1
  Ni  Ni32  1  0.17228257  0.50343835  0.83660770  1
  Ni  Ni33  1  0.17020582  0.83643130  0.50166997  1
  Cr  Cr34  1  0.00323266  0.67014114  0.66923563  1
  Ni  Ni35  1  0.17117555  0.83610176  0.83640999  1
  Fe  Fe36  1  0.50245505  0.16946831  0.50321360  1
  Fe  Fe37  1  0.33607179  1.00222888  0.66991837  1
  Ni  Ni38  1  0.50376411  0.16965692  0.83550157  1
  Fe  Fe39  1  0.50230834  0.50283670  0.50358387  1
  Ni  Ni40  1  0.33542000  0.33655778  0.67008080  1
  Ni  Ni41  1  0.50091207  0.50295790  0.83558723  1
  Fe  Fe42  1  0.50187043  0.83637378  0.50496496  1
  Ni  Ni43  1  0.33841450  0.66907313  0.67008086  1
  Ni  Ni44  1  0.50149641  0.83606316  0.83541899  1
  Ni  Ni45  1  0.83628147  0.17030131  0.50362134  1
  Ni  Ni46  1  0.67048737  1.00191305  0.67005068  1
  Ni  Ni47  1  0.83552099  0.16854864  0.83565915  1
  Fe  Fe48  1  0.83664340  0.50159689  0.50255558  1
  Fe  Fe49  1  0.66905161  0.33517494  0.66916260  1
  Cr  Cr50  1  0.83548867  0.50126705  0.83661959  1
  Ni  Ni51  1  0.83778612  0.83754843  0.50468625  1
  Ni  Ni52  1  0.66710312  0.67206230  0.66888959  1
  Fe  Fe53  1  0.83473334  0.83802396  0.83651275  1
" 