4073,Ni65Fe24Cr10_14,-238.058871883334, 202.359521121834,Ni65Fe24Cr10,"# generated using pymatgen
 data_Cr6Fe13Ni35
_symmetry_space_group_name_H-M   'P 1'
_cell_length_a   7.43351623
_cell_length_b   7.43351623
_cell_length_c   10.51257946
_cell_angle_alpha   90.00000000
_cell_angle_beta   90.00000000
_cell_angle_gamma   90.00000000
_symmetry_Int_Tables_number   1
_chemical_formula_structural   Cr6Fe13Ni35
_chemical_formula_sum   'Cr6 Fe13 Ni35'
_cell_volume   580.89532223
_cell_formula_units_Z   1
loop_
 _symmetry_equiv_pos_site_id
 _symmetry_equiv_pos_as_xyz
  1  'x, y, z'
loop_
 _atom_site_type_symbol
 _atom_site_label
 _atom_site_symmetry_multiplicity
 _atom_site_fract_x
 _atom_site_fract_y
 _atom_site_fract_z
 _atom_site_occupancy
  Cr  Cr0  1  0.00300473  0.00232615  1.00112175  1
  Ni  Ni1  1  0.17103791  0.17156903  0.16888073  1
  Ni  Ni2  1  1.00061551  1.00162138  0.33765010  1
  Fe  Fe3  1  0.00330624  0.33633219  1.00160843  1
  Ni  Ni4  1  0.16999889  0.50155114  0.16948330  1
  Ni  Ni5  1  0.00273253  0.33566392  0.33525492  1
  Cr  Cr6  1  1.00189059  0.66773620  0.00301012  1
  Ni  Ni7  1  0.16997187  0.83364912  0.17043743  1
  Fe  Fe8  1  1.00217324  0.67014987  0.33521716  1
  Ni  Ni9  1  0.33742814  0.00343189  0.00249729  1
  Ni  Ni10  1  0.50154659  0.16920687  0.16775230  1
  Cr  Cr11  1  0.33542540  0.00285354  0.33521206  1
  Ni  Ni12  1  0.33610165  0.33508045  0.00295339  1
  Fe  Fe13  1  0.50086080  0.50267056  0.16799024  1
  Ni  Ni14  1  0.33538820  0.33662402  0.33459603  1
  Ni  Ni15  1  0.33689397  0.66825374  1.00143098  1
  Ni  Ni16  1  0.50343222  0.83519624  0.16717777  1
  Ni  Ni17  1  0.33597383  0.66743689  0.33544905  1
  Ni  Ni18  1  0.66666225  1.00180096  1.00156928  1
  Cr  Cr19  1  0.83414674  0.16864108  0.16943065  1
  Ni  Ni20  1  0.67069350  1.00103648  0.33608620  1
  Ni  Ni21  1  0.66739226  0.33612244  1.00085720  1
  Fe  Fe22  1  0.83523814  0.50310297  0.16947437  1
  Fe  Fe23  1  0.66791847  0.33536461  0.33620392  1
  Ni  Ni24  1  0.66823596  0.66884387  1.00219227  1
  Ni  Ni25  1  0.83336171  0.83414914  0.17094186  1
  Fe  Fe26  1  0.66909918  0.66977526  0.33600032  1
  Ni  Ni27  1  0.16930251  0.16832389  0.50266926  1
  Fe  Fe28  1  0.00446541  1.00139600  0.66885726  1
  Ni  Ni29  1  0.17017026  0.16987288  0.83521716  1
  Cr  Cr30  1  0.16886616  0.50235780  0.50267588  1
  Fe  Fe31  1  1.00182133  0.33533319  0.66960206  1
  Ni  Ni32  1  0.16973426  0.50171810  0.83509334  1
  Ni  Ni33  1  0.16813738  0.83649220  0.50271076  1
  Ni  Ni34  1  1.00039960  0.66931016  0.66921795  1
  Ni  Ni35  1  0.17000122  0.83517717  0.83362316  1
  Ni  Ni36  1  0.50206805  0.16987726  0.50166547  1
  Ni  Ni37  1  0.33378415  0.00376058  0.66864618  1
  Ni  Ni38  1  0.50176981  0.17016603  0.83734868  1
  Fe  Fe39  1  0.50318764  0.50277274  0.50272837  1
  Ni  Ni40  1  0.33563704  0.33397804  0.66921896  1
  Ni  Ni41  1  0.50247988  0.50170342  0.83527244  1
  Ni  Ni42  1  0.50299190  0.83517778  0.50247419  1
  Fe  Fe43  1  0.33613860  0.67009183  0.66972465  1
  Fe  Fe44  1  0.50163107  0.83485618  0.83677920  1
  Fe  Fe45  1  0.83668023  0.16859655  0.50090447  1
  Cr  Cr46  1  0.66863250  1.00169118  0.66947825  1
  Ni  Ni47  1  0.83482730  0.17043009  0.83536261  1
  Ni  Ni48  1  0.83408129  0.50288288  0.50207670  1
  Fe  Fe49  1  0.66842343  0.33754613  0.66984028  1
  Ni  Ni50  1  0.83455249  0.50187146  0.83543288  1
  Ni  Ni51  1  0.83564083  0.83429463  0.50068476  1
  Ni  Ni52  1  0.67099366  0.66745592  0.66885498  1
  Ni  Ni53  1  0.83484410  0.83446851  0.83515360  1
" 