2810,Ni65Fe17Cr16_14,-234.474830662392, 186.215002072878,Ni65Fe17Cr16,"# generated using pymatgen
 data_Cr10Fe9Ni35
_symmetry_space_group_name_H-M   'P 1'
_cell_length_a   7.44930849
_cell_length_b   7.44930849
_cell_length_c   10.53491309
_cell_angle_alpha   90.00000000
_cell_angle_beta   90.00000000
_cell_angle_gamma   90.00000000
_symmetry_Int_Tables_number   1
_chemical_formula_structural   Cr10Fe9Ni35
_chemical_formula_sum   'Cr10 Fe9 Ni35'
_cell_volume   584.60547210
_cell_formula_units_Z   1
loop_
 _symmetry_equiv_pos_site_id
 _symmetry_equiv_pos_as_xyz
  1  'x, y, z'
loop_
 _atom_site_type_symbol
 _atom_site_label
 _atom_site_symmetry_multiplicity
 _atom_site_fract_x
 _atom_site_fract_y
 _atom_site_fract_z
 _atom_site_occupancy
  Ni  Ni0  1  0.99843653  0.00313808  0.00184340  1
  Ni  Ni1  1  0.16869983  0.16760213  0.16828179  1
  Ni  Ni2  1  0.99943680  0.00396847  0.33472065  1
  Cr  Cr3  1  0.00204220  0.33152398  1.00105711  1
  Cr  Cr4  1  0.16867184  0.49827084  0.16926204  1
  Ni  Ni5  1  1.00104958  0.33126740  0.33553227  1
  Cr  Cr6  1  0.99789251  0.66915140  0.99950608  1
  Cr  Cr7  1  0.16826704  0.83793824  0.16775100  1
  Cr  Cr8  1  1.00076590  0.66834416  0.33642755  1
  Fe  Fe9  1  0.33615728  0.00417138  0.00146013  1
  Ni  Ni10  1  0.50143680  0.16772760  0.16654357  1
  Fe  Fe11  1  0.33429043  0.00198405  0.33447086  1
  Ni  Ni12  1  0.33611217  0.33270999  1.00010199  1
  Fe  Fe13  1  0.50366554  0.49990092  0.16867891  1
  Ni  Ni14  1  0.33442644  0.33575396  0.33440551  1
  Cr  Cr15  1  0.33829236  0.66600037  1.00075856  1
  Ni  Ni16  1  0.50399994  0.83554328  0.16843854  1
  Ni  Ni17  1  0.33762933  0.66705371  0.33643502  1
  Ni  Ni18  1  0.66861246  1.00002468  1.00058118  1
  Ni  Ni19  1  0.83343745  0.16734081  0.16901954  1
  Ni  Ni20  1  0.66938032  1.00076858  0.33406674  1
  Fe  Fe21  1  0.66672974  0.33429508  0.00146270  1
  Ni  Ni22  1  0.83068163  0.50023877  0.16776791  1
  Ni  Ni23  1  0.66809432  0.33413530  0.33299057  1
  Ni  Ni24  1  0.66692630  0.66981756  0.00203097  1
  Ni  Ni25  1  0.83081334  0.83599228  0.16689396  1
  Fe  Fe26  1  0.66671113  0.66759640  0.33423772  1
  Ni  Ni27  1  0.16633877  0.16898849  0.49971464  1
  Cr  Cr28  1  0.99914233  0.00223109  0.66638959  1
  Ni  Ni29  1  0.16862081  0.17038200  0.83557360  1
  Ni  Ni30  1  0.16837657  0.50108505  0.50283172  1
  Ni  Ni31  1  0.00178816  0.33573792  0.66739566  1
  Ni  Ni32  1  0.16940200  0.49868047  0.83159022  1
  Ni  Ni33  1  0.16940706  0.83350070  0.50142187  1
  Ni  Ni34  1  0.00363879  0.66530235  0.66768932  1
  Cr  Cr35  1  0.16794326  0.83429955  0.83445664  1
  Cr  Cr36  1  0.50237948  0.16793553  0.50248754  1
  Fe  Fe37  1  0.33577559  1.00061897  0.66764156  1
  Fe  Fe38  1  0.50156771  0.16772709  0.83488195  1
  Ni  Ni39  1  0.50002427  0.50252697  0.49933437  1
  Fe  Fe40  1  0.33326461  0.33626537  0.66879366  1
  Ni  Ni41  1  0.50044698  0.50003350  0.83553134  1
  Ni  Ni42  1  0.50014151  0.83320903  0.50059214  1
  Ni  Ni43  1  0.33357720  0.66657121  0.66687944  1
  Ni  Ni44  1  0.50332146  0.83513894  0.83454310  1
  Ni  Ni45  1  0.83546431  0.16886861  0.50000999  1
  Ni  Ni46  1  0.66734454  0.00212151  0.66892536  1
  Ni  Ni47  1  0.83309728  0.16750528  0.83454241  1
  Ni  Ni48  1  0.83517367  0.49945593  0.50197197  1
  Ni  Ni49  1  0.66861867  0.33295061  0.66929541  1
  Fe  Fe50  1  0.83411800  0.50072733  0.83338810  1
  Ni  Ni51  1  0.83402363  0.83524516  0.50037303  1
  Cr  Cr52  1  0.66689516  0.66900846  0.66701098  1
  Ni  Ni53  1  0.83174438  0.83591887  0.83630353  1
" 