212,Ni65Fe28Cr5_2,-239.449311008604, 210.556413374917,Ni65Fe28Cr5,"# generated using pymatgen
 data_Cr4(Fe3Ni7)5
_symmetry_space_group_name_H-M   'P 1'
_cell_length_a   7.42169649
_cell_length_b   7.42169649
_cell_length_c   10.49586384
_cell_angle_alpha   90.00000000
_cell_angle_beta   90.00000000
_cell_angle_gamma   90.00000000
_symmetry_Int_Tables_number   1
_chemical_formula_structural   Cr4(Fe3Ni7)5
_chemical_formula_sum   'Cr4 Fe15 Ni35'
_cell_volume   578.12875124
_cell_formula_units_Z   1
loop_
 _symmetry_equiv_pos_site_id
 _symmetry_equiv_pos_as_xyz
  1  'x, y, z'
loop_
 _atom_site_type_symbol
 _atom_site_label
 _atom_site_symmetry_multiplicity
 _atom_site_fract_x
 _atom_site_fract_y
 _atom_site_fract_z
 _atom_site_occupancy
  Ni  Ni0  1  0.00399749  1.00214451  0.00346026  1
  Ni  Ni1  1  0.16769094  0.17230250  0.16806721  1
  Ni  Ni2  1  0.00482092  1.00110295  0.33655047  1
  Fe  Fe3  1  1.00103386  0.33668186  0.00323688  1
  Ni  Ni4  1  0.16742382  0.50173748  0.17050986  1
  Fe  Fe5  1  1.00098950  0.33565467  0.33679931  1
  Ni  Ni6  1  1.00233617  0.67134512  0.00408983  1
  Fe  Fe7  1  0.17041533  0.83596334  0.16789329  1
  Ni  Ni8  1  0.00380349  0.66966205  0.33584813  1
  Fe  Fe9  1  0.33785301  1.00229507  1.00230183  1
  Ni  Ni10  1  0.50212900  0.17001431  0.16866243  1
  Cr  Cr11  1  0.33485978  0.00457822  0.33554589  1
  Ni  Ni12  1  0.33649006  0.33429208  0.00345641  1
  Cr  Cr13  1  0.50137120  0.50469818  0.16974467  1
  Fe  Fe14  1  0.33459554  0.33773158  0.33676209  1
  Ni  Ni15  1  0.33520971  0.66902220  1.00294729  1
  Ni  Ni16  1  0.50671698  0.83668782  0.16751700  1
  Fe  Fe17  1  0.33689931  0.67085659  0.33655070  1
  Ni  Ni18  1  0.67140902  0.00405677  0.00370612  1
  Fe  Fe19  1  0.83601033  0.17027678  0.16934928  1
  Cr  Cr20  1  0.67095456  0.00375997  0.33716226  1
  Ni  Ni21  1  0.66801639  0.33551040  1.00187035  1
  Fe  Fe22  1  0.83602022  0.50314243  0.17019991  1
  Ni  Ni23  1  0.66801720  0.33835163  0.33769465  1
  Ni  Ni24  1  0.67172326  0.66978731  1.00180848  1
  Ni  Ni25  1  0.83691971  0.83652542  0.16986021  1
  Ni  Ni26  1  0.67254730  0.66786025  0.33752245  1
  Fe  Fe27  1  0.16862619  0.16961805  0.50442362  1
  Ni  Ni28  1  0.00404533  1.00116822  0.66922025  1
  Ni  Ni29  1  0.16881527  0.16968922  0.83627105  1
  Ni  Ni30  1  0.17018341  0.50187383  0.50225870  1
  Fe  Fe31  1  1.00101302  0.33455084  0.66866618  1
  Cr  Cr32  1  0.16979185  0.50190183  0.83575772  1
  Fe  Fe33  1  0.16854819  0.83396447  0.50497189  1
  Ni  Ni34  1  1.00224150  0.67046313  0.66910310  1
  Ni  Ni35  1  0.16915960  0.83688271  0.83694823  1
  Fe  Fe36  1  0.50464442  0.17183091  0.50499143  1
  Ni  Ni37  1  0.33545315  0.00490269  0.67132394  1
  Ni  Ni38  1  0.50361723  0.16905986  0.83625363  1
  Ni  Ni39  1  0.50158407  0.50476777  0.50317793  1
  Ni  Ni40  1  0.33760602  0.33508899  0.66805124  1
  Fe  Fe41  1  0.50415184  0.50257618  0.83641637  1
  Ni  Ni42  1  0.50399773  0.83499704  0.50469071  1
  Fe  Fe43  1  0.33820670  0.67171020  0.67005507  1
  Ni  Ni44  1  0.50540815  0.83652015  0.83724859  1
  Ni  Ni45  1  0.83810718  0.16921876  0.50323572  1
  Ni  Ni46  1  0.66959836  0.00377174  0.66884301  1
  Ni  Ni47  1  0.83617146  0.16832074  0.83661608  1
  Ni  Ni48  1  0.83704725  0.50278566  0.50271597  1
  Ni  Ni49  1  0.66802073  0.33705687  0.66977002  1
  Fe  Fe50  1  0.83502298  0.50332404  0.83576343  1
  Ni  Ni51  1  0.83625494  0.83643317  0.50401813  1
  Ni  Ni52  1  0.67164221  0.66872381  0.66972191  1
  Ni  Ni53  1  0.83577368  0.83774421  0.83535535  1
" 