7444,Ni65Fe28Cr5_11,-239.709409659883, 212.142244291249,Ni65Fe28Cr5,"# generated using pymatgen
 data_Cr4(Fe3Ni7)5
_symmetry_space_group_name_H-M   'P 1'
_cell_length_a   7.42318909
_cell_length_b   7.42318909
_cell_length_c   10.49797469
_cell_angle_alpha   90.00000000
_cell_angle_beta   90.00000000
_cell_angle_gamma   90.00000000
_symmetry_Int_Tables_number   1
_chemical_formula_structural   Cr4(Fe3Ni7)5
_chemical_formula_sum   'Cr4 Fe15 Ni35'
_cell_volume   578.47762833
_cell_formula_units_Z   1
loop_
 _symmetry_equiv_pos_site_id
 _symmetry_equiv_pos_as_xyz
  1  'x, y, z'
loop_
 _atom_site_type_symbol
 _atom_site_label
 _atom_site_symmetry_multiplicity
 _atom_site_fract_x
 _atom_site_fract_y
 _atom_site_fract_z
 _atom_site_occupancy
  Ni  Ni0  1  0.00508617  0.00422254  1.00291879  1
  Ni  Ni1  1  0.16865558  0.16900282  0.16879618  1
  Fe  Fe2  1  1.00165231  1.00250736  0.33558562  1
  Ni  Ni3  1  1.00245381  0.33539737  0.00298221  1
  Cr  Cr4  1  0.17026908  0.50276468  0.16870070  1
  Fe  Fe5  1  1.00178585  0.33687656  0.33614859  1
  Ni  Ni6  1  1.00246391  0.66924542  1.00145402  1
  Fe  Fe7  1  0.17003253  0.83641452  0.16787596  1
  Ni  Ni8  1  1.00176544  0.66880839  0.33772590  1
  Ni  Ni9  1  0.33563263  0.00342619  0.00321889  1
  Fe  Fe10  1  0.50361465  0.17120384  0.16923064  1
  Cr  Cr11  1  0.33690181  0.00334303  0.33634456  1
  Ni  Ni12  1  0.33642609  0.33436128  1.00250929  1
  Ni  Ni13  1  0.50408217  0.50316335  0.17012862  1
  Fe  Fe14  1  0.33808553  0.33750915  0.33710822  1
  Ni  Ni15  1  0.33721656  0.67107650  0.00314733  1
  Fe  Fe16  1  0.50230554  0.83480330  0.16876206  1
  Fe  Fe17  1  0.33831349  0.66856986  0.33734097  1
  Fe  Fe18  1  0.66879764  0.00336388  1.00167971  1
  Fe  Fe19  1  0.83651864  0.17204709  0.16943042  1
  Ni  Ni20  1  0.66869685  0.00328094  0.33604522  1
  Fe  Fe21  1  0.66947439  0.33703390  0.00300378  1
  Ni  Ni22  1  0.83460465  0.50213048  0.16985719  1
  Ni  Ni23  1  0.66946661  0.33754613  0.33497568  1
  Ni  Ni24  1  0.66918026  0.66844633  1.00275186  1
  Cr  Cr25  1  0.83601616  0.83643229  0.16965090  1
  Ni  Ni26  1  0.67053616  0.66804190  0.33764381  1
  Fe  Fe27  1  0.17102588  0.17100396  0.50400061  1
  Fe  Fe28  1  0.00361010  1.00231654  0.67118302  1
  Ni  Ni29  1  0.16879322  0.16981587  0.83599326  1
  Ni  Ni30  1  0.17004194  0.50313806  0.50256319  1
  Ni  Ni31  1  0.00381471  0.33773645  0.67002528  1
  Ni  Ni32  1  0.17002848  0.50313938  0.83691077  1
  Fe  Fe33  1  0.16911420  0.83436491  0.50426414  1
  Ni  Ni34  1  1.00249121  0.66873795  0.66968280  1
  Ni  Ni35  1  0.16955456  0.83590659  0.83725365  1
  Ni  Ni36  1  0.50256450  0.16982842  0.50379358  1
  Ni  Ni37  1  0.33707325  0.00371131  0.66970971  1
  Ni  Ni38  1  0.50342274  0.16928354  0.83636757  1
  Ni  Ni39  1  0.50186132  0.50338833  0.50244626  1
  Ni  Ni40  1  0.33600861  0.33487312  0.66882417  1
  Ni  Ni41  1  0.50197119  0.50346106  0.83628564  1
  Ni  Ni42  1  0.50466318  0.83564767  0.50323210  1
  Ni  Ni43  1  0.33600696  0.67027755  0.66901827  1
  Ni  Ni44  1  0.50298017  0.83611848  0.83683097  1
  Cr  Cr45  1  0.83539072  0.16843225  0.50228385  1
  Ni  Ni46  1  0.66750036  1.00238639  0.66990082  1
  Ni  Ni47  1  0.83664732  0.16880844  0.83727471  1
  Ni  Ni48  1  0.83696444  0.50522956  0.50237045  1
  Ni  Ni49  1  0.66904211  0.33667011  0.67033210  1
  Fe  Fe50  1  0.83658429  0.50267002  0.83620164  1
  Ni  Ni51  1  0.83568832  0.83532752  0.50318223  1
  Ni  Ni52  1  0.67036579  0.66980492  0.66846567  1
  Fe  Fe53  1  0.83628036  0.83642691  0.83611086  1
" 