506,Ni65Fe11Cr23_3,-231.47980611638, 174.777651604906,Ni65Fe11Cr23,"# generated using pymatgen
 data_Cr13Fe6Ni35
_symmetry_space_group_name_H-M   'P 1'
_cell_length_a   7.46272087
_cell_length_b   7.46272087
_cell_length_c   10.55388106
_cell_angle_alpha   90.00000000
_cell_angle_beta   90.00000000
_cell_angle_gamma   90.00000000
_symmetry_Int_Tables_number   1
_chemical_formula_structural   Cr13Fe6Ni35
_chemical_formula_sum   'Cr13 Fe6 Ni35'
_cell_volume   587.76888355
_cell_formula_units_Z   1
loop_
 _symmetry_equiv_pos_site_id
 _symmetry_equiv_pos_as_xyz
  1  'x, y, z'
loop_
 _atom_site_type_symbol
 _atom_site_label
 _atom_site_symmetry_multiplicity
 _atom_site_fract_x
 _atom_site_fract_y
 _atom_site_fract_z
 _atom_site_occupancy
  Cr  Cr0  1  0.99969128  0.00033015  0.99957763  1
  Ni  Ni1  1  0.16605112  0.17165415  0.16798480  1
  Cr  Cr2  1  0.99898815  0.00064304  0.33427960  1
  Ni  Ni3  1  0.00057100  0.33557771  0.00089712  1
  Fe  Fe4  1  0.16502727  0.49917647  0.16656238  1
  Ni  Ni5  1  0.99741033  0.33633412  0.33107246  1
  Ni  Ni6  1  0.00170563  0.66376161  0.99967686  1
  Cr  Cr7  1  0.16601430  0.83059037  0.16946257  1
  Ni  Ni8  1  0.99711355  0.66392771  0.33299841  1
  Cr  Cr9  1  0.33137335  0.99890133  0.99969352  1
  Cr  Cr10  1  0.50237692  0.16780179  0.16645524  1
  Ni  Ni11  1  0.33624023  0.99918437  0.33503446  1
  Ni  Ni12  1  0.33034247  0.33670952  0.00173029  1
  Ni  Ni13  1  0.50051085  0.50093937  0.16799530  1
  Fe  Fe14  1  0.33552526  0.33428422  0.33314187  1
  Ni  Ni15  1  0.33060113  0.66381173  0.00204187  1
  Ni  Ni16  1  0.50229366  0.83054410  0.16824578  1
  Fe  Fe17  1  0.33697032  0.66660263  0.33365633  1
  Ni  Ni18  1  0.67063341  0.00091787  0.00327630  1
  Ni  Ni19  1  0.83438046  0.16944985  0.16746798  1
  Ni  Ni20  1  0.66503162  0.99914298  0.33344064  1
  Ni  Ni21  1  0.67038876  0.33424929  0.00105230  1
  Ni  Ni22  1  0.83391484  0.49981569  0.16741867  1
  Ni  Ni23  1  0.66858417  0.33592901  0.33582563  1
  Cr  Cr24  1  0.66952787  0.66632378  0.00115792  1
  Ni  Ni25  1  0.83160976  0.83153919  0.16805285  1
  Ni  Ni26  1  0.66763984  0.66550066  0.33472161  1
  Cr  Cr27  1  0.16594196  0.16799224  0.50155159  1
  Fe  Fe28  1  0.99970511  0.99960604  0.66765199  1
  Ni  Ni29  1  0.16421059  0.17021396  0.83137118  1
  Cr  Cr30  1  0.16503948  0.50110261  0.49833885  1
  Ni  Ni31  1  0.00041138  0.33532909  0.66898393  1
  Ni  Ni32  1  0.16566547  0.50049603  0.83513526  1
  Fe  Fe33  1  0.16662396  0.83221112  0.50083940  1
  Ni  Ni34  1  0.99978779  0.66621740  0.66774227  1
  Ni  Ni35  1  0.16416225  0.83002871  0.82980345  1
  Ni  Ni36  1  0.49951807  0.16679972  0.49843671  1
  Ni  Ni37  1  0.33099102  0.99895468  0.66606765  1
  Cr  Cr38  1  0.50068259  0.16923031  0.83567426  1
  Ni  Ni39  1  0.50058401  0.50230077  0.50015878  1
  Ni  Ni40  1  0.33132067  0.33379628  0.66632486  1
  Cr  Cr41  1  0.49757604  0.50058404  0.83211249  1
  Ni  Ni42  1  0.50068792  0.83206617  0.49892164  1
  Ni  Ni43  1  0.33211730  0.66803679  0.66520399  1
  Cr  Cr44  1  0.50121449  0.83154865  0.83496610  1
  Ni  Ni45  1  0.83359550  0.16783673  0.49822579  1
  Cr  Cr46  1  0.66699613  0.99977029  0.66488234  1
  Ni  Ni47  1  0.83722192  0.16730970  0.83534181  1
  Ni  Ni48  1  0.83444504  0.50220872  0.50039495  1
  Cr  Cr49  1  0.66957571  0.33655157  0.66363533  1
  Fe  Fe50  1  0.83727144  0.50040212  0.83345703  1
  Ni  Ni51  1  0.83323103  0.83093052  0.49951330  1
  Ni  Ni52  1  0.66944757  0.66768787  0.66452906  1
  Ni  Ni53  1  0.83711207  0.83279924  0.83346968  1
" 