6656,Ni65Fe17Cr16_0,-234.175563302296, 186.89999712399,Ni65Fe17Cr16,"# generated using pymatgen
 data_Cr10Fe9Ni35
_symmetry_space_group_name_H-M   'P 1'
_cell_length_a   7.44878188
_cell_length_b   7.44878188
_cell_length_c   10.53416835
_cell_angle_alpha   90.00000000
_cell_angle_beta   90.00000000
_cell_angle_gamma   90.00000000
_symmetry_Int_Tables_number   1
_chemical_formula_structural   Cr10Fe9Ni35
_chemical_formula_sum   'Cr10 Fe9 Ni35'
_cell_volume   584.48149882
_cell_formula_units_Z   1
loop_
 _symmetry_equiv_pos_site_id
 _symmetry_equiv_pos_as_xyz
  1  'x, y, z'
loop_
 _atom_site_type_symbol
 _atom_site_label
 _atom_site_symmetry_multiplicity
 _atom_site_fract_x
 _atom_site_fract_y
 _atom_site_fract_z
 _atom_site_occupancy
  Ni  Ni0  1  1.00022702  1.00001198  0.00141161  1
  Cr  Cr1  1  0.16526508  0.16935484  0.16791032  1
  Ni  Ni2  1  0.99956506  0.00478197  0.33358052  1
  Ni  Ni3  1  0.00224706  0.33697604  0.00163347  1
  Ni  Ni4  1  0.16822849  0.50277249  0.16782084  1
  Ni  Ni5  1  0.99992817  0.33372660  0.33545739  1
  Ni  Ni6  1  1.00017973  0.66668528  0.00126505  1
  Fe  Fe7  1  0.16718694  0.83202950  0.16716486  1
  Cr  Cr8  1  0.00201469  0.66506436  0.33284643  1
  Cr  Cr9  1  0.33580766  0.00210408  0.99982743  1
  Ni  Ni10  1  0.50524506  0.16833403  0.16803375  1
  Cr  Cr11  1  0.33717665  1.00069590  0.33465029  1
  Ni  Ni12  1  0.33442458  0.33577626  1.00050782  1
  Ni  Ni13  1  0.50020153  0.50182094  0.16697872  1
  Fe  Fe14  1  0.33588003  0.33660611  0.33491459  1
  Fe  Fe15  1  0.33401319  0.66674805  0.00148470  1
  Ni  Ni16  1  0.50185314  0.83352543  0.16837229  1
  Ni  Ni17  1  0.33554292  0.66635562  0.33309585  1
  Ni  Ni18  1  0.66759970  0.99974094  0.00279802  1
  Ni  Ni19  1  0.83334920  0.16763026  0.16889841  1
  Ni  Ni20  1  0.66748828  0.00431404  0.33368147  1
  Fe  Fe21  1  0.66816300  0.33503447  0.00252964  1
  Ni  Ni22  1  0.83525046  0.49937275  0.16662745  1
  Ni  Ni23  1  0.66867620  0.33265058  0.33409865  1
  Ni  Ni24  1  0.66880230  0.66810926  0.00133428  1
  Fe  Fe25  1  0.83372704  0.83622822  0.16612863  1
  Cr  Cr26  1  0.66554073  0.66689143  0.33437237  1
  Fe  Fe27  1  0.16688919  0.17009658  0.50083883  1
  Ni  Ni28  1  1.00093583  1.00021602  0.66869032  1
  Ni  Ni29  1  0.16852390  0.16816836  0.83466419  1
  Fe  Fe30  1  0.16995509  0.49993269  0.50136118  1
  Cr  Cr31  1  0.00199249  0.33568909  0.66665392  1
  Ni  Ni32  1  0.16789215  0.50285084  0.83498313  1
  Cr  Cr33  1  0.16877874  0.83337147  0.50183341  1
  Ni  Ni34  1  1.00063414  0.66754566  0.66966928  1
  Ni  Ni35  1  0.16687883  0.83265887  0.83482687  1
  Ni  Ni36  1  0.50366745  0.16972888  0.50106253  1
  Cr  Cr37  1  0.33571801  0.00267067  0.66920137  1
  Ni  Ni38  1  0.50105403  0.16828843  0.83457929  1
  Ni  Ni39  1  0.50039494  0.50033991  0.50237865  1
  Ni  Ni40  1  0.33613600  0.33555030  0.66736084  1
  Fe  Fe41  1  0.50026091  0.50098441  0.83390642  1
  Ni  Ni42  1  0.50115920  0.83361160  0.50184666  1
  Ni  Ni43  1  0.33578063  0.66614228  0.66867831  1
  Ni  Ni44  1  0.50167996  0.83355585  0.83345720  1
  Ni  Ni45  1  0.83365251  0.16895664  0.49953291  1
  Ni  Ni46  1  0.66689335  1.00057353  0.66720102  1
  Cr  Cr47  1  0.83376900  0.16759308  0.83539942  1
  Ni  Ni48  1  0.83370609  0.49789665  0.50204145  1
  Ni  Ni49  1  0.66549257  0.33584957  0.66713882  1
  Ni  Ni50  1  0.83499562  0.50348050  0.83500881  1
  Cr  Cr51  1  0.83336016  0.83656685  0.50390764  1
  Ni  Ni52  1  0.66726339  0.66725404  0.66815298  1
  Fe  Fe53  1  0.83516069  0.83329460  0.83440849  1
" 