8005,Ni65Fe35_19,-237.803649746511, 209.540037526278,Ni65Fe35,"# generated using pymatgen
 data_Fe35Ni19
_symmetry_space_group_name_H-M   'P 1'
_cell_length_a   7.39788855
_cell_length_b   7.39788855
_cell_length_c   10.46219432
_cell_angle_alpha   90.00000000
_cell_angle_beta   90.00000000
_cell_angle_gamma   90.00000000
_symmetry_Int_Tables_number   1
_chemical_formula_structural   Fe35Ni19
_chemical_formula_sum   'Fe35 Ni19'
_cell_volume   572.58286933
_cell_formula_units_Z   1
loop_
 _symmetry_equiv_pos_site_id
 _symmetry_equiv_pos_as_xyz
  1  'x, y, z'
loop_
 _atom_site_type_symbol
 _atom_site_label
 _atom_site_symmetry_multiplicity
 _atom_site_fract_x
 _atom_site_fract_y
 _atom_site_fract_z
 _atom_site_occupancy
  Fe  Fe0  1  0.00539227  0.00506417  0.00488466  1
  Ni  Ni1  1  0.17245442  0.17124163  0.17084065  1
  Fe  Fe2  1  0.00581601  1.00466886  0.33854076  1
  Ni  Ni3  1  0.00523330  0.33942323  1.00419587  1
  Ni  Ni4  1  0.17048582  0.50459621  0.17153638  1
  Ni  Ni5  1  1.00459163  0.33806858  0.33856470  1
  Ni  Ni6  1  1.00439482  0.67019425  0.00532973  1
  Fe  Fe7  1  0.17213084  0.83812689  0.17169708  1
  Fe  Fe8  1  0.00515604  0.67085603  0.33772556  1
  Ni  Ni9  1  0.34008593  0.00487226  0.00504776  1
  Ni  Ni10  1  0.50385156  0.17078292  0.17137241  1
  Fe  Fe11  1  0.33708446  0.00501697  0.33767310  1
  Ni  Ni12  1  0.33726712  0.33736718  0.00515985  1
  Fe  Fe13  1  0.50315554  0.50390589  0.17116704  1
  Fe  Fe14  1  0.33730264  0.33800840  0.33741724  1
  Fe  Fe15  1  0.33749225  0.67106869  0.00525392  1
  Fe  Fe16  1  0.50363338  0.83872634  0.17137025  1
  Ni  Ni17  1  0.33809598  0.67217995  0.33780949  1
  Ni  Ni18  1  0.66993428  1.00403603  1.00446908  1
  Fe  Fe19  1  0.83863898  0.17189367  0.17136320  1
  Fe  Fe20  1  0.67112750  0.00473020  0.33713322  1
  Fe  Fe21  1  0.67082813  0.33756247  1.00367536  1
  Fe  Fe22  1  0.83923491  0.50346067  0.17128909  1
  Fe  Fe23  1  0.67126907  0.33866420  0.33866792  1
  Fe  Fe24  1  0.67151515  0.67100385  1.00417540  1
  Fe  Fe25  1  0.83826151  0.83866610  0.17082591  1
  Fe  Fe26  1  0.67162368  0.67062789  0.33838075  1
  Ni  Ni27  1  0.17202289  0.17005352  0.50459690  1
  Fe  Fe28  1  0.00526727  0.00593394  0.67059110  1
  Fe  Fe29  1  0.17198789  0.17297873  0.83806344  1
  Fe  Fe30  1  0.17090033  0.50440535  0.50401011  1
  Ni  Ni31  1  1.00448846  0.33848670  0.67126424  1
  Fe  Fe32  1  0.17162890  0.50369486  0.83887955  1
  Ni  Ni33  1  0.17126513  0.83912519  0.50392446  1
  Fe  Fe34  1  1.00430112  0.66994798  0.67170187  1
  Fe  Fe35  1  0.17183922  0.83734918  0.83778278  1
  Fe  Fe36  1  0.50441260  0.17152642  0.50518059  1
  Fe  Fe37  1  0.33763070  0.00630629  0.67146229  1
  Ni  Ni38  1  0.50416588  0.17162386  0.83788494  1
  Fe  Fe39  1  0.50389488  0.50478149  0.50538216  1
  Ni  Ni40  1  0.33780835  0.33811998  0.67029835  1
  Ni  Ni41  1  0.50614621  0.50370971  0.83858411  1
  Fe  Fe42  1  0.50403287  0.83771720  0.50421883  1
  Fe  Fe43  1  0.33808446  0.67008308  0.67060061  1
  Fe  Fe44  1  0.50532628  0.83793622  0.83843232  1
  Fe  Fe45  1  0.83923183  0.17176567  0.50480772  1
  Fe  Fe46  1  0.67112564  0.00630588  0.67205165  1
  Fe  Fe47  1  0.83692232  0.17253910  0.83785057  1
  Ni  Ni48  1  0.83740910  0.50522011  0.50456325  1
  Ni  Ni49  1  0.67172491  0.33772964  0.67135957  1
  Ni  Ni50  1  0.83738718  0.50532368  0.83867987  1
  Fe  Fe51  1  0.83885057  0.83823667  0.50459634  1
  Fe  Fe52  1  0.67163758  0.66911269  0.67147279  1
  Fe  Fe53  1  0.83685936  0.83758246  0.83860235  1
" 