8405,Ni65Fe28Cr5_7,-239.830291052291, 213.133281558689,Ni65Fe28Cr5,"# generated using pymatgen
 data_Cr4(Fe3Ni7)5
_symmetry_space_group_name_H-M   'P 1'
_cell_length_a   7.42030656
_cell_length_b   7.42030656
_cell_length_c   10.49389817
_cell_angle_alpha   90.00000000
_cell_angle_beta   90.00000000
_cell_angle_gamma   90.00000000
_symmetry_Int_Tables_number   1
_chemical_formula_structural   Cr4(Fe3Ni7)5
_chemical_formula_sum   'Cr4 Fe15 Ni35'
_cell_volume   577.80399659
_cell_formula_units_Z   1
loop_
 _symmetry_equiv_pos_site_id
 _symmetry_equiv_pos_as_xyz
  1  'x, y, z'
loop_
 _atom_site_type_symbol
 _atom_site_label
 _atom_site_symmetry_multiplicity
 _atom_site_fract_x
 _atom_site_fract_y
 _atom_site_fract_z
 _atom_site_occupancy
  Fe  Fe0  1  0.00345753  1.00270408  1.00305718  1
  Ni  Ni1  1  0.17056081  0.17132551  0.17014504  1
  Ni  Ni2  1  1.00284758  1.00172930  0.33596715  1
  Ni  Ni3  1  0.00493293  0.33617419  1.00260545  1
  Ni  Ni4  1  0.17105636  0.50264556  0.16919630  1
  Fe  Fe5  1  0.00322631  0.33379456  0.33589854  1
  Ni  Ni6  1  0.00363188  0.67011151  1.00181218  1
  Fe  Fe7  1  0.16972393  0.83710701  0.17007954  1
  Ni  Ni8  1  1.00290484  0.67246015  0.33705534  1
  Ni  Ni9  1  0.33733476  0.00399122  1.00297648  1
  Ni  Ni10  1  0.50293898  0.16881352  0.17018973  1
  Ni  Ni11  1  0.33576195  0.00503640  0.33644620  1
  Ni  Ni12  1  0.33580090  0.33616107  0.00357708  1
  Fe  Fe13  1  0.50161928  0.50257703  0.17019052  1
  Ni  Ni14  1  0.33855917  0.33530189  0.33556048  1
  Ni  Ni15  1  0.33626031  0.66929852  0.00362346  1
  Ni  Ni16  1  0.50398305  0.83734540  0.16933886  1
  Fe  Fe17  1  0.33643603  0.67010854  0.33527555  1
  Ni  Ni18  1  0.66953676  1.00269683  0.00355247  1
  Ni  Ni19  1  0.83594639  0.16792721  0.16900858  1
  Ni  Ni20  1  0.67083576  0.00454686  0.33593828  1
  Fe  Fe21  1  0.66839532  0.33559026  1.00260527  1
  Cr  Cr22  1  0.83796483  0.50345760  0.17014891  1
  Ni  Ni23  1  0.66749009  0.33524350  0.33751705  1
  Ni  Ni24  1  0.66955018  0.67165146  1.00288625  1
  Ni  Ni25  1  0.83529520  0.83782937  0.17016527  1
  Fe  Fe26  1  0.66981071  0.67067820  0.33649987  1
  Fe  Fe27  1  0.16909297  0.16682220  0.50224922  1
  Ni  Ni28  1  0.00318407  1.00237930  0.66950173  1
  Ni  Ni29  1  0.17003559  0.17034317  0.83655815  1
  Cr  Cr30  1  0.16909374  0.50428619  0.50283697  1
  Ni  Ni31  1  1.00087044  0.33530042  0.66958981  1
  Ni  Ni32  1  0.16879384  0.50404515  0.83755372  1
  Ni  Ni33  1  0.16776106  0.83667898  0.50339898  1
  Ni  Ni34  1  1.00216342  0.67175857  0.67058582  1
  Ni  Ni35  1  0.16926780  0.83505521  0.83628917  1
  Ni  Ni36  1  0.50508000  0.17108560  0.50220547  1
  Fe  Fe37  1  0.33506567  1.00225904  0.67075791  1
  Ni  Ni38  1  0.50374459  0.16932937  0.83705974  1
  Ni  Ni39  1  0.50482823  0.50168863  0.50208182  1
  Cr  Cr40  1  0.33753213  0.33560920  0.67023756  1
  Fe  Fe41  1  0.50301980  0.50435287  0.83648989  1
  Cr  Cr42  1  0.50335958  0.83704130  0.50432532  1
  Ni  Ni43  1  0.33650365  0.67119846  0.67119166  1
  Fe  Fe44  1  0.50219764  0.83649339  0.83733315  1
  Ni  Ni45  1  0.83549075  0.16971470  0.50349855  1
  Fe  Fe46  1  0.67153586  0.00384777  0.67035187  1
  Fe  Fe47  1  0.83763459  0.16974446  0.83610506  1
  Fe  Fe48  1  0.83433828  0.50325261  0.50353628  1
  Ni  Ni49  1  0.67067126  0.33677423  0.66966967  1
  Fe  Fe50  1  0.83759125  0.50327845  0.83634638  1
  Ni  Ni51  1  0.83813321  0.83692910  0.50284213  1
  Ni  Ni52  1  0.67077708  0.66889203  0.66972475  1
  Ni  Ni53  1  0.83644664  0.83560781  0.83643716  1
" 