2725,Ni65Fe35_5,-237.509177444714, 209.770397979002,Ni65Fe35,"# generated using pymatgen
 data_Fe35Ni19
_symmetry_space_group_name_H-M   'P 1'
_cell_length_a   7.39519214
_cell_length_b   7.39519214
_cell_length_c   10.45838102
_cell_angle_alpha   90.00000000
_cell_angle_beta   90.00000000
_cell_angle_gamma   90.00000000
_symmetry_Int_Tables_number   1
_chemical_formula_structural   Fe35Ni19
_chemical_formula_sum   'Fe35 Ni19'
_cell_volume   571.95700650
_cell_formula_units_Z   1
loop_
 _symmetry_equiv_pos_site_id
 _symmetry_equiv_pos_as_xyz
  1  'x, y, z'
loop_
 _atom_site_type_symbol
 _atom_site_label
 _atom_site_symmetry_multiplicity
 _atom_site_fract_x
 _atom_site_fract_y
 _atom_site_fract_z
 _atom_site_occupancy
  Ni  Ni0  1  0.00585597  1.00468071  1.00477373  1
  Fe  Fe1  1  0.17130999  0.17093671  0.17200245  1
  Ni  Ni2  1  0.00606365  0.00624249  0.33768100  1
  Fe  Fe3  1  0.00528905  0.33829223  0.00511157  1
  Ni  Ni4  1  0.17172546  0.50556165  0.17170906  1
  Ni  Ni5  1  1.00438040  0.33751390  0.33758727  1
  Ni  Ni6  1  1.00417506  0.67150546  1.00437202  1
  Ni  Ni7  1  0.17052914  0.83819359  0.17272082  1
  Fe  Fe8  1  0.00505706  0.67226826  0.33719813  1
  Ni  Ni9  1  0.33788691  1.00475254  1.00375591  1
  Fe  Fe10  1  0.50329030  0.17099015  0.17083473  1
  Ni  Ni11  1  0.33768557  1.00454865  0.33881409  1
  Fe  Fe12  1  0.33771628  0.33788329  1.00472206  1
  Fe  Fe13  1  0.50420649  0.50568400  0.17191564  1
  Fe  Fe14  1  0.33791332  0.33818519  0.33819043  1
  Fe  Fe15  1  0.33660475  0.67240896  1.00442082  1
  Fe  Fe16  1  0.50358030  0.83789851  0.17200603  1
  Fe  Fe17  1  0.33746127  0.67157734  0.33857715  1
  Fe  Fe18  1  0.67195892  1.00459799  1.00441035  1
  Fe  Fe19  1  0.83997684  0.17155573  0.17191513  1
  Fe  Fe20  1  0.67226968  1.00478768  0.33849543  1
  Fe  Fe21  1  0.67156875  0.33772336  1.00410808  1
  Fe  Fe22  1  0.83937102  0.50542836  0.17122965  1
  Fe  Fe23  1  0.67157620  0.33773344  0.33832277  1
  Fe  Fe24  1  0.67235819  0.67225136  1.00479291  1
  Fe  Fe25  1  0.83942612  0.83759041  0.17161508  1
  Ni  Ni26  1  0.67043843  0.67044396  0.33817764  1
  Fe  Fe27  1  0.17068224  0.17139122  0.50455078  1
  Ni  Ni28  1  1.00464764  0.00623777  0.67212437  1
  Fe  Fe29  1  0.17100896  0.17115362  0.83802365  1
  Fe  Fe30  1  0.17130774  0.50489694  0.50456660  1
  Ni  Ni31  1  1.00385433  0.33730177  0.67273986  1
  Fe  Fe32  1  0.17130515  0.50544799  0.83840233  1
  Fe  Fe33  1  0.17185201  0.83829199  0.50494981  1
  Fe  Fe34  1  0.00495221  0.67206374  0.67265664  1
  Ni  Ni35  1  0.16964605  0.83896915  0.83796618  1
  Fe  Fe36  1  0.50515209  0.17113741  0.50507033  1
  Fe  Fe37  1  0.33722587  0.00509932  0.67197231  1
  Ni  Ni38  1  0.50444497  0.17299479  0.83766963  1
  Ni  Ni39  1  0.50454061  0.50335964  0.50405971  1
  Fe  Fe40  1  0.33806146  0.33843060  0.67165999  1
  Ni  Ni41  1  0.50532299  0.50259464  0.83881572  1
  Fe  Fe42  1  0.50517385  0.83734333  0.50437773  1
  Ni  Ni43  1  0.34029105  0.67144734  0.67213072  1
  Fe  Fe44  1  0.50493491  0.83766950  0.83819134  1
  Fe  Fe45  1  0.83873892  0.17168530  0.50477053  1
  Fe  Fe46  1  0.67228196  1.00479920  0.67166559  1
  Fe  Fe47  1  0.83832262  0.17147041  0.83789112  1
  Fe  Fe48  1  0.83779961  0.50491356  0.50497891  1
  Fe  Fe49  1  0.67126297  0.33855315  0.67213895  1
  Ni  Ni50  1  0.83752458  0.50556272  0.83768357  1
  Ni  Ni51  1  0.83950800  0.83898030  0.50406008  1
  Fe  Fe52  1  0.67234419  0.67121738  0.67097249  1
  Ni  Ni53  1  0.84048373  0.83809715  0.83879694  1
" 