4348,Ni65Fe11Cr23_17,-230.822500267077, 167.237540760378,Ni65Fe11Cr23,"# generated using pymatgen
 data_Cr13Fe6Ni35
_symmetry_space_group_name_H-M   'P 1'
_cell_length_a   7.46394329
_cell_length_b   7.46394329
_cell_length_c   10.55560983
_cell_angle_alpha   90.00000000
_cell_angle_beta   90.00000000
_cell_angle_gamma   90.00000000
_symmetry_Int_Tables_number   1
_chemical_formula_structural   Cr13Fe6Ni35
_chemical_formula_sum   'Cr13 Fe6 Ni35'
_cell_volume   588.05776836
_cell_formula_units_Z   1
loop_
 _symmetry_equiv_pos_site_id
 _symmetry_equiv_pos_as_xyz
  1  'x, y, z'
loop_
 _atom_site_type_symbol
 _atom_site_label
 _atom_site_symmetry_multiplicity
 _atom_site_fract_x
 _atom_site_fract_y
 _atom_site_fract_z
 _atom_site_occupancy
  Cr  Cr0  1  1.00000790  0.99775933  0.99982031  1
  Cr  Cr1  1  0.16632786  0.16805097  0.16872847  1
  Cr  Cr2  1  0.99645945  1.00012776  0.33487660  1
  Fe  Fe3  1  0.99864207  0.33477517  0.00212316  1
  Ni  Ni4  1  0.16494872  0.49996291  0.16619348  1
  Ni  Ni5  1  1.00020189  0.33560522  0.33356385  1
  Ni  Ni6  1  0.00027703  0.66648392  0.00059014  1
  Cr  Cr7  1  0.16978704  0.83210304  0.16863204  1
  Ni  Ni8  1  0.99604362  0.66351852  0.33357092  1
  Ni  Ni9  1  0.33593971  0.00049782  0.99844543  1
  Fe  Fe10  1  0.50213442  0.16703269  0.16770533  1
  Ni  Ni11  1  0.33705112  0.00492077  0.33338182  1
  Cr  Cr12  1  0.33386519  0.33380441  1.00015602  1
  Ni  Ni13  1  0.50256726  0.50148707  0.16671162  1
  Ni  Ni14  1  0.33433430  0.33332943  0.33512522  1
  Fe  Fe15  1  0.33473174  0.66887064  1.00005806  1
  Ni  Ni16  1  0.50263856  0.83473900  0.16549173  1
  Cr  Cr17  1  0.33483565  0.66211778  0.33185052  1
  Ni  Ni18  1  0.66500851  0.99945705  0.00106968  1
  Ni  Ni19  1  0.82997561  0.16921293  0.16672978  1
  Ni  Ni20  1  0.66673960  0.00081675  0.33210446  1
  Ni  Ni21  1  0.66480635  0.33299182  0.00304749  1
  Ni  Ni22  1  0.83273291  0.49922127  0.16642039  1
  Ni  Ni23  1  0.66601691  0.33399089  0.33357827  1
  Ni  Ni24  1  0.66806742  0.66829262  0.00158255  1
  Ni  Ni25  1  0.82993988  0.83217235  0.16634734  1
  Ni  Ni26  1  0.66956247  0.66598891  0.33297883  1
  Ni  Ni27  1  0.16708100  0.16923543  0.50193042  1
  Ni  Ni28  1  0.99988265  0.99968214  0.66736780  1
  Fe  Fe29  1  0.16935928  0.16677147  0.83131135  1
  Ni  Ni30  1  0.16554472  0.49801899  0.50100060  1
  Ni  Ni31  1  0.00446621  0.33327242  0.66639612  1
  Ni  Ni32  1  0.16552135  0.50259165  0.83364136  1
  Cr  Cr33  1  0.16708330  0.83321038  0.49930099  1
  Ni  Ni34  1  0.00256532  0.66773862  0.66629215  1
  Ni  Ni35  1  0.16889932  0.83265500  0.83293672  1
  Ni  Ni36  1  0.50014967  0.16688304  0.49871568  1
  Fe  Fe37  1  0.33346853  0.00143470  0.66792074  1
  Ni  Ni38  1  0.50035937  0.16325345  0.83388185  1
  Ni  Ni39  1  0.49905600  0.49828826  0.49973003  1
  Ni  Ni40  1  0.33132183  0.33318947  0.66580515  1
  Cr  Cr41  1  0.50023498  0.50125040  0.83335576  1
  Cr  Cr42  1  0.50005548  0.83472613  0.49951878  1
  Ni  Ni43  1  0.33077406  0.66420781  0.66900411  1
  Ni  Ni44  1  0.49794288  0.83657455  0.83463310  1
  Ni  Ni45  1  0.83379679  0.16758990  0.50005127  1
  Ni  Ni46  1  0.66792541  0.00031759  0.66755371  1
  Cr  Cr47  1  0.83234463  0.16828158  0.83430253  1
  Ni  Ni48  1  0.83584610  0.49883670  0.49848114  1
  Cr  Cr49  1  0.66409413  0.33153396  0.66288702  1
  Cr  Cr50  1  0.83588786  0.49872320  0.83509991  1
  Ni  Ni51  1  0.83322766  0.83422284  0.50099374  1
  Cr  Cr52  1  0.66784041  0.66881054  0.66477534  1
  Fe  Fe53  1  0.83285740  0.83259827  0.83345869  1
" 