270,Ni65Fe28Cr5_8,-239.741366231737, 210.633532494612,Ni65Fe28Cr5,"# generated using pymatgen
 data_Cr4(Fe3Ni7)5
_symmetry_space_group_name_H-M   'P 1'
_cell_length_a   7.42031896
_cell_length_b   7.42031896
_cell_length_c   10.49391572
_cell_angle_alpha   90.00000000
_cell_angle_beta   90.00000000
_cell_angle_gamma   90.00000000
_symmetry_Int_Tables_number   1
_chemical_formula_structural   Cr4(Fe3Ni7)5
_chemical_formula_sum   'Cr4 Fe15 Ni35'
_cell_volume   577.80689447
_cell_formula_units_Z   1
loop_
 _symmetry_equiv_pos_site_id
 _symmetry_equiv_pos_as_xyz
  1  'x, y, z'
loop_
 _atom_site_type_symbol
 _atom_site_label
 _atom_site_symmetry_multiplicity
 _atom_site_fract_x
 _atom_site_fract_y
 _atom_site_fract_z
 _atom_site_occupancy
  Ni  Ni0  1  0.00353496  0.00352431  1.00270529  1
  Ni  Ni1  1  0.16936387  0.16983405  0.16977865  1
  Fe  Fe2  1  0.00443300  1.00286054  0.33474289  1
  Ni  Ni3  1  1.00300950  0.33672038  1.00260660  1
  Ni  Ni4  1  0.17176815  0.49973433  0.16850530  1
  Ni  Ni5  1  0.00467353  0.33729263  0.33656594  1
  Fe  Fe6  1  1.00300033  0.66949759  0.00332917  1
  Fe  Fe7  1  0.17141282  0.83582567  0.16913235  1
  Cr  Cr8  1  0.00338190  0.66816890  0.33632361  1
  Ni  Ni9  1  0.33640577  0.00315769  1.00236735  1
  Fe  Fe10  1  0.50144619  0.16970974  0.16854915  1
  Ni  Ni11  1  0.33780183  0.00329799  0.33684386  1
  Ni  Ni12  1  0.33639523  0.33613697  1.00258017  1
  Ni  Ni13  1  0.50207770  0.50611159  0.16905918  1
  Ni  Ni14  1  0.33502992  0.33602893  0.33748355  1
  Ni  Ni15  1  0.33604561  0.67000711  1.00287320  1
  Ni  Ni16  1  0.50417460  0.83557285  0.16972371  1
  Ni  Ni17  1  0.33691906  0.66999028  0.33718259  1
  Ni  Ni18  1  0.66958063  0.00365004  1.00277625  1
  Fe  Fe19  1  0.83725623  0.16999948  0.16822070  1
  Ni  Ni20  1  0.66807435  1.00154113  0.33569680  1
  Ni  Ni21  1  0.67008733  0.33642081  1.00276450  1
  Ni  Ni22  1  0.83576103  0.50426656  0.16773275  1
  Cr  Cr23  1  0.66904678  0.33733613  0.33455201  1
  Ni  Ni24  1  0.66976101  0.66980145  1.00220092  1
  Ni  Ni25  1  0.83341896  0.83790803  0.16899062  1
  Ni  Ni26  1  0.66956372  0.67125624  0.33832887  1
  Ni  Ni27  1  0.17057052  0.16933772  0.50377825  1
  Fe  Fe28  1  0.00493583  1.00219639  0.67105632  1
  Ni  Ni29  1  0.16931609  0.16904370  0.83618018  1
  Ni  Ni30  1  0.17226140  0.50080598  0.50320546  1
  Fe  Fe31  1  0.00468333  0.33534761  0.67102469  1
  Ni  Ni32  1  0.17147232  0.50112435  0.83809794  1
  Ni  Ni33  1  0.17183052  0.83921957  0.50247479  1
  Cr  Cr34  1  0.00408312  0.66786899  0.66965239  1
  Fe  Fe35  1  0.17109788  0.83604439  0.83658617  1
  Fe  Fe36  1  0.50176305  0.16901628  0.50359325  1
  Ni  Ni37  1  0.33785469  1.00310764  0.67002641  1
  Fe  Fe38  1  0.50316820  0.17145847  0.83718490  1
  Ni  Ni39  1  0.50186779  0.50561803  0.50357552  1
  Fe  Fe40  1  0.33670134  0.33667915  0.67032607  1
  Ni  Ni41  1  0.50260133  0.50550893  0.83715542  1
  Ni  Ni42  1  0.50328407  0.83590458  0.50326242  1
  Ni  Ni43  1  0.33569476  0.67028480  0.66906556  1
  Fe  Fe44  1  0.50256959  0.83653179  0.83676456  1
  Cr  Cr45  1  0.83913743  0.16844339  0.50261504  1
  Ni  Ni46  1  0.66865495  0.00415458  0.67094256  1
  Ni  Ni47  1  0.83758770  0.16886389  0.83743203  1
  Ni  Ni48  1  0.83469478  0.50313506  0.50457700  1
  Fe  Fe49  1  0.66836618  0.33751943  0.67130447  1
  Ni  Ni50  1  0.83504736  0.50182659  0.83738066  1
  Ni  Ni51  1  0.83403786  0.83784496  0.50373224  1
  Fe  Fe52  1  0.66750086  0.67086386  0.67003589  1
  Fe  Fe53  1  0.83582256  0.83662798  0.83738338  1
" 