8308,Ni65Fe35_3,-237.179337553849, 208.083658826169,Ni65Fe35,"# generated using pymatgen
 data_Fe35Ni19
_symmetry_space_group_name_H-M   'P 1'
_cell_length_a   7.39104087
_cell_length_b   7.39104087
_cell_length_c   10.45251024
_cell_angle_alpha   90.00000000
_cell_angle_beta   90.00000000
_cell_angle_gamma   90.00000000
_symmetry_Int_Tables_number   1
_chemical_formula_structural   Fe35Ni19
_chemical_formula_sum   'Fe35 Ni19'
_cell_volume   570.99434820
_cell_formula_units_Z   1
loop_
 _symmetry_equiv_pos_site_id
 _symmetry_equiv_pos_as_xyz
  1  'x, y, z'
loop_
 _atom_site_type_symbol
 _atom_site_label
 _atom_site_symmetry_multiplicity
 _atom_site_fract_x
 _atom_site_fract_y
 _atom_site_fract_z
 _atom_site_occupancy
  Fe  Fe0  1  0.00549930  0.00575634  0.00558056  1
  Fe  Fe1  1  0.17220429  0.17194870  0.17282727  1
  Ni  Ni2  1  1.00475252  0.00522377  0.33823588  1
  Fe  Fe3  1  0.00540794  0.33893643  0.00567131  1
  Ni  Ni4  1  0.17157076  0.50505060  0.17243788  1
  Ni  Ni5  1  0.00609039  0.33725309  0.33837710  1
  Ni  Ni6  1  1.00411816  0.67283249  0.00538936  1
  Fe  Fe7  1  0.17141273  0.83887138  0.17140418  1
  Fe  Fe8  1  0.00535713  0.67096448  0.33817183  1
  Ni  Ni9  1  0.33814393  0.00596980  1.00466346  1
  Fe  Fe10  1  0.50460873  0.17233782  0.17100508  1
  Fe  Fe11  1  0.33789841  0.00518678  0.33825697  1
  Ni  Ni12  1  0.33947289  0.33748618  1.00453744  1
  Fe  Fe13  1  0.50522069  0.50461662  0.17199200  1
  Ni  Ni14  1  0.33788977  0.33816472  0.33866697  1
  Fe  Fe15  1  0.33801367  0.67154295  1.00461486  1
  Ni  Ni16  1  0.50480188  0.83908349  0.17168384  1
  Fe  Fe17  1  0.33782470  0.67176441  0.33877893  1
  Fe  Fe18  1  0.67118379  0.00576656  0.00558497  1
  Ni  Ni19  1  0.83778958  0.17255416  0.17221002  1
  Fe  Fe20  1  0.67224862  0.00566512  0.33794060  1
  Ni  Ni21  1  0.67097604  0.33881150  0.00549198  1
  Fe  Fe22  1  0.83821484  0.50540536  0.17181073  1
  Fe  Fe23  1  0.67304838  0.33839661  0.33803749  1
  Fe  Fe24  1  0.67119491  0.67145233  0.00576048  1
  Fe  Fe25  1  0.83860037  0.83826102  0.17212195  1
  Ni  Ni26  1  0.67230104  0.67251718  0.33853792  1
  Ni  Ni27  1  0.17231381  0.17080738  0.50506098  1
  Fe  Fe28  1  0.00687077  1.00491566  0.67087955  1
  Fe  Fe29  1  0.17203480  0.17247103  0.83798827  1
  Fe  Fe30  1  0.17198239  0.50451416  0.50514054  1
  Fe  Fe31  1  0.00584208  0.33944838  0.67118629  1
  Ni  Ni32  1  0.17119963  0.50584706  0.83724907  1
  Ni  Ni33  1  0.17315204  0.83945052  0.50428059  1
  Fe  Fe34  1  0.00633588  0.67105934  0.67291459  1
  Ni  Ni35  1  0.17336993  0.83807883  0.83920272  1
  Fe  Fe36  1  0.50416212  0.17234534  0.50550145  1
  Fe  Fe37  1  0.33798597  1.00473771  0.67211613  1
  Fe  Fe38  1  0.50426051  0.17286975  0.83891925  1
  Fe  Fe39  1  0.50417430  0.50514132  0.50522723  1
  Ni  Ni40  1  0.33834950  0.33908231  0.67222084  1
  Fe  Fe41  1  0.50425911  0.50504594  0.83820835  1
  Fe  Fe42  1  0.50496802  0.83793989  0.50461141  1
  Ni  Ni43  1  0.33835573  0.67107222  0.67220865  1
  Fe  Fe44  1  0.50443563  0.83750802  0.83891573  1
  Fe  Fe45  1  0.83998697  0.17145690  0.50416868  1
  Fe  Fe46  1  0.67057386  0.00523199  0.67190017  1
  Fe  Fe47  1  0.83913156  0.17229483  0.83922696  1
  Ni  Ni48  1  0.83778790  0.50431104  0.50430167  1
  Fe  Fe49  1  0.67137505  0.33935935  0.67251750  1
  Ni  Ni50  1  0.83857664  0.50409959  0.83960597  1
  Fe  Fe51  1  0.83936585  0.83864240  0.50469683  1
  Fe  Fe52  1  0.67119753  0.67083068  0.67101077  1
  Fe  Fe53  1  0.83976498  0.83727653  0.83860680  1
" 