8729,Ni65Fe24Cr10_4,-238.223310785222, 198.428363966555,Ni65Fe24Cr10,"# generated using pymatgen
 data_Cr6Fe13Ni35
_symmetry_space_group_name_H-M   'P 1'
_cell_length_a   7.43394282
_cell_length_b   7.43394282
_cell_length_c   10.51318276
_cell_angle_alpha   90.00000000
_cell_angle_beta   90.00000000
_cell_angle_gamma   90.00000000
_symmetry_Int_Tables_number   1
_chemical_formula_structural   Cr6Fe13Ni35
_chemical_formula_sum   'Cr6 Fe13 Ni35'
_cell_volume   580.99533680
_cell_formula_units_Z   1
loop_
 _symmetry_equiv_pos_site_id
 _symmetry_equiv_pos_as_xyz
  1  'x, y, z'
loop_
 _atom_site_type_symbol
 _atom_site_label
 _atom_site_symmetry_multiplicity
 _atom_site_fract_x
 _atom_site_fract_y
 _atom_site_fract_z
 _atom_site_occupancy
  Ni  Ni0  1  0.00242309  0.00289964  0.00252394  1
  Ni  Ni1  1  0.16935915  0.16941862  0.16909278  1
  Ni  Ni2  1  0.00291014  1.00026421  0.33471784  1
  Ni  Ni3  1  0.00561067  0.33516610  1.00146335  1
  Fe  Fe4  1  0.16779638  0.50103168  0.16916042  1
  Ni  Ni5  1  0.00404979  0.33763682  0.33362219  1
  Fe  Fe6  1  1.00063863  0.66737204  0.00288349  1
  Fe  Fe7  1  0.16750115  0.83652489  0.16965942  1
  Ni  Ni8  1  1.00052554  0.66878055  0.33529520  1
  Fe  Fe9  1  0.33525999  0.00335616  1.00198349  1
  Cr  Cr10  1  0.50005667  0.16831924  0.17037789  1
  Ni  Ni11  1  0.33593365  0.00241879  0.33540448  1
  Ni  Ni12  1  0.33268630  0.33589620  1.00110424  1
  Fe  Fe13  1  0.50226267  0.50411039  0.16899894  1
  Ni  Ni14  1  0.33506999  0.33575731  0.33504382  1
  Fe  Fe15  1  0.33627646  0.66735241  1.00180242  1
  Fe  Fe16  1  0.50339771  0.83428469  0.16926284  1
  Fe  Fe17  1  0.33482185  0.66958023  0.33666207  1
  Fe  Fe18  1  0.66954604  0.99974602  1.00022664  1
  Cr  Cr19  1  0.83778984  0.16836536  0.17052378  1
  Ni  Ni20  1  0.66783591  0.99889460  0.33558495  1
  Cr  Cr21  1  0.66885684  0.33798655  1.00008772  1
  Ni  Ni22  1  0.83666889  0.50537943  0.17038179  1
  Fe  Fe23  1  0.66862090  0.33704681  0.33596508  1
  Ni  Ni24  1  0.66868762  0.67076884  1.00217091  1
  Ni  Ni25  1  0.83554757  0.83304492  0.16903086  1
  Ni  Ni26  1  0.66971244  0.66964333  0.33501663  1
  Cr  Cr27  1  0.17040099  0.16878624  0.50237633  1
  Ni  Ni28  1  1.00121317  1.00170632  0.66943698  1
  Ni  Ni29  1  0.16899746  0.17137921  0.83592221  1
  Ni  Ni30  1  0.16909708  0.50440025  0.50191865  1
  Ni  Ni31  1  0.00342173  0.33700794  0.67160122  1
  Ni  Ni32  1  0.16897976  0.49992016  0.83608603  1
  Ni  Ni33  1  0.16910289  0.83288121  0.50154427  1
  Ni  Ni34  1  1.00072383  0.66796545  0.66840361  1
  Cr  Cr35  1  0.16880729  0.83496826  0.83409428  1
  Ni  Ni36  1  0.50228751  0.16847934  0.50183114  1
  Ni  Ni37  1  0.33756347  0.00303606  0.66910815  1
  Ni  Ni38  1  0.50152596  0.16846391  0.83442490  1
  Fe  Fe39  1  0.50147166  0.50299787  0.50272860  1
  Ni  Ni40  1  0.33562316  0.33594358  0.67053571  1
  Ni  Ni41  1  0.50136010  0.50265782  0.83499242  1
  Ni  Ni42  1  0.50226824  0.83572821  0.50171082  1
  Ni  Ni43  1  0.33698865  0.66770020  0.66791890  1
  Ni  Ni44  1  0.50432194  0.83555825  0.83614903  1
  Cr  Cr45  1  0.83392489  0.16825269  0.50114730  1
  Ni  Ni46  1  0.66790309  1.00034036  0.67069865  1
  Ni  Ni47  1  0.83615723  0.16842105  0.83537235  1
  Fe  Fe48  1  0.83622476  0.50475418  0.50198734  1
  Fe  Fe49  1  0.66799308  0.33586372  0.67042164  1
  Ni  Ni50  1  0.83633872  0.50271637  0.83463381  1
  Ni  Ni51  1  0.83530721  0.83381468  0.50187209  1
  Ni  Ni52  1  0.66896688  0.66990584  0.66949548  1
  Ni  Ni53  1  0.83341960  0.83554124  0.83577715  1
" 