4928,Ni65Fe11Cr23_4,-231.509915865418, 176.698823143638,Ni65Fe11Cr23,"# generated using pymatgen
 data_Cr13Fe6Ni35
_symmetry_space_group_name_H-M   'P 1'
_cell_length_a   7.46317106
_cell_length_b   7.46317106
_cell_length_c   10.55451773
_cell_angle_alpha   90.00000000
_cell_angle_beta   90.00000000
_cell_angle_gamma   90.00000000
_symmetry_Int_Tables_number   1
_chemical_formula_structural   Cr13Fe6Ni35
_chemical_formula_sum   'Cr13 Fe6 Ni35'
_cell_volume   587.87526207
_cell_formula_units_Z   1
loop_
 _symmetry_equiv_pos_site_id
 _symmetry_equiv_pos_as_xyz
  1  'x, y, z'
loop_
 _atom_site_type_symbol
 _atom_site_label
 _atom_site_symmetry_multiplicity
 _atom_site_fract_x
 _atom_site_fract_y
 _atom_site_fract_z
 _atom_site_occupancy
  Ni  Ni0  1  0.99951169  0.00030762  1.00019186  1
  Cr  Cr1  1  0.16675109  0.16620713  0.16708783  1
  Ni  Ni2  1  0.00043662  1.00007531  0.33521359  1
  Ni  Ni3  1  0.00066966  0.33442112  0.99923282  1
  Ni  Ni4  1  0.16755275  0.50155517  0.16719363  1
  Ni  Ni5  1  0.00040002  0.33319967  0.33432696  1
  Cr  Cr6  1  0.99972005  0.66626447  0.00131444  1
  Ni  Ni7  1  0.16906965  0.83299175  0.16642169  1
  Cr  Cr8  1  0.99822961  0.66784717  0.33188959  1
  Ni  Ni9  1  0.33513636  0.00086733  0.00029809  1
  Ni  Ni10  1  0.50138764  0.16572083  0.16712148  1
  Ni  Ni11  1  0.33476726  0.00126672  0.33478267  1
  Cr  Cr12  1  0.33374202  0.33402565  0.99945180  1
  Ni  Ni13  1  0.50001699  0.50081902  0.16801861  1
  Ni  Ni14  1  0.33536347  0.33257114  0.33332480  1
  Ni  Ni15  1  0.33369936  0.66633251  0.00242251  1
  Ni  Ni16  1  0.49901440  0.83423992  0.16734361  1
  Fe  Fe17  1  0.33624418  0.66770943  0.33250905  1
  Ni  Ni18  1  0.66613047  0.00030627  0.00127612  1
  Cr  Cr19  1  0.83209468  0.16731528  0.16711822  1
  Ni  Ni20  1  0.66557538  0.99901228  0.33388193  1
  Fe  Fe21  1  0.66675961  0.33282138  0.00088243  1
  Ni  Ni22  1  0.83321086  0.49917855  0.16725536  1
  Ni  Ni23  1  0.66501487  0.33485770  0.33432571  1
  Cr  Cr24  1  0.66743852  0.66752863  0.00139725  1
  Ni  Ni25  1  0.83269736  0.83436545  0.16661771  1
  Ni  Ni26  1  0.66620304  0.66690925  0.33376882  1
  Ni  Ni27  1  0.16711467  0.16479320  0.49971291  1
  Cr  Cr28  1  0.00159325  0.99955621  0.66488689  1
  Fe  Fe29  1  0.16685164  0.16776427  0.83412637  1
  Cr  Cr30  1  0.16622636  0.50040838  0.49985072  1
  Ni  Ni31  1  0.99994131  0.33649223  0.66721853  1
  Ni  Ni32  1  0.16491279  0.49969890  0.83297445  1
  Ni  Ni33  1  0.16863854  0.83631368  0.50092659  1
  Ni  Ni34  1  0.99744695  0.66464828  0.66794715  1
  Cr  Cr35  1  0.16796699  0.83267600  0.83326201  1
  Ni  Ni36  1  0.49986044  0.16611844  0.49876896  1
  Ni  Ni37  1  0.33405609  0.00104592  0.66569740  1
  Ni  Ni38  1  0.50004479  0.16699186  0.83488745  1
  Ni  Ni39  1  0.50337504  0.50078464  0.50035907  1
  Cr  Cr40  1  0.33373977  0.33193570  0.66816377  1
  Fe  Fe41  1  0.50107178  0.50049521  0.83262344  1
  Ni  Ni42  1  0.49944544  0.83387775  0.50000649  1
  Ni  Ni43  1  0.33478551  0.66677101  0.66621636  1
  Cr  Cr44  1  0.49915985  0.83454309  0.83325979  1
  Fe  Fe45  1  0.83372224  0.16819044  0.49812868  1
  Cr  Cr46  1  0.66524019  0.99860850  0.66488885  1
  Cr  Cr47  1  0.83304650  0.16875219  0.83588824  1
  Ni  Ni48  1  0.83137191  0.49925981  0.50201782  1
  Fe  Fe49  1  0.66736740  0.33669398  0.66569692  1
  Ni  Ni50  1  0.83521231  0.49907241  0.83150554  1
  Ni  Ni51  1  0.83269762  0.83279477  0.50029793  1
  Ni  Ni52  1  0.66854986  0.66500491  0.66618166  1
  Ni  Ni53  1  0.83374757  0.83201594  0.83386191  1
" 