1989,Ni65Fe11Cr23_15,-231.019289402679, 169.70858794765,Ni65Fe11Cr23,"# generated using pymatgen
 data_Cr13Fe6Ni35
_symmetry_space_group_name_H-M   'P 1'
_cell_length_a   7.45881334
_cell_length_b   7.45881334
_cell_length_c   10.54835499
_cell_angle_alpha   90.00000000
_cell_angle_beta   90.00000000
_cell_angle_gamma   90.00000000
_symmetry_Int_Tables_number   1
_chemical_formula_structural   Cr13Fe6Ni35
_chemical_formula_sum   'Cr13 Fe6 Ni35'
_cell_volume   586.84608895
_cell_formula_units_Z   1
loop_
 _symmetry_equiv_pos_site_id
 _symmetry_equiv_pos_as_xyz
  1  'x, y, z'
loop_
 _atom_site_type_symbol
 _atom_site_label
 _atom_site_symmetry_multiplicity
 _atom_site_fract_x
 _atom_site_fract_y
 _atom_site_fract_z
 _atom_site_occupancy
  Cr  Cr0  1  0.00116791  0.00278523  1.00010327  1
  Ni  Ni1  1  0.16603758  0.16649973  0.16795454  1
  Ni  Ni2  1  0.00074813  0.00168914  0.33428502  1
  Ni  Ni3  1  0.99743458  0.33264344  1.00035594  1
  Fe  Fe4  1  0.16631434  0.49918841  0.16834589  1
  Ni  Ni5  1  1.00028226  0.33385793  0.33409046  1
  Cr  Cr6  1  1.00004037  0.66629622  0.00072118  1
  Ni  Ni7  1  0.16817818  0.83448475  0.16667647  1
  Ni  Ni8  1  0.99885197  0.66608120  0.33447096  1
  Ni  Ni9  1  0.33406076  0.99886869  0.00227955  1
  Ni  Ni10  1  0.50133395  0.16753170  0.16595175  1
  Cr  Cr11  1  0.33246893  0.00234651  0.33326812  1
  Cr  Cr12  1  0.33403663  0.33365509  0.00254812  1
  Ni  Ni13  1  0.50353503  0.50148153  0.16649678  1
  Fe  Fe14  1  0.33346451  0.33389567  0.33395748  1
  Ni  Ni15  1  0.33643393  0.66900408  0.00180263  1
  Ni  Ni16  1  0.50010488  0.83267700  0.16411510  1
  Cr  Cr17  1  0.33437099  0.66593022  0.33360488  1
  Ni  Ni18  1  0.66666233  0.00110172  0.00167204  1
  Ni  Ni19  1  0.83426407  0.16999243  0.16676661  1
  Cr  Cr20  1  0.66809774  0.00095903  0.33470175  1
  Ni  Ni21  1  0.66945838  0.33499853  0.00159267  1
  Ni  Ni22  1  0.83237166  0.49935845  0.16789660  1
  Fe  Fe23  1  0.66826569  0.33574415  0.33351058  1
  Ni  Ni24  1  0.66551689  0.66558033  0.00098505  1
  Fe  Fe25  1  0.83220929  0.83351907  0.16839446  1
  Ni  Ni26  1  0.66881138  0.66471613  0.33418885  1
  Ni  Ni27  1  0.16746457  0.16830051  0.50090985  1
  Cr  Cr28  1  1.00026007  0.00258969  0.66756596  1
  Ni  Ni29  1  0.16568712  0.16599231  0.83282481  1
  Ni  Ni30  1  0.16728206  0.49961112  0.50021442  1
  Ni  Ni31  1  0.00123661  0.33261028  0.66715563  1
  Cr  Cr32  1  0.16785357  0.50012595  0.83301082  1
  Ni  Ni33  1  0.16667381  0.83372859  0.50109011  1
  Cr  Cr34  1  0.00109040  0.66591907  0.66661749  1
  Ni  Ni35  1  0.16917355  0.83544725  0.83392148  1
  Ni  Ni36  1  0.49968087  0.16826129  0.50140791  1
  Ni  Ni37  1  0.33360627  1.00026429  0.66565472  1
  Cr  Cr38  1  0.50086521  0.16652444  0.83451976  1
  Ni  Ni39  1  0.49979217  0.49960404  0.50000383  1
  Fe  Fe40  1  0.33267295  0.33358325  0.66531433  1
  Ni  Ni41  1  0.50191280  0.50219080  0.83522457  1
  Fe  Fe42  1  0.50053213  0.83397385  0.50202438  1
  Ni  Ni43  1  0.33407971  0.66763999  0.66586711  1
  Cr  Cr44  1  0.49941288  0.83326051  0.83466382  1
  Ni  Ni45  1  0.83447559  0.16763630  0.50008739  1
  Ni  Ni46  1  0.66637418  0.00146956  0.66541349  1
  Ni  Ni47  1  0.83491000  0.16838847  0.83485284  1
  Ni  Ni48  1  0.83455847  0.50031868  0.49810777  1
  Cr  Cr49  1  0.66922004  0.33347142  0.66695288  1
  Ni  Ni50  1  0.83243713  0.49861791  0.83576039  1
  Ni  Ni51  1  0.83450957  0.83367347  0.49803802  1
  Cr  Cr52  1  0.66663708  0.66707932  0.66646864  1
  Ni  Ni53  1  0.83288589  0.83463834  0.83539789  1
" 