3802,Ni65Fe24Cr10_15,-238.054984119846, 205.01221081675,Ni65Fe24Cr10,"# generated using pymatgen
 data_Cr6Fe13Ni35
_symmetry_space_group_name_H-M   'P 1'
_cell_length_a   7.43385438
_cell_length_b   7.43385438
_cell_length_c   10.51305768
_cell_angle_alpha   90.00000000
_cell_angle_beta   90.00000000
_cell_angle_gamma   90.00000000
_symmetry_Int_Tables_number   1
_chemical_formula_structural   Cr6Fe13Ni35
_chemical_formula_sum   'Cr6 Fe13 Ni35'
_cell_volume   580.97460092
_cell_formula_units_Z   1
loop_
 _symmetry_equiv_pos_site_id
 _symmetry_equiv_pos_as_xyz
  1  'x, y, z'
loop_
 _atom_site_type_symbol
 _atom_site_label
 _atom_site_symmetry_multiplicity
 _atom_site_fract_x
 _atom_site_fract_y
 _atom_site_fract_z
 _atom_site_occupancy
  Ni  Ni0  1  1.00036989  1.00072304  1.00165268  1
  Cr  Cr1  1  0.16933456  0.16890401  0.16819279  1
  Ni  Ni2  1  0.00244339  1.00142927  0.33718756  1
  Fe  Fe3  1  1.00176002  0.33679998  0.00281243  1
  Ni  Ni4  1  0.16810563  0.50285112  0.16998361  1
  Ni  Ni5  1  1.00141878  0.33703858  0.33619520  1
  Fe  Fe6  1  1.00057636  0.66939123  0.00243480  1
  Ni  Ni7  1  0.16750299  0.83477445  0.16972518  1
  Ni  Ni8  1  0.00454542  0.66823613  0.33459428  1
  Fe  Fe9  1  0.33714406  1.00098546  0.00316256  1
  Ni  Ni10  1  0.50330334  0.16829215  0.16927074  1
  Ni  Ni11  1  0.33600267  1.00157884  0.33565048  1
  Ni  Ni12  1  0.33509339  0.33753898  0.00303431  1
  Ni  Ni13  1  0.50187686  0.50094035  0.16963317  1
  Fe  Fe14  1  0.33627952  0.33573103  0.33605305  1
  Cr  Cr15  1  0.33582673  0.66820791  0.00235050  1
  Ni  Ni16  1  0.50326411  0.83746711  0.16876134  1
  Fe  Fe17  1  0.33339889  0.66915043  0.33507667  1
  Ni  Ni18  1  0.67066382  1.00023480  0.00324966  1
  Ni  Ni19  1  0.83402185  0.16769121  0.17034751  1
  Ni  Ni20  1  0.66825084  0.00470856  0.33500422  1
  Cr  Cr21  1  0.66869862  0.33623704  0.00367745  1
  Ni  Ni22  1  0.83670717  0.50281015  0.16835946  1
  Ni  Ni23  1  0.66873334  0.33430052  0.33536483  1
  Ni  Ni24  1  0.66953922  0.67012857  1.00130330  1
  Ni  Ni25  1  0.83592768  0.83619817  0.16754468  1
  Cr  Cr26  1  0.66910997  0.66813070  0.33480699  1
  Ni  Ni27  1  0.16984350  0.16837067  0.50259095  1
  Ni  Ni28  1  1.00189549  1.00091646  0.66785834  1
  Cr  Cr29  1  0.16779153  0.16858818  0.83631406  1
  Ni  Ni30  1  0.16872274  0.50202652  0.50178430  1
  Fe  Fe31  1  1.00177541  0.33552879  0.66764180  1
  Ni  Ni32  1  0.16861059  0.50285175  0.83493057  1
  Ni  Ni33  1  0.16740637  0.83629958  0.50215754  1
  Ni  Ni34  1  0.00299780  0.66870173  0.66966323  1
  Ni  Ni35  1  0.16716911  0.83469367  0.83482079  1
  Ni  Ni36  1  0.50169090  0.16944425  0.50188901  1
  Ni  Ni37  1  0.33554302  1.00077940  0.66862529  1
  Cr  Cr38  1  0.50263259  0.16788552  0.83622349  1
  Ni  Ni39  1  0.50186596  0.50000466  0.50306307  1
  Fe  Fe40  1  0.33516257  0.33653673  0.66765601  1
  Ni  Ni41  1  0.50194645  0.50385275  0.83399626  1
  Fe  Fe42  1  0.50103046  0.83683060  0.50304154  1
  Fe  Fe43  1  0.33483254  0.67003131  0.66949603  1
  Ni  Ni44  1  0.50417455  0.83447724  0.83450644  1
  Fe  Fe45  1  0.83598031  0.16904758  0.50185137  1
  Ni  Ni46  1  0.66925924  1.00205627  0.66844453  1
  Ni  Ni47  1  0.83635373  0.16692209  0.83439618  1
  Ni  Ni48  1  0.83610768  0.50244341  0.50329163  1
  Fe  Fe49  1  0.66976184  0.33552796  0.66761591  1
  Fe  Fe50  1  0.83625474  0.50400277  0.83477711  1
  Ni  Ni51  1  0.83718017  0.83612741  0.50287698  1
  Fe  Fe52  1  0.66931448  0.67026129  0.66934765  1
  Ni  Ni53  1  0.83535599  0.83587050  0.83626934  1
" 