1936,Ni65Fe11Cr23_16,-231.451697764, 173.847987502228,Ni65Fe11Cr23,"# generated using pymatgen
 data_Cr13Fe6Ni35
_symmetry_space_group_name_H-M   'P 1'
_cell_length_a   7.46120937
_cell_length_b   7.46120937
_cell_length_c   10.55174348
_cell_angle_alpha   90.00000000
_cell_angle_beta   90.00000000
_cell_angle_gamma   90.00000000
_symmetry_Int_Tables_number   1
_chemical_formula_structural   Cr13Fe6Ni35
_chemical_formula_sum   'Cr13 Fe6 Ni35'
_cell_volume   587.41181691
_cell_formula_units_Z   1
loop_
 _symmetry_equiv_pos_site_id
 _symmetry_equiv_pos_as_xyz
  1  'x, y, z'
loop_
 _atom_site_type_symbol
 _atom_site_label
 _atom_site_symmetry_multiplicity
 _atom_site_fract_x
 _atom_site_fract_y
 _atom_site_fract_z
 _atom_site_occupancy
  Fe  Fe0  1  0.00098459  0.99921791  0.99905852  1
  Cr  Cr1  1  0.17068117  0.16556860  0.16591815  1
  Cr  Cr2  1  0.00147607  0.99639674  0.33467190  1
  Ni  Ni3  1  0.00218192  0.33516845  0.99889658  1
  Ni  Ni4  1  0.16648606  0.50215642  0.16533434  1
  Cr  Cr5  1  0.00128056  0.33674243  0.33497194  1
  Ni  Ni6  1  0.00182255  0.66521518  0.00289551  1
  Ni  Ni7  1  0.16773063  0.83217700  0.16549185  1
  Ni  Ni8  1  0.99993545  0.66718134  0.33267787  1
  Ni  Ni9  1  0.33691540  0.00074207  0.00132518  1
  Ni  Ni10  1  0.49992844  0.16739013  0.16709892  1
  Ni  Ni11  1  0.33608278  1.00019879  0.33342745  1
  Ni  Ni12  1  0.33298628  0.33419019  0.99934504  1
  Ni  Ni13  1  0.50112345  0.49920365  0.16691965  1
  Ni  Ni14  1  0.33608377  0.33349190  0.33329633  1
  Ni  Ni15  1  0.33280101  0.66597659  1.00025565  1
  Ni  Ni16  1  0.49877232  0.83457844  0.16617470  1
  Cr  Cr17  1  0.33216349  0.66827862  0.33257428  1
  Ni  Ni18  1  0.66511677  0.00099172  0.99845069  1
  Cr  Cr19  1  0.83181753  0.16879200  0.16431754  1
  Cr  Cr20  1  0.66473268  0.99946048  0.33590342  1
  Fe  Fe21  1  0.66409292  0.33355071  0.00064409  1
  Ni  Ni22  1  0.83346065  0.50177930  0.16798730  1
  Ni  Ni23  1  0.66452922  0.33393865  0.33192050  1
  Cr  Cr24  1  0.66521600  0.66898021  0.00095793  1
  Fe  Fe25  1  0.83359980  0.83136612  0.16630163  1
  Ni  Ni26  1  0.66813328  0.66741190  0.33218765  1
  Cr  Cr27  1  0.16915096  0.16624338  0.50090141  1
  Ni  Ni28  1  0.99931292  0.00047342  0.66760279  1
  Ni  Ni29  1  0.16765308  0.16796281  0.83396836  1
  Ni  Ni30  1  0.16652890  0.50225885  0.50238625  1
  Ni  Ni31  1  0.00326929  0.33343748  0.66769066  1
  Ni  Ni32  1  0.16773627  0.49856909  0.83346519  1
  Ni  Ni33  1  0.16679431  0.83300271  0.50147789  1
  Ni  Ni34  1  0.00120443  0.66724491  0.66553919  1
  Cr  Cr35  1  0.16723910  0.83421246  0.83434241  1
  Ni  Ni36  1  0.50041091  0.16527380  0.49903079  1
  Ni  Ni37  1  0.33568555  0.00062903  0.66638254  1
  Ni  Ni38  1  0.49882581  0.16572054  0.83511874  1
  Cr  Cr39  1  0.50024374  0.50061305  0.50039657  1
  Fe  Fe40  1  0.33255265  0.33292318  0.66888825  1
  Ni  Ni41  1  0.49797173  0.50039025  0.83397445  1
  Ni  Ni42  1  0.50045894  0.83551187  0.50247868  1
  Fe  Fe43  1  0.33338987  0.66804061  0.66781562  1
  Ni  Ni44  1  0.50143664  0.83507594  0.83240702  1
  Ni  Ni45  1  0.83218453  0.16548667  0.50314526  1
  Ni  Ni46  1  0.66609646  0.99844850  0.66693153  1
  Fe  Fe47  1  0.83458788  0.16483834  0.83391474  1
  Cr  Cr48  1  0.83359560  0.50205850  0.49933342  1
  Cr  Cr49  1  0.66661210  0.33077511  0.66874488  1
  Cr  Cr50  1  0.83471109  0.50199806  0.83355685  1
  Ni  Ni51  1  0.83397263  0.83319164  0.50166686  1
  Ni  Ni52  1  0.66636570  0.67125496  0.66780544  1
  Ni  Ni53  1  0.83300103  0.83534625  0.83315651  1
" 