4282,Ni65Fe17Cr16_17,-234.385457658056, 190.530311084767,Ni65Fe17Cr16,"# generated using pymatgen
 data_Cr10Fe9Ni35
_symmetry_space_group_name_H-M   'P 1'
_cell_length_a   7.44412883
_cell_length_b   7.44412883
_cell_length_c   10.52758795
_cell_angle_alpha   90.00000000
_cell_angle_beta   90.00000000
_cell_angle_gamma   90.00000000
_symmetry_Int_Tables_number   1
_chemical_formula_structural   Cr10Fe9Ni35
_chemical_formula_sum   'Cr10 Fe9 Ni35'
_cell_volume   583.38685417
_cell_formula_units_Z   1
loop_
 _symmetry_equiv_pos_site_id
 _symmetry_equiv_pos_as_xyz
  1  'x, y, z'
loop_
 _atom_site_type_symbol
 _atom_site_label
 _atom_site_symmetry_multiplicity
 _atom_site_fract_x
 _atom_site_fract_y
 _atom_site_fract_z
 _atom_site_occupancy
  Cr  Cr0  1  0.00293305  0.99861043  0.00390270  1
  Ni  Ni1  1  0.16902706  0.16875183  0.16949961  1
  Ni  Ni2  1  0.00393135  1.00095211  0.33367172  1
  Ni  Ni3  1  1.00019027  0.33811847  0.00334401  1
  Ni  Ni4  1  0.16740523  0.50065833  0.16829662  1
  Ni  Ni5  1  1.00146253  0.33628927  0.33458247  1
  Ni  Ni6  1  0.99970320  0.66745352  0.00224330  1
  Ni  Ni7  1  0.16861249  0.83520237  0.16799500  1
  Ni  Ni8  1  1.00133965  0.66738008  0.33368002  1
  Ni  Ni9  1  0.33692978  1.00151479  0.00227809  1
  Ni  Ni10  1  0.49969371  0.16880368  0.16633653  1
  Ni  Ni11  1  0.33385734  0.00178027  0.33428748  1
  Ni  Ni12  1  0.33768982  0.33371958  0.00331709  1
  Ni  Ni13  1  0.50187187  0.50115065  0.16790941  1
  Fe  Fe14  1  0.33429354  0.33428074  0.33482798  1
  Fe  Fe15  1  0.33588113  0.66810134  0.00261687  1
  Ni  Ni16  1  0.50061229  0.83466094  0.16759591  1
  Ni  Ni17  1  0.33476826  0.66823397  0.33396550  1
  Fe  Fe18  1  0.66576348  1.00056197  0.00197682  1
  Fe  Fe19  1  0.83509599  0.17044802  0.16846129  1
  Cr  Cr20  1  0.66666463  0.00164467  0.33413659  1
  Ni  Ni21  1  0.66673457  0.33689759  0.00212761  1
  Ni  Ni22  1  0.83534151  0.50157545  0.16736879  1
  Ni  Ni23  1  0.66767952  0.33720052  0.33374518  1
  Ni  Ni24  1  0.66921603  0.66668984  1.00119182  1
  Ni  Ni25  1  0.83539609  0.83303076  0.16844846  1
  Fe  Fe26  1  0.66884291  0.66678763  0.33503971  1
  Ni  Ni27  1  0.16864523  0.17037543  0.50129450  1
  Ni  Ni28  1  0.99997349  1.00066437  0.66769746  1
  Cr  Cr29  1  0.16871610  0.16906904  0.83373969  1
  Fe  Fe30  1  0.16954355  0.49951834  0.50048148  1
  Fe  Fe31  1  0.00304119  0.33481821  0.66660696  1
  Cr  Cr32  1  0.16932720  0.50103090  0.83540791  1
  Cr  Cr33  1  0.16832890  0.83627275  0.50030808  1
  Cr  Cr34  1  0.99934014  0.66896348  0.66879917  1
  Fe  Fe35  1  0.16866533  0.83337465  0.83582887  1
  Ni  Ni36  1  0.49824189  0.16934716  0.50209116  1
  Cr  Cr37  1  0.33634951  0.00205565  0.66787926  1
  Fe  Fe38  1  0.50214846  0.16864827  0.83658005  1
  Ni  Ni39  1  0.50106682  0.50265419  0.50142244  1
  Ni  Ni40  1  0.33580708  0.33591513  0.66565507  1
  Ni  Ni41  1  0.50212845  0.50377808  0.83528261  1
  Ni  Ni42  1  0.50321497  0.83261438  0.50206270  1
  Ni  Ni43  1  0.33794981  0.66641506  0.66921094  1
  Ni  Ni44  1  0.50326550  0.83325617  0.83496271  1
  Cr  Cr45  1  0.83770166  0.16746654  0.50199926  1
  Ni  Ni46  1  0.66852442  0.99853344  0.66897133  1
  Cr  Cr47  1  0.83469436  0.16811240  0.83468241  1
  Ni  Ni48  1  0.83412924  0.50300393  0.50067316  1
  Cr  Cr49  1  0.66577137  0.33675630  0.66872210  1
  Ni  Ni50  1  0.83310216  0.50342240  0.83657012  1
  Ni  Ni51  1  0.83311181  0.83339099  0.50272824  1
  Ni  Ni52  1  0.66738001  0.66949361  0.66718021  1
  Ni  Ni53  1  0.83202091  0.83367722  0.83344241  1
" 