2237,Ni65Fe35_0,-237.60858535604, 212.601197162614,Ni65Fe35,"# generated using pymatgen
 data_Fe35Ni19
_symmetry_space_group_name_H-M   'P 1'
_cell_length_a   7.39557621
_cell_length_b   7.39557621
_cell_length_c   10.45892418
_cell_angle_alpha   90.00000000
_cell_angle_beta   90.00000000
_cell_angle_gamma   90.00000000
_symmetry_Int_Tables_number   1
_chemical_formula_structural   Fe35Ni19
_chemical_formula_sum   'Fe35 Ni19'
_cell_volume   572.04612509
_cell_formula_units_Z   1
loop_
 _symmetry_equiv_pos_site_id
 _symmetry_equiv_pos_as_xyz
  1  'x, y, z'
loop_
 _atom_site_type_symbol
 _atom_site_label
 _atom_site_symmetry_multiplicity
 _atom_site_fract_x
 _atom_site_fract_y
 _atom_site_fract_z
 _atom_site_occupancy
  Fe  Fe0  1  0.00525742  1.00432216  0.00491123  1
  Ni  Ni1  1  0.17128518  0.17063374  0.17198569  1
  Fe  Fe2  1  0.00512237  0.00540076  0.33762542  1
  Fe  Fe3  1  0.00501924  0.33857750  0.00491630  1
  Fe  Fe4  1  0.17193187  0.50424236  0.17149991  1
  Ni  Ni5  1  0.00596825  0.33894973  0.33738601  1
  Fe  Fe6  1  0.00532797  0.67159801  1.00440146  1
  Ni  Ni7  1  0.17166895  0.83928428  0.17132234  1
  Fe  Fe8  1  0.00520552  0.67201754  0.33837852  1
  Fe  Fe9  1  0.33806970  1.00433472  0.00549386  1
  Fe  Fe10  1  0.50352426  0.17121623  0.17171113  1
  Ni  Ni11  1  0.33902596  0.00494241  0.33789459  1
  Ni  Ni12  1  0.33645155  0.33794382  0.00570963  1
  Ni  Ni13  1  0.50541782  0.50455609  0.17189145  1
  Fe  Fe14  1  0.33818520  0.33745160  0.33778392  1
  Fe  Fe15  1  0.33838642  0.67119975  1.00470572  1
  Fe  Fe16  1  0.50420068  0.83844148  0.17145750  1
  Fe  Fe17  1  0.33787213  0.67195993  0.33794833  1
  Fe  Fe18  1  0.67116709  1.00464575  1.00423968  1
  Fe  Fe19  1  0.83867553  0.17149878  0.17250809  1
  Ni  Ni20  1  0.67064538  1.00340805  0.33728202  1
  Fe  Fe21  1  0.67076908  0.33889522  0.00537365  1
  Fe  Fe22  1  0.83865404  0.50491880  0.17199721  1
  Fe  Fe23  1  0.67173321  0.33736321  0.33821433  1
  Ni  Ni24  1  0.67188600  0.67294658  0.00511460  1
  Fe  Fe25  1  0.83808515  0.83808348  0.17083439  1
  Fe  Fe26  1  0.67142083  0.67141087  0.33800263  1
  Fe  Fe27  1  0.17056359  0.17309963  0.50424547  1
  Fe  Fe28  1  1.00410581  0.00505371  0.67195536  1
  Fe  Fe29  1  0.17179753  0.17122724  0.83861741  1
  Ni  Ni30  1  0.17133091  0.50468011  0.50367474  1
  Ni  Ni31  1  0.00691814  0.33864351  0.67236840  1
  Ni  Ni32  1  0.17188198  0.50481068  0.83905263  1
  Fe  Fe33  1  0.17080086  0.83787436  0.50428910  1
  Fe  Fe34  1  1.00478502  0.67084731  0.67171191  1
  Ni  Ni35  1  0.17187408  0.83758766  0.83775318  1
  Fe  Fe36  1  0.50526207  0.17189291  0.50483494  1
  Fe  Fe37  1  0.33867812  1.00474999  0.67142542  1
  Fe  Fe38  1  0.50394935  0.17063152  0.83794751  1
  Fe  Fe39  1  0.50532804  0.50441822  0.50468177  1
  Ni  Ni40  1  0.33560203  0.33826035  0.67080056  1
  Fe  Fe41  1  0.50432014  0.50633685  0.83898988  1
  Fe  Fe42  1  0.50591925  0.83817865  0.50524469  1
  Fe  Fe43  1  0.33808717  0.67106386  0.67184442  1
  Ni  Ni44  1  0.50529585  0.83843949  0.83884280  1
  Ni  Ni45  1  0.83740950  0.17193464  0.50465405  1
  Ni  Ni46  1  0.67158904  1.00227119  0.67208226  1
  Fe  Fe47  1  0.83874437  0.17033317  0.83723573  1
  Ni  Ni48  1  0.83826770  0.50342019  0.50513963  1
  Fe  Fe49  1  0.67192479  0.33799885  0.67091159  1
  Fe  Fe50  1  0.83845902  0.50672230  0.83761527  1
  Fe  Fe51  1  0.83777558  0.83780229  0.50553937  1
  Ni  Ni52  1  0.67197471  0.67358289  0.67128901  1
  Ni  Ni53  1  0.83732855  0.83882562  0.83759330  1
" 