5784,Ni65Fe24Cr10_9,-238.375954262693, 202.458011220878,Ni65Fe24Cr10,"# generated using pymatgen
 data_Cr6Fe13Ni35
_symmetry_space_group_name_H-M   'P 1'
_cell_length_a   7.43450738
_cell_length_b   7.43450738
_cell_length_c   10.51398117
_cell_angle_alpha   90.00000000
_cell_angle_beta   90.00000000
_cell_angle_gamma   90.00000000
_symmetry_Int_Tables_number   1
_chemical_formula_structural   Cr6Fe13Ni35
_chemical_formula_sum   'Cr6 Fe13 Ni35'
_cell_volume   581.12771525
_cell_formula_units_Z   1
loop_
 _symmetry_equiv_pos_site_id
 _symmetry_equiv_pos_as_xyz
  1  'x, y, z'
loop_
 _atom_site_type_symbol
 _atom_site_label
 _atom_site_symmetry_multiplicity
 _atom_site_fract_x
 _atom_site_fract_y
 _atom_site_fract_z
 _atom_site_occupancy
  Fe  Fe0  1  0.00273445  0.00440386  1.00162283  1
  Fe  Fe1  1  0.16871240  0.17061354  0.16850924  1
  Ni  Ni2  1  1.00021805  1.00201610  0.33658122  1
  Ni  Ni3  1  1.00198128  0.33451055  1.00217928  1
  Ni  Ni4  1  0.16862402  0.50067633  0.16913572  1
  Ni  Ni5  1  0.00316491  0.33633672  0.33571467  1
  Cr  Cr6  1  0.00390963  0.66758907  1.00109102  1
  Ni  Ni7  1  0.16963852  0.83593285  0.16795572  1
  Ni  Ni8  1  1.00211921  0.66821785  0.33665111  1
  Fe  Fe9  1  0.33581479  0.00275472  0.00335288  1
  Ni  Ni10  1  0.50217206  0.16863867  0.16707396  1
  Cr  Cr11  1  0.33698130  0.00292337  0.33623030  1
  Ni  Ni12  1  0.33612509  0.33608134  0.00255882  1
  Ni  Ni13  1  0.50154738  0.50139520  0.16667975  1
  Ni  Ni14  1  0.33412350  0.33608335  0.33565375  1
  Ni  Ni15  1  0.33582394  0.66799025  0.00286129  1
  Ni  Ni16  1  0.50185733  0.83653239  0.16742361  1
  Cr  Cr17  1  0.33456079  0.66713381  0.33525210  1
  Ni  Ni18  1  0.66847768  0.00434945  0.00264939  1
  Fe  Fe19  1  0.83582854  0.16982998  0.16813593  1
  Ni  Ni20  1  0.67008181  1.00202134  0.33652086  1
  Ni  Ni21  1  0.66846000  0.33417146  1.00127718  1
  Ni  Ni22  1  0.83639394  0.50035812  0.16905747  1
  Cr  Cr23  1  0.66837647  0.33438049  0.33547279  1
  Ni  Ni24  1  0.66690905  0.66804295  1.00215930  1
  Cr  Cr25  1  0.83490307  0.83605569  0.17004824  1
  Fe  Fe26  1  0.67016595  0.66940748  0.33590622  1
  Fe  Fe27  1  0.16820837  0.17014498  0.50222214  1
  Fe  Fe28  1  0.00249755  1.00131285  0.66828553  1
  Fe  Fe29  1  0.16915785  0.17039700  0.83583925  1
  Ni  Ni30  1  0.16793033  0.50197325  0.50227721  1
  Fe  Fe31  1  1.00205806  0.33652005  0.66896676  1
  Ni  Ni32  1  0.16894444  0.50231122  0.83515300  1
  Ni  Ni33  1  0.16707648  0.83493614  0.50334058  1
  Ni  Ni34  1  0.00333667  0.66920359  0.66877136  1
  Ni  Ni35  1  0.16813078  0.83553951  0.83526819  1
  Ni  Ni36  1  0.50278857  0.16832972  0.50378504  1
  Fe  Fe37  1  0.33508297  1.00201964  0.66781085  1
  Ni  Ni38  1  0.50338534  0.17023609  0.83570554  1
  Ni  Ni39  1  0.50132543  0.50157158  0.50360484  1
  Ni  Ni40  1  0.33615956  0.33641711  0.66835240  1
  Ni  Ni41  1  0.50191408  0.50013270  0.83627664  1
  Ni  Ni42  1  0.50351394  0.83666341  0.50275716  1
  Ni  Ni43  1  0.33325237  0.66732183  0.66829360  1
  Cr  Cr44  1  0.50119352  0.83548172  0.83648624  1
  Ni  Ni45  1  0.83557733  0.16747495  0.50174908  1
  Ni  Ni46  1  0.66976688  0.00364718  0.66739573  1
  Ni  Ni47  1  0.83504943  0.16942596  0.83669308  1
  Ni  Ni48  1  0.83731065  0.50269772  0.50231843  1
  Fe  Fe49  1  0.66835520  0.33589308  0.66921715  1
  Ni  Ni50  1  0.83570554  0.50013178  0.83518478  1
  Ni  Ni51  1  0.83597811  0.83639412  0.50205679  1
  Fe  Fe52  1  0.66905972  0.66766255  0.66809650  1
  Fe  Fe53  1  0.83571247  0.83589015  0.83451428  1
" 