3486,Ni65Fe35_14,-237.52377826807, 212.444071513664,Ni65Fe35,"# generated using pymatgen
 data_Fe35Ni19
_symmetry_space_group_name_H-M   'P 1'
_cell_length_a   7.39578553
_cell_length_b   7.39578553
_cell_length_c   10.45922020
_cell_angle_alpha   90.00000000
_cell_angle_beta   90.00000000
_cell_angle_gamma   90.00000000
_symmetry_Int_Tables_number   1
_chemical_formula_structural   Fe35Ni19
_chemical_formula_sum   'Fe35 Ni19'
_cell_volume   572.09469910
_cell_formula_units_Z   1
loop_
 _symmetry_equiv_pos_site_id
 _symmetry_equiv_pos_as_xyz
  1  'x, y, z'
loop_
 _atom_site_type_symbol
 _atom_site_label
 _atom_site_symmetry_multiplicity
 _atom_site_fract_x
 _atom_site_fract_y
 _atom_site_fract_z
 _atom_site_occupancy
  Fe  Fe0  1  1.00461661  1.00418556  1.00444351  1
  Fe  Fe1  1  0.17177958  0.17118559  0.17229064  1
  Fe  Fe2  1  0.00662750  0.00578978  0.33836376  1
  Fe  Fe3  1  1.00401040  0.33928507  0.00502720  1
  Fe  Fe4  1  0.17168432  0.50612993  0.17178341  1
  Ni  Ni5  1  0.00505980  0.33771263  0.33803830  1
  Ni  Ni6  1  0.00502222  0.67168870  0.00522237  1
  Ni  Ni7  1  0.17358212  0.83799674  0.17170168  1
  Fe  Fe8  1  0.00632539  0.67088710  0.33763522  1
  Fe  Fe9  1  0.33835338  1.00359643  0.00553113  1
  Fe  Fe10  1  0.50468600  0.17126212  0.17161412  1
  Ni  Ni11  1  0.33846913  0.00497192  0.33854711  1
  Fe  Fe12  1  0.33844617  0.33936664  1.00469190  1
  Fe  Fe13  1  0.50461513  0.50588409  0.17109912  1
  Ni  Ni14  1  0.33722649  0.33732320  0.33766239  1
  Ni  Ni15  1  0.33756421  0.67205357  1.00452225  1
  Ni  Ni16  1  0.50338682  0.83722093  0.17088587  1
  Ni  Ni17  1  0.33807474  0.67215644  0.33853727  1
  Fe  Fe18  1  0.67148397  1.00389532  1.00423411  1
  Fe  Fe19  1  0.83798690  0.17133888  0.17148486  1
  Fe  Fe20  1  0.67025438  0.00517653  0.33903366  1
  Ni  Ni21  1  0.67184890  0.33755367  1.00453074  1
  Ni  Ni22  1  0.83786827  0.50401429  0.17110474  1
  Fe  Fe23  1  0.67108158  0.33815108  0.33748431  1
  Ni  Ni24  1  0.67186758  0.67120479  1.00456243  1
  Fe  Fe25  1  0.83823183  0.83720341  0.17089265  1
  Fe  Fe26  1  0.67017427  0.67111923  0.33801615  1
  Ni  Ni27  1  0.17024642  0.17186176  0.50469589  1
  Fe  Fe28  1  1.00380543  0.00483454  0.67164979  1
  Ni  Ni29  1  0.17024939  0.17165793  0.83846191  1
  Fe  Fe30  1  0.17148493  0.50430372  0.50446707  1
  Fe  Fe31  1  1.00381932  0.33764044  0.67090248  1
  Fe  Fe32  1  0.17084997  0.50445363  0.83819924  1
  Fe  Fe33  1  0.17154886  0.83878777  0.50410137  1
  Ni  Ni34  1  1.00438013  0.67127513  0.67117288  1
  Fe  Fe35  1  0.17060474  0.83843634  0.83902994  1
  Fe  Fe36  1  0.50460256  0.17083065  0.50460460  1
  Fe  Fe37  1  0.33836014  1.00395235  0.67084961  1
  Fe  Fe38  1  0.50516215  0.17164662  0.83823378  1
  Fe  Fe39  1  0.50452339  0.50437829  0.50476925  1
  Fe  Fe40  1  0.33813485  0.33829906  0.67114911  1
  Fe  Fe41  1  0.50508642  0.50392478  0.83858182  1
  Ni  Ni42  1  0.50433841  0.83680735  0.50493749  1
  Fe  Fe43  1  0.33903375  0.67219994  0.67127212  1
  Fe  Fe44  1  0.50524810  0.83888277  0.83798697  1
  Ni  Ni45  1  0.83948790  0.17262869  0.50489606  1
  Ni  Ni46  1  0.67127746  0.00514223  0.67176766  1
  Ni  Ni47  1  0.83908638  0.17242311  0.83835231  1
  Fe  Fe48  1  0.83844509  0.50468985  0.50452622  1
  Fe  Fe49  1  0.67249950  0.33830700  0.67214967  1
  Fe  Fe50  1  0.83851910  0.50453992  0.83895135  1
  Fe  Fe51  1  0.83791601  0.83887376  0.50587287  1
  Ni  Ni52  1  0.67252013  0.67250815  0.67194616  1
  Fe  Fe53  1  0.83860021  0.83851902  0.83768993  1
" 