6961,Ni65Fe11Cr23_13,-231.224977220915, 170.003675840617,Ni65Fe11Cr23,"# generated using pymatgen
 data_Cr13Fe6Ni35
_symmetry_space_group_name_H-M   'P 1'
_cell_length_a   7.45990869
_cell_length_b   7.45990869
_cell_length_c   10.54990405
_cell_angle_alpha   90.00000000
_cell_angle_beta   90.00000000
_cell_angle_gamma   90.00000000
_symmetry_Int_Tables_number   1
_chemical_formula_structural   Cr13Fe6Ni35
_chemical_formula_sum   'Cr13 Fe6 Ni35'
_cell_volume   587.10466778
_cell_formula_units_Z   1
loop_
 _symmetry_equiv_pos_site_id
 _symmetry_equiv_pos_as_xyz
  1  'x, y, z'
loop_
 _atom_site_type_symbol
 _atom_site_label
 _atom_site_symmetry_multiplicity
 _atom_site_fract_x
 _atom_site_fract_y
 _atom_site_fract_z
 _atom_site_occupancy
  Cr  Cr0  1  1.00023326  1.00026583  0.00322679  1
  Ni  Ni1  1  0.16490279  0.16948020  0.16891614  1
  Ni  Ni2  1  1.00015038  0.99959022  0.33317785  1
  Ni  Ni3  1  0.00268793  0.33536343  0.00063895  1
  Ni  Ni4  1  0.16692059  0.50061706  0.16622042  1
  Ni  Ni5  1  1.00019566  0.33260073  0.33239277  1
  Ni  Ni6  1  0.00072656  0.66522558  0.00081881  1
  Ni  Ni7  1  0.16702875  0.83135494  0.16994047  1
  Ni  Ni8  1  0.99954068  0.66928645  0.33320054  1
  Cr  Cr9  1  0.33376844  0.00081028  1.00002467  1
  Cr  Cr10  1  0.50035545  0.16614170  0.16836653  1
  Ni  Ni11  1  0.33131314  0.99874574  0.33312583  1
  Ni  Ni12  1  0.33188533  0.33558275  0.99913208  1
  Ni  Ni13  1  0.49746318  0.50345604  0.16814310  1
  Ni  Ni14  1  0.33194387  0.33405673  0.33064484  1
  Ni  Ni15  1  0.33363195  0.66489238  0.00121267  1
  Ni  Ni16  1  0.50078786  0.83187984  0.16922147  1
  Ni  Ni17  1  0.33336096  0.66865806  0.33094248  1
  Fe  Fe18  1  0.66671246  0.99893172  0.00129532  1
  Ni  Ni19  1  0.83647889  0.16616989  0.16841980  1
  Ni  Ni20  1  0.66997813  0.99818675  0.33262084  1
  Cr  Cr21  1  0.66646044  0.33509649  0.00111715  1
  Ni  Ni22  1  0.83703805  0.50130535  0.16871824  1
  Cr  Cr23  1  0.66918248  0.33560832  0.33348002  1
  Cr  Cr24  1  0.66700436  0.66738733  0.00052247  1
  Ni  Ni25  1  0.83358281  0.83394292  0.16814893  1
  Ni  Ni26  1  0.66851862  0.66875407  0.33248840  1
  Cr  Cr27  1  0.16546307  0.16622341  0.50014569  1
  Ni  Ni28  1  1.00014385  0.99922080  0.66562463  1
  Ni  Ni29  1  0.16863076  0.17088310  0.83195725  1
  Cr  Cr30  1  0.16640064  0.50273695  0.50025479  1
  Fe  Fe31  1  0.99981131  0.33561014  0.66829877  1
  Ni  Ni32  1  0.16717786  0.49919869  0.83457664  1
  Ni  Ni33  1  0.16448895  0.83319852  0.50014125  1
  Ni  Ni34  1  0.99846049  0.66935709  0.66742693  1
  Cr  Cr35  1  0.16714077  0.83070106  0.83203300  1
  Cr  Cr36  1  0.50178292  0.16669914  0.50089454  1
  Fe  Fe37  1  0.33360201  0.99978148  0.66863986  1
  Ni  Ni38  1  0.49957216  0.16701413  0.83161934  1
  Cr  Cr39  1  0.50023959  0.50163044  0.50017572  1
  Ni  Ni40  1  0.33570506  0.33329312  0.67157482  1
  Ni  Ni41  1  0.49871407  0.50077788  0.83204260  1
  Cr  Cr42  1  0.50019900  0.83304177  0.49939663  1
  Ni  Ni43  1  0.33427668  0.66678767  0.66919504  1
  Ni  Ni44  1  0.50192468  0.83354935  0.83219889  1
  Ni  Ni45  1  0.83465527  0.16545556  0.50075206  1
  Fe  Fe46  1  0.66797519  0.99921452  0.66726624  1
  Cr  Cr47  1  0.83382556  0.16740493  0.83358542  1
  Fe  Fe48  1  0.83480784  0.50216471  0.50127598  1
  Ni  Ni49  1  0.66656792  0.33493926  0.66761893  1
  Ni  Ni50  1  0.83556602  0.50144773  0.83129461  1
  Ni  Ni51  1  0.83555958  0.83464247  0.50100670  1
  Ni  Ni52  1  0.66866612  0.66597516  0.66874609  1
  Fe  Fe53  1  0.83262781  0.83149834  0.83193822  1
" 