6210,Ni65Fe28Cr5_15,-239.896943448359, 209.448034080067,Ni65Fe28Cr5,"# generated using pymatgen
 data_Cr4(Fe3Ni7)5
_symmetry_space_group_name_H-M   'P 1'
_cell_length_a   7.42578859
_cell_length_b   7.42578859
_cell_length_c   10.50165093
_cell_angle_alpha   90.00000000
_cell_angle_beta   90.00000000
_cell_angle_gamma   90.00000000
_symmetry_Int_Tables_number   1
_chemical_formula_structural   Cr4(Fe3Ni7)5
_chemical_formula_sum   'Cr4 Fe15 Ni35'
_cell_volume   579.08556618
_cell_formula_units_Z   1
loop_
 _symmetry_equiv_pos_site_id
 _symmetry_equiv_pos_as_xyz
  1  'x, y, z'
loop_
 _atom_site_type_symbol
 _atom_site_label
 _atom_site_symmetry_multiplicity
 _atom_site_fract_x
 _atom_site_fract_y
 _atom_site_fract_z
 _atom_site_occupancy
  Fe  Fe0  1  0.00324466  0.00415201  0.00356936  1
  Ni  Ni1  1  0.16756033  0.17216746  0.17033968  1
  Ni  Ni2  1  1.00096656  0.00394721  0.33493099  1
  Ni  Ni3  1  1.00205648  0.33775178  0.00298604  1
  Ni  Ni4  1  0.16839868  0.50254203  0.17012190  1
  Ni  Ni5  1  1.00130343  0.33569464  0.33644105  1
  Ni  Ni6  1  1.00241622  0.66763934  1.00096732  1
  Ni  Ni7  1  0.17039055  0.83409695  0.16738340  1
  Cr  Cr8  1  0.00324109  0.66993276  0.33760496  1
  Cr  Cr9  1  0.33824822  0.00399349  1.00230830  1
  Ni  Ni10  1  0.50453589  0.16929625  0.16948373  1
  Cr  Cr11  1  0.33462849  0.00278468  0.33420828  1
  Ni  Ni12  1  0.33428776  0.33729570  1.00246953  1
  Fe  Fe13  1  0.50083815  0.50097241  0.16890093  1
  Ni  Ni14  1  0.33706695  0.33674182  0.33649241  1
  Ni  Ni15  1  0.33440684  0.66800170  1.00242900  1
  Ni  Ni16  1  0.50445262  0.83340485  0.16961426  1
  Ni  Ni17  1  0.33734312  0.66826624  0.33620897  1
  Ni  Ni18  1  0.67079365  0.00342684  1.00219573  1
  Ni  Ni19  1  0.83603760  0.17153366  0.16958331  1
  Fe  Fe20  1  0.66994726  0.00395412  0.33588720  1
  Fe  Fe21  1  0.66860837  0.33590362  1.00187578  1
  Ni  Ni22  1  0.83571844  0.50258900  0.16787345  1
  Ni  Ni23  1  0.67001267  0.33632197  0.33596090  1
  Fe  Fe24  1  0.66872326  0.66919942  1.00152743  1
  Fe  Fe25  1  0.83721559  0.83764063  0.16689091  1
  Fe  Fe26  1  0.66889352  0.66756840  0.33692150  1
  Ni  Ni27  1  0.16874047  0.16917008  0.50247622  1
  Fe  Fe28  1  1.00238611  0.00365161  0.66864359  1
  Ni  Ni29  1  0.16842387  0.17110687  0.83546682  1
  Fe  Fe30  1  0.17142081  0.50089270  0.50352070  1
  Fe  Fe31  1  0.00294604  0.33551507  0.66969448  1
  Ni  Ni32  1  0.16918599  0.50262359  0.83501513  1
  Ni  Ni33  1  0.17126777  0.83579572  0.50507873  1
  Fe  Fe34  1  1.00272439  0.66974881  0.67006311  1
  Fe  Fe35  1  0.16860644  0.83556007  0.83547088  1
  Ni  Ni36  1  0.50373121  0.16854690  0.50401526  1
  Ni  Ni37  1  0.33613186  1.00228670  0.67040323  1
  Ni  Ni38  1  0.50370699  0.16933118  0.83473865  1
  Fe  Fe39  1  0.50217213  0.50018111  0.50347266  1
  Fe  Fe40  1  0.33848239  0.33488776  0.67038892  1
  Ni  Ni41  1  0.50136579  0.50284111  0.83763418  1
  Ni  Ni42  1  0.50160353  0.83549620  0.50237252  1
  Ni  Ni43  1  0.33409943  0.67034573  0.66993638  1
  Ni  Ni44  1  0.50292827  0.83595476  0.83560702  1
  Ni  Ni45  1  0.83603711  0.17221434  0.50222959  1
  Ni  Ni46  1  0.66878889  0.00484160  0.66881247  1
  Ni  Ni47  1  0.83662948  0.16925292  0.83640292  1
  Ni  Ni48  1  0.83669715  0.50118257  0.50373160  1
  Ni  Ni49  1  0.67187843  0.33412623  0.67166571  1
  Ni  Ni50  1  0.83745042  0.50211221  0.83736422  1
  Fe  Fe51  1  0.83631195  0.84011945  0.50378613  1
  Cr  Cr52  1  0.66934330  0.66822347  0.67000087  1
  Ni  Ni53  1  0.83562023  0.83718911  0.83684856  1
" 