4417,Ni65Fe11Cr23_2,-231.563435486769, 175.389059989985,Ni65Fe11Cr23,"# generated using pymatgen
 data_Cr13Fe6Ni35
_symmetry_space_group_name_H-M   'P 1'
_cell_length_a   7.46056038
_cell_length_b   7.46056038
_cell_length_c   10.55082567
_cell_angle_alpha   90.00000000
_cell_angle_beta   90.00000000
_cell_angle_gamma   90.00000000
_symmetry_Int_Tables_number   1
_chemical_formula_structural   Cr13Fe6Ni35
_chemical_formula_sum   'Cr13 Fe6 Ni35'
_cell_volume   587.25854631
_cell_formula_units_Z   1
loop_
 _symmetry_equiv_pos_site_id
 _symmetry_equiv_pos_as_xyz
  1  'x, y, z'
loop_
 _atom_site_type_symbol
 _atom_site_label
 _atom_site_symmetry_multiplicity
 _atom_site_fract_x
 _atom_site_fract_y
 _atom_site_fract_z
 _atom_site_occupancy
  Ni  Ni0  1  0.00199021  0.00141553  0.00127253  1
  Ni  Ni1  1  0.16772238  0.16866823  0.16573149  1
  Ni  Ni2  1  0.99937852  0.99937371  0.33177820  1
  Ni  Ni3  1  0.00096842  0.33177544  0.00120718  1
  Ni  Ni4  1  0.16751900  0.50114574  0.16663282  1
  Cr  Cr5  1  0.99677924  0.33243473  0.33127929  1
  Ni  Ni6  1  0.00065662  0.66806860  0.00418865  1
  Fe  Fe7  1  0.16873051  0.83503036  0.16681083  1
  Fe  Fe8  1  1.00035858  0.66752447  0.33205994  1
  Fe  Fe9  1  0.33240460  0.99970091  0.00266087  1
  Ni  Ni10  1  0.49953119  0.16686148  0.16951455  1
  Ni  Ni11  1  0.33579389  0.99958031  0.33056160  1
  Ni  Ni12  1  0.33212408  0.33491808  0.00314721  1
  Ni  Ni13  1  0.49632046  0.50060411  0.16648344  1
  Ni  Ni14  1  0.33484630  0.33578080  0.33241457  1
  Ni  Ni15  1  0.33546766  0.66889467  0.00126085  1
  Ni  Ni16  1  0.50276324  0.83456088  0.16520871  1
  Ni  Ni17  1  0.33416226  0.66760635  0.33224064  1
  Fe  Fe18  1  0.66796653  0.99823724  0.00355148  1
  Ni  Ni19  1  0.83385456  0.16250065  0.16614274  1
  Ni  Ni20  1  0.66901185  0.00083573  0.33283700  1
  Cr  Cr21  1  0.66811524  0.33531113  0.00338017  1
  Fe  Fe22  1  0.83288530  0.50020760  0.16563177  1
  Ni  Ni23  1  0.66521523  0.33192869  0.33305818  1
  Ni  Ni24  1  0.66550572  0.66772565  0.00115131  1
  Ni  Ni25  1  0.83533176  0.83430436  0.16672359  1
  Cr  Cr26  1  0.66595651  0.66720666  0.33251418  1
  Cr  Cr27  1  0.16901495  0.16728481  0.49796783  1
  Ni  Ni28  1  0.99756493  0.99909221  0.66858786  1
  Ni  Ni29  1  0.16507075  0.16504197  0.83777560  1
  Ni  Ni30  1  0.16654287  0.50182327  0.49799835  1
  Cr  Cr31  1  0.99913124  0.33193602  0.66884754  1
  Cr  Cr32  1  0.16677274  0.50074540  0.83579271  1
  Cr  Cr33  1  0.16355260  0.83216513  0.49736806  1
  Ni  Ni34  1  0.99799829  0.66800989  0.66532889  1
  Ni  Ni35  1  0.16539835  0.83489025  0.83735575  1
  Ni  Ni36  1  0.50448176  0.16598743  0.49521556  1
  Cr  Cr37  1  0.33282649  0.99794984  0.66892687  1
  Cr  Cr38  1  0.49945937  0.16676575  0.83710061  1
  Ni  Ni39  1  0.50062242  0.50066521  0.49789790  1
  Cr  Cr40  1  0.33547065  0.33433438  0.66499314  1
  Ni  Ni41  1  0.50281062  0.50328816  0.83608080  1
  Ni  Ni42  1  0.50367699  0.83513253  0.49943608  1
  Cr  Cr43  1  0.33692626  0.66827855  0.66722230  1
  Ni  Ni44  1  0.50188986  0.83285637  0.83653728  1
  Ni  Ni45  1  0.83179706  0.16350134  0.50008245  1
  Ni  Ni46  1  0.66768449  0.99861765  0.66541124  1
  Fe  Fe47  1  0.83466012  0.16611924  0.83547723  1
  Ni  Ni48  1  0.83358483  0.50255032  0.49957359  1
  Cr  Cr49  1  0.66856561  0.33585136  0.66515039  1
  Ni  Ni50  1  0.83384409  0.50306488  0.83635341  1
  Ni  Ni51  1  0.83189799  0.83459007  0.50114238  1
  Ni  Ni52  1  0.66780447  0.66819441  0.66703891  1
  Cr  Cr53  1  0.83306786  0.83253894  0.83337098  1
" 