1561,Ni65Fe11Cr23_18,-231.700067629575, 173.678249800994,Ni65Fe11Cr23,"# generated using pymatgen
 data_Cr13Fe6Ni35
_symmetry_space_group_name_H-M   'P 1'
_cell_length_a   7.46268135
_cell_length_b   7.46268135
_cell_length_c   10.55382517
_cell_angle_alpha   90.00000000
_cell_angle_beta   90.00000000
_cell_angle_gamma   90.00000000
_symmetry_Int_Tables_number   1
_chemical_formula_structural   Cr13Fe6Ni35
_chemical_formula_sum   'Cr13 Fe6 Ni35'
_cell_volume   587.75954576
_cell_formula_units_Z   1
loop_
 _symmetry_equiv_pos_site_id
 _symmetry_equiv_pos_as_xyz
  1  'x, y, z'
loop_
 _atom_site_type_symbol
 _atom_site_label
 _atom_site_symmetry_multiplicity
 _atom_site_fract_x
 _atom_site_fract_y
 _atom_site_fract_z
 _atom_site_occupancy
  Ni  Ni0  1  0.99993048  0.00072023  0.99888066  1
  Ni  Ni1  1  0.16576228  0.16858663  0.16814121  1
  Ni  Ni2  1  0.00108794  0.00335431  0.33526839  1
  Fe  Fe3  1  0.00274047  0.33216532  0.99888927  1
  Ni  Ni4  1  0.16846249  0.49769817  0.16571860  1
  Ni  Ni5  1  0.00220111  0.33147469  0.33364447  1
  Ni  Ni6  1  0.00243247  0.66753389  0.99764819  1
  Cr  Cr7  1  0.16610887  0.83055986  0.16826361  1
  Cr  Cr8  1  0.00115784  0.66656943  0.33675392  1
  Cr  Cr9  1  0.33114002  0.00237674  0.00061967  1
  Ni  Ni10  1  0.49791001  0.16814769  0.16942594  1
  Ni  Ni11  1  0.33136539  0.00093630  0.33336637  1
  Ni  Ni12  1  0.32978290  0.33549253  0.99997370  1
  Cr  Cr13  1  0.49635528  0.50021457  0.16937836  1
  Ni  Ni14  1  0.33074045  0.33327190  0.33405283  1
  Ni  Ni15  1  0.33090776  0.66528883  0.99760222  1
  Ni  Ni16  1  0.49752446  0.83423171  0.16767482  1
  Ni  Ni17  1  0.33292768  0.66670860  0.33670682  1
  Cr  Cr18  1  0.66816774  1.00024301  0.00235651  1
  Ni  Ni19  1  0.83680805  0.16683588  0.16829154  1
  Cr  Cr20  1  0.66812362  1.00000946  0.33000989  1
  Cr  Cr21  1  0.66591708  0.33276575  0.99880759  1
  Cr  Cr22  1  0.83955106  0.49993034  0.16665531  1
  Ni  Ni23  1  0.66886680  0.33237794  0.33549365  1
  Cr  Cr24  1  0.66693659  0.66853996  0.99710732  1
  Ni  Ni25  1  0.83616060  0.83635734  0.16560333  1
  Cr  Cr26  1  0.66724707  0.66716671  0.33646178  1
  Fe  Fe27  1  0.16516938  0.16739212  0.50017160  1
  Fe  Fe28  1  1.00009743  0.00074366  0.66706931  1
  Fe  Fe29  1  0.16507038  0.16735090  0.83273355  1
  Ni  Ni30  1  0.16789751  0.49970359  0.50081628  1
  Ni  Ni31  1  0.00132190  0.33393202  0.66778974  1
  Ni  Ni32  1  0.16660953  0.50133633  0.83425374  1
  Fe  Fe33  1  0.16651824  0.83478265  0.50201096  1
  Ni  Ni34  1  0.00205556  0.66584650  0.66695266  1
  Ni  Ni35  1  0.16594307  0.83139216  0.83108795  1
  Cr  Cr36  1  0.50025397  0.16667040  0.50152368  1
  Ni  Ni37  1  0.33115003  0.99924147  0.66706903  1
  Cr  Cr38  1  0.50037054  0.16747287  0.82963823  1
  Fe  Fe39  1  0.50040059  0.49967822  0.50162236  1
  Ni  Ni40  1  0.33015056  0.33458657  0.66697551  1
  Ni  Ni41  1  0.49620273  0.49998504  0.83006674  1
  Ni  Ni42  1  0.49682471  0.83508322  0.50140969  1
  Ni  Ni43  1  0.33105490  0.66714061  0.66663422  1
  Ni  Ni44  1  0.49723297  0.83307931  0.83176384  1
  Ni  Ni45  1  0.83505067  0.16778507  0.50120995  1
  Ni  Ni46  1  0.66790369  0.99965099  0.66791772  1
  Ni  Ni47  1  0.83592011  0.16654609  0.83120455  1
  Ni  Ni48  1  0.83839803  0.49681363  0.50205189  1
  Ni  Ni49  1  0.66980311  0.33313960  0.66647156  1
  Ni  Ni50  1  0.83761705  0.49885366  0.83180053  1
  Ni  Ni51  1  0.83460390  0.83620459  0.50264134  1
  Cr  Cr52  1  0.66850240  0.66678327  0.66740506  1
  Ni  Ni53  1  0.83735765  0.83504481  0.83270947  1
" 