6829,Ni65Fe17Cr16_11,-234.539885472342, 189.481257384789,Ni65Fe17Cr16,"# generated using pymatgen
 data_Cr10Fe9Ni35
_symmetry_space_group_name_H-M   'P 1'
_cell_length_a   7.44686949
_cell_length_b   7.44686949
_cell_length_c   10.53146384
_cell_angle_alpha   90.00000000
_cell_angle_beta   90.00000000
_cell_angle_gamma   90.00000000
_symmetry_Int_Tables_number   1
_chemical_formula_structural   Cr10Fe9Ni35
_chemical_formula_sum   'Cr10 Fe9 Ni35'
_cell_volume   584.03143966
_cell_formula_units_Z   1
loop_
 _symmetry_equiv_pos_site_id
 _symmetry_equiv_pos_as_xyz
  1  'x, y, z'
loop_
 _atom_site_type_symbol
 _atom_site_label
 _atom_site_symmetry_multiplicity
 _atom_site_fract_x
 _atom_site_fract_y
 _atom_site_fract_z
 _atom_site_occupancy
  Ni  Ni0  1  1.00113084  0.00147336  0.00193198  1
  Ni  Ni1  1  0.16749628  0.16995993  0.16754315  1
  Fe  Fe2  1  1.00077043  0.00469400  0.33549833  1
  Ni  Ni3  1  0.00264801  0.33493828  0.00328446  1
  Ni  Ni4  1  0.16927334  0.49898791  0.16706256  1
  Ni  Ni5  1  0.00203306  0.33360513  0.33515849  1
  Ni  Ni6  1  1.00060852  0.66765237  1.00068586  1
  Cr  Cr7  1  0.16928602  0.83501421  0.16615180  1
  Cr  Cr8  1  0.99955160  0.66660866  0.33523500  1
  Ni  Ni9  1  0.33610364  0.00312392  0.99909095  1
  Ni  Ni10  1  0.50180081  0.16803971  0.16724430  1
  Ni  Ni11  1  0.33557950  0.00419181  0.33556382  1
  Ni  Ni12  1  0.33371917  0.33241487  0.00377873  1
  Ni  Ni13  1  0.50022017  0.50110640  0.16881607  1
  Ni  Ni14  1  0.33407052  0.33226885  0.33374773  1
  Ni  Ni15  1  0.33410772  0.66852339  0.00319471  1
  Ni  Ni16  1  0.50201666  0.83491812  0.16847914  1
  Fe  Fe17  1  0.33562909  0.66622340  0.33388526  1
  Ni  Ni18  1  0.66682724  1.00108650  0.00311349  1
  Ni  Ni19  1  0.83476807  0.16816638  0.16786855  1
  Fe  Fe20  1  0.66818811  0.00320216  0.33316166  1
  Fe  Fe21  1  0.66821700  0.33306140  0.00321243  1
  Ni  Ni22  1  0.83457124  0.49920472  0.16687443  1
  Ni  Ni23  1  0.66796139  0.33415353  0.33411422  1
  Cr  Cr24  1  0.66986500  0.66979068  0.00215135  1
  Ni  Ni25  1  0.83264954  0.83669757  0.16781032  1
  Ni  Ni26  1  0.66861540  0.66843157  0.33339376  1
  Ni  Ni27  1  0.16599903  0.16681975  0.50127954  1
  Ni  Ni28  1  0.00329021  0.99992487  0.66647761  1
  Fe  Fe29  1  0.16781967  0.16574270  0.83589808  1
  Ni  Ni30  1  0.16603490  0.50154939  0.50152363  1
  Ni  Ni31  1  1.00006533  0.33532999  0.66562536  1
  Cr  Cr32  1  0.16571254  0.50249895  0.83572903  1
  Ni  Ni33  1  0.16797009  0.83569538  0.50390145  1
  Ni  Ni34  1  0.99997133  0.66880863  0.66761334  1
  Fe  Fe35  1  0.16736818  0.83523340  0.83447154  1
  Ni  Ni36  1  0.50178282  0.16782885  0.50090960  1
  Fe  Fe37  1  0.33233271  1.00017278  0.66806684  1
  Fe  Fe38  1  0.50093304  0.16640011  0.83641444  1
  Cr  Cr39  1  0.50230204  0.50134754  0.50104137  1
  Cr  Cr40  1  0.33408781  0.33206971  0.66629261  1
  Cr  Cr41  1  0.50279719  0.50236479  0.83397021  1
  Cr  Cr42  1  0.49966196  0.83436011  0.50031806  1
  Ni  Ni43  1  0.33323226  0.67074418  0.66723470  1
  Ni  Ni44  1  0.49944123  0.83590858  0.83465999  1
  Ni  Ni45  1  0.83628233  0.16976689  0.50077171  1
  Cr  Cr46  1  0.66770420  1.00097814  0.66751587  1
  Cr  Cr47  1  0.83591896  0.16930135  0.83594703  1
  Ni  Ni48  1  0.83576289  0.49908781  0.50412707  1
  Ni  Ni49  1  0.67001760  0.33587049  0.66734057  1
  Ni  Ni50  1  0.83554463  0.50175695  0.83306230  1
  Fe  Fe51  1  0.83689094  0.83453364  0.50192281  1
  Ni  Ni52  1  0.67085922  0.66752047  0.66879710  1
  Ni  Ni53  1  0.83566800  0.83400521  0.83419503  1
" 