836,Ni65Fe11Cr23_14,-231.177106528106, 168.746081231534,Ni65Fe11Cr23,"# generated using pymatgen
 data_Cr13Fe6Ni35
_symmetry_space_group_name_H-M   'P 1'
_cell_length_a   7.46157729
_cell_length_b   7.46157729
_cell_length_c   10.55226381
_cell_angle_alpha   90.00000000
_cell_angle_beta   90.00000000
_cell_angle_gamma   90.00000000
_symmetry_Int_Tables_number   1
_chemical_formula_structural   Cr13Fe6Ni35
_chemical_formula_sum   'Cr13 Fe6 Ni35'
_cell_volume   587.49871968
_cell_formula_units_Z   1
loop_
 _symmetry_equiv_pos_site_id
 _symmetry_equiv_pos_as_xyz
  1  'x, y, z'
loop_
 _atom_site_type_symbol
 _atom_site_label
 _atom_site_symmetry_multiplicity
 _atom_site_fract_x
 _atom_site_fract_y
 _atom_site_fract_z
 _atom_site_occupancy
  Ni  Ni0  1  1.00022554  0.00157495  0.99826915  1
  Cr  Cr1  1  0.16793144  0.16848313  0.16816792  1
  Cr  Cr2  1  0.99965802  0.99893445  0.33610400  1
  Ni  Ni3  1  0.99890575  0.33374735  0.00113713  1
  Ni  Ni4  1  0.16607246  0.50107670  0.16756406  1
  Fe  Fe5  1  0.99934872  0.33675064  0.33424214  1
  Ni  Ni6  1  0.00235331  0.66582394  0.00098085  1
  Cr  Cr7  1  0.16867321  0.83147160  0.16542968  1
  Ni  Ni8  1  0.00162990  0.66490294  0.33498938  1
  Ni  Ni9  1  0.33446212  0.99968284  0.99912439  1
  Ni  Ni10  1  0.50222676  0.16889906  0.16695368  1
  Fe  Fe11  1  0.33466474  0.00082436  0.33583132  1
  Cr  Cr12  1  0.33485446  0.33506505  0.99886891  1
  Ni  Ni13  1  0.50111681  0.49923333  0.16843806  1
  Ni  Ni14  1  0.33580283  0.33594069  0.33460611  1
  Ni  Ni15  1  0.33349162  0.66667522  0.99766884  1
  Cr  Cr16  1  0.49879382  0.83370118  0.16592655  1
  Ni  Ni17  1  0.33236084  0.66375838  0.33595346  1
  Ni  Ni18  1  0.66642934  0.00303264  0.99896952  1
  Ni  Ni19  1  0.83161864  0.17114877  0.16456570  1
  Cr  Cr20  1  0.66770455  0.00214177  0.33516655  1
  Ni  Ni21  1  0.66720306  0.33274323  0.00152011  1
  Ni  Ni22  1  0.83385538  0.49804503  0.16739683  1
  Ni  Ni23  1  0.66533133  0.33450519  0.33331223  1
  Ni  Ni24  1  0.66518478  0.66523695  0.00185775  1
  Cr  Cr25  1  0.83363537  0.83171500  0.16447871  1
  Fe  Fe26  1  0.66717076  0.66367078  0.33495619  1
  Fe  Fe27  1  0.16583267  0.16764129  0.50037510  1
  Ni  Ni28  1  0.99944243  1.00002736  0.66619765  1
  Ni  Ni29  1  0.16460211  0.16637733  0.83370339  1
  Ni  Ni30  1  0.16546504  0.50166186  0.49987027  1
  Ni  Ni31  1  0.00165263  0.33327955  0.66538336  1
  Ni  Ni32  1  0.16678092  0.50198098  0.83359693  1
  Ni  Ni33  1  0.16753131  0.83087904  0.50041349  1
  Ni  Ni34  1  0.00337942  0.66776480  0.66498542  1
  Ni  Ni35  1  0.16852247  0.83286549  0.83475260  1
  Ni  Ni36  1  0.50098612  0.16615051  0.49832211  1
  Cr  Cr37  1  0.33383145  0.99974448  0.66678503  1
  Ni  Ni38  1  0.50192593  0.16479393  0.83592515  1
  Fe  Fe39  1  0.50023802  0.50094814  0.49768466  1
  Cr  Cr40  1  0.33297842  0.33580473  0.66841660  1
  Ni  Ni41  1  0.49847562  0.50224618  0.83486096  1
  Ni  Ni42  1  0.49912755  0.83431771  0.49955479  1
  Fe  Fe43  1  0.33127586  0.66783400  0.66737307  1
  Ni  Ni44  1  0.49824755  0.83420669  0.83544252  1
  Ni  Ni45  1  0.83313200  0.16842887  0.50218398  1
  Ni  Ni46  1  0.66808350  0.00082611  0.66625085  1
  Ni  Ni47  1  0.83450846  0.16653516  0.83428910  1
  Ni  Ni48  1  0.83667070  0.49980397  0.49813152  1
  Cr  Cr49  1  0.66642662  0.33150388  0.66739696  1
  Cr  Cr50  1  0.83566043  0.49813400  0.83528466  1
  Ni  Ni51  1  0.83446559  0.83285026  0.50158776  1
  Cr  Cr52  1  0.66586935  0.66868464  0.66420490  1
  Cr  Cr53  1  0.83397683  0.83571842  0.83434252  1
" 