6956,Ni65Fe17Cr16_18,-234.16747049837, 184.434390425867,Ni65Fe17Cr16,"# generated using pymatgen
 data_Cr10Fe9Ni35
_symmetry_space_group_name_H-M   'P 1'
_cell_length_a   7.45007107
_cell_length_b   7.45007107
_cell_length_c   10.53599155
_cell_angle_alpha   90.00000000
_cell_angle_beta   90.00000000
_cell_angle_gamma   90.00000000
_symmetry_Int_Tables_number   1
_chemical_formula_structural   Cr10Fe9Ni35
_chemical_formula_sum   'Cr10 Fe9 Ni35'
_cell_volume   584.78502771
_cell_formula_units_Z   1
loop_
 _symmetry_equiv_pos_site_id
 _symmetry_equiv_pos_as_xyz
  1  'x, y, z'
loop_
 _atom_site_type_symbol
 _atom_site_label
 _atom_site_symmetry_multiplicity
 _atom_site_fract_x
 _atom_site_fract_y
 _atom_site_fract_z
 _atom_site_occupancy
  Ni  Ni0  1  1.00098886  0.00158542  0.00145255  1
  Fe  Fe1  1  0.16795446  0.16935969  0.16639676  1
  Fe  Fe2  1  0.99925342  0.99921077  0.33540272  1
  Ni  Ni3  1  0.00261005  0.33487271  0.00160217  1
  Ni  Ni4  1  0.16918890  0.50120167  0.16673834  1
  Cr  Cr5  1  1.00101484  0.33468676  0.33310517  1
  Ni  Ni6  1  0.00131219  0.66696246  0.99979634  1
  Cr  Cr7  1  0.16674541  0.83399551  0.16729102  1
  Ni  Ni8  1  0.00148575  0.66868631  0.33537167  1
  Fe  Fe9  1  0.33393707  1.00108410  0.00116230  1
  Ni  Ni10  1  0.50032675  0.16888051  0.16987102  1
  Ni  Ni11  1  0.33599415  0.00192051  0.33437903  1
  Ni  Ni12  1  0.33299930  0.33565444  0.00228795  1
  Ni  Ni13  1  0.50038669  0.50056445  0.16907105  1
  Fe  Fe14  1  0.33643581  0.33459426  0.33368672  1
  Ni  Ni15  1  0.33478097  0.66666393  0.99978519  1
  Fe  Fe16  1  0.50270822  0.83289274  0.16917307  1
  Ni  Ni17  1  0.33386869  0.66806056  0.33446844  1
  Cr  Cr18  1  0.66821841  0.99992562  1.00063460  1
  Ni  Ni19  1  0.83389631  0.16683566  0.16836213  1
  Ni  Ni20  1  0.66727045  0.00218062  0.33461666  1
  Cr  Cr21  1  0.66883289  0.33556188  0.00113938  1
  Ni  Ni22  1  0.83384557  0.50261289  0.16761663  1
  Ni  Ni23  1  0.66664329  0.33210725  0.33333898  1
  Ni  Ni24  1  0.66732683  0.66828303  0.00162177  1
  Ni  Ni25  1  0.83453049  0.83396765  0.16924906  1
  Ni  Ni26  1  0.66806529  0.66912857  0.33150787  1
  Fe  Fe27  1  0.16756819  0.16745772  0.50190030  1
  Ni  Ni28  1  0.99830204  1.00110112  0.66599548  1
  Cr  Cr29  1  0.16729112  0.16800939  0.83654917  1
  Ni  Ni30  1  0.16826873  0.50218925  0.50149649  1
  Ni  Ni31  1  1.00087958  0.33414305  0.66834899  1
  Ni  Ni32  1  0.16791403  0.50279266  0.83518015  1
  Ni  Ni33  1  0.16431994  0.83420915  0.49980840  1
  Ni  Ni34  1  0.99980522  0.66817399  0.66824979  1
  Ni  Ni35  1  0.16573536  0.83275931  0.83573213  1
  Ni  Ni36  1  0.50182104  0.16864518  0.50050286  1
  Cr  Cr37  1  0.33468604  0.00217704  0.66848532  1
  Ni  Ni38  1  0.50175914  0.16932437  0.83304430  1
  Cr  Cr39  1  0.50014744  0.49834538  0.49996838  1
  Ni  Ni40  1  0.33442224  0.33413735  0.66678375  1
  Ni  Ni41  1  0.50093663  0.50057608  0.83424226  1
  Cr  Cr42  1  0.50217453  0.83561483  0.49906376  1
  Cr  Cr43  1  0.33290340  0.66645198  0.66914669  1
  Fe  Fe44  1  0.50234223  0.83274925  0.83519915  1
  Ni  Ni45  1  0.83325322  0.16469751  0.50231337  1
  Fe  Fe46  1  0.67092946  0.00220066  0.66807215  1
  Ni  Ni47  1  0.83380849  0.16714544  0.83273865  1
  Cr  Cr48  1  0.83488501  0.50245396  0.50201722  1
  Fe  Fe49  1  0.66829956  0.33309542  0.66918692  1
  Ni  Ni50  1  0.83456860  0.50269147  0.83391214  1
  Ni  Ni51  1  0.83752331  0.83677722  0.50094467  1
  Ni  Ni52  1  0.67033211  0.66854507  0.67029017  1
  Ni  Ni53  1  0.83602740  0.83358132  0.83322388  1
" 