7722,Ni65Fe11Cr23_19,-231.256726240159, 174.405510355465,Ni65Fe11Cr23,"# generated using pymatgen
 data_Cr13Fe6Ni35
_symmetry_space_group_name_H-M   'P 1'
_cell_length_a   7.45739683
_cell_length_b   7.45739683
_cell_length_c   10.54635173
_cell_angle_alpha   90.00000000
_cell_angle_beta   90.00000000
_cell_angle_gamma   90.00000000
_symmetry_Int_Tables_number   1
_chemical_formula_structural   Cr13Fe6Ni35
_chemical_formula_sum   'Cr13 Fe6 Ni35'
_cell_volume   586.51180637
_cell_formula_units_Z   1
loop_
 _symmetry_equiv_pos_site_id
 _symmetry_equiv_pos_as_xyz
  1  'x, y, z'
loop_
 _atom_site_type_symbol
 _atom_site_label
 _atom_site_symmetry_multiplicity
 _atom_site_fract_x
 _atom_site_fract_y
 _atom_site_fract_z
 _atom_site_occupancy
  Ni  Ni0  1  0.99999272  0.00109115  0.99966114  1
  Cr  Cr1  1  0.16489028  0.16682254  0.16631613  1
  Ni  Ni2  1  1.00010358  1.00038751  0.33542785  1
  Ni  Ni3  1  0.00092716  0.33357565  1.00022936  1
  Ni  Ni4  1  0.16666923  0.50096170  0.16600840  1
  Fe  Fe5  1  0.99810163  0.33266606  0.33308972  1
  Cr  Cr6  1  1.00005286  0.66696150  0.00137353  1
  Ni  Ni7  1  0.17134761  0.83505204  0.16757276  1
  Cr  Cr8  1  0.00154986  0.66887681  0.33209298  1
  Ni  Ni9  1  0.33422972  1.00043484  0.99956821  1
  Fe  Fe10  1  0.50119264  0.16502067  0.16711618  1
  Ni  Ni11  1  0.33307172  1.00017303  0.33472367  1
  Ni  Ni12  1  0.33280267  0.33428023  0.99843240  1
  Cr  Cr13  1  0.49966213  0.50389284  0.16632114  1
  Cr  Cr14  1  0.33651976  0.33362923  0.33422436  1
  Ni  Ni15  1  0.33372287  0.66738948  1.00041034  1
  Ni  Ni16  1  0.49983630  0.83613535  0.16660569  1
  Ni  Ni17  1  0.33210094  0.66897127  0.33294084  1
  Ni  Ni18  1  0.66783648  1.00017720  0.00126529  1
  Ni  Ni19  1  0.83404650  0.16662767  0.16821226  1
  Ni  Ni20  1  0.66874642  0.00368163  0.33271529  1
  Cr  Cr21  1  0.66727550  0.33350199  0.99999762  1
  Ni  Ni22  1  0.83499332  0.49714575  0.16715789  1
  Ni  Ni23  1  0.66915632  0.33153781  0.33524002  1
  Ni  Ni24  1  0.66716773  0.66850481  0.99944115  1
  Fe  Fe25  1  0.83383482  0.83645050  0.16629456  1
  Cr  Cr26  1  0.66902841  0.66533930  0.33389451  1
  Ni  Ni27  1  0.16619765  0.16726067  0.49998688  1
  Cr  Cr28  1  0.00082199  0.99872808  0.66736905  1
  Ni  Ni29  1  0.16686850  0.16995957  0.83543523  1
  Cr  Cr30  1  0.16553289  0.49954400  0.50058312  1
  Fe  Fe31  1  0.99977591  0.33417676  0.66898684  1
  Ni  Ni32  1  0.16719706  0.49795438  0.83517422  1
  Ni  Ni33  1  0.16643726  0.83522364  0.49897926  1
  Ni  Ni34  1  0.99833966  0.66717023  0.66783082  1
  Fe  Fe35  1  0.16695798  0.83387200  0.83579608  1
  Ni  Ni36  1  0.50148120  0.16802197  0.49907010  1
  Cr  Cr37  1  0.33248718  0.00449349  0.66811590  1
  Ni  Ni38  1  0.49968182  0.16724777  0.83588207  1
  Fe  Fe39  1  0.50286174  0.49846729  0.50192136  1
  Ni  Ni40  1  0.33596188  0.33313416  0.66840344  1
  Ni  Ni41  1  0.50044822  0.50185744  0.83297605  1
  Cr  Cr42  1  0.50128102  0.83365611  0.49934116  1
  Cr  Cr43  1  0.33272735  0.66634766  0.66835914  1
  Ni  Ni44  1  0.50230929  0.83263214  0.83683696  1
  Ni  Ni45  1  0.83430166  0.16932520  0.49905165  1
  Cr  Cr46  1  0.66851800  0.00296267  0.66839901  1
  Ni  Ni47  1  0.83538244  0.16801049  0.83492234  1
  Ni  Ni48  1  0.83345178  0.49860000  0.50239863  1
  Ni  Ni49  1  0.66616575  0.33500824  0.66679911  1
  Ni  Ni50  1  0.83442321  0.50082946  0.83243291  1
  Ni  Ni51  1  0.83437643  0.83381663  0.50011135  1
  Ni  Ni52  1  0.67090112  0.66411957  0.66825043  1
  Ni  Ni53  1  0.83119307  0.83323309  0.83519488  1
" 