1740,Ni65Fe24Cr10_6,-237.564044061486, 202.705452898378,Ni65Fe24Cr10,"# generated using pymatgen
 data_Cr6Fe13Ni35
_symmetry_space_group_name_H-M   'P 1'
_cell_length_a   7.42675337
_cell_length_b   7.42675337
_cell_length_c   10.50301534
_cell_angle_alpha   90.00000000
_cell_angle_beta   90.00000000
_cell_angle_gamma   90.00000000
_symmetry_Int_Tables_number   1
_chemical_formula_structural   Cr6Fe13Ni35
_chemical_formula_sum   'Cr6 Fe13 Ni35'
_cell_volume   579.31130431
_cell_formula_units_Z   1
loop_
 _symmetry_equiv_pos_site_id
 _symmetry_equiv_pos_as_xyz
  1  'x, y, z'
loop_
 _atom_site_type_symbol
 _atom_site_label
 _atom_site_symmetry_multiplicity
 _atom_site_fract_x
 _atom_site_fract_y
 _atom_site_fract_z
 _atom_site_occupancy
  Ni  Ni0  1  1.00151931  0.00299184  1.00242537  1
  Ni  Ni1  1  0.16983195  0.16909464  0.16879092  1
  Cr  Cr2  1  1.00169878  0.00387705  0.33649283  1
  Ni  Ni3  1  1.00063135  0.33542191  0.00328171  1
  Ni  Ni4  1  0.16907627  0.50374151  0.16987295  1
  Ni  Ni5  1  0.00375215  0.33677195  0.33521487  1
  Ni  Ni6  1  1.00181487  0.66959350  0.00441476  1
  Fe  Fe7  1  0.17018573  0.83576064  0.16825445  1
  Fe  Fe8  1  0.00458120  0.66996357  0.33517704  1
  Ni  Ni9  1  0.33697019  1.00151682  0.00362474  1
  Ni  Ni10  1  0.50339270  0.16799611  0.16961554  1
  Ni  Ni11  1  0.33810336  0.00313287  0.33534734  1
  Cr  Cr12  1  0.33632641  0.33547890  0.00377122  1
  Ni  Ni13  1  0.50316904  0.50366739  0.17048688  1
  Ni  Ni14  1  0.33520816  0.33649926  0.33641656  1
  Ni  Ni15  1  0.33696585  0.67047007  0.00272643  1
  Fe  Fe16  1  0.50290875  0.83643710  0.17007555  1
  Ni  Ni17  1  0.33634964  0.66822385  0.33693057  1
  Ni  Ni18  1  0.66986789  0.00275646  1.00255112  1
  Ni  Ni19  1  0.83481017  0.16947694  0.16871991  1
  Ni  Ni20  1  0.66891674  1.00229376  0.33687054  1
  Fe  Fe21  1  0.66990577  0.33546105  1.00268768  1
  Ni  Ni22  1  0.83582280  0.50313118  0.16867905  1
  Fe  Fe23  1  0.66759656  0.33343388  0.33500464  1
  Fe  Fe24  1  0.66901806  0.66955148  0.00283971  1
  Ni  Ni25  1  0.83459359  0.83555411  0.16846733  1
  Fe  Fe26  1  0.66831936  0.67077536  0.33524386  1
  Ni  Ni27  1  0.17107246  0.16975817  0.50391568  1
  Fe  Fe28  1  0.00344741  0.00412683  0.66921808  1
  Ni  Ni29  1  0.16855208  0.16582123  0.83528192  1
  Ni  Ni30  1  0.17127544  0.50224511  0.50243620  1
  Fe  Fe31  1  1.00270896  0.33310540  0.66952645  1
  Cr  Cr32  1  0.16970789  0.50302622  0.83574417  1
  Ni  Ni33  1  0.17242433  0.83615946  0.50255273  1
  Cr  Cr34  1  0.00367559  0.67134341  0.66855582  1
  Ni  Ni35  1  0.17147048  0.83837925  0.83733867  1
  Ni  Ni36  1  0.50258300  0.16779796  0.50296654  1
  Ni  Ni37  1  0.33688641  0.00305206  0.66914656  1
  Fe  Fe38  1  0.50254963  0.16875607  0.83516621  1
  Fe  Fe39  1  0.50048896  0.50168244  0.50278166  1
  Ni  Ni40  1  0.33728949  0.33536102  0.66800611  1
  Ni  Ni41  1  0.50434349  0.50373309  0.83509869  1
  Ni  Ni42  1  0.50155295  0.83769643  0.50210561  1
  Ni  Ni43  1  0.33641811  0.66969960  0.66846022  1
  Fe  Fe44  1  0.50126954  0.83782756  0.83607444  1
  Ni  Ni45  1  0.83438968  0.16861601  0.50358745  1
  Ni  Ni46  1  0.66998471  0.00451886  0.66869874  1
  Ni  Ni47  1  0.83559477  0.16916832  0.83579336  1
  Cr  Cr48  1  0.83595911  0.50069812  0.50044928  1
  Ni  Ni49  1  0.66830598  0.33379430  0.67009889  1
  Ni  Ni50  1  0.83371595  0.50084503  0.83880711  1
  Ni  Ni51  1  0.83432628  0.83801982  0.50285871  1
  Cr  Cr52  1  0.66809102  0.67085690  0.67001155  1
  Fe  Fe53  1  0.83706960  0.83732807  0.83782551  1
" 