2133,Ni65Fe35_12,-237.663393419709, 207.534992877168,Ni65Fe35,"# generated using pymatgen
 data_Fe35Ni19
_symmetry_space_group_name_H-M   'P 1'
_cell_length_a   7.39724173
_cell_length_b   7.39724173
_cell_length_c   10.46127958
_cell_angle_alpha   90.00000000
_cell_angle_beta   90.00000000
_cell_angle_gamma   90.00000000
_symmetry_Int_Tables_number   1
_chemical_formula_structural   Fe35Ni19
_chemical_formula_sum   'Fe35 Ni19'
_cell_volume   572.43269456
_cell_formula_units_Z   1
loop_
 _symmetry_equiv_pos_site_id
 _symmetry_equiv_pos_as_xyz
  1  'x, y, z'
loop_
 _atom_site_type_symbol
 _atom_site_label
 _atom_site_symmetry_multiplicity
 _atom_site_fract_x
 _atom_site_fract_y
 _atom_site_fract_z
 _atom_site_occupancy
  Fe  Fe0  1  0.00490444  1.00356979  0.00490329  1
  Fe  Fe1  1  0.17036501  0.17187323  0.17053448  1
  Ni  Ni2  1  0.00583517  0.00595062  0.33805514  1
  Fe  Fe3  1  1.00464342  0.33965627  1.00420030  1
  Fe  Fe4  1  0.17116860  0.50518571  0.17131324  1
  Fe  Fe5  1  1.00406459  0.33957946  0.33816668  1
  Fe  Fe6  1  1.00463985  0.67107452  1.00468110  1
  Fe  Fe7  1  0.17076280  0.83741905  0.17150133  1
  Ni  Ni8  1  1.00367315  0.67263540  0.33697851  1
  Fe  Fe9  1  0.33898661  1.00364181  1.00415158  1
  Fe  Fe10  1  0.50543439  0.17237769  0.17278392  1
  Fe  Fe11  1  0.33836551  1.00359602  0.33799427  1
  Fe  Fe12  1  0.33876464  0.33909557  1.00370345  1
  Fe  Fe13  1  0.50586276  0.50527793  0.17044434  1
  Fe  Fe14  1  0.33751481  0.33861928  0.33944203  1
  Ni  Ni15  1  0.33893105  0.67165379  1.00440253  1
  Fe  Fe16  1  0.50555933  0.83652505  0.17030735  1
  Fe  Fe17  1  0.33696321  0.67172931  0.33710968  1
  Fe  Fe18  1  0.67042914  1.00352490  1.00450450  1
  Fe  Fe19  1  0.83851113  0.17211569  0.17137368  1
  Fe  Fe20  1  0.67252327  1.00359226  0.33861561  1
  Fe  Fe21  1  0.67075627  0.33968107  1.00456936  1
  Ni  Ni22  1  0.83844920  0.50556671  0.17136444  1
  Fe  Fe23  1  0.67268369  0.33833742  0.33849990  1
  Ni  Ni24  1  0.67103406  0.67106548  1.00451344  1
  Fe  Fe25  1  0.83785484  0.83744310  0.17186578  1
  Ni  Ni26  1  0.67050439  0.67073275  0.33772607  1
  Fe  Fe27  1  0.17124243  0.17100721  0.50552344  1
  Fe  Fe28  1  1.00316087  1.00458804  0.67131649  1
  Ni  Ni29  1  0.17108079  0.17216415  0.83785144  1
  Ni  Ni30  1  0.17078193  0.50475603  0.50405817  1
  Ni  Ni31  1  0.00531732  0.33830243  0.67080814  1
  Ni  Ni32  1  0.17145606  0.50327704  0.83902181  1
  Fe  Fe33  1  0.17042618  0.83733953  0.50411714  1
  Ni  Ni34  1  1.00396373  0.67182376  0.67253531  1
  Fe  Fe35  1  0.17235356  0.83713864  0.83848486  1
  Ni  Ni36  1  0.50463461  0.17110815  0.50480746  1
  Fe  Fe37  1  0.33840590  1.00467417  0.67173725  1
  Fe  Fe38  1  0.50437309  0.17136935  0.83699983  1
  Fe  Fe39  1  0.50520628  0.50462203  0.50606033  1
  Ni  Ni40  1  0.33786064  0.33660635  0.67184087  1
  Ni  Ni41  1  0.50399882  0.50521406  0.83786717  1
  Fe  Fe42  1  0.50479734  0.83697273  0.50543058  1
  Fe  Fe43  1  0.33714397  0.66805906  0.67274056  1
  Ni  Ni44  1  0.50678967  0.83777118  0.83690508  1
  Fe  Fe45  1  0.83818218  0.17195808  0.50485428  1
  Fe  Fe46  1  0.67263820  0.00493251  0.67095784  1
  Fe  Fe47  1  0.83813796  0.17226203  0.83796563  1
  Fe  Fe48  1  0.83801271  0.50555960  0.50463680  1
  Ni  Ni49  1  0.67081367  0.33864067  0.67204938  1
  Fe  Fe50  1  0.83768179  0.50541760  0.83804610  1
  Ni  Ni51  1  0.83784244  0.83768034  0.50340732  1
  Ni  Ni52  1  0.67218283  0.67159624  0.67163275  1
  Ni  Ni53  1  0.83712177  0.83843129  0.83943007  1
" 