8291,Ni65Fe35_15,-237.83181709006, 212.477718417109,Ni65Fe35,"# generated using pymatgen
 data_Fe35Ni19
_symmetry_space_group_name_H-M   'P 1'
_cell_length_a   7.39916232
_cell_length_b   7.39916232
_cell_length_c   10.46399570
_cell_angle_alpha   90.00000000
_cell_angle_beta   90.00000000
_cell_angle_gamma   90.00000000
_symmetry_Int_Tables_number   1
_chemical_formula_structural   Fe35Ni19
_chemical_formula_sum   'Fe35 Ni19'
_cell_volume   572.87868190
_cell_formula_units_Z   1
loop_
 _symmetry_equiv_pos_site_id
 _symmetry_equiv_pos_as_xyz
  1  'x, y, z'
loop_
 _atom_site_type_symbol
 _atom_site_label
 _atom_site_symmetry_multiplicity
 _atom_site_fract_x
 _atom_site_fract_y
 _atom_site_fract_z
 _atom_site_occupancy
  Ni  Ni0  1  0.00486297  0.00487045  1.00405975  1
  Fe  Fe1  1  0.17125150  0.17125100  0.17178982  1
  Ni  Ni2  1  0.00529624  0.00509500  0.33814656  1
  Fe  Fe3  1  0.00475644  0.33840084  1.00441815  1
  Ni  Ni4  1  0.17113221  0.50358039  0.17207771  1
  Fe  Fe5  1  1.00437417  0.33813310  0.33768841  1
  Fe  Fe6  1  1.00428190  0.67117054  1.00379943  1
  Fe  Fe7  1  0.17147900  0.83746839  0.17170441  1
  Fe  Fe8  1  1.00386827  0.67197357  0.33821923  1
  Fe  Fe9  1  0.33800732  0.00475518  0.00497595  1
  Ni  Ni10  1  0.50377228  0.17094064  0.17185183  1
  Fe  Fe11  1  0.33789640  1.00422182  0.33800756  1
  Fe  Fe12  1  0.33730021  0.33769150  0.00497495  1
  Ni  Ni13  1  0.50417230  0.50358624  0.17004445  1
  Fe  Fe14  1  0.33815984  0.33807409  0.33777129  1
  Fe  Fe15  1  0.33721667  0.67131176  0.00506367  1
  Ni  Ni16  1  0.50587426  0.83923398  0.17185153  1
  Fe  Fe17  1  0.33810072  0.67146388  0.33759830  1
  Fe  Fe18  1  0.67156111  1.00428028  1.00435789  1
  Fe  Fe19  1  0.83738527  0.17139629  0.17116967  1
  Fe  Fe20  1  0.67173692  1.00371789  0.33789850  1
  Fe  Fe21  1  0.67170493  0.33761025  0.00506270  1
  Ni  Ni22  1  0.83845629  0.50568349  0.17128756  1
  Fe  Fe23  1  0.67122779  0.33833678  0.33735903  1
  Fe  Fe24  1  0.67226468  0.67187420  0.00514824  1
  Ni  Ni25  1  0.83756243  0.83794530  0.17106406  1
  Ni  Ni26  1  0.67043420  0.67054391  0.33757768  1
  Ni  Ni27  1  0.17174547  0.17047468  0.50517771  1
  Fe  Fe28  1  1.00357380  1.00310473  0.67061496  1
  Fe  Fe29  1  0.16995082  0.17157266  0.83770166  1
  Fe  Fe30  1  0.17112632  0.50519001  0.50499388  1
  Fe  Fe31  1  1.00383954  0.33871123  0.67165543  1
  Ni  Ni32  1  0.17087883  0.50368724  0.83661664  1
  Ni  Ni33  1  0.16964056  0.83950607  0.50517683  1
  Ni  Ni34  1  1.00420417  0.67095155  0.67105283  1
  Fe  Fe35  1  0.16985440  0.83690854  0.83746717  1
  Fe  Fe36  1  0.50418305  0.17050537  0.50454345  1
  Fe  Fe37  1  0.33809025  1.00368808  0.67078486  1
  Fe  Fe38  1  0.50535802  0.17155227  0.83821735  1
  Ni  Ni39  1  0.50482384  0.50379107  0.50511864  1
  Fe  Fe40  1  0.33830407  0.33860332  0.67101693  1
  Fe  Fe41  1  0.50527568  0.50527563  0.83751664  1
  Fe  Fe42  1  0.50460147  0.83773469  0.50445968  1
  Fe  Fe43  1  0.33821971  0.67146824  0.67110040  1
  Fe  Fe44  1  0.50545218  0.83693451  0.83798198  1
  Fe  Fe45  1  0.83856420  0.17030731  0.50458780  1
  Ni  Ni46  1  0.67115204  1.00400381  0.67094187  1
  Fe  Fe47  1  0.83845288  0.17139821  0.83800190  1
  Fe  Fe48  1  0.83819041  0.50561043  0.50490951  1
  Fe  Fe49  1  0.67162101  0.33884443  0.67133888  1
  Ni  Ni50  1  0.83861529  0.50579088  0.83729660  1
  Ni  Ni51  1  0.83849515  0.83819229  0.50517731  1
  Ni  Ni52  1  0.67167033  0.67146479  0.67178106  1
  Ni  Ni53  1  0.83769780  0.83783485  0.83751731  1
" 