8266,Ni65Fe24Cr10_3,-238.188080417594, 204.82408895355,Ni65Fe24Cr10,"# generated using pymatgen
 data_Cr6Fe13Ni35
_symmetry_space_group_name_H-M   'P 1'
_cell_length_a   7.43024527
_cell_length_b   7.43024527
_cell_length_c   10.50795364
_cell_angle_alpha   90.00000000
_cell_angle_beta   90.00000000
_cell_angle_gamma   90.00000000
_symmetry_Int_Tables_number   1
_chemical_formula_structural   Cr6Fe13Ni35
_chemical_formula_sum   'Cr6 Fe13 Ni35'
_cell_volume   580.12882933
_cell_formula_units_Z   1
loop_
 _symmetry_equiv_pos_site_id
 _symmetry_equiv_pos_as_xyz
  1  'x, y, z'
loop_
 _atom_site_type_symbol
 _atom_site_label
 _atom_site_symmetry_multiplicity
 _atom_site_fract_x
 _atom_site_fract_y
 _atom_site_fract_z
 _atom_site_occupancy
  Cr  Cr0  1  0.00570719  0.00427328  0.00559587  1
  Ni  Ni1  1  0.16879035  0.17165588  0.17000371  1
  Fe  Fe2  1  1.00073272  0.00251419  0.33509120  1
  Ni  Ni3  1  0.00268786  0.33788555  0.00305770  1
  Ni  Ni4  1  0.17028246  0.50273274  0.16949507  1
  Ni  Ni5  1  0.00308640  0.33509845  0.33553124  1
  Fe  Fe6  1  0.00347894  0.66774783  0.00346390  1
  Ni  Ni7  1  0.17068393  0.83306676  0.16912604  1
  Ni  Ni8  1  1.00188906  0.66808538  0.33429534  1
  Ni  Ni9  1  0.33639827  1.00127179  1.00147832  1
  Ni  Ni10  1  0.50460334  0.17036568  0.16731403  1
  Cr  Cr11  1  0.33691199  0.00290249  0.33408258  1
  Fe  Fe12  1  0.33656577  0.33635727  0.00307463  1
  Ni  Ni13  1  0.50183836  0.50252525  0.17109908  1
  Ni  Ni14  1  0.33501531  0.33714358  0.33567781  1
  Ni  Ni15  1  0.33709250  0.66972026  1.00243863  1
  Ni  Ni16  1  0.50273683  0.83460024  0.16817959  1
  Ni  Ni17  1  0.33704966  0.66766569  0.33601971  1
  Ni  Ni18  1  0.66599437  1.00184008  0.00345950  1
  Ni  Ni19  1  0.83391143  0.17029682  0.17088163  1
  Ni  Ni20  1  0.66978895  1.00197457  0.33577138  1
  Ni  Ni21  1  0.67018616  0.33812218  1.00236781  1
  Fe  Fe22  1  0.83526717  0.50130983  0.16972660  1
  Ni  Ni23  1  0.66906825  0.33535771  0.33573446  1
  Ni  Ni24  1  0.66694330  0.66731537  0.00367876  1
  Fe  Fe25  1  0.83425379  0.83548494  0.17019144  1
  Ni  Ni26  1  0.66838586  0.67020142  0.33505685  1
  Fe  Fe27  1  0.16824377  0.17053797  0.50338669  1
  Ni  Ni28  1  0.00357458  0.00462572  0.66699341  1
  Ni  Ni29  1  0.16947172  0.17057773  0.83509193  1
  Ni  Ni30  1  0.17152055  0.50040123  0.50201144  1
  Ni  Ni31  1  0.00360646  0.33495063  0.66945571  1
  Ni  Ni32  1  0.17081283  0.50239797  0.83583083  1
  Cr  Cr33  1  0.16996432  0.83258156  0.50313411  1
  Fe  Fe34  1  0.00505092  0.66800467  0.66892035  1
  Ni  Ni35  1  0.17165699  0.83438754  0.83462101  1
  Fe  Fe36  1  0.50279209  0.16972920  0.50203150  1
  Ni  Ni37  1  0.33567255  0.00275207  0.67140382  1
  Fe  Fe38  1  0.49929524  0.16921209  0.83717861  1
  Fe  Fe39  1  0.50190707  0.50337219  0.50197939  1
  Ni  Ni40  1  0.33436808  0.33605529  0.66905858  1
  Ni  Ni41  1  0.50160244  0.50290206  0.83507064  1
  Ni  Ni42  1  0.50397572  0.83511478  0.50332256  1
  Ni  Ni43  1  0.33908650  0.66843626  0.66927145  1
  Ni  Ni44  1  0.50140567  0.83440201  0.83587761  1
  Ni  Ni45  1  0.83485559  0.16851483  0.50221364  1
  Fe  Fe46  1  0.66637534  0.00264227  0.66710813  1
  Cr  Cr47  1  0.83418483  0.17024656  0.83490417  1
  Cr  Cr48  1  0.83707522  0.50151720  0.50312125  1
  Fe  Fe49  1  0.66609934  0.33588575  0.66899781  1
  Fe  Fe50  1  0.83611816  0.50356324  0.83561827  1
  Ni  Ni51  1  0.83352494  0.83803251  0.50182300  1
  Ni  Ni52  1  0.66733160  0.66922873  0.66898045  1
  Cr  Cr53  1  0.83480946  0.83614494  0.83443297  1
" 