6906,Ni65Fe28Cr5_16,-239.247952392051, 207.251075822429,Ni65Fe28Cr5,"# generated using pymatgen
 data_Cr4(Fe3Ni7)5
_symmetry_space_group_name_H-M   'P 1'
_cell_length_a   7.42260336
_cell_length_b   7.42260336
_cell_length_c   10.49714634
_cell_angle_alpha   90.00000000
_cell_angle_beta   90.00000000
_cell_angle_gamma   90.00000000
_symmetry_Int_Tables_number   1
_chemical_formula_structural   Cr4(Fe3Ni7)5
_chemical_formula_sum   'Cr4 Fe15 Ni35'
_cell_volume   578.34070364
_cell_formula_units_Z   1
loop_
 _symmetry_equiv_pos_site_id
 _symmetry_equiv_pos_as_xyz
  1  'x, y, z'
loop_
 _atom_site_type_symbol
 _atom_site_label
 _atom_site_symmetry_multiplicity
 _atom_site_fract_x
 _atom_site_fract_y
 _atom_site_fract_z
 _atom_site_occupancy
  Ni  Ni0  1  1.00012423  0.00317551  0.00300766  1
  Ni  Ni1  1  0.17034305  0.17204063  0.16798102  1
  Ni  Ni2  1  1.00045544  0.00303115  0.33771856  1
  Fe  Fe3  1  1.00147420  0.33552674  1.00277685  1
  Ni  Ni4  1  0.16804850  0.50137402  0.16938420  1
  Ni  Ni5  1  0.00347531  0.33710957  0.33488641  1
  Fe  Fe6  1  0.99966083  0.66689198  0.00351026  1
  Cr  Cr7  1  0.16809486  0.83533262  0.16876869  1
  Ni  Ni8  1  1.00187332  0.66857240  0.33748042  1
  Fe  Fe9  1  0.33897047  0.00668803  1.00284123  1
  Ni  Ni10  1  0.50429893  0.17070348  0.16917306  1
  Cr  Cr11  1  0.33619765  0.00364628  0.33650448  1
  Ni  Ni12  1  0.33628415  0.33848875  1.00252905  1
  Fe  Fe13  1  0.50301166  0.50269953  0.17019365  1
  Ni  Ni14  1  0.33499568  0.33932859  0.33583798  1
  Fe  Fe15  1  0.33904198  0.66821524  1.00233135  1
  Ni  Ni16  1  0.50593454  0.83732964  0.16822018  1
  Fe  Fe17  1  0.33647559  0.66834961  0.33768686  1
  Ni  Ni18  1  0.67148286  1.00261549  0.00332569  1
  Fe  Fe19  1  0.83639784  0.16927718  0.17037270  1
  Ni  Ni20  1  0.67236227  1.00113375  0.33494860  1
  Ni  Ni21  1  0.66861563  0.33637720  1.00192048  1
  Ni  Ni22  1  0.83650119  0.50277419  0.16954001  1
  Ni  Ni23  1  0.67061875  0.33738393  0.33598675  1
  Fe  Fe24  1  0.67028708  0.66912607  1.00194319  1
  Ni  Ni25  1  0.83484567  0.83439377  0.16955974  1
  Fe  Fe26  1  0.67087343  0.66935150  0.33731311  1
  Ni  Ni27  1  0.16804505  0.17110997  0.50421509  1
  Fe  Fe28  1  1.00245223  0.00319600  0.66848578  1
  Fe  Fe29  1  0.16951093  0.17069585  0.83653222  1
  Ni  Ni30  1  0.16873367  0.50244744  0.50250956  1
  Ni  Ni31  1  0.00356547  0.33707512  0.67019848  1
  Ni  Ni32  1  0.16801279  0.50198702  0.83696540  1
  Ni  Ni33  1  0.16892638  0.83528114  0.50421722  1
  Fe  Fe34  1  1.00250926  0.66826304  0.66859237  1
  Cr  Cr35  1  0.16960804  0.83497157  0.83644883  1
  Cr  Cr36  1  0.50440722  0.17070554  0.50409033  1
  Ni  Ni37  1  0.33710840  1.00254026  0.67077598  1
  Ni  Ni38  1  0.50326349  0.16988745  0.83590072  1
  Ni  Ni39  1  0.50347772  0.50334587  0.50334486  1
  Ni  Ni40  1  0.33332235  0.33820791  0.67056291  1
  Fe  Fe41  1  0.50284401  0.50401673  0.83503976  1
  Ni  Ni42  1  0.50410822  0.83533389  0.50399082  1
  Ni  Ni43  1  0.33778062  0.66861602  0.66857425  1
  Ni  Ni44  1  0.50442856  0.83913005  0.83683662  1
  Ni  Ni45  1  0.83709524  0.17065236  0.50260603  1
  Ni  Ni46  1  0.67115000  1.00007328  0.67056354  1
  Fe  Fe47  1  0.83546112  0.16881129  0.83570261  1
  Ni  Ni48  1  0.83676997  0.50225072  0.50361356  1
  Fe  Fe49  1  0.66971720  0.33753104  0.67041492  1
  Ni  Ni50  1  0.83730539  0.50277668  0.83570794  1
  Ni  Ni51  1  0.83611514  0.83591995  0.50327150  1
  Ni  Ni52  1  0.66979874  0.67102077  0.67008897  1
  Ni  Ni53  1  0.83540531  0.83488381  0.83667517  1
" 