6810,Ni65Fe11Cr23_8,-231.374355623411, 172.028644219894,Ni65Fe11Cr23,"# generated using pymatgen
 data_Cr13Fe6Ni35
_symmetry_space_group_name_H-M   'P 1'
_cell_length_a   7.46101240
_cell_length_b   7.46101240
_cell_length_c   10.55146492
_cell_angle_alpha   90.00000000
_cell_angle_beta   90.00000000
_cell_angle_gamma   90.00000000
_symmetry_Int_Tables_number   1
_chemical_formula_structural   Cr13Fe6Ni35
_chemical_formula_sum   'Cr13 Fe6 Ni35'
_cell_volume   587.36529559
_cell_formula_units_Z   1
loop_
 _symmetry_equiv_pos_site_id
 _symmetry_equiv_pos_as_xyz
  1  'x, y, z'
loop_
 _atom_site_type_symbol
 _atom_site_label
 _atom_site_symmetry_multiplicity
 _atom_site_fract_x
 _atom_site_fract_y
 _atom_site_fract_z
 _atom_site_occupancy
  Fe  Fe0  1  0.00203256  0.00170773  0.99952601  1
  Ni  Ni1  1  0.16886242  0.16380703  0.16705133  1
  Ni  Ni2  1  0.00473019  0.99873663  0.33182015  1
  Ni  Ni3  1  0.99995178  0.33254132  0.99848755  1
  Cr  Cr4  1  0.17060473  0.50135093  0.16521659  1
  Cr  Cr5  1  0.00255422  0.33205508  0.33477652  1
  Ni  Ni6  1  0.00335373  0.66717623  0.99624620  1
  Ni  Ni7  1  0.16829235  0.83590276  0.16731010  1
  Ni  Ni8  1  0.00331873  0.66900606  0.33704415  1
  Ni  Ni9  1  0.33428103  0.99969107  1.00004959  1
  Ni  Ni10  1  0.49864134  0.16810508  0.16470465  1
  Ni  Ni11  1  0.33189169  0.99906759  0.33495949  1
  Ni  Ni12  1  0.33305812  0.33215018  0.00075863  1
  Ni  Ni13  1  0.49853843  0.49919259  0.16767912  1
  Ni  Ni14  1  0.33476748  0.33364933  0.33512758  1
  Ni  Ni15  1  0.33137135  0.66934749  0.00085198  1
  Fe  Fe16  1  0.49627522  0.83494595  0.16656156  1
  Ni  Ni17  1  0.33383589  0.66851681  0.33396306  1
  Ni  Ni18  1  0.66598338  0.00321896  0.99880327  1
  Ni  Ni19  1  0.83378994  0.16526389  0.16404759  1
  Cr  Cr20  1  0.66478572  0.00091924  0.33284643  1
  Ni  Ni21  1  0.66815741  0.32980759  0.00066842  1
  Cr  Cr22  1  0.83253545  0.49998561  0.16649110  1
  Cr  Cr23  1  0.66481733  0.33438282  0.33378207  1
  Cr  Cr24  1  0.66599148  0.66831464  0.99990050  1
  Cr  Cr25  1  0.83666430  0.83560459  0.16776350  1
  Fe  Fe26  1  0.66413533  0.66623037  0.33511011  1
  Ni  Ni27  1  0.17043928  0.16645228  0.50053891  1
  Ni  Ni28  1  0.00132676  0.00125396  0.66865350  1
  Ni  Ni29  1  0.16647149  0.16736567  0.83357941  1
  Ni  Ni30  1  0.16797145  0.50014343  0.50071683  1
  Ni  Ni31  1  0.00299719  0.33360295  0.66756365  1
  Ni  Ni32  1  0.16486188  0.49923285  0.83483123  1
  Ni  Ni33  1  0.16793925  0.83463031  0.49900806  1
  Fe  Fe34  1  0.00118225  0.66589753  0.66816711  1
  Ni  Ni35  1  0.16609540  0.83466718  0.83496751  1
  Ni  Ni36  1  0.49563011  0.16680276  0.50233574  1
  Fe  Fe37  1  0.33314299  0.00240329  0.66686876  1
  Fe  Fe38  1  0.49953665  0.16451792  0.83491411  1
  Ni  Ni39  1  0.49827038  0.50008546  0.49738404  1
  Ni  Ni40  1  0.33005864  0.33200648  0.66533002  1
  Cr  Cr41  1  0.49782097  0.49830910  0.83668801  1
  Ni  Ni42  1  0.49810029  0.83434509  0.49885619  1
  Cr  Cr43  1  0.33137384  0.66798051  0.66711583  1
  Ni  Ni44  1  0.50021596  0.83762332  0.83509863  1
  Cr  Cr45  1  0.83567758  0.16597975  0.50138694  1
  Ni  Ni46  1  0.66633579  1.00000136  0.66924683  1
  Ni  Ni47  1  0.83477022  0.16564764  0.83534891  1
  Ni  Ni48  1  0.83496165  0.50251904  0.50036518  1
  Cr  Cr49  1  0.66776578  0.33208503  0.66694624  1
  Ni  Ni50  1  0.83766214  0.49949503  0.83450942  1
  Cr  Cr51  1  0.83558478  0.83292712  0.50027238  1
  Cr  Cr52  1  0.66755843  0.66913257  0.66631696  1
  Ni  Ni53  1  0.83486753  0.83605510  0.83328262  1
" 