3865,Ni65Fe28Cr5_5,-239.561152047262, 209.063341305505,Ni65Fe28Cr5,"# generated using pymatgen
 data_Cr4(Fe3Ni7)5
_symmetry_space_group_name_H-M   'P 1'
_cell_length_a   7.42435527
_cell_length_b   7.42435527
_cell_length_c   10.49962391
_cell_angle_alpha   90.00000000
_cell_angle_beta   90.00000000
_cell_angle_gamma   90.00000000
_symmetry_Int_Tables_number   1
_chemical_formula_structural   Cr4(Fe3Ni7)5
_chemical_formula_sum   'Cr4 Fe15 Ni35'
_cell_volume   578.75030652
_cell_formula_units_Z   1
loop_
 _symmetry_equiv_pos_site_id
 _symmetry_equiv_pos_as_xyz
  1  'x, y, z'
loop_
 _atom_site_type_symbol
 _atom_site_label
 _atom_site_symmetry_multiplicity
 _atom_site_fract_x
 _atom_site_fract_y
 _atom_site_fract_z
 _atom_site_occupancy
  Ni  Ni0  1  0.00360055  0.00368276  0.00393916  1
  Ni  Ni1  1  0.16887374  0.16743292  0.16959675  1
  Ni  Ni2  1  0.00413853  0.00294019  0.33669255  1
  Ni  Ni3  1  1.00207201  0.33575148  1.00250280  1
  Cr  Cr4  1  0.17029564  0.50261780  0.16938275  1
  Ni  Ni5  1  0.00331800  0.33600690  0.33699690  1
  Ni  Ni6  1  0.00331684  0.66919092  1.00259096  1
  Fe  Fe7  1  0.16946616  0.83841251  0.16923276  1
  Ni  Ni8  1  1.00282994  0.66967588  0.33754595  1
  Ni  Ni9  1  0.33668830  1.00243820  0.00370535  1
  Ni  Ni10  1  0.50290976  0.17019236  0.16868485  1
  Fe  Fe11  1  0.33310661  0.00358669  0.33631566  1
  Ni  Ni12  1  0.33696917  0.33574953  1.00135890  1
  Ni  Ni13  1  0.50416392  0.50309757  0.16940885  1
  Ni  Ni14  1  0.33633800  0.33600291  0.33785750  1
  Ni  Ni15  1  0.33696917  0.67043992  1.00220554  1
  Fe  Fe16  1  0.50223954  0.83633917  0.16766858  1
  Fe  Fe17  1  0.33582457  0.66952325  0.33708013  1
  Ni  Ni18  1  0.66833649  0.00368221  0.00326609  1
  Ni  Ni19  1  0.83684005  0.16896879  0.16856343  1
  Cr  Cr20  1  0.66964465  0.00365676  0.33631001  1
  Ni  Ni21  1  0.66958454  0.33603211  0.00364753  1
  Fe  Fe22  1  0.83484401  0.50179448  0.16923326  1
  Fe  Fe23  1  0.67033560  0.33757744  0.33618404  1
  Ni  Ni24  1  0.66833939  0.66891003  0.00373480  1
  Fe  Fe25  1  0.83692072  0.83622782  0.16852258  1
  Fe  Fe26  1  0.67004338  0.66717692  0.33641655  1
  Ni  Ni27  1  0.16876660  0.16858369  0.50245459  1
  Fe  Fe28  1  0.00304591  0.00362588  0.66849586  1
  Fe  Fe29  1  0.16950072  0.16981509  0.83662613  1
  Ni  Ni30  1  0.16923170  0.50275118  0.50219625  1
  Ni  Ni31  1  1.00213082  0.33703279  0.66912432  1
  Ni  Ni32  1  0.16951628  0.50284233  0.83668460  1
  Ni  Ni33  1  0.16879700  0.83729191  0.50158733  1
  Ni  Ni34  1  1.00241119  0.66770093  0.66848482  1
  Ni  Ni35  1  0.17082508  0.83647164  0.83775279  1
  Fe  Fe36  1  0.50167591  0.17092902  0.50354487  1
  Ni  Ni37  1  0.33729539  0.00360754  0.66881978  1
  Fe  Fe38  1  0.50318291  0.16942385  0.83670788  1
  Ni  Ni39  1  0.50386788  0.50275773  0.50170944  1
  Fe  Fe40  1  0.33652358  0.33554710  0.66911143  1
  Ni  Ni41  1  0.50313870  0.50284283  0.83750737  1
  Fe  Fe42  1  0.50273966  0.83610802  0.50399714  1
  Cr  Cr43  1  0.33537427  0.66973364  0.67003837  1
  Ni  Ni44  1  0.50179670  0.83643634  0.83733351  1
  Ni  Ni45  1  0.83725614  0.16986932  0.50347545  1
  Ni  Ni46  1  0.66790539  0.00388993  0.66892497  1
  Ni  Ni47  1  0.83600439  0.17065426  0.83658822  1
  Ni  Ni48  1  0.83552845  0.50272473  0.50262600  1
  Ni  Ni49  1  0.67061711  0.33561641  0.66881994  1
  Ni  Ni50  1  0.83597052  0.50107471  0.83671078  1
  Fe  Fe51  1  0.83785270  0.83480577  0.50365350  1
  Ni  Ni52  1  0.67033214  0.66911925  0.66818007  1
  Cr  Cr53  1  0.83596194  0.83689495  0.83545875  1
" 