565,Ni65Fe28Cr5_0,-239.516805089102, 210.132290249679,Ni65Fe28Cr5,"# generated using pymatgen
 data_Cr4(Fe3Ni7)5
_symmetry_space_group_name_H-M   'P 1'
_cell_length_a   7.42079422
_cell_length_b   7.42079422
_cell_length_c   10.49458783
_cell_angle_alpha   90.00000000
_cell_angle_beta   90.00000000
_cell_angle_gamma   90.00000000
_symmetry_Int_Tables_number   1
_chemical_formula_structural   Cr4(Fe3Ni7)5
_chemical_formula_sum   'Cr4 Fe15 Ni35'
_cell_volume   577.91792398
_cell_formula_units_Z   1
loop_
 _symmetry_equiv_pos_site_id
 _symmetry_equiv_pos_as_xyz
  1  'x, y, z'
loop_
 _atom_site_type_symbol
 _atom_site_label
 _atom_site_symmetry_multiplicity
 _atom_site_fract_x
 _atom_site_fract_y
 _atom_site_fract_z
 _atom_site_occupancy
  Ni  Ni0  1  1.00182794  1.00053765  1.00290876  1
  Cr  Cr1  1  0.17081114  0.16726036  0.16769585  1
  Ni  Ni2  1  1.00251805  0.00317558  0.33684394  1
  Fe  Fe3  1  0.00341434  0.33611051  0.00337012  1
  Ni  Ni4  1  0.16907840  0.50380145  0.17003827  1
  Ni  Ni5  1  0.00441984  0.33665159  0.33566375  1
  Ni  Ni6  1  0.00493692  0.67107404  0.00467270  1
  Ni  Ni7  1  0.17023962  0.83657474  0.17059722  1
  Fe  Fe8  1  1.00269465  0.67137205  0.33504107  1
  Ni  Ni9  1  0.33760344  1.00238769  1.00201119  1
  Ni  Ni10  1  0.50309388  0.16860755  0.17082596  1
  Ni  Ni11  1  0.33721578  1.00236143  0.33743222  1
  Ni  Ni12  1  0.33894443  0.33808886  1.00289391  1
  Ni  Ni13  1  0.50405495  0.50358808  0.17011974  1
  Fe  Fe14  1  0.33762111  0.33631162  0.33672103  1
  Ni  Ni15  1  0.33547511  0.66887074  0.00392357  1
  Ni  Ni16  1  0.50254669  0.83721695  0.16893235  1
  Fe  Fe17  1  0.33714688  0.67071923  0.33517894  1
  Ni  Ni18  1  0.66958817  0.00435965  0.00338285  1
  Fe  Fe19  1  0.83507897  0.16882560  0.17018723  1
  Ni  Ni20  1  0.66943128  1.00174546  0.33660099  1
  Ni  Ni21  1  0.66726513  0.33520169  0.00487620  1
  Ni  Ni22  1  0.83621978  0.50333126  0.16996886  1
  Fe  Fe23  1  0.66962316  0.33502464  0.33556731  1
  Fe  Fe24  1  0.66806108  0.67075123  0.00430564  1
  Ni  Ni25  1  0.83620018  0.83554760  0.16984038  1
  Ni  Ni26  1  0.66814714  0.67047359  0.33463726  1
  Ni  Ni27  1  0.16969696  0.16926924  0.50303227  1
  Cr  Cr28  1  1.00152502  1.00280207  0.66986754  1
  Ni  Ni29  1  0.17048986  0.16890498  0.83753965  1
  Fe  Fe30  1  0.17129120  0.50183347  0.50260097  1
  Ni  Ni31  1  0.00601807  0.33670902  0.67093638  1
  Fe  Fe32  1  0.17192158  0.50295986  0.83720257  1
  Fe  Fe33  1  0.17051377  0.83599226  0.50201429  1
  Ni  Ni34  1  0.00501144  0.67023780  0.66875733  1
  Ni  Ni35  1  0.17120105  0.83691439  0.83699830  1
  Fe  Fe36  1  0.50356166  0.16968632  0.50291045  1
  Fe  Fe37  1  0.33745222  0.00375357  0.66982579  1
  Ni  Ni38  1  0.50272513  0.16943085  0.83497325  1
  Ni  Ni39  1  0.50325799  0.50555418  0.50294937  1
  Ni  Ni40  1  0.33681852  0.33755169  0.66931116  1
  Ni  Ni41  1  0.50381620  0.50374959  0.83628573  1
  Ni  Ni42  1  0.50228009  0.83567175  0.50351565  1
  Fe  Fe43  1  0.33736407  0.66939769  0.67067836  1
  Ni  Ni44  1  0.50178493  0.83641783  0.83700907  1
  Ni  Ni45  1  0.83802598  0.17050637  0.50210836  1
  Ni  Ni46  1  0.66888786  1.00294514  0.66922355  1
  Ni  Ni47  1  0.83625607  0.17102926  0.83738154  1
  Cr  Cr48  1  0.83512894  0.50266904  0.50387008  1
  Ni  Ni49  1  0.66735127  0.33497604  0.66858025  1
  Cr  Cr50  1  0.83515659  0.50280629  0.83606346  1
  Fe  Fe51  1  0.83376062  0.83701660  0.50172404  1
  Ni  Ni52  1  0.66869262  0.67194499  0.67088916  1
  Fe  Fe53  1  0.83504172  0.83758829  0.83780358  1
" 