654,Ni65Fe35_8,-237.197306643779, 203.761520447389,Ni65Fe35,"# generated using pymatgen
 data_Fe35Ni19
_symmetry_space_group_name_H-M   'P 1'
_cell_length_a   7.39722202
_cell_length_b   7.39722202
_cell_length_c   10.46125171
_cell_angle_alpha   90.00000000
_cell_angle_beta   90.00000000
_cell_angle_gamma   90.00000000
_symmetry_Int_Tables_number   1
_chemical_formula_structural   Fe35Ni19
_chemical_formula_sum   'Fe35 Ni19'
_cell_volume   572.42811970
_cell_formula_units_Z   1
loop_
 _symmetry_equiv_pos_site_id
 _symmetry_equiv_pos_as_xyz
  1  'x, y, z'
loop_
 _atom_site_type_symbol
 _atom_site_label
 _atom_site_symmetry_multiplicity
 _atom_site_fract_x
 _atom_site_fract_y
 _atom_site_fract_z
 _atom_site_occupancy
  Fe  Fe0  1  0.00544080  0.00480489  1.00370450  1
  Fe  Fe1  1  0.17229874  0.17082336  0.17112342  1
  Fe  Fe2  1  1.00382306  0.00543494  0.33894330  1
  Fe  Fe3  1  0.00496628  0.33774195  1.00435835  1
  Fe  Fe4  1  0.17136876  0.50568501  0.17145724  1
  Fe  Fe5  1  1.00388945  0.33748200  0.33815003  1
  Ni  Ni6  1  0.00478042  0.67170243  1.00429170  1
  Fe  Fe7  1  0.17143891  0.83765364  0.17068237  1
  Ni  Ni8  1  0.00532700  0.67179851  0.33815065  1
  Ni  Ni9  1  0.33847967  0.00514627  1.00439206  1
  Fe  Fe10  1  0.50490909  0.17087497  0.17150486  1
  Fe  Fe11  1  0.33862700  1.00438541  0.33752636  1
  Fe  Fe12  1  0.33721111  0.33791485  1.00429778  1
  Fe  Fe13  1  0.50484216  0.50462709  0.17208772  1
  Fe  Fe14  1  0.33822414  0.33819335  0.33880823  1
  Fe  Fe15  1  0.33807047  0.67249149  0.00473852  1
  Ni  Ni16  1  0.50447628  0.83724105  0.17171375  1
  Fe  Fe17  1  0.33932862  0.67157979  0.33817247  1
  Fe  Fe18  1  0.67110677  1.00394621  0.00524469  1
  Fe  Fe19  1  0.83694847  0.17094736  0.17191103  1
  Ni  Ni20  1  0.67055101  0.00612085  0.33815111  1
  Fe  Fe21  1  0.67198044  0.33819408  1.00440570  1
  Fe  Fe22  1  0.83794652  0.50549120  0.17100091  1
  Ni  Ni23  1  0.67021705  0.33689825  0.33796418  1
  Fe  Fe24  1  0.67093166  0.67201486  1.00459349  1
  Fe  Fe25  1  0.83800044  0.83772225  0.17172257  1
  Fe  Fe26  1  0.67099325  0.67164960  0.33810198  1
  Ni  Ni27  1  0.16939312  0.17162965  0.50430556  1
  Ni  Ni28  1  0.00496228  1.00289664  0.67181092  1
  Ni  Ni29  1  0.16984074  0.17097518  0.83846810  1
  Fe  Fe30  1  0.17172026  0.50466768  0.50463321  1
  Fe  Fe31  1  1.00452674  0.33726364  0.67165049  1
  Fe  Fe32  1  0.17073624  0.50505560  0.83806996  1
  Fe  Fe33  1  0.17098688  0.83810745  0.50527860  1
  Ni  Ni34  1  0.00496350  0.67272085  0.67171698  1
  Ni  Ni35  1  0.17298107  0.83879566  0.83838263  1
  Fe  Fe36  1  0.50510444  0.17197982  0.50450789  1
  Fe  Fe37  1  0.33733491  0.00477341  0.67215643  1
  Fe  Fe38  1  0.50452992  0.17132417  0.83814690  1
  Ni  Ni39  1  0.50521956  0.50654212  0.50406500  1
  Ni  Ni40  1  0.33987128  0.33755411  0.67171115  1
  Fe  Fe41  1  0.50473757  0.50400086  0.83716265  1
  Ni  Ni42  1  0.50456425  0.83631722  0.50416205  1
  Fe  Fe43  1  0.33833203  0.67138546  0.67124670  1
  Ni  Ni44  1  0.50356030  0.83705583  0.83828314  1
  Ni  Ni45  1  0.83987046  0.17228655  0.50430801  1
  Fe  Fe46  1  0.67184462  0.00496619  0.67087813  1
  Ni  Ni47  1  0.83968903  0.17312324  0.83846820  1
  Fe  Fe48  1  0.83766562  0.50447337  0.50501746  1
  Ni  Ni49  1  0.66965228  0.33755341  0.67147332  1
  Ni  Ni50  1  0.83795280  0.50332079  0.83786354  1
  Fe  Fe51  1  0.83825926  0.83844273  0.50450476  1
  Fe  Fe52  1  0.67110950  0.67092916  0.67146057  1
  Fe  Fe53  1  0.83927849  0.83815826  0.83793338  1
" 