4447,Ni65Fe17Cr16_1,-234.146352311078, 185.356097276833,Ni65Fe17Cr16,"# generated using pymatgen
 data_Cr10Fe9Ni35
_symmetry_space_group_name_H-M   'P 1'
_cell_length_a   7.44974191
_cell_length_b   7.44974191
_cell_length_c   10.53552604
_cell_angle_alpha   90.00000000
_cell_angle_beta   90.00000000
_cell_angle_gamma   90.00000000
_symmetry_Int_Tables_number   1
_chemical_formula_structural   Cr10Fe9Ni35
_chemical_formula_sum   'Cr10 Fe9 Ni35'
_cell_volume   584.70751939
_cell_formula_units_Z   1
loop_
 _symmetry_equiv_pos_site_id
 _symmetry_equiv_pos_as_xyz
  1  'x, y, z'
loop_
 _atom_site_type_symbol
 _atom_site_label
 _atom_site_symmetry_multiplicity
 _atom_site_fract_x
 _atom_site_fract_y
 _atom_site_fract_z
 _atom_site_occupancy
  Ni  Ni0  1  0.00190255  1.00104722  0.00216033  1
  Ni  Ni1  1  0.16709456  0.16898581  0.16667556  1
  Cr  Cr2  1  0.00128349  1.00010462  0.33450278  1
  Ni  Ni3  1  0.99915536  0.33312919  0.00324296  1
  Ni  Ni4  1  0.16539639  0.50102518  0.16920694  1
  Fe  Fe5  1  0.00266743  0.33628409  0.33349465  1
  Ni  Ni6  1  0.99877842  0.66930924  0.00301509  1
  Fe  Fe7  1  0.16687865  0.83415058  0.16692296  1
  Ni  Ni8  1  0.00184841  0.66879998  0.33355913  1
  Ni  Ni9  1  0.33264885  1.00056825  0.00229162  1
  Ni  Ni10  1  0.50203071  0.16707779  0.16898297  1
  Fe  Fe11  1  0.33545169  0.00163117  0.33535590  1
  Cr  Cr12  1  0.33484417  0.33326254  1.00058316  1
  Cr  Cr13  1  0.50100456  0.50098959  0.16828368  1
  Ni  Ni14  1  0.33547584  0.33414512  0.33560170  1
  Ni  Ni15  1  0.33542426  0.67013943  0.00116421  1
  Cr  Cr16  1  0.50152521  0.83554853  0.16736830  1
  Ni  Ni17  1  0.33351398  0.66696911  0.33606857  1
  Fe  Fe18  1  0.66901621  0.99988704  0.00225078  1
  Ni  Ni19  1  0.83436162  0.16817134  0.16709676  1
  Fe  Fe20  1  0.66709028  1.00100040  0.33475564  1
  Ni  Ni21  1  0.66976066  0.33590114  0.00206207  1
  Fe  Fe22  1  0.83583147  0.50049861  0.16721265  1
  Ni  Ni23  1  0.66603251  0.33341121  0.33396737  1
  Ni  Ni24  1  0.66927731  0.66739169  0.99871264  1
  Ni  Ni25  1  0.83508318  0.83441553  0.16680476  1
  Ni  Ni26  1  0.66812112  0.66782702  0.33555064  1
  Ni  Ni27  1  0.16887340  0.16880825  0.50305931  1
  Ni  Ni28  1  0.00182567  0.00142146  0.66682657  1
  Ni  Ni29  1  0.16709579  0.16737298  0.83374920  1
  Ni  Ni30  1  0.16887193  0.49975129  0.50022755  1
  Ni  Ni31  1  0.00175136  0.33212958  0.66697326  1
  Cr  Cr32  1  0.16622136  0.49905623  0.83358677  1
  Ni  Ni33  1  0.16796423  0.83492595  0.50055515  1
  Ni  Ni34  1  0.99783869  0.66993002  0.66690901  1
  Cr  Cr35  1  0.16724517  0.83678747  0.83581517  1
  Fe  Fe36  1  0.50010134  0.16829501  0.50100309  1
  Ni  Ni37  1  0.33301800  0.00343228  0.66618257  1
  Cr  Cr38  1  0.49967773  0.16716891  0.83430442  1
  Ni  Ni39  1  0.50018302  0.50079975  0.50070814  1
  Ni  Ni40  1  0.33500956  0.33202919  0.66647116  1
  Ni  Ni41  1  0.50463393  0.50313879  0.83436534  1
  Ni  Ni42  1  0.50218596  0.83498058  0.50049327  1
  Cr  Cr43  1  0.33670520  0.66748646  0.66679449  1
  Ni  Ni44  1  0.50376069  0.83309552  0.83560611  1
  Fe  Fe45  1  0.83433732  0.16721847  0.50195805  1
  Fe  Fe46  1  0.66820273  0.99912054  0.66647845  1
  Cr  Cr47  1  0.83692995  0.16818785  0.83408306  1
  Cr  Cr48  1  0.83500558  0.50173371  0.50094434  1
  Ni  Ni49  1  0.66672336  0.33602268  0.66745681  1
  Ni  Ni50  1  0.83255905  0.50293701  0.83537868  1
  Ni  Ni51  1  0.83333453  0.83498105  0.50261781  1
  Ni  Ni52  1  0.66873632  0.66793985  0.66921985  1
  Ni  Ni53  1  0.83243008  0.83229855  0.83405934  1
" 