4616,Ni65Fe24Cr10_7,-237.814749102359, 202.146134727661,Ni65Fe24Cr10,"# generated using pymatgen
 data_Cr6Fe13Ni35
_symmetry_space_group_name_H-M   'P 1'
_cell_length_a   7.43200911
_cell_length_b   7.43200911
_cell_length_c   10.51044807
_cell_angle_alpha   90.00000000
_cell_angle_beta   90.00000000
_cell_angle_gamma   90.00000000
_symmetry_Int_Tables_number   1
_chemical_formula_structural   Cr6Fe13Ni35
_chemical_formula_sum   'Cr6 Fe13 Ni35'
_cell_volume   580.54207024
_cell_formula_units_Z   1
loop_
 _symmetry_equiv_pos_site_id
 _symmetry_equiv_pos_as_xyz
  1  'x, y, z'
loop_
 _atom_site_type_symbol
 _atom_site_label
 _atom_site_symmetry_multiplicity
 _atom_site_fract_x
 _atom_site_fract_y
 _atom_site_fract_z
 _atom_site_occupancy
  Cr  Cr0  1  0.00324045  0.00291491  0.00404486  1
  Ni  Ni1  1  0.17014035  0.17002513  0.16895578  1
  Ni  Ni2  1  1.00197864  1.00096080  0.33577432  1
  Ni  Ni3  1  1.00140654  0.33614147  1.00132050  1
  Ni  Ni4  1  0.16990416  0.50243096  0.16889665  1
  Cr  Cr5  1  0.00267442  0.33442628  0.33592266  1
  Fe  Fe6  1  0.00250961  0.66632531  0.00259243  1
  Ni  Ni7  1  0.16988601  0.83461217  0.16937916  1
  Ni  Ni8  1  1.00113958  0.67092072  0.33506984  1
  Ni  Ni9  1  0.33649889  1.00233655  0.00253033  1
  Fe  Fe10  1  0.50193673  0.17037188  0.16782211  1
  Cr  Cr11  1  0.33260554  0.00245175  0.33473938  1
  Ni  Ni12  1  0.33591168  0.33542244  1.00234852  1
  Fe  Fe13  1  0.50212143  0.50305118  0.16849894  1
  Ni  Ni14  1  0.33699392  0.33719474  0.33558474  1
  Ni  Ni15  1  0.33730471  0.66931358  1.00217424  1
  Ni  Ni16  1  0.50227645  0.83426702  0.16814262  1
  Ni  Ni17  1  0.33642494  0.66726522  0.33610382  1
  Fe  Fe18  1  0.66709376  1.00233725  0.00251101  1
  Ni  Ni19  1  0.83524002  0.17002386  0.16943590  1
  Cr  Cr20  1  0.67165826  1.00152825  0.33570933  1
  Ni  Ni21  1  0.66975431  0.33695222  0.00321395  1
  Ni  Ni22  1  0.83489134  0.50301738  0.16789324  1
  Fe  Fe23  1  0.66795971  0.33781817  0.33565498  1
  Ni  Ni24  1  0.66867931  0.66809922  1.00230456  1
  Ni  Ni25  1  0.83490945  0.83402841  0.16983966  1
  Ni  Ni26  1  0.66950467  0.66750842  0.33592045  1
  Ni  Ni27  1  0.17071524  0.16858522  0.50364387  1
  Ni  Ni28  1  0.00299966  1.00226685  0.66784870  1
  Ni  Ni29  1  0.17002702  0.17090082  0.83447161  1
  Fe  Fe30  1  0.16982406  0.50350850  0.50305078  1
  Fe  Fe31  1  0.00491691  0.33585437  0.66991032  1
  Ni  Ni32  1  0.16950283  0.50107642  0.83477785  1
  Ni  Ni33  1  0.16803718  0.83567081  0.50302874  1
  Ni  Ni34  1  0.00320475  0.67029492  0.66950973  1
  Fe  Fe35  1  0.16971162  0.83454899  0.83430463  1
  Ni  Ni36  1  0.50034847  0.17020814  0.50340146  1
  Ni  Ni37  1  0.33421300  0.00287320  0.66910790  1
  Fe  Fe38  1  0.50155401  0.16908190  0.83598266  1
  Fe  Fe39  1  0.50036634  0.50234371  0.50111587  1
  Ni  Ni40  1  0.33449901  0.33475013  0.66913806  1
  Ni  Ni41  1  0.50046873  0.50318544  0.83715831  1
  Fe  Fe42  1  0.50127769  0.83507125  0.50305351  1
  Ni  Ni43  1  0.33424098  0.66945013  0.66879093  1
  Ni  Ni44  1  0.50224009  0.83607120  0.83552792  1
  Fe  Fe45  1  0.83711973  0.16734388  0.50303727  1
  Fe  Fe46  1  0.66874402  1.00165494  0.66902645  1
  Ni  Ni47  1  0.83612803  0.16912473  0.83454434  1
  Ni  Ni48  1  0.83570048  0.50417988  0.50149479  1
  Cr  Cr49  1  0.66909397  0.33545714  0.66895542  1
  Ni  Ni50  1  0.83710500  0.50240310  0.83768544  1
  Ni  Ni51  1  0.83732443  0.83460583  0.50174501  1
  Cr  Cr52  1  0.66926735  0.66949424  0.66910726  1
  Ni  Ni53  1  0.83401710  0.83554157  0.83548977  1
" 