3081,Ni65Fe28Cr5_9,-240.08329215962, 211.885816801128,Ni65Fe28Cr5,"# generated using pymatgen
 data_Cr4(Fe3Ni7)5
_symmetry_space_group_name_H-M   'P 1'
_cell_length_a   7.42605493
_cell_length_b   7.42605493
_cell_length_c   10.50202760
_cell_angle_alpha   90.00000000
_cell_angle_beta   90.00000000
_cell_angle_gamma   90.00000000
_symmetry_Int_Tables_number   1
_chemical_formula_structural   Cr4(Fe3Ni7)5
_chemical_formula_sum   'Cr4 Fe15 Ni35'
_cell_volume   579.14787843
_cell_formula_units_Z   1
loop_
 _symmetry_equiv_pos_site_id
 _symmetry_equiv_pos_as_xyz
  1  'x, y, z'
loop_
 _atom_site_type_symbol
 _atom_site_label
 _atom_site_symmetry_multiplicity
 _atom_site_fract_x
 _atom_site_fract_y
 _atom_site_fract_z
 _atom_site_occupancy
  Fe  Fe0  1  1.00260609  0.00309855  1.00227333  1
  Fe  Fe1  1  0.16983861  0.16984530  0.16891522  1
  Ni  Ni2  1  0.00388696  0.00286079  0.33577510  1
  Ni  Ni3  1  1.00248571  0.33723435  1.00242575  1
  Ni  Ni4  1  0.16869972  0.50134502  0.16962758  1
  Ni  Ni5  1  0.00461918  0.33605994  0.33532350  1
  Ni  Ni6  1  0.00320804  0.66946239  1.00197563  1
  Fe  Fe7  1  0.16978388  0.83500527  0.16948395  1
  Ni  Ni8  1  0.00304032  0.66920912  0.33643428  1
  Ni  Ni9  1  0.33616942  0.00302396  1.00221701  1
  Ni  Ni10  1  0.50108631  0.16763572  0.16981871  1
  Ni  Ni11  1  0.33499676  0.00355891  0.33537269  1
  Ni  Ni12  1  0.33542028  0.33270787  0.00311488  1
  Ni  Ni13  1  0.49968666  0.50239140  0.17066766  1
  Ni  Ni14  1  0.33440093  0.33531940  0.33632423  1
  Fe  Fe15  1  0.33341012  0.66793723  0.00429392  1
  Ni  Ni16  1  0.50329894  0.83830835  0.17005756  1
  Ni  Ni17  1  0.33531144  0.66923406  0.33323001  1
  Fe  Fe18  1  0.66980293  0.00467444  0.00303485  1
  Fe  Fe19  1  0.83644230  0.16989363  0.16849395  1
  Ni  Ni20  1  0.66976872  1.00243346  0.33445414  1
  Ni  Ni21  1  0.67016171  0.33464955  0.00344493  1
  Ni  Ni22  1  0.83972748  0.50429490  0.17031395  1
  Cr  Cr23  1  0.66905804  0.33773274  0.33483519  1
  Cr  Cr24  1  0.67163407  0.66905983  0.00360392  1
  Ni  Ni25  1  0.83694160  0.83777683  0.17206608  1
  Ni  Ni26  1  0.67015321  0.66975241  0.33519702  1
  Fe  Fe27  1  0.16955149  0.16953760  0.50313817  1
  Ni  Ni28  1  0.00398390  0.00310170  0.67000080  1
  Ni  Ni29  1  0.16908115  0.17023519  0.83542124  1
  Ni  Ni30  1  0.16940394  0.50200583  0.50285403  1
  Ni  Ni31  1  1.00189788  0.33611030  0.67052353  1
  Ni  Ni32  1  0.16743894  0.50175967  0.83595663  1
  Fe  Fe33  1  0.16923829  0.83445081  0.50283619  1
  Ni  Ni34  1  0.00338005  0.66896822  0.66991285  1
  Fe  Fe35  1  0.16832830  0.83669699  0.83592931  1
  Fe  Fe36  1  0.50146973  0.17051687  0.50352168  1
  Ni  Ni37  1  0.33504331  0.00327282  0.67024677  1
  Ni  Ni38  1  0.50238915  0.16749165  0.83466768  1
  Ni  Ni39  1  0.49978836  0.50330521  0.50281440  1
  Fe  Fe40  1  0.33447958  0.33553704  0.66859144  1
  Cr  Cr41  1  0.50071386  0.50088057  0.83515966  1
  Cr  Cr42  1  0.50468995  0.83607607  0.50230849  1
  Ni  Ni43  1  0.33413510  0.67094988  0.67130564  1
  Fe  Fe44  1  0.50258113  0.83820369  0.83518524  1
  Fe  Fe45  1  0.83704101  0.16899459  0.50405752  1
  Ni  Ni46  1  0.66931974  0.00427472  0.67150330  1
  Ni  Ni47  1  0.83675438  0.16821478  0.83672924  1
  Fe  Fe48  1  0.83679060  0.50394505  0.50355443  1
  Ni  Ni49  1  0.67083391  0.33566976  0.66971432  1
  Ni  Ni50  1  0.83931040  0.50251060  0.83419060  1
  Fe  Fe51  1  0.83812295  0.83543240  0.50296910  1
  Ni  Ni52  1  0.67068997  0.66861000  0.66943884  1
  Ni  Ni53  1  0.83694664  0.83778568  0.83373697  1
" 