2588,Ni65Fe28Cr5_10,-239.518771659117, 209.155376770433,Ni65Fe28Cr5,"# generated using pymatgen
 data_Cr4(Fe3Ni7)5
_symmetry_space_group_name_H-M   'P 1'
_cell_length_a   7.42006512
_cell_length_b   7.42006512
_cell_length_c   10.49355673
_cell_angle_alpha   90.00000000
_cell_angle_beta   90.00000000
_cell_angle_gamma   90.00000000
_symmetry_Int_Tables_number   1
_chemical_formula_structural   Cr4(Fe3Ni7)5
_chemical_formula_sum   'Cr4 Fe15 Ni35'
_cell_volume   577.74759728
_cell_formula_units_Z   1
loop_
 _symmetry_equiv_pos_site_id
 _symmetry_equiv_pos_as_xyz
  1  'x, y, z'
loop_
 _atom_site_type_symbol
 _atom_site_label
 _atom_site_symmetry_multiplicity
 _atom_site_fract_x
 _atom_site_fract_y
 _atom_site_fract_z
 _atom_site_occupancy
  Fe  Fe0  1  1.00301050  0.00386129  0.00375269  1
  Ni  Ni1  1  0.16958023  0.16950711  0.16984274  1
  Ni  Ni2  1  0.00420834  0.00481954  0.33651940  1
  Ni  Ni3  1  0.00368808  0.33576452  1.00288877  1
  Fe  Fe4  1  0.16982366  0.50312270  0.17010148  1
  Ni  Ni5  1  1.00308588  0.33571540  0.33707018  1
  Fe  Fe6  1  1.00269452  0.66937845  0.00334981  1
  Ni  Ni7  1  0.17030436  0.83716686  0.16986723  1
  Fe  Fe8  1  0.00391244  0.66923881  0.33598281  1
  Fe  Fe9  1  0.33612074  1.00240853  0.00357791  1
  Fe  Fe10  1  0.50377584  0.16961030  0.16998994  1
  Ni  Ni11  1  0.33500792  1.00098638  0.33549428  1
  Ni  Ni12  1  0.33418292  0.33793349  0.00340821  1
  Ni  Ni13  1  0.50388220  0.50319503  0.16961108  1
  Ni  Ni14  1  0.33446651  0.33788349  0.33622680  1
  Ni  Ni15  1  0.33714760  0.67017507  1.00218295  1
  Ni  Ni16  1  0.50280232  0.83576880  0.17012256  1
  Ni  Ni17  1  0.33739953  0.67062825  0.33780167  1
  Ni  Ni18  1  0.67102558  1.00119638  0.00344714  1
  Ni  Ni19  1  0.83676653  0.17058650  0.16984259  1
  Ni  Ni20  1  0.67028149  1.00188445  0.33563175  1
  Ni  Ni21  1  0.67162433  0.33742560  0.00347288  1
  Ni  Ni22  1  0.83536973  0.50247493  0.17012120  1
  Ni  Ni23  1  0.67194254  0.33810588  0.33622487  1
  Ni  Ni24  1  0.66885569  0.67087670  1.00281211  1
  Ni  Ni25  1  0.83639182  0.83643542  0.16926315  1
  Ni  Ni26  1  0.66811176  0.66950619  0.33587884  1
  Fe  Fe27  1  0.16833721  0.17021666  0.50280796  1
  Fe  Fe28  1  0.00352855  0.00485150  0.67049133  1
  Ni  Ni29  1  0.16789059  0.16969609  0.83570068  1
  Ni  Ni30  1  0.16992552  0.50384702  0.50313756  1
  Ni  Ni31  1  1.00303621  0.33585286  0.66953700  1
  Fe  Fe32  1  0.16995169  0.50256532  0.83641092  1
  Ni  Ni33  1  0.17189135  0.83559402  0.50342032  1
  Fe  Fe34  1  0.00533884  0.66912455  0.67016047  1
  Ni  Ni35  1  0.17044453  0.83615677  0.83621287  1
  Cr  Cr36  1  0.50457132  0.16994315  0.50258594  1
  Ni  Ni37  1  0.33460841  1.00046804  0.66985506  1
  Cr  Cr38  1  0.50415175  0.17018187  0.83734006  1
  Ni  Ni39  1  0.50224709  0.50343862  0.50309450  1
  Fe  Fe40  1  0.33549424  0.33741877  0.66973316  1
  Fe  Fe41  1  0.50210936  0.50361125  0.83797235  1
  Ni  Ni42  1  0.50001821  0.83573657  0.50257092  1
  Fe  Fe43  1  0.33550958  0.67039662  0.66943256  1
  Ni  Ni44  1  0.50174432  0.83557110  0.83680244  1
  Ni  Ni45  1  0.83718570  0.17228505  0.50373140  1
  Ni  Ni46  1  0.66997516  0.00323914  0.67041868  1
  Ni  Ni47  1  0.83765837  0.17081240  0.83592926  1
  Ni  Ni48  1  0.83732572  0.49980192  0.50228889  1
  Ni  Ni49  1  0.67319575  0.33666755  0.66980572  1
  Fe  Fe50  1  0.83743852  0.50170926  0.83729498  1
  Cr  Cr51  1  0.83716915  0.83786913  0.50176066  1
  Cr  Cr52  1  0.66792979  0.66974988  0.67027640  1
  Fe  Fe53  1  0.83681909  0.83849787  0.83770192  1
" 