1582,Ni65Fe11Cr23_12,-231.074194579689, 164.848528949161,Ni65Fe11Cr23,"# generated using pymatgen
 data_Cr13Fe6Ni35
_symmetry_space_group_name_H-M   'P 1'
_cell_length_a   7.46246193
_cell_length_b   7.46246193
_cell_length_c   10.55351487
_cell_angle_alpha   90.00000000
_cell_angle_beta   90.00000000
_cell_angle_gamma   90.00000000
_symmetry_Int_Tables_number   1
_chemical_formula_structural   Cr13Fe6Ni35
_chemical_formula_sum   'Cr13 Fe6 Ni35'
_cell_volume   587.70770335
_cell_formula_units_Z   1
loop_
 _symmetry_equiv_pos_site_id
 _symmetry_equiv_pos_as_xyz
  1  'x, y, z'
loop_
 _atom_site_type_symbol
 _atom_site_label
 _atom_site_symmetry_multiplicity
 _atom_site_fract_x
 _atom_site_fract_y
 _atom_site_fract_z
 _atom_site_occupancy
  Ni  Ni0  1  0.00067884  0.00243933  0.99888423  1
  Fe  Fe1  1  0.16399654  0.16585944  0.16640183  1
  Ni  Ni2  1  1.00000634  0.00296512  0.33393482  1
  Ni  Ni3  1  0.99931381  0.33166613  0.99947436  1
  Cr  Cr4  1  0.16580127  0.50146176  0.16602365  1
  Ni  Ni5  1  0.99817706  0.33153169  0.33548365  1
  Ni  Ni6  1  0.00049545  0.66666197  0.99714940  1
  Cr  Cr7  1  0.16696307  0.83431664  0.16750293  1
  Ni  Ni8  1  0.99890509  0.66642027  0.33583066  1
  Ni  Ni9  1  0.33290778  0.00038988  0.99831031  1
  Cr  Cr10  1  0.50245692  0.16652667  0.16498336  1
  Ni  Ni11  1  0.33319416  0.00037984  0.33520835  1
  Fe  Fe12  1  0.33326882  0.33303417  0.99708899  1
  Cr  Cr13  1  0.50176065  0.50085118  0.16527767  1
  Cr  Cr14  1  0.33307616  0.33309050  0.33483941  1
  Ni  Ni15  1  0.33396627  0.66793558  0.99737526  1
  Cr  Cr16  1  0.49938360  0.83355034  0.16797734  1
  Ni  Ni17  1  0.33514784  0.66814079  0.33634639  1
  Ni  Ni18  1  0.66720228  0.00153516  0.99845653  1
  Ni  Ni19  1  0.83485456  0.16727030  0.16716577  1
  Fe  Fe20  1  0.66847644  0.00131177  0.33566928  1
  Ni  Ni21  1  0.66855555  0.33277263  0.99820840  1
  Cr  Cr22  1  0.83334511  0.49826823  0.16769237  1
  Ni  Ni23  1  0.66942381  0.33341336  0.33588945  1
  Ni  Ni24  1  0.66639614  0.66667150  0.99700228  1
  Cr  Cr25  1  0.83464180  0.83493035  0.16599549  1
  Ni  Ni26  1  0.66696548  0.66650184  0.33701344  1
  Ni  Ni27  1  0.16637687  0.16882972  0.49882402  1
  Cr  Cr28  1  0.99955964  0.00301824  0.66853487  1
  Ni  Ni29  1  0.16656494  0.16689313  0.83570651  1
  Ni  Ni30  1  0.16722452  0.49935370  0.50093445  1
  Ni  Ni31  1  1.00021128  0.33353014  0.66593768  1
  Fe  Fe32  1  0.16811016  0.49861252  0.83381479  1
  Cr  Cr33  1  0.16710770  0.83274153  0.49794293  1
  Cr  Cr34  1  0.99889506  0.66477697  0.66829419  1
  Ni  Ni35  1  0.16852350  0.83311547  0.83675317  1
  Ni  Ni36  1  0.50132620  0.16882759  0.49984821  1
  Cr  Cr37  1  0.33430394  0.00151783  0.66733689  1
  Ni  Ni38  1  0.50057749  0.16850234  0.83534705  1
  Ni  Ni39  1  0.50138759  0.50037267  0.50106271  1
  Ni  Ni40  1  0.33397488  0.33503715  0.66726386  1
  Ni  Ni41  1  0.50151471  0.50067640  0.83394780  1
  Fe  Fe42  1  0.50194477  0.83180645  0.49936211  1
  Ni  Ni43  1  0.33651596  0.66403709  0.66740083  1
  Ni  Ni44  1  0.49854842  0.83171349  0.83514607  1
  Ni  Ni45  1  0.83323366  0.16876192  0.49846270  1
  Cr  Cr46  1  0.66708792  0.00034801  0.66697594  1
  Ni  Ni47  1  0.83374730  0.16991039  0.83535051  1
  Ni  Ni48  1  0.83239499  0.49945163  0.49891347  1
  Ni  Ni49  1  0.66680254  0.33549254  0.66674077  1
  Ni  Ni50  1  0.83213057  0.49870323  0.83459106  1
  Ni  Ni51  1  0.83226141  0.83273115  0.49795122  1
  Ni  Ni52  1  0.66498889  0.66447319  0.66700495  1
  Fe  Fe53  1  0.83191577  0.83346054  0.83595710  1
" 