5554,Ni65Fe28Cr5_6,-239.235001777603, 209.5974331382,Ni65Fe28Cr5,"# generated using pymatgen
 data_Cr4(Fe3Ni7)5
_symmetry_space_group_name_H-M   'P 1'
_cell_length_a   7.41882278
_cell_length_b   7.41882278
_cell_length_c   10.49179980
_cell_angle_alpha   90.00000000
_cell_angle_beta   90.00000000
_cell_angle_gamma   90.00000000
_symmetry_Int_Tables_number   1
_chemical_formula_structural   Cr4(Fe3Ni7)5
_chemical_formula_sum   'Cr4 Fe15 Ni35'
_cell_volume   577.45744996
_cell_formula_units_Z   1
loop_
 _symmetry_equiv_pos_site_id
 _symmetry_equiv_pos_as_xyz
  1  'x, y, z'
loop_
 _atom_site_type_symbol
 _atom_site_label
 _atom_site_symmetry_multiplicity
 _atom_site_fract_x
 _atom_site_fract_y
 _atom_site_fract_z
 _atom_site_occupancy
  Ni  Ni0  1  1.00227423  0.00489110  0.00388774  1
  Fe  Fe1  1  0.16888681  0.17021207  0.16945384  1
  Ni  Ni2  1  0.00372092  0.00577113  0.33538600  1
  Ni  Ni3  1  0.00471272  0.33548389  1.00197992  1
  Ni  Ni4  1  0.16915626  0.50404566  0.16964399  1
  Ni  Ni5  1  0.00352451  0.33577517  0.33780892  1
  Fe  Fe6  1  1.00211833  0.66828319  0.00415403  1
  Fe  Fe7  1  0.16961161  0.83641242  0.17028307  1
  Fe  Fe8  1  1.00290437  0.66847483  0.33501301  1
  Fe  Fe9  1  0.33828337  0.00496922  0.00395786  1
  Ni  Ni10  1  0.50370603  0.16958734  0.16966517  1
  Ni  Ni11  1  0.33688105  1.00279451  0.33628262  1
  Ni  Ni12  1  0.33564440  0.33788497  0.00359017  1
  Fe  Fe13  1  0.50399940  0.50358957  0.16962620  1
  Fe  Fe14  1  0.33718228  0.33628612  0.33655220  1
  Ni  Ni15  1  0.33809460  0.66808026  1.00314029  1
  Fe  Fe16  1  0.50384431  0.83577331  0.17022234  1
  Ni  Ni17  1  0.33815370  0.66955696  0.33695952  1
  Ni  Ni18  1  0.67069284  1.00243841  1.00302417  1
  Fe  Fe19  1  0.83675940  0.17036834  0.16999794  1
  Ni  Ni20  1  0.66915023  0.00334044  0.33627620  1
  Ni  Ni21  1  0.66939387  0.33679260  1.00254368  1
  Ni  Ni22  1  0.83780379  0.50426871  0.17041266  1
  Ni  Ni23  1  0.67050370  0.33704980  0.33726698  1
  Ni  Ni24  1  0.66828757  0.67052028  1.00282184  1
  Ni  Ni25  1  0.83718590  0.83641168  0.16966169  1
  Ni  Ni26  1  0.66752590  0.66936018  0.33625503  1
  Fe  Fe27  1  0.16919144  0.17053545  0.50271800  1
  Ni  Ni28  1  1.00236454  0.00560763  0.67047597  1
  Ni  Ni29  1  0.16829383  0.17100326  0.83723296  1
  Ni  Ni30  1  0.16944262  0.50324559  0.50258081  1
  Ni  Ni31  1  1.00291614  0.33613494  0.66996128  1
  Ni  Ni32  1  0.16911594  0.50294842  0.83752611  1
  Cr  Cr33  1  0.17069283  0.83530380  0.50334009  1
  Ni  Ni34  1  1.00273431  0.66800361  0.67074376  1
  Cr  Cr35  1  0.16957997  0.83562065  0.83637140  1
  Ni  Ni36  1  0.50559198  0.16946318  0.50284935  1
  Fe  Fe37  1  0.33871532  0.00340106  0.66960390  1
  Ni  Ni38  1  0.50537268  0.16928412  0.83723574  1
  Ni  Ni39  1  0.50315366  0.50334396  0.50154481  1
  Cr  Cr40  1  0.33603130  0.33690157  0.66959066  1
  Ni  Ni41  1  0.50368214  0.50381452  0.83827353  1
  Ni  Ni42  1  0.50316795  0.83693993  0.50313307  1
  Fe  Fe43  1  0.33831374  0.66947650  0.66983728  1
  Ni  Ni44  1  0.50486737  0.83665335  0.83611279  1
  Ni  Ni45  1  0.83551396  0.17118205  0.50243533  1
  Ni  Ni46  1  0.66948719  1.00280250  0.67044885  1
  Ni  Ni47  1  0.83608764  0.16981892  0.83712825  1
  Fe  Fe48  1  0.83555967  0.50122999  0.50303619  1
  Ni  Ni49  1  0.67116790  0.33670326  0.66993935  1
  Fe  Fe50  1  0.83601629  0.50229495  0.83671893  1
  Cr  Cr51  1  0.83536625  0.83780657  0.50351291  1
  Ni  Ni52  1  0.66853511  0.67024417  0.67067283  1
  Fe  Fe53  1  0.83454517  0.83732290  0.83661780  1
" 