4746,Ni65Fe24Cr10_19,-237.850386712679, 203.720350724054,Ni65Fe24Cr10,"# generated using pymatgen
 data_Cr6Fe13Ni35
_symmetry_space_group_name_H-M   'P 1'
_cell_length_a   7.42916440
_cell_length_b   7.42916440
_cell_length_c   10.50642505
_cell_angle_alpha   90.00000000
_cell_angle_beta   90.00000000
_cell_angle_gamma   90.00000000
_symmetry_Int_Tables_number   1
_chemical_formula_structural   Cr6Fe13Ni35
_chemical_formula_sum   'Cr6 Fe13 Ni35'
_cell_volume   579.87569235
_cell_formula_units_Z   1
loop_
 _symmetry_equiv_pos_site_id
 _symmetry_equiv_pos_as_xyz
  1  'x, y, z'
loop_
 _atom_site_type_symbol
 _atom_site_label
 _atom_site_symmetry_multiplicity
 _atom_site_fract_x
 _atom_site_fract_y
 _atom_site_fract_z
 _atom_site_occupancy
  Fe  Fe0  1  0.00281774  0.00327930  1.00127726  1
  Ni  Ni1  1  0.16909724  0.16926663  0.16797655  1
  Ni  Ni2  1  1.00147230  0.00302236  0.33561760  1
  Ni  Ni3  1  1.00218430  0.33530600  0.00423115  1
  Ni  Ni4  1  0.16863669  0.50254031  0.16867129  1
  Fe  Fe5  1  1.00110059  0.33559061  0.33560969  1
  Ni  Ni6  1  0.00328291  0.66929070  1.00215714  1
  Fe  Fe7  1  0.17132357  0.83459465  0.16922739  1
  Ni  Ni8  1  0.00374061  0.66918380  0.33619629  1
  Fe  Fe9  1  0.33633473  0.00260857  1.00248819  1
  Ni  Ni10  1  0.50227748  0.16876406  0.16846652  1
  Fe  Fe11  1  0.33697553  1.00186722  0.33573265  1
  Ni  Ni12  1  0.33677366  0.33578770  0.00314673  1
  Ni  Ni13  1  0.50272102  0.50302540  0.16781960  1
  Cr  Cr14  1  0.33708676  0.33674941  0.33660893  1
  Ni  Ni15  1  0.33622628  0.66935782  0.00376130  1
  Ni  Ni16  1  0.50117259  0.83585975  0.16950021  1
  Ni  Ni17  1  0.33582993  0.66952309  0.33493442  1
  Ni  Ni18  1  0.66862256  0.00359874  1.00146796  1
  Fe  Fe19  1  0.83489243  0.17150058  0.16929035  1
  Ni  Ni20  1  0.66933528  0.00399580  0.33766892  1
  Ni  Ni21  1  0.66868929  0.33533526  0.00278389  1
  Ni  Ni22  1  0.83629110  0.50143590  0.16884434  1
  Ni  Ni23  1  0.66967284  0.33442981  0.33537953  1
  Ni  Ni24  1  0.66814143  0.66871534  1.00217421  1
  Cr  Cr25  1  0.83539020  0.83526747  0.16913324  1
  Fe  Fe26  1  0.66833432  0.66895094  0.33670290  1
  Ni  Ni27  1  0.16758011  0.16919288  0.50383269  1
  Ni  Ni28  1  1.00199992  0.00305577  0.67041496  1
  Fe  Fe29  1  0.16739542  0.16727577  0.83617840  1
  Fe  Fe30  1  0.16723369  0.50192902  0.50147521  1
  Ni  Ni31  1  1.00008778  0.33429128  0.66721660  1
  Cr  Cr32  1  0.16824004  0.50289165  0.83669896  1
  Cr  Cr33  1  0.16809537  0.83692638  0.50137203  1
  Ni  Ni34  1  0.99911447  0.67030065  0.66929399  1
  Ni  Ni35  1  0.16775204  0.83808526  0.83718103  1
  Ni  Ni36  1  0.50378383  0.16849920  0.50305712  1
  Ni  Ni37  1  0.33582816  0.00354079  0.66932833  1
  Fe  Fe38  1  0.50419482  0.16891005  0.83683519  1
  Ni  Ni39  1  0.50461442  0.50302579  0.50174730  1
  Cr  Cr40  1  0.33700054  0.33375475  0.66817049  1
  Ni  Ni41  1  0.50551315  0.50221276  0.83808322  1
  Ni  Ni42  1  0.50476182  0.83612390  0.50202048  1
  Cr  Cr43  1  0.33727618  0.67048141  0.66902124  1
  Fe  Fe44  1  0.50407303  0.83574026  0.83683716  1
  Ni  Ni45  1  0.83628452  0.16904240  0.50191211  1
  Fe  Fe46  1  0.67025259  1.00247746  0.66867464  1
  Ni  Ni47  1  0.83583312  0.16879948  0.83626321  1
  Fe  Fe48  1  0.83515572  0.50221366  0.50308961  1
  Ni  Ni49  1  0.67059652  0.33591427  0.66948574  1
  Ni  Ni50  1  0.83393897  0.50269785  0.83538209  1
  Ni  Ni51  1  0.83475556  0.83613234  0.50356857  1
  Ni  Ni52  1  0.67108305  0.66916608  0.66874834  1
  Ni  Ni53  1  0.83681171  0.83615157  0.83492294  1
" 