2433,Ni65Fe35_11,-237.367538664607, 205.393932892166,Ni65Fe35,"# generated using pymatgen
 data_Fe35Ni19
_symmetry_space_group_name_H-M   'P 1'
_cell_length_a   7.39673657
_cell_length_b   7.39673657
_cell_length_c   10.46056518
_cell_angle_alpha   90.00000000
_cell_angle_beta   90.00000000
_cell_angle_gamma   90.00000000
_symmetry_Int_Tables_number   1
_chemical_formula_structural   Fe35Ni19
_chemical_formula_sum   'Fe35 Ni19'
_cell_volume   572.31542877
_cell_formula_units_Z   1
loop_
 _symmetry_equiv_pos_site_id
 _symmetry_equiv_pos_as_xyz
  1  'x, y, z'
loop_
 _atom_site_type_symbol
 _atom_site_label
 _atom_site_symmetry_multiplicity
 _atom_site_fract_x
 _atom_site_fract_y
 _atom_site_fract_z
 _atom_site_occupancy
  Fe  Fe0  1  0.00503512  0.00503966  0.00514223  1
  Fe  Fe1  1  0.17169958  0.17284575  0.17144312  1
  Fe  Fe2  1  1.00461123  1.00453020  0.33810419  1
  Ni  Ni3  1  0.00762202  0.33944061  0.00486215  1
  Ni  Ni4  1  0.17210329  0.50610835  0.17238523  1
  Fe  Fe5  1  1.00385114  0.33792597  0.33729072  1
  Ni  Ni6  1  0.00484362  0.67065707  0.00486075  1
  Ni  Ni7  1  0.17123705  0.83695254  0.17140645  1
  Fe  Fe8  1  0.00514241  0.67180446  0.33751845  1
  Fe  Fe9  1  0.33743782  1.00451073  1.00413877  1
  Fe  Fe10  1  0.50409808  0.17186047  0.17099299  1
  Fe  Fe11  1  0.33843752  1.00400099  0.33833020  1
  Ni  Ni12  1  0.33610827  0.33819002  1.00474757  1
  Ni  Ni13  1  0.50455429  0.50408990  0.17102720  1
  Ni  Ni14  1  0.33624379  0.33818252  0.33769495  1
  Fe  Fe15  1  0.33694593  0.67113045  0.00483214  1
  Fe  Fe16  1  0.50530213  0.83786399  0.17129322  1
  Fe  Fe17  1  0.33860373  0.67164134  0.33763926  1
  Ni  Ni18  1  0.67129446  1.00339750  0.00475603  1
  Ni  Ni19  1  0.83683718  0.17158992  0.17178509  1
  Ni  Ni20  1  0.67191568  1.00275219  0.33856140  1
  Fe  Fe21  1  0.67195163  0.33775384  0.00505644  1
  Fe  Fe22  1  0.83890573  0.50519942  0.17127652  1
  Fe  Fe23  1  0.67104159  0.33808509  0.33772150  1
  Fe  Fe24  1  0.67141542  0.67068412  1.00474954  1
  Fe  Fe25  1  0.83792591  0.83751986  0.17157724  1
  Ni  Ni26  1  0.67229823  0.67369955  0.33747780  1
  Fe  Fe27  1  0.17186729  0.17158438  0.50475316  1
  Fe  Fe28  1  0.00483324  1.00430825  0.67101347  1
  Fe  Fe29  1  0.17277052  0.17182791  0.83806278  1
  Fe  Fe30  1  0.17178481  0.50442412  0.50483429  1
  Fe  Fe31  1  1.00407261  0.33830828  0.67199209  1
  Ni  Ni32  1  0.17081118  0.50589614  0.83750033  1
  Ni  Ni33  1  0.17143816  0.83760822  0.50513316  1
  Fe  Fe34  1  0.00505780  0.67164163  0.67207000  1
  Ni  Ni35  1  0.17168077  0.83673880  0.83771968  1
  Fe  Fe36  1  0.50399776  0.17091229  0.50534386  1
  Fe  Fe37  1  0.33896818  1.00408836  0.67178821  1
  Ni  Ni38  1  0.50678163  0.17114134  0.83798958  1
  Fe  Fe39  1  0.50424280  0.50526242  0.50408061  1
  Ni  Ni40  1  0.33634409  0.33807790  0.67181449  1
  Fe  Fe41  1  0.50348236  0.50503545  0.83812608  1
  Fe  Fe42  1  0.50552730  0.83808405  0.50526179  1
  Fe  Fe43  1  0.33852041  0.67208375  0.67178490  1
  Ni  Ni44  1  0.50437713  0.83923997  0.83761591  1
  Fe  Fe45  1  0.83838768  0.17029819  0.50416150  1
  Ni  Ni46  1  0.67171751  1.00265318  0.67094275  1
  Fe  Fe47  1  0.83792911  0.17052019  0.83882174  1
  Fe  Fe48  1  0.83822650  0.50595822  0.50491611  1
  Fe  Fe49  1  0.67090285  0.33786098  0.67147931  1
  Fe  Fe50  1  0.83840986  0.50572771  0.83806688  1
  Fe  Fe51  1  0.83756278  0.83800290  0.50475307  1
  Ni  Ni52  1  0.67209898  0.67390422  0.67202767  1
  Fe  Fe53  1  0.83739729  0.83800806  0.83792890  1
" 