3904,Ni65Fe17Cr16_12,-234.301186051439, 186.13600791175,Ni65Fe17Cr16,"# generated using pymatgen
 data_Cr10Fe9Ni35
_symmetry_space_group_name_H-M   'P 1'
_cell_length_a   7.44900596
_cell_length_b   7.44900596
_cell_length_c   10.53448525
_cell_angle_alpha   90.00000000
_cell_angle_beta   90.00000000
_cell_angle_gamma   90.00000000
_symmetry_Int_Tables_number   1
_chemical_formula_structural   Cr10Fe9Ni35
_chemical_formula_sum   'Cr10 Fe9 Ni35'
_cell_volume   584.53424962
_cell_formula_units_Z   1
loop_
 _symmetry_equiv_pos_site_id
 _symmetry_equiv_pos_as_xyz
  1  'x, y, z'
loop_
 _atom_site_type_symbol
 _atom_site_label
 _atom_site_symmetry_multiplicity
 _atom_site_fract_x
 _atom_site_fract_y
 _atom_site_fract_z
 _atom_site_occupancy
  Ni  Ni0  1  1.00002442  0.99880837  1.00101031  1
  Fe  Fe1  1  0.16604348  0.16709109  0.16946544  1
  Ni  Ni2  1  0.99894131  1.00116080  0.33416813  1
  Cr  Cr3  1  1.00116245  0.33311486  1.00097455  1
  Ni  Ni4  1  0.16561400  0.50168423  0.16958985  1
  Ni  Ni5  1  1.00050662  0.33432877  0.33463107  1
  Ni  Ni6  1  1.00069554  0.67186523  0.00239299  1
  Ni  Ni7  1  0.16378029  0.83368895  0.16647531  1
  Ni  Ni8  1  0.99954929  0.66814141  0.33360696  1
  Fe  Fe9  1  0.33335605  0.99994634  1.00091016  1
  Ni  Ni10  1  0.50263046  0.16883907  0.16892668  1
  Cr  Cr11  1  0.33319902  0.00284044  0.33506406  1
  Cr  Cr12  1  0.33443165  0.33492235  0.00196242  1
  Fe  Fe13  1  0.50359273  0.49975345  0.17018893  1
  Ni  Ni14  1  0.33549977  0.33480852  0.33451828  1
  Cr  Cr15  1  0.33374690  0.66833234  1.00037555  1
  Cr  Cr16  1  0.50359594  0.83684522  0.16721529  1
  Cr  Cr17  1  0.33329660  0.66602664  0.33551385  1
  Ni  Ni18  1  0.67040529  0.99940795  1.00057419  1
  Ni  Ni19  1  0.83279499  0.16699959  0.16911712  1
  Ni  Ni20  1  0.67078856  0.00288919  0.33563820  1
  Cr  Cr21  1  0.66803815  0.33441028  0.00326798  1
  Ni  Ni22  1  0.83577936  0.50254994  0.16991688  1
  Ni  Ni23  1  0.66762726  0.33420386  0.33340263  1
  Ni  Ni24  1  0.66886620  0.67040862  1.00057338  1
  Ni  Ni25  1  0.83635519  0.83408211  0.16679998  1
  Ni  Ni26  1  0.67031488  0.66653880  0.33512868  1
  Ni  Ni27  1  0.16800417  0.16949663  0.50230492  1
  Ni  Ni28  1  0.00156036  1.00106591  0.66845421  1
  Fe  Fe29  1  0.16560344  0.16552929  0.83189257  1
  Ni  Ni30  1  0.16818733  0.50058726  0.50230358  1
  Ni  Ni31  1  0.00339233  0.33320345  0.66780260  1
  Ni  Ni32  1  0.16832322  0.50264475  0.83173844  1
  Ni  Ni33  1  0.16575343  0.83354994  0.50272109  1
  Ni  Ni34  1  0.00328965  0.66935957  0.66763357  1
  Ni  Ni35  1  0.16760773  0.83368562  0.83443909  1
  Ni  Ni36  1  0.50140213  0.16882933  0.50047772  1
  Ni  Ni37  1  0.33330613  0.99960276  0.66795136  1
  Cr  Cr38  1  0.50103602  0.16510628  0.83412903  1
  Ni  Ni39  1  0.49994818  0.49998333  0.50108025  1
  Ni  Ni40  1  0.33274262  0.33593260  0.66724518  1
  Fe  Fe41  1  0.49960214  0.50526025  0.83245706  1
  Fe  Fe42  1  0.50211347  0.83500610  0.50299741  1
  Ni  Ni43  1  0.33431126  0.66809808  0.66848149  1
  Ni  Ni44  1  0.50163167  0.83475816  0.83341345  1
  Ni  Ni45  1  0.83422853  0.16639791  0.50041978  1
  Fe  Fe46  1  0.66905837  0.99933216  0.66737255  1
  Ni  Ni47  1  0.83570089  0.16420619  0.83409343  1
  Fe  Fe48  1  0.83611443  0.50144963  0.49965656  1
  Cr  Cr49  1  0.66843308  0.33406865  0.66692596  1
  Cr  Cr50  1  0.83717548  0.50319674  0.83381857  1
  Ni  Ni51  1  0.83483004  0.83500382  0.50080925  1
  Fe  Fe52  1  0.66700807  0.67036515  0.66734406  1
  Ni  Ni53  1  0.83439402  0.83598661  0.83602252  1
" 