6057,Ni65Fe28Cr5_3,-239.476052063614, 209.328754964684,Ni65Fe28Cr5,"# generated using pymatgen
 data_Cr4(Fe3Ni7)5
_symmetry_space_group_name_H-M   'P 1'
_cell_length_a   7.41810091
_cell_length_b   7.41810091
_cell_length_c   10.49077892
_cell_angle_alpha   90.00000000
_cell_angle_beta   90.00000000
_cell_angle_gamma   90.00000000
_symmetry_Int_Tables_number   1
_chemical_formula_structural   Cr4(Fe3Ni7)5
_chemical_formula_sum   'Cr4 Fe15 Ni35'
_cell_volume   577.28890263
_cell_formula_units_Z   1
loop_
 _symmetry_equiv_pos_site_id
 _symmetry_equiv_pos_as_xyz
  1  'x, y, z'
loop_
 _atom_site_type_symbol
 _atom_site_label
 _atom_site_symmetry_multiplicity
 _atom_site_fract_x
 _atom_site_fract_y
 _atom_site_fract_z
 _atom_site_occupancy
  Ni  Ni0  1  1.00196843  1.00102619  1.00276005  1
  Cr  Cr1  1  0.16927425  0.16919116  0.17031023  1
  Ni  Ni2  1  1.00315446  1.00110225  0.33641817  1
  Fe  Fe3  1  1.00191031  0.33627766  1.00238120  1
  Fe  Fe4  1  0.16858643  0.50527262  0.17077987  1
  Ni  Ni5  1  1.00226044  0.33795339  0.33506886  1
  Ni  Ni6  1  1.00303754  0.67073562  0.00338635  1
  Ni  Ni7  1  0.17036006  0.83563213  0.17105129  1
  Ni  Ni8  1  1.00202594  0.67084226  0.33650222  1
  Ni  Ni9  1  0.33753679  1.00313465  1.00211201  1
  Fe  Fe10  1  0.50530136  0.16955692  0.16907516  1
  Ni  Ni11  1  0.33712483  1.00273549  0.33817331  1
  Ni  Ni12  1  0.33867012  0.33734299  1.00250770  1
  Fe  Fe13  1  0.50349047  0.50300349  0.17004489  1
  Ni  Ni14  1  0.33855171  0.33684582  0.33698419  1
  Fe  Fe15  1  0.33660918  0.67080218  1.00290934  1
  Fe  Fe16  1  0.50358776  0.83734044  0.17014371  1
  Ni  Ni17  1  0.33714289  0.67031393  0.33521293  1
  Ni  Ni18  1  0.67039808  0.00403030  0.00337297  1
  Ni  Ni19  1  0.83576401  0.17035319  0.16967135  1
  Fe  Fe20  1  0.66962668  1.00213695  0.33581140  1
  Ni  Ni21  1  0.66908784  0.33626692  1.00314415  1
  Ni  Ni22  1  0.83631367  0.50286480  0.17127599  1
  Fe  Fe23  1  0.66959862  0.33787107  0.33579880  1
  Fe  Fe24  1  0.67042675  0.67030624  1.00250799  1
  Ni  Ni25  1  0.83720014  0.83667870  0.17043392  1
  Fe  Fe26  1  0.67038029  0.66989119  0.33771047  1
  Fe  Fe27  1  0.17046438  0.16766151  0.50249043  1
  Ni  Ni28  1  0.00366415  1.00236999  0.67071962  1
  Ni  Ni29  1  0.16926932  0.16864717  0.83677813  1
  Cr  Cr30  1  0.16959201  0.50346741  0.50239852  1
  Ni  Ni31  1  1.00086600  0.33651733  0.67230365  1
  Fe  Fe32  1  0.16929252  0.50402004  0.83727575  1
  Fe  Fe33  1  0.17014796  0.83754424  0.50288727  1
  Fe  Fe34  1  1.00152849  0.67114507  0.67090446  1
  Ni  Ni35  1  0.17089643  0.83778956  0.83593084  1
  Fe  Fe36  1  0.50307456  0.16918519  0.50298667  1
  Ni  Ni37  1  0.33648411  1.00131361  0.66960950  1
  Ni  Ni38  1  0.50328382  0.16952238  0.83719320  1
  Ni  Ni39  1  0.50480490  0.50483192  0.50225231  1
  Cr  Cr40  1  0.33826471  0.33595914  0.67067819  1
  Ni  Ni41  1  0.50412820  0.50396232  0.83689071  1
  Ni  Ni42  1  0.50248304  0.83605137  0.50338411  1
  Ni  Ni43  1  0.33842503  0.67238224  0.67114350  1
  Ni  Ni44  1  0.50215213  0.83641748  0.83664962  1
  Cr  Cr45  1  0.83781054  0.17031620  0.50354906  1
  Ni  Ni46  1  0.66974791  1.00185819  0.67112808  1
  Ni  Ni47  1  0.83734299  0.17062372  0.83716832  1
  Ni  Ni48  1  0.83492559  0.50425726  0.50326766  1
  Ni  Ni49  1  0.67112417  0.33845279  0.67042184  1
  Ni  Ni50  1  0.83596978  0.50233268  0.83535597  1
  Ni  Ni51  1  0.83610629  0.83549039  0.50300218  1
  Ni  Ni52  1  0.67006687  0.66958716  0.66976962  1
  Ni  Ni53  1  0.83684854  0.83693860  0.83646583  1
" 