4922,Ni65Fe17Cr16_2,-234.163561780616, 184.518343405595,Ni65Fe17Cr16,"# generated using pymatgen
 data_Cr10Fe9Ni35
_symmetry_space_group_name_H-M   'P 1'
_cell_length_a   7.44762329
_cell_length_b   7.44762329
_cell_length_c   10.53252986
_cell_angle_alpha   90.00000000
_cell_angle_beta   90.00000000
_cell_angle_gamma   90.00000000
_symmetry_Int_Tables_number   1
_chemical_formula_structural   Cr10Fe9Ni35
_chemical_formula_sum   'Cr10 Fe9 Ni35'
_cell_volume   584.20880961
_cell_formula_units_Z   1
loop_
 _symmetry_equiv_pos_site_id
 _symmetry_equiv_pos_as_xyz
  1  'x, y, z'
loop_
 _atom_site_type_symbol
 _atom_site_label
 _atom_site_symmetry_multiplicity
 _atom_site_fract_x
 _atom_site_fract_y
 _atom_site_fract_z
 _atom_site_occupancy
  Ni  Ni0  1  0.00444426  0.99843468  1.00065991  1
  Ni  Ni1  1  0.16897441  0.16707526  0.16846713  1
  Ni  Ni2  1  1.00096555  0.00186181  0.33485084  1
  Cr  Cr3  1  0.00331275  0.33552553  0.00281135  1
  Ni  Ni4  1  0.16848564  0.50285929  0.16883644  1
  Ni  Ni5  1  0.00339911  0.33447535  0.33419296  1
  Ni  Ni6  1  0.00241490  0.66945352  1.00009582  1
  Ni  Ni7  1  0.16783966  0.83397606  0.16735286  1
  Ni  Ni8  1  1.00096180  0.66757539  0.33340252  1
  Fe  Fe9  1  0.33185479  0.00130939  1.00049892  1
  Cr  Cr10  1  0.49997049  0.16891588  0.16846337  1
  Ni  Ni11  1  0.33492390  1.00125166  0.33429832  1
  Ni  Ni12  1  0.33474902  0.33514017  0.99956236  1
  Ni  Ni13  1  0.50099669  0.50193841  0.16865571  1
  Ni  Ni14  1  0.33301231  0.33560689  0.33636943  1
  Fe  Fe15  1  0.33253699  0.66742805  0.00198115  1
  Ni  Ni16  1  0.49967587  0.83293055  0.16951094  1
  Ni  Ni17  1  0.33605865  0.66705272  0.33353116  1
  Cr  Cr18  1  0.66791229  0.99990925  1.00092909  1
  Cr  Cr19  1  0.83511353  0.16867298  0.16941977  1
  Ni  Ni20  1  0.66802254  0.99881363  0.33692114  1
  Ni  Ni21  1  0.66523922  0.33716809  0.99955782  1
  Ni  Ni22  1  0.83442721  0.50307278  0.16879175  1
  Ni  Ni23  1  0.66749938  0.33561188  0.33529603  1
  Cr  Cr24  1  0.66851390  0.66710420  0.00168418  1
  Ni  Ni25  1  0.83639397  0.83244433  0.16961107  1
  Ni  Ni26  1  0.66689144  0.66948769  0.33367557  1
  Ni  Ni27  1  0.16895091  0.16986590  0.50148700  1
  Fe  Fe28  1  1.00123490  0.00149494  0.66812347  1
  Ni  Ni29  1  0.17151048  0.16704593  0.83396127  1
  Ni  Ni30  1  0.16840341  0.49921842  0.50065979  1
  Ni  Ni31  1  0.00338991  0.33433764  0.66813736  1
  Ni  Ni32  1  0.16755429  0.50238446  0.83441686  1
  Cr  Cr33  1  0.16761405  0.83433759  0.50027656  1
  Fe  Fe34  1  1.00123224  0.66824583  0.66993521  1
  Ni  Ni35  1  0.16703867  0.83448018  0.83586442  1
  Ni  Ni36  1  0.50177329  0.16723029  0.50163062  1
  Ni  Ni37  1  0.33596775  0.00359365  0.66960650  1
  Ni  Ni38  1  0.49947648  0.16888719  0.83399053  1
  Fe  Fe39  1  0.49990298  0.49986354  0.49870981  1
  Fe  Fe40  1  0.33417453  0.33217598  0.66810850  1
  Fe  Fe41  1  0.50049895  0.49873108  0.83629306  1
  Ni  Ni42  1  0.50291578  0.83725911  0.49978554  1
  Cr  Cr43  1  0.33448420  0.66758486  0.66833895  1
  Fe  Fe44  1  0.49975292  0.83655535  0.83390710  1
  Ni  Ni45  1  0.83318794  0.16683828  0.50148987  1
  Ni  Ni46  1  0.66698266  1.00117017  0.66698822  1
  Cr  Cr47  1  0.83305723  0.16847276  0.83362006  1
  Cr  Cr48  1  0.83610182  0.50087479  0.50007615  1
  Fe  Fe49  1  0.66668288  0.33218231  0.66820005  1
  Ni  Ni50  1  0.83535369  0.50258791  0.83445712  1
  Ni  Ni51  1  0.83298298  0.83671063  0.50069406  1
  Cr  Cr52  1  0.66840617  0.67023926  0.66862727  1
  Ni  Ni53  1  0.83719795  0.83295586  0.83360637  1
" 