6786,Ni65Fe28Cr5_4,-239.767481674977, 211.998675553355,Ni65Fe28Cr5,"# generated using pymatgen
 data_Cr4(Fe3Ni7)5
_symmetry_space_group_name_H-M   'P 1'
_cell_length_a   7.42270663
_cell_length_b   7.42270663
_cell_length_c   10.49729238
_cell_angle_alpha   90.00000000
_cell_angle_beta   90.00000000
_cell_angle_gamma   90.00000000
_symmetry_Int_Tables_number   1
_chemical_formula_structural   Cr4(Fe3Ni7)5
_chemical_formula_sum   'Cr4 Fe15 Ni35'
_cell_volume   578.36484304
_cell_formula_units_Z   1
loop_
 _symmetry_equiv_pos_site_id
 _symmetry_equiv_pos_as_xyz
  1  'x, y, z'
loop_
 _atom_site_type_symbol
 _atom_site_label
 _atom_site_symmetry_multiplicity
 _atom_site_fract_x
 _atom_site_fract_y
 _atom_site_fract_z
 _atom_site_occupancy
  Ni  Ni0  1  1.00207659  1.00094272  1.00234993  1
  Fe  Fe1  1  0.16707659  0.16791956  0.17134284  1
  Ni  Ni2  1  1.00279621  1.00274522  0.33643044  1
  Cr  Cr3  1  1.00166656  0.33542964  1.00242160  1
  Cr  Cr4  1  0.16962470  0.50384630  0.16979142  1
  Ni  Ni5  1  1.00203204  0.33558821  0.33706731  1
  Ni  Ni6  1  1.00213132  0.67250644  1.00210591  1
  Ni  Ni7  1  0.16751548  0.83617657  0.17079039  1
  Ni  Ni8  1  0.00330628  0.67062079  0.33667927  1
  Cr  Cr9  1  0.33460525  1.00158407  1.00269884  1
  Cr  Cr10  1  0.50330124  0.17088639  0.17045573  1
  Fe  Fe11  1  0.33515378  1.00285036  0.33771894  1
  Ni  Ni12  1  0.33857111  0.33782908  1.00048909  1
  Fe  Fe13  1  0.50458046  0.50498665  0.16978365  1
  Ni  Ni14  1  0.33670912  0.33688261  0.33814836  1
  Ni  Ni15  1  0.33740873  0.66960358  1.00163718  1
  Fe  Fe16  1  0.50389844  0.83309215  0.17035937  1
  Ni  Ni17  1  0.33666457  0.67055600  0.33697603  1
  Fe  Fe18  1  0.67202134  1.00174350  1.00168176  1
  Fe  Fe19  1  0.83758174  0.16859826  0.17044884  1
  Ni  Ni20  1  0.67028715  1.00279732  0.33682914  1
  Ni  Ni21  1  0.66884452  0.33778127  1.00205906  1
  Ni  Ni22  1  0.83492078  0.50475569  0.17110856  1
  Ni  Ni23  1  0.67021515  0.33637250  0.33709491  1
  Ni  Ni24  1  0.66942662  0.66907364  0.00320713  1
  Ni  Ni25  1  0.83708453  0.83568611  0.16867542  1
  Fe  Fe26  1  0.67030670  0.66946984  0.33600032  1
  Ni  Ni27  1  0.17071081  0.17127331  0.50172345  1
  Fe  Fe28  1  1.00255919  0.00351839  0.67020018  1
  Ni  Ni29  1  0.17062712  0.17066861  0.83605775  1
  Ni  Ni30  1  0.16960416  0.50184867  0.50249377  1
  Ni  Ni31  1  1.00229891  0.33745848  0.66952282  1
  Ni  Ni32  1  0.16982023  0.50349262  0.83619586  1
  Fe  Fe33  1  0.17043805  0.83595390  0.50263137  1
  Ni  Ni34  1  0.00356841  0.66889851  0.67018043  1
  Ni  Ni35  1  0.16847317  0.83479888  0.83574227  1
  Ni  Ni36  1  0.50244039  0.16968569  0.50311665  1
  Ni  Ni37  1  0.33752155  1.00240672  0.66894378  1
  Ni  Ni38  1  0.50370972  0.17020941  0.83523208  1
  Ni  Ni39  1  0.50215777  0.50204494  0.50195750  1
  Fe  Fe40  1  0.33595646  0.33551240  0.66935225  1
  Fe  Fe41  1  0.50317745  0.50267035  0.83690436  1
  Ni  Ni42  1  0.50448123  0.83722850  0.50168439  1
  Fe  Fe43  1  0.33639323  0.66973287  0.66954750  1
  Ni  Ni44  1  0.50425195  0.83688200  0.83642984  1
  Fe  Fe45  1  0.83550336  0.16986324  0.50308022  1
  Ni  Ni46  1  0.66793393  0.00367576  0.67063681  1
  Ni  Ni47  1  0.83462085  0.16885977  0.83639728  1
  Fe  Fe48  1  0.83634396  0.50249287  0.50302642  1
  Ni  Ni49  1  0.67017514  0.33534412  0.66981137  1
  Ni  Ni50  1  0.83670352  0.50403208  0.83574883  1
  Ni  Ni51  1  0.83561428  0.83612472  0.50271443  1
  Fe  Fe52  1  0.67015797  0.67022023  0.67003427  1
  Ni  Ni53  1  0.83623989  0.83606825  0.83757246  1
" 