5717,Ni65Fe35_13,-237.380897812155, 208.866670022833,Ni65Fe35,"# generated using pymatgen
 data_Fe35Ni19
_symmetry_space_group_name_H-M   'P 1'
_cell_length_a   7.39714699
_cell_length_b   7.39714699
_cell_length_c   10.46114559
_cell_angle_alpha   90.00000000
_cell_angle_beta   90.00000000
_cell_angle_gamma   90.00000000
_symmetry_Int_Tables_number   1
_chemical_formula_structural   Fe35Ni19
_chemical_formula_sum   'Fe35 Ni19'
_cell_volume   572.41070052
_cell_formula_units_Z   1
loop_
 _symmetry_equiv_pos_site_id
 _symmetry_equiv_pos_as_xyz
  1  'x, y, z'
loop_
 _atom_site_type_symbol
 _atom_site_label
 _atom_site_symmetry_multiplicity
 _atom_site_fract_x
 _atom_site_fract_y
 _atom_site_fract_z
 _atom_site_occupancy
  Fe  Fe0  1  1.00338686  0.00528488  1.00466828  1
  Fe  Fe1  1  0.17125011  0.17177302  0.17181652  1
  Ni  Ni2  1  1.00381265  1.00455058  0.33821555  1
  Ni  Ni3  1  0.00563740  0.33756558  0.00483413  1
  Ni  Ni4  1  0.17139375  0.50520411  0.17236923  1
  Fe  Fe5  1  0.00576241  0.33864845  0.33822435  1
  Fe  Fe6  1  1.00420927  0.67034418  1.00430427  1
  Fe  Fe7  1  0.17137724  0.83821308  0.17165550  1
  Fe  Fe8  1  0.00554815  0.67119109  0.33834749  1
  Fe  Fe9  1  0.33956766  0.00590694  1.00433186  1
  Ni  Ni10  1  0.50510720  0.17130766  0.17187312  1
  Fe  Fe11  1  0.33791110  0.00494819  0.33809379  1
  Ni  Ni12  1  0.33771870  0.33834419  1.00429470  1
  Fe  Fe13  1  0.50448490  0.50472922  0.17141690  1
  Ni  Ni14  1  0.33845065  0.33941352  0.33837366  1
  Fe  Fe15  1  0.33825315  0.67021135  0.00493557  1
  Fe  Fe16  1  0.50503968  0.83760241  0.17133782  1
  Ni  Ni17  1  0.33885337  0.67022791  0.33804453  1
  Ni  Ni18  1  0.67159269  1.00383822  1.00462868  1
  Fe  Fe19  1  0.83829249  0.17120850  0.17051940  1
  Fe  Fe20  1  0.67064321  0.00472669  0.33710469  1
  Ni  Ni21  1  0.67081589  0.33795973  0.00474222  1
  Fe  Fe22  1  0.83768542  0.50460040  0.17132139  1
  Fe  Fe23  1  0.67079211  0.33797188  0.33796545  1
  Ni  Ni24  1  0.67081419  0.67237556  1.00461525  1
  Ni  Ni25  1  0.83806007  0.83804790  0.17165977  1
  Fe  Fe26  1  0.67140140  0.67147377  0.33779538  1
  Fe  Fe27  1  0.17035371  0.17181414  0.50455262  1
  Ni  Ni28  1  1.00433860  1.00464504  0.67211719  1
  Fe  Fe29  1  0.17094429  0.17175238  0.83780824  1
  Fe  Fe30  1  0.17112128  0.50464292  0.50464201  1
  Ni  Ni31  1  0.00511232  0.33766552  0.67091297  1
  Ni  Ni32  1  0.17097373  0.50627452  0.83697358  1
  Fe  Fe33  1  0.17052030  0.83771891  0.50531461  1
  Ni  Ni34  1  1.00470894  0.67186509  0.67100683  1
  Ni  Ni35  1  0.17098834  0.83620562  0.83837763  1
  Fe  Fe36  1  0.50501508  0.17220813  0.50442483  1
  Fe  Fe37  1  0.33667490  1.00455917  0.67175208  1
  Ni  Ni38  1  0.50639148  0.17130419  0.83757419  1
  Fe  Fe39  1  0.50490165  0.50489089  0.50412430  1
  Fe  Fe40  1  0.33668428  0.33797330  0.67166642  1
  Fe  Fe41  1  0.50441639  0.50422702  0.83863193  1
  Fe  Fe42  1  0.50510038  0.83707652  0.50450818  1
  Fe  Fe43  1  0.33599167  0.67164148  0.67123221  1
  Fe  Fe44  1  0.50463584  0.83841494  0.83832633  1
  Fe  Fe45  1  0.83880444  0.17160922  0.50553871  1
  Fe  Fe46  1  0.67268578  0.00524063  0.67225529  1
  Ni  Ni47  1  0.83601811  0.17131684  0.83808637  1
  Ni  Ni48  1  0.83895523  0.50501397  0.50442408  1
  Fe  Fe49  1  0.67316141  0.33776319  0.67178217  1
  Fe  Fe50  1  0.83864403  0.50405553  0.83751820  1
  Fe  Fe51  1  0.83855418  0.83784400  0.50426485  1
  Fe  Fe52  1  0.67316137  0.67117003  0.67126498  1
  Fe  Fe53  1  0.83842173  0.83857900  0.83857091  1
" 