5833,Ni65Fe17Cr16_6,-234.643927145511, 188.489346946872,Ni65Fe17Cr16,"# generated using pymatgen
 data_Cr10Fe9Ni35
_symmetry_space_group_name_H-M   'P 1'
_cell_length_a   7.45010558
_cell_length_b   7.45010558
_cell_length_c   10.53604036
_cell_angle_alpha   90.00000000
_cell_angle_beta   90.00000000
_cell_angle_gamma   90.00000000
_symmetry_Int_Tables_number   1
_chemical_formula_structural   Cr10Fe9Ni35
_chemical_formula_sum   'Cr10 Fe9 Ni35'
_cell_volume   584.79315545
_cell_formula_units_Z   1
loop_
 _symmetry_equiv_pos_site_id
 _symmetry_equiv_pos_as_xyz
  1  'x, y, z'
loop_
 _atom_site_type_symbol
 _atom_site_label
 _atom_site_symmetry_multiplicity
 _atom_site_fract_x
 _atom_site_fract_y
 _atom_site_fract_z
 _atom_site_occupancy
  Ni  Ni0  1  0.00242428  0.99867509  0.00173757  1
  Ni  Ni1  1  0.16692457  0.16589100  0.16770796  1
  Ni  Ni2  1  0.00267148  0.99983726  0.33402806  1
  Fe  Fe3  1  0.00138664  0.33304267  0.00185786  1
  Cr  Cr4  1  0.16692614  0.50215866  0.16863049  1
  Fe  Fe5  1  1.00095087  0.33344870  0.33525795  1
  Ni  Ni6  1  1.00051256  0.66974898  1.00099444  1
  Ni  Ni7  1  0.16780634  0.83520462  0.16780863  1
  Ni  Ni8  1  1.00082274  0.66948781  0.33506956  1
  Ni  Ni9  1  0.33371875  1.00090942  0.00194898  1
  Ni  Ni10  1  0.50013731  0.16716833  0.16798739  1
  Ni  Ni11  1  0.33161186  1.00012799  0.33370279  1
  Fe  Fe12  1  0.33387705  0.33166745  0.00201467  1
  Ni  Ni13  1  0.50178426  0.50273272  0.16781169  1
  Ni  Ni14  1  0.33502871  0.33398564  0.33295238  1
  Ni  Ni15  1  0.33380034  0.66887334  0.00232759  1
  Ni  Ni16  1  0.50006561  0.83360834  0.16815048  1
  Ni  Ni17  1  0.33379428  0.66913811  0.33435051  1
  Ni  Ni18  1  0.66768476  0.00184300  0.00325754  1
  Ni  Ni19  1  0.83634063  0.16786355  0.16807679  1
  Cr  Cr20  1  0.66883220  1.00060414  0.33179288  1
  Cr  Cr21  1  0.66641164  0.33496495  0.00213849  1
  Ni  Ni22  1  0.83443504  0.50181643  0.16920668  1
  Ni  Ni23  1  0.66886952  0.33577118  0.33335568  1
  Fe  Fe24  1  0.66851672  0.67031006  0.00311027  1
  Ni  Ni25  1  0.83550879  0.83385722  0.16625618  1
  Ni  Ni26  1  0.66887919  0.66626527  0.33260209  1
  Ni  Ni27  1  0.16528065  0.16586479  0.50015414  1
  Ni  Ni28  1  0.00184547  0.99780585  0.66764573  1
  Ni  Ni29  1  0.16883013  0.16403541  0.83562152  1
  Ni  Ni30  1  0.16623948  0.50352502  0.49958049  1
  Cr  Cr31  1  1.00079400  0.33500313  0.66603347  1
  Cr  Cr32  1  0.16629229  0.50387240  0.83652010  1
  Ni  Ni33  1  0.16844157  0.83380918  0.50162734  1
  Ni  Ni34  1  1.00105082  0.67042248  0.66748201  1
  Ni  Ni35  1  0.16784952  0.83506428  0.83406585  1
  Cr  Cr36  1  0.50206825  0.16500459  0.50138454  1
  Ni  Ni37  1  0.33279589  0.99912190  0.66761737  1
  Ni  Ni38  1  0.50108313  0.16586808  0.83392149  1
  Cr  Cr39  1  0.50093539  0.50381593  0.50079824  1
  Cr  Cr40  1  0.33492403  0.33388986  0.67005682  1
  Fe  Fe41  1  0.50153614  0.50162740  0.83495282  1
  Ni  Ni42  1  0.50025238  0.83345390  0.50118601  1
  Ni  Ni43  1  0.33234788  0.66980433  0.66689608  1
  Cr  Cr44  1  0.50100446  0.83545502  0.83391684  1
  Ni  Ni45  1  0.83569925  0.16784448  0.50113544  1
  Ni  Ni46  1  0.66917852  0.00130954  0.66717011  1
  Cr  Cr47  1  0.83486470  0.16594308  0.83435201  1
  Fe  Fe48  1  0.83514236  0.50219871  0.50000838  1
  Ni  Ni49  1  0.66861589  0.33502055  0.66848445  1
  Ni  Ni50  1  0.83320026  0.50392703  0.83374966  1
  Fe  Fe51  1  0.83552230  0.83502508  0.50043713  1
  Fe  Fe52  1  0.66931353  0.66919223  0.66711176  1
  Fe  Fe53  1  0.83656919  0.83449360  0.83535436  1
" 