4086,Ni65Fe35_9,-237.403566621077, 206.079419849835,Ni65Fe35,"# generated using pymatgen
 data_Fe35Ni19
_symmetry_space_group_name_H-M   'P 1'
_cell_length_a   7.39407515
_cell_length_b   7.39407515
_cell_length_c   10.45680136
_cell_angle_alpha   90.00000000
_cell_angle_beta   90.00000000
_cell_angle_gamma   90.00000000
_symmetry_Int_Tables_number   1
_chemical_formula_structural   Fe35Ni19
_chemical_formula_sum   'Fe35 Ni19'
_cell_volume   571.69787532
_cell_formula_units_Z   1
loop_
 _symmetry_equiv_pos_site_id
 _symmetry_equiv_pos_as_xyz
  1  'x, y, z'
loop_
 _atom_site_type_symbol
 _atom_site_label
 _atom_site_symmetry_multiplicity
 _atom_site_fract_x
 _atom_site_fract_y
 _atom_site_fract_z
 _atom_site_occupancy
  Ni  Ni0  1  1.00431732  0.00742785  0.00546311  1
  Fe  Fe1  1  0.17073698  0.17092345  0.17083439  1
  Fe  Fe2  1  1.00370349  1.00426929  0.33785855  1
  Ni  Ni3  1  1.00389324  0.33658205  0.00505488  1
  Fe  Fe4  1  0.17114920  0.50439146  0.17105138  1
  Fe  Fe5  1  1.00379378  0.33785442  0.33858667  1
  Fe  Fe6  1  0.00526205  0.67183245  0.00543429  1
  Fe  Fe7  1  0.17146373  0.83948953  0.17136881  1
  Fe  Fe8  1  1.00401875  0.67268021  0.33826825  1
  Fe  Fe9  1  0.33749606  0.00570192  1.00470568  1
  Ni  Ni10  1  0.50504141  0.17161776  0.17116513  1
  Ni  Ni11  1  0.33915202  0.00493514  0.33761509  1
  Fe  Fe12  1  0.33758226  0.33776979  1.00488672  1
  Fe  Fe13  1  0.50592645  0.50520245  0.17142072  1
  Fe  Fe14  1  0.33998543  0.33734596  0.33808634  1
  Ni  Ni15  1  0.33984987  0.67163774  0.00588257  1
  Fe  Fe16  1  0.50594046  0.83900208  0.17215174  1
  Fe  Fe17  1  0.33908401  0.67251091  0.33817753  1
  Fe  Fe18  1  0.67238266  0.00562488  0.00579557  1
  Ni  Ni19  1  0.83731095  0.17067696  0.17174040  1
  Ni  Ni20  1  0.67111036  1.00441783  0.33838604  1
  Fe  Fe21  1  0.67188308  0.33743474  1.00484366  1
  Fe  Fe22  1  0.83772975  0.50447589  0.17223265  1
  Fe  Fe23  1  0.67102295  0.33703205  0.33858946  1
  Fe  Fe24  1  0.67254740  0.67174207  0.00570366  1
  Ni  Ni25  1  0.83909962  0.83785907  0.17201063  1
  Ni  Ni26  1  0.67119230  0.67158799  0.33796224  1
  Fe  Fe27  1  0.17097267  0.17176806  0.50593224  1
  Ni  Ni28  1  0.00501927  0.00753899  0.67095157  1
  Ni  Ni29  1  0.17210606  0.17150393  0.83816287  1
  Fe  Fe30  1  0.17105202  0.50385180  0.50530503  1
  Ni  Ni31  1  1.00367882  0.33691307  0.67179549  1
  Fe  Fe32  1  0.17178153  0.50339724  0.83844791  1
  Fe  Fe33  1  0.17170465  0.83918342  0.50548443  1
  Fe  Fe34  1  0.00580070  0.67191364  0.67110111  1
  Fe  Fe35  1  0.17210065  0.84003614  0.83794918  1
  Ni  Ni36  1  0.50492404  0.17106244  0.50547478  1
  Ni  Ni37  1  0.33807098  1.00400859  0.67235655  1
  Ni  Ni38  1  0.50422514  0.17150603  0.83816468  1
  Fe  Fe39  1  0.50602947  0.50466241  0.50493402  1
  Fe  Fe40  1  0.33758166  0.33712679  0.67183048  1
  Fe  Fe41  1  0.50447473  0.50421974  0.83844769  1
  Fe  Fe42  1  0.50569359  0.83869298  0.50470229  1
  Ni  Ni43  1  0.33984962  0.67211004  0.67054089  1
  Fe  Fe44  1  0.50415682  0.83921363  0.83794942  1
  Ni  Ni45  1  0.83731302  0.17198112  0.50491014  1
  Fe  Fe46  1  0.67151249  0.00585565  0.67115267  1
  Ni  Ni47  1  0.83846648  0.17149342  0.83815475  1
  Ni  Ni48  1  0.83909281  0.50556049  0.50462997  1
  Fe  Fe49  1  0.67166367  0.33712868  0.67136976  1
  Fe  Fe50  1  0.83854984  0.50284202  0.83763640  1
  Fe  Fe51  1  0.83740790  0.83877306  0.50398369  1
  Fe  Fe52  1  0.67200842  0.67182164  0.67083202  1
  Fe  Fe53  1  0.83855156  0.84027325  0.83898805  1
" 