3712,Ni65Fe35_4,-237.509811321816, 212.001852949783,Ni65Fe35,"# generated using pymatgen
 data_Fe35Ni19
_symmetry_space_group_name_H-M   'P 1'
_cell_length_a   7.39466391
_cell_length_b   7.39466391
_cell_length_c   10.45763399
_cell_angle_alpha   90.00000000
_cell_angle_beta   90.00000000
_cell_angle_gamma   90.00000000
_symmetry_Int_Tables_number   1
_chemical_formula_structural   Fe35Ni19
_chemical_formula_sum   'Fe35 Ni19'
_cell_volume   571.83445177
_cell_formula_units_Z   1
loop_
 _symmetry_equiv_pos_site_id
 _symmetry_equiv_pos_as_xyz
  1  'x, y, z'
loop_
 _atom_site_type_symbol
 _atom_site_label
 _atom_site_symmetry_multiplicity
 _atom_site_fract_x
 _atom_site_fract_y
 _atom_site_fract_z
 _atom_site_occupancy
  Fe  Fe0  1  0.00538686  1.00440658  1.00408201  1
  Fe  Fe1  1  0.17190920  0.17170796  0.17132005  1
  Fe  Fe2  1  0.00533150  1.00381942  0.33921807  1
  Fe  Fe3  1  1.00466145  0.33879496  1.00481338  1
  Fe  Fe4  1  0.17175104  0.50495225  0.17168471  1
  Fe  Fe5  1  1.00457383  0.33888762  0.33856600  1
  Fe  Fe6  1  0.00497401  0.67147840  0.00596070  1
  Ni  Ni7  1  0.17175475  0.83758470  0.17053282  1
  Ni  Ni8  1  1.00350545  0.67146735  0.33869651  1
  Fe  Fe9  1  0.33901136  1.00453347  0.00575261  1
  Ni  Ni10  1  0.50535243  0.17146519  0.17043085  1
  Ni  Ni11  1  0.33749187  0.00668059  0.33843209  1
  Ni  Ni12  1  0.33718223  0.33822606  0.00567168  1
  Fe  Fe13  1  0.50490698  0.50537797  0.17090147  1
  Fe  Fe14  1  0.33839494  0.33828500  0.33873066  1
  Ni  Ni15  1  0.33878251  0.67006760  0.00545676  1
  Fe  Fe16  1  0.50532960  0.83795492  0.17119384  1
  Fe  Fe17  1  0.33735292  0.67244380  0.33794982  1
  Ni  Ni18  1  0.67252001  1.00404629  0.00508454  1
  Fe  Fe19  1  0.83809299  0.17128305  0.17167758  1
  Fe  Fe20  1  0.67124951  1.00486121  0.33786848  1
  Fe  Fe21  1  0.67072903  0.33863750  0.00547288  1
  Ni  Ni22  1  0.83759185  0.50561462  0.17099403  1
  Fe  Fe23  1  0.67171405  0.33814497  0.33814300  1
  Ni  Ni24  1  0.67166918  0.67249965  0.00556638  1
  Fe  Fe25  1  0.83766809  0.83779963  0.17139976  1
  Ni  Ni26  1  0.67292969  0.67146610  0.33785345  1
  Ni  Ni27  1  0.17192183  0.17109309  0.50448344  1
  Ni  Ni28  1  0.00518215  0.00563720  0.67052327  1
  Ni  Ni29  1  0.17212857  0.17118516  0.83833745  1
  Ni  Ni30  1  0.17117783  0.50630569  0.50506660  1
  Fe  Fe31  1  0.00508870  0.33787461  0.67129938  1
  Fe  Fe32  1  0.17235365  0.50401751  0.83803009  1
  Ni  Ni33  1  0.17156470  0.83728884  0.50602283  1
  Fe  Fe34  1  0.00537661  0.67149406  0.67065855  1
  Fe  Fe35  1  0.17140034  0.83872595  0.83830870  1
  Ni  Ni36  1  0.50574497  0.17146085  0.50612714  1
  Fe  Fe37  1  0.33787430  0.00516629  0.67057351  1
  Fe  Fe38  1  0.50417958  0.17185494  0.83860302  1
  Fe  Fe39  1  0.50419670  0.50419955  0.50542718  1
  Ni  Ni40  1  0.33738275  0.33739191  0.67069311  1
  Fe  Fe41  1  0.50411546  0.50477328  0.83835690  1
  Fe  Fe42  1  0.50435868  0.83884421  0.50476170  1
  Fe  Fe43  1  0.33774646  0.67162590  0.67179582  1
  Fe  Fe44  1  0.50514911  0.83805180  0.83873059  1
  Ni  Ni45  1  0.83701294  0.17184558  0.50505973  1
  Fe  Fe46  1  0.67157302  0.00545781  0.67179577  1
  Fe  Fe47  1  0.83889171  0.17089937  0.83774004  1
  Fe  Fe48  1  0.83883968  0.50469659  0.50403751  1
  Fe  Fe49  1  0.67170606  0.33774846  0.67106585  1
  Fe  Fe50  1  0.83821256  0.50499219  0.83879971  1
  Fe  Fe51  1  0.83905165  0.83871803  0.50513927  1
  Ni  Ni52  1  0.67210672  0.67166444  0.67125890  1
  Fe  Fe53  1  0.83813921  0.83879309  0.83814307  1
" 