7636,Ni65Fe17Cr16_15,-234.451808778391, 188.011623927139,Ni65Fe17Cr16,"# generated using pymatgen
 data_Cr10Fe9Ni35
_symmetry_space_group_name_H-M   'P 1'
_cell_length_a   7.44745968
_cell_length_b   7.44745968
_cell_length_c   10.53229848
_cell_angle_alpha   90.00000000
_cell_angle_beta   90.00000000
_cell_angle_gamma   90.00000000
_symmetry_Int_Tables_number   1
_chemical_formula_structural   Cr10Fe9Ni35
_chemical_formula_sum   'Cr10 Fe9 Ni35'
_cell_volume   584.17030863
_cell_formula_units_Z   1
loop_
 _symmetry_equiv_pos_site_id
 _symmetry_equiv_pos_as_xyz
  1  'x, y, z'
loop_
 _atom_site_type_symbol
 _atom_site_label
 _atom_site_symmetry_multiplicity
 _atom_site_fract_x
 _atom_site_fract_y
 _atom_site_fract_z
 _atom_site_occupancy
  Ni  Ni0  1  0.00292386  0.99980409  1.00083334  1
  Fe  Fe1  1  0.16844785  0.16777151  0.16683547  1
  Cr  Cr2  1  0.00243799  0.99890887  0.33577482  1
  Ni  Ni3  1  0.00331433  0.33467518  0.99919894  1
  Cr  Cr4  1  0.16477380  0.50173902  0.16617920  1
  Ni  Ni5  1  0.00209481  0.33622784  0.33644803  1
  Ni  Ni6  1  1.00000080  0.66915695  1.00049716  1
  Ni  Ni7  1  0.16915030  0.83395821  0.16659810  1
  Ni  Ni8  1  0.00165118  0.66760177  0.33573041  1
  Ni  Ni9  1  0.33325686  1.00041963  1.00070746  1
  Cr  Cr10  1  0.50041355  0.16545945  0.16837069  1
  Ni  Ni11  1  0.33236976  1.00073475  0.33365264  1
  Ni  Ni12  1  0.33247380  0.33409256  0.99873966  1
  Cr  Cr13  1  0.50062788  0.50220607  0.16831995  1
  Ni  Ni14  1  0.33238424  0.33442990  0.33640760  1
  Ni  Ni15  1  0.33532456  0.66961868  0.99938384  1
  Ni  Ni16  1  0.49891647  0.83629461  0.16625659  1
  Fe  Fe17  1  0.33184452  0.66955753  0.33463630  1
  Ni  Ni18  1  0.66787865  0.99673255  0.99970817  1
  Cr  Cr19  1  0.83575782  0.17013166  0.16722736  1
  Ni  Ni20  1  0.66837874  0.99997245  0.33473101  1
  Cr  Cr21  1  0.66758890  0.33712278  0.99704769  1
  Ni  Ni22  1  0.83760801  0.50183423  0.16757175  1
  Ni  Ni23  1  0.66954585  0.33633725  0.33798182  1
  Ni  Ni24  1  0.66857571  0.67003725  0.00142446  1
  Fe  Fe25  1  0.83540764  0.83345243  0.16594493  1
  Cr  Cr26  1  0.67105455  0.66872628  0.33302572  1
  Ni  Ni27  1  0.16671307  0.16837975  0.49972044  1
  Ni  Ni28  1  0.00258834  1.00106321  0.66739675  1
  Ni  Ni29  1  0.16660134  0.16712300  0.83700623  1
  Ni  Ni30  1  0.16549681  0.50278223  0.50110834  1
  Ni  Ni31  1  1.00114054  0.33413329  0.66793553  1
  Fe  Fe32  1  0.16724868  0.50239063  0.83569704  1
  Ni  Ni33  1  0.16758463  0.83286826  0.50325170  1
  Fe  Fe34  1  0.99942761  0.66828249  0.66760864  1
  Fe  Fe35  1  0.16771055  0.83489861  0.83513904  1
  Cr  Cr36  1  0.50342612  0.16653241  0.50068077  1
  Ni  Ni37  1  0.33148204  1.00048806  0.66974645  1
  Ni  Ni38  1  0.50003538  0.16525599  0.83479675  1
  Fe  Fe39  1  0.50158488  0.50183963  0.50221385  1
  Cr  Cr40  1  0.33326120  0.33418412  0.66927756  1
  Ni  Ni41  1  0.50207103  0.50374208  0.83438158  1
  Cr  Cr42  1  0.50033182  0.83558155  0.50255560  1
  Fe  Fe43  1  0.33438619  0.66886298  0.66992465  1
  Ni  Ni44  1  0.50164268  0.83513686  0.83541602  1
  Ni  Ni45  1  0.83554210  0.16918826  0.50356314  1
  Ni  Ni46  1  0.66989490  0.99950434  0.66975170  1
  Fe  Fe47  1  0.83473991  0.16638034  0.83311695  1
  Ni  Ni48  1  0.83733645  0.50057215  0.50152164  1
  Ni  Ni49  1  0.66983667  0.33729776  0.66854103  1
  Ni  Ni50  1  0.83693456  0.50301207  0.83459185  1
  Ni  Ni51  1  0.83581740  0.83397497  0.50226159  1
  Ni  Ni52  1  0.66914632  0.66716371  0.66916853  1
  Ni  Ni53  1  0.83483036  0.83337178  0.83540756  1
" 