262,Ni65Fe17Cr16_5,-234.476543212153, 189.054527118872,Ni65Fe17Cr16,"# generated using pymatgen
 data_Cr10Fe9Ni35
_symmetry_space_group_name_H-M   'P 1'
_cell_length_a   7.44763073
_cell_length_b   7.44763073
_cell_length_c   10.53254039
_cell_angle_alpha   90.00000000
_cell_angle_beta   90.00000000
_cell_angle_gamma   90.00000000
_symmetry_Int_Tables_number   1
_chemical_formula_structural   Cr10Fe9Ni35
_chemical_formula_sum   'Cr10 Fe9 Ni35'
_cell_volume   584.21056105
_cell_formula_units_Z   1
loop_
 _symmetry_equiv_pos_site_id
 _symmetry_equiv_pos_as_xyz
  1  'x, y, z'
loop_
 _atom_site_type_symbol
 _atom_site_label
 _atom_site_symmetry_multiplicity
 _atom_site_fract_x
 _atom_site_fract_y
 _atom_site_fract_z
 _atom_site_occupancy
  Ni  Ni0  1  0.99964974  1.00120662  0.00257503  1
  Fe  Fe1  1  0.16711864  0.16535094  0.16701857  1
  Ni  Ni2  1  1.00102460  0.00235507  0.33441407  1
  Ni  Ni3  1  0.99950540  0.33339441  0.00130412  1
  Cr  Cr4  1  0.16966052  0.50060940  0.16705055  1
  Ni  Ni5  1  0.99965462  0.33154763  0.33495038  1
  Cr  Cr6  1  1.00087504  0.67070074  0.99966232  1
  Ni  Ni7  1  0.16890462  0.83747280  0.16745092  1
  Cr  Cr8  1  0.00184764  0.67028112  0.33426453  1
  Ni  Ni9  1  0.33485581  0.00155858  1.00114990  1
  Fe  Fe10  1  0.50241336  0.16701222  0.16648347  1
  Ni  Ni11  1  0.33401960  1.00065142  0.33585797  1
  Ni  Ni12  1  0.33691804  0.33455099  1.00085626  1
  Ni  Ni13  1  0.50185170  0.50017529  0.16787228  1
  Cr  Cr14  1  0.33534497  0.33190726  0.33571389  1
  Ni  Ni15  1  0.33430132  0.66741055  0.99924075  1
  Cr  Cr16  1  0.49952471  0.83485017  0.16861164  1
  Ni  Ni17  1  0.33385722  0.66923234  0.33527638  1
  Ni  Ni18  1  0.66940498  0.00378696  0.99961806  1
  Ni  Ni19  1  0.83482776  0.16816061  0.16739149  1
  Ni  Ni20  1  0.66886049  0.00379683  0.33639498  1
  Ni  Ni21  1  0.66745261  0.33260785  0.00166756  1
  Fe  Fe22  1  0.83305309  0.50012788  0.16800027  1
  Ni  Ni23  1  0.66866364  0.33176248  0.33187073  1
  Cr  Cr24  1  0.66891890  0.66797405  0.99995224  1
  Ni  Ni25  1  0.83427570  0.84063447  0.16993183  1
  Fe  Fe26  1  0.66723693  0.66934738  0.33403702  1
  Fe  Fe27  1  0.16656904  0.16659354  0.50227102  1
  Ni  Ni28  1  1.00038107  0.99889885  0.66708716  1
  Cr  Cr29  1  0.16680971  0.16735908  0.83531746  1
  Ni  Ni30  1  0.16699973  0.50085383  0.50266970  1
  Fe  Fe31  1  1.00078591  0.33368656  0.66834566  1
  Ni  Ni32  1  0.16730853  0.50027202  0.83408163  1
  Ni  Ni33  1  0.16966758  0.83607795  0.50080559  1
  Ni  Ni34  1  1.00074677  0.66935203  0.66913737  1
  Ni  Ni35  1  0.16887137  0.83524650  0.83569632  1
  Fe  Fe36  1  0.50288060  0.16637920  0.50294405  1
  Ni  Ni37  1  0.33534189  0.00242084  0.66691532  1
  Ni  Ni38  1  0.50286270  0.16673126  0.83467562  1
  Cr  Cr39  1  0.50216274  0.50352164  0.50134608  1
  Ni  Ni40  1  0.33571693  0.33302768  0.66789273  1
  Fe  Fe41  1  0.50189367  0.49954916  0.83492165  1
  Ni  Ni42  1  0.50114505  0.83726188  0.50023396  1
  Cr  Cr43  1  0.33307938  0.66863219  0.67004473  1
  Ni  Ni44  1  0.50115228  0.83735908  0.83455410  1
  Ni  Ni45  1  0.83464529  0.16680354  0.50177040  1
  Ni  Ni46  1  0.66829503  0.00209871  0.66803319  1
  Ni  Ni47  1  0.83294922  0.16814444  0.83493831  1
  Cr  Cr48  1  0.83499915  0.49799021  0.50089179  1
  Ni  Ni49  1  0.66712903  0.33269260  0.67010251  1
  Ni  Ni50  1  0.83536189  0.49830791  0.83359910  1
  Fe  Fe51  1  0.83439599  0.83621741  0.50250457  1
  Ni  Ni52  1  0.67025932  0.66918836  0.66888455  1
  Ni  Ni53  1  0.83396075  0.83725977  0.83211047  1
" 