7659,Ni65Fe24Cr10_0,-237.710816924463, 201.092721605028,Ni65Fe24Cr10,"# generated using pymatgen
 data_Cr6Fe13Ni35
_symmetry_space_group_name_H-M   'P 1'
_cell_length_a   7.42932780
_cell_length_b   7.42932780
_cell_length_c   10.50665613
_cell_angle_alpha   90.00000000
_cell_angle_beta   90.00000000
_cell_angle_gamma   90.00000000
_symmetry_Int_Tables_number   1
_chemical_formula_structural   Cr6Fe13Ni35
_chemical_formula_sum   'Cr6 Fe13 Ni35'
_cell_volume   579.91395575
_cell_formula_units_Z   1
loop_
 _symmetry_equiv_pos_site_id
 _symmetry_equiv_pos_as_xyz
  1  'x, y, z'
loop_
 _atom_site_type_symbol
 _atom_site_label
 _atom_site_symmetry_multiplicity
 _atom_site_fract_x
 _atom_site_fract_y
 _atom_site_fract_z
 _atom_site_occupancy
  Ni  Ni0  1  1.00142657  0.00299006  1.00205580  1
  Ni  Ni1  1  0.16784026  0.17112298  0.17033823  1
  Ni  Ni2  1  1.00199340  1.00168451  0.33576923  1
  Ni  Ni3  1  0.00302329  0.33554453  0.00314879  1
  Ni  Ni4  1  0.16986957  0.50168884  0.16971809  1
  Ni  Ni5  1  0.00254867  0.33488363  0.33311273  1
  Ni  Ni6  1  1.00200196  0.66908337  0.00259584  1
  Ni  Ni7  1  0.16674820  0.83480232  0.17015459  1
  Ni  Ni8  1  0.00255079  0.67104618  0.33417156  1
  Cr  Cr9  1  0.33478999  0.00345838  0.00258441  1
  Fe  Fe10  1  0.50268069  0.17162153  0.17050963  1
  Fe  Fe11  1  0.33542391  0.00306277  0.33635071  1
  Ni  Ni12  1  0.33535628  0.33684605  1.00182823  1
  Ni  Ni13  1  0.50166634  0.50139507  0.16944195  1
  Ni  Ni14  1  0.33718699  0.33544664  0.33471672  1
  Ni  Ni15  1  0.33560099  0.66701510  1.00197836  1
  Cr  Cr16  1  0.50410454  0.83471500  0.17030219  1
  Fe  Fe17  1  0.33542693  0.66867190  0.33544176  1
  Fe  Fe18  1  0.67200993  0.00268792  1.00140450  1
  Ni  Ni19  1  0.83659276  0.16880572  0.17001963  1
  Ni  Ni20  1  0.67002928  0.00327486  0.33666741  1
  Fe  Fe21  1  0.66964315  0.33634150  1.00227096  1
  Fe  Fe22  1  0.83667853  0.50293857  0.16928421  1
  Ni  Ni23  1  0.66787986  0.33489203  0.33529281  1
  Ni  Ni24  1  0.67001624  0.66860512  1.00146241  1
  Ni  Ni25  1  0.83688811  0.83632478  0.16926917  1
  Ni  Ni26  1  0.66946139  0.66945143  0.33655811  1
  Cr  Cr27  1  0.17039511  0.16796933  0.50193403  1
  Fe  Fe28  1  1.00130550  0.99945044  0.66995446  1
  Ni  Ni29  1  0.16983016  0.17064934  0.83558281  1
  Cr  Cr30  1  0.17038316  0.50416872  0.50147118  1
  Cr  Cr31  1  1.00123287  0.33542740  0.67105980  1
  Ni  Ni32  1  0.16962771  0.50245188  0.83644008  1
  Ni  Ni33  1  0.16880902  0.83569619  0.50276286  1
  Ni  Ni34  1  0.00291762  0.67162987  0.67084864  1
  Fe  Fe35  1  0.16823998  0.83528713  0.83504317  1
  Ni  Ni36  1  0.50381184  0.16897247  0.50208294  1
  Ni  Ni37  1  0.33718085  1.00144359  0.66948220  1
  Ni  Ni38  1  0.50275230  0.16923631  0.83550325  1
  Fe  Fe39  1  0.50280512  0.50273903  0.50194780  1
  Fe  Fe40  1  0.33939463  0.33582414  0.67083297  1
  Fe  Fe41  1  0.50301717  0.50255166  0.83633645  1
  Fe  Fe42  1  0.50270228  0.83619936  0.50339390  1
  Ni  Ni43  1  0.33639377  0.67104443  0.66981350  1
  Ni  Ni44  1  0.50420441  0.83552139  0.83441811  1
  Fe  Fe45  1  0.83360299  0.16662630  0.50134539  1
  Ni  Ni46  1  0.66801976  0.00285935  0.66925788  1
  Ni  Ni47  1  0.83503916  0.16840306  0.83544181  1
  Cr  Cr48  1  0.83432743  0.50408330  0.50114920  1
  Ni  Ni49  1  0.66742682  0.33462163  0.66959666  1
  Ni  Ni50  1  0.83604143  0.50389395  0.83699602  1
  Ni  Ni51  1  0.83525924  0.83649781  0.50256585  1
  Ni  Ni52  1  0.66830405  0.67012827  0.66959607  1
  Ni  Ni53  1  0.83462005  0.83530591  0.83577801  1
" 