4729,Ni65Fe24Cr10_10,-237.688140388993, 202.528434223613,Ni65Fe24Cr10,"# generated using pymatgen
 data_Cr6Fe13Ni35
_symmetry_space_group_name_H-M   'P 1'
_cell_length_a   7.43127359
_cell_length_b   7.43127359
_cell_length_c   10.50940790
_cell_angle_alpha   90.00000000
_cell_angle_beta   90.00000000
_cell_angle_gamma   90.00000000
_symmetry_Int_Tables_number   1
_chemical_formula_structural   Cr6Fe13Ni35
_chemical_formula_sum   'Cr6 Fe13 Ni35'
_cell_volume   580.36972541
_cell_formula_units_Z   1
loop_
 _symmetry_equiv_pos_site_id
 _symmetry_equiv_pos_as_xyz
  1  'x, y, z'
loop_
 _atom_site_type_symbol
 _atom_site_label
 _atom_site_symmetry_multiplicity
 _atom_site_fract_x
 _atom_site_fract_y
 _atom_site_fract_z
 _atom_site_occupancy
  Ni  Ni0  1  0.00424768  0.00302466  0.00279931  1
  Fe  Fe1  1  0.16937838  0.16845331  0.16916369  1
  Ni  Ni2  1  0.00262257  1.00232307  0.33566172  1
  Fe  Fe3  1  1.00230326  0.33615293  1.00189201  1
  Ni  Ni4  1  0.16742235  0.50182391  0.16923073  1
  Ni  Ni5  1  0.00365575  0.33520310  0.33584914  1
  Ni  Ni6  1  0.00328602  0.66930921  0.00291868  1
  Fe  Fe7  1  0.16836317  0.83688485  0.16815688  1
  Ni  Ni8  1  1.00068504  0.66969379  0.33577383  1
  Ni  Ni9  1  0.33411361  1.00106819  0.00278531  1
  Ni  Ni10  1  0.50186238  0.16679665  0.16898770  1
  Ni  Ni11  1  0.33553362  0.00412466  0.33588951  1
  Fe  Fe12  1  0.33406750  0.33628777  0.00254021  1
  Cr  Cr13  1  0.50110368  0.50209275  0.16751923  1
  Ni  Ni14  1  0.33401844  0.33292266  0.33607225  1
  Ni  Ni15  1  0.33546328  0.67087482  1.00038193  1
  Ni  Ni16  1  0.50378112  0.83834318  0.16905170  1
  Cr  Cr17  1  0.33589748  0.66989280  0.33654315  1
  Fe  Fe18  1  0.66902557  1.00162313  0.00465441  1
  Ni  Ni19  1  0.83594157  0.16712714  0.16820209  1
  Ni  Ni20  1  0.66906571  1.00115352  0.33550129  1
  Ni  Ni21  1  0.67042956  0.33623959  1.00163262  1
  Fe  Fe22  1  0.83717332  0.50357032  0.16834497  1
  Cr  Cr23  1  0.66940868  0.33562081  0.33689118  1
  Ni  Ni24  1  0.66847253  0.66778371  0.00243996  1
  Ni  Ni25  1  0.83568574  0.83635298  0.16991431  1
  Ni  Ni26  1  0.67134631  0.67120931  0.33630046  1
  Fe  Fe27  1  0.16946702  0.17009650  0.50174129  1
  Cr  Cr28  1  0.00345635  0.00312032  0.66906988  1
  Ni  Ni29  1  0.16866327  0.17040668  0.83651538  1
  Fe  Fe30  1  0.16762005  0.50127477  0.50291058  1
  Ni  Ni31  1  1.00194706  0.33651659  0.66995468  1
  Ni  Ni32  1  0.16862177  0.50274533  0.83500222  1
  Ni  Ni33  1  0.16817605  0.83523340  0.50207677  1
  Ni  Ni34  1  0.00265947  0.66756552  0.66852754  1
  Ni  Ni35  1  0.17137300  0.83407240  0.83732423  1
  Ni  Ni36  1  0.50171082  0.16935918  0.50223719  1
  Fe  Fe37  1  0.33620143  1.00190787  0.66877101  1
  Cr  Cr38  1  0.50294573  0.16884879  0.83612131  1
  Ni  Ni39  1  0.50224772  0.50114000  0.50420019  1
  Ni  Ni40  1  0.33602208  0.33616335  0.66852526  1
  Fe  Fe41  1  0.50264001  0.50383771  0.83542564  1
  Fe  Fe42  1  0.50442699  0.83639698  0.50266821  1
  Fe  Fe43  1  0.33536462  0.66818510  0.66969929  1
  Ni  Ni44  1  0.50045454  0.83454506  0.83541258  1
  Ni  Ni45  1  0.83490574  0.16895716  0.50280745  1
  Fe  Fe46  1  0.66840956  0.00317920  0.66709465  1
  Ni  Ni47  1  0.83634458  0.17173561  0.83621171  1
  Ni  Ni48  1  0.83639226  0.50356656  0.50226783  1
  Ni  Ni49  1  0.66924988  0.33721433  0.66854007  1
  Ni  Ni50  1  0.83681936  0.50098495  0.83609893  1
  Ni  Ni51  1  0.83606328  0.83469926  0.50095969  1
  Ni  Ni52  1  0.66805893  0.66734388  0.66847942  1
  Cr  Cr53  1  0.83538160  0.83492821  0.83623628  1
" 