3440,Ni65Fe35_1,-237.197587901759, 207.411372234891,Ni65Fe35,"# generated using pymatgen
 data_Fe35Ni19
_symmetry_space_group_name_H-M   'P 1'
_cell_length_a   7.39258865
_cell_length_b   7.39258865
_cell_length_c   10.45469913
_cell_angle_alpha   90.00000000
_cell_angle_beta   90.00000000
_cell_angle_gamma   90.00000000
_symmetry_Int_Tables_number   1
_chemical_formula_structural   Fe35Ni19
_chemical_formula_sum   'Fe35 Ni19'
_cell_volume   571.35314315
_cell_formula_units_Z   1
loop_
 _symmetry_equiv_pos_site_id
 _symmetry_equiv_pos_as_xyz
  1  'x, y, z'
loop_
 _atom_site_type_symbol
 _atom_site_label
 _atom_site_symmetry_multiplicity
 _atom_site_fract_x
 _atom_site_fract_y
 _atom_site_fract_z
 _atom_site_occupancy
  Fe  Fe0  1  1.00460888  0.00522130  0.00562950  1
  Fe  Fe1  1  0.17148479  0.17131859  0.17131461  1
  Ni  Ni2  1  0.00544697  0.00651681  0.33768665  1
  Ni  Ni3  1  1.00474494  0.33690063  1.00493836  1
  Fe  Fe4  1  0.17178856  0.50393071  0.17221304  1
  Fe  Fe5  1  1.00408210  0.33903885  0.33829203  1
  Fe  Fe6  1  0.00506563  0.67155575  1.00481868  1
  Fe  Fe7  1  0.17200598  0.83985914  0.17192173  1
  Fe  Fe8  1  1.00478489  0.67128582  0.33879822  1
  Ni  Ni9  1  0.33770116  0.00562502  1.00464929  1
  Ni  Ni10  1  0.50584430  0.17094319  0.17191649  1
  Fe  Fe11  1  0.33925646  1.00464687  0.33739000  1
  Fe  Fe12  1  0.33901258  0.33814351  1.00430960  1
  Fe  Fe13  1  0.50598013  0.50469532  0.17179821  1
  Fe  Fe14  1  0.33889063  0.33889100  0.33888113  1
  Fe  Fe15  1  0.33816881  0.67158087  1.00499044  1
  Fe  Fe16  1  0.50546076  0.83878872  0.17170051  1
  Ni  Ni17  1  0.33964623  0.67179282  0.33825297  1
  Fe  Fe18  1  0.67168882  0.00606194  1.00503456  1
  Ni  Ni19  1  0.83737638  0.17133496  0.17157997  1
  Fe  Fe20  1  0.67184866  0.00534791  0.33815657  1
  Fe  Fe21  1  0.67171277  0.33769335  0.00519285  1
  Fe  Fe22  1  0.83734001  0.50417589  0.17153061  1
  Ni  Ni23  1  0.67247650  0.33926386  0.33847674  1
  Ni  Ni24  1  0.67148272  0.67140183  1.00494572  1
  Fe  Fe25  1  0.83764146  0.83909179  0.17192340  1
  Ni  Ni26  1  0.67082220  0.67052757  0.33886160  1
  Fe  Fe27  1  0.17058551  0.17256421  0.50512003  1
  Fe  Fe28  1  0.00510913  1.00479254  0.67102347  1
  Fe  Fe29  1  0.17191385  0.17285136  0.83867180  1
  Ni  Ni30  1  0.17162813  0.50689747  0.50513255  1
  Fe  Fe31  1  1.00489598  0.33968843  0.67199524  1
  Fe  Fe32  1  0.17191550  0.50362912  0.83764655  1
  Fe  Fe33  1  0.17082158  0.83789358  0.50473121  1
  Fe  Fe34  1  0.00558475  0.67062859  0.67148983  1
  Fe  Fe35  1  0.17213454  0.83862524  0.83845481  1
  Fe  Fe36  1  0.50529817  0.17315601  0.50503404  1
  Fe  Fe37  1  0.33918017  1.00465409  0.67259956  1
  Ni  Ni38  1  0.50543298  0.17150863  0.83844623  1
  Fe  Fe39  1  0.50545988  0.50513001  0.50546009  1
  Ni  Ni40  1  0.33767752  0.33846137  0.67208837  1
  Ni  Ni41  1  0.50463237  0.50530958  0.83828209  1
  Fe  Fe42  1  0.50554270  0.83682251  0.50503553  1
  Ni  Ni43  1  0.33975158  0.67091821  0.67270643  1
  Fe  Fe44  1  0.50614107  0.83784933  0.83837342  1
  Ni  Ni45  1  0.83772901  0.17190013  0.50476348  1
  Fe  Fe46  1  0.67081700  0.00533987  0.67191733  1
  Ni  Ni47  1  0.83758444  0.17189793  0.83876353  1
  Ni  Ni48  1  0.83942296  0.50482672  0.50454418  1
  Fe  Fe49  1  0.67111067  0.33906014  0.67162991  1
  Ni  Ni50  1  0.83839404  0.50492883  0.83835099  1
  Fe  Fe51  1  0.83874759  0.83773233  0.50481493  1
  Ni  Ni52  1  0.67124075  0.67139719  0.67129993  1
  Fe  Fe53  1  0.83683178  0.83784953  0.83836795  1
" 