4093,Ni65Fe28Cr5_1,-239.188810062201, 209.564481150184,Ni65Fe28Cr5,"# generated using pymatgen
 data_Cr4(Fe3Ni7)5
_symmetry_space_group_name_H-M   'P 1'
_cell_length_a   7.41806656
_cell_length_b   7.41806656
_cell_length_c   10.49073033
_cell_angle_alpha   90.00000000
_cell_angle_beta   90.00000000
_cell_angle_gamma   90.00000000
_symmetry_Int_Tables_number   1
_chemical_formula_structural   Cr4(Fe3Ni7)5
_chemical_formula_sum   'Cr4 Fe15 Ni35'
_cell_volume   577.28088115
_cell_formula_units_Z   1
loop_
 _symmetry_equiv_pos_site_id
 _symmetry_equiv_pos_as_xyz
  1  'x, y, z'
loop_
 _atom_site_type_symbol
 _atom_site_label
 _atom_site_symmetry_multiplicity
 _atom_site_fract_x
 _atom_site_fract_y
 _atom_site_fract_z
 _atom_site_occupancy
  Fe  Fe0  1  0.00389039  0.00401886  1.00302928  1
  Ni  Ni1  1  0.17023644  0.16965341  0.17025146  1
  Ni  Ni2  1  1.00307833  0.00540432  0.33658292  1
  Ni  Ni3  1  1.00273156  0.33699048  0.00345380  1
  Ni  Ni4  1  0.17069139  0.50407498  0.17041173  1
  Fe  Fe5  1  0.00412808  0.33614177  0.33648096  1
  Ni  Ni6  1  0.00391599  0.66777958  1.00238257  1
  Fe  Fe7  1  0.17180907  0.83676368  0.17005769  1
  Ni  Ni8  1  0.00457291  0.66799265  0.33703602  1
  Ni  Ni9  1  0.33633231  1.00247636  0.00414558  1
  Ni  Ni10  1  0.50375780  0.17009998  0.17035312  1
  Ni  Ni11  1  0.33711595  0.00511955  0.33633313  1
  Fe  Fe12  1  0.33618566  0.33787938  0.00424603  1
  Ni  Ni13  1  0.50208199  0.50240547  0.16868408  1
  Ni  Ni14  1  0.33561459  0.33626462  0.33670482  1
  Ni  Ni15  1  0.33658186  0.67039152  1.00323074  1
  Fe  Fe16  1  0.50079099  0.83801388  0.16866678  1
  Ni  Ni17  1  0.33537982  0.66852238  0.33613226  1
  Ni  Ni18  1  0.66945189  0.00366284  0.00335017  1
  Ni  Ni19  1  0.83591010  0.16996129  0.16980698  1
  Ni  Ni20  1  0.66971081  0.00564181  0.33781768  1
  Ni  Ni21  1  0.67206334  0.33724553  0.00412570  1
  Fe  Fe22  1  0.83753752  0.50035334  0.16856819  1
  Fe  Fe23  1  0.66939400  0.33475546  0.33640381  1
  Ni  Ni24  1  0.66940634  0.66899565  1.00197620  1
  Cr  Cr25  1  0.83777105  0.83756727  0.16918741  1
  Cr  Cr26  1  0.66952823  0.66942843  0.33736169  1
  Ni  Ni27  1  0.17030140  0.17041484  0.50316296  1
  Fe  Fe28  1  0.00345126  0.00401247  0.67018112  1
  Ni  Ni29  1  0.16873810  0.16889963  0.83649208  1
  Ni  Ni30  1  0.17010165  0.50305512  0.50324820  1
  Fe  Fe31  1  0.00384595  0.33670129  0.67023209  1
  Ni  Ni32  1  0.16950645  0.50437877  0.83624734  1
  Cr  Cr33  1  0.17012424  0.83634501  0.50226067  1
  Fe  Fe34  1  1.00312211  0.66919120  0.67073596  1
  Ni  Ni35  1  0.16976846  0.83662594  0.83769840  1
  Ni  Ni36  1  0.50406207  0.16987500  0.50266078  1
  Ni  Ni37  1  0.33683895  0.00412574  0.66942845  1
  Cr  Cr38  1  0.50304707  0.17013853  0.83702536  1
  Ni  Ni39  1  0.50306789  0.50240082  0.50452686  1
  Ni  Ni40  1  0.33465145  0.33727046  0.66964000  1
  Ni  Ni41  1  0.50401177  0.50540562  0.83669259  1
  Fe  Fe42  1  0.50392994  0.83755361  0.50465955  1
  Ni  Ni43  1  0.33776946  0.66851002  0.67054271  1
  Ni  Ni44  1  0.50332149  0.83518229  0.83688995  1
  Ni  Ni45  1  0.83553788  0.16937947  0.50290237  1
  Ni  Ni46  1  0.67071621  1.00200646  0.66873511  1
  Fe  Fe47  1  0.83797706  0.17034315  0.83710281  1
  Ni  Ni48  1  0.83673360  0.50309604  0.50281522  1
  Fe  Fe49  1  0.66947226  0.33775126  0.66920479  1
  Ni  Ni50  1  0.83638631  0.50437733  0.83765464  1
  Fe  Fe51  1  0.83580353  0.83747800  0.50348352  1
  Ni  Ni52  1  0.67001288  0.67039904  0.67035544  1
  Fe  Fe53  1  0.83631155  0.83575779  0.83691964  1
" 