115,Ni65Fe24Cr10_13,-237.80705243673, 203.189768831284,Ni65Fe24Cr10,"# generated using pymatgen
 data_Cr6Fe13Ni35
_symmetry_space_group_name_H-M   'P 1'
_cell_length_a   7.42797386
_cell_length_b   7.42797386
_cell_length_c   10.50474138
_cell_angle_alpha   90.00000000
_cell_angle_beta   90.00000000
_cell_angle_gamma   90.00000000
_symmetry_Int_Tables_number   1
_chemical_formula_structural   Cr6Fe13Ni35
_chemical_formula_sum   'Cr6 Fe13 Ni35'
_cell_volume   579.59695915
_cell_formula_units_Z   1
loop_
 _symmetry_equiv_pos_site_id
 _symmetry_equiv_pos_as_xyz
  1  'x, y, z'
loop_
 _atom_site_type_symbol
 _atom_site_label
 _atom_site_symmetry_multiplicity
 _atom_site_fract_x
 _atom_site_fract_y
 _atom_site_fract_z
 _atom_site_occupancy
  Ni  Ni0  1  0.00482724  1.00202913  0.00265313  1
  Ni  Ni1  1  0.16880788  0.16899682  0.16899272  1
  Ni  Ni2  1  0.00344624  1.00171786  0.33519086  1
  Ni  Ni3  1  1.00261415  0.33705448  1.00259235  1
  Ni  Ni4  1  0.16922492  0.50235411  0.16867400  1
  Fe  Fe5  1  0.00440069  0.33629463  0.33575247  1
  Ni  Ni6  1  0.00345202  0.66879431  0.00288183  1
  Ni  Ni7  1  0.16873540  0.83640002  0.16957485  1
  Ni  Ni8  1  0.00342676  0.66953871  0.33574932  1
  Ni  Ni9  1  0.33480748  1.00191447  0.00271345  1
  Fe  Fe10  1  0.49903434  0.16800975  0.16989471  1
  Ni  Ni11  1  0.33514058  1.00078946  0.33493557  1
  Fe  Fe12  1  0.33303866  0.33430910  0.00290919  1
  Ni  Ni13  1  0.50086775  0.50438436  0.16905155  1
  Fe  Fe14  1  0.33399030  0.33727729  0.33556283  1
  Fe  Fe15  1  0.33378192  0.67066279  0.00388341  1
  Ni  Ni16  1  0.50220386  0.83503701  0.17015893  1
  Ni  Ni17  1  0.33544506  0.67003798  0.33601479  1
  Cr  Cr18  1  0.66828381  0.00297489  0.00337098  1
  Fe  Fe19  1  0.84001716  0.16812447  0.16989083  1
  Ni  Ni20  1  0.66936999  1.00132370  0.33504036  1
  Cr  Cr21  1  0.67008558  0.33668953  0.00438996  1
  Ni  Ni22  1  0.83747719  0.50476256  0.16944499  1
  Cr  Cr23  1  0.66972632  0.33715201  0.33443092  1
  Fe  Fe24  1  0.67145569  0.67020224  0.00387590  1
  Ni  Ni25  1  0.83700137  0.83567852  0.16966581  1
  Ni  Ni26  1  0.66892602  0.66982358  0.33540412  1
  Fe  Fe27  1  0.16849210  0.16789659  0.50238991  1
  Ni  Ni28  1  0.00430976  0.00395653  0.67001950  1
  Fe  Fe29  1  0.16887242  0.17016374  0.83652974  1
  Ni  Ni30  1  0.17089995  0.50218585  0.50212753  1
  Ni  Ni31  1  1.00223983  0.33475262  0.66900555  1
  Ni  Ni32  1  0.16845583  0.50304459  0.83710242  1
  Ni  Ni33  1  0.16952162  0.83624022  0.50110701  1
  Cr  Cr34  1  0.00389690  0.66967014  0.66841823  1
  Ni  Ni35  1  0.16966811  0.83661705  0.83717940  1
  Cr  Cr36  1  0.50308612  0.16855508  0.50334999  1
  Ni  Ni37  1  0.33454571  1.00158147  0.67033436  1
  Ni  Ni38  1  0.50238905  0.16808252  0.83471097  1
  Ni  Ni39  1  0.50078278  0.50437088  0.50375537  1
  Ni  Ni40  1  0.33476428  0.33556661  0.66963637  1
  Cr  Cr41  1  0.50109372  0.50253789  0.83530763  1
  Ni  Ni42  1  0.50273142  0.83455020  0.50318334  1
  Ni  Ni43  1  0.33613994  0.67069271  0.66861326  1
  Fe  Fe44  1  0.50155754  0.83638040  0.83488365  1
  Ni  Ni45  1  0.83786626  0.16764695  0.50302410  1
  Fe  Fe46  1  0.67026262  1.00200858  0.66952197  1
  Ni  Ni47  1  0.83672298  0.16888098  0.83484475  1
  Fe  Fe48  1  0.83530744  0.50384265  0.50263024  1
  Ni  Ni49  1  0.67062782  0.33648804  0.66948477  1
  Ni  Ni50  1  0.83722765  0.50149105  0.83544636  1
  Ni  Ni51  1  0.83555906  0.83854303  0.50193899  1
  Ni  Ni52  1  0.66849635  0.66860163  0.66866702  1
  Fe  Fe53  1  0.83692382  0.83534768  0.83611723  1
" 