2232,Ni65Fe17Cr16_19,-234.462699941631, 186.533845767556,Ni65Fe17Cr16,"# generated using pymatgen
 data_Cr10Fe9Ni35
_symmetry_space_group_name_H-M   'P 1'
_cell_length_a   7.45243900
_cell_length_b   7.45243900
_cell_length_c   10.53934031
_cell_angle_alpha   90.00000000
_cell_angle_beta   90.00000000
_cell_angle_gamma   90.00000000
_symmetry_Int_Tables_number   1
_chemical_formula_structural   Cr10Fe9Ni35
_chemical_formula_sum   'Cr10 Fe9 Ni35'
_cell_volume   585.34280973
_cell_formula_units_Z   1
loop_
 _symmetry_equiv_pos_site_id
 _symmetry_equiv_pos_as_xyz
  1  'x, y, z'
loop_
 _atom_site_type_symbol
 _atom_site_label
 _atom_site_symmetry_multiplicity
 _atom_site_fract_x
 _atom_site_fract_y
 _atom_site_fract_z
 _atom_site_occupancy
  Ni  Ni0  1  0.00270533  0.00438069  0.00173938  1
  Ni  Ni1  1  0.16676958  0.16859523  0.16794519  1
  Ni  Ni2  1  0.00439662  0.00250658  0.33298222  1
  Ni  Ni3  1  0.00513494  0.33328873  0.99863429  1
  Ni  Ni4  1  0.16976108  0.50060985  0.16783766  1
  Ni  Ni5  1  0.00425508  0.33459455  0.33447542  1
  Ni  Ni6  1  0.00105901  0.66540039  0.00100213  1
  Ni  Ni7  1  0.16958881  0.83370952  0.16934004  1
  Ni  Ni8  1  0.00563855  0.66629999  0.33547617  1
  Fe  Fe9  1  0.33155150  0.00168921  0.00108385  1
  Cr  Cr10  1  0.49907137  0.17017986  0.17033382  1
  Ni  Ni11  1  0.33354310  1.00034622  0.33489021  1
  Ni  Ni12  1  0.33323507  0.33563554  0.99950466  1
  Ni  Ni13  1  0.49699929  0.50174932  0.16760109  1
  Ni  Ni14  1  0.33271259  0.33524122  0.33583654  1
  Fe  Fe15  1  0.33316724  0.66612624  0.00254220  1
  Ni  Ni16  1  0.49612973  0.83299378  0.16726492  1
  Ni  Ni17  1  0.33319391  0.66733591  0.33494069  1
  Cr  Cr18  1  0.66710502  0.99993897  1.00071621  1
  Ni  Ni19  1  0.83742416  0.16872966  0.17008461  1
  Ni  Ni20  1  0.66497916  0.00176285  0.33477416  1
  Fe  Fe21  1  0.66921845  0.33548502  0.99970884  1
  Cr  Cr22  1  0.83608423  0.49730372  0.16725218  1
  Ni  Ni23  1  0.66607943  0.33411702  0.33521693  1
  Ni  Ni24  1  0.66371715  0.66584806  0.99931045  1
  Cr  Cr25  1  0.83673655  0.83541431  0.16893459  1
  Cr  Cr26  1  0.66529166  0.66763397  0.33412592  1
  Ni  Ni27  1  0.16950870  0.16824640  0.49998031  1
  Ni  Ni28  1  0.00394771  0.00351090  0.66822881  1
  Ni  Ni29  1  0.16772459  0.16859145  0.83492312  1
  Ni  Ni30  1  0.16583494  0.50159524  0.49952510  1
  Ni  Ni31  1  0.00162624  0.33592204  0.66952064  1
  Ni  Ni32  1  0.16696316  0.50027328  0.83542184  1
  Fe  Fe33  1  0.16889372  0.83582900  0.50090255  1
  Ni  Ni34  1  1.00009442  0.66394117  0.66676484  1
  Cr  Cr35  1  0.16915353  0.83334605  0.83377736  1
  Ni  Ni36  1  0.49888586  0.16508635  0.49932245  1
  Ni  Ni37  1  0.33647503  0.00142462  0.66812568  1
  Ni  Ni38  1  0.50046573  0.16802948  0.83396327  1
  Fe  Fe39  1  0.50052099  0.49909129  0.49994105  1
  Cr  Cr40  1  0.33273293  0.33316911  0.66694036  1
  Ni  Ni41  1  0.50105677  0.50143286  0.83486729  1
  Ni  Ni42  1  0.49785300  0.83591478  0.50241437  1
  Fe  Fe43  1  0.33214866  0.66756314  0.66600433  1
  Ni  Ni44  1  0.49948319  0.83335744  0.83314037  1
  Cr  Cr45  1  0.83510562  0.17001442  0.49898593  1
  Fe  Fe46  1  0.66611334  0.00329170  0.66801808  1
  Ni  Ni47  1  0.83549040  0.17079022  0.83323905  1
  Ni  Ni48  1  0.83722391  0.50042491  0.50196169  1
  Fe  Fe49  1  0.66907228  0.33420509  0.66781319  1
  Ni  Ni50  1  0.83465838  0.49910975  0.83374811  1
  Cr  Cr51  1  0.83554166  0.83377077  0.50136201  1
  Fe  Fe52  1  0.66548087  0.66524728  0.66808613  1
  Cr  Cr53  1  0.83532238  0.83283147  0.83239434  1
" 