106,Ni65Fe35_6,-237.967777110896, 211.415616788335,Ni65Fe35,"# generated using pymatgen
 data_Fe35Ni19
_symmetry_space_group_name_H-M   'P 1'
_cell_length_a   7.40039533
_cell_length_b   7.40039533
_cell_length_c   10.46573945
_cell_angle_alpha   90.00000000
_cell_angle_beta   90.00000000
_cell_angle_gamma   90.00000000
_symmetry_Int_Tables_number   1
_chemical_formula_structural   Fe35Ni19
_chemical_formula_sum   'Fe35 Ni19'
_cell_volume   573.16512802
_cell_formula_units_Z   1
loop_
 _symmetry_equiv_pos_site_id
 _symmetry_equiv_pos_as_xyz
  1  'x, y, z'
loop_
 _atom_site_type_symbol
 _atom_site_label
 _atom_site_symmetry_multiplicity
 _atom_site_fract_x
 _atom_site_fract_y
 _atom_site_fract_z
 _atom_site_occupancy
  Fe  Fe0  1  0.00458187  1.00413840  1.00434606  1
  Fe  Fe1  1  0.17174994  0.17038785  0.17137526  1
  Ni  Ni2  1  1.00438549  1.00387992  0.33652698  1
  Fe  Fe3  1  1.00398087  0.33836018  1.00416257  1
  Fe  Fe4  1  0.17152359  0.50451126  0.17181203  1
  Fe  Fe5  1  0.00492222  0.33734027  0.33809855  1
  Ni  Ni6  1  1.00440141  0.67135711  1.00439625  1
  Fe  Fe7  1  0.17138992  0.83860949  0.17167617  1
  Ni  Ni8  1  0.00524473  0.67158604  0.33757864  1
  Fe  Fe9  1  0.33763903  1.00370548  0.00506648  1
  Ni  Ni10  1  0.50569620  0.17014042  0.17154694  1
  Ni  Ni11  1  0.33850475  0.00461296  0.33710454  1
  Fe  Fe12  1  0.33756159  0.33811147  1.00422822  1
  Fe  Fe13  1  0.50478079  0.50406631  0.17123586  1
  Fe  Fe14  1  0.33733864  0.33741640  0.33825599  1
  Fe  Fe15  1  0.33739048  0.67169210  0.00508264  1
  Ni  Ni16  1  0.50373476  0.83864918  0.17155286  1
  Ni  Ni17  1  0.33727901  0.67121952  0.33720949  1
  Fe  Fe18  1  0.67128991  1.00430548  0.00590398  1
  Ni  Ni19  1  0.83693923  0.17173293  0.17107704  1
  Ni  Ni20  1  0.67062024  0.00546939  0.33736622  1
  Fe  Fe21  1  0.67196760  0.33811159  1.00430407  1
  Fe  Fe22  1  0.83720474  0.50442843  0.17035795  1
  Fe  Fe23  1  0.67124954  0.33679723  0.33765766  1
  Fe  Fe24  1  0.67153511  0.67109148  1.00384665  1
  Fe  Fe25  1  0.83717777  0.83885692  0.17153460  1
  Fe  Fe26  1  0.67079246  0.67291265  0.33803492  1
  Fe  Fe27  1  0.17102504  0.17102150  0.50488277  1
  Ni  Ni28  1  0.00490723  1.00390863  0.67174234  1
  Fe  Fe29  1  0.17060884  0.17136567  0.83725126  1
  Ni  Ni30  1  0.17061302  0.50570223  0.50571417  1
  Ni  Ni31  1  0.00489447  0.33792235  0.67190060  1
  Fe  Fe32  1  0.17035870  0.50487315  0.83720743  1
  Ni  Ni33  1  0.17134988  0.83683149  0.50418122  1
  Ni  Ni34  1  1.00404801  0.67167695  0.67153673  1
  Ni  Ni35  1  0.17146024  0.83748260  0.83740485  1
  Fe  Fe36  1  0.50343009  0.17132764  0.50408418  1
  Fe  Fe37  1  0.33703113  0.00457748  0.67098607  1
  Fe  Fe38  1  0.50434791  0.17168846  0.83797300  1
  Fe  Fe39  1  0.50348446  0.50492224  0.50510363  1
  Ni  Ni40  1  0.33857754  0.33754783  0.67153159  1
  Fe  Fe41  1  0.50474674  0.50470277  0.83717203  1
  Fe  Fe42  1  0.50364183  0.83726135  0.50340168  1
  Fe  Fe43  1  0.33682806  0.67045298  0.67045275  1
  Fe  Fe44  1  0.50485894  0.83711807  0.83834919  1
  Fe  Fe45  1  0.83905531  0.17087142  0.50415109  1
  Fe  Fe46  1  0.67203348  0.00516206  0.67074735  1
  Fe  Fe47  1  0.83855371  0.17125666  0.83774789  1
  Fe  Fe48  1  0.83891982  0.50529999  0.50582807  1
  Ni  Ni49  1  0.67003643  0.33840212  0.67189817  1
  Ni  Ni50  1  0.83790992  0.50365135  0.83708431  1
  Fe  Fe51  1  0.83922427  0.83734125  0.50450160  1
  Ni  Ni52  1  0.67162410  0.67045155  0.67153367  1
  Fe  Fe53  1  0.83872668  0.83686750  0.83747149  1
" 