3090,Ni65Fe24Cr10_17,-238.020079850463, 203.281628641966,Ni65Fe24Cr10,"# generated using pymatgen
 data_Cr6Fe13Ni35
_symmetry_space_group_name_H-M   'P 1'
_cell_length_a   7.43216213
_cell_length_b   7.43216213
_cell_length_c   10.51066448
_cell_angle_alpha   90.00000000
_cell_angle_beta   90.00000000
_cell_angle_gamma   90.00000000
_symmetry_Int_Tables_number   1
_chemical_formula_structural   Cr6Fe13Ni35
_chemical_formula_sum   'Cr6 Fe13 Ni35'
_cell_volume   580.57793087
_cell_formula_units_Z   1
loop_
 _symmetry_equiv_pos_site_id
 _symmetry_equiv_pos_as_xyz
  1  'x, y, z'
loop_
 _atom_site_type_symbol
 _atom_site_label
 _atom_site_symmetry_multiplicity
 _atom_site_fract_x
 _atom_site_fract_y
 _atom_site_fract_z
 _atom_site_occupancy
  Ni  Ni0  1  1.00147509  0.00285093  0.00259318  1
  Fe  Fe1  1  0.16740954  0.17087876  0.16867237  1
  Fe  Fe2  1  1.00049072  0.00331011  0.33357835  1
  Ni  Ni3  1  0.00238134  0.33525940  1.00186782  1
  Ni  Ni4  1  0.16757936  0.50187216  0.16890454  1
  Ni  Ni5  1  1.00022785  0.33645683  0.33573499  1
  Ni  Ni6  1  0.00294380  0.66893300  1.00200729  1
  Fe  Fe7  1  0.16813077  0.83480732  0.16792195  1
  Ni  Ni8  1  1.00082167  0.66598422  0.33454516  1
  Fe  Fe9  1  0.33462013  1.00126085  1.00102174  1
  Cr  Cr10  1  0.50212260  0.17002348  0.16878881  1
  Ni  Ni11  1  0.33702582  1.00154231  0.33437746  1
  Ni  Ni12  1  0.33492222  0.33765801  1.00182611  1
  Ni  Ni13  1  0.50346820  0.50259303  0.16848404  1
  Fe  Fe14  1  0.33567568  0.33715048  0.33451007  1
  Ni  Ni15  1  0.33617490  0.66834767  1.00199064  1
  Fe  Fe16  1  0.50362386  0.83350896  0.16854139  1
  Cr  Cr17  1  0.33718695  0.66862095  0.33628228  1
  Ni  Ni18  1  0.67031781  1.00159807  1.00095166  1
  Fe  Fe19  1  0.83690317  0.17081532  0.16892776  1
  Ni  Ni20  1  0.66884380  1.00213876  0.33618223  1
  Ni  Ni21  1  0.66973648  0.33618900  1.00110344  1
  Ni  Ni22  1  0.83599373  0.50332388  0.16933506  1
  Ni  Ni23  1  0.67221369  0.33648708  0.33661419  1
  Ni  Ni24  1  0.66792125  0.66925222  0.00282264  1
  Fe  Fe25  1  0.83528721  0.83397637  0.16851374  1
  Ni  Ni26  1  0.66916369  0.66841379  0.33540772  1
  Cr  Cr27  1  0.16775184  0.16964233  0.50132032  1
  Ni  Ni28  1  1.00131626  0.00376039  0.67071814  1
  Ni  Ni29  1  0.16878497  0.16824641  0.83644230  1
  Fe  Fe30  1  0.16761000  0.50155795  0.50361549  1
  Ni  Ni31  1  1.00127619  0.33613244  0.66943360  1
  Ni  Ni32  1  0.16925459  0.50205686  0.83525266  1
  Cr  Cr33  1  0.16949321  0.83567069  0.50393958  1
  Ni  Ni34  1  0.00309204  0.66714681  0.67049060  1
  Ni  Ni35  1  0.16895152  0.83673761  0.83588218  1
  Cr  Cr36  1  0.50297806  0.16912282  0.50257138  1
  Ni  Ni37  1  0.33692154  1.00063840  0.67185036  1
  Fe  Fe38  1  0.50205419  0.16923587  0.83600713  1
  Ni  Ni39  1  0.50401261  0.50306220  0.50179101  1
  Ni  Ni40  1  0.33538692  0.33768604  0.66950510  1
  Ni  Ni41  1  0.50214016  0.50247450  0.83676714  1
  Ni  Ni42  1  0.50275508  0.83469367  0.50189403  1
  Ni  Ni43  1  0.33669936  0.66871846  0.66900069  1
  Ni  Ni44  1  0.50187841  0.83575730  0.83583776  1
  Ni  Ni45  1  0.83588193  0.17124933  0.50097661  1
  Fe  Fe46  1  0.66929550  1.00207477  0.67069248  1
  Ni  Ni47  1  0.83662673  0.16850940  0.83588087  1
  Ni  Ni48  1  0.83496414  0.50077725  0.50143694  1
  Fe  Fe49  1  0.67037949  0.33699416  0.66950606  1
  Ni  Ni50  1  0.83564595  0.50230434  0.83627217  1
  Cr  Cr51  1  0.83499489  0.83503069  0.50231226  1
  Fe  Fe52  1  0.66771699  0.66797326  0.66982222  1
  Ni  Ni53  1  0.83621013  0.83622710  0.83600832  1
" 