7117,Ni65Fe28Cr5_12,-238.998912951048, 204.919074408194,Ni65Fe28Cr5,"# generated using pymatgen
 data_Cr4(Fe3Ni7)5
_symmetry_space_group_name_H-M   'P 1'
_cell_length_a   7.42264974
_cell_length_b   7.42264974
_cell_length_c   10.49721193
_cell_angle_alpha   90.00000000
_cell_angle_beta   90.00000000
_cell_angle_gamma   90.00000000
_symmetry_Int_Tables_number   1
_chemical_formula_structural   Cr4(Fe3Ni7)5
_chemical_formula_sum   'Cr4 Fe15 Ni35'
_cell_volume   578.35154572
_cell_formula_units_Z   1
loop_
 _symmetry_equiv_pos_site_id
 _symmetry_equiv_pos_as_xyz
  1  'x, y, z'
loop_
 _atom_site_type_symbol
 _atom_site_label
 _atom_site_symmetry_multiplicity
 _atom_site_fract_x
 _atom_site_fract_y
 _atom_site_fract_z
 _atom_site_occupancy
  Fe  Fe0  1  0.00299131  0.00403174  0.00333702  1
  Fe  Fe1  1  0.17094603  0.16925802  0.16994848  1
  Ni  Ni2  1  0.00303219  1.00183076  0.33681104  1
  Ni  Ni3  1  0.00499513  0.33766664  1.00141305  1
  Fe  Fe4  1  0.16847616  0.50236224  0.16938744  1
  Ni  Ni5  1  0.00395177  0.33745631  0.33729979  1
  Fe  Fe6  1  1.00191749  0.66842468  0.00417711  1
  Ni  Ni7  1  0.16963460  0.83697840  0.16975447  1
  Ni  Ni8  1  1.00094082  0.66967679  0.33549833  1
  Fe  Fe9  1  0.33720522  0.00498798  0.00392591  1
  Ni  Ni10  1  0.50120960  0.16959965  0.17019311  1
  Ni  Ni11  1  0.33674071  0.00480666  0.33556083  1
  Ni  Ni12  1  0.33494822  0.33638442  0.00299752  1
  Fe  Fe13  1  0.50433301  0.50260923  0.16928338  1
  Ni  Ni14  1  0.33578850  0.33436866  0.33593441  1
  Fe  Fe15  1  0.33718439  0.66868626  0.00362149  1
  Ni  Ni16  1  0.50233609  0.83751082  0.16826853  1
  Cr  Cr17  1  0.33572885  0.66952751  0.33707126  1
  Ni  Ni18  1  0.66904693  1.00128706  1.00192417  1
  Cr  Cr19  1  0.83559517  0.17102179  0.17058915  1
  Ni  Ni20  1  0.66919635  1.00173984  0.33702695  1
  Fe  Fe21  1  0.66900138  0.33642734  1.00174061  1
  Ni  Ni22  1  0.83631491  0.50421236  0.17035873  1
  Ni  Ni23  1  0.66919515  0.33656677  0.33639802  1
  Fe  Fe24  1  0.66991442  0.66879684  0.00325963  1
  Ni  Ni25  1  0.83701574  0.83409095  0.16961723  1
  Ni  Ni26  1  0.67216570  0.67070177  0.33607929  1
  Ni  Ni27  1  0.16948506  0.16877981  0.50253954  1
  Fe  Fe28  1  0.00412417  0.00377898  0.66811780  1
  Ni  Ni29  1  0.16974915  0.16972865  0.83681133  1
  Ni  Ni30  1  0.16927482  0.50253843  0.50455107  1
  Fe  Fe31  1  1.00291647  0.33668775  0.66969309  1
  Fe  Fe32  1  0.16989109  0.49988683  0.83580945  1
  Ni  Ni33  1  0.16960898  0.83763193  0.50347453  1
  Ni  Ni34  1  1.00240125  0.66848251  0.66907492  1
  Cr  Cr35  1  0.17067404  0.83701756  0.83491935  1
  Fe  Fe36  1  0.50202317  0.17070729  0.50196167  1
  Ni  Ni37  1  0.33592867  0.00407634  0.66946537  1
  Ni  Ni38  1  0.50229415  0.17154708  0.83689617  1
  Ni  Ni39  1  0.50432134  0.50271486  0.50355286  1
  Ni  Ni40  1  0.33577178  0.33640703  0.67014311  1
  Ni  Ni41  1  0.50417700  0.50247468  0.83652271  1
  Ni  Ni42  1  0.50193704  0.83537345  0.50345339  1
  Ni  Ni43  1  0.33619323  0.66845295  0.66961382  1
  Fe  Fe44  1  0.50424083  0.83612599  0.83664858  1
  Ni  Ni45  1  0.83761302  0.17116230  0.50205893  1
  Cr  Cr46  1  0.66964770  0.00324835  0.66905258  1
  Ni  Ni47  1  0.83694605  0.17178395  0.83735477  1
  Ni  Ni48  1  0.83535887  0.50258681  0.50259627  1
  Ni  Ni49  1  0.66946728  0.33754423  0.67086838  1
  Ni  Ni50  1  0.83479321  0.50196373  0.83598556  1
  Ni  Ni51  1  0.83743863  0.83526046  0.50162771  1
  Ni  Ni52  1  0.67039875  0.66861173  0.67021557  1
  Fe  Fe53  1  0.83501631  0.83591276  0.83701243  1
" 