6164,Ni65Fe35_10,-237.278198945295, 208.161344732669,Ni65Fe35,"# generated using pymatgen
 data_Fe35Ni19
_symmetry_space_group_name_H-M   'P 1'
_cell_length_a   7.39702905
_cell_length_b   7.39702905
_cell_length_c   10.46097880
_cell_angle_alpha   90.00000000
_cell_angle_beta   90.00000000
_cell_angle_gamma   90.00000000
_symmetry_Int_Tables_number   1
_chemical_formula_structural   Fe35Ni19
_chemical_formula_sum   'Fe35 Ni19'
_cell_volume   572.38332075
_cell_formula_units_Z   1
loop_
 _symmetry_equiv_pos_site_id
 _symmetry_equiv_pos_as_xyz
  1  'x, y, z'
loop_
 _atom_site_type_symbol
 _atom_site_label
 _atom_site_symmetry_multiplicity
 _atom_site_fract_x
 _atom_site_fract_y
 _atom_site_fract_z
 _atom_site_occupancy
  Ni  Ni0  1  0.00477050  0.00479597  1.00417864  1
  Ni  Ni1  1  0.17300715  0.17223455  0.17187512  1
  Ni  Ni2  1  1.00467931  0.00491040  0.33862915  1
  Fe  Fe3  1  1.00388607  0.33863847  0.00516195  1
  Ni  Ni4  1  0.17028209  0.50331029  0.17175878  1
  Fe  Fe5  1  0.00630790  0.33814854  0.33772204  1
  Fe  Fe6  1  1.00293173  0.67097195  1.00421448  1
  Fe  Fe7  1  0.17088933  0.83808108  0.17190804  1
  Fe  Fe8  1  0.00565028  0.67124650  0.33838270  1
  Fe  Fe9  1  0.33899970  0.00518370  0.00520734  1
  Fe  Fe10  1  0.50460334  0.17185373  0.17161693  1
  Ni  Ni11  1  0.33692778  0.00489291  0.33804014  1
  Fe  Fe12  1  0.33819739  0.33761563  0.00528021  1
  Fe  Fe13  1  0.50465810  0.50533495  0.17131554  1
  Ni  Ni14  1  0.33893291  0.33847769  0.33815516  1
  Fe  Fe15  1  0.33856087  0.67140191  0.00508960  1
  Ni  Ni16  1  0.50539923  0.83941299  0.17138717  1
  Ni  Ni17  1  0.33854697  0.67082831  0.33783514  1
  Fe  Fe18  1  0.67168299  1.00421427  1.00448338  1
  Fe  Fe19  1  0.83896470  0.17109824  0.17118598  1
  Fe  Fe20  1  0.66994747  1.00444334  0.33817709  1
  Ni  Ni21  1  0.67129328  0.33909933  0.00476015  1
  Ni  Ni22  1  0.83934924  0.50611292  0.17131120  1
  Fe  Fe23  1  0.67071180  0.33771403  0.33818902  1
  Ni  Ni24  1  0.67127433  0.66991279  1.00389762  1
  Ni  Ni25  1  0.83691766  0.83668173  0.17187171  1
  Fe  Fe26  1  0.67099060  0.67204544  0.33706557  1
  Fe  Fe27  1  0.17137106  0.17160540  0.50351589  1
  Fe  Fe28  1  0.00509262  1.00344314  0.67169391  1
  Fe  Fe29  1  0.17053182  0.17103066  0.83885784  1
  Fe  Fe30  1  0.17206487  0.50475458  0.50448318  1
  Fe  Fe31  1  0.00488032  0.33974667  0.67131933  1
  Fe  Fe32  1  0.17122527  0.50523878  0.83781658  1
  Fe  Fe33  1  0.17161758  0.83784341  0.50484429  1
  Ni  Ni34  1  0.00493224  0.67178535  0.67175718  1
  Fe  Fe35  1  0.17076537  0.83793368  0.83745151  1
  Ni  Ni36  1  0.50293193  0.17043514  0.50403536  1
  Fe  Fe37  1  0.33815861  1.00431542  0.67098352  1
  Ni  Ni38  1  0.50321688  0.17074530  0.83839508  1
  Fe  Fe39  1  0.50454006  0.50443384  0.50460275  1
  Fe  Fe40  1  0.33791882  0.33838671  0.67098624  1
  Fe  Fe41  1  0.50578833  0.50491611  0.83827638  1
  Fe  Fe42  1  0.50450139  0.83768756  0.50402054  1
  Ni  Ni43  1  0.33791185  0.67102465  0.67160858  1
  Fe  Fe44  1  0.50549101  0.83748673  0.83848287  1
  Fe  Fe45  1  0.83775245  0.17162965  0.50460556  1
  Fe  Fe46  1  0.67092928  1.00396225  0.67153387  1
  Fe  Fe47  1  0.83761590  0.17132312  0.83841018  1
  Ni  Ni48  1  0.83912555  0.50589235  0.50480644  1
  Fe  Fe49  1  0.67139208  0.33896864  0.67181390  1
  Ni  Ni50  1  0.83893701  0.50649916  0.83807721  1
  Fe  Fe51  1  0.83807706  0.83837824  0.50489695  1
  Fe  Fe52  1  0.67228384  0.67126187  0.67210059  1
  Ni  Ni53  1  0.83815982  0.83618567  0.83750018  1
" 