7207,Ni65Fe35_7,-237.529240219069, 206.802092943952,Ni65Fe35,"# generated using pymatgen
 data_Fe35Ni19
_symmetry_space_group_name_H-M   'P 1'
_cell_length_a   7.39685041
_cell_length_b   7.39685041
_cell_length_c   10.46072617
_cell_angle_alpha   90.00000000
_cell_angle_beta   90.00000000
_cell_angle_gamma   90.00000000
_symmetry_Int_Tables_number   1
_chemical_formula_structural   Fe35Ni19
_chemical_formula_sum   'Fe35 Ni19'
_cell_volume   572.34185292
_cell_formula_units_Z   1
loop_
 _symmetry_equiv_pos_site_id
 _symmetry_equiv_pos_as_xyz
  1  'x, y, z'
loop_
 _atom_site_type_symbol
 _atom_site_label
 _atom_site_symmetry_multiplicity
 _atom_site_fract_x
 _atom_site_fract_y
 _atom_site_fract_z
 _atom_site_occupancy
  Fe  Fe0  1  0.00494895  1.00454139  1.00416393  1
  Fe  Fe1  1  0.17222880  0.17020431  0.17118924  1
  Fe  Fe2  1  1.00461961  0.00495189  0.33842583  1
  Fe  Fe3  1  0.00487085  0.33700258  0.00501793  1
  Fe  Fe4  1  0.17180626  0.50521739  0.17173887  1
  Ni  Ni5  1  0.00572490  0.33888188  0.33898656  1
  Fe  Fe6  1  1.00474260  0.67268673  1.00459969  1
  Ni  Ni7  1  0.17141439  0.83773333  0.17080837  1
  Fe  Fe8  1  1.00468800  0.67152976  0.33827295  1
  Ni  Ni9  1  0.33878562  0.00483898  1.00456043  1
  Ni  Ni10  1  0.50448858  0.17116127  0.17096496  1
  Ni  Ni11  1  0.33898027  0.00555058  0.33791355  1
  Fe  Fe12  1  0.33855070  0.33686362  1.00451201  1
  Fe  Fe13  1  0.50466938  0.50584659  0.17158846  1
  Ni  Ni14  1  0.33700354  0.33735294  0.33735749  1
  Fe  Fe15  1  0.33855318  0.67270350  0.00499744  1
  Ni  Ni16  1  0.50447512  0.83890776  0.17141940  1
  Fe  Fe17  1  0.33841261  0.67182445  0.33759214  1
  Ni  Ni18  1  0.67060990  1.00411362  1.00455915  1
  Fe  Fe19  1  0.83753881  0.16984593  0.17186098  1
  Ni  Ni20  1  0.67069856  1.00321221  0.33801009  1
  Fe  Fe21  1  0.67081356  0.33706735  1.00416374  1
  Fe  Fe22  1  0.83776047  0.50577547  0.17214008  1
  Fe  Fe23  1  0.67101010  0.33726808  0.33911538  1
  Fe  Fe24  1  0.67093936  0.67262419  0.00555074  1
  Ni  Ni25  1  0.83834813  0.83737527  0.17177787  1
  Ni  Ni26  1  0.67222784  0.67249931  0.33781779  1
  Fe  Fe27  1  0.17114786  0.17216474  0.50509753  1
  Ni  Ni28  1  1.00464868  1.00349803  0.67165444  1
  Ni  Ni29  1  0.17176314  0.17148617  0.83762343  1
  Fe  Fe30  1  0.17101005  0.50339237  0.50475168  1
  Fe  Fe31  1  1.00446467  0.33795018  0.67089145  1
  Fe  Fe32  1  0.17148633  0.50433605  0.83774684  1
  Fe  Fe33  1  0.17065832  0.83868019  0.50478644  1
  Ni  Ni34  1  1.00429453  0.67204750  0.67140347  1
  Fe  Fe35  1  0.17113082  0.83861495  0.83819146  1
  Ni  Ni36  1  0.50489755  0.17148494  0.50554324  1
  Fe  Fe37  1  0.33751431  0.00540710  0.67156632  1
  Fe  Fe38  1  0.50426024  0.17156484  0.83815337  1
  Fe  Fe39  1  0.50562475  0.50345234  0.50505218  1
  Ni  Ni40  1  0.33880868  0.33797431  0.67185334  1
  Fe  Fe41  1  0.50419587  0.50386503  0.83759229  1
  Fe  Fe42  1  0.50597096  0.83861323  0.50365996  1
  Fe  Fe43  1  0.33758988  0.67100481  0.67164320  1
  Fe  Fe44  1  0.50427326  0.83880491  0.83911299  1
  Ni  Ni45  1  0.83736705  0.17265673  0.50508635  1
  Fe  Fe46  1  0.67189684  0.00556198  0.67108397  1
  Fe  Fe47  1  0.83835900  0.17120690  0.83747362  1
  Ni  Ni48  1  0.83853885  0.50440594  0.50519189  1
  Ni  Ni49  1  0.67040746  0.33833187  0.67095261  1
  Fe  Fe50  1  0.83855197  0.50434914  0.83727180  1
  Fe  Fe51  1  0.83760704  0.83847610  0.50450731  1
  Fe  Fe52  1  0.67202523  0.67064650  0.67089038  1
  Fe  Fe53  1  0.83883053  0.83867674  0.83834737  1
" 