7867,Ni65Fe11Cr23_1,-231.378572533707, 174.774953463339,Ni65Fe11Cr23,"# generated using pymatgen
 data_Cr13Fe6Ni35
_symmetry_space_group_name_H-M   'P 1'
_cell_length_a   7.45917070
_cell_length_b   7.45917070
_cell_length_c   10.54886037
_cell_angle_alpha   90.00000000
_cell_angle_beta   90.00000000
_cell_angle_gamma   90.00000000
_symmetry_Int_Tables_number   1
_chemical_formula_structural   Cr13Fe6Ni35
_chemical_formula_sum   'Cr13 Fe6 Ni35'
_cell_volume   586.93044174
_cell_formula_units_Z   1
loop_
 _symmetry_equiv_pos_site_id
 _symmetry_equiv_pos_as_xyz
  1  'x, y, z'
loop_
 _atom_site_type_symbol
 _atom_site_label
 _atom_site_symmetry_multiplicity
 _atom_site_fract_x
 _atom_site_fract_y
 _atom_site_fract_z
 _atom_site_occupancy
  Ni  Ni0  1  0.00118901  0.00106092  0.00058029  1
  Ni  Ni1  1  0.16550015  0.16724120  0.16600342  1
  Ni  Ni2  1  0.00232233  0.00237084  0.33370624  1
  Ni  Ni3  1  0.99930459  0.33206319  0.99929509  1
  Cr  Cr4  1  0.16637897  0.49947441  0.16729256  1
  Ni  Ni5  1  0.00060558  0.33323695  0.33478322  1
  Fe  Fe6  1  1.00012832  0.66603539  0.99888831  1
  Ni  Ni7  1  0.16636235  0.83488572  0.16748451  1
  Ni  Ni8  1  0.00292907  0.66577758  0.33406186  1
  Fe  Fe9  1  0.33302744  0.00130882  1.00017662  1
  Ni  Ni10  1  0.49909523  0.16954287  0.16524016  1
  Cr  Cr11  1  0.33163104  0.00278833  0.33320577  1
  Ni  Ni12  1  0.33318035  0.33490295  0.00236275  1
  Ni  Ni13  1  0.49985035  0.49964341  0.16661160  1
  Ni  Ni14  1  0.33244641  0.33477958  0.33333173  1
  Ni  Ni15  1  0.33285504  0.66792950  0.99953672  1
  Cr  Cr16  1  0.49979240  0.83183009  0.16502703  1
  Ni  Ni17  1  0.33086635  0.66579286  0.33416906  1
  Ni  Ni18  1  0.66920031  0.00158597  0.99948015  1
  Ni  Ni19  1  0.83685652  0.16807739  0.16600875  1
  Cr  Cr20  1  0.66809304  0.00512214  0.33340191  1
  Ni  Ni21  1  0.66890281  0.33379343  0.00287770  1
  Ni  Ni22  1  0.83404334  0.49915941  0.16681870  1
  Cr  Cr23  1  0.66730994  0.33354816  0.33162563  1
  Ni  Ni24  1  0.66679078  0.66599211  1.00008272  1
  Cr  Cr25  1  0.83714631  0.83366501  0.16723134  1
  Fe  Fe26  1  0.66808026  0.66414459  0.33297496  1
  Ni  Ni27  1  0.16647349  0.17014046  0.50080588  1
  Cr  Cr28  1  0.00112730  0.00197136  0.66766795  1
  Fe  Fe29  1  0.16617908  0.16876095  0.83451395  1
  Ni  Ni30  1  0.16669653  0.49749500  0.50009890  1
  Ni  Ni31  1  1.00025038  0.33413712  0.66723355  1
  Ni  Ni32  1  0.16705321  0.49877724  0.83387811  1
  Fe  Fe33  1  0.16650366  0.83236706  0.49995280  1
  Cr  Cr34  1  0.00172168  0.66439880  0.66970810  1
  Ni  Ni35  1  0.16912209  0.83377847  0.83535351  1
  Fe  Fe36  1  0.49985900  0.16935175  0.50291056  1
  Ni  Ni37  1  0.33352568  0.99990788  0.66755273  1
  Cr  Cr38  1  0.50084612  0.16674270  0.83254717  1
  Cr  Cr39  1  0.49854060  0.50104114  0.50179504  1
  Ni  Ni40  1  0.33087208  0.33362032  0.66584998  1
  Cr  Cr41  1  0.49952906  0.50052872  0.83336142  1
  Cr  Cr42  1  0.50017645  0.83371975  0.50327302  1
  Ni  Ni43  1  0.33233540  0.66805211  0.66796968  1
  Ni  Ni44  1  0.50051687  0.83417902  0.83327580  1
  Ni  Ni45  1  0.83696631  0.16891720  0.50145444  1
  Ni  Ni46  1  0.66696723  0.00156049  0.66816816  1
  Ni  Ni47  1  0.83455473  0.16780797  0.83419864  1
  Ni  Ni48  1  0.83648174  0.49829081  0.50073922  1
  Ni  Ni49  1  0.67040139  0.33313162  0.66637202  1
  Ni  Ni50  1  0.83480384  0.49854818  0.83426792  1
  Cr  Cr51  1  0.83345345  0.83356954  0.49891284  1
  Ni  Ni52  1  0.66767676  0.66694161  0.66894930  1
  Ni  Ni53  1  0.83198967  0.83502203  0.83544263  1
" 