3055,Ni65Fe11Cr23_11,-231.71288440647, 175.834064360834,Ni65Fe11Cr23,"# generated using pymatgen
 data_Cr13Fe6Ni35
_symmetry_space_group_name_H-M   'P 1'
_cell_length_a   7.46466214
_cell_length_b   7.46466214
_cell_length_c   10.55662644
_cell_angle_alpha   90.00000000
_cell_angle_beta   90.00000000
_cell_angle_gamma   90.00000000
_symmetry_Int_Tables_number   1
_chemical_formula_structural   Cr13Fe6Ni35
_chemical_formula_sum   'Cr13 Fe6 Ni35'
_cell_volume   588.22769160
_cell_formula_units_Z   1
loop_
 _symmetry_equiv_pos_site_id
 _symmetry_equiv_pos_as_xyz
  1  'x, y, z'
loop_
 _atom_site_type_symbol
 _atom_site_label
 _atom_site_symmetry_multiplicity
 _atom_site_fract_x
 _atom_site_fract_y
 _atom_site_fract_z
 _atom_site_occupancy
  Cr  Cr0  1  0.00194596  0.00132536  0.99934796  1
  Cr  Cr1  1  0.16604101  0.16733481  0.16534153  1
  Ni  Ni2  1  0.99877376  0.99735740  0.33393764  1
  Fe  Fe3  1  0.99944462  0.33403456  0.99860712  1
  Ni  Ni4  1  0.16863597  0.50109228  0.16799080  1
  Cr  Cr5  1  0.99976364  0.33459508  0.33357438  1
  Cr  Cr6  1  0.00023973  0.66561476  0.99922174  1
  Ni  Ni7  1  0.16785060  0.83143242  0.16855203  1
  Ni  Ni8  1  0.00109277  0.66818891  0.33520198  1
  Ni  Ni9  1  0.33233882  0.99947181  0.99856596  1
  Cr  Cr10  1  0.50177276  0.16873508  0.16722639  1
  Cr  Cr11  1  0.33331943  0.99814794  0.33493813  1
  Ni  Ni12  1  0.33366979  0.33432585  0.99891255  1
  Ni  Ni13  1  0.50039960  0.50082425  0.16734725  1
  Ni  Ni14  1  0.33485650  0.33624789  0.33506033  1
  Cr  Cr15  1  0.33491723  0.66755880  0.00106054  1
  Ni  Ni16  1  0.49985792  0.83037346  0.16722473  1
  Ni  Ni17  1  0.33262935  0.66631600  0.33175410  1
  Cr  Cr18  1  0.66636429  0.99984112  0.99915188  1
  Ni  Ni19  1  0.83250407  0.16849947  0.16743883  1
  Ni  Ni20  1  0.66807187  0.99958522  0.33477073  1
  Ni  Ni21  1  0.66801685  0.33636893  0.00057016  1
  Fe  Fe22  1  0.83137355  0.49932513  0.16706306  1
  Ni  Ni23  1  0.66620046  0.33393079  0.33216293  1
  Ni  Ni24  1  0.66549042  0.66370736  0.99847832  1
  Cr  Cr25  1  0.83302097  0.83358432  0.16996289  1
  Ni  Ni26  1  0.66675812  0.66696356  0.33347480  1
  Ni  Ni27  1  0.16856125  0.16721462  0.50176085  1
  Ni  Ni28  1  0.00071468  0.99956859  0.66779354  1
  Ni  Ni29  1  0.16568211  0.16788972  0.83327494  1
  Ni  Ni30  1  0.16643667  0.50045074  0.50055600  1
  Ni  Ni31  1  0.00235013  0.33314610  0.66877537  1
  Ni  Ni32  1  0.16685055  0.49808884  0.83193767  1
  Ni  Ni33  1  0.16542722  0.83281393  0.49979000  1
  Fe  Fe34  1  0.00106782  0.66607521  0.66649320  1
  Ni  Ni35  1  0.16714070  0.83450178  0.83213905  1
  Ni  Ni36  1  0.49842241  0.16567716  0.49917341  1
  Fe  Fe37  1  0.33176396  0.99991310  0.66631783  1
  Cr  Cr38  1  0.49806855  0.16730069  0.83405645  1
  Cr  Cr39  1  0.49876932  0.49993323  0.49865774  1
  Ni  Ni40  1  0.33026003  0.33429688  0.66650470  1
  Ni  Ni41  1  0.50033123  0.50175955  0.83453655  1
  Ni  Ni42  1  0.50138586  0.83452493  0.50037227  1
  Ni  Ni43  1  0.33272230  0.66766499  0.66802971  1
  Ni  Ni44  1  0.50075318  0.83153920  0.83288035  1
  Cr  Cr45  1  0.83341630  0.16493296  0.49892878  1
  Fe  Fe46  1  0.66687451  0.99768650  0.66644520  1
  Ni  Ni47  1  0.83625770  0.16747002  0.83374611  1
  Ni  Ni48  1  0.83520630  0.50341200  0.49917657  1
  Cr  Cr49  1  0.66767083  0.33410454  0.66710760  1
  Ni  Ni50  1  0.83329806  0.50030306  0.83467302  1
  Ni  Ni51  1  0.83366673  0.83240099  0.49968161  1
  Fe  Fe52  1  0.66759422  0.66847154  0.66788213  1
  Ni  Ni53  1  0.83258561  0.83270489  0.83099893  1
" 