3208,Ni65Fe35_16,-237.547280811564, 214.002458981059,Ni65Fe35,"# generated using pymatgen
 data_Fe35Ni19
_symmetry_space_group_name_H-M   'P 1'
_cell_length_a   7.39549469
_cell_length_b   7.39549469
_cell_length_c   10.45880889
_cell_angle_alpha   90.00000000
_cell_angle_beta   90.00000000
_cell_angle_gamma   90.00000000
_symmetry_Int_Tables_number   1
_chemical_formula_structural   Fe35Ni19
_chemical_formula_sum   'Fe35 Ni19'
_cell_volume   572.02720778
_cell_formula_units_Z   1
loop_
 _symmetry_equiv_pos_site_id
 _symmetry_equiv_pos_as_xyz
  1  'x, y, z'
loop_
 _atom_site_type_symbol
 _atom_site_label
 _atom_site_symmetry_multiplicity
 _atom_site_fract_x
 _atom_site_fract_y
 _atom_site_fract_z
 _atom_site_occupancy
  Ni  Ni0  1  0.00513231  0.00557683  0.00512174  1
  Fe  Fe1  1  0.17222055  0.17162714  0.17112415  1
  Fe  Fe2  1  1.00411882  0.00512299  0.33787991  1
  Ni  Ni3  1  1.00434820  0.33798472  0.00522420  1
  Fe  Fe4  1  0.17237513  0.50470666  0.17112430  1
  Fe  Fe5  1  1.00427387  0.33781632  0.33796350  1
  Fe  Fe6  1  1.00462163  0.67120562  1.00420215  1
  Fe  Fe7  1  0.17260214  0.83817750  0.17158839  1
  Fe  Fe8  1  1.00390278  0.67157328  0.33926720  1
  Fe  Fe9  1  0.33780774  0.00528478  0.00513496  1
  Ni  Ni10  1  0.50416755  0.17054257  0.17120099  1
  Ni  Ni11  1  0.33880399  1.00443126  0.33730931  1
  Fe  Fe12  1  0.33720521  0.33788420  0.00497012  1
  Ni  Ni13  1  0.50503099  0.50417066  0.17171120  1
  Fe  Fe14  1  0.33932319  0.33728228  0.33795343  1
  Fe  Fe15  1  0.33752292  0.67134387  1.00441831  1
  Ni  Ni16  1  0.50494733  0.83979969  0.17191168  1
  Fe  Fe17  1  0.33930855  0.67171879  0.33820716  1
  Fe  Fe18  1  0.67216758  0.00490691  0.00517569  1
  Fe  Fe19  1  0.83673173  0.17210238  0.17133869  1
  Ni  Ni20  1  0.67046568  0.00569312  0.33777967  1
  Fe  Fe21  1  0.67230154  0.33780299  0.00615459  1
  Ni  Ni22  1  0.83888173  0.50456495  0.17128652  1
  Ni  Ni23  1  0.67209938  0.33830637  0.33751327  1
  Fe  Fe24  1  0.67236967  0.67180598  1.00455582  1
  Fe  Fe25  1  0.83681702  0.83816769  0.17142221  1
  Fe  Fe26  1  0.67130465  0.67187155  0.33828798  1
  Fe  Fe27  1  0.17085178  0.17141226  0.50483838  1
  Fe  Fe28  1  1.00475149  1.00296648  0.67208993  1
  Fe  Fe29  1  0.17120459  0.17063211  0.83855224  1
  Ni  Ni30  1  0.17088324  0.50398554  0.50434233  1
  Fe  Fe31  1  0.00580439  0.33982991  0.67179419  1
  Ni  Ni32  1  0.17102238  0.50377763  0.83828524  1
  Fe  Fe33  1  0.17091862  0.83731669  0.50510443  1
  Ni  Ni34  1  1.00454321  0.67074688  0.67256558  1
  Fe  Fe35  1  0.17158852  0.83789677  0.83782334  1
  Fe  Fe36  1  0.50533631  0.17165471  0.50382173  1
  Ni  Ni37  1  0.33805267  1.00419441  0.67209939  1
  Fe  Fe38  1  0.50462400  0.17086298  0.83829152  1
  Fe  Fe39  1  0.50564195  0.50538996  0.50463230  1
  Fe  Fe40  1  0.33765759  0.33960719  0.67158690  1
  Fe  Fe41  1  0.50490772  0.50621042  0.83824257  1
  Fe  Fe42  1  0.50488281  0.83746950  0.50513578  1
  Ni  Ni43  1  0.33806079  0.67236952  0.67139682  1
  Ni  Ni44  1  0.50580681  0.83939645  0.83776559  1
  Fe  Fe45  1  0.83832313  0.17217577  0.50432468  1
  Fe  Fe46  1  0.67120477  1.00267173  0.67138018  1
  Fe  Fe47  1  0.83868295  0.17107849  0.83884891  1
  Ni  Ni48  1  0.83957533  0.50562182  0.50581258  1
  Fe  Fe49  1  0.67105166  0.33923190  0.67070276  1
  Fe  Fe50  1  0.83823067  0.50581988  0.83803988  1
  Ni  Ni51  1  0.83755303  0.83808087  0.50462485  1
  Ni  Ni52  1  0.67190953  0.67072873  0.67101861  1
  Ni  Ni53  1  0.83730871  0.83863085  0.83828268  1
" 