6489,Ni65Fe24Cr10_16,-237.940770809987, 203.422853800874,Ni65Fe24Cr10,"# generated using pymatgen
 data_Cr6Fe13Ni35
_symmetry_space_group_name_H-M   'P 1'
_cell_length_a   7.43015160
_cell_length_b   7.43015160
_cell_length_c   10.50782117
_cell_angle_alpha   90.00000000
_cell_angle_beta   90.00000000
_cell_angle_gamma   90.00000000
_symmetry_Int_Tables_number   1
_chemical_formula_structural   Cr6Fe13Ni35
_chemical_formula_sum   'Cr6 Fe13 Ni35'
_cell_volume   580.10688937
_cell_formula_units_Z   1
loop_
 _symmetry_equiv_pos_site_id
 _symmetry_equiv_pos_as_xyz
  1  'x, y, z'
loop_
 _atom_site_type_symbol
 _atom_site_label
 _atom_site_symmetry_multiplicity
 _atom_site_fract_x
 _atom_site_fract_y
 _atom_site_fract_z
 _atom_site_occupancy
  Fe  Fe0  1  1.00169518  1.00149729  0.00414919  1
  Ni  Ni1  1  0.16744629  0.16892204  0.16912375  1
  Ni  Ni2  1  1.00198594  0.00349755  0.33604917  1
  Ni  Ni3  1  0.00380312  0.33691673  0.00290287  1
  Fe  Fe4  1  0.16886353  0.50261431  0.16803336  1
  Ni  Ni5  1  1.00248155  0.33438713  0.33494400  1
  Ni  Ni6  1  0.00331316  0.66856503  0.00294689  1
  Ni  Ni7  1  0.16907620  0.83642200  0.16807978  1
  Fe  Fe8  1  0.00248473  0.67098682  0.33472119  1
  Fe  Fe9  1  0.33622708  1.00079491  0.00258559  1
  Cr  Cr10  1  0.50125825  0.16826041  0.16993255  1
  Ni  Ni11  1  0.33526218  1.00083472  0.33684607  1
  Ni  Ni12  1  0.33368274  0.33794772  0.00310694  1
  Ni  Ni13  1  0.50268324  0.50494391  0.16916087  1
  Fe  Fe14  1  0.33617521  0.33605515  0.33620754  1
  Ni  Ni15  1  0.33533646  0.66870430  1.00183810  1
  Ni  Ni16  1  0.50223287  0.83390968  0.16929323  1
  Ni  Ni17  1  0.33661776  0.66932315  0.33622708  1
  Ni  Ni18  1  0.66982563  1.00030998  1.00215206  1
  Ni  Ni19  1  0.83897668  0.16936624  0.16934407  1
  Ni  Ni20  1  0.67020005  1.00189045  0.33664959  1
  Cr  Cr21  1  0.66982093  0.33551201  1.00168879  1
  Ni  Ni22  1  0.83646834  0.50331768  0.16978467  1
  Ni  Ni23  1  0.66995819  0.33574015  0.33611245  1
  Ni  Ni24  1  0.66879687  0.67143027  1.00244818  1
  Ni  Ni25  1  0.83613898  0.83476473  0.16905709  1
  Ni  Ni26  1  0.66729530  0.66981929  0.33475759  1
  Fe  Fe27  1  0.16820392  0.16737821  0.50161082  1
  Ni  Ni28  1  1.00057770  0.00355226  0.66824012  1
  Cr  Cr29  1  0.16915329  0.16871289  0.83658265  1
  Fe  Fe30  1  0.17095515  0.50291947  0.50188767  1
  Ni  Ni31  1  1.00083355  0.33437707  0.66960231  1
  Ni  Ni32  1  0.16751997  0.50331180  0.83749081  1
  Ni  Ni33  1  0.17043984  0.83720346  0.50308330  1
  Cr  Cr34  1  0.00428222  0.66962420  0.66912768  1
  Fe  Fe35  1  0.17055752  0.83438098  0.83606851  1
  Ni  Ni36  1  0.50278805  0.16821166  0.50212842  1
  Ni  Ni37  1  0.33759201  0.99991691  0.66849859  1
  Ni  Ni38  1  0.50316600  0.16666596  0.83569631  1
  Ni  Ni39  1  0.50193216  0.50307947  0.50281092  1
  Cr  Cr40  1  0.33639122  0.33742025  0.66756310  1
  Fe  Fe41  1  0.50177510  0.50408188  0.83624644  1
  Ni  Ni42  1  0.50116689  0.83615770  0.50260107  1
  Ni  Ni43  1  0.33705956  0.67037068  0.66938534  1
  Ni  Ni44  1  0.50235829  0.83639804  0.83555414  1
  Ni  Ni45  1  0.83617542  0.16827548  0.50353221  1
  Ni  Ni46  1  0.66927448  0.00298208  0.66864954  1
  Fe  Fe47  1  0.83493409  0.16880549  0.83473375  1
  Cr  Cr48  1  0.83491555  0.50172812  0.50161161  1
  Fe  Fe49  1  0.66975784  0.33414125  0.66928472  1
  Ni  Ni50  1  0.83689929  0.50250889  0.83563129  1
  Ni  Ni51  1  0.83584102  0.83805788  0.50195958  1
  Fe  Fe52  1  0.66688628  0.67068133  0.66965539  1
  Fe  Fe53  1  0.83453138  0.83639722  0.83669535  1
" 