996,Ni65Fe11Cr23_7,-231.385456319192, 172.273312905672,Ni65Fe11Cr23,"# generated using pymatgen
 data_Cr13Fe6Ni35
_symmetry_space_group_name_H-M   'P 1'
_cell_length_a   7.46001472
_cell_length_b   7.46001472
_cell_length_c   10.55005399
_cell_angle_alpha   90.00000000
_cell_angle_beta   90.00000000
_cell_angle_gamma   90.00000000
_symmetry_Int_Tables_number   1
_chemical_formula_structural   Cr13Fe6Ni35
_chemical_formula_sum   'Cr13 Fe6 Ni35'
_cell_volume   587.12970170
_cell_formula_units_Z   1
loop_
 _symmetry_equiv_pos_site_id
 _symmetry_equiv_pos_as_xyz
  1  'x, y, z'
loop_
 _atom_site_type_symbol
 _atom_site_label
 _atom_site_symmetry_multiplicity
 _atom_site_fract_x
 _atom_site_fract_y
 _atom_site_fract_z
 _atom_site_occupancy
  Ni  Ni0  1  1.00026565  0.00223766  0.00346735  1
  Ni  Ni1  1  0.16612058  0.16317573  0.16678047  1
  Fe  Fe2  1  0.99969854  0.00061854  0.33268243  1
  Cr  Cr3  1  0.99959121  0.33171863  0.99924233  1
  Cr  Cr4  1  0.17090587  0.50162182  0.16546914  1
  Cr  Cr5  1  0.99862719  0.33288616  0.33554194  1
  Cr  Cr6  1  0.99946826  0.66757850  0.00171045  1
  Ni  Ni7  1  0.16803849  0.83700923  0.16753846  1
  Cr  Cr8  1  0.99877570  0.66666107  0.33389450  1
  Cr  Cr9  1  0.33428921  0.00101773  0.00068199  1
  Fe  Fe10  1  0.50146687  0.16755844  0.16755706  1
  Ni  Ni11  1  0.33549433  0.99862719  0.33223855  1
  Ni  Ni12  1  0.33595570  0.33486707  0.99925104  1
  Ni  Ni13  1  0.50314960  0.50197222  0.16605327  1
  Cr  Cr14  1  0.33361074  0.33391509  0.33457148  1
  Ni  Ni15  1  0.33724271  0.66549786  0.00149174  1
  Ni  Ni16  1  0.50021749  0.83065131  0.16853987  1
  Ni  Ni17  1  0.33748028  0.66933518  0.33333591  1
  Cr  Cr18  1  0.66738946  0.00097516  1.00045473  1
  Ni  Ni19  1  0.83392285  0.16609289  0.16771529  1
  Ni  Ni20  1  0.66714987  0.99844568  0.33314527  1
  Ni  Ni21  1  0.66577993  0.33550874  0.00179825  1
  Ni  Ni22  1  0.82772931  0.50014283  0.16635546  1
  Fe  Fe23  1  0.66750845  0.33524281  0.33315388  1
  Ni  Ni24  1  0.66459297  0.66490434  0.00116251  1
  Ni  Ni25  1  0.83318756  0.83521913  0.16763360  1
  Ni  Ni26  1  0.66568041  0.66889795  0.33427045  1
  Ni  Ni27  1  0.16518940  0.16738590  0.50268745  1
  Ni  Ni28  1  0.99872740  0.00320665  0.66561265  1
  Ni  Ni29  1  0.16691215  0.16864211  0.83196221  1
  Ni  Ni30  1  0.16735040  0.49888365  0.50297627  1
  Ni  Ni31  1  1.00026299  0.33410916  0.66682133  1
  Fe  Fe32  1  0.16911078  0.49766792  0.83251051  1
  Cr  Cr33  1  0.16721443  0.83581969  0.49970630  1
  Ni  Ni34  1  0.99820665  0.66401994  0.66586803  1
  Cr  Cr35  1  0.16700307  0.83533468  0.83413718  1
  Cr  Cr36  1  0.50098355  0.16697903  0.50143353  1
  Ni  Ni37  1  0.33563756  0.00287516  0.66789119  1
  Ni  Ni38  1  0.50028338  0.17051031  0.83270797  1
  Ni  Ni39  1  0.50199868  0.50218990  0.49978215  1
  Ni  Ni40  1  0.33244794  0.33283837  0.66808237  1
  Ni  Ni41  1  0.50105506  0.49896675  0.83564362  1
  Ni  Ni42  1  0.50286128  0.83228853  0.50007063  1
  Cr  Cr43  1  0.33509789  0.66616869  0.66615601  1
  Ni  Ni44  1  0.50100597  0.83187304  0.83271837  1
  Ni  Ni45  1  0.83511063  0.16655055  0.50143833  1
  Ni  Ni46  1  0.66701743  0.00084685  0.66724283  1
  Ni  Ni47  1  0.83424633  0.16870569  0.83231024  1
  Ni  Ni48  1  0.83203052  0.50049534  0.50258781  1
  Ni  Ni49  1  0.66871039  0.33326789  0.66738690  1
  Fe  Fe50  1  0.83108861  0.49808843  0.83233282  1
  Ni  Ni51  1  0.83171760  0.83434052  0.50142826  1
  Fe  Fe52  1  0.66769336  0.66645166  0.66594061  1
  Cr  Cr53  1  0.83315144  0.83456872  0.83228113  1
" 