7739,Ni65Fe17Cr16_7,-234.16630593204, 187.464547124789,Ni65Fe17Cr16,"# generated using pymatgen
 data_Cr10Fe9Ni35
_symmetry_space_group_name_H-M   'P 1'
_cell_length_a   7.44971081
_cell_length_b   7.44971081
_cell_length_c   10.53548206
_cell_angle_alpha   90.00000000
_cell_angle_beta   90.00000000
_cell_angle_gamma   90.00000000
_symmetry_Int_Tables_number   1
_chemical_formula_structural   Cr10Fe9Ni35
_chemical_formula_sum   'Cr10 Fe9 Ni35'
_cell_volume   584.70019649
_cell_formula_units_Z   1
loop_
 _symmetry_equiv_pos_site_id
 _symmetry_equiv_pos_as_xyz
  1  'x, y, z'
loop_
 _atom_site_type_symbol
 _atom_site_label
 _atom_site_symmetry_multiplicity
 _atom_site_fract_x
 _atom_site_fract_y
 _atom_site_fract_z
 _atom_site_occupancy
  Ni  Ni0  1  0.00155048  0.00311531  1.00013615  1
  Ni  Ni1  1  0.16669269  0.16677030  0.16863875  1
  Ni  Ni2  1  0.00199246  0.00220322  0.33535484  1
  Ni  Ni3  1  1.00098767  0.33372971  0.00182041  1
  Ni  Ni4  1  0.16558556  0.50205940  0.16828911  1
  Ni  Ni5  1  0.00219930  0.33529605  0.33305058  1
  Fe  Fe6  1  0.00146148  0.66752333  1.00075721  1
  Ni  Ni7  1  0.16992742  0.83466088  0.16749337  1
  Ni  Ni8  1  0.00181239  0.66598922  0.33575956  1
  Ni  Ni9  1  0.33495433  0.99912394  0.00213000  1
  Ni  Ni10  1  0.50115891  0.16424522  0.16976451  1
  Fe  Fe11  1  0.33328530  1.00107001  0.33332603  1
  Cr  Cr12  1  0.33141501  0.33374937  1.00109832  1
  Cr  Cr13  1  0.50147703  0.50351535  0.16969800  1
  Fe  Fe14  1  0.33230562  0.33309143  0.33498041  1
  Ni  Ni15  1  0.33502974  0.67057050  1.00025054  1
  Ni  Ni16  1  0.49933334  0.83577840  0.16670335  1
  Ni  Ni17  1  0.33305602  0.66820569  0.33388760  1
  Ni  Ni18  1  0.66698637  0.99967589  1.00053187  1
  Ni  Ni19  1  0.83563685  0.16858952  0.16755715  1
  Ni  Ni20  1  0.66652382  0.00169804  0.33337638  1
  Cr  Cr21  1  0.67095671  0.33369877  1.00065744  1
  Ni  Ni22  1  0.83675604  0.50023039  0.16849169  1
  Fe  Fe23  1  0.66975599  0.33406559  0.33353176  1
  Ni  Ni24  1  0.66691756  0.67001060  0.99993827  1
  Cr  Cr25  1  0.83442006  0.83462123  0.16816135  1
  Ni  Ni26  1  0.66862548  0.66841187  0.33451551  1
  Ni  Ni27  1  0.16808759  0.16768792  0.50083239  1
  Ni  Ni28  1  0.00162190  0.00146741  0.66799953  1
  Ni  Ni29  1  0.16628424  0.16712644  0.83401983  1
  Ni  Ni30  1  0.16615995  0.50225735  0.50212973  1
  Ni  Ni31  1  0.00288694  0.33535392  0.66862184  1
  Fe  Fe32  1  0.16690750  0.50072325  0.83321017  1
  Ni  Ni33  1  0.16549896  0.83354253  0.50104794  1
  Ni  Ni34  1  0.00236082  0.66666502  0.66682912  1
  Fe  Fe35  1  0.16666475  0.83440456  0.83501956  1
  Ni  Ni36  1  0.49970208  0.16910041  0.50005170  1
  Cr  Cr37  1  0.33284238  0.00283725  0.66790879  1
  Ni  Ni38  1  0.50094763  0.16835747  0.83367751  1
  Cr  Cr39  1  0.50056008  0.49946880  0.50097886  1
  Ni  Ni40  1  0.33310705  0.33534132  0.66794923  1
  Ni  Ni41  1  0.50076259  0.50233661  0.83275259  1
  Cr  Cr42  1  0.49988864  0.83451008  0.49880786  1
  Ni  Ni43  1  0.33178322  0.66482714  0.66935085  1
  Fe  Fe44  1  0.50142871  0.83388473  0.83768029  1
  Cr  Cr45  1  0.83573728  0.16827504  0.50162239  1
  Cr  Cr46  1  0.66938185  0.00225391  0.66958366  1
  Ni  Ni47  1  0.83625992  0.16713242  0.83466941  1
  Ni  Ni48  1  0.83688855  0.50224443  0.50052711  1
  Fe  Fe49  1  0.66796743  0.33485865  0.66981633  1
  Ni  Ni50  1  0.83470667  0.50182067  0.83446947  1
  Fe  Fe51  1  0.83834408  0.83311662  0.49976634  1
  Cr  Cr52  1  0.66931469  0.66700169  0.66859401  1
  Ni  Ni53  1  0.83593469  0.83453891  0.83501716  1
" 