5179,Ni65Fe35_18,-237.59679353398, 210.017786950273,Ni65Fe35,"# generated using pymatgen
 data_Fe35Ni19
_symmetry_space_group_name_H-M   'P 1'
_cell_length_a   7.39680203
_cell_length_b   7.39680203
_cell_length_c   10.46065774
_cell_angle_alpha   90.00000000
_cell_angle_beta   90.00000000
_cell_angle_gamma   90.00000000
_symmetry_Int_Tables_number   1
_chemical_formula_structural   Fe35Ni19
_chemical_formula_sum   'Fe35 Ni19'
_cell_volume   572.33062184
_cell_formula_units_Z   1
loop_
 _symmetry_equiv_pos_site_id
 _symmetry_equiv_pos_as_xyz
  1  'x, y, z'
loop_
 _atom_site_type_symbol
 _atom_site_label
 _atom_site_symmetry_multiplicity
 _atom_site_fract_x
 _atom_site_fract_y
 _atom_site_fract_z
 _atom_site_occupancy
  Fe  Fe0  1  1.00411468  1.00473630  0.00504042  1
  Ni  Ni1  1  0.17177298  0.17265332  0.17132086  1
  Fe  Fe2  1  1.00390857  1.00450171  0.33773389  1
  Ni  Ni3  1  0.00519630  0.33713720  1.00446450  1
  Fe  Fe4  1  0.17127342  0.50396349  0.17122051  1
  Ni  Ni5  1  1.00428062  0.33683869  0.33790507  1
  Fe  Fe6  1  1.00439089  0.67105324  1.00399338  1
  Fe  Fe7  1  0.17186082  0.83953247  0.17113092  1
  Fe  Fe8  1  1.00389810  0.67099243  0.33840060  1
  Fe  Fe9  1  0.33808783  0.00474883  0.00517779  1
  Ni  Ni10  1  0.50456497  0.17144068  0.17205466  1
  Fe  Fe11  1  0.33869933  0.00512802  0.33744391  1
  Fe  Fe12  1  0.33794501  0.33837126  0.00495695  1
  Fe  Fe13  1  0.50567220  0.50484845  0.17199968  1
  Fe  Fe14  1  0.33857856  0.33868045  0.33774399  1
  Fe  Fe15  1  0.33771546  0.67113220  0.00479644  1
  Ni  Ni16  1  0.50540450  0.83786442  0.17242202  1
  Ni  Ni17  1  0.33899514  0.67321598  0.33714578  1
  Fe  Fe18  1  0.67203994  0.00496529  0.00489875  1
  Ni  Ni19  1  0.83791606  0.17141667  0.17252271  1
  Fe  Fe20  1  0.67163652  1.00445378  0.33802447  1
  Fe  Fe21  1  0.67211588  0.33808210  1.00458942  1
  Fe  Fe22  1  0.83729713  0.50397026  0.17112596  1
  Ni  Ni23  1  0.67292351  0.33806117  0.33722167  1
  Ni  Ni24  1  0.67047231  0.67242692  1.00424856  1
  Ni  Ni25  1  0.83707942  0.83783130  0.17111409  1
  Ni  Ni26  1  0.66976054  0.67198805  0.33847770  1
  Fe  Fe27  1  0.17049396  0.17126811  0.50417009  1
  Fe  Fe28  1  1.00361297  0.00529425  0.67147615  1
  Fe  Fe29  1  0.17006325  0.17232509  0.83857735  1
  Fe  Fe30  1  0.17079036  0.50510900  0.50502033  1
  Ni  Ni31  1  1.00458826  0.33783617  0.67186879  1
  Ni  Ni32  1  0.17124335  0.50538870  0.83736195  1
  Fe  Fe33  1  0.17136519  0.83787002  0.50519200  1
  Fe  Fe34  1  1.00392153  0.67114624  0.67184229  1
  Ni  Ni35  1  0.17207429  0.83691342  0.83773320  1
  Fe  Fe36  1  0.50581324  0.17106475  0.50479079  1
  Fe  Fe37  1  0.33836942  0.00560718  0.67163239  1
  Fe  Fe38  1  0.50501583  0.17182509  0.83783261  1
  Fe  Fe39  1  0.50559266  0.50539056  0.50424143  1
  Fe  Fe40  1  0.33853133  0.33772016  0.67154179  1
  Fe  Fe41  1  0.50509660  0.50490861  0.83799629  1
  Fe  Fe42  1  0.50521835  0.83779713  0.50413225  1
  Fe  Fe43  1  0.33800143  0.67091864  0.67133971  1
  Fe  Fe44  1  0.50500019  0.83751255  0.83857105  1
  Fe  Fe45  1  0.83794464  0.17162717  0.50520867  1
  Ni  Ni46  1  0.67093744  1.00452249  0.67178987  1
  Ni  Ni47  1  0.83730279  0.17239111  0.83743859  1
  Fe  Fe48  1  0.83786732  0.50452129  0.50502678  1
  Ni  Ni49  1  0.67290937  0.33737498  0.67234431  1
  Ni  Ni50  1  0.83853037  0.50372226  0.83726382  1
  Ni  Ni51  1  0.83762012  0.83781500  0.50550780  1
  Fe  Fe52  1  0.67232800  0.67099371  0.67133951  1
  Fe  Fe53  1  0.83857932  0.83751391  0.83799775  1
" 