7525,Ni65Fe11Cr23_9,-231.309218095373, 172.962525412117,Ni65Fe11Cr23,"# generated using pymatgen
 data_Cr13Fe6Ni35
_symmetry_space_group_name_H-M   'P 1'
_cell_length_a   7.46010172
_cell_length_b   7.46010172
_cell_length_c   10.55017703
_cell_angle_alpha   90.00000000
_cell_angle_beta   90.00000000
_cell_angle_gamma   90.00000000
_symmetry_Int_Tables_number   1
_chemical_formula_structural   Cr13Fe6Ni35
_chemical_formula_sum   'Cr13 Fe6 Ni35'
_cell_volume   587.15024352
_cell_formula_units_Z   1
loop_
 _symmetry_equiv_pos_site_id
 _symmetry_equiv_pos_as_xyz
  1  'x, y, z'
loop_
 _atom_site_type_symbol
 _atom_site_label
 _atom_site_symmetry_multiplicity
 _atom_site_fract_x
 _atom_site_fract_y
 _atom_site_fract_z
 _atom_site_occupancy
  Cr  Cr0  1  0.99704779  0.99862523  0.00082021  1
  Cr  Cr1  1  0.17045177  0.16751409  0.16951999  1
  Ni  Ni2  1  0.99696064  0.00076408  0.33504206  1
  Cr  Cr3  1  1.00031432  0.33537366  0.99927870  1
  Ni  Ni4  1  0.16810272  0.50041933  0.16866767  1
  Ni  Ni5  1  0.00131710  0.33262225  0.33538659  1
  Ni  Ni6  1  0.99904388  0.66825469  0.99863125  1
  Cr  Cr7  1  0.16642082  0.83348504  0.16948146  1
  Ni  Ni8  1  0.00232278  0.66792438  0.33283032  1
  Ni  Ni9  1  0.33713056  0.99851359  0.00055462  1
  Ni  Ni10  1  0.50060500  0.16617558  0.16689824  1
  Ni  Ni11  1  0.33739211  0.00062072  0.33508942  1
  Ni  Ni12  1  0.33598114  0.33540386  0.00226208  1
  Ni  Ni13  1  0.50029929  0.50011239  0.16925605  1
  Ni  Ni14  1  0.33578235  0.33528798  0.33381818  1
  Cr  Cr15  1  0.33467650  0.66683039  1.00016846  1
  Ni  Ni16  1  0.50277055  0.83482033  0.16861611  1
  Ni  Ni17  1  0.33522450  0.66510237  0.33385818  1
  Fe  Fe18  1  0.66601617  0.99763810  0.00117331  1
  Ni  Ni19  1  0.83093208  0.16545678  0.17075730  1
  Ni  Ni20  1  0.66703665  0.00113006  0.33293356  1
  Cr  Cr21  1  0.66643807  0.33305174  0.00105244  1
  Cr  Cr22  1  0.83333420  0.50354302  0.17030465  1
  Ni  Ni23  1  0.66418357  0.33021766  0.33395474  1
  Ni  Ni24  1  0.66641031  0.66925640  0.99978594  1
  Ni  Ni25  1  0.83099643  0.83331879  0.16779393  1
  Fe  Fe26  1  0.66453830  0.66929697  0.33404619  1
  Ni  Ni27  1  0.16909424  0.16796264  0.50038299  1
  Ni  Ni28  1  0.99741958  0.00133710  0.66629937  1
  Cr  Cr29  1  0.16958782  0.16545341  0.83180195  1
  Ni  Ni30  1  0.16906935  0.49813693  0.49978417  1
  Ni  Ni31  1  0.00246512  0.33155473  0.66683193  1
  Fe  Fe32  1  0.16873721  0.50090249  0.83311425  1
  Cr  Cr33  1  0.16615673  0.83517387  0.49916774  1
  Cr  Cr34  1  0.00134300  0.66792327  0.67003245  1
  Ni  Ni35  1  0.16793638  0.83477250  0.83290705  1
  Ni  Ni36  1  0.49844168  0.16677620  0.49990518  1
  Fe  Fe37  1  0.33495311  0.99940520  0.66563710  1
  Cr  Cr38  1  0.49920479  0.16582402  0.83489894  1
  Ni  Ni39  1  0.49916855  0.49986182  0.49943169  1
  Ni  Ni40  1  0.33340906  0.33711094  0.66551940  1
  Ni  Ni41  1  0.50162700  0.50234119  0.83264117  1
  Fe  Fe42  1  0.50106785  0.83341663  0.50019039  1
  Ni  Ni43  1  0.33644759  0.66598609  0.66763333  1
  Ni  Ni44  1  0.50136563  0.83254170  0.83155532  1
  Fe  Fe45  1  0.83418011  0.16625673  0.49965256  1
  Ni  Ni46  1  0.66864450  0.99811694  0.66699747  1
  Ni  Ni47  1  0.83424356  0.16557402  0.83070821  1
  Cr  Cr48  1  0.83260984  0.50370887  0.49793601  1
  Cr  Cr49  1  0.66694401  0.33330929  0.66646330  1
  Ni  Ni50  1  0.83197722  0.50290902  0.83325015  1
  Ni  Ni51  1  0.83143577  0.83530482  0.49925250  1
  Ni  Ni52  1  0.66385177  0.67027030  0.66693100  1
  Ni  Ni53  1  0.83202782  0.83244874  0.83423170  1
" 