3343,Ni65Fe17Cr16_4,-234.110416038797, 185.360577594994,Ni65Fe17Cr16,"# generated using pymatgen
 data_Cr10Fe9Ni35
_symmetry_space_group_name_H-M   'P 1'
_cell_length_a   7.44780019
_cell_length_b   7.44780019
_cell_length_c   10.53278004
_cell_angle_alpha   90.00000000
_cell_angle_beta   90.00000000
_cell_angle_gamma   90.00000000
_symmetry_Int_Tables_number   1
_chemical_formula_structural   Cr10Fe9Ni35
_chemical_formula_sum   'Cr10 Fe9 Ni35'
_cell_volume   584.25044011
_cell_formula_units_Z   1
loop_
 _symmetry_equiv_pos_site_id
 _symmetry_equiv_pos_as_xyz
  1  'x, y, z'
loop_
 _atom_site_type_symbol
 _atom_site_label
 _atom_site_symmetry_multiplicity
 _atom_site_fract_x
 _atom_site_fract_y
 _atom_site_fract_z
 _atom_site_occupancy
  Ni  Ni0  1  0.00315647  0.00140491  0.99954042  1
  Cr  Cr1  1  0.16913115  0.16757436  0.16904447  1
  Ni  Ni2  1  0.00193257  1.00038119  0.33577014  1
  Ni  Ni3  1  1.00092802  0.33501913  0.99863210  1
  Cr  Cr4  1  0.16878262  0.50041084  0.16779535  1
  Ni  Ni5  1  1.00075930  0.33609685  0.33612880  1
  Fe  Fe6  1  1.00094061  0.66814476  1.00082232  1
  Fe  Fe7  1  0.16948582  0.83399541  0.16838340  1
  Ni  Ni8  1  0.99879215  0.66727126  0.33422774  1
  Ni  Ni9  1  0.33532832  1.00075340  1.00068331  1
  Fe  Fe10  1  0.50145906  0.16742168  0.16801651  1
  Ni  Ni11  1  0.33726934  0.00146219  0.33447434  1
  Ni  Ni12  1  0.33553909  0.33392959  1.00063386  1
  Ni  Ni13  1  0.50129758  0.50363223  0.16867393  1
  Ni  Ni14  1  0.33732509  0.33422569  0.33494155  1
  Fe  Fe15  1  0.33719816  0.66958296  1.00074923  1
  Ni  Ni16  1  0.50089357  0.83481715  0.16746764  1
  Ni  Ni17  1  0.33824141  0.66841551  0.33392835  1
  Ni  Ni18  1  0.66525160  1.00045890  1.00016277  1
  Cr  Cr19  1  0.83462104  0.16765490  0.16854808  1
  Ni  Ni20  1  0.66486321  0.99897988  0.33520258  1
  Cr  Cr21  1  0.66666429  0.33611117  1.00111830  1
  Ni  Ni22  1  0.83376944  0.50217312  0.16871112  1
  Fe  Fe23  1  0.66651232  0.33639510  0.33463362  1
  Fe  Fe24  1  0.66548370  0.66797802  1.00121240  1
  Cr  Cr25  1  0.83245506  0.83523035  0.16861183  1
  Ni  Ni26  1  0.66702153  0.66730986  0.33529295  1
  Ni  Ni27  1  0.16981099  0.16824214  0.50129616  1
  Ni  Ni28  1  0.00223663  0.00129509  0.66911551  1
  Ni  Ni29  1  0.16880121  0.16724692  0.83416008  1
  Cr  Cr30  1  0.17003719  0.49970615  0.50181326  1
  Fe  Fe31  1  1.00067542  0.33379987  0.66835240  1
  Cr  Cr32  1  0.16985089  0.50097601  0.83363004  1
  Cr  Cr33  1  0.16916167  0.83548114  0.50076704  1
  Ni  Ni34  1  0.99871234  0.66849526  0.66789224  1
  Ni  Ni35  1  0.16947089  0.83675768  0.83569705  1
  Ni  Ni36  1  0.49970677  0.16736489  0.49976599  1
  Ni  Ni37  1  0.33556373  0.00307782  0.66885091  1
  Ni  Ni38  1  0.49931246  0.16682962  0.83531510  1
  Ni  Ni39  1  0.50240999  0.50161780  0.50158068  1
  Ni  Ni40  1  0.33734708  0.33235266  0.66832316  1
  Ni  Ni41  1  0.50213458  0.50186635  0.83401499  1
  Ni  Ni42  1  0.50365338  0.83477402  0.50235291  1
  Ni  Ni43  1  0.33769623  0.66870010  0.66950835  1
  Ni  Ni44  1  0.50043788  0.83530448  0.83410570  1
  Cr  Cr45  1  0.83393935  0.16593084  0.50148147  1
  Ni  Ni46  1  0.66576121  1.00083597  0.66837774  1
  Fe  Fe47  1  0.83398099  0.16775890  0.83430223  1
  Ni  Ni48  1  0.83270248  0.50299500  0.50039486  1
  Fe  Fe49  1  0.66585079  0.33494488  0.66862267  1
  Ni  Ni50  1  0.83374249  0.50126959  0.83421941  1
  Ni  Ni51  1  0.83200352  0.83373405  0.50081002  1
  Ni  Ni52  1  0.66762256  0.66662369  0.66749978  1
  Cr  Cr53  1  0.83205110  0.83496504  0.83411951  1
" 