5111,Ni65Fe17Cr16_13,-234.734841626874, 189.078874516946,Ni65Fe17Cr16,"# generated using pymatgen
 data_Cr10Fe9Ni35
_symmetry_space_group_name_H-M   'P 1'
_cell_length_a   7.44984878
_cell_length_b   7.44984878
_cell_length_c   10.53567718
_cell_angle_alpha   90.00000000
_cell_angle_beta   90.00000000
_cell_angle_gamma   90.00000000
_symmetry_Int_Tables_number   1
_chemical_formula_structural   Cr10Fe9Ni35
_chemical_formula_sum   'Cr10 Fe9 Ni35'
_cell_volume   584.73268329
_cell_formula_units_Z   1
loop_
 _symmetry_equiv_pos_site_id
 _symmetry_equiv_pos_as_xyz
  1  'x, y, z'
loop_
 _atom_site_type_symbol
 _atom_site_label
 _atom_site_symmetry_multiplicity
 _atom_site_fract_x
 _atom_site_fract_y
 _atom_site_fract_z
 _atom_site_occupancy
  Cr  Cr0  1  0.00215030  0.00340668  0.00224234  1
  Ni  Ni1  1  0.16984472  0.16727389  0.16746813  1
  Ni  Ni2  1  0.00154321  1.00015927  0.33508845  1
  Ni  Ni3  1  0.99911071  0.33359810  0.00227134  1
  Fe  Fe4  1  0.16791248  0.50142581  0.16640598  1
  Cr  Cr5  1  0.00128603  0.33189627  0.33372634  1
  Fe  Fe6  1  1.00095946  0.66574616  0.00386049  1
  Ni  Ni7  1  0.16828974  0.83461692  0.16918535  1
  Fe  Fe8  1  0.00141111  0.66915084  0.33413935  1
  Ni  Ni9  1  0.33508461  1.00053621  0.00155938  1
  Ni  Ni10  1  0.49878759  0.16575938  0.16787002  1
  Ni  Ni11  1  0.33128956  1.00089492  0.33310731  1
  Ni  Ni12  1  0.33445879  0.33263747  0.00176105  1
  Cr  Cr13  1  0.50099901  0.50027050  0.16745516  1
  Ni  Ni14  1  0.33317200  0.33374138  0.33550446  1
  Ni  Ni15  1  0.33787151  0.67007993  0.00168856  1
  Ni  Ni16  1  0.50074365  0.83597357  0.16710920  1
  Ni  Ni17  1  0.33500437  0.66897596  0.33435707  1
  Fe  Fe18  1  0.66402703  0.00224804  0.00213577  1
  Ni  Ni19  1  0.83414260  0.16712775  0.16662528  1
  Fe  Fe20  1  0.66780685  1.00075054  0.33399506  1
  Ni  Ni21  1  0.66965886  0.33582966  0.99924029  1
  Ni  Ni22  1  0.83607016  0.50321206  0.16546491  1
  Cr  Cr23  1  0.66804712  0.33539669  0.33702229  1
  Ni  Ni24  1  0.66667388  0.66733839  1.00094081  1
  Ni  Ni25  1  0.83412042  0.83302587  0.16981948  1
  Ni  Ni26  1  0.66851962  0.66921853  0.33441087  1
  Ni  Ni27  1  0.16906000  0.16503065  0.50047432  1
  Ni  Ni28  1  0.00136413  0.00176154  0.66545795  1
  Ni  Ni29  1  0.16963371  0.16725992  0.83532867  1
  Fe  Fe30  1  0.16904077  0.50265642  0.50021046  1
  Cr  Cr31  1  0.99824004  0.33172359  0.66771172  1
  Cr  Cr32  1  0.16731830  0.50053052  0.83776837  1
  Fe  Fe33  1  0.16698232  0.83558020  0.50078136  1
  Fe  Fe34  1  0.99974445  0.66850932  0.66546476  1
  Cr  Cr35  1  0.16968576  0.83599196  0.83172040  1
  Ni  Ni36  1  0.49953553  0.16832061  0.50084038  1
  Ni  Ni37  1  0.33360696  1.00008018  0.66837156  1
  Ni  Ni38  1  0.50048164  0.16750532  0.83489849  1
  Ni  Ni39  1  0.50155955  0.50140635  0.50188061  1
  Cr  Cr40  1  0.33750387  0.33435224  0.66630932  1
  Ni  Ni41  1  0.50400187  0.50137449  0.83433730  1
  Cr  Cr42  1  0.50213452  0.83527925  0.50121157  1
  Ni  Ni43  1  0.33755446  0.66965612  0.66738610  1
  Ni  Ni44  1  0.50131695  0.83480263  0.83493114  1
  Ni  Ni45  1  0.83457694  0.16528237  0.50304681  1
  Ni  Ni46  1  0.66851341  0.00175242  0.66783197  1
  Fe  Fe47  1  0.83197397  0.16939080  0.83425514  1
  Ni  Ni48  1  0.83331936  0.50460547  0.50270904  1
  Ni  Ni49  1  0.66889866  0.33587975  0.66775831  1
  Ni  Ni50  1  0.83160009  0.50075173  0.83535031  1
  Ni  Ni51  1  0.83688171  0.83379274  0.50060371  1
  Ni  Ni52  1  0.66657486  0.66616902  0.66805438  1
  Cr  Cr53  1  0.83224339  0.83259622  0.83318369  1
" 