1801,Ni65Fe24Cr10_2,-237.799922702613, 203.181915650928,Ni65Fe24Cr10,"# generated using pymatgen
 data_Cr6Fe13Ni35
_symmetry_space_group_name_H-M   'P 1'
_cell_length_a   7.42648045
_cell_length_b   7.42648045
_cell_length_c   10.50262938
_cell_angle_alpha   90.00000000
_cell_angle_beta   90.00000000
_cell_angle_gamma   90.00000000
_symmetry_Int_Tables_number   1
_chemical_formula_structural   Cr6Fe13Ni35
_chemical_formula_sum   'Cr6 Fe13 Ni35'
_cell_volume   579.24744202
_cell_formula_units_Z   1
loop_
 _symmetry_equiv_pos_site_id
 _symmetry_equiv_pos_as_xyz
  1  'x, y, z'
loop_
 _atom_site_type_symbol
 _atom_site_label
 _atom_site_symmetry_multiplicity
 _atom_site_fract_x
 _atom_site_fract_y
 _atom_site_fract_z
 _atom_site_occupancy
  Ni  Ni0  1  0.00493602  1.00212810  1.00083759  1
  Ni  Ni1  1  0.17030405  0.16681569  0.16965595  1
  Ni  Ni2  1  0.00464519  0.00550301  0.33689472  1
  Cr  Cr3  1  0.99947596  0.33534200  1.00201030  1
  Cr  Cr4  1  0.16979741  0.50349004  0.17118108  1
  Ni  Ni5  1  1.00192157  0.33622080  0.33625967  1
  Ni  Ni6  1  0.00456601  0.66919998  1.00078570  1
  Ni  Ni7  1  0.17018858  0.83766868  0.16970378  1
  Fe  Fe8  1  1.00037935  0.67172960  0.33777985  1
  Ni  Ni9  1  0.33606724  1.00171947  0.00420476  1
  Ni  Ni10  1  0.50328490  0.17015056  0.17055381  1
  Ni  Ni11  1  0.33604680  1.00124363  0.33586121  1
  Fe  Fe12  1  0.33726925  0.33417890  1.00206735  1
  Ni  Ni13  1  0.50323102  0.50106088  0.16826736  1
  Fe  Fe14  1  0.33751897  0.33270608  0.33599004  1
  Ni  Ni15  1  0.33642094  0.67033706  0.00308171  1
  Fe  Fe16  1  0.50200384  0.83674295  0.16986734  1
  Fe  Fe17  1  0.33713709  0.67139032  0.33553401  1
  Ni  Ni18  1  0.66765871  0.00655380  0.00364983  1
  Ni  Ni19  1  0.83503579  0.16898257  0.17079594  1
  Ni  Ni20  1  0.66739554  1.00258401  0.33709998  1
  Ni  Ni21  1  0.66829348  0.33662607  1.00227829  1
  Ni  Ni22  1  0.83372427  0.50224597  0.17112945  1
  Ni  Ni23  1  0.67159198  0.33671977  0.33620094  1
  Fe  Fe24  1  0.67066682  0.66870648  1.00238261  1
  Cr  Cr25  1  0.83805389  0.83866641  0.16762841  1
  Ni  Ni26  1  0.66766624  0.66861070  0.33497506  1
  Fe  Fe27  1  0.16896738  0.16882592  0.50141696  1
  Ni  Ni28  1  0.00372949  1.00212463  0.67008106  1
  Fe  Fe29  1  0.17099623  0.16728142  0.83652810  1
  Ni  Ni30  1  0.16973935  0.50304549  0.50096701  1
  Cr  Cr31  1  1.00178330  0.33667257  0.67084873  1
  Ni  Ni32  1  0.17197275  0.50519874  0.83591218  1
  Fe  Fe33  1  0.16803335  0.83609071  0.50302550  1
  Ni  Ni34  1  1.00197741  0.66877925  0.66855899  1
  Ni  Ni35  1  0.16774464  0.83557741  0.83535661  1
  Fe  Fe36  1  0.50394933  0.16795719  0.50238003  1
  Ni  Ni37  1  0.33626542  0.00337096  0.66794093  1
  Ni  Ni38  1  0.50314422  0.17059790  0.83455828  1
  Cr  Cr39  1  0.50209279  0.50250662  0.50495216  1
  Fe  Fe40  1  0.33542774  0.33497897  0.67044210  1
  Ni  Ni41  1  0.50140204  0.50016548  0.83589599  1
  Ni  Ni42  1  0.50272138  0.83682151  0.50209017  1
  Fe  Fe43  1  0.33435964  0.67191765  0.66999716  1
  Cr  Cr44  1  0.50364862  0.83737260  0.83725122  1
  Ni  Ni45  1  0.83595950  0.16708335  0.50135294  1
  Ni  Ni46  1  0.66821672  1.00179778  0.66734469  1
  Ni  Ni47  1  0.83315859  0.16551619  0.83643582  1
  Ni  Ni48  1  0.83708369  0.50332164  0.50122613  1
  Fe  Fe49  1  0.67087060  0.33422295  0.67038745  1
  Ni  Ni50  1  0.83499789  0.50440096  0.83592110  1
  Ni  Ni51  1  0.83508768  0.83772916  0.50393619  1
  Ni  Ni52  1  0.67026559  0.66892062  0.67066634  1
  Ni  Ni53  1  0.83861125  0.83788630  0.83533695  1
" 