3027,Ni65Fe28Cr5_14,-239.450228636276, 210.674287526995,Ni65Fe28Cr5,"# generated using pymatgen
 data_Cr4(Fe3Ni7)5
_symmetry_space_group_name_H-M   'P 1'
_cell_length_a   7.41917512
_cell_length_b   7.41917512
_cell_length_c   10.49229807
_cell_angle_alpha   90.00000000
_cell_angle_beta   90.00000000
_cell_angle_gamma   90.00000000
_symmetry_Int_Tables_number   1
_chemical_formula_structural   Cr4(Fe3Ni7)5
_chemical_formula_sum   'Cr4 Fe15 Ni35'
_cell_volume   577.53972758
_cell_formula_units_Z   1
loop_
 _symmetry_equiv_pos_site_id
 _symmetry_equiv_pos_as_xyz
  1  'x, y, z'
loop_
 _atom_site_type_symbol
 _atom_site_label
 _atom_site_symmetry_multiplicity
 _atom_site_fract_x
 _atom_site_fract_y
 _atom_site_fract_z
 _atom_site_occupancy
  Fe  Fe0  1  1.00223968  1.00180030  0.00325012  1
  Fe  Fe1  1  0.16762788  0.17032340  0.17062671  1
  Ni  Ni2  1  1.00104814  0.00492180  0.33391211  1
  Fe  Fe3  1  1.00270764  0.33754068  1.00317044  1
  Ni  Ni4  1  0.17049688  0.50429582  0.17100817  1
  Ni  Ni5  1  1.00292636  0.33620590  0.33570953  1
  Ni  Ni6  1  1.00309922  0.66943208  0.00329426  1
  Ni  Ni7  1  0.16946755  0.83577110  0.16958227  1
  Fe  Fe8  1  1.00289032  0.66948239  0.33504419  1
  Fe  Fe9  1  0.33641942  1.00120189  1.00198212  1
  Cr  Cr10  1  0.50390994  0.17014358  0.17092421  1
  Ni  Ni11  1  0.33711073  1.00252208  0.33526864  1
  Fe  Fe12  1  0.33622528  0.33841613  1.00223210  1
  Ni  Ni13  1  0.50242188  0.50443276  0.16946071  1
  Ni  Ni14  1  0.33525022  0.33862181  0.33710949  1
  Ni  Ni15  1  0.33697633  0.66940521  0.00352522  1
  Fe  Fe16  1  0.50382440  0.83407473  0.17006345  1
  Ni  Ni17  1  0.33843324  0.66853266  0.33546750  1
  Ni  Ni18  1  0.67123660  1.00246943  1.00170395  1
  Ni  Ni19  1  0.83752789  0.16920965  0.16996140  1
  Ni  Ni20  1  0.67152061  1.00174189  0.33858285  1
  Fe  Fe21  1  0.67074990  0.33780588  1.00262391  1
  Ni  Ni22  1  0.83675829  0.50357049  0.16972153  1
  Fe  Fe23  1  0.67052476  0.33706312  0.33733802  1
  Ni  Ni24  1  0.66960501  0.67028262  0.00337272  1
  Ni  Ni25  1  0.83738969  0.83689845  0.17041466  1
  Ni  Ni26  1  0.66910321  0.67041147  0.33588035  1
  Cr  Cr27  1  0.17000219  0.17192412  0.50289670  1
  Ni  Ni28  1  1.00200789  0.00443320  0.67204894  1
  Ni  Ni29  1  0.17037648  0.17112806  0.83685662  1
  Ni  Ni30  1  0.17073750  0.50261760  0.50317246  1
  Ni  Ni31  1  0.00427751  0.33603202  0.67090230  1
  Ni  Ni32  1  0.17046619  0.50251582  0.83549932  1
  Cr  Cr33  1  0.17014231  0.83477718  0.50422355  1
  Fe  Fe34  1  1.00308814  0.66873372  0.67091990  1
  Fe  Fe35  1  0.17016591  0.83741026  0.83670725  1
  Fe  Fe36  1  0.50390226  0.16924210  0.50251718  1
  Ni  Ni37  1  0.33705448  1.00308598  0.67178992  1
  Ni  Ni38  1  0.50216910  0.16848145  0.83613859  1
  Ni  Ni39  1  0.50199959  0.50430883  0.50259434  1
  Ni  Ni40  1  0.33478675  0.33737436  0.67064246  1
  Fe  Fe41  1  0.50232337  0.50405839  0.83712984  1
  Ni  Ni42  1  0.50523848  0.83617463  0.50266908  1
  Ni  Ni43  1  0.33805050  0.66921843  0.67068541  1
  Ni  Ni44  1  0.50399704  0.83705429  0.83685589  1
  Ni  Ni45  1  0.83567022  0.16891134  0.50237355  1
  Fe  Fe46  1  0.66966322  1.00168222  0.67024371  1
  Ni  Ni47  1  0.83712988  0.16819786  0.83734271  1
  Ni  Ni48  1  0.83694341  0.50372973  0.50252639  1
  Cr  Cr49  1  0.67053053  0.33701934  0.66924332  1
  Fe  Fe50  1  0.83725220  0.50386654  0.83732133  1
  Ni  Ni51  1  0.83398118  0.83703787  0.50337007  1
  Ni  Ni52  1  0.66927195  0.67148946  0.67042200  1
  Ni  Ni53  1  0.83549910  0.83713635  0.83589500  1
" 