7938,Ni65Fe24Cr10_1,-237.715499096782, 200.449954121704,Ni65Fe24Cr10,"# generated using pymatgen
 data_Cr6Fe13Ni35
_symmetry_space_group_name_H-M   'P 1'
_cell_length_a   7.43037018
_cell_length_b   7.43037018
_cell_length_c   10.50813028
_cell_angle_alpha   90.00000000
_cell_angle_beta   90.00000000
_cell_angle_gamma   90.00000000
_symmetry_Int_Tables_number   1
_chemical_formula_structural   Cr6Fe13Ni35
_chemical_formula_sum   'Cr6 Fe13 Ni35'
_cell_volume   580.15808573
_cell_formula_units_Z   1
loop_
 _symmetry_equiv_pos_site_id
 _symmetry_equiv_pos_as_xyz
  1  'x, y, z'
loop_
 _atom_site_type_symbol
 _atom_site_label
 _atom_site_symmetry_multiplicity
 _atom_site_fract_x
 _atom_site_fract_y
 _atom_site_fract_z
 _atom_site_occupancy
  Cr  Cr0  1  0.00261523  0.00400073  0.00359240  1
  Fe  Fe1  1  0.17151980  0.17106355  0.16945672  1
  Ni  Ni2  1  0.00285852  1.00186074  0.33693839  1
  Ni  Ni3  1  1.00195179  0.33694454  0.00275853  1
  Ni  Ni4  1  0.16831408  0.50286622  0.16854669  1
  Ni  Ni5  1  0.00287739  0.33498033  0.33520626  1
  Ni  Ni6  1  1.00191557  0.66663890  0.00477723  1
  Ni  Ni7  1  0.16971291  0.83428525  0.17079884  1
  Ni  Ni8  1  1.00179742  0.67049242  0.33545137  1
  Ni  Ni9  1  0.33845575  0.00297392  1.00245218  1
  Ni  Ni10  1  0.50351148  0.16879129  0.16972689  1
  Fe  Fe11  1  0.33646119  1.00237127  0.33455921  1
  Ni  Ni12  1  0.33723656  0.33515799  1.00199469  1
  Ni  Ni13  1  0.50228026  0.50173399  0.16938043  1
  Ni  Ni14  1  0.33691654  0.33537537  0.33558172  1
  Ni  Ni15  1  0.33807965  0.66928581  0.00423254  1
  Ni  Ni16  1  0.50217233  0.83693356  0.16850079  1
  Fe  Fe17  1  0.33751474  0.66932573  0.33401324  1
  Ni  Ni18  1  0.66538505  0.00313837  0.00290315  1
  Fe  Fe19  1  0.83391349  0.17059152  0.17054018  1
  Ni  Ni20  1  0.66892231  1.00174045  0.33577698  1
  Ni  Ni21  1  0.66834566  0.33630551  1.00173854  1
  Ni  Ni22  1  0.83680293  0.50158083  0.17015851  1
  Ni  Ni23  1  0.66774347  0.33621723  0.33686665  1
  Ni  Ni24  1  0.66717084  0.66782592  1.00208059  1
  Fe  Fe25  1  0.83385166  0.83350893  0.17063925  1
  Ni  Ni26  1  0.66841227  0.66944188  0.33695984  1
  Fe  Fe27  1  0.16978356  0.16636500  0.50167138  1
  Ni  Ni28  1  0.00262164  1.00183104  0.66725875  1
  Ni  Ni29  1  0.17047806  0.16948231  0.83580093  1
  Cr  Cr30  1  0.16982232  0.50271677  0.50076738  1
  Cr  Cr31  1  0.99981403  0.33434642  0.67005223  1
  Cr  Cr32  1  0.16952837  0.50216278  0.83874527  1
  Fe  Fe33  1  0.16856413  0.83716902  0.50209928  1
  Ni  Ni34  1  1.00185498  0.67123485  0.66728017  1
  Cr  Cr35  1  0.17095742  0.83589996  0.83469631  1
  Fe  Fe36  1  0.50426864  0.16898969  0.50189284  1
  Fe  Fe37  1  0.33699982  0.00352236  0.66935461  1
  Ni  Ni38  1  0.50331143  0.16902722  0.83519224  1
  Ni  Ni39  1  0.50250675  0.50256196  0.50197081  1
  Fe  Fe40  1  0.33857935  0.33392558  0.66932993  1
  Ni  Ni41  1  0.50396169  0.50177297  0.83584999  1
  Ni  Ni42  1  0.50341807  0.83610828  0.50234430  1
  Fe  Fe43  1  0.33944207  0.67007036  0.66875256  1
  Ni  Ni44  1  0.50274503  0.83663385  0.83639763  1
  Ni  Ni45  1  0.83526129  0.16699044  0.50125493  1
  Ni  Ni46  1  0.66796290  0.00348856  0.66883794  1
  Ni  Ni47  1  0.83375394  0.17047290  0.83638796  1
  Fe  Fe48  1  0.83254608  0.50371379  0.50117453  1
  Ni  Ni49  1  0.66644706  0.33554446  0.66869182  1
  Ni  Ni50  1  0.83391743  0.50095255  0.83554486  1
  Ni  Ni51  1  0.83561828  0.83826105  0.50202181  1
  Fe  Fe52  1  0.66911177  0.66877612  0.66808223  1
  Cr  Cr53  1  0.83326110  0.83582357  0.83619162  1
" 