7991,Ni65Fe17Cr16_8,-234.194839659421, 188.261454810933,Ni65Fe17Cr16,"# generated using pymatgen
 data_Cr10Fe9Ni35
_symmetry_space_group_name_H-M   'P 1'
_cell_length_a   7.44392144
_cell_length_b   7.44392144
_cell_length_c   10.52729466
_cell_angle_alpha   90.00000000
_cell_angle_beta   90.00000000
_cell_angle_gamma   90.00000000
_symmetry_Int_Tables_number   1
_chemical_formula_structural   Cr10Fe9Ni35
_chemical_formula_sum   'Cr10 Fe9 Ni35'
_cell_volume   583.33809785
_cell_formula_units_Z   1
loop_
 _symmetry_equiv_pos_site_id
 _symmetry_equiv_pos_as_xyz
  1  'x, y, z'
loop_
 _atom_site_type_symbol
 _atom_site_label
 _atom_site_symmetry_multiplicity
 _atom_site_fract_x
 _atom_site_fract_y
 _atom_site_fract_z
 _atom_site_occupancy
  Ni  Ni0  1  0.00208644  0.00169243  0.99941983  1
  Cr  Cr1  1  0.16874075  0.16625447  0.16839142  1
  Ni  Ni2  1  0.00213810  1.00122043  0.33646605  1
  Ni  Ni3  1  1.00024917  0.33371464  0.99989210  1
  Cr  Cr4  1  0.17115373  0.50155207  0.16800486  1
  Fe  Fe5  1  1.00098285  0.33376111  0.33763583  1
  Cr  Cr6  1  0.99920079  0.66930989  1.00132816  1
  Ni  Ni7  1  0.17009713  0.83653731  0.16830791  1
  Cr  Cr8  1  0.00157265  0.66881698  0.33517398  1
  Ni  Ni9  1  0.33544660  1.00148741  1.00110585  1
  Fe  Fe10  1  0.50166821  0.16824872  0.16906045  1
  Ni  Ni11  1  0.33492350  0.00194795  0.33478634  1
  Ni  Ni12  1  0.33605155  0.33268582  1.00085783  1
  Ni  Ni13  1  0.50191954  0.50183832  0.16754381  1
  Ni  Ni14  1  0.33715156  0.33408779  0.33731726  1
  Ni  Ni15  1  0.33727020  0.67048631  0.00258465  1
  Fe  Fe16  1  0.50094933  0.83483588  0.16672015  1
  Ni  Ni17  1  0.33484698  0.66862746  0.33563186  1
  Ni  Ni18  1  0.66712808  1.00047198  1.00018173  1
  Cr  Cr19  1  0.83439153  0.16697961  0.16931067  1
  Ni  Ni20  1  0.66759816  0.00352632  0.33648275  1
  Fe  Fe21  1  0.66837744  0.33518003  0.00168926  1
  Ni  Ni22  1  0.83103325  0.50135624  0.16710321  1
  Ni  Ni23  1  0.66687360  0.33400679  0.33484263  1
  Ni  Ni24  1  0.66815110  0.66864973  0.00240228  1
  Ni  Ni25  1  0.83375822  0.83618934  0.16698593  1
  Cr  Cr26  1  0.66827175  0.66684205  0.33450215  1
  Ni  Ni27  1  0.16726857  0.16942863  0.50038231  1
  Ni  Ni28  1  1.00076016  0.00348878  0.66877884  1
  Ni  Ni29  1  0.16617796  0.16689997  0.83618954  1
  Ni  Ni30  1  0.17145898  0.49960110  0.50128005  1
  Ni  Ni31  1  0.99946126  0.33281871  0.66709984  1
  Cr  Cr32  1  0.16951400  0.49986511  0.83511017  1
  Fe  Fe33  1  0.16867048  0.83572665  0.50050598  1
  Cr  Cr34  1  1.00019042  0.66858546  0.66815935  1
  Ni  Ni35  1  0.16943252  0.83830977  0.83613922  1
  Ni  Ni36  1  0.50209484  0.16961134  0.50010547  1
  Cr  Cr37  1  0.33412916  0.00181387  0.66896110  1
  Fe  Fe38  1  0.50251449  0.16665013  0.83571757  1
  Ni  Ni39  1  0.49957881  0.50109823  0.50234989  1
  Fe  Fe40  1  0.33446161  0.33529276  0.66602525  1
  Cr  Cr41  1  0.50214937  0.50326622  0.83439571  1
  Fe  Fe42  1  0.50176343  0.83452799  0.50189051  1
  Ni  Ni43  1  0.33681188  0.66857094  0.66644133  1
  Ni  Ni44  1  0.50240937  0.83472405  0.83596565  1
  Ni  Ni45  1  0.83529823  0.16698072  0.50121230  1
  Fe  Fe46  1  0.67065525  1.00131995  0.66821897  1
  Ni  Ni47  1  0.83633998  0.16704909  0.83458592  1
  Ni  Ni48  1  0.83362350  0.49953168  0.50212492  1
  Ni  Ni49  1  0.66987648  0.33539043  0.66780903  1
  Ni  Ni50  1  0.83275252  0.49971462  0.83542808  1
  Ni  Ni51  1  0.83380226  0.83814530  0.50237136  1
  Ni  Ni52  1  0.66783264  0.66727011  0.66760171  1
  Ni  Ni53  1  0.83282106  0.83789270  0.83530237  1
" 