4684,Ni65Fe11Cr23_0,-231.456194602404, 174.591673362406,Ni65Fe11Cr23,"# generated using pymatgen
 data_Cr13Fe6Ni35
_symmetry_space_group_name_H-M   'P 1'
_cell_length_a   7.46090320
_cell_length_b   7.46090320
_cell_length_c   10.55131049
_cell_angle_alpha   90.00000000
_cell_angle_beta   90.00000000
_cell_angle_gamma   90.00000000
_symmetry_Int_Tables_number   1
_chemical_formula_structural   Cr13Fe6Ni35
_chemical_formula_sum   'Cr13 Fe6 Ni35'
_cell_volume   587.33950556
_cell_formula_units_Z   1
loop_
 _symmetry_equiv_pos_site_id
 _symmetry_equiv_pos_as_xyz
  1  'x, y, z'
loop_
 _atom_site_type_symbol
 _atom_site_label
 _atom_site_symmetry_multiplicity
 _atom_site_fract_x
 _atom_site_fract_y
 _atom_site_fract_z
 _atom_site_occupancy
  Ni  Ni0  1  1.00022326  1.00010861  0.00045529  1
  Fe  Fe1  1  0.16719507  0.16549064  0.16801767  1
  Ni  Ni2  1  0.00115335  0.00067938  0.33307083  1
  Cr  Cr3  1  1.00036780  0.33255349  0.99995007  1
  Fe  Fe4  1  0.16862235  0.49962621  0.16796070  1
  Ni  Ni5  1  0.00368993  0.33216962  0.33225063  1
  Cr  Cr6  1  0.99889289  0.67027303  1.00008454  1
  Ni  Ni7  1  0.16865910  0.83721746  0.16822184  1
  Cr  Cr8  1  0.00127329  0.66893362  0.33280180  1
  Ni  Ni9  1  0.33343938  0.00102677  0.99883608  1
  Cr  Cr10  1  0.49990312  0.16564693  0.16680419  1
  Ni  Ni11  1  0.33245549  1.00017280  0.33452472  1
  Ni  Ni12  1  0.33534923  0.33279575  0.99936874  1
  Ni  Ni13  1  0.50064771  0.50139994  0.16730269  1
  Ni  Ni14  1  0.33168788  0.33445729  0.33492081  1
  Cr  Cr15  1  0.33517547  0.66805775  0.00083296  1
  Ni  Ni16  1  0.49971821  0.83326065  0.16746900  1
  Ni  Ni17  1  0.33428242  0.66669333  0.33301406  1
  Ni  Ni18  1  0.66769174  0.99952795  0.99996933  1
  Ni  Ni19  1  0.83558371  0.16609918  0.16703547  1
  Ni  Ni20  1  0.66762595  0.99783293  0.33317854  1
  Ni  Ni21  1  0.66578784  0.33370968  0.99889297  1
  Ni  Ni22  1  0.83167584  0.49924277  0.16689422  1
  Cr  Cr23  1  0.66513242  0.33346708  0.33391082  1
  Ni  Ni24  1  0.66701708  0.66795594  1.00033287  1
  Ni  Ni25  1  0.83281218  0.83593678  0.16805328  1
  Ni  Ni26  1  0.66520147  0.66897743  0.33188561  1
  Ni  Ni27  1  0.16695193  0.16468422  0.49885361  1
  Ni  Ni28  1  0.00044253  0.99936509  0.66771688  1
  Fe  Fe29  1  0.16801201  0.16464372  0.83434141  1
  Ni  Ni30  1  0.17033952  0.50067347  0.49821265  1
  Cr  Cr31  1  0.00232154  0.33206573  0.66888342  1
  Ni  Ni32  1  0.16909932  0.50123629  0.83381530  1
  Ni  Ni33  1  0.16873399  0.83568955  0.50081014  1
  Cr  Cr34  1  0.00220594  0.66940605  0.66828239  1
  Ni  Ni35  1  0.16836451  0.83602628  0.83244998  1
  Fe  Fe36  1  0.49727474  0.16607107  0.49963734  1
  Fe  Fe37  1  0.33349597  0.99905507  0.66787983  1
  Ni  Ni38  1  0.50111202  0.16510031  0.83440500  1
  Ni  Ni39  1  0.49778600  0.50288111  0.49959058  1
  Cr  Cr40  1  0.33428168  0.33378999  0.66656976  1
  Ni  Ni41  1  0.50068081  0.50114594  0.83454098  1
  Cr  Cr42  1  0.49985663  0.83288475  0.49992300  1
  Ni  Ni43  1  0.33444852  0.66711759  0.66764450  1
  Ni  Ni44  1  0.50025487  0.83475562  0.83382243  1
  Cr  Cr45  1  0.83508292  0.16435342  0.49912800  1
  Ni  Ni46  1  0.66754978  0.99876897  0.66817657  1
  Ni  Ni47  1  0.83267086  0.16457226  0.83502951  1
  Cr  Cr48  1  0.83281719  0.50173702  0.50055051  1
  Cr  Cr49  1  0.66409601  0.33239959  0.66879405  1
  Ni  Ni50  1  0.83143422  0.50052603  0.83450175  1
  Fe  Fe51  1  0.83437701  0.83432628  0.50049957  1
  Ni  Ni52  1  0.66464448  0.66944654  0.66920079  1
  Ni  Ni53  1  0.83263659  0.83620087  0.83293611  1
" 