4992,Ni65Fe11Cr23_6,-231.60776535287, 176.442792233917,Ni65Fe11Cr23,"# generated using pymatgen
 data_Cr13Fe6Ni35
_symmetry_space_group_name_H-M   'P 1'
_cell_length_a   7.46415893
_cell_length_b   7.46415893
_cell_length_c   10.55591480
_cell_angle_alpha   90.00000000
_cell_angle_beta   90.00000000
_cell_angle_gamma   90.00000000
_symmetry_Int_Tables_number   1
_chemical_formula_structural   Cr13Fe6Ni35
_chemical_formula_sum   'Cr13 Fe6 Ni35'
_cell_volume   588.10873881
_cell_formula_units_Z   1
loop_
 _symmetry_equiv_pos_site_id
 _symmetry_equiv_pos_as_xyz
  1  'x, y, z'
loop_
 _atom_site_type_symbol
 _atom_site_label
 _atom_site_symmetry_multiplicity
 _atom_site_fract_x
 _atom_site_fract_y
 _atom_site_fract_z
 _atom_site_occupancy
  Ni  Ni0  1  0.00166887  0.00191407  0.99886548  1
  Ni  Ni1  1  0.16705533  0.16942062  0.16461783  1
  Ni  Ni2  1  0.99809952  0.00153638  0.33497844  1
  Ni  Ni3  1  0.00110465  0.33243003  0.99901167  1
  Ni  Ni4  1  0.16890619  0.49584748  0.16797120  1
  Ni  Ni5  1  0.00110115  0.33242512  0.33442170  1
  Cr  Cr6  1  0.99734377  0.66625359  1.00014059  1
  Cr  Cr7  1  0.16680999  0.83555941  0.16747306  1
  Cr  Cr8  1  0.00088208  0.66651973  0.33395916  1
  Ni  Ni9  1  0.33192294  0.00225252  0.99948322  1
  Fe  Fe10  1  0.49868955  0.16898075  0.16713595  1
  Cr  Cr11  1  0.33379645  0.00197732  0.33360515  1
  Ni  Ni12  1  0.33174527  0.33134418  0.00273052  1
  Ni  Ni13  1  0.49999510  0.49944139  0.16679259  1
  Ni  Ni14  1  0.33354837  0.33491156  0.33301534  1
  Cr  Cr15  1  0.33512495  0.66697516  0.00119006  1
  Ni  Ni16  1  0.50140534  0.83181120  0.16579100  1
  Ni  Ni17  1  0.33321552  0.66347042  0.33361589  1
  Cr  Cr18  1  0.66659713  0.99797128  0.00029793  1
  Cr  Cr19  1  0.83551397  0.16756068  0.16833195  1
  Ni  Ni20  1  0.66907832  0.00187008  0.33373197  1
  Ni  Ni21  1  0.66773160  0.33580660  0.00114658  1
  Ni  Ni22  1  0.83167806  0.49890266  0.16461717  1
  Ni  Ni23  1  0.66593041  0.33223644  0.33460366  1
  Ni  Ni24  1  0.66806897  0.66641619  0.00101003  1
  Ni  Ni25  1  0.83157950  0.83366776  0.16677763  1
  Cr  Cr26  1  0.66674859  0.66658254  0.33179096  1
  Ni  Ni27  1  0.16640235  0.16766543  0.50058529  1
  Cr  Cr28  1  0.00114760  0.99926192  0.66647799  1
  Fe  Fe29  1  0.16640767  0.16594034  0.83495009  1
  Fe  Fe30  1  0.16774315  0.49934110  0.50034500  1
  Fe  Fe31  1  0.99993012  0.33516294  0.66639401  1
  Fe  Fe32  1  0.16557643  0.49966258  0.83251270  1
  Ni  Ni33  1  0.16597962  0.83341614  0.50117031  1
  Ni  Ni34  1  0.00020869  0.66603816  0.66674211  1
  Ni  Ni35  1  0.16738260  0.83469042  0.83263159  1
  Ni  Ni36  1  0.50018325  0.17113245  0.49994574  1
  Ni  Ni37  1  0.33196450  1.00012299  0.66756806  1
  Cr  Cr38  1  0.49919473  0.16743640  0.83366671  1
  Ni  Ni39  1  0.49979782  0.49739428  0.50095314  1
  Ni  Ni40  1  0.33307760  0.33379794  0.66483369  1
  Cr  Cr41  1  0.50140443  0.50126979  0.83255247  1
  Cr  Cr42  1  0.49853464  0.83187457  0.50210854  1
  Ni  Ni43  1  0.33169139  0.66665862  0.66650878  1
  Ni  Ni44  1  0.49849942  0.83205209  0.83289252  1
  Ni  Ni45  1  0.83399453  0.16896569  0.49827826  1
  Cr  Cr46  1  0.66666444  0.00055721  0.66608328  1
  Ni  Ni47  1  0.83646813  0.16901979  0.83433067  1
  Ni  Ni48  1  0.83263274  0.49781545  0.50267572  1
  Ni  Ni49  1  0.66738169  0.33544545  0.66483049  1
  Fe  Fe50  1  0.83336265  0.50039451  0.83293437  1
  Ni  Ni51  1  0.83610063  0.83380042  0.49976832  1
  Ni  Ni52  1  0.66867938  0.66492776  0.66757006  1
  Ni  Ni53  1  0.83469737  0.83251959  0.83403252  1
" 