5706,Ni65Fe35_17,-236.936722002202, 208.292862458997,Ni65Fe35,"# generated using pymatgen
 data_Fe35Ni19
_symmetry_space_group_name_H-M   'P 1'
_cell_length_a   7.38994385
_cell_length_b   7.38994385
_cell_length_c   10.45095881
_cell_angle_alpha   90.00000000
_cell_angle_beta   90.00000000
_cell_angle_gamma   90.00000000
_symmetry_Int_Tables_number   1
_chemical_formula_structural   Fe35Ni19
_chemical_formula_sum   'Fe35 Ni19'
_cell_volume   570.74013424
_cell_formula_units_Z   1
loop_
 _symmetry_equiv_pos_site_id
 _symmetry_equiv_pos_as_xyz
  1  'x, y, z'
loop_
 _atom_site_type_symbol
 _atom_site_label
 _atom_site_symmetry_multiplicity
 _atom_site_fract_x
 _atom_site_fract_y
 _atom_site_fract_z
 _atom_site_occupancy
  Ni  Ni0  1  0.00576726  0.00614401  0.00570600  1
  Fe  Fe1  1  0.17296503  0.17111918  0.17208026  1
  Fe  Fe2  1  0.00533953  0.00589667  0.33891300  1
  Ni  Ni3  1  1.00417599  0.33772928  0.00609630  1
  Fe  Fe4  1  0.17267937  0.50585628  0.17180343  1
  Fe  Fe5  1  0.00578155  0.33823635  0.33919346  1
  Fe  Fe6  1  0.00598421  0.67256247  0.00597818  1
  Fe  Fe7  1  0.17296478  0.83867418  0.17152182  1
  Ni  Ni8  1  1.00438415  0.67227270  0.33884577  1
  Ni  Ni9  1  0.33856607  1.00411912  1.00504403  1
  Ni  Ni10  1  0.50445953  0.17223815  0.17252606  1
  Ni  Ni11  1  0.33889744  0.00555844  0.33854462  1
  Fe  Fe12  1  0.33818463  0.33794618  0.00573335  1
  Ni  Ni13  1  0.50444990  0.50519830  0.17143758  1
  Ni  Ni14  1  0.34010051  0.33743325  0.33809389  1
  Ni  Ni15  1  0.34014431  0.67298283  0.00598011  1
  Ni  Ni16  1  0.50567137  0.83821189  0.17088948  1
  Fe  Fe17  1  0.33914764  0.67144428  0.33795104  1
  Fe  Fe18  1  0.67156199  0.00522207  0.00553778  1
  Fe  Fe19  1  0.83730536  0.17176317  0.17200367  1
  Fe  Fe20  1  0.67127981  0.00541658  0.33834978  1
  Fe  Fe21  1  0.67119701  0.33778590  0.00581557  1
  Fe  Fe22  1  0.83730431  0.50549796  0.17208718  1
  Ni  Ni23  1  0.67117706  0.33901150  0.33910837  1
  Fe  Fe24  1  0.67184939  0.67264229  1.00517472  1
  Ni  Ni25  1  0.83883558  0.83821410  0.17197713  1
  Fe  Fe26  1  0.67100178  0.67188627  0.33870668  1
  Ni  Ni27  1  0.17053260  0.17273241  0.50581682  1
  Ni  Ni28  1  0.00562631  0.00632534  0.67150289  1
  Fe  Fe29  1  0.17159585  0.17168396  0.83819207  1
  Fe  Fe30  1  0.17160575  0.50461427  0.50509507  1
  Ni  Ni31  1  1.00486695  0.33734583  0.67086415  1
  Fe  Fe32  1  0.17215619  0.50453335  0.83875502  1
  Fe  Fe33  1  0.17161080  0.83972025  0.50509685  1
  Fe  Fe34  1  1.00472815  0.67180191  0.67140533  1
  Fe  Fe35  1  0.17244000  0.83943264  0.83903485  1
  Fe  Fe36  1  0.50493336  0.17167440  0.50453489  1
  Fe  Fe37  1  0.33842961  0.00533565  0.67167583  1
  Ni  Ni38  1  0.50485480  0.17195499  0.83779301  1
  Fe  Fe39  1  0.50549624  0.50454037  0.50470370  1
  Fe  Fe40  1  0.33806331  0.33831333  0.67148191  1
  Fe  Fe41  1  0.50529970  0.50529986  0.83886639  1
  Ni  Ni42  1  0.50532862  0.83771738  0.50526628  1
  Fe  Fe43  1  0.33827372  0.67200187  0.67232477  1
  Fe  Fe44  1  0.50493708  0.83858709  0.83850187  1
  Ni  Ni45  1  0.84016396  0.17233746  0.50554269  1
  Fe  Fe46  1  0.67264863  0.00532562  0.67175887  1
  Fe  Fe47  1  0.83903823  0.17204672  0.83799012  1
  Fe  Fe48  1  0.83854671  0.50481753  0.50538294  1
  Fe  Fe49  1  0.67284635  0.33815508  0.67156382  1
  Fe  Fe50  1  0.83819292  0.50445362  0.83818332  1
  Fe  Fe51  1  0.83890433  0.83915213  0.50510587  1
  Ni  Ni52  1  0.67113576  0.67159129  0.67142493  1
  Fe  Fe53  1  0.83827588  0.83914966  0.83874383  1
" 