6989,Ni65Fe24Cr10_11,-237.949029482953, 202.717400403793,Ni65Fe24Cr10,"# generated using pymatgen
 data_Cr6Fe13Ni35
_symmetry_space_group_name_H-M   'P 1'
_cell_length_a   7.43127724
_cell_length_b   7.43127724
_cell_length_c   10.50941306
_cell_angle_alpha   90.00000000
_cell_angle_beta   90.00000000
_cell_angle_gamma   90.00000000
_symmetry_Int_Tables_number   1
_chemical_formula_structural   Cr6Fe13Ni35
_chemical_formula_sum   'Cr6 Fe13 Ni35'
_cell_volume   580.37058054
_cell_formula_units_Z   1
loop_
 _symmetry_equiv_pos_site_id
 _symmetry_equiv_pos_as_xyz
  1  'x, y, z'
loop_
 _atom_site_type_symbol
 _atom_site_label
 _atom_site_symmetry_multiplicity
 _atom_site_fract_x
 _atom_site_fract_y
 _atom_site_fract_z
 _atom_site_occupancy
  Fe  Fe0  1  0.00281438  1.00020502  1.00171199  1
  Ni  Ni1  1  0.17376928  0.16798435  0.16806301  1
  Cr  Cr2  1  0.00388115  1.00154945  0.33496614  1
  Cr  Cr3  1  0.00385913  0.33576079  1.00181047  1
  Ni  Ni4  1  0.17078300  0.50444244  0.17000559  1
  Cr  Cr5  1  0.00393832  0.33664714  0.33718725  1
  Fe  Fe6  1  1.00204300  0.67064857  1.00221789  1
  Ni  Ni7  1  0.16966074  0.83479039  0.16770816  1
  Fe  Fe8  1  0.00255912  0.66786587  0.33589284  1
  Ni  Ni9  1  0.33501538  1.00234034  0.00442403  1
  Ni  Ni10  1  0.50060380  0.16906227  0.16947411  1
  Fe  Fe11  1  0.33767069  0.00279088  0.33541867  1
  Ni  Ni12  1  0.33531324  0.33558397  0.00416959  1
  Ni  Ni13  1  0.50205001  0.50182173  0.16859830  1
  Ni  Ni14  1  0.33718153  0.33601193  0.33502507  1
  Fe  Fe15  1  0.33682412  0.66917495  0.00255313  1
  Ni  Ni16  1  0.50209491  0.83633733  0.16929954  1
  Ni  Ni17  1  0.33727122  0.66868666  0.33541506  1
  Ni  Ni18  1  0.66912139  0.99879849  0.00250080  1
  Cr  Cr19  1  0.83233070  0.16849085  0.16792185  1
  Fe  Fe20  1  0.66600091  1.00209925  0.33569364  1
  Fe  Fe21  1  0.66682594  0.33708009  1.00228116  1
  Ni  Ni22  1  0.83438810  0.50593155  0.16915046  1
  Ni  Ni23  1  0.66672069  0.33792942  0.33525211  1
  Ni  Ni24  1  0.66943856  0.67014824  0.00262622  1
  Ni  Ni25  1  0.83546694  0.83334834  0.16843465  1
  Ni  Ni26  1  0.66850501  0.66864731  0.33521398  1
  Ni  Ni27  1  0.17083332  0.16832642  0.50457442  1
  Ni  Ni28  1  0.00308412  0.00293101  0.67043974  1
  Fe  Fe29  1  0.16855835  0.16861625  0.83498345  1
  Ni  Ni30  1  0.16980358  0.50433413  0.50321506  1
  Fe  Fe31  1  0.00287366  0.33607373  0.66894337  1
  Ni  Ni32  1  0.16988836  0.50403224  0.83400005  1
  Ni  Ni33  1  0.16970415  0.83456048  0.50379206  1
  Ni  Ni34  1  0.00342311  0.66986128  0.66847432  1
  Fe  Fe35  1  0.16889515  0.83518663  0.83476898  1
  Ni  Ni36  1  0.50311949  0.16926979  0.50196402  1
  Ni  Ni37  1  0.33316138  1.00218207  0.66764709  1
  Cr  Cr38  1  0.50330104  0.16905012  0.83575697  1
  Ni  Ni39  1  0.50153040  0.50076529  0.50202008  1
  Ni  Ni40  1  0.33484975  0.33606107  0.66802680  1
  Ni  Ni41  1  0.50089785  0.50321942  0.83660151  1
  Fe  Fe42  1  0.50066142  0.83603914  0.50171011  1
  Ni  Ni43  1  0.33444717  0.66897715  0.67002019  1
  Ni  Ni44  1  0.50170857  0.83529442  0.83608948  1
  Ni  Ni45  1  0.83326617  0.16917328  0.50498113  1
  Fe  Fe46  1  0.66961412  0.00340945  0.66918626  1
  Ni  Ni47  1  0.83593608  0.16758477  0.83426374  1
  Ni  Ni48  1  0.83588814  0.50189506  0.50238336  1
  Ni  Ni49  1  0.67009018  0.33572206  0.66895952  1
  Ni  Ni50  1  0.83643276  0.50249966  0.83568466  1
  Fe  Fe51  1  0.83666963  0.83562471  0.50255760  1
  Cr  Cr52  1  0.66844999  0.66796156  0.66931712  1
  Ni  Ni53  1  0.83674503  0.83713541  0.83658744  1
" 