6384,Ni65Fe17Cr16_3,-234.463735383505, 184.614710579334,Ni65Fe17Cr16,"# generated using pymatgen
 data_Cr10Fe9Ni35
_symmetry_space_group_name_H-M   'P 1'
_cell_length_a   7.45184930
_cell_length_b   7.45184930
_cell_length_c   10.53850635
_cell_angle_alpha   90.00000000
_cell_angle_beta   90.00000000
_cell_angle_gamma   90.00000000
_symmetry_Int_Tables_number   1
_chemical_formula_structural   Cr10Fe9Ni35
_chemical_formula_sum   'Cr10 Fe9 Ni35'
_cell_volume   585.20386899
_cell_formula_units_Z   1
loop_
 _symmetry_equiv_pos_site_id
 _symmetry_equiv_pos_as_xyz
  1  'x, y, z'
loop_
 _atom_site_type_symbol
 _atom_site_label
 _atom_site_symmetry_multiplicity
 _atom_site_fract_x
 _atom_site_fract_y
 _atom_site_fract_z
 _atom_site_occupancy
  Cr  Cr0  1  0.00185607  0.99953254  1.00009459  1
  Fe  Fe1  1  0.17042485  0.16734391  0.17035495  1
  Ni  Ni2  1  0.00255985  0.00137717  0.33546514  1
  Cr  Cr3  1  0.99897045  0.33544224  0.99930974  1
  Ni  Ni4  1  0.16618171  0.50326080  0.16950096  1
  Ni  Ni5  1  0.00264856  0.33455509  0.33581323  1
  Ni  Ni6  1  0.99958490  0.66727946  0.00386215  1
  Ni  Ni7  1  0.16880311  0.83381470  0.16719157  1
  Fe  Fe8  1  0.99921097  0.66878762  0.33368601  1
  Ni  Ni9  1  0.33669509  0.99991292  0.00198659  1
  Ni  Ni10  1  0.50045772  0.16505586  0.16845789  1
  Ni  Ni11  1  0.33333617  0.00175259  0.33382710  1
  Cr  Cr12  1  0.33720699  0.33341066  0.00275200  1
  Ni  Ni13  1  0.50201391  0.50236556  0.16632409  1
  Fe  Fe14  1  0.33355179  0.33234791  0.33384869  1
  Ni  Ni15  1  0.33607934  0.66909725  0.00202501  1
  Ni  Ni16  1  0.50019035  0.83548124  0.16638302  1
  Cr  Cr17  1  0.33537023  0.66829185  0.33436846  1
  Ni  Ni18  1  0.66483853  1.00062601  0.99964753  1
  Cr  Cr19  1  0.83245553  0.16773456  0.16795984  1
  Ni  Ni20  1  0.66706463  0.99903597  0.33588497  1
  Ni  Ni21  1  0.66675222  0.33565583  1.00011888  1
  Ni  Ni22  1  0.83483384  0.50294308  0.16728090  1
  Cr  Cr23  1  0.66687420  0.33589216  0.33424698  1
  Ni  Ni24  1  0.66726741  0.66667721  1.00039574  1
  Fe  Fe25  1  0.83222176  0.83159876  0.16790758  1
  Ni  Ni26  1  0.66849888  0.66825978  0.33490710  1
  Ni  Ni27  1  0.16617289  0.16645098  0.50044786  1
  Ni  Ni28  1  0.00127224  0.00384050  0.66717035  1
  Ni  Ni29  1  0.16788389  0.16636915  0.83220710  1
  Fe  Fe30  1  0.16795771  0.49967266  0.50069951  1
  Fe  Fe31  1  0.00104310  0.33151485  0.66655687  1
  Cr  Cr32  1  0.16864493  0.50146022  0.83269996  1
  Ni  Ni33  1  0.16904630  0.83705296  0.50122127  1
  Cr  Cr34  1  0.99939843  0.66859096  0.66574043  1
  Cr  Cr35  1  0.17070398  0.83542931  0.83480806  1
  Fe  Fe36  1  0.49984160  0.16529814  0.50087682  1
  Ni  Ni37  1  0.33406362  0.00133841  0.66726222  1
  Ni  Ni38  1  0.50181020  0.16538595  0.83447312  1
  Ni  Ni39  1  0.50128369  0.50339952  0.50197202  1
  Fe  Fe40  1  0.33465075  0.33295376  0.66736359  1
  Ni  Ni41  1  0.50329415  0.50311150  0.83489052  1
  Ni  Ni42  1  0.50063165  0.83418951  0.50229040  1
  Ni  Ni43  1  0.33739602  0.66790849  0.66654243  1
  Ni  Ni44  1  0.50254725  0.83446440  0.83432624  1
  Ni  Ni45  1  0.83716144  0.16697437  0.50149710  1
  Ni  Ni46  1  0.66768764  1.00028851  0.66753131  1
  Ni  Ni47  1  0.83339716  0.16702995  0.83314637  1
  Ni  Ni48  1  0.83425348  0.50043074  0.49966792  1
  Cr  Cr49  1  0.66810984  0.33473717  0.66904095  1
  Ni  Ni50  1  0.83168564  0.50119700  0.83606332  1
  Fe  Fe51  1  0.83299233  0.83577579  0.50094473  1
  Ni  Ni52  1  0.66536137  0.66789713  0.66773776  1
  Ni  Ni53  1  0.83082706  0.83477279  0.83428851  1
" 