1291,Ni65Fe24Cr10_8,-238.193006591954, 201.398557271645,Ni65Fe24Cr10,"# generated using pymatgen
 data_Cr6Fe13Ni35
_symmetry_space_group_name_H-M   'P 1'
_cell_length_a   7.43241896
_cell_length_b   7.43241896
_cell_length_c   10.51102769
_cell_angle_alpha   90.00000000
_cell_angle_beta   90.00000000
_cell_angle_gamma   90.00000000
_symmetry_Int_Tables_number   1
_chemical_formula_structural   Cr6Fe13Ni35
_chemical_formula_sum   'Cr6 Fe13 Ni35'
_cell_volume   580.63812040
_cell_formula_units_Z   1
loop_
 _symmetry_equiv_pos_site_id
 _symmetry_equiv_pos_as_xyz
  1  'x, y, z'
loop_
 _atom_site_type_symbol
 _atom_site_label
 _atom_site_symmetry_multiplicity
 _atom_site_fract_x
 _atom_site_fract_y
 _atom_site_fract_z
 _atom_site_occupancy
  Cr  Cr0  1  1.00068622  1.00212887  0.00299718  1
  Ni  Ni1  1  0.16901804  0.17115947  0.17070955  1
  Fe  Fe2  1  0.00268186  0.00414575  0.33451352  1
  Ni  Ni3  1  1.00210814  0.33657996  1.00224612  1
  Ni  Ni4  1  0.16901861  0.50230614  0.16895082  1
  Ni  Ni5  1  0.00289739  0.33439939  0.33659781  1
  Ni  Ni6  1  1.00209922  0.66836032  0.00243547  1
  Ni  Ni7  1  0.17016130  0.83351905  0.16974564  1
  Fe  Fe8  1  0.00262514  0.66672210  0.33444579  1
  Cr  Cr9  1  0.33554930  0.00288064  0.00329906  1
  Ni  Ni10  1  0.50350714  0.16902298  0.16927662  1
  Fe  Fe11  1  0.33592724  0.00348812  0.33436729  1
  Ni  Ni12  1  0.33601739  0.33743510  0.00273591  1
  Fe  Fe13  1  0.50179212  0.50233668  0.16812910  1
  Ni  Ni14  1  0.33377960  0.33490043  0.33497934  1
  Ni  Ni15  1  0.33519631  0.66667312  0.00355863  1
  Ni  Ni16  1  0.50299361  0.83502124  0.16956717  1
  Ni  Ni17  1  0.33613690  0.66939683  0.33381166  1
  Ni  Ni18  1  0.67054369  0.00287676  0.00313237  1
  Ni  Ni19  1  0.83446649  0.17016720  0.16922663  1
  Fe  Fe20  1  0.66838423  0.00275112  0.33472681  1
  Ni  Ni21  1  0.66886329  0.33535352  0.00300365  1
  Ni  Ni22  1  0.83596775  0.50179040  0.16809827  1
  Fe  Fe23  1  0.67005938  0.33514834  0.33480618  1
  Ni  Ni24  1  0.66969417  0.66876256  0.00383153  1
  Ni  Ni25  1  0.83383262  0.83502519  0.16970381  1
  Fe  Fe26  1  0.66940361  0.66909347  0.33489144  1
  Ni  Ni27  1  0.16855905  0.17190245  0.50164082  1
  Cr  Cr28  1  1.00168574  0.00299705  0.67040382  1
  Ni  Ni29  1  0.16850943  0.17218242  0.83463963  1
  Ni  Ni30  1  0.16720280  0.50017379  0.50313744  1
  Ni  Ni31  1  0.00260098  0.33630751  0.66814402  1
  Ni  Ni32  1  0.16990606  0.50200702  0.83489009  1
  Cr  Cr33  1  0.17142547  0.83414777  0.50243669  1
  Ni  Ni34  1  1.00149191  0.66768064  0.66910418  1
  Ni  Ni35  1  0.16849139  0.83280298  0.83504888  1
  Fe  Fe36  1  0.50193132  0.16848316  0.50207302  1
  Fe  Fe37  1  0.33657891  0.00372564  0.66900855  1
  Fe  Fe38  1  0.50281925  0.17194513  0.83568949  1
  Cr  Cr39  1  0.50191446  0.50365529  0.50236783  1
  Ni  Ni40  1  0.33510235  0.33499229  0.66927173  1
  Ni  Ni41  1  0.50158877  0.50146715  0.83639294  1
  Ni  Ni42  1  0.50363421  0.83662350  0.50295269  1
  Ni  Ni43  1  0.33548234  0.66826718  0.66961852  1
  Cr  Cr44  1  0.50308655  0.83351294  0.83496291  1
  Ni  Ni45  1  0.83539469  0.17096555  0.50144212  1
  Fe  Fe46  1  0.66878206  0.00299242  0.66858723  1
  Ni  Ni47  1  0.83458776  0.17039907  0.83632076  1
  Ni  Ni48  1  0.83710317  0.50076196  0.50374673  1
  Ni  Ni49  1  0.66928281  0.33487954  0.66910844  1
  Fe  Fe50  1  0.83641382  0.50257317  0.83552773  1
  Fe  Fe51  1  0.83366489  0.83429486  0.50220132  1
  Ni  Ni52  1  0.67001576  0.66949766  0.66800342  1
  Ni  Ni53  1  0.83512995  0.83511380  0.83528833  1
" 