917,Ni65Fe24Cr10_12,-237.508420725027, 204.387997248966,Ni65Fe24Cr10,"# generated using pymatgen
 data_Cr6Fe13Ni35
_symmetry_space_group_name_H-M   'P 1'
_cell_length_a   7.42527571
_cell_length_b   7.42527571
_cell_length_c   10.50092561
_cell_angle_alpha   90.00000000
_cell_angle_beta   90.00000000
_cell_angle_gamma   90.00000000
_symmetry_Int_Tables_number   1
_chemical_formula_structural   Cr6Fe13Ni35
_chemical_formula_sum   'Cr6 Fe13 Ni35'
_cell_volume   578.96558587
_cell_formula_units_Z   1
loop_
 _symmetry_equiv_pos_site_id
 _symmetry_equiv_pos_as_xyz
  1  'x, y, z'
loop_
 _atom_site_type_symbol
 _atom_site_label
 _atom_site_symmetry_multiplicity
 _atom_site_fract_x
 _atom_site_fract_y
 _atom_site_fract_z
 _atom_site_occupancy
  Ni  Ni0  1  1.00059798  0.00371079  1.00212538  1
  Cr  Cr1  1  0.16767027  0.16865749  0.16876193  1
  Ni  Ni2  1  1.00111659  1.00238457  0.33765125  1
  Ni  Ni3  1  1.00106916  0.33680249  1.00216061  1
  Ni  Ni4  1  0.16740615  0.50525279  0.16913154  1
  Ni  Ni5  1  1.00049610  0.33735466  0.33650960  1
  Ni  Ni6  1  1.00204239  0.66792869  1.00240692  1
  Cr  Cr7  1  0.16949235  0.83469702  0.17001122  1
  Ni  Ni8  1  1.00059327  0.66869705  0.33658944  1
  Ni  Ni9  1  0.33836663  1.00227774  1.00173495  1
  Ni  Ni10  1  0.50677272  0.16778604  0.17002715  1
  Ni  Ni11  1  0.33796736  1.00171492  0.33772154  1
  Cr  Cr12  1  0.33639648  0.33720497  1.00133626  1
  Ni  Ni13  1  0.50430002  0.50310799  0.17030815  1
  Cr  Cr14  1  0.33663426  0.33658105  0.33713992  1
  Ni  Ni15  1  0.33688348  0.66940323  0.00358184  1
  Fe  Fe16  1  0.50335201  0.83687312  0.17043239  1
  Fe  Fe17  1  0.33718130  0.66992850  0.33700189  1
  Fe  Fe18  1  0.66953524  0.00412202  0.00300726  1
  Ni  Ni19  1  0.83391867  0.17007123  0.16958539  1
  Ni  Ni20  1  0.66935790  1.00182083  0.33546307  1
  Fe  Fe21  1  0.67108301  0.33480732  0.00314816  1
  Ni  Ni22  1  0.83673208  0.50115888  0.17062521  1
  Ni  Ni23  1  0.67082665  0.33707205  0.33499430  1
  Cr  Cr24  1  0.66932632  0.66932848  1.00247869  1
  Fe  Fe25  1  0.83569244  0.83663152  0.17066695  1
  Ni  Ni26  1  0.67015857  0.66954748  0.33641715  1
  Ni  Ni27  1  0.16867093  0.16830128  0.50368630  1
  Ni  Ni28  1  1.00225058  0.00369087  0.66865827  1
  Fe  Fe29  1  0.16893421  0.17023003  0.83477608  1
  Ni  Ni30  1  0.16837533  0.50244565  0.50306900  1
  Ni  Ni31  1  1.00278501  0.33585623  0.66976248  1
  Ni  Ni32  1  0.16826043  0.50219677  0.83623901  1
  Fe  Fe33  1  0.16956120  0.83580264  0.50271409  1
  Fe  Fe34  1  1.00248207  0.66779825  0.66883407  1
  Cr  Cr35  1  0.16958285  0.83598833  0.83607145  1
  Fe  Fe36  1  0.50346650  0.16919042  0.50352095  1
  Ni  Ni37  1  0.33666877  0.00337552  0.66898524  1
  Ni  Ni38  1  0.50338604  0.16836822  0.83537608  1
  Ni  Ni39  1  0.50373610  0.50385371  0.50381215  1
  Ni  Ni40  1  0.33659344  0.33663151  0.67009197  1
  Ni  Ni41  1  0.50279927  0.50197873  0.83432252  1
  Ni  Ni42  1  0.50291610  0.83660828  0.50242117  1
  Ni  Ni43  1  0.33830579  0.66843006  0.66900519  1
  Ni  Ni44  1  0.50308995  0.83809559  0.83623310  1
  Fe  Fe45  1  0.83651877  0.17024013  0.50204812  1
  Fe  Fe46  1  0.66876828  0.00294449  0.66945996  1
  Fe  Fe47  1  0.83603095  0.17004348  0.83649654  1
  Ni  Ni48  1  0.83632741  0.50300603  0.50231192  1
  Ni  Ni49  1  0.66905864  0.33749178  0.66994626  1
  Ni  Ni50  1  0.83738189  0.50190147  0.83549609  1
  Ni  Ni51  1  0.83600690  0.83631173  0.50233358  1
  Fe  Fe52  1  0.66901519  0.66915315  0.66921070  1
  Ni  Ni53  1  0.83595020  0.83703493  0.83599176  1
" 