5687,Ni65Fe24Cr10_5,-238.325810240038, 204.19611463644,Ni65Fe24Cr10,"# generated using pymatgen
 data_Cr6Fe13Ni35
_symmetry_space_group_name_H-M   'P 1'
_cell_length_a   7.43378610
_cell_length_b   7.43378610
_cell_length_c   10.51296112
_cell_angle_alpha   90.00000000
_cell_angle_beta   90.00000000
_cell_angle_gamma   90.00000000
_symmetry_Int_Tables_number   1
_chemical_formula_structural   Cr6Fe13Ni35
_chemical_formula_sum   'Cr6 Fe13 Ni35'
_cell_volume   580.95859180
_cell_formula_units_Z   1
loop_
 _symmetry_equiv_pos_site_id
 _symmetry_equiv_pos_as_xyz
  1  'x, y, z'
loop_
 _atom_site_type_symbol
 _atom_site_label
 _atom_site_symmetry_multiplicity
 _atom_site_fract_x
 _atom_site_fract_y
 _atom_site_fract_z
 _atom_site_occupancy
  Ni  Ni0  1  0.00400901  0.00259444  1.00065608  1
  Ni  Ni1  1  0.16930030  0.17025743  0.16850452  1
  Ni  Ni2  1  1.00203358  0.00340093  0.33712571  1
  Cr  Cr3  1  0.00268925  0.33449606  1.00063306  1
  Ni  Ni4  1  0.17071428  0.50075294  0.16991491  1
  Ni  Ni5  1  1.00208877  0.33546322  0.33667677  1
  Cr  Cr6  1  1.00084944  0.66967184  0.00231546  1
  Cr  Cr7  1  0.17002894  0.83567244  0.16922236  1
  Fe  Fe8  1  1.00098837  0.66706895  0.33689741  1
  Ni  Ni9  1  0.33521544  0.00329974  1.00122648  1
  Fe  Fe10  1  0.50088437  0.17097637  0.16770810  1
  Cr  Cr11  1  0.33491245  0.00272534  0.33669871  1
  Ni  Ni12  1  0.33767196  0.33438321  0.00353660  1
  Ni  Ni13  1  0.50245435  0.50382489  0.16899376  1
  Fe  Fe14  1  0.33482408  0.33741916  0.33504261  1
  Ni  Ni15  1  0.33881721  0.66902856  1.00115803  1
  Ni  Ni16  1  0.50374385  0.83338450  0.16741749  1
  Ni  Ni17  1  0.33709198  0.66735925  0.33646664  1
  Fe  Fe18  1  0.66714192  1.00146694  1.00065888  1
  Cr  Cr19  1  0.83596696  0.16904502  0.16972151  1
  Fe  Fe20  1  0.66984409  1.00116246  0.33758490  1
  Ni  Ni21  1  0.66618315  0.33739033  1.00135676  1
  Ni  Ni22  1  0.83354272  0.50294728  0.17074277  1
  Ni  Ni23  1  0.66953109  0.33789838  0.33638356  1
  Ni  Ni24  1  0.66688680  0.66787771  0.00248695  1
  Fe  Fe25  1  0.83359919  0.83400460  0.17013284  1
  Ni  Ni26  1  0.66867296  0.66741040  0.33523776  1
  Ni  Ni27  1  0.16847917  0.17068291  0.50166785  1
  Cr  Cr28  1  0.00340426  0.00229529  0.66891615  1
  Ni  Ni29  1  0.16953842  0.16747064  0.83654020  1
  Ni  Ni30  1  0.16788641  0.50213372  0.50204025  1
  Fe  Fe31  1  1.00108079  0.33691250  0.66827498  1
  Fe  Fe32  1  0.17099767  0.50214504  0.83431045  1
  Fe  Fe33  1  0.16838004  0.83465477  0.50259064  1
  Ni  Ni34  1  1.00175924  0.66729660  0.66827780  1
  Ni  Ni35  1  0.17134055  0.83630113  0.83539900  1
  Ni  Ni36  1  0.50322863  0.16797966  0.50280599  1
  Ni  Ni37  1  0.33657882  0.00254223  0.66898347  1
  Ni  Ni38  1  0.50249783  0.16829857  0.83647507  1
  Fe  Fe39  1  0.50337763  0.50195422  0.50186492  1
  Fe  Fe40  1  0.33622329  0.33479183  0.66932073  1
  Ni  Ni41  1  0.50345412  0.50322976  0.83588336  1
  Ni  Ni42  1  0.50327561  0.83544945  0.50336488  1
  Fe  Fe43  1  0.33644944  0.66990428  0.66908885  1
  Ni  Ni44  1  0.50099019  0.83518461  0.83592860  1
  Ni  Ni45  1  0.83500347  0.16966917  0.50154010  1
  Ni  Ni46  1  0.66647037  0.00281667  0.66828626  1
  Ni  Ni47  1  0.83467258  0.16993299  0.83523671  1
  Ni  Ni48  1  0.83655853  0.50217998  0.50190700  1
  Ni  Ni49  1  0.66892323  0.33632181  0.66897242  1
  Ni  Ni50  1  0.83355686  0.50142826  0.83406086  1
  Ni  Ni51  1  0.83385586  0.83485936  0.50068416  1
  Ni  Ni52  1  0.66941335  0.66757216  0.66898435  1
  Fe  Fe53  1  0.83372512  0.83581801  0.83490229  1
" 