6209,Ni65Fe28Cr5_18,-239.553831368678, 209.056967919272,Ni65Fe28Cr5,"# generated using pymatgen
 data_Cr4(Fe3Ni7)5
_symmetry_space_group_name_H-M   'P 1'
_cell_length_a   7.42198386
_cell_length_b   7.42198386
_cell_length_c   10.49627024
_cell_angle_alpha   90.00000000
_cell_angle_beta   90.00000000
_cell_angle_gamma   90.00000000
_symmetry_Int_Tables_number   1
_chemical_formula_structural   Cr4(Fe3Ni7)5
_chemical_formula_sum   'Cr4 Fe15 Ni35'
_cell_volume   578.19590964
_cell_formula_units_Z   1
loop_
 _symmetry_equiv_pos_site_id
 _symmetry_equiv_pos_as_xyz
  1  'x, y, z'
loop_
 _atom_site_type_symbol
 _atom_site_label
 _atom_site_symmetry_multiplicity
 _atom_site_fract_x
 _atom_site_fract_y
 _atom_site_fract_z
 _atom_site_occupancy
  Ni  Ni0  1  1.00210538  0.00378581  0.00374896  1
  Ni  Ni1  1  0.17124424  0.16894017  0.16957118  1
  Fe  Fe2  1  0.00443893  1.00097354  0.33584551  1
  Ni  Ni3  1  1.00148806  0.33546980  0.00409833  1
  Fe  Fe4  1  0.16954862  0.50379763  0.16994921  1
  Ni  Ni5  1  1.00289584  0.33494798  0.33504587  1
  Ni  Ni6  1  1.00269266  0.66958856  0.00365071  1
  Ni  Ni7  1  0.17011277  0.83691829  0.16915116  1
  Ni  Ni8  1  0.00321640  0.66816667  0.33617847  1
  Ni  Ni9  1  0.33789741  1.00242774  1.00176784  1
  Ni  Ni10  1  0.50203275  0.16950924  0.17011287  1
  Ni  Ni11  1  0.33802343  1.00296767  0.33696927  1
  Fe  Fe12  1  0.33662823  0.33449089  1.00301812  1
  Fe  Fe13  1  0.50296261  0.50438872  0.16984307  1
  Fe  Fe14  1  0.33631764  0.33694890  0.33698810  1
  Ni  Ni15  1  0.33847778  0.67082067  0.00474679  1
  Ni  Ni16  1  0.50229378  0.83823997  0.16954091  1
  Ni  Ni17  1  0.33744353  0.67105297  0.33612929  1
  Ni  Ni18  1  0.66918182  0.00324971  0.00422579  1
  Fe  Fe19  1  0.83671293  0.16791199  0.16969106  1
  Fe  Fe20  1  0.66936803  1.00194678  0.33579510  1
  Fe  Fe21  1  0.66977565  0.33577859  0.00328349  1
  Ni  Ni22  1  0.83700886  0.50276691  0.16906105  1
  Fe  Fe23  1  0.66883394  0.33705106  0.33532287  1
  Fe  Fe24  1  0.67097151  0.67166533  1.00299547  1
  Ni  Ni25  1  0.83720789  0.83444127  0.17062341  1
  Ni  Ni26  1  0.66809555  0.67070134  0.33559246  1
  Fe  Fe27  1  0.17095009  0.16934447  0.50122272  1
  Ni  Ni28  1  1.00097828  0.00346377  0.66920589  1
  Fe  Fe29  1  0.17000893  0.16778395  0.83803822  1
  Ni  Ni30  1  0.17000817  0.50423938  0.50034569  1
  Cr  Cr31  1  0.00458296  0.33421175  0.67058705  1
  Cr  Cr32  1  0.16889152  0.50520648  0.83841696  1
  Ni  Ni33  1  0.16872202  0.83658828  0.50221919  1
  Ni  Ni34  1  1.00171621  0.67232549  0.66945976  1
  Ni  Ni35  1  0.16852080  0.83840273  0.83763720  1
  Ni  Ni36  1  0.50409802  0.16929300  0.50330895  1
  Fe  Fe37  1  0.33577672  0.00310880  0.66955496  1
  Ni  Ni38  1  0.50367796  0.16912658  0.83537332  1
  Ni  Ni39  1  0.50284487  0.50201179  0.50209946  1
  Ni  Ni40  1  0.33812530  0.33446436  0.66826762  1
  Ni  Ni41  1  0.50515743  0.50142360  0.83736426  1
  Ni  Ni42  1  0.50233159  0.83784281  0.50211455  1
  Cr  Cr43  1  0.33816903  0.66906818  0.66827963  1
  Ni  Ni44  1  0.50333924  0.83805322  0.83753101  1
  Ni  Ni45  1  0.83500593  0.16845395  0.50041839  1
  Ni  Ni46  1  0.66982251  1.00303204  0.66892696  1
  Ni  Ni47  1  0.83437349  0.16889641  0.83832330  1
  Cr  Cr48  1  0.83575518  0.50365428  0.50502210  1
  Fe  Fe49  1  0.66849836  0.33546775  0.67053345  1
  Ni  Ni50  1  0.83468759  0.50348850  0.83656906  1
  Fe  Fe51  1  0.83496852  0.83701673  0.50301220  1
  Ni  Ni52  1  0.66858325  0.67211758  0.67145052  1
  Ni  Ni53  1  0.83736454  0.83690070  0.83570595  1
" 