4604,Ni65Fe24Cr10_18,-238.379919797151, 204.993046313077,Ni65Fe24Cr10,"# generated using pymatgen
 data_Cr6Fe13Ni35
_symmetry_space_group_name_H-M   'P 1'
_cell_length_a   7.43452619
_cell_length_b   7.43452619
_cell_length_c   10.51400777
_cell_angle_alpha   90.00000000
_cell_angle_beta   90.00000000
_cell_angle_gamma   90.00000000
_symmetry_Int_Tables_number   1
_chemical_formula_structural   Cr6Fe13Ni35
_chemical_formula_sum   'Cr6 Fe13 Ni35'
_cell_volume   581.13212672
_cell_formula_units_Z   1
loop_
 _symmetry_equiv_pos_site_id
 _symmetry_equiv_pos_as_xyz
  1  'x, y, z'
loop_
 _atom_site_type_symbol
 _atom_site_label
 _atom_site_symmetry_multiplicity
 _atom_site_fract_x
 _atom_site_fract_y
 _atom_site_fract_z
 _atom_site_occupancy
  Cr  Cr0  1  1.00196907  0.00671167  0.00364947  1
  Ni  Ni1  1  0.17012895  0.17070506  0.16929095  1
  Fe  Fe2  1  0.00288713  0.00331800  0.33661012  1
  Ni  Ni3  1  0.00351487  0.33723187  0.00319050  1
  Ni  Ni4  1  0.16878786  0.50086414  0.16892661  1
  Ni  Ni5  1  0.00267651  0.33572032  0.33463109  1
  Fe  Fe6  1  1.00198338  0.66902860  0.00323994  1
  Ni  Ni7  1  0.17090799  0.83534498  0.17051800  1
  Ni  Ni8  1  0.00379884  0.66621822  0.33623310  1
  Ni  Ni9  1  0.33726161  1.00172567  1.00179317  1
  Ni  Ni10  1  0.50169706  0.16875775  0.16905841  1
  Fe  Fe11  1  0.33553752  0.00371538  0.33284598  1
  Fe  Fe12  1  0.33676130  0.33433239  0.00255587  1
  Ni  Ni13  1  0.50228544  0.50215337  0.16970578  1
  Ni  Ni14  1  0.33477097  0.33703893  0.33508699  1
  Fe  Fe15  1  0.33543844  0.66863313  0.00340736  1
  Ni  Ni16  1  0.50147301  0.83551364  0.16839627  1
  Ni  Ni17  1  0.33503279  0.66743039  0.33291683  1
  Ni  Ni18  1  0.66657195  1.00169287  1.00161163  1
  Ni  Ni19  1  0.83516080  0.17108509  0.17053509  1
  Ni  Ni20  1  0.66873874  0.00395630  0.33398702  1
  Fe  Fe21  1  0.66873711  0.33326938  0.00277924  1
  Ni  Ni22  1  0.83558086  0.50090293  0.16842748  1
  Ni  Ni23  1  0.66916783  0.33611618  0.33497536  1
  Ni  Ni24  1  0.66573471  0.66785937  1.00155273  1
  Cr  Cr25  1  0.83343208  0.83409732  0.17095795  1
  Ni  Ni26  1  0.66797351  0.66750120  0.33546019  1
  Ni  Ni27  1  0.17070205  0.16843593  0.50165043  1
  Ni  Ni28  1  0.00417190  1.00091069  0.66833088  1
  Ni  Ni29  1  0.17005686  0.17076498  0.83549175  1
  Ni  Ni30  1  0.16912712  0.49929267  0.49991648  1
  Cr  Cr31  1  1.00203129  0.33445674  0.66865626  1
  Ni  Ni32  1  0.16875186  0.50106940  0.83758048  1
  Fe  Fe33  1  0.16757777  0.83361491  0.49995015  1
  Fe  Fe34  1  1.00058661  0.66824012  0.66780416  1
  Fe  Fe35  1  0.16965551  0.83678386  0.83672965  1
  Fe  Fe36  1  0.50238311  0.17238845  0.50109779  1
  Fe  Fe37  1  0.33520336  0.00428763  0.67054321  1
  Ni  Ni38  1  0.50063378  0.17021723  0.83492978  1
  Ni  Ni39  1  0.50228804  0.50067307  0.50118137  1
  Ni  Ni40  1  0.33554780  0.33617526  0.66880857  1
  Ni  Ni41  1  0.50132694  0.50149353  0.83571444  1
  Cr  Cr42  1  0.50365839  0.83542351  0.49934087  1
  Cr  Cr43  1  0.33548445  0.66720433  0.66910086  1
  Ni  Ni44  1  0.50403474  0.83497749  0.83761778  1
  Fe  Fe45  1  0.83547524  0.17047370  0.50052541  1
  Cr  Cr46  1  0.67060429  0.00313476  0.67051266  1
  Ni  Ni47  1  0.83563244  0.16792635  0.83619651  1
  Ni  Ni48  1  0.83411568  0.50452649  0.50196667  1
  Ni  Ni49  1  0.66687642  0.33786668  0.66944844  1
  Fe  Fe50  1  0.83341059  0.50079385  0.83721474  1
  Ni  Ni51  1  0.83644268  0.83521724  0.50124365  1
  Ni  Ni52  1  0.66865891  0.66766692  0.66939649  1
  Ni  Ni53  1  0.83566002  0.83316820  0.83481558  1
" 