6222,Ni65Fe11Cr23_5,-231.312474120769, 168.5253426404,Ni65Fe11Cr23,"# generated using pymatgen
 data_Cr13Fe6Ni35
_symmetry_space_group_name_H-M   'P 1'
_cell_length_a   7.46445201
_cell_length_b   7.46445201
_cell_length_c   10.55632927
_cell_angle_alpha   90.00000000
_cell_angle_beta   90.00000000
_cell_angle_gamma   90.00000000
_symmetry_Int_Tables_number   1
_chemical_formula_structural   Cr13Fe6Ni35
_chemical_formula_sum   'Cr13 Fe6 Ni35'
_cell_volume   588.17801744
_cell_formula_units_Z   1
loop_
 _symmetry_equiv_pos_site_id
 _symmetry_equiv_pos_as_xyz
  1  'x, y, z'
loop_
 _atom_site_type_symbol
 _atom_site_label
 _atom_site_symmetry_multiplicity
 _atom_site_fract_x
 _atom_site_fract_y
 _atom_site_fract_z
 _atom_site_occupancy
  Cr  Cr0  1  0.99810305  0.00304362  0.00126151  1
  Ni  Ni1  1  0.16728876  0.16583244  0.16511757  1
  Ni  Ni2  1  0.00105087  0.00182293  0.33361513  1
  Ni  Ni3  1  0.99983419  0.33196979  0.00239754  1
  Ni  Ni4  1  0.16759841  0.49949194  0.16567196  1
  Ni  Ni5  1  0.00223426  0.33031366  0.33218475  1
  Cr  Cr6  1  0.99970366  0.66883596  0.00427308  1
  Ni  Ni7  1  0.17165304  0.83545560  0.16793090  1
  Cr  Cr8  1  0.00195034  0.66671622  0.33198240  1
  Ni  Ni9  1  0.33537563  0.00132336  0.00029831  1
  Ni  Ni10  1  0.50082079  0.16402050  0.16441882  1
  Ni  Ni11  1  0.33290396  0.99874428  0.33264623  1
  Ni  Ni12  1  0.33450694  0.33230129  0.00042531  1
  Ni  Ni13  1  0.49958347  0.50120859  0.16272949  1
  Cr  Cr14  1  0.33159899  0.33420251  0.33119180  1
  Ni  Ni15  1  0.33669667  0.66686222  0.00296817  1
  Ni  Ni16  1  0.49851182  0.83560073  0.16568709  1
  Ni  Ni17  1  0.33240412  0.66965225  0.33285777  1
  Ni  Ni18  1  0.66543421  0.00058994  0.00064573  1
  Ni  Ni19  1  0.83325083  0.16673926  0.16739483  1
  Ni  Ni20  1  0.66787198  0.99827626  0.33238222  1
  Ni  Ni21  1  0.66586982  0.33243847  0.00091388  1
  Ni  Ni22  1  0.83344747  0.49629638  0.16355220  1
  Cr  Cr23  1  0.66896383  0.33047057  0.32967593  1
  Ni  Ni24  1  0.66483683  0.66807705  0.00091875  1
  Fe  Fe25  1  0.83166170  0.83549303  0.16715395  1
  Cr  Cr26  1  0.66374735  0.66781265  0.33157618  1
  Ni  Ni27  1  0.16638345  0.16526209  0.50221214  1
  Ni  Ni28  1  0.99879772  0.00068926  0.66621492  1
  Fe  Fe29  1  0.16450118  0.16770191  0.83330359  1
  Ni  Ni30  1  0.16523259  0.49876778  0.50092447  1
  Ni  Ni31  1  0.00108438  0.32998116  0.66592303  1
  Cr  Cr32  1  0.16727858  0.49921692  0.83453266  1
  Ni  Ni33  1  0.16679437  0.83651862  0.50007695  1
  Ni  Ni34  1  0.99884298  0.66897430  0.66511629  1
  Cr  Cr35  1  0.16749324  0.83604201  0.83346637  1
  Cr  Cr36  1  0.50104172  0.16333975  0.49961199  1
  Ni  Ni37  1  0.33369081  0.00260315  0.66760914  1
  Fe  Fe38  1  0.50044272  0.16610165  0.83437616  1
  Cr  Cr39  1  0.49993315  0.49976290  0.50170445  1
  Ni  Ni40  1  0.33272824  0.33113401  0.66868562  1
  Fe  Fe41  1  0.50172367  0.49998389  0.83492614  1
  Ni  Ni42  1  0.50028443  0.83639573  0.50073758  1
  Cr  Cr43  1  0.33394417  0.66775541  0.66454468  1
  Fe  Fe44  1  0.50262423  0.83468305  0.83468353  1
  Fe  Fe45  1  0.83621082  0.16361534  0.50035079  1
  Ni  Ni46  1  0.66763246  0.99953548  0.66740522  1
  Ni  Ni47  1  0.83013691  0.16659389  0.83207406  1
  Cr  Cr48  1  0.83486039  0.49798701  0.50355940  1
  Ni  Ni49  1  0.66608125  0.33141716  0.66895431  1
  Cr  Cr50  1  0.83339640  0.50018467  0.83320591  1
  Ni  Ni51  1  0.83329917  0.83576487  0.50203421  1
  Ni  Ni52  1  0.66766616  0.66969312  0.66856210  1
  Ni  Ni53  1  0.83038051  0.83609203  0.83272142  1
" 