5667,Ni65Fe17Cr16_10,-234.353686846945, 186.991321148516,Ni65Fe17Cr16,"# generated using pymatgen
 data_Cr10Fe9Ni35
_symmetry_space_group_name_H-M   'P 1'
_cell_length_a   7.44636787
_cell_length_b   7.44636787
_cell_length_c   10.53075444
_cell_angle_alpha   90.00000000
_cell_angle_beta   90.00000000
_cell_angle_gamma   90.00000000
_symmetry_Int_Tables_number   1
_chemical_formula_structural   Cr10Fe9Ni35
_chemical_formula_sum   'Cr10 Fe9 Ni35'
_cell_volume   583.91342629
_cell_formula_units_Z   1
loop_
 _symmetry_equiv_pos_site_id
 _symmetry_equiv_pos_as_xyz
  1  'x, y, z'
loop_
 _atom_site_type_symbol
 _atom_site_label
 _atom_site_symmetry_multiplicity
 _atom_site_fract_x
 _atom_site_fract_y
 _atom_site_fract_z
 _atom_site_occupancy
  Cr  Cr0  1  0.00320035  0.00163020  1.00001051  1
  Fe  Fe1  1  0.16912781  0.16703108  0.16889258  1
  Ni  Ni2  1  1.00117867  0.00149820  0.33488337  1
  Ni  Ni3  1  1.00102601  0.33517037  0.00170552  1
  Cr  Cr4  1  0.16566703  0.50094941  0.16726846  1
  Fe  Fe5  1  1.00030478  0.33394116  0.33583630  1
  Ni  Ni6  1  1.00048732  0.66716736  0.00144411  1
  Ni  Ni7  1  0.16641093  0.83731390  0.16874681  1
  Ni  Ni8  1  0.99845570  0.66874603  0.33453792  1
  Ni  Ni9  1  0.33426745  0.00255047  0.00209452  1
  Ni  Ni10  1  0.50030154  0.16873953  0.16848556  1
  Ni  Ni11  1  0.33402371  0.00496354  0.33220729  1
  Fe  Fe12  1  0.33607266  0.33271355  1.00046340  1
  Ni  Ni13  1  0.50553461  0.49890897  0.16772662  1
  Ni  Ni14  1  0.33575508  0.33194134  0.33608244  1
  Cr  Cr15  1  0.33560090  0.66958713  1.00008477  1
  Fe  Fe16  1  0.50251331  0.83505155  0.16854816  1
  Cr  Cr17  1  0.33533062  0.66719997  0.33523395  1
  Cr  Cr18  1  0.66601278  0.00156823  1.00080788  1
  Fe  Fe19  1  0.83410736  0.16981358  0.16940428  1
  Ni  Ni20  1  0.66896359  0.00248564  0.33446109  1
  Ni  Ni21  1  0.66788573  0.33597522  0.00163542  1
  Ni  Ni22  1  0.83286236  0.50270050  0.16779635  1
  Ni  Ni23  1  0.66747887  0.33466696  0.33530212  1
  Ni  Ni24  1  0.66860495  0.66617851  0.00262664  1
  Ni  Ni25  1  0.83584309  0.83207964  0.16922996  1
  Ni  Ni26  1  0.67094641  0.66701365  0.33355258  1
  Ni  Ni27  1  0.16831145  0.16974446  0.49885124  1
  Fe  Fe28  1  0.99842637  1.00122241  0.66845902  1
  Ni  Ni29  1  0.16907878  0.16716501  0.83663607  1
  Ni  Ni30  1  0.16774093  0.49977741  0.50223324  1
  Cr  Cr31  1  0.00239052  0.33424991  0.66620607  1
  Fe  Fe32  1  0.16971957  0.50093506  0.83435988  1
  Cr  Cr33  1  0.16503664  0.83484665  0.50094605  1
  Ni  Ni34  1  1.00129836  0.66939115  0.66818654  1
  Ni  Ni35  1  0.16770357  0.83483988  0.83434062  1
  Ni  Ni36  1  0.50211281  0.17111742  0.50107909  1
  Cr  Cr37  1  0.33539632  0.00353347  0.66930721  1
  Ni  Ni38  1  0.50103371  0.16927824  0.83460329  1
  Ni  Ni39  1  0.50243065  0.49814583  0.50242619  1
  Ni  Ni40  1  0.33613678  0.33594007  0.66829660  1
  Ni  Ni41  1  0.50141511  0.50059153  0.83401564  1
  Cr  Cr42  1  0.50420708  0.83516515  0.50035055  1
  Fe  Fe43  1  0.33574375  0.66451537  0.66974567  1
  Ni  Ni44  1  0.50083726  0.83429356  0.83505777  1
  Ni  Ni45  1  0.83373888  0.16758085  0.50058500  1
  Ni  Ni46  1  0.66971585  0.00182159  0.66890559  1
  Ni  Ni47  1  0.83405396  0.16774229  0.83428965  1
  Ni  Ni48  1  0.83399626  0.50225462  0.49951070  1
  Ni  Ni49  1  0.66531859  0.33381040  0.66722892  1
  Cr  Cr50  1  0.83320919  0.50165074  0.83700980  1
  Ni  Ni51  1  0.83537261  0.83433092  0.50224143  1
  Ni  Ni52  1  0.66858353  0.66853282  0.66798887  1
  Fe  Fe53  1  0.83401110  0.83492075  0.83305392  1
" 