6274,Ni65Fe17Cr16_9,-234.211827632622, 187.880620536294,Ni65Fe17Cr16,"# generated using pymatgen
 data_Cr10Fe9Ni35
_symmetry_space_group_name_H-M   'P 1'
_cell_length_a   7.44672591
_cell_length_b   7.44672591
_cell_length_c   10.53126078
_cell_angle_alpha   90.00000000
_cell_angle_beta   90.00000000
_cell_angle_gamma   90.00000000
_symmetry_Int_Tables_number   1
_chemical_formula_structural   Cr10Fe9Ni35
_chemical_formula_sum   'Cr10 Fe9 Ni35'
_cell_volume   583.99765803
_cell_formula_units_Z   1
loop_
 _symmetry_equiv_pos_site_id
 _symmetry_equiv_pos_as_xyz
  1  'x, y, z'
loop_
 _atom_site_type_symbol
 _atom_site_label
 _atom_site_symmetry_multiplicity
 _atom_site_fract_x
 _atom_site_fract_y
 _atom_site_fract_z
 _atom_site_occupancy
  Cr  Cr0  1  0.00208054  1.00106131  0.00154420  1
  Cr  Cr1  1  0.17065279  0.16726367  0.16929542  1
  Ni  Ni2  1  1.00086555  0.99913039  0.33548567  1
  Fe  Fe3  1  0.00156066  0.33712227  0.99975324  1
  Cr  Cr4  1  0.16650729  0.50244455  0.16669409  1
  Ni  Ni5  1  0.99826400  0.33580757  0.33554436  1
  Ni  Ni6  1  1.00127035  0.66725632  0.00362276  1
  Ni  Ni7  1  0.16853909  0.83433497  0.16852719  1
  Ni  Ni8  1  0.99989510  0.66915485  0.33500860  1
  Ni  Ni9  1  0.33621739  1.00043455  0.00293065  1
  Ni  Ni10  1  0.50171380  0.16732843  0.16846494  1
  Ni  Ni11  1  0.33593865  1.00090954  0.33375507  1
  Ni  Ni12  1  0.33697002  0.33553601  1.00107883  1
  Ni  Ni13  1  0.50422328  0.50086151  0.16675260  1
  Fe  Fe14  1  0.33658661  0.33309950  0.33526640  1
  Ni  Ni15  1  0.33665561  0.66812152  1.00046892  1
  Ni  Ni16  1  0.50152688  0.83590216  0.16617423  1
  Cr  Cr17  1  0.33460955  0.66969168  0.33535286  1
  Fe  Fe18  1  0.66471858  1.00028722  0.00238675  1
  Cr  Cr19  1  0.83224337  0.16946324  0.16867938  1
  Ni  Ni20  1  0.66729006  0.00253846  0.33506358  1
  Ni  Ni21  1  0.66667943  0.33632957  0.00242858  1
  Ni  Ni22  1  0.83343523  0.50283751  0.16804075  1
  Ni  Ni23  1  0.66794823  0.33433855  0.33508227  1
  Ni  Ni24  1  0.66616547  0.66650363  0.00381351  1
  Fe  Fe25  1  0.83384415  0.83186957  0.16915484  1
  Fe  Fe26  1  0.67004808  0.66879147  0.33430753  1
  Cr  Cr27  1  0.16821673  0.16844024  0.50086327  1
  Ni  Ni28  1  1.00096178  0.00224640  0.66696764  1
  Fe  Fe29  1  0.16795036  0.17038887  0.83368111  1
  Ni  Ni30  1  0.16662282  0.50252601  0.50247141  1
  Ni  Ni31  1  1.00052600  0.33378997  0.66946058  1
  Ni  Ni32  1  0.16932320  0.50002554  0.83506234  1
  Ni  Ni33  1  0.16693433  0.83295044  0.50188259  1
  Ni  Ni34  1  0.00232716  0.66805668  0.66546129  1
  Cr  Cr35  1  0.17078518  0.83249566  0.83315560  1
  Ni  Ni36  1  0.50347914  0.16762360  0.50038444  1
  Ni  Ni37  1  0.33466400  0.99995203  0.66740659  1
  Cr  Cr38  1  0.50201635  0.16754242  0.83494110  1
  Fe  Fe39  1  0.50206301  0.50070924  0.50287322  1
  Ni  Ni40  1  0.33529672  0.33627747  0.66789924  1
  Ni  Ni41  1  0.49904652  0.50248224  0.83478079  1
  Ni  Ni42  1  0.50232048  0.83603398  0.50308352  1
  Ni  Ni43  1  0.33578770  0.66786359  0.66848524  1
  Ni  Ni44  1  0.50070133  0.83352255  0.83483693  1
  Ni  Ni45  1  0.83275447  0.16792961  0.50195215  1
  Fe  Fe46  1  0.66815490  0.00137509  0.66583158  1
  Ni  Ni47  1  0.83527043  0.16934010  0.83351092  1
  Fe  Fe48  1  0.83519127  0.50146401  0.50114651  1
  Ni  Ni49  1  0.66827337  0.33491228  0.66658156  1
  Cr  Cr50  1  0.83551319  0.49983114  0.83486857  1
  Ni  Ni51  1  0.83483977  0.83479697  0.50096554  1
  Ni  Ni52  1  0.66597796  0.66742411  0.66644045  1
  Cr  Cr53  1  0.83223356  0.83526122  0.83401007  1
" 