826,Ni65Fe28Cr5_17,-239.768541967005, 209.423437178066,Ni65Fe28Cr5,"# generated using pymatgen
 data_Cr4(Fe3Ni7)5
_symmetry_space_group_name_H-M   'P 1'
_cell_length_a   7.42526736
_cell_length_b   7.42526736
_cell_length_c   10.50091380
_cell_angle_alpha   90.00000000
_cell_angle_beta   90.00000000
_cell_angle_gamma   90.00000000
_symmetry_Int_Tables_number   1
_chemical_formula_structural   Cr4(Fe3Ni7)5
_chemical_formula_sum   'Cr4 Fe15 Ni35'
_cell_volume   578.96363289
_cell_formula_units_Z   1
loop_
 _symmetry_equiv_pos_site_id
 _symmetry_equiv_pos_as_xyz
  1  'x, y, z'
loop_
 _atom_site_type_symbol
 _atom_site_label
 _atom_site_symmetry_multiplicity
 _atom_site_fract_x
 _atom_site_fract_y
 _atom_site_fract_z
 _atom_site_occupancy
  Ni  Ni0  1  0.00342718  0.00360423  1.00251017  1
  Fe  Fe1  1  0.17024182  0.16977797  0.16966064  1
  Fe  Fe2  1  0.00317655  1.00210725  0.33581012  1
  Fe  Fe3  1  1.00164675  0.33546193  1.00217336  1
  Fe  Fe4  1  0.17013438  0.50253135  0.17020736  1
  Fe  Fe5  1  1.00244039  0.33679123  0.33695208  1
  Fe  Fe6  1  0.00373669  0.66942678  0.00353357  1
  Ni  Ni7  1  0.16963163  0.83647539  0.16927683  1
  Ni  Ni8  1  1.00275604  0.66942263  0.33635849  1
  Ni  Ni9  1  0.33381439  0.00304688  0.00374171  1
  Ni  Ni10  1  0.50328062  0.17000820  0.16885184  1
  Ni  Ni11  1  0.33536969  1.00268923  0.33561421  1
  Ni  Ni12  1  0.33558860  0.33698933  0.00346423  1
  Ni  Ni13  1  0.50357987  0.50149656  0.16928119  1
  Ni  Ni14  1  0.33513904  0.33662262  0.33534317  1
  Ni  Ni15  1  0.33547890  0.66840318  1.00259445  1
  Fe  Fe16  1  0.50335435  0.83630129  0.16969144  1
  Ni  Ni17  1  0.33540018  0.66912761  0.33741912  1
  Ni  Ni18  1  0.67119577  0.00371454  0.00536537  1
  Ni  Ni19  1  0.83474079  0.16997723  0.16939135  1
  Ni  Ni20  1  0.67028280  1.00213327  0.33501576  1
  Ni  Ni21  1  0.67007984  0.33698515  1.00203290  1
  Ni  Ni22  1  0.83519811  0.50228526  0.16895277  1
  Ni  Ni23  1  0.66998584  0.33665925  0.33640576  1
  Ni  Ni24  1  0.66952800  0.66773828  0.00421718  1
  Fe  Fe25  1  0.83524910  0.83619335  0.16974896  1
  Ni  Ni26  1  0.67028435  0.66964685  0.33678459  1
  Ni  Ni27  1  0.16870491  0.16892156  0.50258966  1
  Fe  Fe28  1  0.00337090  0.00344683  0.66918464  1
  Fe  Fe29  1  0.16780582  0.16993518  0.83576651  1
  Ni  Ni30  1  0.16899533  0.50318970  0.50235931  1
  Ni  Ni31  1  0.00400708  0.33634482  0.66966012  1
  Fe  Fe32  1  0.16942822  0.50265224  0.83531348  1
  Ni  Ni33  1  0.16899471  0.83632496  0.50341159  1
  Ni  Ni34  1  0.00293554  0.66837174  0.66930072  1
  Ni  Ni35  1  0.16920452  0.83630807  0.83574740  1
  Cr  Cr36  1  0.50246202  0.17013551  0.50259790  1
  Fe  Fe37  1  0.33334524  1.00158780  0.66828121  1
  Cr  Cr38  1  0.50360263  0.17147166  0.83684761  1
  Ni  Ni39  1  0.50323835  0.50399825  0.50305049  1
  Ni  Ni40  1  0.33338756  0.33749248  0.66962840  1
  Ni  Ni41  1  0.50324966  0.50166202  0.83610858  1
  Ni  Ni42  1  0.50264653  0.83493476  0.50259449  1
  Fe  Fe43  1  0.33545291  0.66834366  0.66846117  1
  Cr  Cr44  1  0.50041393  0.83501431  0.83681592  1
  Fe  Fe45  1  0.83764476  0.16928006  0.50297613  1
  Ni  Ni46  1  0.67134811  1.00179883  0.66806281  1
  Ni  Ni47  1  0.83743050  0.17191345  0.83586200  1
  Ni  Ni48  1  0.83620759  0.50370525  0.50295115  1
  Fe  Fe49  1  0.67178487  0.33881358  0.66999589  1
  Ni  Ni50  1  0.83594764  0.50052140  0.83654014  1
  Ni  Ni51  1  0.83679796  0.83522223  0.50249470  1
  Ni  Ni52  1  0.67019851  0.66911346  0.66744504  1
  Cr  Cr53  1  0.83857524  0.83580207  0.83747708  1
" 