6605,Ni65Fe28Cr5_19,-239.42209813037, 208.646242275639,Ni65Fe28Cr5,"# generated using pymatgen
 data_Cr4(Fe3Ni7)5
_symmetry_space_group_name_H-M   'P 1'
_cell_length_a   7.41746488
_cell_length_b   7.41746488
_cell_length_c   10.48987944
_cell_angle_alpha   90.00000000
_cell_angle_beta   90.00000000
_cell_angle_gamma   90.00000000
_symmetry_Int_Tables_number   1
_chemical_formula_structural   Cr4(Fe3Ni7)5
_chemical_formula_sum   'Cr4 Fe15 Ni35'
_cell_volume   577.14042470
_cell_formula_units_Z   1
loop_
 _symmetry_equiv_pos_site_id
 _symmetry_equiv_pos_as_xyz
  1  'x, y, z'
loop_
 _atom_site_type_symbol
 _atom_site_label
 _atom_site_symmetry_multiplicity
 _atom_site_fract_x
 _atom_site_fract_y
 _atom_site_fract_z
 _atom_site_occupancy
  Ni  Ni0  1  0.00532497  1.00129518  1.00307319  1
  Ni  Ni1  1  0.16995310  0.17071798  0.16906729  1
  Ni  Ni2  1  1.00242662  0.00340312  0.33739009  1
  Ni  Ni3  1  1.00324562  0.33749871  0.00409692  1
  Fe  Fe4  1  0.17124012  0.50192164  0.16936619  1
  Ni  Ni5  1  0.00399544  0.33668248  0.33692792  1
  Ni  Ni6  1  1.00185004  0.67123571  0.00348201  1
  Ni  Ni7  1  0.17012976  0.83628274  0.16768652  1
  Cr  Cr8  1  1.00321740  0.67033008  0.33787452  1
  Ni  Ni9  1  0.33632160  0.00368265  1.00293718  1
  Ni  Ni10  1  0.50313829  0.17081183  0.16934366  1
  Cr  Cr11  1  0.33681860  0.00446537  0.33765786  1
  Ni  Ni12  1  0.33818909  0.33489257  0.00470198  1
  Fe  Fe13  1  0.50258666  0.50242560  0.16991173  1
  Ni  Ni14  1  0.33738150  0.33777685  0.33641020  1
  Fe  Fe15  1  0.33641281  0.67072092  0.00381487  1
  Ni  Ni16  1  0.50369957  0.83544105  0.16853809  1
  Fe  Fe17  1  0.33809532  0.66867312  0.33749982  1
  Fe  Fe18  1  0.66928526  0.00353179  1.00276323  1
  Cr  Cr19  1  0.83719453  0.17024893  0.17023775  1
  Ni  Ni20  1  0.67020441  1.00253204  0.33719024  1
  Ni  Ni21  1  0.66859512  0.33837137  1.00178371  1
  Fe  Fe22  1  0.83619327  0.50352047  0.16938763  1
  Ni  Ni23  1  0.66865049  0.33753769  0.33827703  1
  Fe  Fe24  1  0.67045380  0.66958985  1.00268696  1
  Fe  Fe25  1  0.83633384  0.83726728  0.16874954  1
  Fe  Fe26  1  0.66849975  0.66968362  0.33742070  1
  Ni  Ni27  1  0.16805783  0.17079500  0.50360975  1
  Ni  Ni28  1  0.00372730  1.00327722  0.66956539  1
  Ni  Ni29  1  0.16991917  0.16821161  0.83735192  1
  Ni  Ni30  1  0.17047990  0.50295295  0.50361255  1
  Ni  Ni31  1  1.00317373  0.33613462  0.66899921  1
  Cr  Cr32  1  0.17054244  0.50347242  0.83632201  1
  Ni  Ni33  1  0.17014311  0.83628181  0.50536340  1
  Fe  Fe34  1  1.00323180  0.67144544  0.66947006  1
  Ni  Ni35  1  0.16861710  0.83822513  0.83698508  1
  Ni  Ni36  1  0.50513689  0.17082014  0.50347395  1
  Ni  Ni37  1  0.33668041  1.00306573  0.67021505  1
  Ni  Ni38  1  0.50380682  0.17087454  0.83721258  1
  Ni  Ni39  1  0.50358590  0.50379485  0.50263579  1
  Ni  Ni40  1  0.33704475  0.33615168  0.66890878  1
  Ni  Ni41  1  0.50523102  0.50257761  0.83693470  1
  Ni  Ni42  1  0.50389092  0.83540995  0.50450126  1
  Ni  Ni43  1  0.33831969  0.67081146  0.66880186  1
  Fe  Fe44  1  0.50266200  0.83704053  0.83595531  1
  Ni  Ni45  1  0.83683060  0.17048794  0.50313457  1
  Ni  Ni46  1  0.66961401  1.00199934  0.66999612  1
  Fe  Fe47  1  0.83730626  0.16968458  0.83646905  1
  Ni  Ni48  1  0.83595975  0.50171134  0.50449967  1
  Fe  Fe49  1  0.66911495  0.33636016  0.66971875  1
  Fe  Fe50  1  0.83543903  0.50321149  0.83675791  1
  Fe  Fe51  1  0.83561622  0.83809384  0.50468691  1
  Ni  Ni52  1  0.66959865  0.67024954  0.66977187  1
  Ni  Ni53  1  0.83731676  0.83680240  0.83725365  1
" 