1592,Ni65Fe17Cr16_16,-234.340419296663, 190.433863018423,Ni65Fe17Cr16,"# generated using pymatgen
 data_Cr10Fe9Ni35
_symmetry_space_group_name_H-M   'P 1'
_cell_length_a   7.44477473
_cell_length_b   7.44477473
_cell_length_c   10.52850139
_cell_angle_alpha   90.00000000
_cell_angle_beta   90.00000000
_cell_angle_gamma   90.00000000
_symmetry_Int_Tables_number   1
_chemical_formula_structural   Cr10Fe9Ni35
_chemical_formula_sum   'Cr10 Fe9 Ni35'
_cell_volume   583.53872393
_cell_formula_units_Z   1
loop_
 _symmetry_equiv_pos_site_id
 _symmetry_equiv_pos_as_xyz
  1  'x, y, z'
loop_
 _atom_site_type_symbol
 _atom_site_label
 _atom_site_symmetry_multiplicity
 _atom_site_fract_x
 _atom_site_fract_y
 _atom_site_fract_z
 _atom_site_occupancy
  Ni  Ni0  1  0.00228661  0.00189036  0.99929016  1
  Ni  Ni1  1  0.16672027  0.16679670  0.16468470  1
  Ni  Ni2  1  1.00077499  0.00150632  0.33562163  1
  Ni  Ni3  1  0.00193820  0.33598602  1.00120539  1
  Ni  Ni4  1  0.16804542  0.50414888  0.16748860  1
  Cr  Cr5  1  1.00140191  0.33450281  0.33382507  1
  Ni  Ni6  1  0.00249566  0.66705791  0.99983771  1
  Ni  Ni7  1  0.16747254  0.83393482  0.16680190  1
  Fe  Fe8  1  0.00282933  0.66914399  0.33499335  1
  Ni  Ni9  1  0.33374995  1.00101585  0.00166881  1
  Cr  Cr10  1  0.50398670  0.16909424  0.16702870  1
  Cr  Cr11  1  0.33372834  0.99803262  0.33293880  1
  Ni  Ni12  1  0.33415377  0.33600718  0.99995989  1
  Ni  Ni13  1  0.50172375  0.50133037  0.16583544  1
  Cr  Cr14  1  0.33321920  0.33732544  0.33425054  1
  Ni  Ni15  1  0.33368029  0.66678033  0.00187520  1
  Fe  Fe16  1  0.49971275  0.83280380  0.16560073  1
  Ni  Ni17  1  0.33362282  0.66897423  0.33506556  1
  Ni  Ni18  1  0.66876186  0.00209875  0.99995791  1
  Fe  Fe19  1  0.83670948  0.16948788  0.16645154  1
  Ni  Ni20  1  0.67106599  1.00106307  0.33665247  1
  Ni  Ni21  1  0.66907481  0.33576222  0.99976379  1
  Ni  Ni22  1  0.83462078  0.50125657  0.16570907  1
  Ni  Ni23  1  0.67147362  0.33537562  0.33461542  1
  Fe  Fe24  1  0.66848643  0.66655388  1.00011442  1
  Cr  Cr25  1  0.83795590  0.83623109  0.16572893  1
  Cr  Cr26  1  0.66611609  0.66871520  0.33257164  1
  Ni  Ni27  1  0.16675979  0.16437413  0.50305569  1
  Ni  Ni28  1  0.00208629  1.00043729  0.66895278  1
  Ni  Ni29  1  0.16988352  0.16666274  0.83680390  1
  Fe  Fe30  1  0.16735527  0.50249466  0.50343937  1
  Cr  Cr31  1  0.00253757  0.33379962  0.67086024  1
  Ni  Ni32  1  0.16853879  0.50320260  0.83509181  1
  Ni  Ni33  1  0.16623802  0.83428381  0.50170216  1
  Ni  Ni34  1  0.99818132  0.66936902  0.66731395  1
  Ni  Ni35  1  0.16519123  0.83504111  0.83545480  1
  Cr  Cr36  1  0.50288639  0.16747014  0.50412886  1
  Ni  Ni37  1  0.33299340  0.00164003  0.66887985  1
  Ni  Ni38  1  0.50130086  0.16988576  0.83394501  1
  Cr  Cr39  1  0.50227760  0.50151918  0.50482868  1
  Ni  Ni40  1  0.33452702  0.33340546  0.67106522  1
  Ni  Ni41  1  0.50154203  0.49921267  0.83462060  1
  Ni  Ni42  1  0.49967922  0.83444132  0.50235487  1
  Fe  Fe43  1  0.33129011  0.66936584  0.66918455  1
  Cr  Cr44  1  0.49988327  0.83514829  0.83649268  1
  Ni  Ni45  1  0.83596654  0.16790864  0.50022987  1
  Fe  Fe46  1  0.67030790  1.00128530  0.66939174  1
  Ni  Ni47  1  0.83476142  0.16695607  0.83756259  1
  Ni  Ni48  1  0.83494784  0.50260547  0.50162258  1
  Fe  Fe49  1  0.67104495  0.33477352  0.67083937  1
  Ni  Ni50  1  0.83442122  0.50307308  0.83642308  1
  Fe  Fe51  1  0.83423525  0.83638769  0.50333746  1
  Ni  Ni52  1  0.66886893  0.66870249  0.66991891  1
  Ni  Ni53  1  0.83726395  0.83445512  0.83373917  1
" 