7063,Ni66Fe27Cr6_10,-238.484901249045, 204.106264702783,Ni66Fe27Cr6,"# generated using pymatgen
 data_Cr5(Fe2Ni5)7
_symmetry_space_group_name_H-M   'P 1'
_cell_length_a   7.42598677
_cell_length_b   7.42598677
_cell_length_c   10.50193120
_cell_angle_alpha   90.00000000
_cell_angle_beta   90.00000000
_cell_angle_gamma   90.00000000
_symmetry_Int_Tables_number   1
_chemical_formula_structural   Cr5(Fe2Ni5)7
_chemical_formula_sum   'Cr5 Fe14 Ni35'
_cell_volume   579.13193141
_cell_formula_units_Z   1
loop_
 _symmetry_equiv_pos_site_id
 _symmetry_equiv_pos_as_xyz
  1  'x, y, z'
loop_
 _atom_site_type_symbol
 _atom_site_label
 _atom_site_symmetry_multiplicity
 _atom_site_fract_x
 _atom_site_fract_y
 _atom_site_fract_z
 _atom_site_occupancy
  Cr  Cr0  1  0.00561933  1.00225573  1.00068549  1
  Fe  Fe1  1  0.17257721  0.17104391  0.16990395  1
  Cr  Cr2  1  0.00564941  0.00285925  0.33773939  1
  Fe  Fe3  1  0.00320307  0.33738197  1.00244123  1
  Ni  Ni4  1  0.16871699  0.50223387  0.17028391  1
  Ni  Ni5  1  1.00221285  0.33752145  0.33518458  1
  Ni  Ni6  1  0.00346006  0.66832273  1.00195480  1
  Fe  Fe7  1  0.17390353  0.83399942  0.16954932  1
  Ni  Ni8  1  0.00331392  0.66775897  0.33678403  1
  Ni  Ni9  1  0.33684487  1.00249622  0.00293001  1
  Ni  Ni10  1  0.50296655  0.16904602  0.16963230  1
  Ni  Ni11  1  0.33684253  1.00249662  0.33545125  1
  Fe  Fe12  1  0.33610337  0.33618843  1.00250911  1
  Ni  Ni13  1  0.50193629  0.50216473  0.17028146  1
  Ni  Ni14  1  0.33724249  0.33545369  0.33570969  1
  Fe  Fe15  1  0.33609223  0.66941741  0.00306095  1
  Ni  Ni16  1  0.50232802  0.83708510  0.16960475  1
  Ni  Ni17  1  0.33666156  0.67034228  0.33587834  1
  Fe  Fe18  1  0.66699981  0.00349804  1.00114095  1
  Fe  Fe19  1  0.83341652  0.17355183  0.16907702  1
  Fe  Fe20  1  0.66600095  0.00343529  0.33713324  1
  Ni  Ni21  1  0.66868327  0.33678352  1.00256468  1
  Fe  Fe22  1  0.83519818  0.50131704  0.17037055  1
  Ni  Ni23  1  0.66883433  0.33734299  0.33617412  1
  Fe  Fe24  1  0.66818290  0.66923159  1.00192892  1
  Cr  Cr25  1  0.83416207  0.83465386  0.17039826  1
  Ni  Ni26  1  0.66831779  0.66735396  0.33619436  1
  Ni  Ni27  1  0.16998203  0.17211325  0.50152343  1
  Cr  Cr28  1  0.00286510  1.00205422  0.66987274  1
  Ni  Ni29  1  0.16933898  0.17233327  0.83716568  1
  Ni  Ni30  1  0.16802642  0.50247989  0.50276537  1
  Ni  Ni31  1  0.00278073  0.33792588  0.67034478  1
  Ni  Ni32  1  0.16893581  0.50252524  0.83524350  1
  Ni  Ni33  1  0.16943541  0.83369792  0.50097595  1
  Ni  Ni34  1  1.00198713  0.66833451  0.66955434  1
  Ni  Ni35  1  0.16875685  0.83343447  0.83768268  1
  Ni  Ni36  1  0.50366448  0.16958539  0.50176549  1
  Cr  Cr37  1  0.33671062  0.00351293  0.66980974  1
  Ni  Ni38  1  0.50434501  0.16984815  0.83689591  1
  Ni  Ni39  1  0.50310427  0.50248870  0.50224878  1
  Ni  Ni40  1  0.33689365  0.33699900  0.66999484  1
  Ni  Ni41  1  0.50218953  0.50245310  0.83576358  1
  Ni  Ni42  1  0.50422163  0.83621862  0.50121673  1
  Fe  Fe43  1  0.33645027  0.66717624  0.66908247  1
  Ni  Ni44  1  0.50485899  0.83599227  0.83747257  1
  Fe  Fe45  1  0.83447331  0.17201832  0.50340937  1
  Ni  Ni46  1  0.66907069  1.00261665  0.67020151  1
  Ni  Ni47  1  0.83460919  0.16966321  0.83599301  1
  Ni  Ni48  1  0.83716262  0.50303795  0.50208029  1
  Ni  Ni49  1  0.66861785  0.33699020  0.66955374  1
  Fe  Fe50  1  0.83619489  0.50284590  0.83530241  1
  Fe  Fe51  1  0.83447022  0.83343068  0.50330535  1
  Ni  Ni52  1  0.66999546  0.66868664  0.67034221  1
  Ni  Ni53  1  0.83468109  0.83559376  0.83515918  1
" 