5196,Ni66Fe25Cr8_7,-237.702570876752, 200.106064183116,Ni66Fe25Cr8,"# generated using pymatgen
 data_Cr6Fe13Ni35
_symmetry_space_group_name_H-M   'P 1'
_cell_length_a   7.43074741
_cell_length_b   7.43074741
_cell_length_c   10.50866377
_cell_angle_alpha   90.00000000
_cell_angle_beta   90.00000000
_cell_angle_gamma   90.00000000
_symmetry_Int_Tables_number   1
_chemical_formula_structural   Cr6Fe13Ni35
_chemical_formula_sum   'Cr6 Fe13 Ni35'
_cell_volume   580.24645332
_cell_formula_units_Z   1
loop_
 _symmetry_equiv_pos_site_id
 _symmetry_equiv_pos_as_xyz
  1  'x, y, z'
loop_
 _atom_site_type_symbol
 _atom_site_label
 _atom_site_symmetry_multiplicity
 _atom_site_fract_x
 _atom_site_fract_y
 _atom_site_fract_z
 _atom_site_occupancy
  Cr  Cr0  1  1.00171929  1.00150688  1.00237794  1
  Ni  Ni1  1  0.17073889  0.16911531  0.17129735  1
  Fe  Fe2  1  0.00490559  0.00359512  0.33502975  1
  Cr  Cr3  1  1.00162956  0.33642377  0.00377171  1
  Ni  Ni4  1  0.16838962  0.50355623  0.17034248  1
  Ni  Ni5  1  0.00274678  0.33648146  0.33573526  1
  Ni  Ni6  1  0.00282183  0.66964593  0.00252241  1
  Fe  Fe7  1  0.16977984  0.83516336  0.16972887  1
  Ni  Ni8  1  0.00329082  0.66692921  0.33527978  1
  Ni  Ni9  1  0.33809847  1.00060468  1.00238631  1
  Ni  Ni10  1  0.50193983  0.16834323  0.16880350  1
  Ni  Ni11  1  0.33428458  0.00257603  0.33574158  1
  Cr  Cr12  1  0.33645484  0.33529798  1.00224134  1
  Fe  Fe13  1  0.50388167  0.50281943  0.17044475  1
  Ni  Ni14  1  0.33426157  0.33538735  0.33637957  1
  Ni  Ni15  1  0.33594531  0.67105807  1.00172444  1
  Ni  Ni16  1  0.50184141  0.83573749  0.16792675  1
  Ni  Ni17  1  0.33505476  0.66936472  0.33649901  1
  Ni  Ni18  1  0.66741487  1.00192452  1.00143832  1
  Ni  Ni19  1  0.83464994  0.17048200  0.16936507  1
  Cr  Cr20  1  0.66793446  0.00281671  0.33520513  1
  Ni  Ni21  1  0.66882694  0.33465888  0.00278498  1
  Ni  Ni22  1  0.83573161  0.50345938  0.17031336  1
  Ni  Ni23  1  0.67032037  0.33724876  0.33646918  1
  Ni  Ni24  1  0.66856320  0.67074458  0.00341816  1
  Ni  Ni25  1  0.83495764  0.83338532  0.16789935  1
  Ni  Ni26  1  0.66898224  0.66695600  0.33513251  1
  Ni  Ni27  1  0.16951526  0.16908407  0.50242960  1
  Fe  Fe28  1  0.00257439  0.00320137  0.66996879  1
  Fe  Fe29  1  0.16989849  0.16701166  0.83336698  1
  Ni  Ni30  1  0.16972561  0.50227610  0.50281376  1
  Ni  Ni31  1  0.00346342  0.33514078  0.66825768  1
  Fe  Fe32  1  0.17013902  0.50447813  0.83474035  1
  Ni  Ni33  1  0.17115305  0.83596885  0.50149894  1
  Fe  Fe34  1  0.00360611  0.66982409  0.66902224  1
  Ni  Ni35  1  0.17064676  0.83475149  0.83598910  1
  Fe  Fe36  1  0.50114922  0.17028243  0.50298600  1
  Ni  Ni37  1  0.33630236  1.00240064  0.66919787  1
  Ni  Ni38  1  0.50319148  0.16758600  0.83548609  1
  Ni  Ni39  1  0.50252027  0.50236045  0.50208693  1
  Fe  Fe40  1  0.33618736  0.33538447  0.66846165  1
  Fe  Fe41  1  0.50269258  0.50401286  0.83503415  1
  Fe  Fe42  1  0.49991753  0.83458938  0.50321751  1
  Fe  Fe43  1  0.33600964  0.66973564  0.66894772  1
  Ni  Ni44  1  0.50161367  0.83685656  0.83583878  1
  Ni  Ni45  1  0.83661020  0.17195176  0.50328828  1
  Ni  Ni46  1  0.66793581  1.00225874  0.67077284  1
  Ni  Ni47  1  0.83331351  0.16796546  0.83467477  1
  Ni  Ni48  1  0.83508328  0.50072697  0.50175736  1
  Fe  Fe49  1  0.66870837  0.33435526  0.66825753  1
  Cr  Cr50  1  0.83521789  0.50319677  0.83575526  1
  Cr  Cr51  1  0.83651793  0.83471329  0.50341039  1
  Ni  Ni52  1  0.66797112  0.67019857  0.66877635  1
  Ni  Ni53  1  0.83506837  0.83630441  0.83560286  1
" 