9015,Ni66Fe27Cr6_12,-238.465369913411, 205.348434274628,Ni66Fe27Cr6,"# generated using pymatgen
 data_Cr5(Fe2Ni5)7
_symmetry_space_group_name_H-M   'P 1'
_cell_length_a   7.42390166
_cell_length_b   7.42390166
_cell_length_c   10.49898242
_cell_angle_alpha   90.00000000
_cell_angle_beta   90.00000000
_cell_angle_gamma   90.00000000
_symmetry_Int_Tables_number   1
_chemical_formula_structural   Cr5(Fe2Ni5)7
_chemical_formula_sum   'Cr5 Fe14 Ni35'
_cell_volume   578.64423331
_cell_formula_units_Z   1
loop_
 _symmetry_equiv_pos_site_id
 _symmetry_equiv_pos_as_xyz
  1  'x, y, z'
loop_
 _atom_site_type_symbol
 _atom_site_label
 _atom_site_symmetry_multiplicity
 _atom_site_fract_x
 _atom_site_fract_y
 _atom_site_fract_z
 _atom_site_occupancy
  Fe  Fe0  1  1.00268155  1.00239435  0.00365394  1
  Ni  Ni1  1  0.16966775  0.16959118  0.16993983  1
  Ni  Ni2  1  0.00592397  1.00270565  0.33760807  1
  Ni  Ni3  1  1.00206877  0.33747715  0.00477511  1
  Ni  Ni4  1  0.16938682  0.50168503  0.16873885  1
  Fe  Fe5  1  1.00202929  0.33522120  0.33552207  1
  Ni  Ni6  1  0.00448837  0.66811732  1.00189822  1
  Ni  Ni7  1  0.17159116  0.83744119  0.17002332  1
  Ni  Ni8  1  1.00271022  0.66996050  0.33632196  1
  Fe  Fe9  1  0.33731229  1.00136663  0.00353215  1
  Fe  Fe10  1  0.50173093  0.17065721  0.16865932  1
  Ni  Ni11  1  0.33339529  0.00434611  0.33539392  1
  Fe  Fe12  1  0.33729443  0.33765604  0.00401205  1
  Ni  Ni13  1  0.50382211  0.50327710  0.16943817  1
  Ni  Ni14  1  0.33707525  0.33486451  0.33537455  1
  Ni  Ni15  1  0.33538963  0.67014426  0.00328833  1
  Ni  Ni16  1  0.50100421  0.83524286  0.16843774  1
  Fe  Fe17  1  0.33650667  0.66980004  0.33435736  1
  Ni  Ni18  1  0.66825897  0.00409366  1.00235693  1
  Fe  Fe19  1  0.83711488  0.17206317  0.16895088  1
  Cr  Cr20  1  0.66935566  0.00394000  0.33623174  1
  Ni  Ni21  1  0.67028815  0.33508308  1.00280548  1
  Ni  Ni22  1  0.83551088  0.50134971  0.17042729  1
  Ni  Ni23  1  0.66894386  0.33808431  0.33679229  1
  Ni  Ni24  1  0.66883859  0.66954166  1.00253694  1
  Cr  Cr25  1  0.83580323  0.83446756  0.16869026  1
  Ni  Ni26  1  0.67058437  0.66628220  0.33606197  1
  Ni  Ni27  1  0.16901318  0.16770505  0.50293274  1
  Fe  Fe28  1  0.00299601  1.00167858  0.66768074  1
  Cr  Cr29  1  0.17001312  0.16945718  0.83573737  1
  Cr  Cr30  1  0.16968247  0.50230030  0.50314063  1
  Ni  Ni31  1  1.00233084  0.33682180  0.66883173  1
  Fe  Fe32  1  0.16971896  0.50474440  0.83628531  1
  Ni  Ni33  1  0.16822183  0.83918060  0.50262115  1
  Ni  Ni34  1  1.00236985  0.66969859  0.67049573  1
  Ni  Ni35  1  0.17038648  0.83536512  0.83607194  1
  Fe  Fe36  1  0.50207063  0.17171520  0.50404246  1
  Ni  Ni37  1  0.33697064  0.00342971  0.66910095  1
  Ni  Ni38  1  0.50395847  0.16877550  0.83587107  1
  Ni  Ni39  1  0.50541573  0.50176378  0.50332263  1
  Ni  Ni40  1  0.33684142  0.33556651  0.66981812  1
  Fe  Fe41  1  0.50261750  0.50354006  0.83614913  1
  Cr  Cr42  1  0.50224222  0.83469843  0.50307365  1
  Ni  Ni43  1  0.33557086  0.66972362  0.67065124  1
  Ni  Ni44  1  0.50292993  0.83658957  0.83668129  1
  Ni  Ni45  1  0.83779235  0.17048331  0.50400455  1
  Ni  Ni46  1  0.66952257  0.00346989  0.67024889  1
  Fe  Fe47  1  0.83424091  0.16929905  0.83621797  1
  Ni  Ni48  1  0.83390801  0.50255747  0.50210591  1
  Fe  Fe49  1  0.66934953  0.33684261  0.66932898  1
  Ni  Ni50  1  0.83589581  0.50305471  0.83618569  1
  Ni  Ni51  1  0.83785821  0.83567827  0.50439564  1
  Ni  Ni52  1  0.67077631  0.66983097  0.67011783  1
  Fe  Fe53  1  0.83544637  0.83609359  0.83597549  1
" 