1602,Ni66Fe25Cr8_1,-237.600587441712, 202.719179922193,Ni66Fe25Cr8,"# generated using pymatgen
 data_Cr6Fe13Ni35
_symmetry_space_group_name_H-M   'P 1'
_cell_length_a   7.43140196
_cell_length_b   7.43140196
_cell_length_c   10.50958944
_cell_angle_alpha   90.00000000
_cell_angle_beta   90.00000000
_cell_angle_gamma   90.00000000
_symmetry_Int_Tables_number   1
_chemical_formula_structural   Cr6Fe13Ni35
_chemical_formula_sum   'Cr6 Fe13 Ni35'
_cell_volume   580.39980297
_cell_formula_units_Z   1
loop_
 _symmetry_equiv_pos_site_id
 _symmetry_equiv_pos_as_xyz
  1  'x, y, z'
loop_
 _atom_site_type_symbol
 _atom_site_label
 _atom_site_symmetry_multiplicity
 _atom_site_fract_x
 _atom_site_fract_y
 _atom_site_fract_z
 _atom_site_occupancy
  Fe  Fe0  1  0.00269361  0.00466175  1.00211005  1
  Ni  Ni1  1  0.17020955  0.16910713  0.16768054  1
  Fe  Fe2  1  1.00228327  1.00166348  0.33624514  1
  Ni  Ni3  1  1.00164466  0.33517420  1.00140729  1
  Ni  Ni4  1  0.16938509  0.50071112  0.17062416  1
  Ni  Ni5  1  1.00157578  0.33680507  0.33582071  1
  Cr  Cr6  1  0.00261833  0.66753059  0.00272721  1
  Ni  Ni7  1  0.16811892  0.83737862  0.17143657  1
  Fe  Fe8  1  1.00202189  0.66941436  0.33591583  1
  Ni  Ni9  1  0.33636256  0.00246461  0.00284074  1
  Ni  Ni10  1  0.50220979  0.16960239  0.16887256  1
  Ni  Ni11  1  0.33563064  1.00134408  0.33496973  1
  Ni  Ni12  1  0.33483286  0.33499307  0.00375632  1
  Ni  Ni13  1  0.50328114  0.50045910  0.16980676  1
  Fe  Fe14  1  0.33656067  0.33549575  0.33537109  1
  Cr  Cr15  1  0.33588685  0.66941358  1.00216113  1
  Fe  Fe16  1  0.50214984  0.83691235  0.16991868  1
  Ni  Ni17  1  0.33409722  0.66962749  0.33487936  1
  Ni  Ni18  1  0.66912977  0.00248744  0.00369162  1
  Fe  Fe19  1  0.83577651  0.16953940  0.16838507  1
  Ni  Ni20  1  0.66917451  0.00311065  0.33485177  1
  Ni  Ni21  1  0.67071983  0.33502403  0.00326038  1
  Fe  Fe22  1  0.83532570  0.50100816  0.17003874  1
  Ni  Ni23  1  0.67047210  0.33527505  0.33603556  1
  Fe  Fe24  1  0.66846763  0.66842257  0.00251190  1
  Ni  Ni25  1  0.83502529  0.83630439  0.16936718  1
  Ni  Ni26  1  0.66975209  0.66880789  0.33474450  1
  Ni  Ni27  1  0.16988547  0.16913522  0.50368965  1
  Ni  Ni28  1  0.00388175  0.00338826  0.66933663  1
  Fe  Fe29  1  0.16772223  0.16971011  0.83549241  1
  Ni  Ni30  1  0.16860908  0.50117627  0.50155572  1
  Ni  Ni31  1  1.00189468  0.33498388  0.66996740  1
  Ni  Ni32  1  0.16920546  0.50079379  0.83501563  1
  Ni  Ni33  1  0.16784346  0.83688235  0.50154042  1
  Cr  Cr34  1  0.00385900  0.66870835  0.66847033  1
  Ni  Ni35  1  0.17025152  0.83777221  0.83421956  1
  Ni  Ni36  1  0.50141395  0.17106307  0.50155960  1
  Ni  Ni37  1  0.33292043  1.00117110  0.66938575  1
  Cr  Cr38  1  0.50155664  0.16989179  0.83655089  1
  Fe  Fe39  1  0.50206218  0.50112106  0.50245186  1
  Ni  Ni40  1  0.33508183  0.33737878  0.66787741  1
  Ni  Ni41  1  0.50374130  0.50343613  0.83382504  1
  Cr  Cr42  1  0.50179345  0.83622325  0.50174741  1
  Ni  Ni43  1  0.33539981  0.66864812  0.67034363  1
  Ni  Ni44  1  0.50183911  0.83426619  0.83653342  1
  Fe  Fe45  1  0.83724966  0.17013269  0.50231969  1
  Cr  Cr46  1  0.67026499  0.00337360  0.66816648  1
  Ni  Ni47  1  0.83774687  0.17053556  0.83639658  1
  Ni  Ni48  1  0.83529108  0.50189444  0.50152713  1
  Ni  Ni49  1  0.67021824  0.33746565  0.66789711  1
  Ni  Ni50  1  0.83424565  0.50023049  0.83635441  1
  Ni  Ni51  1  0.83721794  0.83500670  0.50166387  1
  Fe  Fe52  1  0.66818022  0.66625557  0.66964620  1
  Fe  Fe53  1  0.83472677  0.83612593  0.83654406  1
" 