6208,Ni66Fe27Cr6_19,-238.999658830136, 207.626333717121,Ni66Fe27Cr6,"# generated using pymatgen
 data_Cr5(Fe2Ni5)7
_symmetry_space_group_name_H-M   'P 1'
_cell_length_a   7.42747830
_cell_length_b   7.42747830
_cell_length_c   10.50404055
_cell_angle_alpha   90.00000000
_cell_angle_beta   90.00000000
_cell_angle_gamma   90.00000000
_symmetry_Int_Tables_number   1
_chemical_formula_structural   Cr5(Fe2Ni5)7
_chemical_formula_sum   'Cr5 Fe14 Ni35'
_cell_volume   579.48096363
_cell_formula_units_Z   1
loop_
 _symmetry_equiv_pos_site_id
 _symmetry_equiv_pos_as_xyz
  1  'x, y, z'
loop_
 _atom_site_type_symbol
 _atom_site_label
 _atom_site_symmetry_multiplicity
 _atom_site_fract_x
 _atom_site_fract_y
 _atom_site_fract_z
 _atom_site_occupancy
  Ni  Ni0  1  1.00124275  0.00270378  1.00165354  1
  Fe  Fe1  1  0.16566448  0.16766554  0.17122338  1
  Ni  Ni2  1  1.00216607  1.00205010  0.33655311  1
  Ni  Ni3  1  1.00166280  0.33427311  1.00176694  1
  Fe  Fe4  1  0.16378699  0.50348208  0.17048111  1
  Ni  Ni5  1  0.00295965  0.33570274  0.33746404  1
  Ni  Ni6  1  1.00045302  0.67113686  1.00254251  1
  Ni  Ni7  1  0.16929003  0.83805675  0.16877987  1
  Ni  Ni8  1  1.00102867  0.67020422  0.33604560  1
  Fe  Fe9  1  0.33589877  1.00242473  0.00465080  1
  Fe  Fe10  1  0.50646309  0.16702687  0.17147881  1
  Ni  Ni11  1  0.33610591  0.00448428  0.33637828  1
  Cr  Cr12  1  0.33707935  0.33414469  0.00614805  1
  Fe  Fe13  1  0.50698416  0.50307400  0.17180163  1
  Ni  Ni14  1  0.33563354  0.33493244  0.33523437  1
  Cr  Cr15  1  0.33592926  0.66775420  0.00368825  1
  Ni  Ni16  1  0.50316481  0.83694653  0.17115279  1
  Cr  Cr17  1  0.33463477  0.66823569  0.33828730  1
  Ni  Ni18  1  0.67148167  0.00333325  0.00315183  1
  Ni  Ni19  1  0.83589700  0.17121327  0.16993626  1
  Ni  Ni20  1  0.67131420  1.00264149  0.33704871  1
  Ni  Ni21  1  0.66939897  0.33502664  1.00054195  1
  Ni  Ni22  1  0.83503237  0.50057154  0.16900178  1
  Ni  Ni23  1  0.66866291  0.33538136  0.33751421  1
  Ni  Ni24  1  0.67058594  0.66894011  0.00335668  1
  Ni  Ni25  1  0.83546243  0.83592895  0.16926700  1
  Ni  Ni26  1  0.67098339  0.66974243  0.33617939  1
  Ni  Ni27  1  0.16967051  0.16865161  0.50181883  1
  Ni  Ni28  1  1.00192170  1.00208995  0.67012301  1
  Ni  Ni29  1  0.17014365  0.16809740  0.83607611  1
  Fe  Fe30  1  0.16569829  0.50162726  0.50428516  1
  Fe  Fe31  1  1.00028012  0.33435340  0.66816040  1
  Cr  Cr32  1  0.16593160  0.50299992  0.83269427  1
  Ni  Ni33  1  0.16909587  0.83854194  0.50383722  1
  Ni  Ni34  1  1.00041320  0.67267537  0.66882745  1
  Ni  Ni35  1  0.16907286  0.83923870  0.83576611  1
  Fe  Fe36  1  0.50385849  0.16920370  0.50213602  1
  Fe  Fe37  1  0.33519516  0.00329699  0.66753971  1
  Fe  Fe38  1  0.50422562  0.16901401  0.83429208  1
  Ni  Ni39  1  0.50324819  0.50206893  0.50362485  1
  Ni  Ni40  1  0.33680498  0.33489057  0.66753028  1
  Fe  Fe41  1  0.50409396  0.50084421  0.83298582  1
  Fe  Fe42  1  0.50577876  0.83750275  0.50251046  1
  Fe  Fe43  1  0.33571450  0.67102371  0.66644568  1
  Cr  Cr44  1  0.50337930  0.83629836  0.83491460  1
  Ni  Ni45  1  0.83752606  0.16927865  0.50167286  1
  Ni  Ni46  1  0.67277454  0.00271575  0.66779470  1
  Ni  Ni47  1  0.83664509  0.17009566  0.83582515  1
  Ni  Ni48  1  0.83378016  0.50276604  0.50184922  1
  Fe  Fe49  1  0.67169832  0.33581442  0.66827715  1
  Ni  Ni50  1  0.83334858  0.50201576  0.83641044  1
  Ni  Ni51  1  0.83714361  0.83586829  0.50125453  1
  Ni  Ni52  1  0.67136834  0.66987651  0.66852111  1
  Ni  Ni53  1  0.83606193  0.83591289  0.83733893  1
" 