5032,Ni66Fe25Cr8_19,-237.753936871161, 200.904034748267,Ni66Fe25Cr8,"# generated using pymatgen
 data_Cr6Fe13Ni35
_symmetry_space_group_name_H-M   'P 1'
_cell_length_a   7.43115966
_cell_length_b   7.43115966
_cell_length_c   10.50924678
_cell_angle_alpha   90.00000000
_cell_angle_beta   90.00000000
_cell_angle_gamma   90.00000000
_symmetry_Int_Tables_number   1
_chemical_formula_structural   Cr6Fe13Ni35
_chemical_formula_sum   'Cr6 Fe13 Ni35'
_cell_volume   580.34303278
_cell_formula_units_Z   1
loop_
 _symmetry_equiv_pos_site_id
 _symmetry_equiv_pos_as_xyz
  1  'x, y, z'
loop_
 _atom_site_type_symbol
 _atom_site_label
 _atom_site_symmetry_multiplicity
 _atom_site_fract_x
 _atom_site_fract_y
 _atom_site_fract_z
 _atom_site_occupancy
  Fe  Fe0  1  1.00179133  0.00466102  1.00191068  1
  Ni  Ni1  1  0.17108585  0.17089671  0.16898000  1
  Ni  Ni2  1  1.00194250  0.00471615  0.33616800  1
  Ni  Ni3  1  1.00093002  0.33574179  1.00205928  1
  Ni  Ni4  1  0.16937278  0.50029821  0.16853082  1
  Ni  Ni5  1  1.00216961  0.33236632  0.33501721  1
  Fe  Fe6  1  1.00076440  0.66870266  1.00241186  1
  Cr  Cr7  1  0.17031920  0.83770433  0.16890703  1
  Cr  Cr8  1  1.00135000  0.67044116  0.33480861  1
  Ni  Ni9  1  0.33692413  0.00291260  1.00090352  1
  Ni  Ni10  1  0.50237670  0.16780677  0.16848380  1
  Ni  Ni11  1  0.33624522  0.00352706  0.33634766  1
  Ni  Ni12  1  0.33554055  0.33430209  0.00404644  1
  Fe  Fe13  1  0.50181319  0.50280399  0.16873135  1
  Ni  Ni14  1  0.33685865  0.33468832  0.33427901  1
  Ni  Ni15  1  0.33564483  0.67045078  0.00254325  1
  Ni  Ni16  1  0.50397481  0.83804379  0.16891857  1
  Ni  Ni17  1  0.33903677  0.66920314  0.33675529  1
  Ni  Ni18  1  0.66893418  0.00264126  1.00144018  1
  Fe  Fe19  1  0.83563675  0.16818663  0.16912278  1
  Ni  Ni20  1  0.66914741  0.00245071  0.33649531  1
  Ni  Ni21  1  0.67063243  0.33439647  0.00295497  1
  Ni  Ni22  1  0.83549016  0.50203206  0.16725398  1
  Ni  Ni23  1  0.66827522  0.33521677  0.33440042  1
  Fe  Fe24  1  0.66921368  0.66919662  0.00298027  1
  Ni  Ni25  1  0.83244694  0.83628272  0.16848056  1
  Ni  Ni26  1  0.66713979  0.66957678  0.33421382  1
  Ni  Ni27  1  0.17058089  0.16726788  0.50242148  1
  Ni  Ni28  1  0.00292927  1.00121387  0.66898193  1
  Fe  Fe29  1  0.16826301  0.16822448  0.83615186  1
  Cr  Cr30  1  0.17052256  0.50147614  0.50308151  1
  Fe  Fe31  1  1.00121864  0.33210243  0.66972818  1
  Cr  Cr32  1  0.16816368  0.50240958  0.83480563  1
  Ni  Ni33  1  0.16961787  0.83772262  0.50331752  1
  Ni  Ni34  1  1.00052433  0.67300415  0.67057922  1
  Fe  Fe35  1  0.16868416  0.83794980  0.83539167  1
  Ni  Ni36  1  0.50236963  0.16883569  0.50268918  1
  Ni  Ni37  1  0.33491206  0.00321843  0.67003710  1
  Ni  Ni38  1  0.50232984  0.16741158  0.83610175  1
  Fe  Fe39  1  0.50326569  0.50119428  0.50268748  1
  Ni  Ni40  1  0.33777808  0.33203942  0.66882624  1
  Cr  Cr41  1  0.50320481  0.49986581  0.83642467  1
  Fe  Fe42  1  0.50280195  0.83709696  0.50165789  1
  Fe  Fe43  1  0.33699630  0.67157744  0.66847584  1
  Fe  Fe44  1  0.50404610  0.83675053  0.83660148  1
  Ni  Ni45  1  0.83424433  0.16677198  0.50203650  1
  Fe  Fe46  1  0.66937144  0.00293197  0.66936376  1
  Ni  Ni47  1  0.83359411  0.16828314  0.83537633  1
  Cr  Cr48  1  0.83437025  0.50179077  0.50443225  1
  Ni  Ni49  1  0.66851861  0.33499053  0.66987237  1
  Ni  Ni50  1  0.83595963  0.50292079  0.83538768  1
  Ni  Ni51  1  0.83490447  0.83772041  0.50273029  1
  Ni  Ni52  1  0.67034191  0.67023162  0.66989661  1
  Ni  Ni53  1  0.83582277  0.83614425  0.83619238  1
" 