4589,Ni66Fe18Cr14_14,-235.95571835364, 191.123147351216,Ni66Fe18Cr14,"# generated using pymatgen
 data_Cr4Fe5Ni18
_symmetry_space_group_name_H-M   'P 1'
_cell_length_a   7.43968895
_cell_length_b   7.43968895
_cell_length_c   10.52130901
_cell_angle_alpha   90.00000000
_cell_angle_beta   90.00000000
_cell_angle_gamma   90.00000000
_symmetry_Int_Tables_number   1
_chemical_formula_structural   Cr4Fe5Ni18
_chemical_formula_sum   'Cr8 Fe10 Ni36'
_cell_volume   582.34363360
_cell_formula_units_Z   2
loop_
 _symmetry_equiv_pos_site_id
 _symmetry_equiv_pos_as_xyz
  1  'x, y, z'
loop_
 _atom_site_type_symbol
 _atom_site_label
 _atom_site_symmetry_multiplicity
 _atom_site_fract_x
 _atom_site_fract_y
 _atom_site_fract_z
 _atom_site_occupancy
  Ni  Ni0  1  0.00192548  1.00014580  0.00256309  1
  Ni  Ni1  1  0.16846638  0.16759494  0.16828844  1
  Ni  Ni2  1  1.00029184  1.00161522  0.33479233  1
  Cr  Cr3  1  0.00349859  0.33383175  1.00080586  1
  Fe  Fe4  1  0.17049985  0.50170886  0.16943047  1
  Ni  Ni5  1  0.00276726  0.33420228  0.33635887  1
  Ni  Ni6  1  0.00269457  0.67144884  1.00097698  1
  Ni  Ni7  1  0.16816221  0.83444148  0.16788690  1
  Ni  Ni8  1  0.00269132  0.66971394  0.33623031  1
  Ni  Ni9  1  0.33507191  1.00160074  1.00146192  1
  Ni  Ni10  1  0.50123572  0.16724461  0.16761813  1
  Cr  Cr11  1  0.33366619  0.00267853  0.33518915  1
  Ni  Ni12  1  0.33597080  0.33492278  0.00248606  1
  Fe  Fe13  1  0.49835224  0.50231114  0.16830011  1
  Ni  Ni14  1  0.33478327  0.33674056  0.33515280  1
  Ni  Ni15  1  0.33525947  0.66897969  0.00225653  1
  Fe  Fe16  1  0.50199979  0.83554647  0.16696275  1
  Ni  Ni17  1  0.33411681  0.66634569  0.33429833  1
  Ni  Ni18  1  0.66853657  1.00085480  0.00237636  1
  Ni  Ni19  1  0.83582090  0.16531593  0.16966410  1
  Fe  Fe20  1  0.67071621  0.00219164  0.33461050  1
  Cr  Cr21  1  0.66622692  0.33419838  1.00014258  1
  Cr  Cr22  1  0.83641830  0.50324561  0.16863658  1
  Cr  Cr23  1  0.66741248  0.33416117  0.33641162  1
  Ni  Ni24  1  0.66754947  0.67057522  1.00136215  1
  Fe  Fe25  1  0.83610109  0.83772264  0.16808709  1
  Fe  Fe26  1  0.66878123  0.66882116  0.33565873  1
  Ni  Ni27  1  0.16773941  0.17066021  0.50164047  1
  Cr  Cr28  1  0.00275892  0.00188078  0.66832362  1
  Ni  Ni29  1  0.16926322  0.16854713  0.83560050  1
  Ni  Ni30  1  0.16755834  0.50169165  0.50097646  1
  Ni  Ni31  1  0.00275152  0.33662850  0.66788494  1
  Ni  Ni32  1  0.16884903  0.50319219  0.83501261  1
  Fe  Fe33  1  0.16730194  0.83347180  0.50166575  1
  Ni  Ni34  1  0.00196601  0.66703496  0.66830001  1
  Ni  Ni35  1  0.16970875  0.83377851  0.83568218  1
  Ni  Ni36  1  0.50138039  0.16842609  0.50299981  1
  Ni  Ni37  1  0.33614482  0.00251541  0.66937828  1
  Ni  Ni38  1  0.50110778  0.16632149  0.83490592  1
  Ni  Ni39  1  0.50058089  0.50291498  0.50112542  1
  Ni  Ni40  1  0.33456573  0.33509851  0.66785013  1
  Ni  Ni41  1  0.50049417  0.50442846  0.83552555  1
  Cr  Cr42  1  0.50205340  0.83461763  0.50325951  1
  Ni  Ni43  1  0.33466534  0.66790559  0.66894051  1
  Ni  Ni44  1  0.50191789  0.83478137  0.83573947  1
  Ni  Ni45  1  0.83640353  0.16835804  0.50008075  1
  Ni  Ni46  1  0.66735599  1.00171603  0.66869934  1
  Ni  Ni47  1  0.83515973  0.16713396  0.83576378  1
  Ni  Ni48  1  0.83737318  0.50314030  0.50259599  1
  Cr  Cr49  1  0.66812531  0.33513864  0.66893523  1
  Fe  Fe50  1  0.83609649  0.50401402  0.83410621  1
  Fe  Fe51  1  0.83583478  0.83430300  0.50139008  1
  Ni  Ni52  1  0.66888859  0.66863766  0.66885361  1
  Fe  Fe53  1  0.83422764  0.83479287  0.83604474  1
" 