6053,Ni66Fe18Cr14_15,-236.284885557221, 194.542141752005,Ni66Fe18Cr14,"# generated using pymatgen
 data_Cr4Fe5Ni18
_symmetry_space_group_name_H-M   'P 1'
_cell_length_a   7.43838021
_cell_length_b   7.43838021
_cell_length_c   10.51945818
_cell_angle_alpha   90.00000000
_cell_angle_beta   90.00000000
_cell_angle_gamma   90.00000000
_symmetry_Int_Tables_number   1
_chemical_formula_structural   Cr4Fe5Ni18
_chemical_formula_sum   'Cr8 Fe10 Ni36'
_cell_volume   582.03636285
_cell_formula_units_Z   2
loop_
 _symmetry_equiv_pos_site_id
 _symmetry_equiv_pos_as_xyz
  1  'x, y, z'
loop_
 _atom_site_type_symbol
 _atom_site_label
 _atom_site_symmetry_multiplicity
 _atom_site_fract_x
 _atom_site_fract_y
 _atom_site_fract_z
 _atom_site_occupancy
  Ni  Ni0  1  0.00290537  1.00150106  0.00250164  1
  Ni  Ni1  1  0.16718078  0.17022080  0.16798694  1
  Ni  Ni2  1  1.00034528  0.00279973  0.33524359  1
  Ni  Ni3  1  0.99945434  0.33434036  0.00344860  1
  Ni  Ni4  1  0.16992691  0.50019775  0.16933585  1
  Ni  Ni5  1  0.00362494  0.33292103  0.33461529  1
  Ni  Ni6  1  1.00192235  0.66993999  0.00273988  1
  Ni  Ni7  1  0.16881704  0.83536153  0.16705342  1
  Cr  Cr8  1  0.00370797  0.67008155  0.33445512  1
  Ni  Ni9  1  0.33489482  1.00077386  1.00120895  1
  Ni  Ni10  1  0.50193564  0.16901149  0.16725391  1
  Cr  Cr11  1  0.33391746  1.00190798  0.33493387  1
  Fe  Fe12  1  0.33505684  0.33451512  0.00344591  1
  Ni  Ni13  1  0.50083552  0.50305684  0.16876719  1
  Ni  Ni14  1  0.33426922  0.33649875  0.33372439  1
  Ni  Ni15  1  0.33583955  0.67070185  0.00339540  1
  Ni  Ni16  1  0.50315691  0.83371216  0.16845695  1
  Ni  Ni17  1  0.33517636  0.66709294  0.33386076  1
  Fe  Fe18  1  0.66926009  1.00173374  1.00179787  1
  Ni  Ni19  1  0.83666584  0.16790005  0.16911664  1
  Fe  Fe20  1  0.67103018  1.00123796  0.33443204  1
  Ni  Ni21  1  0.66874472  0.33528856  1.00125241  1
  Ni  Ni22  1  0.83501745  0.50141989  0.16638865  1
  Cr  Cr23  1  0.66825212  0.33369499  0.33442288  1
  Fe  Fe24  1  0.66883567  0.66871991  1.00178027  1
  Ni  Ni25  1  0.83380902  0.83646186  0.16879828  1
  Fe  Fe26  1  0.66798094  0.67064050  0.33297808  1
  Ni  Ni27  1  0.16615689  0.16934480  0.50179957  1
  Ni  Ni28  1  1.00135093  1.00092611  0.66803745  1
  Ni  Ni29  1  0.16651915  0.16649214  0.83599432  1
  Ni  Ni30  1  0.16895394  0.50037538  0.50145835  1
  Ni  Ni31  1  0.99960416  0.33366925  0.66772193  1
  Cr  Cr32  1  0.16814637  0.50196627  0.83535474  1
  Ni  Ni33  1  0.16697028  0.83606089  0.50458603  1
  Ni  Ni34  1  0.00223575  0.67118400  0.66828253  1
  Ni  Ni35  1  0.16897988  0.83731172  0.83414247  1
  Fe  Fe36  1  0.50210600  0.16785758  0.50232757  1
  Fe  Fe37  1  0.33392389  1.00060337  0.66983329  1
  Fe  Fe38  1  0.50304381  0.16713732  0.83627001  1
  Cr  Cr39  1  0.49995453  0.50292643  0.50144281  1
  Cr  Cr40  1  0.33615440  0.33442473  0.66822517  1
  Ni  Ni41  1  0.50440647  0.50348927  0.83533796  1
  Cr  Cr42  1  0.50328280  0.83471510  0.50256064  1
  Ni  Ni43  1  0.33449018  0.67107778  0.66852466  1
  Ni  Ni44  1  0.50246503  0.83408395  0.83448521  1
  Fe  Fe45  1  0.83751155  0.16604306  0.50314939  1
  Ni  Ni46  1  0.66982187  0.00289309  0.66862213  1
  Ni  Ni47  1  0.83585010  0.16843293  0.83409186  1
  Cr  Cr48  1  0.83680543  0.50186401  0.50494516  1
  Ni  Ni49  1  0.66971868  0.33355760  0.67027162  1
  Fe  Fe50  1  0.83401741  0.50196220  0.83521441  1
  Ni  Ni51  1  0.83563324  0.83827936  0.50263098  1
  Ni  Ni52  1  0.66905487  0.66932850  0.67100242  1
  Ni  Ni53  1  0.83433664  0.83631850  0.83435009  1
" 