1901,Ni66Fe10Cr22_4,-230.461807152111, 168.907861871495,Ni66Fe10Cr22,"# generated using pymatgen
 data_Cr14(FeNi7)5
_symmetry_space_group_name_H-M   'P 1'
_cell_length_a   7.46678256
_cell_length_b   7.46678256
_cell_length_c   10.55962516
_cell_angle_alpha   90.00000000
_cell_angle_beta   90.00000000
_cell_angle_gamma   90.00000000
_symmetry_Int_Tables_number   1
_chemical_formula_structural   Cr14(FeNi7)5
_chemical_formula_sum   'Cr14 Fe5 Ni35'
_cell_volume   588.72911137
_cell_formula_units_Z   1
loop_
 _symmetry_equiv_pos_site_id
 _symmetry_equiv_pos_as_xyz
  1  'x, y, z'
loop_
 _atom_site_type_symbol
 _atom_site_label
 _atom_site_symmetry_multiplicity
 _atom_site_fract_x
 _atom_site_fract_y
 _atom_site_fract_z
 _atom_site_occupancy
  Ni  Ni0  1  0.99828756  0.99883074  0.00053155  1
  Cr  Cr1  1  0.16418086  0.16525023  0.16945567  1
  Ni  Ni2  1  0.99834624  0.99707695  0.33331822  1
  Fe  Fe3  1  0.99873293  0.33368077  0.99898992  1
  Cr  Cr4  1  0.16561759  0.50144880  0.16796738  1
  Ni  Ni5  1  0.99686080  0.33429909  0.33417983  1
  Ni  Ni6  1  0.00171836  0.66781678  0.00033845  1
  Ni  Ni7  1  0.16556345  0.83260071  0.16668454  1
  Ni  Ni8  1  0.00085487  0.66846870  0.33442871  1
  Cr  Cr9  1  0.33401182  0.99836194  0.00062295  1
  Ni  Ni10  1  0.50110743  0.16628803  0.16870633  1
  Fe  Fe11  1  0.33337029  0.99814917  0.33326422  1
  Cr  Cr12  1  0.33358658  0.33528996  0.00045515  1
  Ni  Ni13  1  0.50050864  0.50168488  0.16922662  1
  Ni  Ni14  1  0.33593513  0.33477187  0.33307241  1
  Ni  Ni15  1  0.33077621  0.66820151  0.99941181  1
  Ni  Ni16  1  0.49953960  0.83202211  0.16683974  1
  Ni  Ni17  1  0.33221682  0.66808564  0.33300078  1
  Ni  Ni18  1  0.66886695  0.00028666  0.00159643  1
  Ni  Ni19  1  0.83399916  0.16604465  0.16572278  1
  Cr  Cr20  1  0.66806467  0.00030792  0.33221382  1
  Cr  Cr21  1  0.66807279  0.33114635  0.00179795  1
  Ni  Ni22  1  0.83357549  0.50052545  0.16845499  1
  Ni  Ni23  1  0.66726151  0.33209148  0.33267175  1
  Cr  Cr24  1  0.66702003  0.66769299  0.00320371  1
  Ni  Ni25  1  0.83522608  0.83325828  0.16663955  1
  Fe  Fe26  1  0.66874816  0.66605941  0.33315665  1
  Cr  Cr27  1  0.16498026  0.16636132  0.49737895  1
  Ni  Ni28  1  0.99878917  0.00085440  0.66606208  1
  Ni  Ni29  1  0.16225988  0.16614747  0.83299608  1
  Ni  Ni30  1  0.16552625  0.50106080  0.49828271  1
  Ni  Ni31  1  0.99789656  0.33230014  0.66791662  1
  Ni  Ni32  1  0.16430497  0.50019809  0.83446508  1
  Ni  Ni33  1  0.16742315  0.83309983  0.49940672  1
  Cr  Cr34  1  0.00172416  0.66613657  0.66453818  1
  Fe  Fe35  1  0.16582640  0.83363143  0.83347863  1
  Ni  Ni36  1  0.50139907  0.16478494  0.49995357  1
  Fe  Fe37  1  0.33240151  0.99802625  0.66605827  1
  Cr  Cr38  1  0.50270333  0.16267196  0.83064742  1
  Cr  Cr39  1  0.50136329  0.50098574  0.49946753  1
  Cr  Cr40  1  0.33055147  0.33480484  0.66648855  1
  Cr  Cr41  1  0.50182984  0.50461166  0.83157920  1
  Ni  Ni42  1  0.49941041  0.83375235  0.50180651  1
  Ni  Ni43  1  0.33231518  0.66958165  0.66780349  1
  Ni  Ni44  1  0.49874286  0.83322032  0.83171395  1
  Ni  Ni45  1  0.83334110  0.16684922  0.50151613  1
  Ni  Ni46  1  0.66783038  0.00005011  0.66552396  1
  Ni  Ni47  1  0.83693590  0.16636137  0.83284225  1
  Ni  Ni48  1  0.83438698  0.49914955  0.49964400  1
  Ni  Ni49  1  0.67035393  0.33133620  0.66536915  1
  Ni  Ni50  1  0.83639896  0.49873498  0.83223371  1
  Ni  Ni51  1  0.83325936  0.83362814  0.49971180  1
  Ni  Ni52  1  0.66648932  0.66833720  0.66461961  1
  Cr  Cr53  1  0.83046474  0.83454082  0.83350237  1
" 