3989,Ni66Fe10Cr22_17,-230.349337360151, 168.292357872011,Ni66Fe10Cr22,"# generated using pymatgen
 data_Cr14(FeNi7)5
_symmetry_space_group_name_H-M   'P 1'
_cell_length_a   7.47139042
_cell_length_b   7.47139042
_cell_length_c   10.56614167
_cell_angle_alpha   90.00000000
_cell_angle_beta   90.00000000
_cell_angle_gamma   90.00000000
_symmetry_Int_Tables_number   1
_chemical_formula_structural   Cr14(FeNi7)5
_chemical_formula_sum   'Cr14 Fe5 Ni35'
_cell_volume   589.81972466
_cell_formula_units_Z   1
loop_
 _symmetry_equiv_pos_site_id
 _symmetry_equiv_pos_as_xyz
  1  'x, y, z'
loop_
 _atom_site_type_symbol
 _atom_site_label
 _atom_site_symmetry_multiplicity
 _atom_site_fract_x
 _atom_site_fract_y
 _atom_site_fract_z
 _atom_site_occupancy
  Ni  Ni0  1  0.00112232  0.99843662  0.99882312  1
  Ni  Ni1  1  0.16678584  0.16495260  0.16595218  1
  Ni  Ni2  1  0.99731603  0.99867442  0.33403830  1
  Cr  Cr3  1  0.00013339  0.33383761  0.00097861  1
  Ni  Ni4  1  0.16755810  0.50177155  0.16704305  1
  Cr  Cr5  1  -0.00007454  0.33392467  0.33180349  1
  Ni  Ni6  1  0.00169720  0.66717649  0.99933465  1
  Ni  Ni7  1  0.16724828  0.83240468  0.16549603  1
  Ni  Ni8  1  -0.00022090  0.66620121  0.33421618  1
  Ni  Ni9  1  0.33300066  0.99814652  -0.00005730  1
  Ni  Ni10  1  0.50138164  0.16692867  0.16598848  1
  Cr  Cr11  1  0.33313248  0.99920021  0.33065512  1
  Cr  Cr12  1  0.33190231  0.33222426  0.00080100  1
  Ni  Ni13  1  0.49957694  0.49876168  0.16834722  1
  Ni  Ni14  1  0.33394733  0.33643085  0.33216441  1
  Fe  Fe15  1  0.33087899  0.66933689  0.00052936  1
  Ni  Ni16  1  0.49791382  0.83343802  0.16581019  1
  Ni  Ni17  1  0.33291531  0.66341168  0.33198009  1
  Ni  Ni18  1  0.66500564  0.00002840  0.00030767  1
  Ni  Ni19  1  0.83095964  0.16661655  0.16617157  1
  Ni  Ni20  1  0.66861302  0.99970554  0.33193036  1
  Ni  Ni21  1  0.66677166  0.33146567  0.00302498  1
  Ni  Ni22  1  0.83199273  0.49830066  0.16665041  1
  Fe  Fe23  1  0.66589966  0.33426785  0.33169981  1
  Cr  Cr24  1  0.66617450  0.66784632  0.99950896  1
  Cr  Cr25  1  0.83460218  0.83391369  0.16718516  1
  Ni  Ni26  1  0.66643314  0.66545627  0.33400497  1
  Cr  Cr27  1  0.16627035  0.16515502  0.50061812  1
  Fe  Fe28  1  0.00065825  0.99641867  0.66631795  1
  Ni  Ni29  1  0.16751149  0.16366714  0.83224167  1
  Ni  Ni30  1  0.16789566  0.50299539  0.49997550  1
  Cr  Cr31  1  0.00143721  0.33466113  0.66634791  1
  Ni  Ni32  1  0.16714998  0.50234759  0.83210925  1
  Ni  Ni33  1  0.16312555  0.83027391  0.50040990  1
  Ni  Ni34  1  0.00036889  0.66715752  0.66557790  1
  Ni  Ni35  1  0.16620654  0.83311314  0.83322270  1
  Cr  Cr36  1  0.50115108  0.16896875  0.50060056  1
  Ni  Ni37  1  0.33348158  0.99871213  0.66865009  1
  Cr  Cr38  1  0.49893855  0.16474693  0.83217331  1
  Ni  Ni39  1  0.49965083  0.49925581  0.49971199  1
  Ni  Ni40  1  0.33235394  0.33446816  0.66630252  1
  Cr  Cr41  1  0.49829516  0.50034783  0.83114898  1
  Cr  Cr42  1  0.49981786  0.83096919  0.50003575  1
  Ni  Ni43  1  0.33148665  0.66594873  0.66683623  1
  Ni  Ni44  1  0.49856531  0.83434328  0.83256634  1
  Ni  Ni45  1  0.83138618  0.16463249  0.49952516  1
  Ni  Ni46  1  0.66683092  0.99792754  0.66688855  1
  Cr  Cr47  1  0.83280939  0.16368482  0.83394769  1
  Ni  Ni48  1  0.83157955  0.50148779  0.49975509  1
  Fe  Fe49  1  0.66504885  0.33378652  0.66425916  1
  Cr  Cr50  1  0.83378860  0.50174653  0.83351010  1
  Ni  Ni51  1  0.83512677  0.83300649  0.49999078  1
  Fe  Fe52  1  0.66634691  0.66764237  0.66523777  1
  Ni  Ni53  1  0.83435660  0.83398155  0.83195698  1
" 