8955,Ni66Fe25Cr8_0,-237.999407426699, 201.683542659322,Ni66Fe25Cr8,"# generated using pymatgen
 data_Cr6Fe13Ni35
_symmetry_space_group_name_H-M   'P 1'
_cell_length_a   7.43514957
_cell_length_b   7.43514957
_cell_length_c   10.51488936
_cell_angle_alpha   90.00000000
_cell_angle_beta   90.00000000
_cell_angle_gamma   90.00000000
_symmetry_Int_Tables_number   1
_chemical_formula_structural   Cr6Fe13Ni35
_chemical_formula_sum   'Cr6 Fe13 Ni35'
_cell_volume   581.27832177
_cell_formula_units_Z   1
loop_
 _symmetry_equiv_pos_site_id
 _symmetry_equiv_pos_as_xyz
  1  'x, y, z'
loop_
 _atom_site_type_symbol
 _atom_site_label
 _atom_site_symmetry_multiplicity
 _atom_site_fract_x
 _atom_site_fract_y
 _atom_site_fract_z
 _atom_site_occupancy
  Ni  Ni0  1  0.00366277  0.00269421  0.00260583  1
  Ni  Ni1  1  0.16773109  0.16759726  0.16678665  1
  Ni  Ni2  1  0.00406275  0.00248129  0.33452164  1
  Ni  Ni3  1  0.00381288  0.33510834  0.99938973  1
  Ni  Ni4  1  0.16934638  0.50073559  0.16867599  1
  Ni  Ni5  1  0.00215984  0.33472415  0.33794055  1
  Ni  Ni6  1  0.00375581  0.66858227  1.00158024  1
  Fe  Fe7  1  0.16905502  0.83457861  0.16729512  1
  Ni  Ni8  1  0.00495755  0.66932590  0.33604565  1
  Ni  Ni9  1  0.33506274  0.00274067  1.00107899  1
  Fe  Fe10  1  0.50187863  0.16943126  0.16685823  1
  Ni  Ni11  1  0.33464609  1.00167208  0.33620492  1
  Ni  Ni12  1  0.33548198  0.33531633  1.00142536  1
  Ni  Ni13  1  0.50054112  0.50235337  0.16641546  1
  Cr  Cr14  1  0.33522205  0.33345071  0.33392980  1
  Ni  Ni15  1  0.33538322  0.66842624  1.00147392  1
  Fe  Fe16  1  0.49990870  0.83671144  0.16737303  1
  Fe  Fe17  1  0.33315097  0.67126791  0.33391043  1
  Ni  Ni18  1  0.66766775  0.00282887  0.00255201  1
  Fe  Fe19  1  0.83646751  0.16905090  0.16795890  1
  Ni  Ni20  1  0.66733205  0.00476545  0.33550195  1
  Ni  Ni21  1  0.66722590  0.33567956  1.00091541  1
  Cr  Cr22  1  0.83712728  0.50065582  0.16720797  1
  Ni  Ni23  1  0.66977773  0.33273177  0.33582780  1
  Ni  Ni24  1  0.66722906  0.66832549  1.00096213  1
  Fe  Fe25  1  0.83750589  0.83754254  0.16769429  1
  Cr  Cr26  1  0.66927023  0.66806578  0.33400141  1
  Ni  Ni27  1  0.16790253  0.16792721  0.50328239  1
  Ni  Ni28  1  0.00581674  0.00249894  0.66919749  1
  Fe  Fe29  1  0.16970144  0.16837572  0.83580569  1
  Ni  Ni30  1  0.16674042  0.50061300  0.50168712  1
  Fe  Fe31  1  0.00273181  0.33553935  0.66931386  1
  Ni  Ni32  1  0.16915423  0.50209132  0.83623836  1
  Fe  Fe33  1  0.17009923  0.83453231  0.50324342  1
  Ni  Ni34  1  0.00250474  0.66771944  0.66883233  1
  Ni  Ni35  1  0.17027258  0.83617368  0.83550922  1
  Fe  Fe36  1  0.50199674  0.16786882  0.50404403  1
  Ni  Ni37  1  0.33444668  0.00337076  0.66872932  1
  Ni  Ni38  1  0.50228513  0.16848472  0.83583136  1
  Cr  Cr39  1  0.50096315  0.50369575  0.50310418  1
  Ni  Ni40  1  0.33544827  0.33347093  0.67059326  1
  Ni  Ni41  1  0.50153983  0.50143723  0.83670142  1
  Ni  Ni42  1  0.50022960  0.83900025  0.50317264  1
  Fe  Fe43  1  0.33459198  0.66892876  0.67106239  1
  Ni  Ni44  1  0.50007323  0.83649895  0.83560727  1
  Fe  Fe45  1  0.83589465  0.17039383  0.50279890  1
  Fe  Fe46  1  0.66706161  0.00371913  0.67015100  1
  Ni  Ni47  1  0.83543070  0.16975398  0.83571476  1
  Ni  Ni48  1  0.83797579  0.50041372  0.50292064  1
  Ni  Ni49  1  0.66851283  0.33665782  0.66933706  1
  Ni  Ni50  1  0.83571285  0.50005463  0.83535114  1
  Cr  Cr51  1  0.83451408  0.83694670  0.50339450  1
  Ni  Ni52  1  0.66916409  0.66653080  0.67091663  1
  Cr  Cr53  1  0.83564658  0.83629296  0.83716077  1
" 