6141,Ni66Fe10Cr22_18,-230.35688396475, 170.297946857922,Ni66Fe10Cr22,"# generated using pymatgen
 data_Cr14(FeNi7)5
_symmetry_space_group_name_H-M   'P 1'
_cell_length_a   7.46810770
_cell_length_b   7.46810770
_cell_length_c   10.56149919
_cell_angle_alpha   90.00000000
_cell_angle_beta   90.00000000
_cell_angle_gamma   90.00000000
_symmetry_Int_Tables_number   1
_chemical_formula_structural   Cr14(FeNi7)5
_chemical_formula_sum   'Cr14 Fe5 Ni35'
_cell_volume   589.04261350
_cell_formula_units_Z   1
loop_
 _symmetry_equiv_pos_site_id
 _symmetry_equiv_pos_as_xyz
  1  'x, y, z'
loop_
 _atom_site_type_symbol
 _atom_site_label
 _atom_site_symmetry_multiplicity
 _atom_site_fract_x
 _atom_site_fract_y
 _atom_site_fract_z
 _atom_site_occupancy
  Ni  Ni0  1  0.99992372  0.99918428  0.00093285  1
  Ni  Ni1  1  0.16589183  0.16412309  0.16677764  1
  Fe  Fe2  1  0.99992767  0.99886367  0.33292861  1
  Ni  Ni3  1  0.99867145  0.33324794  0.99859343  1
  Cr  Cr4  1  0.16762086  0.49971753  0.16761203  1
  Cr  Cr5  1  0.99688414  0.33316444  0.33503469  1
  Fe  Fe6  1  0.99817898  0.66739373  0.99907791  1
  Ni  Ni7  1  0.16467738  0.83484171  0.16773016  1
  Cr  Cr8  1  0.99843777  0.66673841  0.33379789  1
  Cr  Cr9  1  0.33119620  0.99865379  0.99890401  1
  Cr  Cr10  1  0.50047130  0.16834936  0.16696809  1
  Ni  Ni11  1  0.33362218  0.99836404  0.33315304  1
  Cr  Cr12  1  0.33265528  0.33346248  0.99886864  1
  Ni  Ni13  1  0.50288714  0.50152249  0.16844259  1
  Ni  Ni14  1  0.33515711  0.33317182  0.33389572  1
  Cr  Cr15  1  0.33439779  0.66756734  0.00000476  1
  Fe  Fe16  1  0.50159738  0.83225905  0.16848779  1
  Ni  Ni17  1  0.33496920  0.66815470  0.33439680  1
  Ni  Ni18  1  0.67005694  0.99716152  0.00055580  1
  Cr  Cr19  1  0.83303157  0.16596045  0.16673979  1
  Ni  Ni20  1  0.66521116  0.99934202  0.33418876  1
  Ni  Ni21  1  0.66939603  0.33692979  0.00020398  1
  Ni  Ni22  1  0.82997645  0.50200715  0.16417009  1
  Ni  Ni23  1  0.66581223  0.33462727  0.33476051  1
  Ni  Ni24  1  0.66911326  0.66574260  0.00071571  1
  Ni  Ni25  1  0.83276351  0.83246490  0.16534240  1
  Ni  Ni26  1  0.66523735  0.66580701  0.33247034  1
  Cr  Cr27  1  0.16761094  0.16599797  0.50006977  1
  Ni  Ni28  1  0.00047699  0.99881008  0.66659936  1
  Ni  Ni29  1  0.16391840  0.16707441  0.83242771  1
  Ni  Ni30  1  0.16793405  0.50101521  0.50078672  1
  Fe  Fe31  1  0.99953210  0.33404155  0.66625806  1
  Ni  Ni32  1  0.16496726  0.49953704  0.83232176  1
  Ni  Ni33  1  0.16781603  0.83267967  0.50019499  1
  Ni  Ni34  1  0.99914498  0.66627005  0.66817718  1
  Ni  Ni35  1  0.16172555  0.83345445  0.83230595  1
  Ni  Ni36  1  0.50121733  0.16684919  0.50057503  1
  Ni  Ni37  1  0.33175114  0.00095671  0.66646935  1
  Cr  Cr38  1  0.50124163  0.16813613  0.83145595  1
  Ni  Ni39  1  0.50045928  0.49909219  0.49853967  1
  Ni  Ni40  1  0.33364945  0.33346420  0.66692794  1
  Ni  Ni41  1  0.50169881  0.49937211  0.83293440  1
  Ni  Ni42  1  0.49986769  0.83376311  0.49886731  1
  Cr  Cr43  1  0.33306422  0.66652737  0.66525677  1
  Cr  Cr44  1  0.50425299  0.83258643  0.83171085  1
  Ni  Ni45  1  0.83008319  0.16686335  0.50043146  1
  Ni  Ni46  1  0.66736901  0.00022767  0.66490509  1
  Cr  Cr47  1  0.83304536  0.16468856  0.83291523  1
  Ni  Ni48  1  0.83132881  0.49941788  0.50216830  1
  Ni  Ni49  1  0.66640785  0.33484615  0.66453818  1
  Fe  Fe50  1  0.83312818  0.50117158  0.83303602  1
  Cr  Cr51  1  0.83274625  0.83374415  0.50137246  1
  Ni  Ni52  1  0.66873590  0.66463276  0.66639841  1
  Ni  Ni53  1  0.83522809  0.83212484  0.83376946  1
" 