2030,Ni66Fe25Cr8_14,-238.061940148474, 200.567183424419,Ni66Fe25Cr8,"# generated using pymatgen
 data_Cr6Fe13Ni35
_symmetry_space_group_name_H-M   'P 1'
_cell_length_a   7.43289296
_cell_length_b   7.43289296
_cell_length_c   10.51169803
_cell_angle_alpha   90.00000000
_cell_angle_beta   90.00000000
_cell_angle_gamma   90.00000000
_symmetry_Int_Tables_number   1
_chemical_formula_structural   Cr6Fe13Ni35
_chemical_formula_sum   'Cr6 Fe13 Ni35'
_cell_volume   580.74921863
_cell_formula_units_Z   1
loop_
 _symmetry_equiv_pos_site_id
 _symmetry_equiv_pos_as_xyz
  1  'x, y, z'
loop_
 _atom_site_type_symbol
 _atom_site_label
 _atom_site_symmetry_multiplicity
 _atom_site_fract_x
 _atom_site_fract_y
 _atom_site_fract_z
 _atom_site_occupancy
  Ni  Ni0  1  0.00426928  0.00475652  1.00204972  1
  Fe  Fe1  1  0.16810869  0.16806299  0.16683902  1
  Fe  Fe2  1  1.00032939  0.00244800  0.33581504  1
  Ni  Ni3  1  1.00189895  0.33342980  1.00135034  1
  Cr  Cr4  1  0.16912881  0.50205357  0.16911769  1
  Fe  Fe5  1  1.00023869  0.33606015  0.33612655  1
  Cr  Cr6  1  0.00247988  0.66884574  0.99987513  1
  Fe  Fe7  1  0.17026933  0.83740489  0.16866345  1
  Ni  Ni8  1  1.00217241  0.66816316  0.33751255  1
  Ni  Ni9  1  0.33492635  0.00332929  1.00194534  1
  Ni  Ni10  1  0.50373124  0.16820940  0.16816249  1
  Cr  Cr11  1  0.33623262  0.00262394  0.33608212  1
  Ni  Ni12  1  0.33592031  0.33347510  1.00185083  1
  Fe  Fe13  1  0.50421556  0.50112684  0.16992823  1
  Fe  Fe14  1  0.33753371  0.33725772  0.33649686  1
  Fe  Fe15  1  0.33642590  0.66989078  1.00105526  1
  Ni  Ni16  1  0.50078248  0.83680307  0.16884109  1
  Ni  Ni17  1  0.33537773  0.66855338  0.33593951  1
  Ni  Ni18  1  0.66769732  0.00502489  1.00155131  1
  Ni  Ni19  1  0.83489901  0.17009115  0.16861495  1
  Ni  Ni20  1  0.66937717  0.00357361  0.33632626  1
  Ni  Ni21  1  0.66907567  0.33415053  1.00220305  1
  Ni  Ni22  1  0.83569345  0.49897617  0.17086907  1
  Ni  Ni23  1  0.66976815  0.33610908  0.33529032  1
  Cr  Cr24  1  0.66817121  0.66770488  1.00163439  1
  Cr  Cr25  1  0.83452415  0.83768488  0.17088762  1
  Ni  Ni26  1  0.66934268  0.66720718  0.33654807  1
  Fe  Fe27  1  0.16826163  0.16967527  0.50290871  1
  Fe  Fe28  1  1.00186110  1.00224633  0.67006363  1
  Ni  Ni29  1  0.16802639  0.16845856  0.83717549  1
  Ni  Ni30  1  0.16815744  0.50375254  0.50144199  1
  Fe  Fe31  1  1.00031938  0.33588132  0.66950243  1
  Ni  Ni32  1  0.16879235  0.50272064  0.83567354  1
  Fe  Fe33  1  0.16918476  0.83400816  0.50323126  1
  Fe  Fe34  1  1.00205350  0.66876585  0.66912084  1
  Ni  Ni35  1  0.17018999  0.83571384  0.83573075  1
  Ni  Ni36  1  0.50445167  0.16776215  0.50216470  1
  Ni  Ni37  1  0.33539501  1.00075792  0.66922193  1
  Ni  Ni38  1  0.50327812  0.16743807  0.83656563  1
  Ni  Ni39  1  0.50186462  0.50371725  0.50009476  1
  Cr  Cr40  1  0.33627063  0.33491881  0.66844594  1
  Ni  Ni41  1  0.50149948  0.50272701  0.83639064  1
  Ni  Ni42  1  0.50250543  0.83541506  0.50293190  1
  Ni  Ni43  1  0.33509221  0.67084604  0.66942710  1
  Ni  Ni44  1  0.50112239  0.83672806  0.83511942  1
  Ni  Ni45  1  0.83504581  0.16890398  0.50159461  1
  Ni  Ni46  1  0.66874668  1.00218555  0.66901529  1
  Ni  Ni47  1  0.83558565  0.16883596  0.83668459  1
  Ni  Ni48  1  0.83687040  0.50180706  0.50159982  1
  Ni  Ni49  1  0.67086120  0.33593395  0.66939788  1
  Ni  Ni50  1  0.83660078  0.50056149  0.83442368  1
  Fe  Fe51  1  0.83415955  0.83502275  0.50221082  1
  Ni  Ni52  1  0.66969929  0.66877172  0.66846495  1
  Ni  Ni53  1  0.83558124  0.83749477  0.83388827  1
" 