1807,Ni66Fe18Cr14_8,-235.836947966164, 189.129549849785,Ni66Fe18Cr14,"# generated using pymatgen
 data_Cr4Fe5Ni18
_symmetry_space_group_name_H-M   'P 1'
_cell_length_a   7.44268405
_cell_length_b   7.44268405
_cell_length_c   10.52554472
_cell_angle_alpha   90.00000000
_cell_angle_beta   90.00000000
_cell_angle_gamma   90.00000000
_symmetry_Int_Tables_number   1
_chemical_formula_structural   Cr4Fe5Ni18
_chemical_formula_sum   'Cr8 Fe10 Ni36'
_cell_volume   583.04724391
_cell_formula_units_Z   2
loop_
 _symmetry_equiv_pos_site_id
 _symmetry_equiv_pos_as_xyz
  1  'x, y, z'
loop_
 _atom_site_type_symbol
 _atom_site_label
 _atom_site_symmetry_multiplicity
 _atom_site_fract_x
 _atom_site_fract_y
 _atom_site_fract_z
 _atom_site_occupancy
  Ni  Ni0  1  1.00136143  0.00287475  0.00226951  1
  Ni  Ni1  1  0.16907036  0.16788768  0.16803284  1
  Ni  Ni2  1  0.00254124  0.00228688  0.33533282  1
  Ni  Ni3  1  0.00267080  0.33457737  1.00014594  1
  Ni  Ni4  1  0.16832676  0.50278119  0.16811988  1
  Fe  Fe5  1  0.00258214  0.33538429  0.33599920  1
  Ni  Ni6  1  1.00141235  0.66745731  0.00220973  1
  Ni  Ni7  1  0.16812917  0.83424390  0.16844337  1
  Fe  Fe8  1  1.00150604  0.66974448  0.33453361  1
  Fe  Fe9  1  0.33469559  1.00155835  0.00188773  1
  Cr  Cr10  1  0.50079215  0.16808317  0.16844076  1
  Ni  Ni11  1  0.33348084  1.00096386  0.33676070  1
  Fe  Fe12  1  0.33387605  0.33599617  1.00036941  1
  Fe  Fe13  1  0.50154960  0.50395127  0.16781438  1
  Fe  Fe14  1  0.33350740  0.33408629  0.33533084  1
  Ni  Ni15  1  0.33616446  0.66680896  0.00235440  1
  Fe  Fe16  1  0.50147859  0.83304217  0.16866024  1
  Ni  Ni17  1  0.33512993  0.66858750  0.33468980  1
  Ni  Ni18  1  0.66929598  1.00030413  0.99928597  1
  Cr  Cr19  1  0.83557441  0.16773980  0.16795780  1
  Ni  Ni20  1  0.66888860  0.99996875  0.33776155  1
  Ni  Ni21  1  0.66864695  0.33648587  0.99961069  1
  Ni  Ni22  1  0.83499458  0.50411694  0.16821980  1
  Fe  Fe23  1  0.66882216  0.33521054  0.33584196  1
  Ni  Ni24  1  0.66733237  0.66812174  0.00166279  1
  Ni  Ni25  1  0.83539422  0.83270744  0.16797258  1
  Ni  Ni26  1  0.66797596  0.66884313  0.33381375  1
  Ni  Ni27  1  0.16860028  0.16804724  0.49970458  1
  Cr  Cr28  1  1.00003176  0.00368710  0.66752867  1
  Ni  Ni29  1  0.16855451  0.17040706  0.83717546  1
  Ni  Ni30  1  0.16584984  0.50285112  0.50171575  1
  Ni  Ni31  1  0.00262740  0.33550373  0.66816164  1
  Ni  Ni32  1  0.16759531  0.50085047  0.83507250  1
  Ni  Ni33  1  0.16951068  0.83401414  0.50090213  1
  Fe  Fe34  1  0.00205955  0.66564786  0.66775426  1
  Cr  Cr35  1  0.16873151  0.83344802  0.83515807  1
  Ni  Ni36  1  0.50216787  0.16452749  0.50063365  1
  Fe  Fe37  1  0.33757355  1.00130921  0.66688538  1
  Ni  Ni38  1  0.50252900  0.16689115  0.83580574  1
  Cr  Cr39  1  0.50102097  0.50218338  0.49922250  1
  Cr  Cr40  1  0.33214228  0.33546295  0.66938709  1
  Ni  Ni41  1  0.50115953  0.50204188  0.83817465  1
  Ni  Ni42  1  0.50071388  0.83806993  0.50110112  1
  Ni  Ni43  1  0.33390056  0.66901540  0.66786427  1
  Ni  Ni44  1  0.50280290  0.83597638  0.83548554  1
  Ni  Ni45  1  0.83414512  0.16819150  0.50017316  1
  Ni  Ni46  1  0.66754520  1.00122881  0.66786217  1
  Ni  Ni47  1  0.83383035  0.16876258  0.83661080  1
  Ni  Ni48  1  0.83820213  0.50139743  0.50029636  1
  Cr  Cr49  1  0.67076821  0.33273238  0.66908501  1
  Ni  Ni50  1  0.83615464  0.50112890  0.83638992  1
  Ni  Ni51  1  0.83468643  0.83532174  0.50006606  1
  Cr  Cr52  1  0.66764378  0.67085487  0.66977290  1
  Ni  Ni53  1  0.83263692  0.83501763  0.83687286  1
" 