4133,Ni66Fe18Cr14_9,-235.905456925239, 192.104973652327,Ni66Fe18Cr14,"# generated using pymatgen
 data_Cr4Fe5Ni18
_symmetry_space_group_name_H-M   'P 1'
_cell_length_a   7.44270414
_cell_length_b   7.44270414
_cell_length_c   10.52557313
_cell_angle_alpha   90.00000000
_cell_angle_beta   90.00000000
_cell_angle_gamma   90.00000000
_symmetry_Int_Tables_number   1
_chemical_formula_structural   Cr4Fe5Ni18
_chemical_formula_sum   'Cr8 Fe10 Ni36'
_cell_volume   583.05196526
_cell_formula_units_Z   2
loop_
 _symmetry_equiv_pos_site_id
 _symmetry_equiv_pos_as_xyz
  1  'x, y, z'
loop_
 _atom_site_type_symbol
 _atom_site_label
 _atom_site_symmetry_multiplicity
 _atom_site_fract_x
 _atom_site_fract_y
 _atom_site_fract_z
 _atom_site_occupancy
  Ni  Ni0  1  0.00193229  0.00187112  0.00373981  1
  Ni  Ni1  1  0.16808189  0.16978819  0.16827612  1
  Fe  Fe2  1  0.00219249  1.00161144  0.33490189  1
  Ni  Ni3  1  1.00151049  0.33543744  0.00178000  1
  Ni  Ni4  1  0.16860311  0.50036263  0.16791733  1
  Ni  Ni5  1  1.00066388  0.33463904  0.33432071  1
  Fe  Fe6  1  0.00338128  0.66872209  0.00255867  1
  Ni  Ni7  1  0.16844995  0.83475535  0.16818366  1
  Ni  Ni8  1  0.00313420  0.66884603  0.33440188  1
  Ni  Ni9  1  0.33527895  0.99843534  1.00162950  1
  Fe  Fe10  1  0.50007087  0.16606629  0.16997576  1
  Ni  Ni11  1  0.33407352  0.00176779  0.33461438  1
  Fe  Fe12  1  0.33333223  0.33531501  0.00227214  1
  Fe  Fe13  1  0.49885663  0.50266812  0.16878287  1
  Ni  Ni14  1  0.33549893  0.33423585  0.33383256  1
  Ni  Ni15  1  0.33440978  0.66973095  1.00160013  1
  Ni  Ni16  1  0.50225276  0.83560727  0.16680354  1
  Ni  Ni17  1  0.33267917  0.66890026  0.33348460  1
  Ni  Ni18  1  0.66769275  1.00103090  0.00198062  1
  Fe  Fe19  1  0.83652996  0.16673172  0.16861342  1
  Ni  Ni20  1  0.66868996  0.00423872  0.33405847  1
  Cr  Cr21  1  0.66961345  0.33438924  1.00156989  1
  Fe  Fe22  1  0.83785326  0.50211606  0.16926329  1
  Ni  Ni23  1  0.66874400  0.33324239  0.33590697  1
  Fe  Fe24  1  0.66698435  0.67039346  0.00198463  1
  Ni  Ni25  1  0.83420291  0.83613086  0.16751313  1
  Cr  Cr26  1  0.66866397  0.66735731  0.33474934  1
  Ni  Ni27  1  0.16903121  0.16823202  0.50089805  1
  Cr  Cr28  1  0.00241139  1.00139566  0.66563014  1
  Cr  Cr29  1  0.16822416  0.17006479  0.83526744  1
  Cr  Cr30  1  0.16808070  0.50017745  0.50110952  1
  Ni  Ni31  1  0.99914970  0.33679176  0.66880751  1
  Ni  Ni32  1  0.16846705  0.50131010  0.83601354  1
  Ni  Ni33  1  0.16640660  0.83660301  0.49989422  1
  Ni  Ni34  1  1.00020382  0.66659528  0.66867355  1
  Ni  Ni35  1  0.17033180  0.83311822  0.83682482  1
  Ni  Ni36  1  0.50196070  0.17005140  0.50230247  1
  Ni  Ni37  1  0.33650323  0.00255012  0.66866452  1
  Fe  Fe38  1  0.50206923  0.16689351  0.83332001  1
  Ni  Ni39  1  0.50351070  0.49812059  0.50107287  1
  Ni  Ni40  1  0.33697398  0.33368754  0.66878427  1
  Ni  Ni41  1  0.50094985  0.50228726  0.83483214  1
  Cr  Cr42  1  0.50244777  0.83603333  0.50214558  1
  Cr  Cr43  1  0.33437272  0.66931215  0.66874486  1
  Ni  Ni44  1  0.50187323  0.83492894  0.83606131  1
  Ni  Ni45  1  0.83391505  0.16910580  0.50050772  1
  Ni  Ni46  1  0.66671128  0.00360481  0.66886773  1
  Ni  Ni47  1  0.83367649  0.16955625  0.83533239  1
  Ni  Ni48  1  0.83404334  0.50074603  0.50336734  1
  Ni  Ni49  1  0.66878390  0.33517781  0.66767395  1
  Fe  Fe50  1  0.83612495  0.50095084  0.83306849  1
  Ni  Ni51  1  0.83586368  0.83505431  0.50171590  1
  Ni  Ni52  1  0.66981476  0.66612253  0.66870124  1
  Cr  Cr53  1  0.83303280  0.83544876  0.83531425  1
" 