7165,Ni66Fe18Cr14_12,-236.014652085282, 192.554550505111,Ni66Fe18Cr14,"# generated using pymatgen
 data_Cr4Fe5Ni18
_symmetry_space_group_name_H-M   'P 1'
_cell_length_a   7.44159215
_cell_length_b   7.44159215
_cell_length_c   10.52400055
_cell_angle_alpha   90.00000000
_cell_angle_beta   90.00000000
_cell_angle_gamma   90.00000000
_symmetry_Int_Tables_number   1
_chemical_formula_structural   Cr4Fe5Ni18
_chemical_formula_sum   'Cr8 Fe10 Ni36'
_cell_volume   582.79067024
_cell_formula_units_Z   2
loop_
 _symmetry_equiv_pos_site_id
 _symmetry_equiv_pos_as_xyz
  1  'x, y, z'
loop_
 _atom_site_type_symbol
 _atom_site_label
 _atom_site_symmetry_multiplicity
 _atom_site_fract_x
 _atom_site_fract_y
 _atom_site_fract_z
 _atom_site_occupancy
  Fe  Fe0  1  0.00339307  0.99829079  1.00145827  1
  Ni  Ni1  1  0.16995057  0.16866336  0.16883466  1
  Ni  Ni2  1  0.00190114  1.00143845  0.33606406  1
  Cr  Cr3  1  0.00261175  0.33692908  1.00137962  1
  Fe  Fe4  1  0.16958164  0.50191947  0.16862277  1
  Ni  Ni5  1  0.00171419  0.33462112  0.33540541  1
  Ni  Ni6  1  1.00083978  0.66958165  1.00129981  1
  Fe  Fe7  1  0.16802326  0.83451906  0.16742428  1
  Fe  Fe8  1  1.00129700  0.66902616  0.33411945  1
  Ni  Ni9  1  0.33548085  1.00168828  1.00166842  1
  Ni  Ni10  1  0.50046619  0.16927265  0.16801785  1
  Cr  Cr11  1  0.33417819  0.00239120  0.33440423  1
  Ni  Ni12  1  0.33629223  0.33375327  1.00093874  1
  Ni  Ni13  1  0.50037586  0.50109784  0.16806787  1
  Ni  Ni14  1  0.33520646  0.33500886  0.33484111  1
  Ni  Ni15  1  0.33547130  0.66968847  0.00202866  1
  Ni  Ni16  1  0.50164685  0.83475906  0.16672641  1
  Fe  Fe17  1  0.33420841  0.66661033  0.33402630  1
  Ni  Ni18  1  0.66550007  0.99930393  1.00149427  1
  Cr  Cr19  1  0.83414568  0.16751313  0.16876182  1
  Ni  Ni20  1  0.66995021  0.00253535  0.33606165  1
  Ni  Ni21  1  0.66561348  0.33705717  0.00222357  1
  Ni  Ni22  1  0.83492451  0.50309692  0.16878352  1
  Ni  Ni23  1  0.66820992  0.33544825  0.33598531  1
  Ni  Ni24  1  0.66881892  0.66876928  1.00128650  1
  Ni  Ni25  1  0.83553455  0.83463436  0.16801766  1
  Cr  Cr26  1  0.66935742  0.66716880  0.33398893  1
  Fe  Fe27  1  0.16536269  0.16837777  0.50135826  1
  Ni  Ni28  1  0.00242994  1.00159614  0.66739455  1
  Ni  Ni29  1  0.16989514  0.16861054  0.83460043  1
  Cr  Cr30  1  0.16939351  0.50211449  0.50147098  1
  Ni  Ni31  1  1.00067057  0.33446244  0.66805569  1
  Ni  Ni32  1  0.16982721  0.50243375  0.83445327  1
  Ni  Ni33  1  0.16540841  0.83506964  0.50107236  1
  Fe  Fe34  1  1.00049478  0.66902777  0.66967849  1
  Ni  Ni35  1  0.16800801  0.83408730  0.83594801  1
  Fe  Fe36  1  0.50443841  0.17165874  0.50109802  1
  Cr  Cr37  1  0.33312286  1.00151190  0.66934536  1
  Ni  Ni38  1  0.50060389  0.16927616  0.83623243  1
  Ni  Ni39  1  0.50174782  0.49940561  0.50229772  1
  Fe  Fe40  1  0.33593599  0.33634275  0.66971775  1
  Ni  Ni41  1  0.50078492  0.50188509  0.83476783  1
  Cr  Cr42  1  0.50220259  0.83370257  0.50237697  1
  Ni  Ni43  1  0.33610557  0.66812478  0.66945741  1
  Ni  Ni44  1  0.50194111  0.83397419  0.83610882  1
  Ni  Ni45  1  0.83525251  0.16793069  0.50088670  1
  Fe  Fe46  1  0.67038983  1.00144924  0.66849405  1
  Cr  Cr47  1  0.83431660  0.16746998  0.83558679  1
  Ni  Ni48  1  0.83430709  0.49946215  0.50229510  1
  Ni  Ni49  1  0.66900021  0.33782023  0.66692303  1
  Ni  Ni50  1  0.83452030  0.50376897  0.83405052  1
  Ni  Ni51  1  0.83754804  0.83774177  0.50229509  1
  Ni  Ni52  1  0.66877376  0.66636451  0.66964313  1
  Ni  Ni53  1  0.83518362  0.83390347  0.83481898  1
" 