1626,Ni66Fe27Cr6_8,-238.429134406825, 202.717212204416,Ni66Fe27Cr6,"# generated using pymatgen
 data_Cr5(Fe2Ni5)7
_symmetry_space_group_name_H-M   'P 1'
_cell_length_a   7.42600967
_cell_length_b   7.42600967
_cell_length_c   10.50196359
_cell_angle_alpha   90.00000000
_cell_angle_beta   90.00000000
_cell_angle_gamma   90.00000000
_symmetry_Int_Tables_number   1
_chemical_formula_structural   Cr5(Fe2Ni5)7
_chemical_formula_sum   'Cr5 Fe14 Ni35'
_cell_volume   579.13728938
_cell_formula_units_Z   1
loop_
 _symmetry_equiv_pos_site_id
 _symmetry_equiv_pos_as_xyz
  1  'x, y, z'
loop_
 _atom_site_type_symbol
 _atom_site_label
 _atom_site_symmetry_multiplicity
 _atom_site_fract_x
 _atom_site_fract_y
 _atom_site_fract_z
 _atom_site_occupancy
  Ni  Ni0  1  1.00253211  0.00350443  0.00292679  1
  Fe  Fe1  1  0.16791089  0.16930265  0.16840137  1
  Fe  Fe2  1  0.00368908  1.00193479  0.33540098  1
  Ni  Ni3  1  1.00242968  0.33565750  1.00243842  1
  Cr  Cr4  1  0.17095489  0.50405237  0.16797330  1
  Fe  Fe5  1  1.00174199  0.33508162  0.33608614  1
  Ni  Ni6  1  1.00139879  0.66933846  1.00201353  1
  Fe  Fe7  1  0.16971425  0.83723775  0.16868982  1
  Fe  Fe8  1  0.00332556  0.67131237  0.33575511  1
  Ni  Ni9  1  0.33513843  1.00218863  1.00262296  1
  Cr  Cr10  1  0.50257884  0.16989867  0.16920384  1
  Ni  Ni11  1  0.33526498  1.00248030  0.33658544  1
  Ni  Ni12  1  0.33375024  0.33617121  1.00029485  1
  Ni  Ni13  1  0.50303662  0.50282378  0.16918775  1
  Ni  Ni14  1  0.33324374  0.33589443  0.33843297  1
  Ni  Ni15  1  0.33716944  0.66995479  1.00198341  1
  Fe  Fe16  1  0.50479747  0.83454524  0.16965101  1
  Ni  Ni17  1  0.33764953  0.66979114  0.33654956  1
  Ni  Ni18  1  0.67082140  1.00055392  1.00132763  1
  Ni  Ni19  1  0.83615529  0.16821440  0.16896803  1
  Ni  Ni20  1  0.67080369  1.00086429  0.33760254  1
  Fe  Fe21  1  0.67008124  0.33699938  1.00208324  1
  Ni  Ni22  1  0.83525463  0.50328399  0.17031853  1
  Fe  Fe23  1  0.66815052  0.33658489  0.33676970  1
  Ni  Ni24  1  0.67015163  0.67017474  0.00319007  1
  Ni  Ni25  1  0.83739909  0.83661493  0.16965388  1
  Ni  Ni26  1  0.67019274  0.67021841  0.33642605  1
  Fe  Fe27  1  0.17010642  0.16779622  0.50357010  1
  Fe  Fe28  1  0.00478642  0.00297116  0.66977797  1
  Ni  Ni29  1  0.17047270  0.16927031  0.83630814  1
  Fe  Fe30  1  0.16971448  0.50354766  0.50318277  1
  Ni  Ni31  1  0.00462956  0.33592481  0.66898173  1
  Ni  Ni32  1  0.16929425  0.50291490  0.83542515  1
  Ni  Ni33  1  0.16892428  0.83510930  0.50275965  1
  Fe  Fe34  1  0.00452079  0.66950654  0.67046505  1
  Ni  Ni35  1  0.16888286  0.83610279  0.83705115  1
  Ni  Ni36  1  0.50195680  0.16996053  0.50180240  1
  Ni  Ni37  1  0.33486296  1.00235629  0.66894892  1
  Ni  Ni38  1  0.50015657  0.16947329  0.83702701  1
  Ni  Ni39  1  0.49996207  0.50193985  0.50092104  1
  Ni  Ni40  1  0.33318932  0.33615503  0.66911234  1
  Ni  Ni41  1  0.50055956  0.50187665  0.83843783  1
  Ni  Ni42  1  0.50083396  0.83633579  0.50047641  1
  Ni  Ni43  1  0.33524717  0.66964400  0.66937079  1
  Ni  Ni44  1  0.50092517  0.83689603  0.83812701  1
  Ni  Ni45  1  0.83736278  0.16856985  0.50139493  1
  Cr  Cr46  1  0.66848735  1.00136579  0.66974687  1
  Fe  Fe47  1  0.83793117  0.16949614  0.83750415  1
  Fe  Fe48  1  0.83649645  0.50365754  0.50143969  1
  Cr  Cr49  1  0.66963760  0.33627092  0.67032800  1
  Ni  Ni50  1  0.83863372  0.50374609  0.83805346  1
  Ni  Ni51  1  0.83938033  0.83700221  0.50174114  1
  Cr  Cr52  1  0.66801354  0.67079377  0.66949537  1
  Ni  Ni53  1  0.83890350  0.83584600  0.83722257  1
" 