6519,Ni66Fe10Cr22_16,-230.156965679565, 166.553753667112,Ni66Fe10Cr22,"# generated using pymatgen
 data_Cr14(FeNi7)5
_symmetry_space_group_name_H-M   'P 1'
_cell_length_a   7.46454580
_cell_length_b   7.46454580
_cell_length_c   10.55646191
_cell_angle_alpha   90.00000000
_cell_angle_beta   90.00000000
_cell_angle_gamma   90.00000000
_symmetry_Int_Tables_number   1
_chemical_formula_structural   Cr14(FeNi7)5
_chemical_formula_sum   'Cr14 Fe5 Ni35'
_cell_volume   588.20018856
_cell_formula_units_Z   1
loop_
 _symmetry_equiv_pos_site_id
 _symmetry_equiv_pos_as_xyz
  1  'x, y, z'
loop_
 _atom_site_type_symbol
 _atom_site_label
 _atom_site_symmetry_multiplicity
 _atom_site_fract_x
 _atom_site_fract_y
 _atom_site_fract_z
 _atom_site_occupancy
  Ni  Ni0  1  0.99743613  0.99923132  0.99847854  1
  Cr  Cr1  1  0.16623411  0.16510506  0.16913024  1
  Ni  Ni2  1  0.99880009  0.99993287  0.33492451  1
  Cr  Cr3  1  0.00161104  0.33411148  0.99819131  1
  Ni  Ni4  1  0.16750843  0.50210869  0.16839685  1
  Ni  Ni5  1  0.00091309  0.33357354  0.33587482  1
  Ni  Ni6  1  0.00145915  0.66792829  0.99854668  1
  Cr  Cr7  1  0.16563091  0.83278946  0.16704200  1
  Ni  Ni8  1  0.00162927  0.66709142  0.33449502  1
  Ni  Ni9  1  0.33317289  0.00051064  0.99877127  1
  Ni  Ni10  1  0.50140386  0.16850174  0.16638970  1
  Ni  Ni11  1  0.33369088  0.00144405  0.33684889  1
  Cr  Cr12  1  0.33344554  0.33621068  0.00034668  1
  Ni  Ni13  1  0.49873675  0.49799556  0.16719822  1
  Ni  Ni14  1  0.33424284  0.33491060  0.33390243  1
  Ni  Ni15  1  0.33171944  0.66487673  0.99951507  1
  Cr  Cr16  1  0.49669166  0.83448914  0.16638309  1
  Ni  Ni17  1  0.33220997  0.66402106  0.33441413  1
  Ni  Ni18  1  0.66974434  0.00175203  0.00141331  1
  Ni  Ni19  1  0.83264437  0.16659023  0.16662214  1
  Cr  Cr20  1  0.66840516  0.00061244  0.33480438  1
  Fe  Fe21  1  0.66760051  0.33306436  0.00018356  1
  Cr  Cr22  1  0.83530562  0.49879975  0.16916085  1
  Ni  Ni23  1  0.66535217  0.33244998  0.33327050  1
  Cr  Cr24  1  0.66757158  0.66694392  0.00018178  1
  Ni  Ni25  1  0.83688992  0.83502688  0.16529066  1
  Cr  Cr26  1  0.66649905  0.66752315  0.33586584  1
  Ni  Ni27  1  0.16628148  0.16563769  0.49914221  1
  Cr  Cr28  1  0.00081402  0.00080925  0.66669395  1
  Ni  Ni29  1  0.16464670  0.16295491  0.83284764  1
  Fe  Fe30  1  0.16581296  0.50088194  0.49903310  1
  Ni  Ni31  1  0.99890244  0.33523863  0.66674593  1
  Fe  Fe32  1  0.16616433  0.50229182  0.83273622  1
  Ni  Ni33  1  0.16782668  0.83306326  0.49923180  1
  Ni  Ni34  1  0.00108242  0.66546497  0.66753058  1
  Ni  Ni35  1  0.16649908  0.83282694  0.83479352  1
  Ni  Ni36  1  0.49889569  0.16854644  0.49943242  1
  Ni  Ni37  1  0.33218654  0.99861694  0.66513292  1
  Cr  Cr38  1  0.50110947  0.16675073  0.83399429  1
  Ni  Ni39  1  0.50169293  0.49990521  0.50044620  1
  Cr  Cr40  1  0.33113187  0.33389729  0.66636286  1
  Ni  Ni41  1  0.50303535  0.50161265  0.83292266  1
  Ni  Ni42  1  0.49581753  0.83160787  0.50176737  1
  Ni  Ni43  1  0.33201355  0.66622834  0.66645587  1
  Cr  Cr44  1  0.49645859  0.83218415  0.83202476  1
  Ni  Ni45  1  0.83504286  0.17115920  0.49916630  1
  Cr  Cr46  1  0.66786957  0.99996888  0.66325938  1
  Ni  Ni47  1  0.83474834  0.17006328  0.83437902  1
  Ni  Ni48  1  0.83381078  0.49864025  0.50116375  1
  Ni  Ni49  1  0.66821322  0.33482099  0.66686669  1
  Ni  Ni50  1  0.83337734  0.49985405  0.83134067  1
  Ni  Ni51  1  0.83696481  0.83029455  0.50077477  1
  Fe  Fe52  1  0.66722433  0.66464398  0.66518691  1
  Fe  Fe53  1  0.83487765  0.83348999  0.83397498  1
" 