3022,Ni66Fe25Cr8_17,-237.573847335205, 203.149838538473,Ni66Fe25Cr8,"# generated using pymatgen
 data_Cr6Fe13Ni35
_symmetry_space_group_name_H-M   'P 1'
_cell_length_a   7.42931875
_cell_length_b   7.42931875
_cell_length_c   10.50664334
_cell_angle_alpha   90.00000000
_cell_angle_beta   90.00000000
_cell_angle_gamma   90.00000000
_symmetry_Int_Tables_number   1
_chemical_formula_structural   Cr6Fe13Ni35
_chemical_formula_sum   'Cr6 Fe13 Ni35'
_cell_volume   579.91183686
_cell_formula_units_Z   1
loop_
 _symmetry_equiv_pos_site_id
 _symmetry_equiv_pos_as_xyz
  1  'x, y, z'
loop_
 _atom_site_type_symbol
 _atom_site_label
 _atom_site_symmetry_multiplicity
 _atom_site_fract_x
 _atom_site_fract_y
 _atom_site_fract_z
 _atom_site_occupancy
  Ni  Ni0  1  0.99914234  0.00535732  1.00217535  1
  Fe  Fe1  1  0.16893105  0.17302034  0.16941112  1
  Cr  Cr2  1  1.00194454  0.00361367  0.33673392  1
  Ni  Ni3  1  1.00237377  0.33500952  0.00293510  1
  Ni  Ni4  1  0.16979075  0.50264381  0.16937098  1
  Fe  Fe5  1  1.00253849  0.33775498  0.33570957  1
  Fe  Fe6  1  1.00081975  0.66743382  0.00281474  1
  Cr  Cr7  1  0.16891463  0.83334753  0.16910798  1
  Ni  Ni8  1  1.00127823  0.66666476  0.33683038  1
  Cr  Cr9  1  0.33687619  0.00377288  0.00380635  1
  Ni  Ni10  1  0.50420413  0.17052910  0.17033611  1
  Ni  Ni11  1  0.33808502  0.00402934  0.33657872  1
  Ni  Ni12  1  0.33520515  0.33783268  1.00139862  1
  Ni  Ni13  1  0.50186509  0.50146640  0.16929461  1
  Ni  Ni14  1  0.33576709  0.33565261  0.33626365  1
  Ni  Ni15  1  0.33819376  0.66558329  0.00281352  1
  Fe  Fe16  1  0.50569259  0.83449803  0.17065314  1
  Ni  Ni17  1  0.33702618  0.66793567  0.33664671  1
  Ni  Ni18  1  0.67171643  1.00236924  1.00207997  1
  Ni  Ni19  1  0.83365440  0.16946708  0.16826193  1
  Ni  Ni20  1  0.66777131  1.00250124  0.33609059  1
  Ni  Ni21  1  0.67003428  0.33642838  0.00299528  1
  Ni  Ni22  1  0.83596100  0.50249526  0.16832431  1
  Fe  Fe23  1  0.66873213  0.33587216  0.33556193  1
  Ni  Ni24  1  0.66889083  0.66881562  1.00236676  1
  Ni  Ni25  1  0.83483666  0.83565669  0.16862379  1
  Ni  Ni26  1  0.66931782  0.66897330  0.33595464  1
  Ni  Ni27  1  0.17102798  0.16796101  0.50300940  1
  Ni  Ni28  1  0.00291685  1.00221939  0.66849992  1
  Fe  Fe29  1  0.16892695  0.17074811  0.83559870  1
  Fe  Fe30  1  0.16996008  0.50334611  0.50165400  1
  Cr  Cr31  1  0.00327541  0.33494258  0.66908492  1
  Ni  Ni32  1  0.17121642  0.50315646  0.83649623  1
  Ni  Ni33  1  0.17045245  0.83489248  0.50375195  1
  Ni  Ni34  1  1.00172407  0.67041520  0.66847461  1
  Cr  Cr35  1  0.16736472  0.83385998  0.83503332  1
  Ni  Ni36  1  0.50188415  0.16790062  0.50193305  1
  Ni  Ni37  1  0.33559737  0.00276553  0.66781009  1
  Ni  Ni38  1  0.50368553  0.17055391  0.83534839  1
  Fe  Fe39  1  0.50177776  0.50341282  0.50178178  1
  Fe  Fe40  1  0.33564289  0.33607261  0.66957765  1
  Ni  Ni41  1  0.50063791  0.50197526  0.83637764  1
  Ni  Ni42  1  0.50096336  0.83645099  0.50266982  1
  Ni  Ni43  1  0.33705644  0.66960800  0.66816143  1
  Fe  Fe44  1  0.50496993  0.83464859  0.83465614  1
  Ni  Ni45  1  0.83470448  0.16914078  0.50172900  1
  Fe  Fe46  1  0.66937333  1.00054694  0.66927298  1
  Ni  Ni47  1  0.83454523  0.16672573  0.83762821  1
  Ni  Ni48  1  0.83625842  0.50384060  0.50117986  1
  Cr  Cr49  1  0.66846359  0.33667574  0.66932991  1
  Fe  Fe50  1  0.83532193  0.50381882  0.83715041  1
  Fe  Fe51  1  0.83524113  0.83558693  0.50329549  1
  Ni  Ni52  1  0.66883655  0.67020577  0.66928992  1
  Ni  Ni53  1  0.83572756  0.83692041  0.83518150  1
" 