1997,Ni66Fe25Cr8_8,-237.964230620415, 201.334245796249,Ni66Fe25Cr8,"# generated using pymatgen
 data_Cr6Fe13Ni35
_symmetry_space_group_name_H-M   'P 1'
_cell_length_a   7.42926642
_cell_length_b   7.42926642
_cell_length_c   10.50656933
_cell_angle_alpha   90.00000000
_cell_angle_beta   90.00000000
_cell_angle_gamma   90.00000000
_symmetry_Int_Tables_number   1
_chemical_formula_structural   Cr6Fe13Ni35
_chemical_formula_sum   'Cr6 Fe13 Ni35'
_cell_volume   579.89958240
_cell_formula_units_Z   1
loop_
 _symmetry_equiv_pos_site_id
 _symmetry_equiv_pos_as_xyz
  1  'x, y, z'
loop_
 _atom_site_type_symbol
 _atom_site_label
 _atom_site_symmetry_multiplicity
 _atom_site_fract_x
 _atom_site_fract_y
 _atom_site_fract_z
 _atom_site_occupancy
  Ni  Ni0  1  1.00117204  0.00590214  0.00319968  1
  Ni  Ni1  1  0.16889892  0.16995166  0.16843318  1
  Ni  Ni2  1  1.00239433  0.00496013  0.33616924  1
  Fe  Fe3  1  1.00147787  0.33491219  1.00221602  1
  Cr  Cr4  1  0.16928231  0.50167879  0.16919476  1
  Ni  Ni5  1  0.00333765  0.33476551  0.33665424  1
  Fe  Fe6  1  1.00033123  0.67062037  1.00162045  1
  Cr  Cr7  1  0.16954049  0.83785970  0.16981312  1
  Fe  Fe8  1  1.00049497  0.67059392  0.33756946  1
  Ni  Ni9  1  0.33707534  0.00387455  0.00364843  1
  Fe  Fe10  1  0.50268898  0.16836102  0.17033147  1
  Ni  Ni11  1  0.33599405  0.00521960  0.33613409  1
  Fe  Fe12  1  0.33781809  0.33384597  1.00238162  1
  Ni  Ni13  1  0.50443914  0.50194926  0.16874504  1
  Ni  Ni14  1  0.33508893  0.33477930  0.33583636  1
  Ni  Ni15  1  0.34001385  0.66796790  0.00262128  1
  Ni  Ni16  1  0.50441096  0.83561330  0.16908836  1
  Fe  Fe17  1  0.33812521  0.67013616  0.33704066  1
  Ni  Ni18  1  0.66910130  1.00140189  0.00289455  1
  Fe  Fe19  1  0.83583946  0.16872203  0.16982882  1
  Ni  Ni20  1  0.66925710  0.99989905  0.33531006  1
  Fe  Fe21  1  0.66883118  0.33463011  1.00230574  1
  Ni  Ni22  1  0.83378514  0.50170632  0.16946926  1
  Fe  Fe23  1  0.66852355  0.33421320  0.33647873  1
  Ni  Ni24  1  0.66889349  0.66842530  1.00193097  1
  Ni  Ni25  1  0.83362619  0.83600273  0.16778784  1
  Ni  Ni26  1  0.66904483  0.66890298  0.33559962  1
  Ni  Ni27  1  0.16899438  0.17011069  0.50396419  1
  Ni  Ni28  1  1.00172865  0.00536647  0.66840309  1
  Fe  Fe29  1  0.16801624  0.16892347  0.83614733  1
  Ni  Ni30  1  0.17107727  0.50079257  0.50187770  1
  Ni  Ni31  1  0.00443155  0.33426725  0.66949399  1
  Ni  Ni32  1  0.17052809  0.49965761  0.83720724  1
  Ni  Ni33  1  0.17024834  0.83721343  0.50156787  1
  Cr  Cr34  1  1.00180743  0.66828719  0.66791116  1
  Cr  Cr35  1  0.17110109  0.83596966  0.83621209  1
  Ni  Ni36  1  0.50234288  0.16854092  0.50204229  1
  Ni  Ni37  1  0.33639628  0.00381063  0.66805040  1
  Fe  Fe38  1  0.50267256  0.16739461  0.83536502  1
  Ni  Ni39  1  0.49969709  0.50173701  0.50134477  1
  Ni  Ni40  1  0.33384158  0.33591384  0.67032318  1
  Fe  Fe41  1  0.50215582  0.50329757  0.83685877  1
  Ni  Ni42  1  0.50230313  0.83709524  0.50224137  1
  Ni  Ni43  1  0.33669016  0.66784554  0.66788546  1
  Ni  Ni44  1  0.50271054  0.83768054  0.83637376  1
  Ni  Ni45  1  0.83627632  0.16775238  0.50170714  1
  Ni  Ni46  1  0.66935595  0.00257512  0.66946935  1
  Ni  Ni47  1  0.83536974  0.16868008  0.83620091  1
  Fe  Fe48  1  0.83633281  0.50170875  0.49976195  1
  Cr  Cr49  1  0.66980319  0.33573926  0.66723800  1
  Ni  Ni50  1  0.83729485  0.50005493  0.83792771  1
  Ni  Ni51  1  0.83515280  0.83985160  0.50187636  1
  Cr  Cr52  1  0.66796129  0.67132717  0.66991797  1
  Ni  Ni53  1  0.83353061  0.83881859  0.83763511  1
" 