5492,Ni66Fe27Cr6_15,-238.568784815145, 207.986611056458,Ni66Fe27Cr6,"# generated using pymatgen
 data_Cr5(Fe2Ni5)7
_symmetry_space_group_name_H-M   'P 1'
_cell_length_a   7.42096256
_cell_length_b   7.42096256
_cell_length_c   10.49482590
_cell_angle_alpha   90.00000000
_cell_angle_beta   90.00000000
_cell_angle_gamma   90.00000000
_symmetry_Int_Tables_number   1
_chemical_formula_structural   Cr5(Fe2Ni5)7
_chemical_formula_sum   'Cr5 Fe14 Ni35'
_cell_volume   577.95725498
_cell_formula_units_Z   1
loop_
 _symmetry_equiv_pos_site_id
 _symmetry_equiv_pos_as_xyz
  1  'x, y, z'
loop_
 _atom_site_type_symbol
 _atom_site_label
 _atom_site_symmetry_multiplicity
 _atom_site_fract_x
 _atom_site_fract_y
 _atom_site_fract_z
 _atom_site_occupancy
  Ni  Ni0  1  1.00138940  0.00366859  1.00306299  1
  Ni  Ni1  1  0.16896287  0.16855932  0.17003793  1
  Ni  Ni2  1  0.00316197  1.00150537  0.33554054  1
  Ni  Ni3  1  1.00170689  0.33708370  0.00354245  1
  Fe  Fe4  1  0.17000723  0.50522124  0.16989107  1
  Ni  Ni5  1  0.00427054  0.33830752  0.33560719  1
  Fe  Fe6  1  0.00349983  0.67119656  1.00293704  1
  Ni  Ni7  1  0.16938422  0.83777232  0.16878112  1
  Ni  Ni8  1  1.00253572  0.66992056  0.33660490  1
  Ni  Ni9  1  0.33686055  1.00100429  0.00364954  1
  Ni  Ni10  1  0.50248981  0.16970658  0.17162888  1
  Ni  Ni11  1  0.33714041  0.00327361  0.33602635  1
  Cr  Cr12  1  0.33444299  0.33700717  0.00390413  1
  Ni  Ni13  1  0.50448346  0.50396256  0.16935419  1
  Ni  Ni14  1  0.33563007  0.33646781  0.33564159  1
  Ni  Ni15  1  0.33746750  0.67064043  1.00256271  1
  Ni  Ni16  1  0.50311853  0.83569117  0.16945852  1
  Fe  Fe17  1  0.33534792  0.67131067  0.33520022  1
  Ni  Ni18  1  0.67082485  1.00138529  0.00449647  1
  Fe  Fe19  1  0.83616353  0.16812457  0.17001468  1
  Ni  Ni20  1  0.66889964  1.00122387  0.33587484  1
  Fe  Fe21  1  0.67116639  0.33547014  0.00457499  1
  Fe  Fe22  1  0.83681179  0.50328377  0.17034470  1
  Ni  Ni23  1  0.66955999  0.33636055  0.33481896  1
  Fe  Fe24  1  0.67069373  0.67086893  1.00284709  1
  Ni  Ni25  1  0.83701154  0.83555727  0.17064331  1
  Fe  Fe26  1  0.67100234  0.67072679  0.33618235  1
  Ni  Ni27  1  0.17014890  0.16824728  0.50252314  1
  Ni  Ni28  1  1.00254772  1.00232124  0.67094486  1
  Ni  Ni29  1  0.16735664  0.16847393  0.83654172  1
  Fe  Fe30  1  0.16694723  0.50517934  0.50288500  1
  Ni  Ni31  1  1.00284171  0.33785100  0.67052638  1
  Ni  Ni32  1  0.16816744  0.50486366  0.83629395  1
  Ni  Ni33  1  0.16965176  0.83768833  0.50389058  1
  Ni  Ni34  1  1.00206074  0.66938718  0.66996922  1
  Fe  Fe35  1  0.16850401  0.83687638  0.83652509  1
  Fe  Fe36  1  0.50319634  0.16659181  0.50152281  1
  Ni  Ni37  1  0.33651028  1.00107001  0.66933250  1
  Cr  Cr38  1  0.50395425  0.16781550  0.83532553  1
  Cr  Cr39  1  0.50452464  0.50398974  0.50318028  1
  Cr  Cr40  1  0.33335608  0.33636287  0.66909816  1
  Fe  Fe41  1  0.50455999  0.50543635  0.83671075  1
  Ni  Ni42  1  0.50241329  0.83613046  0.50306548  1
  Ni  Ni43  1  0.33623947  0.67133699  0.67084151  1
  Fe  Fe44  1  0.50352996  0.83527376  0.83647628  1
  Cr  Cr45  1  0.83845097  0.16968122  0.50347088  1
  Ni  Ni46  1  0.67034784  1.00000646  0.66906605  1
  Ni  Ni47  1  0.83794678  0.16978652  0.83693978  1
  Ni  Ni48  1  0.83673577  0.50446437  0.50327620  1
  Fe  Fe49  1  0.67245144  0.33734092  0.67035679  1
  Ni  Ni50  1  0.83694086  0.50364331  0.83649861  1
  Ni  Ni51  1  0.83690817  0.83459682  0.50302758  1
  Ni  Ni52  1  0.67088409  0.67174433  0.67038999  1
  Ni  Ni53  1  0.83646306  0.83621276  0.83576532  1
" 