3935,Ni66Fe25Cr8_4,-237.82608854737, 202.378804594166,Ni66Fe25Cr8,"# generated using pymatgen
 data_Cr6Fe13Ni35
_symmetry_space_group_name_H-M   'P 1'
_cell_length_a   7.42946810
_cell_length_b   7.42946810
_cell_length_c   10.50685455
_cell_angle_alpha   90.00000000
_cell_angle_beta   90.00000000
_cell_angle_gamma   90.00000000
_symmetry_Int_Tables_number   1
_chemical_formula_structural   Cr6Fe13Ni35
_chemical_formula_sum   'Cr6 Fe13 Ni35'
_cell_volume   579.94681201
_cell_formula_units_Z   1
loop_
 _symmetry_equiv_pos_site_id
 _symmetry_equiv_pos_as_xyz
  1  'x, y, z'
loop_
 _atom_site_type_symbol
 _atom_site_label
 _atom_site_symmetry_multiplicity
 _atom_site_fract_x
 _atom_site_fract_y
 _atom_site_fract_z
 _atom_site_occupancy
  Fe  Fe0  1  1.00246378  0.00569340  0.00382813  1
  Ni  Ni1  1  0.16812272  0.16993078  0.16966531  1
  Ni  Ni2  1  1.00158845  0.00475724  0.33534071  1
  Ni  Ni3  1  1.00210804  0.33426138  1.00187023  1
  Ni  Ni4  1  0.17235062  0.50033142  0.16906771  1
  Ni  Ni5  1  1.00246299  0.33458179  0.33639139  1
  Cr  Cr6  1  0.00351863  0.66744827  0.00378893  1
  Fe  Fe7  1  0.17098701  0.83722024  0.16969901  1
  Cr  Cr8  1  1.00186107  0.66786114  0.33520759  1
  Fe  Fe9  1  0.33563341  1.00234531  0.00313599  1
  Fe  Fe10  1  0.50270639  0.16939916  0.16971950  1
  Ni  Ni11  1  0.33737460  0.00305736  0.33503619  1
  Ni  Ni12  1  0.33497094  0.33652281  1.00228647  1
  Ni  Ni13  1  0.50114500  0.50386009  0.16895731  1
  Ni  Ni14  1  0.33491504  0.33470105  0.33628208  1
  Ni  Ni15  1  0.33722657  0.66963879  1.00199023  1
  Ni  Ni16  1  0.50326492  0.83417815  0.16895135  1
  Ni  Ni17  1  0.33713828  0.66982841  0.33428688  1
  Ni  Ni18  1  0.66896642  0.00297509  0.00359080  1
  Ni  Ni19  1  0.83724579  0.16780818  0.16819086  1
  Ni  Ni20  1  0.66862698  0.00253530  0.33711339  1
  Ni  Ni21  1  0.67050552  0.33548859  0.00298365  1
  Fe  Fe22  1  0.83407882  0.50078183  0.16908289  1
  Ni  Ni23  1  0.67020835  0.33434813  0.33475134  1
  Ni  Ni24  1  0.66671396  0.66912465  1.00251935  1
  Ni  Ni25  1  0.83371393  0.83840331  0.16980566  1
  Ni  Ni26  1  0.66850655  0.67070190  0.33561560  1
  Fe  Fe27  1  0.16897988  0.17061408  0.50212731  1
  Fe  Fe28  1  0.00264826  0.00421401  0.66898239  1
  Ni  Ni29  1  0.16754103  0.16916741  0.83555746  1
  Ni  Ni30  1  0.16875304  0.50055102  0.50373152  1
  Ni  Ni31  1  1.00106642  0.33681490  0.66932685  1
  Fe  Fe32  1  0.16938646  0.50106405  0.83509322  1
  Cr  Cr33  1  0.16948944  0.83586028  0.50172702  1
  Ni  Ni34  1  0.00314451  0.66682256  0.66894595  1
  Fe  Fe35  1  0.17145232  0.83632677  0.83433853  1
  Ni  Ni36  1  0.50281701  0.16765605  0.50171293  1
  Ni  Ni37  1  0.33664328  1.00124101  0.66944045  1
  Cr  Cr38  1  0.50238337  0.17081902  0.83706902  1
  Cr  Cr39  1  0.50147845  0.50252147  0.50179926  1
  Fe  Fe40  1  0.33400260  0.33624619  0.66928941  1
  Ni  Ni41  1  0.50206039  0.50428172  0.83626413  1
  Ni  Ni42  1  0.50405339  0.83745583  0.50299524  1
  Ni  Ni43  1  0.33490485  0.67100247  0.67130622  1
  Fe  Fe44  1  0.50121682  0.83430707  0.83607629  1
  Ni  Ni45  1  0.83579293  0.16856644  0.50306174  1
  Fe  Fe46  1  0.66933055  0.00271484  0.66712374  1
  Ni  Ni47  1  0.83843990  0.17046988  0.83633775  1
  Ni  Ni48  1  0.83704773  0.50178956  0.50293641  1
  Ni  Ni49  1  0.67224672  0.33507731  0.66985265  1
  Ni  Ni50  1  0.83459480  0.50075492  0.83558741  1
  Ni  Ni51  1  0.83387104  0.83723148  0.50302287  1
  Fe  Fe52  1  0.66949415  0.66856763  0.66907196  1
  Cr  Cr53  1  0.83532642  0.83664881  0.83463429  1
" 