8540,Ni66Fe25Cr8_15,-237.39598064088, 199.235500718351,Ni66Fe25Cr8,"# generated using pymatgen
 data_Cr6Fe13Ni35
_symmetry_space_group_name_H-M   'P 1'
_cell_length_a   7.43008985
_cell_length_b   7.43008985
_cell_length_c   10.50773384
_cell_angle_alpha   90.00000000
_cell_angle_beta   90.00000000
_cell_angle_gamma   90.00000000
_symmetry_Int_Tables_number   1
_chemical_formula_structural   Cr6Fe13Ni35
_chemical_formula_sum   'Cr6 Fe13 Ni35'
_cell_volume   580.09242594
_cell_formula_units_Z   1
loop_
 _symmetry_equiv_pos_site_id
 _symmetry_equiv_pos_as_xyz
  1  'x, y, z'
loop_
 _atom_site_type_symbol
 _atom_site_label
 _atom_site_symmetry_multiplicity
 _atom_site_fract_x
 _atom_site_fract_y
 _atom_site_fract_z
 _atom_site_occupancy
  Fe  Fe0  1  0.00252770  0.00282102  0.00265165  1
  Ni  Ni1  1  0.17000995  0.17034146  0.16809454  1
  Cr  Cr2  1  1.00239714  1.00199122  0.33610320  1
  Ni  Ni3  1  0.00468515  0.33522969  1.00128603  1
  Ni  Ni4  1  0.16898755  0.50174702  0.16911675  1
  Ni  Ni5  1  1.00245417  0.33733581  0.33691962  1
  Fe  Fe6  1  1.00225476  0.66820921  0.00271836  1
  Fe  Fe7  1  0.16887398  0.83468660  0.16889383  1
  Ni  Ni8  1  0.00266129  0.66762562  0.33545237  1
  Fe  Fe9  1  0.33591166  0.00319433  1.00191350  1
  Fe  Fe10  1  0.50232147  0.16874890  0.16974189  1
  Ni  Ni11  1  0.33670668  0.00283467  0.33616656  1
  Ni  Ni12  1  0.33323910  0.33643997  1.00217720  1
  Fe  Fe13  1  0.50197588  0.50300139  0.16993785  1
  Ni  Ni14  1  0.33571148  0.33607466  0.33553499  1
  Ni  Ni15  1  0.33515411  0.66842763  1.00154204  1
  Fe  Fe16  1  0.50335275  0.83571253  0.16977979  1
  Ni  Ni17  1  0.33515988  0.66855205  0.33667442  1
  Ni  Ni18  1  0.67043874  1.00097656  1.00190239  1
  Ni  Ni19  1  0.83572080  0.16875343  0.16864649  1
  Ni  Ni20  1  0.66836793  0.00304066  0.33636642  1
  Cr  Cr21  1  0.66897324  0.33587950  0.00267675  1
  Ni  Ni22  1  0.83650519  0.50356704  0.17039051  1
  Ni  Ni23  1  0.66929562  0.33579773  0.33552659  1
  Ni  Ni24  1  0.66922488  0.67104623  1.00166562  1
  Ni  Ni25  1  0.83357459  0.83513624  0.16863453  1
  Ni  Ni26  1  0.66963782  0.66862252  0.33612798  1
  Ni  Ni27  1  0.16920382  0.16931654  0.50214542  1
  Cr  Cr28  1  0.00292924  0.00355135  0.66858854  1
  Ni  Ni29  1  0.16976136  0.16873678  0.83721839  1
  Ni  Ni30  1  0.16890058  0.50248976  0.50135183  1
  Fe  Fe31  1  0.00252849  0.33592208  0.66898598  1
  Ni  Ni32  1  0.16903972  0.50234821  0.83698633  1
  Ni  Ni33  1  0.17309095  0.83565306  0.50118727  1
  Cr  Cr34  1  0.00338909  0.66804052  0.66856964  1
  Ni  Ni35  1  0.17139181  0.83637635  0.83762319  1
  Fe  Fe36  1  0.50209137  0.16766246  0.50118664  1
  Ni  Ni37  1  0.33655490  1.00107025  0.66949029  1
  Ni  Ni38  1  0.50157700  0.16631072  0.83620118  1
  Ni  Ni39  1  0.50312982  0.50561601  0.50091705  1
  Cr  Cr40  1  0.33458883  0.33660882  0.66931992  1
  Ni  Ni41  1  0.50256215  0.50503750  0.83670997  1
  Ni  Ni42  1  0.50210131  0.83569226  0.50357198  1
  Ni  Ni43  1  0.33680061  0.67043295  0.66924987  1
  Fe  Fe44  1  0.50188705  0.83519623  0.83508849  1
  Ni  Ni45  1  0.83539519  0.17034875  0.50207985  1
  Ni  Ni46  1  0.66825905  1.00131573  0.66919352  1
  Fe  Fe47  1  0.83673126  0.16912684  0.83662937  1
  Ni  Ni48  1  0.83542879  0.50172874  0.50054647  1
  Cr  Cr49  1  0.66975908  0.33614827  0.66964500  1
  Ni  Ni50  1  0.83585614  0.50340922  0.83652289  1
  Fe  Fe51  1  0.83349786  0.83452510  0.50126157  1
  Ni  Ni52  1  0.66777988  0.67042005  0.66967253  1
  Fe  Fe53  1  0.83394093  0.83542153  0.83771471  1
" 