6750,Ni66Fe10Cr22_12,-230.560399561312, 174.239610539305,Ni66Fe10Cr22,"# generated using pymatgen
 data_Cr14(FeNi7)5
_symmetry_space_group_name_H-M   'P 1'
_cell_length_a   7.46617178
_cell_length_b   7.46617178
_cell_length_c   10.55876138
_cell_angle_alpha   90.00000000
_cell_angle_beta   90.00000000
_cell_angle_gamma   90.00000000
_symmetry_Int_Tables_number   1
_chemical_formula_structural   Cr14(FeNi7)5
_chemical_formula_sum   'Cr14 Fe5 Ni35'
_cell_volume   588.58464850
_cell_formula_units_Z   1
loop_
 _symmetry_equiv_pos_site_id
 _symmetry_equiv_pos_as_xyz
  1  'x, y, z'
loop_
 _atom_site_type_symbol
 _atom_site_label
 _atom_site_symmetry_multiplicity
 _atom_site_fract_x
 _atom_site_fract_y
 _atom_site_fract_z
 _atom_site_occupancy
  Cr  Cr0  1  0.00079742  0.00316884  0.99976210  1
  Ni  Ni1  1  0.16602864  0.16809060  0.16721525  1
  Fe  Fe2  1  0.99737577  0.99979277  0.33342803  1
  Ni  Ni3  1  0.99816135  0.33296707  1.00001313  1
  Ni  Ni4  1  0.16617989  0.49877991  0.16781048  1
  Ni  Ni5  1  0.99845530  0.33482524  0.33185720  1
  Cr  Cr6  1  0.00119776  0.66423462  0.99844249  1
  Ni  Ni7  1  0.16719678  0.83330519  0.16611475  1
  Ni  Ni8  1  0.00008138  0.66491621  0.33540546  1
  Ni  Ni9  1  0.33239855  0.99842679  0.00054231  1
  Ni  Ni10  1  0.50121489  0.16833807  0.16698460  1
  Cr  Cr11  1  0.33402199  0.00035996  0.33355298  1
  Cr  Cr12  1  0.33276945  0.33463755  0.00155465  1
  Ni  Ni13  1  0.50115944  0.49862324  0.16581175  1
  Fe  Fe14  1  0.33389993  0.33399677  0.33201430  1
  Ni  Ni15  1  0.33366793  0.66733342  0.00050601  1
  Cr  Cr16  1  0.50094004  0.83285417  0.16409899  1
  Cr  Cr17  1  0.33171638  0.66633730  0.33238362  1
  Ni  Ni18  1  0.66652267  0.00170319  0.99999500  1
  Ni  Ni19  1  0.83293192  0.16935616  0.16695662  1
  Ni  Ni20  1  0.66799979  0.00236525  0.33577274  1
  Ni  Ni21  1  0.66943503  0.33423484  0.00087730  1
  Ni  Ni22  1  0.83284018  0.49745671  0.16770642  1
  Ni  Ni23  1  0.66919743  0.33195970  0.33242390  1
  Ni  Ni24  1  0.66507261  0.66423776  0.99939106  1
  Cr  Cr25  1  0.83261682  0.83324551  0.16830136  1
  Ni  Ni26  1  0.66950445  0.66584945  0.33411253  1
  Cr  Cr27  1  0.16802924  0.16861780  0.49954293  1
  Cr  Cr28  1  0.99930812  0.99860761  0.66766215  1
  Ni  Ni29  1  0.16632375  0.16768179  0.83338713  1
  Ni  Ni30  1  0.16487818  0.50112583  0.49922099  1
  Cr  Cr31  1  0.99887119  0.33498461  0.66897070  1
  Ni  Ni32  1  0.16633325  0.49917386  0.83314468  1
  Ni  Ni33  1  0.16469320  0.83132495  0.50060657  1
  Fe  Fe34  1  0.99836303  0.66683065  0.66629252  1
  Fe  Fe35  1  0.16669964  0.83342324  0.83374987  1
  Ni  Ni36  1  0.50261905  0.16536315  0.50154362  1
  Ni  Ni37  1  0.33409045  0.00043951  0.66601355  1
  Cr  Cr38  1  0.50016857  0.16706714  0.83153241  1
  Cr  Cr39  1  0.50066786  0.49828188  0.50057683  1
  Ni  Ni40  1  0.33394496  0.33279244  0.66661779  1
  Ni  Ni41  1  0.50125388  0.50074739  0.83381219  1
  Ni  Ni42  1  0.50346152  0.83592273  0.50115121  1
  Cr  Cr43  1  0.33225881  0.66695194  0.66683070  1
  Cr  Cr44  1  0.50190063  0.83276742  0.83494374  1
  Ni  Ni45  1  0.82978306  0.16517735  0.49846322  1
  Ni  Ni46  1  0.66649992  1.00002037  0.66440790  1
  Ni  Ni47  1  0.83362437  0.16722240  0.83475759  1
  Fe  Fe48  1  0.83377865  0.50111071  0.49876246  1
  Ni  Ni49  1  0.66671096  0.33327712  0.66687284  1
  Ni  Ni50  1  0.83258808  0.50066134  0.83303201  1
  Ni  Ni51  1  0.83201758  0.83302655  0.49940033  1
  Ni  Ni52  1  0.66886055  0.66687810  0.66667093  1
  Ni  Ni53  1  0.83205498  0.83229308  0.83216538  1
" 