1686,Ni66Fe10Cr22_1,-230.164709295455, 165.502898559361,Ni66Fe10Cr22,"# generated using pymatgen
 data_Cr14(FeNi7)5
_symmetry_space_group_name_H-M   'P 1'
_cell_length_a   7.46800661
_cell_length_b   7.46800661
_cell_length_c   10.56135623
_cell_angle_alpha   90.00000000
_cell_angle_beta   90.00000000
_cell_angle_gamma   90.00000000
_symmetry_Int_Tables_number   1
_chemical_formula_structural   Cr14(FeNi7)5
_chemical_formula_sum   'Cr14 Fe5 Ni35'
_cell_volume   589.01869497
_cell_formula_units_Z   1
loop_
 _symmetry_equiv_pos_site_id
 _symmetry_equiv_pos_as_xyz
  1  'x, y, z'
loop_
 _atom_site_type_symbol
 _atom_site_label
 _atom_site_symmetry_multiplicity
 _atom_site_fract_x
 _atom_site_fract_y
 _atom_site_fract_z
 _atom_site_occupancy
  Cr  Cr0  1  0.99933296  0.99774796  0.99933063  1
  Cr  Cr1  1  0.16888881  0.16668954  0.16862089  1
  Ni  Ni2  1  0.00025711  0.99961839  0.33262265  1
  Cr  Cr3  1  0.99980692  0.33571932  0.99885587  1
  Ni  Ni4  1  0.16696215  0.50252498  0.16761497  1
  Ni  Ni5  1  0.00006318  0.33622803  0.33577313  1
  Ni  Ni6  1  0.99766376  0.66635836  0.00168850  1
  Ni  Ni7  1  0.16605738  0.82994823  0.16707192  1
  Ni  Ni8  1  0.99974141  0.66398773  0.33093484  1
  Ni  Ni9  1  0.33428213  0.99890794  0.99796018  1
  Cr  Cr10  1  0.50097070  0.16864186  0.16584976  1
  Ni  Ni11  1  0.33356677  0.99979701  0.33562341  1
  Ni  Ni12  1  0.33369628  0.33451599  0.00128644  1
  Fe  Fe13  1  0.50089630  0.50068586  0.16748661  1
  Ni  Ni14  1  0.33346035  0.33546188  0.33479019  1
  Fe  Fe15  1  0.33382576  0.66646346  0.00144772  1
  Cr  Cr16  1  0.50100958  0.83396206  0.16704377  1
  Ni  Ni17  1  0.33334894  0.66459363  0.33257260  1
  Ni  Ni18  1  0.66623545  0.99738398  0.99816604  1
  Cr  Cr19  1  0.82986241  0.16645739  0.16961064  1
  Ni  Ni20  1  0.66594921  0.99955093  0.33475334  1
  Ni  Ni21  1  0.66651660  0.33605783  0.00045443  1
  Ni  Ni22  1  0.83272323  0.50252673  0.16695474  1
  Ni  Ni23  1  0.66632023  0.33584039  0.33458362  1
  Ni  Ni24  1  0.66833729  0.66680420  0.99907164  1
  Ni  Ni25  1  0.83335982  0.82998508  0.16739731  1
  Ni  Ni26  1  0.66657972  0.66443295  0.33413983  1
  Ni  Ni27  1  0.16780306  0.16898191  0.49983473  1
  Cr  Cr28  1  0.99987557  0.00280879  0.66803547  1
  Ni  Ni29  1  0.16788148  0.16810014  0.83181138  1
  Ni  Ni30  1  0.16686463  0.49922221  0.49999068  1
  Ni  Ni31  1  0.99888110  0.33471670  0.66581237  1
  Cr  Cr32  1  0.16702050  0.49940606  0.83131367  1
  Cr  Cr33  1  0.16658636  0.83091882  0.49871267  1
  Ni  Ni34  1  0.99850394  0.66329072  0.66717095  1
  Cr  Cr35  1  0.16796687  0.83112929  0.83333223  1
  Ni  Ni36  1  0.49966781  0.16866720  0.49892391  1
  Ni  Ni37  1  0.33482702  0.00036073  0.66612881  1
  Cr  Cr38  1  0.49923043  0.16773559  0.83558856  1
  Ni  Ni39  1  0.49977812  0.49894656  0.49909808  1
  Ni  Ni40  1  0.33321423  0.33325148  0.66412146  1
  Cr  Cr41  1  0.50029212  0.50052250  0.83422265  1
  Fe  Fe42  1  0.49895661  0.83219893  0.49881933  1
  Ni  Ni43  1  0.33509076  0.66618104  0.66504380  1
  Ni  Ni44  1  0.50141616  0.83202427  0.83267061  1
  Ni  Ni45  1  0.83242915  0.16958665  0.49758664  1
  Cr  Cr46  1  0.66488189  0.00000436  0.66625059  1
  Ni  Ni47  1  0.83178455  0.16790582  0.83351486  1
  Ni  Ni48  1  0.83300186  0.49871000  0.50098372  1
  Ni  Ni49  1  0.66765915  0.33448572  0.66550874  1
  Fe  Fe50  1  0.83242057  0.50052177  0.83253263  1
  Cr  Cr51  1  0.83365552  0.83085408  0.49691438  1
  Fe  Fe52  1  0.66608644  0.66460969  0.66615537  1
  Ni  Ni53  1  0.83104241  0.83050006  0.83474883  1
" 