4717,Ni66Fe27Cr6_6,-239.026496390898, 205.402402966623,Ni66Fe27Cr6,"# generated using pymatgen
 data_Cr5(Fe2Ni5)7
_symmetry_space_group_name_H-M   'P 1'
_cell_length_a   7.42791509
_cell_length_b   7.42791509
_cell_length_c   10.50465827
_cell_angle_alpha   90.00000000
_cell_angle_beta   90.00000000
_cell_angle_gamma   90.00000000
_symmetry_Int_Tables_number   1
_chemical_formula_structural   Cr5(Fe2Ni5)7
_chemical_formula_sum   'Cr5 Fe14 Ni35'
_cell_volume   579.58320271
_cell_formula_units_Z   1
loop_
 _symmetry_equiv_pos_site_id
 _symmetry_equiv_pos_as_xyz
  1  'x, y, z'
loop_
 _atom_site_type_symbol
 _atom_site_label
 _atom_site_symmetry_multiplicity
 _atom_site_fract_x
 _atom_site_fract_y
 _atom_site_fract_z
 _atom_site_occupancy
  Ni  Ni0  1  1.00068675  1.00159129  1.00042288  1
  Cr  Cr1  1  0.17030355  0.17018620  0.16867893  1
  Ni  Ni2  1  1.00136085  1.00235004  0.33819839  1
  Fe  Fe3  1  1.00196989  0.33576438  1.00200876  1
  Ni  Ni4  1  0.16783340  0.50255656  0.16825779  1
  Fe  Fe5  1  1.00067401  0.33600179  0.33628114  1
  Ni  Ni6  1  0.00352621  0.67159728  0.00519289  1
  Ni  Ni7  1  0.16869931  0.83534949  0.16817783  1
  Fe  Fe8  1  1.00065904  0.67129924  0.33501699  1
  Ni  Ni9  1  0.33521508  0.00341524  0.00463079  1
  Ni  Ni10  1  0.50362011  0.16850940  0.16895657  1
  Fe  Fe11  1  0.33675076  1.00239370  0.33695597  1
  Ni  Ni12  1  0.33770333  0.33707712  1.00149536  1
  Ni  Ni13  1  0.50312652  0.50160361  0.16732965  1
  Ni  Ni14  1  0.33812045  0.33470278  0.33605286  1
  Ni  Ni15  1  0.33479901  0.66713976  0.00354681  1
  Ni  Ni16  1  0.50376500  0.83756750  0.16800096  1
  Cr  Cr17  1  0.33834849  0.66931653  0.33443702  1
  Ni  Ni18  1  0.67167488  0.00453737  0.00455425  1
  Ni  Ni19  1  0.83454395  0.16951424  0.16910264  1
  Fe  Fe20  1  0.66898380  1.00167902  0.33570601  1
  Ni  Ni21  1  0.66740626  0.33458835  0.00394997  1
  Ni  Ni22  1  0.83678911  0.50281087  0.16902040  1
  Fe  Fe23  1  0.66905000  0.33610388  0.33464357  1
  Ni  Ni24  1  0.66948989  0.66866290  0.00537461  1
  Ni  Ni25  1  0.83518231  0.83582762  0.16862257  1
  Ni  Ni26  1  0.67070901  0.66876516  0.33552737  1
  Ni  Ni27  1  0.17104577  0.16874939  0.50326599  1
  Ni  Ni28  1  1.00246582  0.00308037  0.66938081  1
  Fe  Fe29  1  0.16897445  0.16855205  0.83545070  1
  Cr  Cr30  1  0.16583710  0.50162507  0.50244533  1
  Ni  Ni31  1  0.00319415  0.33370588  0.66876931  1
  Ni  Ni32  1  0.16967795  0.50240404  0.83613288  1
  Ni  Ni33  1  0.16872028  0.83836129  0.50436535  1
  Ni  Ni34  1  1.00140822  0.67084539  0.66789907  1
  Fe  Fe35  1  0.16742426  0.83648448  0.83628913  1
  Ni  Ni36  1  0.50219467  0.16828069  0.50240412  1
  Ni  Ni37  1  0.33493346  0.00466909  0.66697770  1
  Ni  Ni38  1  0.50215781  0.16845161  0.83674203  1
  Fe  Fe39  1  0.50484297  0.50257185  0.50212631  1
  Fe  Fe40  1  0.33649593  0.33431914  0.67022790  1
  Fe  Fe41  1  0.50332064  0.50174095  0.83726163  1
  Ni  Ni42  1  0.50422680  0.83858643  0.50359707  1
  Fe  Fe43  1  0.33473375  0.67141726  0.66970048  1
  Cr  Cr44  1  0.50460892  0.83857846  0.83754677  1
  Fe  Fe45  1  0.83713610  0.16784745  0.50309593  1
  Ni  Ni46  1  0.67039723  0.00274081  0.66772423  1
  Ni  Ni47  1  0.83434361  0.16771941  0.83536259  1
  Ni  Ni48  1  0.83492869  0.50291316  0.50272608  1
  Fe  Fe49  1  0.67034862  0.33341652  0.66922173  1
  Cr  Cr50  1  0.83805305  0.50468221  0.83711290  1
  Ni  Ni51  1  0.83491949  0.83423214  0.50360070  1
  Ni  Ni52  1  0.66890371  0.66852555  0.66707979  1
  Ni  Ni53  1  0.83595977  0.83683216  0.83559470  1
" 