8201,Ni66Fe27Cr6_5,-238.638005867736, 208.12829776265,Ni66Fe27Cr6,"# generated using pymatgen
 data_Cr5(Fe2Ni5)7
_symmetry_space_group_name_H-M   'P 1'
_cell_length_a   7.42453956
_cell_length_b   7.42453956
_cell_length_c   10.49988454
_cell_angle_alpha   90.00000000
_cell_angle_beta   90.00000000
_cell_angle_gamma   90.00000000
_symmetry_Int_Tables_number   1
_chemical_formula_structural   Cr5(Fe2Ni5)7
_chemical_formula_sum   'Cr5 Fe14 Ni35'
_cell_volume   578.79340616
_cell_formula_units_Z   1
loop_
 _symmetry_equiv_pos_site_id
 _symmetry_equiv_pos_as_xyz
  1  'x, y, z'
loop_
 _atom_site_type_symbol
 _atom_site_label
 _atom_site_symmetry_multiplicity
 _atom_site_fract_x
 _atom_site_fract_y
 _atom_site_fract_z
 _atom_site_occupancy
  Ni  Ni0  1  1.00267638  0.00464613  1.00214435  1
  Fe  Fe1  1  0.17038003  0.16855486  0.16899670  1
  Ni  Ni2  1  0.00332968  1.00256785  0.33688968  1
  Ni  Ni3  1  0.00423941  0.33642216  1.00278536  1
  Ni  Ni4  1  0.17106721  0.50237425  0.16902384  1
  Cr  Cr5  1  1.00186647  0.33495229  0.33642995  1
  Fe  Fe6  1  1.00124124  0.66949688  1.00184498  1
  Cr  Cr7  1  0.16821980  0.83439632  0.17005099  1
  Fe  Fe8  1  0.00325081  0.66966868  0.33774595  1
  Ni  Ni9  1  0.33591637  1.00073775  0.00321584  1
  Ni  Ni10  1  0.50265451  0.17006214  0.17028314  1
  Ni  Ni11  1  0.33530288  1.00167671  0.33699655  1
  Fe  Fe12  1  0.33491249  0.33565102  0.00337646  1
  Fe  Fe13  1  0.50276753  0.50456845  0.17093141  1
  Ni  Ni14  1  0.33664571  0.33711687  0.33554006  1
  Fe  Fe15  1  0.33664262  0.66927998  1.00191142  1
  Ni  Ni16  1  0.50354683  0.83627170  0.16875140  1
  Ni  Ni17  1  0.33740247  0.66980944  0.33716646  1
  Ni  Ni18  1  0.66988681  0.99983593  1.00271142  1
  Ni  Ni19  1  0.83514414  0.16789692  0.16842209  1
  Cr  Cr20  1  0.66970098  1.00284014  0.33665804  1
  Cr  Cr21  1  0.67234021  0.33797329  0.00293957  1
  Fe  Fe22  1  0.83641566  0.50514384  0.17005246  1
  Ni  Ni23  1  0.66935056  0.33818731  0.33652910  1
  Ni  Ni24  1  0.66859069  0.67127969  0.00347024  1
  Ni  Ni25  1  0.83570398  0.83671456  0.16906576  1
  Fe  Fe26  1  0.66907739  0.66901808  0.33645167  1
  Ni  Ni27  1  0.17022448  0.16910374  0.50233319  1
  Fe  Fe28  1  0.00382591  1.00281600  0.66939396  1
  Ni  Ni29  1  0.16802492  0.16994870  0.83745387  1
  Ni  Ni30  1  0.17163924  0.50384831  0.50389128  1
  Ni  Ni31  1  1.00274811  0.33564309  0.66986951  1
  Ni  Ni32  1  0.17057709  0.50296160  0.83574378  1
  Ni  Ni33  1  0.16884179  0.83559993  0.50228326  1
  Fe  Fe34  1  0.00392534  0.66869703  0.66893190  1
  Ni  Ni35  1  0.16886968  0.83548457  0.83628488  1
  Fe  Fe36  1  0.50150786  0.17161539  0.50321232  1
  Ni  Ni37  1  0.33360635  1.00035725  0.66836685  1
  Cr  Cr38  1  0.50333344  0.16984217  0.83405938  1
  Ni  Ni39  1  0.50227717  0.50172083  0.50212326  1
  Ni  Ni40  1  0.33400790  0.33725333  0.66883056  1
  Ni  Ni41  1  0.50131068  0.50469683  0.83618662  1
  Fe  Fe42  1  0.50171217  0.83434897  0.50396409  1
  Ni  Ni43  1  0.33734626  0.67086321  0.67040095  1
  Ni  Ni44  1  0.50338936  0.83435324  0.83662627  1
  Ni  Ni45  1  0.83552114  0.16913681  0.50483019  1
  Fe  Fe46  1  0.66967011  1.00172309  0.66933391  1
  Ni  Ni47  1  0.83787078  0.16779554  0.83518699  1
  Ni  Ni48  1  0.83469728  0.50366106  0.50317469  1
  Ni  Ni49  1  0.67178943  0.33917888  0.66822097  1
  Fe  Fe50  1  0.83691877  0.50418597  0.83456072  1
  Ni  Ni51  1  0.83765245  0.83588428  0.50282174  1
  Ni  Ni52  1  0.66887085  0.66961908  0.66930951  1
  Ni  Ni53  1  0.83615290  0.83710215  0.83680478  1
" 