5166,Ni66Fe25Cr8_18,-238.095566806689, 204.419477016633,Ni66Fe25Cr8,"# generated using pymatgen
 data_Cr6Fe13Ni35
_symmetry_space_group_name_H-M   'P 1'
_cell_length_a   7.42631365
_cell_length_b   7.42631365
_cell_length_c   10.50239349
_cell_angle_alpha   90.00000000
_cell_angle_beta   90.00000000
_cell_angle_gamma   90.00000000
_symmetry_Int_Tables_number   1
_chemical_formula_structural   Cr6Fe13Ni35
_chemical_formula_sum   'Cr6 Fe13 Ni35'
_cell_volume   579.20841329
_cell_formula_units_Z   1
loop_
 _symmetry_equiv_pos_site_id
 _symmetry_equiv_pos_as_xyz
  1  'x, y, z'
loop_
 _atom_site_type_symbol
 _atom_site_label
 _atom_site_symmetry_multiplicity
 _atom_site_fract_x
 _atom_site_fract_y
 _atom_site_fract_z
 _atom_site_occupancy
  Ni  Ni0  1  0.00346143  0.00285463  1.00145342  1
  Fe  Fe1  1  0.17098635  0.16881034  0.16909486  1
  Ni  Ni2  1  0.00331514  0.00288325  0.33791474  1
  Fe  Fe3  1  0.00421391  0.33795572  1.00129014  1
  Ni  Ni4  1  0.17090449  0.50539509  0.17047713  1
  Ni  Ni5  1  0.00674235  0.33533174  0.33529176  1
  Fe  Fe6  1  0.00387497  0.66854684  0.00287980  1
  Ni  Ni7  1  0.16827936  0.83518538  0.16971261  1
  Ni  Ni8  1  0.00509645  0.67011243  0.33450592  1
  Fe  Fe9  1  0.33649280  0.00278880  0.00281284  1
  Ni  Ni10  1  0.50253433  0.17038721  0.16965071  1
  Ni  Ni11  1  0.33524527  1.00245527  0.33442116  1
  Ni  Ni12  1  0.33624941  0.33709029  1.00170874  1
  Ni  Ni13  1  0.50109066  0.50081640  0.16908823  1
  Ni  Ni14  1  0.33278357  0.33622735  0.33487011  1
  Ni  Ni15  1  0.33725129  0.66768712  0.00321277  1
  Fe  Fe16  1  0.50131798  0.83647039  0.16791046  1
  Ni  Ni17  1  0.33456209  0.66949496  0.33533224  1
  Fe  Fe18  1  0.66773958  1.00238324  1.00231088  1
  Cr  Cr19  1  0.83544220  0.16847003  0.17021364  1
  Ni  Ni20  1  0.66955166  1.00156742  0.33554844  1
  Ni  Ni21  1  0.66735237  0.33760115  1.00208220  1
  Fe  Fe22  1  0.83700724  0.50413838  0.16780463  1
  Fe  Fe23  1  0.66888602  0.33496048  0.33451062  1
  Ni  Ni24  1  0.66804648  0.66884168  1.00184639  1
  Ni  Ni25  1  0.83895938  0.83655881  0.16856036  1
  Cr  Cr26  1  0.66828882  0.67177157  0.33473163  1
  Ni  Ni27  1  0.16742982  0.16788959  0.50170100  1
  Ni  Ni28  1  0.00396566  0.00401084  0.66849308  1
  Ni  Ni29  1  0.16884653  0.16770750  0.83660911  1
  Ni  Ni30  1  0.16889152  0.50481332  0.50264080  1
  Ni  Ni31  1  0.00399364  0.33405909  0.67088056  1
  Ni  Ni32  1  0.16953307  0.50473325  0.83511163  1
  Ni  Ni33  1  0.16903693  0.83537021  0.50212335  1
  Ni  Ni34  1  0.00402364  0.67037004  0.67096404  1
  Ni  Ni35  1  0.16968027  0.83569948  0.83634403  1
  Cr  Cr36  1  0.50296629  0.16986805  0.50214930  1
  Fe  Fe37  1  0.33330957  1.00161920  0.67026622  1
  Ni  Ni38  1  0.50304007  0.17023464  0.83700242  1
  Cr  Cr39  1  0.49993545  0.50272477  0.50463109  1
  Fe  Fe40  1  0.33303914  0.33609175  0.67151023  1
  Ni  Ni41  1  0.50321100  0.50302847  0.83504865  1
  Fe  Fe42  1  0.49946192  0.83659398  0.50343903  1
  Ni  Ni43  1  0.33541791  0.66973783  0.67007996  1
  Ni  Ni44  1  0.50033329  0.83486121  0.83715843  1
  Ni  Ni45  1  0.83745039  0.16847077  0.50141638  1
  Cr  Cr46  1  0.67205342  1.00183681  0.67128984  1
  Ni  Ni47  1  0.83620157  0.17075507  0.83657338  1
  Cr  Cr48  1  0.83859747  0.50076684  0.50246301  1
  Ni  Ni49  1  0.67092173  0.33642500  0.67191305  1
  Ni  Ni50  1  0.83541399  0.50231981  0.83684440  1
  Fe  Fe51  1  0.83942350  0.83689016  0.50227642  1
  Ni  Ni52  1  0.66851802  0.66945224  0.67209570  1
  Fe  Fe53  1  0.83772589  0.83498139  0.83783572  1
" 