907,Ni66Fe27Cr6_0,-238.374453462625, 205.894779685894,Ni66Fe27Cr6,"# generated using pymatgen
 data_Cr5(Fe2Ni5)7
_symmetry_space_group_name_H-M   'P 1'
_cell_length_a   7.42375703
_cell_length_b   7.42375703
_cell_length_c   10.49877788
_cell_angle_alpha   90.00000000
_cell_angle_beta   90.00000000
_cell_angle_gamma   90.00000000
_symmetry_Int_Tables_number   1
_chemical_formula_structural   Cr5(Fe2Ni5)7
_chemical_formula_sum   'Cr5 Fe14 Ni35'
_cell_volume   578.61041550
_cell_formula_units_Z   1
loop_
 _symmetry_equiv_pos_site_id
 _symmetry_equiv_pos_as_xyz
  1  'x, y, z'
loop_
 _atom_site_type_symbol
 _atom_site_label
 _atom_site_symmetry_multiplicity
 _atom_site_fract_x
 _atom_site_fract_y
 _atom_site_fract_z
 _atom_site_occupancy
  Fe  Fe0  1  0.00361553  1.00137037  1.00185123  1
  Fe  Fe1  1  0.17155159  0.16947137  0.17040941  1
  Ni  Ni2  1  0.00508498  0.00417436  0.33680059  1
  Fe  Fe3  1  1.00265086  0.33822833  1.00281392  1
  Fe  Fe4  1  0.16987742  0.50341277  0.16924271  1
  Ni  Ni5  1  0.00446409  0.33667848  0.33729183  1
  Ni  Ni6  1  0.00361949  0.66893684  1.00251206  1
  Ni  Ni7  1  0.17170013  0.83623012  0.16934693  1
  Fe  Fe8  1  0.00440094  0.66849522  0.33632801  1
  Ni  Ni9  1  0.33712220  1.00275260  0.00382092  1
  Fe  Fe10  1  0.50144054  0.16920936  0.16924529  1
  Ni  Ni11  1  0.33601150  0.00362755  0.33656444  1
  Ni  Ni12  1  0.33689211  0.33654451  0.00415316  1
  Ni  Ni13  1  0.50282161  0.50299372  0.16946919  1
  Ni  Ni14  1  0.33507018  0.33566254  0.33578803  1
  Ni  Ni15  1  0.33540889  0.66945028  0.00331270  1
  Ni  Ni16  1  0.50083875  0.83556972  0.16943659  1
  Fe  Fe17  1  0.33603975  0.67033559  0.33606053  1
  Ni  Ni18  1  0.66803195  0.00306296  1.00157546  1
  Cr  Cr19  1  0.83561790  0.17060974  0.16974772  1
  Ni  Ni20  1  0.66765048  1.00251144  0.33684301  1
  Ni  Ni21  1  0.66854519  0.33651710  1.00253957  1
  Ni  Ni22  1  0.83526233  0.50278228  0.16931134  1
  Fe  Fe23  1  0.66920941  0.33627558  0.33707440  1
  Ni  Ni24  1  0.66971897  0.66916690  1.00212638  1
  Cr  Cr25  1  0.83614323  0.83513664  0.16976554  1
  Ni  Ni26  1  0.66866785  0.66883698  0.33577349  1
  Ni  Ni27  1  0.16950496  0.16907254  0.50216524  1
  Ni  Ni28  1  1.00226941  1.00290030  0.66950193  1
  Cr  Cr29  1  0.16940843  0.16924406  0.83653059  1
  Ni  Ni30  1  0.16902763  0.50366235  0.50201928  1
  Ni  Ni31  1  1.00102619  0.33665582  0.66872515  1
  Ni  Ni32  1  0.16953826  0.50587271  0.83737863  1
  Ni  Ni33  1  0.17104980  0.83601316  0.50345458  1
  Ni  Ni34  1  0.00402179  0.66919012  0.66985362  1
  Ni  Ni35  1  0.16913717  0.83372001  0.83594507  1
  Ni  Ni36  1  0.50371172  0.16930652  0.50170556  1
  Fe  Fe37  1  0.33675128  1.00063806  0.66864816  1
  Ni  Ni38  1  0.50594329  0.16942359  0.83789420  1
  Fe  Fe39  1  0.50346466  0.50315982  0.50205700  1
  Cr  Cr40  1  0.33593837  0.33694259  0.66878627  1
  Fe  Fe41  1  0.50349190  0.50355123  0.83757903  1
  Fe  Fe42  1  0.50168181  0.83660968  0.50239397  1
  Ni  Ni43  1  0.33552992  0.67070228  0.66939499  1
  Fe  Fe44  1  0.50302663  0.83667483  0.83685564  1
  Ni  Ni45  1  0.83553090  0.17132386  0.50360342  1
  Ni  Ni46  1  0.66987149  0.00370942  0.67032883  1
  Ni  Ni47  1  0.83347250  0.16902177  0.83547872  1
  Ni  Ni48  1  0.83626815  0.50115129  0.50310978  1
  Ni  Ni49  1  0.67138122  0.33558062  0.66884494  1
  Fe  Fe50  1  0.83667950  0.50295933  0.83609439  1
  Cr  Cr51  1  0.83681569  0.83642627  0.50216102  1
  Ni  Ni52  1  0.66919548  0.66945702  0.67084783  1
  Ni  Ni53  1  0.83625064  0.83643405  0.83688433  1
" 