3543,Ni66Fe10Cr22_14,-230.512200477186, 170.356043276667,Ni66Fe10Cr22,"# generated using pymatgen
 data_Cr14(FeNi7)5
_symmetry_space_group_name_H-M   'P 1'
_cell_length_a   7.46171408
_cell_length_b   7.46171408
_cell_length_c   10.55245725
_cell_angle_alpha   90.00000000
_cell_angle_beta   90.00000000
_cell_angle_gamma   90.00000000
_symmetry_Int_Tables_number   1
_chemical_formula_structural   Cr14(FeNi7)5
_chemical_formula_sum   'Cr14 Fe5 Ni35'
_cell_volume   587.53103078
_cell_formula_units_Z   1
loop_
 _symmetry_equiv_pos_site_id
 _symmetry_equiv_pos_as_xyz
  1  'x, y, z'
loop_
 _atom_site_type_symbol
 _atom_site_label
 _atom_site_symmetry_multiplicity
 _atom_site_fract_x
 _atom_site_fract_y
 _atom_site_fract_z
 _atom_site_occupancy
  Fe  Fe0  1  0.00212257  0.99814572  1.00017947  1
  Cr  Cr1  1  0.17055286  0.16753602  0.16726305  1
  Cr  Cr2  1  0.00046934  0.99993612  0.33223445  1
  Cr  Cr3  1  0.99889034  0.33638504  0.00259926  1
  Ni  Ni4  1  0.16805962  0.50239895  0.16824797  1
  Ni  Ni5  1  0.99836054  0.33791250  0.33444876  1
  Ni  Ni6  1  0.00072882  0.66835566  0.00061858  1
  Ni  Ni7  1  0.16755021  0.83158191  0.16558129  1
  Ni  Ni8  1  0.00186691  0.66449362  0.33301036  1
  Ni  Ni9  1  0.33411972  0.99878529  0.99994002  1
  Ni  Ni10  1  0.50048200  0.16800386  0.16675364  1
  Ni  Ni11  1  0.33647458  0.99721345  0.33282360  1
  Ni  Ni12  1  0.33619401  0.33365746  1.00028016  1
  Ni  Ni13  1  0.49947353  0.49896025  0.16714883  1
  Ni  Ni14  1  0.33471335  0.33666404  0.33270845  1
  Ni  Ni15  1  0.33345425  0.66841051  0.00137328  1
  Ni  Ni16  1  0.49926944  0.83396430  0.16984949  1
  Ni  Ni17  1  0.33302239  0.66701241  0.33351561  1
  Cr  Cr18  1  0.66476653  0.99966446  0.00130403  1
  Fe  Fe19  1  0.83099570  0.16848842  0.16873052  1
  Ni  Ni20  1  0.66511930  0.00080007  0.33252674  1
  Ni  Ni21  1  0.66504539  0.33428477  0.00079138  1
  Ni  Ni22  1  0.83321380  0.50169075  0.16851203  1
  Ni  Ni23  1  0.66765917  0.33393799  0.33245377  1
  Cr  Cr24  1  0.66616771  0.66546536  0.00115539  1
  Ni  Ni25  1  0.83438077  0.83204810  0.16714055  1
  Fe  Fe26  1  0.66611770  0.66506303  0.33238355  1
  Cr  Cr27  1  0.16861471  0.16881317  0.49834091  1
  Cr  Cr28  1  0.00089068  0.99891311  0.66813390  1
  Ni  Ni29  1  0.17032902  0.16571569  0.83516582  1
  Ni  Ni30  1  0.16875411  0.50339065  0.49938523  1
  Cr  Cr31  1  1.00011215  0.33663743  0.66366766  1
  Cr  Cr32  1  0.16933995  0.50170716  0.83380651  1
  Ni  Ni33  1  0.16815697  0.82926825  0.49973093  1
  Ni  Ni34  1  0.00194114  0.66664775  0.66750185  1
  Ni  Ni35  1  0.16742656  0.83351949  0.83551303  1
  Cr  Cr36  1  0.50194288  0.16814180  0.50037219  1
  Cr  Cr37  1  0.33489171  0.99798148  0.66750545  1
  Fe  Fe38  1  0.49920008  0.16817671  0.83436195  1
  Ni  Ni39  1  0.49971131  0.49981532  0.49973100  1
  Ni  Ni40  1  0.33615001  0.33609714  0.66829033  1
  Ni  Ni41  1  0.50020030  0.49916490  0.83417189  1
  Fe  Fe42  1  0.49953969  0.83146643  0.49884896  1
  Ni  Ni43  1  0.33302805  0.66647349  0.66629050  1
  Ni  Ni44  1  0.49912900  0.83271548  0.83268709  1
  Ni  Ni45  1  0.82992876  0.16852208  0.49875948  1
  Ni  Ni46  1  0.66585717  0.00100579  0.66747953  1
  Cr  Cr47  1  0.83255728  0.16715809  0.83340892  1
  Ni  Ni48  1  0.83237115  0.49998417  0.49943412  1
  Ni  Ni49  1  0.66569004  0.33407437  0.66775397  1
  Ni  Ni50  1  0.83165933  0.50198511  0.83328726  1
  Cr  Cr51  1  0.83243999  0.83268113  0.50030686  1
  Cr  Cr52  1  0.66546143  0.66603165  0.66797378  1
  Ni  Ni53  1  0.83470521  0.83235133  0.83381586  1
" 