7842,Ni66Fe10Cr22_5,-229.889821277578, 158.171093813083,Ni66Fe10Cr22,"# generated using pymatgen
 data_Cr14(FeNi7)5
_symmetry_space_group_name_H-M   'P 1'
_cell_length_a   7.46757379
_cell_length_b   7.46757379
_cell_length_c   10.56074413
_cell_angle_alpha   90.00000000
_cell_angle_beta   90.00000000
_cell_angle_gamma   90.00000000
_symmetry_Int_Tables_number   1
_chemical_formula_structural   Cr14(FeNi7)5
_chemical_formula_sum   'Cr14 Fe5 Ni35'
_cell_volume   588.91628801
_cell_formula_units_Z   1
loop_
 _symmetry_equiv_pos_site_id
 _symmetry_equiv_pos_as_xyz
  1  'x, y, z'
loop_
 _atom_site_type_symbol
 _atom_site_label
 _atom_site_symmetry_multiplicity
 _atom_site_fract_x
 _atom_site_fract_y
 _atom_site_fract_z
 _atom_site_occupancy
  Ni  Ni0  1  0.99783483  0.00069166  0.00124555  1
  Cr  Cr1  1  0.16466214  0.16378908  0.16762123  1
  Ni  Ni2  1  0.00146596  0.00183515  0.33365424  1
  Ni  Ni3  1  0.99774313  0.33171896  0.99916697  1
  Cr  Cr4  1  0.16557971  0.50203945  0.16547076  1
  Ni  Ni5  1  0.99812986  0.33089842  0.33539310  1
  Ni  Ni6  1  0.00015810  0.66732314  0.00164331  1
  Ni  Ni7  1  0.16717703  0.83421974  0.16589262  1
  Cr  Cr8  1  0.99938043  0.66708877  0.33375766  1
  Fe  Fe9  1  0.33479165  0.99722449  0.99931314  1
  Cr  Cr10  1  0.50092342  0.16537534  0.16587436  1
  Ni  Ni11  1  0.33060634  0.99516475  0.33372178  1
  Cr  Cr12  1  0.33467569  0.33496342  0.99715129  1
  Ni  Ni13  1  0.50314866  0.50428312  0.16552561  1
  Cr  Cr14  1  0.33190224  0.33559662  0.33532056  1
  Ni  Ni15  1  0.33549548  0.66763520  0.99946770  1
  Ni  Ni16  1  0.49929083  0.83100737  0.16558013  1
  Ni  Ni17  1  0.33621558  0.66950000  0.33485375  1
  Ni  Ni18  1  0.66749254  0.99980335  0.99931674  1
  Ni  Ni19  1  0.83500380  0.16675042  0.16439157  1
  Cr  Cr20  1  0.66829100  0.99717107  0.33251319  1
  Ni  Ni21  1  0.66773372  0.33271887  0.99996060  1
  Ni  Ni22  1  0.83169900  0.50001362  0.16477565  1
  Cr  Cr23  1  0.66958652  0.33650266  0.33242301  1
  Ni  Ni24  1  0.66433894  0.66739390  0.00233471  1
  Ni  Ni25  1  0.83346168  0.83310603  0.16438352  1
  Ni  Ni26  1  0.66355798  0.66614358  0.33214927  1
  Ni  Ni27  1  0.16425282  0.16573898  0.50086876  1
  Ni  Ni28  1  0.00080765  0.00486648  0.66517354  1
  Fe  Fe29  1  0.16669078  0.16752434  0.83155820  1
  Ni  Ni30  1  0.16721020  0.49867700  0.50139220  1
  Ni  Ni31  1  0.00133198  0.33007249  0.66549505  1
  Ni  Ni32  1  0.16791445  0.49795438  0.83316093  1
  Ni  Ni33  1  0.16996037  0.83554660  0.49951089  1
  Cr  Cr34  1  0.00198119  0.66533003  0.66466227  1
  Cr  Cr35  1  0.16767079  0.83267428  0.83455010  1
  Cr  Cr36  1  0.49848147  0.16540359  0.50095519  1
  Ni  Ni37  1  0.33332159  0.00041885  0.66687361  1
  Ni  Ni38  1  0.50055233  0.16597944  0.83273602  1
  Ni  Ni39  1  0.49999582  0.50306191  0.50177241  1
  Ni  Ni40  1  0.33244856  0.33379160  0.66747396  1
  Ni  Ni41  1  0.49912276  0.49965516  0.83253180  1
  Ni  Ni42  1  0.49694573  0.83087715  0.50113534  1
  Ni  Ni43  1  0.33707081  0.66561923  0.66564585  1
  Ni  Ni44  1  0.49974806  0.83426950  0.83310609  1
  Ni  Ni45  1  0.83714919  0.16871240  0.50199621  1
  Fe  Fe46  1  0.66485681  0.00051532  0.66784684  1
  Fe  Fe47  1  0.83286128  0.16694483  0.83383672  1
  Ni  Ni48  1  0.83257574  0.49724311  0.50047377  1
  Fe  Fe49  1  0.66584813  0.33388895  0.66687652  1
  Cr  Cr50  1  0.83348407  0.49942008  0.83465846  1
  Cr  Cr51  1  0.83221060  0.83373069  0.50183359  1
  Ni  Ni52  1  0.66169456  0.66609318  0.66540847  1
  Cr  Cr53  1  0.83156352  0.83412977  0.83366273  1
" 