2090,Ni66Fe27Cr6_13,-238.612261219248, 205.620525852077,Ni66Fe27Cr6,"# generated using pymatgen
 data_Cr5(Fe2Ni5)7
_symmetry_space_group_name_H-M   'P 1'
_cell_length_a   7.42669437
_cell_length_b   7.42669437
_cell_length_c   10.50293190
_cell_angle_alpha   90.00000000
_cell_angle_beta   90.00000000
_cell_angle_gamma   90.00000000
_symmetry_Int_Tables_number   1
_chemical_formula_structural   Cr5(Fe2Ni5)7
_chemical_formula_sum   'Cr5 Fe14 Ni35'
_cell_volume   579.29749885
_cell_formula_units_Z   1
loop_
 _symmetry_equiv_pos_site_id
 _symmetry_equiv_pos_as_xyz
  1  'x, y, z'
loop_
 _atom_site_type_symbol
 _atom_site_label
 _atom_site_symmetry_multiplicity
 _atom_site_fract_x
 _atom_site_fract_y
 _atom_site_fract_z
 _atom_site_occupancy
  Fe  Fe0  1  1.00246438  0.99999541  1.00271598  1
  Ni  Ni1  1  0.17095285  0.16840760  0.17055147  1
  Ni  Ni2  1  0.00363007  1.00265349  0.33427387  1
  Cr  Cr3  1  0.00362264  0.33554734  0.00328311  1
  Ni  Ni4  1  0.16895085  0.50350538  0.17054351  1
  Ni  Ni5  1  1.00186708  0.33647764  0.33503698  1
  Ni  Ni6  1  0.00329974  0.67113963  0.00353101  1
  Ni  Ni7  1  0.16768420  0.83623747  0.17006045  1
  Ni  Ni8  1  0.00283285  0.66901985  0.33516978  1
  Fe  Fe9  1  0.33585877  1.00230114  0.00308811  1
  Ni  Ni10  1  0.50090324  0.16963597  0.16914192  1
  Ni  Ni11  1  0.33555445  1.00224725  0.33438876  1
  Fe  Fe12  1  0.33653859  0.33656514  1.00182146  1
  Cr  Cr13  1  0.50268020  0.50219654  0.17011895  1
  Ni  Ni14  1  0.33585051  0.33541094  0.33520797  1
  Ni  Ni15  1  0.33596091  0.67049901  1.00155487  1
  Fe  Fe16  1  0.50086814  0.83647892  0.16927923  1
  Ni  Ni17  1  0.33528410  0.67049334  0.33658651  1
  Fe  Fe18  1  0.66982744  1.00175210  1.00266862  1
  Fe  Fe19  1  0.83703346  0.16939826  0.16993833  1
  Cr  Cr20  1  0.66889907  0.00291890  0.33681029  1
  Fe  Fe21  1  0.66752253  0.33548131  1.00228907  1
  Fe  Fe22  1  0.83749265  0.50377274  0.17075976  1
  Ni  Ni23  1  0.67043660  0.33620836  0.33612496  1
  Ni  Ni24  1  0.66888785  0.67153987  0.00293791  1
  Ni  Ni25  1  0.83782391  0.83453321  0.16888640  1
  Ni  Ni26  1  0.67003270  0.66872340  0.33622249  1
  Cr  Cr27  1  0.17004389  0.16946038  0.50214189  1
  Ni  Ni28  1  1.00182333  0.00282358  0.67115485  1
  Ni  Ni29  1  0.17091843  0.16905696  0.83539482  1
  Fe  Fe30  1  0.16888828  0.50407373  0.50272081  1
  Ni  Ni31  1  1.00208648  0.33509473  0.66965046  1
  Ni  Ni32  1  0.17239495  0.50314557  0.83510378  1
  Fe  Fe33  1  0.16905299  0.83531622  0.50226567  1
  Ni  Ni34  1  0.00305529  0.67023479  0.66945047  1
  Fe  Fe35  1  0.16923335  0.83600448  0.83609293  1
  Ni  Ni36  1  0.50267702  0.17004653  0.50326134  1
  Ni  Ni37  1  0.33674244  1.00238512  0.67046027  1
  Ni  Ni38  1  0.50160190  0.17029720  0.83574729  1
  Fe  Fe39  1  0.50410485  0.50264914  0.50298150  1
  Ni  Ni40  1  0.33703475  0.33609081  0.67148057  1
  Ni  Ni41  1  0.50056932  0.50235111  0.83547701  1
  Ni  Ni42  1  0.50267004  0.83496784  0.50273194  1
  Ni  Ni43  1  0.33650941  0.66967457  0.67000996  1
  Fe  Fe44  1  0.50263012  0.83557766  0.83552248  1
  Ni  Ni45  1  0.83541675  0.17025162  0.50347706  1
  Fe  Fe46  1  0.66961525  0.00294781  0.66909757  1
  Ni  Ni47  1  0.83562664  0.16628483  0.83473300  1
  Ni  Ni48  1  0.83568133  0.50393204  0.50190967  1
  Ni  Ni49  1  0.66902980  0.33485923  0.66918021  1
  Cr  Cr50  1  0.83530467  0.50515591  0.83541307  1
  Ni  Ni51  1  0.83622164  0.83396622  0.50367033  1
  Ni  Ni52  1  0.66858828  0.66993795  0.66898919  1
  Ni  Ni53  1  0.83642460  0.83697932  0.83559566  1
" 