8979,Ni66Fe18Cr14_0,-235.99226291579, 192.919387413184,Ni66Fe18Cr14,"# generated using pymatgen
 data_Cr4Fe5Ni18
_symmetry_space_group_name_H-M   'P 1'
_cell_length_a   7.44301440
_cell_length_b   7.44301440
_cell_length_c   10.52601191
_cell_angle_alpha   90.00000000
_cell_angle_beta   90.00000000
_cell_angle_gamma   90.00000000
_symmetry_Int_Tables_number   1
_chemical_formula_structural   Cr4Fe5Ni18
_chemical_formula_sum   'Cr8 Fe10 Ni36'
_cell_volume   583.12488490
_cell_formula_units_Z   2
loop_
 _symmetry_equiv_pos_site_id
 _symmetry_equiv_pos_as_xyz
  1  'x, y, z'
loop_
 _atom_site_type_symbol
 _atom_site_label
 _atom_site_symmetry_multiplicity
 _atom_site_fract_x
 _atom_site_fract_y
 _atom_site_fract_z
 _atom_site_occupancy
  Fe  Fe0  1  1.00141014  0.99903316  0.00217602  1
  Ni  Ni1  1  0.16894513  0.16675828  0.16871196  1
  Ni  Ni2  1  0.00258844  0.00275628  0.33452662  1
  Cr  Cr3  1  1.00023922  0.33330972  1.00135950  1
  Cr  Cr4  1  0.16909252  0.50293604  0.16995268  1
  Ni  Ni5  1  0.00192540  0.33367942  0.33521067  1
  Ni  Ni6  1  1.00018949  0.66904103  1.00142161  1
  Ni  Ni7  1  0.16856440  0.83524560  0.16791807  1
  Ni  Ni8  1  0.00211318  0.66857912  0.33514537  1
  Ni  Ni9  1  0.33323467  0.00244730  0.00286766  1
  Ni  Ni10  1  0.50090692  0.16756347  0.16994850  1
  Ni  Ni11  1  0.33541941  1.00129530  0.33446472  1
  Fe  Fe12  1  0.33653002  0.33439920  1.00154895  1
  Fe  Fe13  1  0.50162783  0.50331656  0.16899664  1
  Fe  Fe14  1  0.33503282  0.33404174  0.33665292  1
  Ni  Ni15  1  0.33576780  0.67048513  1.00156752  1
  Ni  Ni16  1  0.50122946  0.83456925  0.16906325  1
  Ni  Ni17  1  0.33594174  0.66995998  0.33676668  1
  Cr  Cr18  1  0.66778030  1.00139729  1.00146330  1
  Ni  Ni19  1  0.83500950  0.16681621  0.17131754  1
  Ni  Ni20  1  0.66689192  1.00141925  0.33589463  1
  Cr  Cr21  1  0.66930172  0.33613358  1.00156204  1
  Fe  Fe22  1  0.83444740  0.50330353  0.16986142  1
  Fe  Fe23  1  0.66770997  0.33401182  0.33448175  1
  Ni  Ni24  1  0.66897549  0.66716079  0.00254577  1
  Ni  Ni25  1  0.83498101  0.83446088  0.16969932  1
  Ni  Ni26  1  0.66654495  0.66899257  0.33316785  1
  Ni  Ni27  1  0.16663942  0.16888753  0.50003079  1
  Ni  Ni28  1  1.00159536  0.00254460  0.66911188  1
  Ni  Ni29  1  0.16816572  0.16692900  0.83626246  1
  Ni  Ni30  1  0.16897024  0.50186437  0.50183721  1
  Ni  Ni31  1  0.00218861  0.33404170  0.66832157  1
  Cr  Cr32  1  0.16927366  0.50321494  0.83305880  1
  Ni  Ni33  1  0.16729480  0.83411306  0.50009121  1
  Ni  Ni34  1  1.00094948  0.66837099  0.66813842  1
  Ni  Ni35  1  0.16547120  0.83557035  0.83699293  1
  Ni  Ni36  1  0.50348722  0.16836614  0.50059733  1
  Cr  Cr37  1  0.33432488  0.00198705  0.66670448  1
  Ni  Ni38  1  0.50122839  0.17035562  0.83405579  1
  Ni  Ni39  1  0.50089285  0.50242382  0.50159600  1
  Fe  Fe40  1  0.33541834  0.33494119  0.66676893  1
  Ni  Ni41  1  0.50254721  0.50116695  0.83445491  1
  Ni  Ni42  1  0.50296149  0.83425154  0.50030650  1
  Fe  Fe43  1  0.33432819  0.66871627  0.66627296  1
  Cr  Cr44  1  0.50173922  0.83384214  0.83519161  1
  Ni  Ni45  1  0.83495955  0.16691813  0.50167994  1
  Ni  Ni46  1  0.66889005  0.00191298  0.66712319  1
  Ni  Ni47  1  0.83558169  0.16728131  0.83206156  1
  Cr  Cr48  1  0.83556524  0.50096195  0.50067105  1
  Fe  Fe49  1  0.66888503  0.33419280  0.66889923  1
  Ni  Ni50  1  0.83384371  0.50335443  0.83444086  1
  Fe  Fe51  1  0.83490777  0.83632959  0.50147135  1
  Ni  Ni52  1  0.66788852  0.66760409  0.66911522  1
  Ni  Ni53  1  0.83678329  0.83392694  0.83363283  1
" 