4663,Ni66Fe10Cr22_9,-230.475070987561, 165.673819728877,Ni66Fe10Cr22,"# generated using pymatgen
 data_Cr14(FeNi7)5
_symmetry_space_group_name_H-M   'P 1'
_cell_length_a   7.47088254
_cell_length_b   7.47088254
_cell_length_c   10.56542341
_cell_angle_alpha   90.00000000
_cell_angle_beta   90.00000000
_cell_angle_gamma   90.00000000
_symmetry_Int_Tables_number   1
_chemical_formula_structural   Cr14(FeNi7)5
_chemical_formula_sum   'Cr14 Fe5 Ni35'
_cell_volume   589.69944973
_cell_formula_units_Z   1
loop_
 _symmetry_equiv_pos_site_id
 _symmetry_equiv_pos_as_xyz
  1  'x, y, z'
loop_
 _atom_site_type_symbol
 _atom_site_label
 _atom_site_symmetry_multiplicity
 _atom_site_fract_x
 _atom_site_fract_y
 _atom_site_fract_z
 _atom_site_occupancy
  Ni  Ni0  1  0.00035503  0.99965217  0.99839345  1
  Fe  Fe1  1  0.16723973  0.16444429  0.16579996  1
  Ni  Ni2  1  0.00029208  0.99758168  0.33429892  1
  Fe  Fe3  1  0.00283156  0.33136856  0.99881322  1
  Ni  Ni4  1  0.16800282  0.50051212  0.16717751  1
  Fe  Fe5  1  0.99923777  0.33333014  0.33495506  1
  Cr  Cr6  1  0.99912708  0.67005766  0.99950529  1
  Ni  Ni7  1  0.16621229  0.83428354  0.16881652  1
  Ni  Ni8  1  0.99894338  0.67078081  0.33331816  1
  Ni  Ni9  1  0.33095223  0.00113571  0.00113769  1
  Ni  Ni10  1  0.49831486  0.16416250  0.16656063  1
  Ni  Ni11  1  0.33095500  0.99885010  0.33332873  1
  Ni  Ni12  1  0.33127657  0.33192530  0.00096252  1
  Ni  Ni13  1  0.49865735  0.49933336  0.16714364  1
  Cr  Cr14  1  0.33648724  0.33263593  0.33237273  1
  Cr  Cr15  1  0.33409129  0.66432649  0.00012240  1
  Fe  Fe16  1  0.50029912  0.83337135  0.16719221  1
  Ni  Ni17  1  0.33373865  0.66851568  0.33184222  1
  Ni  Ni18  1  0.66803199  0.99705672  0.00077111  1
  Cr  Cr19  1  0.83259323  0.16343646  0.16672631  1
  Fe  Fe20  1  0.66559747  0.99778624  0.33370841  1
  Cr  Cr21  1  0.66326751  0.33491054  0.99936968  1
  Cr  Cr22  1  0.83392045  0.50203383  0.16924835  1
  Ni  Ni23  1  0.66581019  0.33349825  0.33595354  1
  Ni  Ni24  1  0.66543447  0.66976503  -0.00002560  1
  Ni  Ni25  1  0.83355669  0.83442667  0.16681453  1
  Ni  Ni26  1  0.66672314  0.66520313  0.33322955  1
  Ni  Ni27  1  0.16454850  0.16415654  0.49694216  1
  Cr  Cr28  1  0.99955471  0.99869191  0.66668422  1
  Ni  Ni29  1  0.16417410  0.16694034  0.83731396  1
  Cr  Cr30  1  0.16309379  0.50311138  0.49928409  1
  Ni  Ni31  1  0.99760357  0.33182474  0.66638422  1
  Ni  Ni32  1  0.16625927  0.49794652  0.83323131  1
  Ni  Ni33  1  0.16576133  0.83392774  0.49700160  1
  Ni  Ni34  1  0.99703311  0.66724484  0.66607218  1
  Ni  Ni35  1  0.16594794  0.83389050  0.83332053  1
  Ni  Ni36  1  0.50182338  0.16552321  0.49752514  1
  Cr  Cr37  1  0.33080817  0.99905223  0.66428911  1
  Cr  Cr38  1  0.50041057  0.16461183  0.83410783  1
  Ni  Ni39  1  0.50451967  0.50130398  0.49925091  1
  Cr  Cr40  1  0.33443965  0.33233447  0.66607310  1
  Ni  Ni41  1  0.49965934  0.50160717  0.83292427  1
  Ni  Ni42  1  0.50010871  0.83216998  0.49574463  1
  Cr  Cr43  1  0.33417764  0.66798180  0.66737047  1
  Ni  Ni44  1  0.50141249  0.83188644  0.83657369  1
  Ni  Ni45  1  0.83273948  0.16826762  0.49779000  1
  Cr  Cr46  1  0.66885092  0.99900885  0.66449105  1
  Ni  Ni47  1  0.83567378  0.16508160  0.83410251  1
  Ni  Ni48  1  0.83108034  0.50017587  0.49960835  1
  Ni  Ni49  1  0.66867702  0.33514962  0.66355752  1
  Cr  Cr50  1  0.83303257  0.49984744  0.83040910  1
  Ni  Ni51  1  0.83315575  0.83075665  0.49758392  1
  Ni  Ni52  1  0.66788165  0.66532400  0.66611413  1
  Ni  Ni53  1  0.83176381  0.83393897  0.83485370  1
" 