1082,Ni66Fe18Cr14_18,-235.861450193528, 191.053468120344,Ni66Fe18Cr14,"# generated using pymatgen
 data_Cr4Fe5Ni18
_symmetry_space_group_name_H-M   'P 1'
_cell_length_a   7.43696579
_cell_length_b   7.43696579
_cell_length_c   10.51745789
_cell_angle_alpha   90.00000000
_cell_angle_beta   90.00000000
_cell_angle_gamma   90.00000000
_symmetry_Int_Tables_number   1
_chemical_formula_structural   Cr4Fe5Ni18
_chemical_formula_sum   'Cr8 Fe10 Ni36'
_cell_volume   581.70440125
_cell_formula_units_Z   2
loop_
 _symmetry_equiv_pos_site_id
 _symmetry_equiv_pos_as_xyz
  1  'x, y, z'
loop_
 _atom_site_type_symbol
 _atom_site_label
 _atom_site_symmetry_multiplicity
 _atom_site_fract_x
 _atom_site_fract_y
 _atom_site_fract_z
 _atom_site_occupancy
  Ni  Ni0  1  1.00013567  0.00560905  0.00283410  1
  Ni  Ni1  1  0.16818637  0.16944782  0.16981489  1
  Ni  Ni2  1  1.00013624  0.00212207  0.33463617  1
  Ni  Ni3  1  1.00071063  0.33499293  0.00235849  1
  Ni  Ni4  1  0.16861788  0.50079968  0.16927856  1
  Fe  Fe5  1  1.00162002  0.33585193  0.33439518  1
  Fe  Fe6  1  1.00093409  0.66664242  0.00376478  1
  Cr  Cr7  1  0.16919756  0.83596803  0.16831297  1
  Ni  Ni8  1  0.00256739  0.66710931  0.33431515  1
  Ni  Ni9  1  0.33724869  1.00165593  0.00232988  1
  Fe  Fe10  1  0.50307190  0.16796949  0.16985586  1
  Ni  Ni11  1  0.33618026  1.00112683  0.33370286  1
  Cr  Cr12  1  0.33441395  0.33537007  0.00246294  1
  Ni  Ni13  1  0.50266466  0.50359246  0.17012062  1
  Ni  Ni14  1  0.33582165  0.33797014  0.33300606  1
  Ni  Ni15  1  0.33803641  0.66831960  1.00181122  1
  Ni  Ni16  1  0.50344599  0.83486027  0.16873750  1
  Ni  Ni17  1  0.33494949  0.66692398  0.33667478  1
  Ni  Ni18  1  0.66874387  1.00139243  0.00304074  1
  Ni  Ni19  1  0.83578653  0.16866053  0.16920904  1
  Ni  Ni20  1  0.66977644  0.00300417  0.33316682  1
  Fe  Fe21  1  0.67071610  0.33479970  0.00212768  1
  Ni  Ni22  1  0.83476264  0.50205934  0.16901606  1
  Ni  Ni23  1  0.66958568  0.33558315  0.33387032  1
  Ni  Ni24  1  0.66770132  0.66886754  0.00360660  1
  Ni  Ni25  1  0.83296985  0.83531449  0.16811852  1
  Fe  Fe26  1  0.66774757  0.66839819  0.33374929  1
  Cr  Cr27  1  0.16802399  0.16911207  0.50230400  1
  Ni  Ni28  1  1.00134883  0.00612890  0.66862089  1
  Ni  Ni29  1  0.16886618  0.16937042  0.83364920  1
  Ni  Ni30  1  0.16967714  0.50303147  0.50148012  1
  Ni  Ni31  1  1.00080227  0.33427143  0.66883432  1
  Fe  Fe32  1  0.16873857  0.49949764  0.83511637  1
  Fe  Fe33  1  0.17007452  0.83459664  0.50097329  1
  Cr  Cr34  1  0.00261864  0.66633169  0.66876790  1
  Cr  Cr35  1  0.17158177  0.83697422  0.83625666  1
  Cr  Cr36  1  0.50308688  0.16863510  0.50195221  1
  Ni  Ni37  1  0.33644689  1.00114132  0.66995041  1
  Ni  Ni38  1  0.50187993  0.16736405  0.83468591  1
  Fe  Fe39  1  0.50240470  0.50222416  0.50164638  1
  Ni  Ni40  1  0.33522905  0.33734262  0.67070235  1
  Fe  Fe41  1  0.50344952  0.50271220  0.83469585  1
  Fe  Fe42  1  0.50049564  0.83394314  0.50230546  1
  Ni  Ni43  1  0.33815596  0.66752047  0.66753838  1
  Ni  Ni44  1  0.50133479  0.83552367  0.83448181  1
  Ni  Ni45  1  0.83501470  0.17039623  0.50326938  1
  Ni  Ni46  1  0.66823558  0.00322917  0.66986292  1
  Ni  Ni47  1  0.83533721  0.17137665  0.83359544  1
  Ni  Ni48  1  0.83492914  0.50048609  0.50104773  1
  Ni  Ni49  1  0.67008201  0.33591599  0.67048707  1
  Ni  Ni50  1  0.83401569  0.49928066  0.83599144  1
  Cr  Cr51  1  0.83398978  0.83616873  0.50175328  1
  Ni  Ni52  1  0.66512386  0.66683788  0.66788931  1
  Cr  Cr53  1  0.83254034  0.83538824  0.83703722  1
" 