4778,Ni66Fe27Cr6_11,-238.78045121052, 206.270031774589,Ni66Fe27Cr6,"# generated using pymatgen
 data_Cr5(Fe2Ni5)7
_symmetry_space_group_name_H-M   'P 1'
_cell_length_a   7.42656428
_cell_length_b   7.42656428
_cell_length_c   10.50274793
_cell_angle_alpha   90.00000000
_cell_angle_beta   90.00000000
_cell_angle_gamma   90.00000000
_symmetry_Int_Tables_number   1
_chemical_formula_structural   Cr5(Fe2Ni5)7
_chemical_formula_sum   'Cr5 Fe14 Ni35'
_cell_volume   579.26705793
_cell_formula_units_Z   1
loop_
 _symmetry_equiv_pos_site_id
 _symmetry_equiv_pos_as_xyz
  1  'x, y, z'
loop_
 _atom_site_type_symbol
 _atom_site_label
 _atom_site_symmetry_multiplicity
 _atom_site_fract_x
 _atom_site_fract_y
 _atom_site_fract_z
 _atom_site_occupancy
  Ni  Ni0  1  1.00125868  0.00336896  0.99997796  1
  Cr  Cr1  1  0.16960289  0.17075938  0.16868058  1
  Ni  Ni2  1  1.00168363  1.00241723  0.33739699  1
  Ni  Ni3  1  0.00305918  0.33774679  0.00311815  1
  Ni  Ni4  1  0.16974285  0.50334181  0.16936123  1
  Fe  Fe5  1  1.00216504  0.33589829  0.33632956  1
  Ni  Ni6  1  1.00011432  0.66722855  1.00111418  1
  Cr  Cr7  1  0.16767654  0.83458102  0.16913486  1
  Ni  Ni8  1  1.00063238  0.66742026  0.33656614  1
  Ni  Ni9  1  0.33763670  0.00571150  1.00195702  1
  Ni  Ni10  1  0.50461232  0.17040296  0.16870762  1
  Ni  Ni11  1  0.33749775  0.00453048  0.33724593  1
  Ni  Ni12  1  0.33695859  0.33676106  1.00006583  1
  Ni  Ni13  1  0.50309800  0.50210845  0.16797899  1
  Ni  Ni14  1  0.33673924  0.33784211  0.33717494  1
  Fe  Fe15  1  0.33447566  0.66866501  1.00154341  1
  Fe  Fe16  1  0.50457740  0.83566396  0.16942362  1
  Fe  Fe17  1  0.33658313  0.66932304  0.33795899  1
  Ni  Ni18  1  0.66966544  1.00238962  0.00365920  1
  Ni  Ni19  1  0.83369827  0.16861207  0.17017289  1
  Ni  Ni20  1  0.66939693  1.00116398  0.33436643  1
  Fe  Fe21  1  0.67109191  0.33507860  1.00267560  1
  Ni  Ni22  1  0.83541115  0.50341670  0.17039679  1
  Fe  Fe23  1  0.66913054  0.33629197  0.33505633  1
  Ni  Ni24  1  0.67069335  0.66792269  0.00275763  1
  Ni  Ni25  1  0.83495544  0.83547642  0.16763192  1
  Ni  Ni26  1  0.66914666  0.66823781  0.33615177  1
  Ni  Ni27  1  0.16842114  0.16951376  0.50281228  1
  Ni  Ni28  1  0.00462159  0.00440323  0.67114681  1
  Ni  Ni29  1  0.16935804  0.16973091  0.83596186  1
  Ni  Ni30  1  0.16905933  0.50299512  0.50180511  1
  Ni  Ni31  1  1.00186919  0.33647235  0.66821453  1
  Ni  Ni32  1  0.16737941  0.50291633  0.83653796  1
  Ni  Ni33  1  0.16992883  0.83594059  0.50330481  1
  Ni  Ni34  1  0.00371481  0.66772206  0.67091253  1
  Ni  Ni35  1  0.16862762  0.83576710  0.83534442  1
  Cr  Cr36  1  0.50335678  0.16940527  0.50411046  1
  Ni  Ni37  1  0.33548162  1.00252345  0.66852625  1
  Ni  Ni38  1  0.50336397  0.16995871  0.83575721  1
  Ni  Ni39  1  0.50316154  0.50358600  0.50461363  1
  Fe  Fe40  1  0.33210321  0.33697552  0.67007027  1
  Fe  Fe41  1  0.50181926  0.50083676  0.83564004  1
  Ni  Ni42  1  0.50244252  0.83478029  0.50161576  1
  Ni  Ni43  1  0.33599377  0.66863945  0.66744496  1
  Cr  Cr44  1  0.50220141  0.83643603  0.83592391  1
  Fe  Fe45  1  0.83802667  0.17019653  0.50277595  1
  Fe  Fe46  1  0.67078345  0.00319354  0.67080369  1
  Ni  Ni47  1  0.83599965  0.17092236  0.83594069  1
  Fe  Fe48  1  0.83646766  0.50202312  0.50320267  1
  Fe  Fe49  1  0.67055159  0.33694185  0.67094105  1
  Ni  Ni50  1  0.83634382  0.50229772  0.83545868  1
  Cr  Cr51  1  0.83688558  0.83600276  0.50542409  1
  Fe  Fe52  1  0.66957205  0.66801017  0.66964348  1
  Fe  Fe53  1  0.83834258  0.83662940  0.83664339  1
" 