4247,Ni66Fe18Cr14_7,-236.17631972269, 194.89166407815,Ni66Fe18Cr14,"# generated using pymatgen
 data_Cr4Fe5Ni18
_symmetry_space_group_name_H-M   'P 1'
_cell_length_a   7.44030012
_cell_length_b   7.44030012
_cell_length_c   10.52217334
_cell_angle_alpha   90.00000000
_cell_angle_beta   90.00000000
_cell_angle_gamma   90.00000000
_symmetry_Int_Tables_number   1
_chemical_formula_structural   Cr4Fe5Ni18
_chemical_formula_sum   'Cr8 Fe10 Ni36'
_cell_volume   582.48716469
_cell_formula_units_Z   2
loop_
 _symmetry_equiv_pos_site_id
 _symmetry_equiv_pos_as_xyz
  1  'x, y, z'
loop_
 _atom_site_type_symbol
 _atom_site_label
 _atom_site_symmetry_multiplicity
 _atom_site_fract_x
 _atom_site_fract_y
 _atom_site_fract_z
 _atom_site_occupancy
  Ni  Ni0  1  0.00275541  0.00286523  0.00216212  1
  Cr  Cr1  1  0.16760091  0.16632600  0.16946522  1
  Ni  Ni2  1  1.00132165  1.00177597  0.33632633  1
  Fe  Fe3  1  0.00291164  0.33479927  1.00014760  1
  Cr  Cr4  1  0.17036324  0.50137290  0.16960420  1
  Ni  Ni5  1  0.99989123  0.33461950  0.33579526  1
  Cr  Cr6  1  1.00159495  0.67017835  0.00290048  1
  Ni  Ni7  1  0.16987948  0.83621985  0.17047559  1
  Ni  Ni8  1  0.00259308  0.66911680  0.33627596  1
  Ni  Ni9  1  0.33355022  1.00075590  0.99943211  1
  Cr  Cr10  1  0.50008948  0.16719733  0.17115247  1
  Ni  Ni11  1  0.33564072  0.99946685  0.33771921  1
  Ni  Ni12  1  0.33602946  0.33440476  1.00067330  1
  Ni  Ni13  1  0.50156409  0.50276606  0.16934540  1
  Fe  Fe14  1  0.33482834  0.33565728  0.33874601  1
  Ni  Ni15  1  0.33616366  0.67021858  1.00138762  1
  Ni  Ni16  1  0.50039387  0.83463472  0.16619569  1
  Ni  Ni17  1  0.33544546  0.67033815  0.33566724  1
  Fe  Fe18  1  0.66729241  1.00001502  0.00192861  1
  Ni  Ni19  1  0.83579543  0.16740316  0.16873152  1
  Ni  Ni20  1  0.66887832  0.00243572  0.33536264  1
  Cr  Cr21  1  0.66973570  0.33503973  1.00157516  1
  Ni  Ni22  1  0.83472907  0.50079217  0.16947420  1
  Fe  Fe23  1  0.67095564  0.33443214  0.33651036  1
  Ni  Ni24  1  0.66725148  0.66857618  0.00406984  1
  Ni  Ni25  1  0.83516557  0.83709616  0.16997816  1
  Cr  Cr26  1  0.66869453  0.66943991  0.33398155  1
  Ni  Ni27  1  0.16820331  0.16923808  0.50130009  1
  Ni  Ni28  1  0.00339998  0.00271280  0.66646845  1
  Ni  Ni29  1  0.16931747  0.16872401  0.83554349  1
  Fe  Fe30  1  0.16597845  0.50235267  0.50220997  1
  Ni  Ni31  1  0.00279834  0.33443712  0.67064354  1
  Ni  Ni32  1  0.16818036  0.50064870  0.83365081  1
  Ni  Ni33  1  0.16865082  0.83648524  0.50131135  1
  Ni  Ni34  1  0.00264061  0.66834186  0.66626333  1
  Ni  Ni35  1  0.16962325  0.83642590  0.83335591  1
  Fe  Fe36  1  0.50313028  0.16596162  0.50248538  1
  Fe  Fe37  1  0.33400426  0.00235621  0.66805338  1
  Ni  Ni38  1  0.49971568  0.16697881  0.83268511  1
  Fe  Fe39  1  0.50124539  0.50241827  0.50253490  1
  Ni  Ni40  1  0.33432835  0.33352343  0.66681544  1
  Cr  Cr41  1  0.50236793  0.50409602  0.83368147  1
  Ni  Ni42  1  0.50160687  0.83546094  0.50378089  1
  Fe  Fe43  1  0.33376689  0.66963735  0.66780971  1
  Ni  Ni44  1  0.50064774  0.83723120  0.83529951  1
  Ni  Ni45  1  0.83663313  0.16892031  0.50266520  1
  Ni  Ni46  1  0.66735053  0.00249105  0.66823736  1
  Fe  Fe47  1  0.83600836  0.16753749  0.83305687  1
  Ni  Ni48  1  0.83549498  0.50071274  0.50352934  1
  Ni  Ni49  1  0.66824784  0.33405191  0.66665689  1
  Ni  Ni50  1  0.83636710  0.50064826  0.83281500  1
  Ni  Ni51  1  0.83494907  0.83574057  0.50225836  1
  Ni  Ni52  1  0.66826618  0.66846368  0.66694105  1
  Cr  Cr53  1  0.83302538  0.83352367  0.83192697  1
" 