8369,Ni66Fe25Cr8_10,-237.965963595663, 205.318276356528,Ni66Fe25Cr8,"# generated using pymatgen
 data_Cr6Fe13Ni35
_symmetry_space_group_name_H-M   'P 1'
_cell_length_a   7.42871720
_cell_length_b   7.42871720
_cell_length_c   10.50579261
_cell_angle_alpha   90.00000000
_cell_angle_beta   90.00000000
_cell_angle_gamma   90.00000000
_symmetry_Int_Tables_number   1
_chemical_formula_structural   Cr6Fe13Ni35
_chemical_formula_sum   'Cr6 Fe13 Ni35'
_cell_volume   579.77098175
_cell_formula_units_Z   1
loop_
 _symmetry_equiv_pos_site_id
 _symmetry_equiv_pos_as_xyz
  1  'x, y, z'
loop_
 _atom_site_type_symbol
 _atom_site_label
 _atom_site_symmetry_multiplicity
 _atom_site_fract_x
 _atom_site_fract_y
 _atom_site_fract_z
 _atom_site_occupancy
  Ni  Ni0  1  1.00113572  1.00231679  0.00284473  1
  Ni  Ni1  1  0.16928262  0.16911189  0.16888437  1
  Fe  Fe2  1  1.00097356  0.00586354  0.33428915  1
  Ni  Ni3  1  0.00377326  0.33474173  0.00418247  1
  Fe  Fe4  1  0.16834651  0.50260162  0.17048659  1
  Ni  Ni5  1  0.00274001  0.33577920  0.33519139  1
  Ni  Ni6  1  1.00242402  0.67085745  0.00353483  1
  Ni  Ni7  1  0.16829297  0.83982519  0.17011390  1
  Fe  Fe8  1  1.00092485  0.66779813  0.33474922  1
  Fe  Fe9  1  0.33592414  0.00498723  0.00423933  1
  Fe  Fe10  1  0.50279088  0.16915852  0.16940455  1
  Ni  Ni11  1  0.33711001  0.00359773  0.33411407  1
  Ni  Ni12  1  0.33581756  0.33554227  1.00253435  1
  Ni  Ni13  1  0.50559840  0.50113250  0.16982076  1
  Ni  Ni14  1  0.33494904  0.33539294  0.33641372  1
  Cr  Cr15  1  0.33615743  0.66818064  0.00459698  1
  Ni  Ni16  1  0.50318815  0.83644320  0.17003623  1
  Fe  Fe17  1  0.33900075  0.66785333  0.33506503  1
  Ni  Ni18  1  0.67105703  0.00276304  0.00385099  1
  Fe  Fe19  1  0.83552367  0.16891727  0.16892029  1
  Ni  Ni20  1  0.66874103  1.00122573  0.33614540  1
  Ni  Ni21  1  0.66811042  0.33393797  0.00397766  1
  Ni  Ni22  1  0.83481885  0.50199321  0.16825879  1
  Ni  Ni23  1  0.66980213  0.33585487  0.33577811  1
  Ni  Ni24  1  0.67022311  0.67059976  0.00408416  1
  Ni  Ni25  1  0.83595277  0.83468608  0.16915595  1
  Ni  Ni26  1  0.66934554  0.67002354  0.33572077  1
  Ni  Ni27  1  0.16968707  0.16902392  0.50269866  1
  Ni  Ni28  1  1.00097510  1.00205735  0.66941725  1
  Fe  Fe29  1  0.16963866  0.16821491  0.83699542  1
  Ni  Ni30  1  0.16835135  0.50026298  0.50028674  1
  Cr  Cr31  1  0.00322066  0.33536436  0.66895584  1
  Fe  Fe32  1  0.16902884  0.50101410  0.83658377  1
  Cr  Cr33  1  0.17000494  0.83925630  0.50085842  1
  Ni  Ni34  1  1.00137859  0.67072743  0.66887181  1
  Fe  Fe35  1  0.16700073  0.83790857  0.83611591  1
  Fe  Fe36  1  0.50107586  0.16972935  0.50230488  1
  Ni  Ni37  1  0.33610003  0.00530981  0.67024363  1
  Ni  Ni38  1  0.50217180  0.17089529  0.83592146  1
  Ni  Ni39  1  0.50502405  0.50173151  0.50259106  1
  Ni  Ni40  1  0.33687406  0.33434659  0.66867134  1
  Ni  Ni41  1  0.50351313  0.49875417  0.83537345  1
  Ni  Ni42  1  0.50394362  0.83725960  0.50177946  1
  Cr  Cr43  1  0.33593449  0.66629748  0.66848394  1
  Cr  Cr44  1  0.50552061  0.83740922  0.83638185  1
  Fe  Fe45  1  0.83498122  0.16949682  0.50180483  1
  Ni  Ni46  1  0.67005490  0.00331836  0.66767360  1
  Ni  Ni47  1  0.83517125  0.16750379  0.83712736  1
  Ni  Ni48  1  0.83443783  0.50243873  0.50225655  1
  Ni  Ni49  1  0.66708591  0.33416230  0.66818417  1
  Cr  Cr50  1  0.83280774  0.50341356  0.83779811  1
  Fe  Fe51  1  0.83491374  0.83459253  0.50268972  1
  Ni  Ni52  1  0.67046885  0.67008771  0.66780948  1
  Ni  Ni53  1  0.83794412  0.83755147  0.83504107  1
" 