2805,Ni66Fe25Cr8_3,-238.410660946776, 205.2824181814,Ni66Fe25Cr8,"# generated using pymatgen
 data_Cr6Fe13Ni35
_symmetry_space_group_name_H-M   'P 1'
_cell_length_a   7.43230206
_cell_length_b   7.43230206
_cell_length_c   10.51086238
_cell_angle_alpha   90.00000000
_cell_angle_beta   90.00000000
_cell_angle_gamma   90.00000000
_symmetry_Int_Tables_number   1
_chemical_formula_structural   Cr6Fe13Ni35
_chemical_formula_sum   'Cr6 Fe13 Ni35'
_cell_volume   580.61072435
_cell_formula_units_Z   1
loop_
 _symmetry_equiv_pos_site_id
 _symmetry_equiv_pos_as_xyz
  1  'x, y, z'
loop_
 _atom_site_type_symbol
 _atom_site_label
 _atom_site_symmetry_multiplicity
 _atom_site_fract_x
 _atom_site_fract_y
 _atom_site_fract_z
 _atom_site_occupancy
  Ni  Ni0  1  1.00213605  1.00190657  1.00166563  1
  Fe  Fe1  1  0.16858995  0.17122995  0.16778323  1
  Ni  Ni2  1  0.99930326  1.00151289  0.33637678  1
  Fe  Fe3  1  1.00227370  0.33510034  0.00303637  1
  Ni  Ni4  1  0.16985822  0.50106714  0.16905508  1
  Ni  Ni5  1  1.00141836  0.33738813  0.33489527  1
  Ni  Ni6  1  1.00140056  0.66976723  1.00232122  1
  Cr  Cr7  1  0.16610084  0.83440572  0.16784708  1
  Ni  Ni8  1  0.00243389  0.66811375  0.33702611  1
  Ni  Ni9  1  0.33613456  0.00327641  1.00052879  1
  Ni  Ni10  1  0.50383122  0.17130621  0.16837445  1
  Cr  Cr11  1  0.33772244  1.00216619  0.33636396  1
  Ni  Ni12  1  0.33701792  0.33493232  0.00407386  1
  Ni  Ni13  1  0.50152742  0.50045305  0.16867289  1
  Fe  Fe14  1  0.33626932  0.33762834  0.33484369  1
  Ni  Ni15  1  0.33646591  0.66880424  0.00261914  1
  Fe  Fe16  1  0.50446571  0.83481290  0.16815643  1
  Fe  Fe17  1  0.33566234  0.66654972  0.33690708  1
  Ni  Ni18  1  0.66874004  0.00245939  0.00328555  1
  Fe  Fe19  1  0.83516684  0.16910883  0.16991605  1
  Ni  Ni20  1  0.67006594  0.00306364  0.33555007  1
  Ni  Ni21  1  0.66777406  0.33567109  1.00170981  1
  Fe  Fe22  1  0.83546389  0.50248119  0.16897811  1
  Ni  Ni23  1  0.66888229  0.33490147  0.33664395  1
  Ni  Ni24  1  0.66914419  0.66888234  1.00226372  1
  Ni  Ni25  1  0.83518714  0.83650353  0.16925901  1
  Fe  Fe26  1  0.67006174  0.66953755  0.33591328  1
  Cr  Cr27  1  0.16762508  0.16990104  0.50348292  1
  Ni  Ni28  1  0.00349156  0.00291503  0.66897327  1
  Ni  Ni29  1  0.16919599  0.16706566  0.83612817  1
  Ni  Ni30  1  0.17051576  0.50345800  0.50115172  1
  Ni  Ni31  1  1.00154017  0.33401563  0.66890791  1
  Cr  Cr32  1  0.17090129  0.50191450  0.83666132  1
  Ni  Ni33  1  0.16743468  0.83359298  0.50308245  1
  Cr  Cr34  1  0.00248540  0.67016086  0.66775988  1
  Ni  Ni35  1  0.16764508  0.83826836  0.83601290  1
  Ni  Ni36  1  0.50487949  0.17150991  0.50247776  1
  Fe  Fe37  1  0.33478287  1.00201687  0.66993755  1
  Ni  Ni38  1  0.50170143  0.17115359  0.83615919  1
  Ni  Ni39  1  0.50181793  0.50192596  0.50277145  1
  Ni  Ni40  1  0.33745870  0.33614419  0.66804009  1
  Ni  Ni41  1  0.50392314  0.50114549  0.83556762  1
  Ni  Ni42  1  0.50335258  0.83357372  0.50230012  1
  Ni  Ni43  1  0.33741175  0.66916095  0.66753553  1
  Fe  Fe44  1  0.50102180  0.83476629  0.83633881  1
  Ni  Ni45  1  0.83469817  0.16842851  0.50163414  1
  Cr  Cr46  1  0.66894355  0.00285386  0.66834176  1
  Fe  Fe47  1  0.83666796  0.16941186  0.83573853  1
  Fe  Fe48  1  0.83475126  0.50139601  0.50173175  1
  Ni  Ni49  1  0.66801102  0.33684401  0.66865907  1
  Fe  Fe50  1  0.83319075  0.50166249  0.83630014  1
  Ni  Ni51  1  0.83622847  0.83665251  0.50018197  1
  Ni  Ni52  1  0.66680422  0.66720617  0.66870672  1
  Ni  Ni53  1  0.83664543  0.83604873  0.83757395  1
" 