8514,Ni66Fe18Cr14_10,-235.829503721101, 193.2784896071,Ni66Fe18Cr14,"# generated using pymatgen
 data_Cr4Fe5Ni18
_symmetry_space_group_name_H-M   'P 1'
_cell_length_a   7.43717793
_cell_length_b   7.43717793
_cell_length_c   10.51775790
_cell_angle_alpha   90.00000000
_cell_angle_beta   90.00000000
_cell_angle_gamma   90.00000000
_symmetry_Int_Tables_number   1
_chemical_formula_structural   Cr4Fe5Ni18
_chemical_formula_sum   'Cr8 Fe10 Ni36'
_cell_volume   581.75418198
_cell_formula_units_Z   2
loop_
 _symmetry_equiv_pos_site_id
 _symmetry_equiv_pos_as_xyz
  1  'x, y, z'
loop_
 _atom_site_type_symbol
 _atom_site_label
 _atom_site_symmetry_multiplicity
 _atom_site_fract_x
 _atom_site_fract_y
 _atom_site_fract_z
 _atom_site_occupancy
  Ni  Ni0  1  1.00173037  1.00166223  1.00128340  1
  Cr  Cr1  1  0.16822530  0.16865410  0.16827255  1
  Ni  Ni2  1  1.00043474  1.00103199  0.33664902  1
  Ni  Ni3  1  0.99999229  0.33486099  1.00086064  1
  Ni  Ni4  1  0.16885503  0.50428573  0.16845345  1
  Ni  Ni5  1  1.00122116  0.33527771  0.33632309  1
  Ni  Ni6  1  0.00202360  0.66949948  0.00248728  1
  Ni  Ni7  1  0.16783358  0.83343040  0.16902226  1
  Ni  Ni8  1  0.00222224  0.66967886  0.33469206  1
  Ni  Ni9  1  0.33611188  1.00108631  1.00082025  1
  Ni  Ni10  1  0.50381753  0.16740147  0.16811901  1
  Ni  Ni11  1  0.33605224  0.00248086  0.33596861  1
  Fe  Fe12  1  0.33501230  0.33403701  1.00199040  1
  Cr  Cr13  1  0.49997226  0.50161310  0.16912247  1
  Ni  Ni14  1  0.33637353  0.33498024  0.33543163  1
  Ni  Ni15  1  0.33456096  0.67137402  0.00284476  1
  Fe  Fe16  1  0.50155831  0.83713134  0.16824223  1
  Ni  Ni17  1  0.33396923  0.66859272  0.33465608  1
  Fe  Fe18  1  0.66918198  0.00211628  0.00213668  1
  Ni  Ni19  1  0.83357067  0.16641043  0.16920622  1
  Ni  Ni20  1  0.66951151  0.00348058  0.33329775  1
  Ni  Ni21  1  0.67002213  0.33334043  1.00123446  1
  Cr  Cr22  1  0.83743378  0.50223788  0.16816088  1
  Fe  Fe23  1  0.66832723  0.33316075  0.33636846  1
  Ni  Ni24  1  0.66944522  0.66961336  1.00098980  1
  Ni  Ni25  1  0.83600064  0.83696556  0.16834552  1
  Fe  Fe26  1  0.66997572  0.66982636  0.33665947  1
  Ni  Ni27  1  0.16885529  0.16700882  0.50271655  1
  Ni  Ni28  1  0.00205555  0.00356234  0.66808956  1
  Ni  Ni29  1  0.16771384  0.16662113  0.83501793  1
  Cr  Cr30  1  0.16993458  0.50149175  0.50064911  1
  Fe  Fe31  1  1.00114572  0.33185508  0.66875981  1
  Cr  Cr32  1  0.16840504  0.50163432  0.83718954  1
  Ni  Ni33  1  0.16717338  0.83809578  0.50135738  1
  Cr  Cr34  1  1.00068233  0.67066360  0.66901351  1
  Ni  Ni35  1  0.16955472  0.83773431  0.83564176  1
  Ni  Ni36  1  0.50155192  0.17063345  0.50225381  1
  Ni  Ni37  1  0.33483928  0.00382744  0.66923783  1
  Ni  Ni38  1  0.50264117  0.16678176  0.83561090  1
  Ni  Ni39  1  0.50411364  0.50030637  0.50246615  1
  Ni  Ni40  1  0.33695144  0.33264453  0.66814932  1
  Cr  Cr41  1  0.50307343  0.50300434  0.83441481  1
  Cr  Cr42  1  0.50170822  0.83529814  0.50223067  1
  Ni  Ni43  1  0.33744915  0.66954283  0.66855453  1
  Ni  Ni44  1  0.50207255  0.83637938  0.83562467  1
  Fe  Fe45  1  0.83558952  0.16789655  0.50174571  1
  Ni  Ni46  1  0.66911435  0.00296896  0.67049818  1
  Ni  Ni47  1  0.83567258  0.16831159  0.83537510  1
  Ni  Ni48  1  0.83261996  0.50196188  0.50171633  1
  Fe  Fe49  1  0.66829855  0.33414366  0.66829917  1
  Fe  Fe50  1  0.83438050  0.50098335  0.83651158  1
  Ni  Ni51  1  0.83620125  0.83550276  0.50142687  1
  Ni  Ni52  1  0.66865444  0.66818405  0.66834151  1
  Fe  Fe53  1  0.83455132  0.83717080  0.83590841  1
" 