8133,Ni66Fe27Cr6_1,-238.52669530076, 207.823534238656,Ni66Fe27Cr6,"# generated using pymatgen
 data_Cr5(Fe2Ni5)7
_symmetry_space_group_name_H-M   'P 1'
_cell_length_a   7.42434112
_cell_length_b   7.42434112
_cell_length_c   10.49960390
_cell_angle_alpha   90.00000000
_cell_angle_beta   90.00000000
_cell_angle_gamma   90.00000000
_symmetry_Int_Tables_number   1
_chemical_formula_structural   Cr5(Fe2Ni5)7
_chemical_formula_sum   'Cr5 Fe14 Ni35'
_cell_volume   578.74699715
_cell_formula_units_Z   1
loop_
 _symmetry_equiv_pos_site_id
 _symmetry_equiv_pos_as_xyz
  1  'x, y, z'
loop_
 _atom_site_type_symbol
 _atom_site_label
 _atom_site_symmetry_multiplicity
 _atom_site_fract_x
 _atom_site_fract_y
 _atom_site_fract_z
 _atom_site_occupancy
  Fe  Fe0  1  0.00333584  1.00243455  0.00306310  1
  Ni  Ni1  1  0.16946597  0.17127448  0.16829182  1
  Cr  Cr2  1  1.00173362  0.00307829  0.33650502  1
  Fe  Fe3  1  0.00350685  0.33595637  0.00318928  1
  Ni  Ni4  1  0.16890249  0.50276344  0.16983525  1
  Ni  Ni5  1  0.00415301  0.33929500  0.33572041  1
  Fe  Fe6  1  0.00359106  0.67023864  0.00321917  1
  Ni  Ni7  1  0.16872711  0.83458977  0.16811894  1
  Ni  Ni8  1  0.00301431  0.66685819  0.33520889  1
  Ni  Ni9  1  0.33680428  0.00315861  0.00327035  1
  Ni  Ni10  1  0.50309614  0.16851398  0.16773053  1
  Cr  Cr11  1  0.33840805  0.00343451  0.33527407  1
  Ni  Ni12  1  0.33385421  0.33423135  0.00392403  1
  Cr  Cr13  1  0.50121506  0.50342458  0.16933958  1
  Fe  Fe14  1  0.33335030  0.33660308  0.33710603  1
  Ni  Ni15  1  0.33439043  0.67123668  0.00291457  1
  Fe  Fe16  1  0.50379482  0.83759291  0.16816702  1
  Fe  Fe17  1  0.33481316  0.66859437  0.33666913  1
  Ni  Ni18  1  0.66865318  1.00235857  0.00391370  1
  Ni  Ni19  1  0.83606517  0.16833707  0.16861831  1
  Ni  Ni20  1  0.66860407  1.00164513  0.33576065  1
  Fe  Fe21  1  0.66990633  0.33447640  0.00320691  1
  Ni  Ni22  1  0.83823815  0.50409392  0.16885306  1
  Cr  Cr23  1  0.67099131  0.33462851  0.33707079  1
  Ni  Ni24  1  0.67153024  0.67158196  0.00368317  1
  Ni  Ni25  1  0.83547400  0.83619974  0.16908021  1
  Fe  Fe26  1  0.67132117  0.67213795  0.33710300  1
  Ni  Ni27  1  0.16905220  0.17251286  0.50417142  1
  Fe  Fe28  1  1.00218279  0.00358671  0.66968513  1
  Ni  Ni29  1  0.16870148  0.16996574  0.83616674  1
  Ni  Ni30  1  0.17094901  0.50188791  0.50214071  1
  Ni  Ni31  1  0.00319239  0.33751920  0.66911730  1
  Ni  Ni32  1  0.16959511  0.50259378  0.83665225  1
  Fe  Fe33  1  0.16986857  0.83501597  0.50428652  1
  Ni  Ni34  1  1.00235808  0.66857802  0.66995818  1
  Ni  Ni35  1  0.16941791  0.83606816  0.83551327  1
  Ni  Ni36  1  0.50323192  0.17004121  0.50500305  1
  Ni  Ni37  1  0.33691572  0.00351598  0.67010880  1
  Fe  Fe38  1  0.50215919  0.16706100  0.83612310  1
  Ni  Ni39  1  0.50091121  0.50392572  0.50353786  1
  Ni  Ni40  1  0.33495575  0.33423711  0.66791397  1
  Cr  Cr41  1  0.50176337  0.50352144  0.83562709  1
  Ni  Ni42  1  0.50530619  0.83466029  0.50300480  1
  Fe  Fe43  1  0.33602482  0.66969188  0.66923128  1
  Ni  Ni44  1  0.50359600  0.83643107  0.83669550  1
  Ni  Ni45  1  0.83634081  0.16811540  0.50393085  1
  Ni  Ni46  1  0.66818588  1.00268115  0.66895343  1
  Ni  Ni47  1  0.83666548  0.16836895  0.83608203  1
  Fe  Fe48  1  0.83687521  0.50317521  0.50348265  1
  Ni  Ni49  1  0.67048181  0.33540809  0.66937421  1
  Fe  Fe50  1  0.83825000  0.50359296  0.83600806  1
  Ni  Ni51  1  0.83430318  0.83655297  0.50338311  1
  Ni  Ni52  1  0.67146989  0.67053664  0.66815468  1
  Ni  Ni53  1  0.83561585  0.83732664  0.83616710  1
" 