161,Ni66Fe25Cr8_5,-238.079521443639, 204.812265952016,Ni66Fe25Cr8,"# generated using pymatgen
 data_Cr6Fe13Ni35
_symmetry_space_group_name_H-M   'P 1'
_cell_length_a   7.43188534
_cell_length_b   7.43188534
_cell_length_c   10.51027303
_cell_angle_alpha   90.00000000
_cell_angle_beta   90.00000000
_cell_angle_gamma   90.00000000
_symmetry_Int_Tables_number   1
_chemical_formula_structural   Cr6Fe13Ni35
_chemical_formula_sum   'Cr6 Fe13 Ni35'
_cell_volume   580.51306588
_cell_formula_units_Z   1
loop_
 _symmetry_equiv_pos_site_id
 _symmetry_equiv_pos_as_xyz
  1  'x, y, z'
loop_
 _atom_site_type_symbol
 _atom_site_label
 _atom_site_symmetry_multiplicity
 _atom_site_fract_x
 _atom_site_fract_y
 _atom_site_fract_z
 _atom_site_occupancy
  Ni  Ni0  1  0.00345824  1.00078491  0.00302751  1
  Fe  Fe1  1  0.16849997  0.16805335  0.16953423  1
  Ni  Ni2  1  1.00220408  1.00223153  0.33517004  1
  Ni  Ni3  1  0.00281412  0.33612214  0.00274865  1
  Fe  Fe4  1  0.17093984  0.50186014  0.16864303  1
  Fe  Fe5  1  1.00174519  0.33373821  0.33591836  1
  Ni  Ni6  1  0.00319463  0.67019015  1.00029878  1
  Ni  Ni7  1  0.17066448  0.83679747  0.16805162  1
  Cr  Cr8  1  0.00266375  0.67072068  0.33734773  1
  Ni  Ni9  1  0.33461357  1.00203161  0.00264351  1
  Ni  Ni10  1  0.50388763  0.16810099  0.16923098  1
  Ni  Ni11  1  0.33621158  0.00297862  0.33513698  1
  Cr  Cr12  1  0.33622127  0.33514695  1.00135453  1
  Ni  Ni13  1  0.50259941  0.50293130  0.16971146  1
  Ni  Ni14  1  0.33728937  0.33598439  0.33516724  1
  Ni  Ni15  1  0.33436623  0.66944909  0.00386870  1
  Fe  Fe16  1  0.50273864  0.83603208  0.16902375  1
  Fe  Fe17  1  0.33758221  0.66963596  0.33540705  1
  Ni  Ni18  1  0.66902687  0.00241771  0.00425855  1
  Ni  Ni19  1  0.83501240  0.16854216  0.16975866  1
  Ni  Ni20  1  0.66868200  0.00283169  0.33613674  1
  Ni  Ni21  1  0.66828788  0.33587686  1.00187784  1
  Cr  Cr22  1  0.83444604  0.50039526  0.16740605  1
  Ni  Ni23  1  0.66640102  0.33492906  0.33692943  1
  Ni  Ni24  1  0.66953835  0.66880407  1.00209460  1
  Fe  Fe25  1  0.83434710  0.83846876  0.16859963  1
  Ni  Ni26  1  0.66714619  0.66933581  0.33695129  1
  Cr  Cr27  1  0.16899107  0.16854121  0.50214513  1
  Ni  Ni28  1  0.00304236  1.00000327  0.66890209  1
  Ni  Ni29  1  0.16981313  0.16811832  0.83592134  1
  Ni  Ni30  1  0.16805657  0.50355694  0.50231538  1
  Ni  Ni31  1  0.00320863  0.33780209  0.66842455  1
  Ni  Ni32  1  0.16642908  0.50362069  0.83575660  1
  Ni  Ni33  1  0.17002188  0.83465933  0.50370932  1
  Ni  Ni34  1  0.00272548  0.66928769  0.66950615  1
  Ni  Ni35  1  0.16847341  0.83535493  0.83533640  1
  Ni  Ni36  1  0.50429365  0.16793523  0.50252215  1
  Fe  Fe37  1  0.33581600  0.00245980  0.66912279  1
  Ni  Ni38  1  0.50189606  0.16893906  0.83533857  1
  Fe  Fe39  1  0.50285713  0.50301160  0.50149128  1
  Fe  Fe40  1  0.33614814  0.33605475  0.66964243  1
  Fe  Fe41  1  0.50297429  0.50135767  0.83585047  1
  Ni  Ni42  1  0.50276914  0.83650457  0.50093097  1
  Fe  Fe43  1  0.33418187  0.66858356  0.66856372  1
  Cr  Cr44  1  0.50171400  0.83685409  0.83691660  1
  Fe  Fe45  1  0.83424826  0.16831247  0.50222407  1
  Ni  Ni46  1  0.66871551  0.00261161  0.66670293  1
  Cr  Cr47  1  0.83516380  0.17072944  0.83579219  1
  Ni  Ni48  1  0.83525133  0.50202576  0.50320054  1
  Ni  Ni49  1  0.66729531  0.33644371  0.66829188  1
  Ni  Ni50  1  0.83648581  0.50304407  0.83631719  1
  Ni  Ni51  1  0.83430846  0.83516468  0.50326400  1
  Ni  Ni52  1  0.67039059  0.66804072  0.66804885  1
  Fe  Fe53  1  0.83789136  0.83433617  0.83520982  1
" 