5131,Ni66Fe25Cr8_2,-237.477518743103, 202.575085468706,Ni66Fe25Cr8,"# generated using pymatgen
 data_Cr6Fe13Ni35
_symmetry_space_group_name_H-M   'P 1'
_cell_length_a   7.42782867
_cell_length_b   7.42782867
_cell_length_c   10.50453604
_cell_angle_alpha   90.00000000
_cell_angle_beta   90.00000000
_cell_angle_gamma   90.00000000
_symmetry_Int_Tables_number   1
_chemical_formula_structural   Cr6Fe13Ni35
_chemical_formula_sum   'Cr6 Fe13 Ni35'
_cell_volume   579.56297125
_cell_formula_units_Z   1
loop_
 _symmetry_equiv_pos_site_id
 _symmetry_equiv_pos_as_xyz
  1  'x, y, z'
loop_
 _atom_site_type_symbol
 _atom_site_label
 _atom_site_symmetry_multiplicity
 _atom_site_fract_x
 _atom_site_fract_y
 _atom_site_fract_z
 _atom_site_occupancy
  Ni  Ni0  1  1.00142915  0.00324140  1.00173917  1
  Ni  Ni1  1  0.16760684  0.17017205  0.17025914  1
  Ni  Ni2  1  0.00288482  0.00427519  0.33704443  1
  Fe  Fe3  1  1.00109042  0.33647971  0.00404025  1
  Ni  Ni4  1  0.16765590  0.50473633  0.16988072  1
  Ni  Ni5  1  1.00218297  0.33485607  0.33554697  1
  Ni  Ni6  1  1.00118448  0.67156014  0.00360500  1
  Fe  Fe7  1  0.16797267  0.83583253  0.17078205  1
  Fe  Fe8  1  1.00227253  0.66855784  0.33657040  1
  Cr  Cr9  1  0.33219875  1.00205474  0.00388369  1
  Ni  Ni10  1  0.50470932  0.16674110  0.17143509  1
  Ni  Ni11  1  0.33486802  0.00300291  0.33627148  1
  Cr  Cr12  1  0.33685500  0.33637672  0.00555652  1
  Fe  Fe13  1  0.50397017  0.50232839  0.17105772  1
  Ni  Ni14  1  0.33539294  0.33574311  0.33640175  1
  Ni  Ni15  1  0.33683949  0.66964130  1.00239915  1
  Ni  Ni16  1  0.50334045  0.83521282  0.16933568  1
  Ni  Ni17  1  0.33690134  0.66910667  0.33598257  1
  Fe  Fe18  1  0.67100724  1.00098200  0.00388992  1
  Ni  Ni19  1  0.83537704  0.16982528  0.16801601  1
  Ni  Ni20  1  0.67024777  1.00262598  0.33617875  1
  Ni  Ni21  1  0.67148645  0.33768178  0.00308683  1
  Ni  Ni22  1  0.83731457  0.50318076  0.16899485  1
  Ni  Ni23  1  0.67030923  0.33669521  0.33671910  1
  Ni  Ni24  1  0.67013471  0.66720822  1.00211305  1
  Fe  Fe25  1  0.83611220  0.83680413  0.17018745  1
  Ni  Ni26  1  0.66935584  0.66842020  0.33640140  1
  Ni  Ni27  1  0.16850037  0.17017470  0.50214102  1
  Ni  Ni28  1  1.00144751  0.00359178  0.66918085  1
  Ni  Ni29  1  0.16602894  0.16972862  0.83561936  1
  Ni  Ni30  1  0.16912373  0.50361221  0.50266526  1
  Fe  Fe31  1  1.00120307  0.33558355  0.66785972  1
  Cr  Cr32  1  0.16719597  0.50378126  0.83532098  1
  Ni  Ni33  1  0.16889429  0.83418633  0.50198217  1
  Ni  Ni34  1  1.00251293  0.67025359  0.66743750  1
  Fe  Fe35  1  0.16590469  0.83614958  0.83515996  1
  Ni  Ni36  1  0.50400571  0.16874806  0.50132967  1
  Cr  Cr37  1  0.33390361  1.00190541  0.66725527  1
  Cr  Cr38  1  0.50498798  0.16756851  0.83533508  1
  Ni  Ni39  1  0.50136591  0.50261293  0.50227121  1
  Fe  Fe40  1  0.33538316  0.33642687  0.66702473  1
  Fe  Fe41  1  0.50417711  0.50205136  0.83585682  1
  Ni  Ni42  1  0.50280322  0.83650233  0.50182168  1
  Ni  Ni43  1  0.33574690  0.66823778  0.66964034  1
  Fe  Fe44  1  0.50368489  0.83379765  0.83640154  1
  Ni  Ni45  1  0.83538623  0.16865401  0.50316922  1
  Ni  Ni46  1  0.67225926  0.00334732  0.66879974  1
  Ni  Ni47  1  0.83691008  0.16980407  0.83688413  1
  Ni  Ni48  1  0.83759780  0.50233668  0.50172806  1
  Fe  Fe49  1  0.67145976  0.33556970  0.66813063  1
  Ni  Ni50  1  0.83700747  0.50250041  0.83681286  1
  Ni  Ni51  1  0.83630912  0.83682348  0.50163078  1
  Cr  Cr52  1  0.67026965  0.66841313  0.66808501  1
  Fe  Fe53  1  0.83779037  0.83685614  0.83563729  1
" 