4493,Ni66Fe27Cr6_7,-238.576310891365, 206.268557483339,Ni66Fe27Cr6,"# generated using pymatgen
 data_Cr5(Fe2Ni5)7
_symmetry_space_group_name_H-M   'P 1'
_cell_length_a   7.42479011
_cell_length_b   7.42479011
_cell_length_c   10.50023887
_cell_angle_alpha   90.00000000
_cell_angle_beta   90.00000000
_cell_angle_gamma   90.00000000
_symmetry_Int_Tables_number   1
_chemical_formula_structural   Cr5(Fe2Ni5)7
_chemical_formula_sum   'Cr5 Fe14 Ni35'
_cell_volume   578.85200464
_cell_formula_units_Z   1
loop_
 _symmetry_equiv_pos_site_id
 _symmetry_equiv_pos_as_xyz
  1  'x, y, z'
loop_
 _atom_site_type_symbol
 _atom_site_label
 _atom_site_symmetry_multiplicity
 _atom_site_fract_x
 _atom_site_fract_y
 _atom_site_fract_z
 _atom_site_occupancy
  Ni  Ni0  1  0.00339176  1.00215548  1.00245449  1
  Ni  Ni1  1  0.16772434  0.17062657  0.16998019  1
  Ni  Ni2  1  0.00289601  0.00452905  0.33651846  1
  Fe  Fe3  1  0.00392253  0.33586355  0.00345279  1
  Ni  Ni4  1  0.16913236  0.50013529  0.17027764  1
  Ni  Ni5  1  0.00446051  0.33374073  0.33555257  1
  Ni  Ni6  1  1.00162439  0.67074425  1.00256627  1
  Fe  Fe7  1  0.16935228  0.83704289  0.16918724  1
  Cr  Cr8  1  0.00355060  0.66979988  0.33610078  1
  Ni  Ni9  1  0.33464841  0.00392019  1.00245451  1
  Cr  Cr10  1  0.50116585  0.16871838  0.16939404  1
  Fe  Fe11  1  0.33533913  1.00193270  0.33684347  1
  Ni  Ni12  1  0.33712576  0.33471006  1.00118728  1
  Ni  Ni13  1  0.50286659  0.50500903  0.17006236  1
  Ni  Ni14  1  0.33433935  0.33710655  0.33736974  1
  Cr  Cr15  1  0.33534047  0.67005132  1.00241944  1
  Ni  Ni16  1  0.50520151  0.83488999  0.17078680  1
  Ni  Ni17  1  0.33773880  0.66947115  0.33642802  1
  Fe  Fe18  1  0.66999219  1.00202531  1.00216917  1
  Fe  Fe19  1  0.83836560  0.16905126  0.16924383  1
  Ni  Ni20  1  0.67053491  1.00113005  0.33732809  1
  Ni  Ni21  1  0.66966593  0.33647373  1.00209795  1
  Ni  Ni22  1  0.83654401  0.50395452  0.16805686  1
  Cr  Cr23  1  0.66996240  0.33704788  0.33678089  1
  Fe  Fe24  1  0.67068696  0.66976259  0.00334244  1
  Ni  Ni25  1  0.83455119  0.83629357  0.16951490  1
  Ni  Ni26  1  0.66716893  0.67103837  0.33563335  1
  Ni  Ni27  1  0.16713265  0.17088330  0.50140191  1
  Fe  Fe28  1  1.00117970  1.00222994  0.66965581  1
  Ni  Ni29  1  0.16854240  0.17070621  0.83715475  1
  Ni  Ni30  1  0.17103494  0.50165569  0.50321983  1
  Fe  Fe31  1  0.00287590  0.33688946  0.66881218  1
  Ni  Ni32  1  0.16957938  0.50193800  0.83503693  1
  Ni  Ni33  1  0.16972468  0.83600413  0.50222991  1
  Ni  Ni34  1  0.00324451  0.66993267  0.66980828  1
  Ni  Ni35  1  0.16752407  0.83589988  0.83654697  1
  Fe  Fe36  1  0.50224486  0.16972834  0.50295370  1
  Cr  Cr37  1  0.33549919  1.00228444  0.67022969  1
  Ni  Ni38  1  0.50383201  0.17052515  0.83650388  1
  Ni  Ni39  1  0.50163915  0.50479215  0.50277510  1
  Fe  Fe40  1  0.33642599  0.33916068  0.66973146  1
  Ni  Ni41  1  0.50285228  0.50217483  0.83569928  1
  Ni  Ni42  1  0.50424776  0.83415610  0.50124883  1
  Ni  Ni43  1  0.33545661  0.66881780  0.66964654  1
  Ni  Ni44  1  0.50508398  0.83583800  0.83650762  1
  Ni  Ni45  1  0.83770427  0.16827397  0.50246292  1
  Fe  Fe46  1  0.67090356  1.00200178  0.66943394  1
  Ni  Ni47  1  0.83616567  0.16847038  0.83705206  1
  Fe  Fe48  1  0.83640235  0.50295563  0.50408015  1
  Ni  Ni49  1  0.66963478  0.33625618  0.66938193  1
  Fe  Fe50  1  0.83590764  0.50308498  0.83635886  1
  Fe  Fe51  1  0.83576728  0.83675259  0.50324748  1
  Ni  Ni52  1  0.66984075  0.66815638  0.66975165  1
  Ni  Ni53  1  0.83592881  0.83687497  0.83553275  1
" 