4367,Ni66Fe25Cr8_6,-238.525934943007, 202.731833612739,Ni66Fe25Cr8,"# generated using pymatgen
 data_Cr6Fe13Ni35
_symmetry_space_group_name_H-M   'P 1'
_cell_length_a   7.43680100
_cell_length_b   7.43680100
_cell_length_c   10.51722483
_cell_angle_alpha   90.00000000
_cell_angle_beta   90.00000000
_cell_angle_gamma   90.00000000
_symmetry_Int_Tables_number   1
_chemical_formula_structural   Cr6Fe13Ni35
_chemical_formula_sum   'Cr6 Fe13 Ni35'
_cell_volume   581.66573175
_cell_formula_units_Z   1
loop_
 _symmetry_equiv_pos_site_id
 _symmetry_equiv_pos_as_xyz
  1  'x, y, z'
loop_
 _atom_site_type_symbol
 _atom_site_label
 _atom_site_symmetry_multiplicity
 _atom_site_fract_x
 _atom_site_fract_y
 _atom_site_fract_z
 _atom_site_occupancy
  Ni  Ni0  1  0.00513029  0.00341621  1.00106112  1
  Ni  Ni1  1  0.16896387  0.16790034  0.16719254  1
  Ni  Ni2  1  0.00230987  0.00254383  0.33691221  1
  Ni  Ni3  1  0.00298229  0.33518955  0.00253921  1
  Fe  Fe4  1  0.16902490  0.50260546  0.16720265  1
  Fe  Fe5  1  1.00096626  0.33514150  0.33515345  1
  Ni  Ni6  1  0.00420299  0.66749722  0.00370710  1
  Fe  Fe7  1  0.17113380  0.83571568  0.16890032  1
  Fe  Fe8  1  0.00256530  0.66902459  0.33662839  1
  Ni  Ni9  1  0.33337876  0.00231072  0.00275857  1
  Ni  Ni10  1  0.50012949  0.16843490  0.16830317  1
  Ni  Ni11  1  0.33509477  1.00072287  0.33518270  1
  Ni  Ni12  1  0.33488172  0.33564938  1.00161104  1
  Ni  Ni13  1  0.50401562  0.50263973  0.16651730  1
  Cr  Cr14  1  0.33555817  0.33550918  0.33549924  1
  Ni  Ni15  1  0.33477295  0.66813933  1.00130701  1
  Ni  Ni16  1  0.50061474  0.83502682  0.16946870  1
  Ni  Ni17  1  0.33552693  0.66985335  0.33637293  1
  Cr  Cr18  1  0.66719590  0.00359012  0.00207338  1
  Fe  Fe19  1  0.83541076  0.17096472  0.16909849  1
  Ni  Ni20  1  0.66869541  1.00191643  0.33678403  1
  Ni  Ni21  1  0.66823575  0.33658052  0.00329907  1
  Ni  Ni22  1  0.83510900  0.50175221  0.16813086  1
  Fe  Fe23  1  0.66917185  0.33537872  0.33522240  1
  Ni  Ni24  1  0.66713042  0.66599624  0.00242785  1
  Cr  Cr25  1  0.83520947  0.83294504  0.16872035  1
  Ni  Ni26  1  0.66847398  0.66845172  0.33666350  1
  Ni  Ni27  1  0.16869158  0.16798213  0.50335846  1
  Fe  Fe28  1  0.00257528  0.00445321  0.66759940  1
  Ni  Ni29  1  0.16991097  0.16944487  0.83554749  1
  Ni  Ni30  1  0.16766897  0.50120689  0.50181435  1
  Fe  Fe31  1  0.00296068  0.33329884  0.66825684  1
  Ni  Ni32  1  0.16985797  0.49961454  0.83683181  1
  Ni  Ni33  1  0.16874330  0.83691424  0.50119224  1
  Cr  Cr34  1  0.00313923  0.66880081  0.66640701  1
  Fe  Fe35  1  0.17155260  0.83656521  0.83642970  1
  Ni  Ni36  1  0.50156252  0.16744893  0.50262434  1
  Ni  Ni37  1  0.33575550  0.00342492  0.66815877  1
  Ni  Ni38  1  0.49949313  0.16842586  0.83517318  1
  Ni  Ni39  1  0.50365302  0.50280074  0.50386303  1
  Ni  Ni40  1  0.33545634  0.33462121  0.66885495  1
  Fe  Fe41  1  0.50021352  0.50151532  0.83560348  1
  Ni  Ni42  1  0.50311224  0.83585135  0.50177345  1
  Fe  Fe43  1  0.33800970  0.66862896  0.66822718  1
  Ni  Ni44  1  0.50101682  0.83574293  0.83485934  1
  Fe  Fe45  1  0.83500730  0.16821816  0.50205360  1
  Ni  Ni46  1  0.66765982  0.00284157  0.66748354  1
  Fe  Fe47  1  0.83584800  0.16953444  0.83494920  1
  Ni  Ni48  1  0.83477856  0.50275156  0.50093649  1
  Ni  Ni49  1  0.66723752  0.33448334  0.66745279  1
  Cr  Cr50  1  0.83483796  0.50152529  0.83715877  1
  Ni  Ni51  1  0.83424984  0.83482421  0.50147396  1
  Ni  Ni52  1  0.66696973  0.66877459  0.66700940  1
  Cr  Cr53  1  0.83396581  0.83522263  0.83598280  1
" 