2349,Ni66Fe10Cr22_7,-230.458947178016, 168.662319426427,Ni66Fe10Cr22,"# generated using pymatgen
 data_Cr14(FeNi7)5
_symmetry_space_group_name_H-M   'P 1'
_cell_length_a   7.47003598
_cell_length_b   7.47003598
_cell_length_c   10.56422619
_cell_angle_alpha   90.00000000
_cell_angle_beta   90.00000000
_cell_angle_gamma   90.00000000
_symmetry_Int_Tables_number   1
_chemical_formula_structural   Cr14(FeNi7)5
_chemical_formula_sum   'Cr14 Fe5 Ni35'
_cell_volume   589.49900703
_cell_formula_units_Z   1
loop_
 _symmetry_equiv_pos_site_id
 _symmetry_equiv_pos_as_xyz
  1  'x, y, z'
loop_
 _atom_site_type_symbol
 _atom_site_label
 _atom_site_symmetry_multiplicity
 _atom_site_fract_x
 _atom_site_fract_y
 _atom_site_fract_z
 _atom_site_occupancy
  Fe  Fe0  1  0.99911171  0.99753369  0.99947789  1
  Ni  Ni1  1  0.16678473  0.16800180  0.16499211  1
  Ni  Ni2  1  0.99691441  0.00084249  0.33311738  1
  Fe  Fe3  1  0.00014909  0.33377621  0.00041350  1
  Ni  Ni4  1  0.16737789  0.49923783  0.16631380  1
  Ni  Ni5  1  -0.00004708  0.33342254  0.33463323  1
  Ni  Ni6  1  -0.00007492  0.66666811  0.99875039  1
  Cr  Cr7  1  0.16514407  0.83265445  0.16608510  1
  Ni  Ni8  1  0.00047867  0.66512186  0.33441119  1
  Ni  Ni9  1  0.33558767  0.99928421  0.99942541  1
  Ni  Ni10  1  0.49999477  0.16650238  0.16505014  1
  Cr  Cr11  1  0.33562605  0.99958955  0.33320090  1
  Fe  Fe12  1  0.33580199  0.33329781  0.00120901  1
  Ni  Ni13  1  0.49807627  0.49946634  0.16411021  1
  Cr  Cr14  1  0.33226134  0.33413219  0.33120815  1
  Ni  Ni15  1  0.33301438  0.66712718  0.00029041  1
  Ni  Ni16  1  0.50112411  0.83346458  0.16501522  1
  Ni  Ni17  1  0.33163830  0.66538167  0.33162364  1
  Ni  Ni18  1  0.66480988  0.00051137  0.99938989  1
  Cr  Cr19  1  0.83269295  0.16465398  0.16707140  1
  Ni  Ni20  1  0.66759066  0.00081130  0.33382143  1
  Ni  Ni21  1  0.66510765  0.33210128  0.99780976  1
  Cr  Cr22  1  0.83315642  0.50052830  0.16679870  1
  Ni  Ni23  1  0.66776555  0.33017508  0.33424493  1
  Fe  Fe24  1  0.66484526  0.66818847  0.99855197  1
  Ni  Ni25  1  0.83222555  0.83410913  0.16608439  1
  Cr  Cr26  1  0.66576151  0.66862833  0.33192625  1
  Ni  Ni27  1  0.16620782  0.16801971  0.49978973  1
  Cr  Cr28  1  0.99939468  0.99803763  0.66739122  1
  Cr  Cr29  1  0.16905338  0.16402588  0.83446244  1
  Ni  Ni30  1  0.16441672  0.49953623  0.49962003  1
  Cr  Cr31  1  0.99915210  0.33506943  0.66446557  1
  Cr  Cr32  1  0.16760029  0.50216218  0.83244481  1
  Cr  Cr33  1  0.16703659  0.83143785  0.50097488  1
  Ni  Ni34  1  0.99829936  0.66611397  0.66632796  1
  Ni  Ni35  1  0.16689245  0.83277724  0.83348062  1
  Ni  Ni36  1  0.50002474  0.16491540  0.49995280  1
  Ni  Ni37  1  0.33500689  0.99966494  0.66692354  1
  Ni  Ni38  1  0.49947986  0.16638291  0.83424903  1
  Cr  Cr39  1  0.49926050  0.50100135  0.50140554  1
  Ni  Ni40  1  0.33388122  0.33227159  0.66631219  1
  Ni  Ni41  1  0.50172299  0.50024269  0.83393979  1
  Ni  Ni42  1  0.50101478  0.83428094  0.50100937  1
  Ni  Ni43  1  0.33362464  0.66749182  0.66755590  1
  Ni  Ni44  1  0.49929342  0.83291278  0.83330631  1
  Ni  Ni45  1  0.83318831  0.16652522  0.49605632  1
  Cr  Cr46  1  0.66493238  0.99838201  0.66577172  1
  Fe  Fe47  1  0.83042796  0.16609484  0.83609576  1
  Ni  Ni48  1  0.83566454  0.50052529  0.49922846  1
  Cr  Cr49  1  0.66641381  0.33359102  0.66688481  1
  Ni  Ni50  1  0.83111185  0.50235756  0.83425647  1
  Ni  Ni51  1  0.83254656  0.83238394  0.49838992  1
  Ni  Ni52  1  0.66753167  0.66725994  0.66886402  1
  Ni  Ni53  1  0.83310037  0.83052222  0.83501311  1
" 