760,Ni66Fe27Cr6_17,-238.762280884971, 204.782332328966,Ni66Fe27Cr6,"# generated using pymatgen
 data_Cr5(Fe2Ni5)7
_symmetry_space_group_name_H-M   'P 1'
_cell_length_a   7.42678451
_cell_length_b   7.42678451
_cell_length_c   10.50305938
_cell_angle_alpha   90.00000000
_cell_angle_beta   90.00000000
_cell_angle_gamma   90.00000000
_symmetry_Int_Tables_number   1
_chemical_formula_structural   Cr5(Fe2Ni5)7
_chemical_formula_sum   'Cr5 Fe14 Ni35'
_cell_volume   579.31859289
_cell_formula_units_Z   1
loop_
 _symmetry_equiv_pos_site_id
 _symmetry_equiv_pos_as_xyz
  1  'x, y, z'
loop_
 _atom_site_type_symbol
 _atom_site_label
 _atom_site_symmetry_multiplicity
 _atom_site_fract_x
 _atom_site_fract_y
 _atom_site_fract_z
 _atom_site_occupancy
  Ni  Ni0  1  1.00104964  1.00052569  1.00190423  1
  Cr  Cr1  1  0.16951399  0.17074808  0.16676946  1
  Ni  Ni2  1  1.00155019  1.00111971  0.33546254  1
  Ni  Ni3  1  1.00249153  0.33657647  0.99991302  1
  Ni  Ni4  1  0.16969497  0.50246187  0.17021067  1
  Fe  Fe5  1  0.00318239  0.33517765  0.33707960  1
  Ni  Ni6  1  0.00523461  0.67108609  1.00188649  1
  Fe  Fe7  1  0.17178961  0.83452949  0.16895558  1
  Fe  Fe8  1  0.00333250  0.67119000  0.33587796  1
  Ni  Ni9  1  0.33671068  1.00088749  1.00060335  1
  Ni  Ni10  1  0.50297521  0.16863093  0.17055552  1
  Ni  Ni11  1  0.33424835  1.00216004  0.33640743  1
  Ni  Ni12  1  0.33775597  0.33842753  1.00198765  1
  Ni  Ni13  1  0.50228721  0.50312783  0.16998659  1
  Ni  Ni14  1  0.33751490  0.33796121  0.33691537  1
  Ni  Ni15  1  0.33463493  0.66849275  0.00298593  1
  Ni  Ni16  1  0.50406282  0.83642007  0.16977465  1
  Ni  Ni17  1  0.33476837  0.66813781  0.33499099  1
  Ni  Ni18  1  0.67025825  0.00385024  1.00255350  1
  Fe  Fe19  1  0.83375167  0.16912062  0.16804090  1
  Ni  Ni20  1  0.67238893  0.00359353  0.33551131  1
  Ni  Ni21  1  0.66755370  0.33471510  1.00180292  1
  Cr  Cr22  1  0.83662993  0.50246390  0.16738265  1
  Ni  Ni23  1  0.66834154  0.33567674  0.33743600  1
  Fe  Fe24  1  0.66792675  0.67115922  1.00203165  1
  Fe  Fe25  1  0.83536392  0.83742879  0.16923869  1
  Ni  Ni26  1  0.66925769  0.66882170  0.33544705  1
  Ni  Ni27  1  0.16791072  0.16975939  0.50248468  1
  Ni  Ni28  1  1.00243403  1.00162777  0.67000859  1
  Ni  Ni29  1  0.16775140  0.16903803  0.83699408  1
  Fe  Fe30  1  0.16867766  0.50533309  0.50184474  1
  Fe  Fe31  1  0.00299905  0.33489189  0.67046769  1
  Ni  Ni32  1  0.16833636  0.50281155  0.83678840  1
  Ni  Ni33  1  0.16756095  0.83745145  0.50208434  1
  Fe  Fe34  1  0.00289015  0.67149741  0.67030405  1
  Ni  Ni35  1  0.16917682  0.83615569  0.83576299  1
  Fe  Fe36  1  0.50155958  0.16688368  0.50119776  1
  Ni  Ni37  1  0.33307462  1.00155874  0.67064769  1
  Ni  Ni38  1  0.50277201  0.16690486  0.83716349  1
  Fe  Fe39  1  0.50218432  0.50467568  0.50162648  1
  Cr  Cr40  1  0.33603790  0.33631626  0.67062606  1
  Ni  Ni41  1  0.50269724  0.50548963  0.83842144  1
  Cr  Cr42  1  0.50366976  0.83608525  0.50458741  1
  Ni  Ni43  1  0.33437743  0.66949614  0.67052695  1
  Ni  Ni44  1  0.50365697  0.83585572  0.83487144  1
  Fe  Fe45  1  0.83777327  0.16576238  0.50253008  1
  Ni  Ni46  1  0.67270273  1.00212511  0.67003169  1
  Ni  Ni47  1  0.83769193  0.16815520  0.83708571  1
  Fe  Fe48  1  0.83715002  0.50484036  0.50134580  1
  Cr  Cr49  1  0.67000010  0.33563528  0.66979676  1
  Fe  Fe50  1  0.83650776  0.50377228  0.83806564  1
  Ni  Ni51  1  0.83650673  0.83458621  0.50216553  1
  Ni  Ni52  1  0.67087682  0.66882318  0.67127927  1
  Ni  Ni53  1  0.83512951  0.83635330  0.83595565  1
" 