6493,Ni66Fe10Cr22_6,-230.419328420377, 168.70646657915,Ni66Fe10Cr22,"# generated using pymatgen
 data_Cr14(FeNi7)5
_symmetry_space_group_name_H-M   'P 1'
_cell_length_a   7.46553021
_cell_length_b   7.46553021
_cell_length_c   10.55785408
_cell_angle_alpha   90.00000000
_cell_angle_beta   90.00000000
_cell_angle_gamma   90.00000000
_symmetry_Int_Tables_number   1
_chemical_formula_structural   Cr14(FeNi7)5
_chemical_formula_sum   'Cr14 Fe5 Ni35'
_cell_volume   588.43293126
_cell_formula_units_Z   1
loop_
 _symmetry_equiv_pos_site_id
 _symmetry_equiv_pos_as_xyz
  1  'x, y, z'
loop_
 _atom_site_type_symbol
 _atom_site_label
 _atom_site_symmetry_multiplicity
 _atom_site_fract_x
 _atom_site_fract_y
 _atom_site_fract_z
 _atom_site_occupancy
  Ni  Ni0  1  0.99893616  0.00079017  0.00173362  1
  Ni  Ni1  1  0.16552626  0.16732463  0.16480277  1
  Cr  Cr2  1  0.00181102  0.00312883  0.33277987  1
  Ni  Ni3  1  0.00032312  0.33398860  0.00181922  1
  Ni  Ni4  1  0.16558313  0.50058935  0.16664769  1
  Ni  Ni5  1  0.00025355  0.33510301  0.33280291  1
  Ni  Ni6  1  0.00150100  0.66538650  0.00261182  1
  Ni  Ni7  1  0.16722149  0.83241629  0.16569371  1
  Ni  Ni8  1  0.00137242  0.66467848  0.33052781  1
  Fe  Fe9  1  0.33370803  0.00039515  0.00116744  1
  Cr  Cr10  1  0.50012904  0.16727508  0.16492178  1
  Ni  Ni11  1  0.33380849  0.99885129  0.33297479  1
  Ni  Ni12  1  0.33302421  0.33527899  0.00013479  1
  Ni  Ni13  1  0.49843516  0.50138566  0.16418659  1
  Cr  Cr14  1  0.33097574  0.33430086  0.33454606  1
  Fe  Fe15  1  0.33245443  0.66530299  0.00120233  1
  Ni  Ni16  1  0.49841817  0.83383333  0.16734094  1
  Ni  Ni17  1  0.33341826  0.66757713  0.33218555  1
  Ni  Ni18  1  0.66707926  0.00057476  0.00115609  1
  Ni  Ni19  1  0.83498903  0.16764152  0.16477413  1
  Fe  Fe20  1  0.66559576  0.99955872  0.33209231  1
  Ni  Ni21  1  0.66703687  0.33225128  0.99895991  1
  Ni  Ni22  1  0.83611527  0.49895328  0.16555213  1
  Cr  Cr23  1  0.66845131  0.33430061  0.33276958  1
  Cr  Cr24  1  0.66713557  0.66512119  1.00002003  1
  Ni  Ni25  1  0.83448700  0.83379254  0.16585614  1
  Cr  Cr26  1  0.66600025  0.66536910  0.33156705  1
  Ni  Ni27  1  0.16728463  0.16997786  0.50139505  1
  Ni  Ni28  1  0.99918524  0.00531287  0.66668214  1
  Cr  Cr29  1  0.16606846  0.17002472  0.83476814  1
  Ni  Ni30  1  0.16637591  0.49774176  0.49985776  1
  Ni  Ni31  1  0.99980121  0.33301484  0.66555242  1
  Ni  Ni32  1  0.16681689  0.49872658  0.83397114  1
  Cr  Cr33  1  0.16838566  0.83113990  0.50087585  1
  Cr  Cr34  1  1.00009441  0.66360236  0.66742745  1
  Cr  Cr35  1  0.16749372  0.83123635  0.83455336  1
  Ni  Ni36  1  0.49957743  0.16754992  0.49956464  1
  Cr  Cr37  1  0.33313077  0.00169806  0.66655012  1
  Ni  Ni38  1  0.50187384  0.16811271  0.83577247  1
  Ni  Ni39  1  0.49995479  0.50000433  0.50347401  1
  Ni  Ni40  1  0.33429598  0.33578624  0.66603817  1
  Fe  Fe41  1  0.49954128  0.49773471  0.83321037  1
  Ni  Ni42  1  0.49945434  0.83277803  0.49857612  1
  Ni  Ni43  1  0.33746265  0.66306466  0.66752535  1
  Ni  Ni44  1  0.49982541  0.83344133  0.83400971  1
  Fe  Fe45  1  0.83397928  0.17029089  0.50097387  1
  Cr  Cr46  1  0.66620063  0.00155396  0.66604620  1
  Ni  Ni47  1  0.83169218  0.17037381  0.83418706  1
  Ni  Ni48  1  0.83412741  0.49754934  0.50090812  1
  Ni  Ni49  1  0.66628016  0.33531721  0.66797714  1
  Ni  Ni50  1  0.83446856  0.49634707  0.83352200  1
  Cr  Cr51  1  0.83198347  0.83070731  0.50056075  1
  Ni  Ni52  1  0.66302056  0.66337786  0.66754924  1
  Cr  Cr53  1  0.83332298  0.83385382  0.83313208  1
" 