4191,Ni66Fe27Cr6_16,-238.788514153977, 206.327363532461,Ni66Fe27Cr6,"# generated using pymatgen
 data_Cr5(Fe2Ni5)7
_symmetry_space_group_name_H-M   'P 1'
_cell_length_a   7.42634622
_cell_length_b   7.42634622
_cell_length_c   10.50243954
_cell_angle_alpha   90.00000000
_cell_angle_beta   90.00000000
_cell_angle_gamma   90.00000000
_symmetry_Int_Tables_number   1
_chemical_formula_structural   Cr5(Fe2Ni5)7
_chemical_formula_sum   'Cr5 Fe14 Ni35'
_cell_volume   579.21603222
_cell_formula_units_Z   1
loop_
 _symmetry_equiv_pos_site_id
 _symmetry_equiv_pos_as_xyz
  1  'x, y, z'
loop_
 _atom_site_type_symbol
 _atom_site_label
 _atom_site_symmetry_multiplicity
 _atom_site_fract_x
 _atom_site_fract_y
 _atom_site_fract_z
 _atom_site_occupancy
  Ni  Ni0  1  0.00358929  0.00465939  1.00230424  1
  Fe  Fe1  1  0.16971638  0.16928171  0.16933645  1
  Ni  Ni2  1  0.00408029  0.00311747  0.33679109  1
  Ni  Ni3  1  1.00273272  0.33491900  0.00314937  1
  Fe  Fe4  1  0.16937512  0.50269422  0.16899183  1
  Ni  Ni5  1  1.00163445  0.33602233  0.33654182  1
  Ni  Ni6  1  0.00406723  0.66864072  0.00318357  1
  Ni  Ni7  1  0.17029355  0.83667008  0.16842097  1
  Ni  Ni8  1  1.00189457  0.66908240  0.33727422  1
  Ni  Ni9  1  0.33588557  1.00139306  0.00306716  1
  Ni  Ni10  1  0.50199560  0.17024341  0.16910222  1
  Ni  Ni11  1  0.33576525  0.00286604  0.33597846  1
  Ni  Ni12  1  0.33563836  0.33708877  1.00255749  1
  Ni  Ni13  1  0.50341907  0.50168673  0.16849915  1
  Ni  Ni14  1  0.33715018  0.33520777  0.33705348  1
  Ni  Ni15  1  0.33758172  0.66974138  1.00273313  1
  Ni  Ni16  1  0.50044872  0.83629100  0.16920504  1
  Fe  Fe17  1  0.33578316  0.66926197  0.33582230  1
  Ni  Ni18  1  0.66874939  1.00271941  0.00319070  1
  Ni  Ni19  1  0.83623008  0.17158864  0.16862075  1
  Fe  Fe20  1  0.66893745  0.00426375  0.33610576  1
  Fe  Fe21  1  0.66932632  0.33630094  0.00511212  1
  Ni  Ni22  1  0.83585429  0.50138449  0.16919801  1
  Ni  Ni23  1  0.66943720  0.33739515  0.33529203  1
  Ni  Ni24  1  0.66658203  0.66888748  1.00273749  1
  Cr  Cr25  1  0.83755139  0.83494744  0.16912689  1
  Ni  Ni26  1  0.66918345  0.66770099  0.33740000  1
  Ni  Ni27  1  0.17065119  0.16861400  0.50278122  1
  Ni  Ni28  1  0.00366522  0.00388192  0.66912458  1
  Ni  Ni29  1  0.16880928  0.16928799  0.83615682  1
  Fe  Fe30  1  0.16933189  0.50225756  0.50295255  1
  Ni  Ni31  1  0.00422185  0.33434080  0.66852967  1
  Fe  Fe32  1  0.17195668  0.50236430  0.83627808  1
  Ni  Ni33  1  0.16759183  0.83754181  0.50349574  1
  Fe  Fe34  1  0.00505259  0.66951537  0.66719721  1
  Fe  Fe35  1  0.17193014  0.83625296  0.83626808  1
  Ni  Ni36  1  0.50012579  0.16998640  0.50206539  1
  Ni  Ni37  1  0.33476056  1.00101752  0.66917458  1
  Cr  Cr38  1  0.49959709  0.16928377  0.83727716  1
  Ni  Ni39  1  0.50309930  0.50188438  0.50260806  1
  Ni  Ni40  1  0.33424814  0.33724719  0.66861247  1
  Ni  Ni41  1  0.50057793  0.50469440  0.83711422  1
  Fe  Fe42  1  0.50245649  0.83610029  0.50301081  1
  Ni  Ni43  1  0.33727316  0.66995613  0.66976307  1
  Ni  Ni44  1  0.50133996  0.83449292  0.83580918  1
  Fe  Fe45  1  0.83744067  0.16885358  0.50156113  1
  Fe  Fe46  1  0.66879662  1.00156552  0.66842105  1
  Fe  Fe47  1  0.83846146  0.16839568  0.83748281  1
  Ni  Ni48  1  0.83625363  0.50494117  0.50166015  1
  Cr  Cr49  1  0.66956211  0.33665489  0.66842759  1
  Cr  Cr50  1  0.83637303  0.50334267  0.83779363  1
  Ni  Ni51  1  0.83762338  0.83457202  0.50286581  1
  Fe  Fe52  1  0.66729619  0.67052621  0.66784805  1
  Cr  Cr53  1  0.83657921  0.83635107  0.83690339  1
" 