5622,Ni66Fe27Cr6_2,-239.07613782147, 207.362973123523,Ni66Fe27Cr6,"# generated using pymatgen
 data_Cr5(Fe2Ni5)7
_symmetry_space_group_name_H-M   'P 1'
_cell_length_a   7.42717264
_cell_length_b   7.42717264
_cell_length_c   10.50360828
_cell_angle_alpha   90.00000000
_cell_angle_beta   90.00000000
_cell_angle_gamma   90.00000000
_symmetry_Int_Tables_number   1
_chemical_formula_structural   Cr5(Fe2Ni5)7
_chemical_formula_sum   'Cr5 Fe14 Ni35'
_cell_volume   579.40942361
_cell_formula_units_Z   1
loop_
 _symmetry_equiv_pos_site_id
 _symmetry_equiv_pos_as_xyz
  1  'x, y, z'
loop_
 _atom_site_type_symbol
 _atom_site_label
 _atom_site_symmetry_multiplicity
 _atom_site_fract_x
 _atom_site_fract_y
 _atom_site_fract_z
 _atom_site_occupancy
  Ni  Ni0  1  0.00348894  1.00254300  0.00340520  1
  Ni  Ni1  1  0.16813643  0.16897744  0.17103059  1
  Ni  Ni2  1  0.00395631  0.00393579  0.33598849  1
  Cr  Cr3  1  1.00166326  0.33661616  1.00194628  1
  Ni  Ni4  1  0.17244004  0.50172728  0.16850547  1
  Ni  Ni5  1  1.00112152  0.33597955  0.33705521  1
  Fe  Fe6  1  1.00231119  0.67072438  1.00206558  1
  Fe  Fe7  1  0.17033992  0.83704499  0.16895515  1
  Cr  Cr8  1  0.00474516  0.66869588  0.33463338  1
  Ni  Ni9  1  0.33617629  1.00099609  0.00303535  1
  Fe  Fe10  1  0.50175191  0.16977258  0.16844875  1
  Ni  Ni11  1  0.33468875  0.99953188  0.33561088  1
  Fe  Fe12  1  0.33723766  0.33518583  1.00174366  1
  Ni  Ni13  1  0.50157845  0.50416845  0.16952682  1
  Fe  Fe14  1  0.33339287  0.33563746  0.33554309  1
  Ni  Ni15  1  0.33571957  0.66993431  1.00266910  1
  Ni  Ni16  1  0.50305388  0.83382436  0.16896485  1
  Ni  Ni17  1  0.33608889  0.67084382  0.33571977  1
  Ni  Ni18  1  0.66855944  0.00344481  1.00251259  1
  Ni  Ni19  1  0.83760602  0.16759145  0.16911641  1
  Cr  Cr20  1  0.66910172  0.00331653  0.33531764  1
  Ni  Ni21  1  0.66885216  0.33598499  0.00289071  1
  Fe  Fe22  1  0.83485130  0.50238842  0.16858439  1
  Ni  Ni23  1  0.67225168  0.33728135  0.33373903  1
  Ni  Ni24  1  0.66764366  0.66870416  0.00337513  1
  Ni  Ni25  1  0.83518550  0.83780802  0.16726862  1
  Fe  Fe26  1  0.66934170  0.66983325  0.33399569  1
  Ni  Ni27  1  0.16639331  0.16885437  0.50292395  1
  Ni  Ni28  1  1.00259076  1.00240087  0.66846068  1
  Ni  Ni29  1  0.16831405  0.16782881  0.83398407  1
  Ni  Ni30  1  0.16935463  0.50238664  0.50418395  1
  Ni  Ni31  1  1.00216190  0.33685368  0.66869058  1
  Ni  Ni32  1  0.17068726  0.50322884  0.83513688  1
  Ni  Ni33  1  0.17022996  0.83670409  0.50299719  1
  Ni  Ni34  1  0.00418128  0.66837585  0.67028024  1
  Fe  Fe35  1  0.16859280  0.83598904  0.83536435  1
  Cr  Cr36  1  0.50163576  0.16925497  0.50362543  1
  Ni  Ni37  1  0.33594327  1.00081432  0.66939037  1
  Fe  Fe38  1  0.50260531  0.17087589  0.83562766  1
  Cr  Cr39  1  0.50211148  0.50481145  0.50272464  1
  Ni  Ni40  1  0.33457098  0.33673388  0.67099398  1
  Ni  Ni41  1  0.50256316  0.50469900  0.83608418  1
  Ni  Ni42  1  0.50249931  0.83421845  0.50371247  1
  Ni  Ni43  1  0.33471634  0.67054989  0.66966664  1
  Fe  Fe44  1  0.50238484  0.83599051  0.83656507  1
  Ni  Ni45  1  0.83831819  0.16907727  0.50359994  1
  Ni  Ni46  1  0.66963374  1.00251144  0.67052453  1
  Ni  Ni47  1  0.83661797  0.16741532  0.83535686  1
  Fe  Fe48  1  0.83699012  0.50143353  0.50415562  1
  Ni  Ni49  1  0.67154037  0.33557092  0.67130064  1
  Ni  Ni50  1  0.83475026  0.50312166  0.83573331  1
  Fe  Fe51  1  0.83745996  0.83664707  0.50386378  1
  Fe  Fe52  1  0.66984665  0.67037900  0.67133390  1
  Fe  Fe53  1  0.83697961  0.83573852  0.83702873  1
" 