7623,Ni66Fe25Cr8_11,-237.876451531642, 204.77602645205,Ni66Fe25Cr8,"# generated using pymatgen
 data_Cr6Fe13Ni35
_symmetry_space_group_name_H-M   'P 1'
_cell_length_a   7.43165477
_cell_length_b   7.43165477
_cell_length_c   10.50994697
_cell_angle_alpha   90.00000000
_cell_angle_beta   90.00000000
_cell_angle_gamma   90.00000000
_symmetry_Int_Tables_number   1
_chemical_formula_structural   Cr6Fe13Ni35
_chemical_formula_sum   'Cr6 Fe13 Ni35'
_cell_volume   580.45903906
_cell_formula_units_Z   1
loop_
 _symmetry_equiv_pos_site_id
 _symmetry_equiv_pos_as_xyz
  1  'x, y, z'
loop_
 _atom_site_type_symbol
 _atom_site_label
 _atom_site_symmetry_multiplicity
 _atom_site_fract_x
 _atom_site_fract_y
 _atom_site_fract_z
 _atom_site_occupancy
  Fe  Fe0  1  0.00311153  0.00411032  0.00348711  1
  Ni  Ni1  1  0.16944067  0.17003399  0.16896895  1
  Ni  Ni2  1  0.00352950  1.00193906  0.33683325  1
  Ni  Ni3  1  1.00197174  0.33477080  0.00255252  1
  Ni  Ni4  1  0.16980419  0.50200767  0.16972526  1
  Ni  Ni5  1  0.00438766  0.33505691  0.33548572  1
  Fe  Fe6  1  0.00244024  0.66860372  0.00361544  1
  Fe  Fe7  1  0.16895135  0.83612259  0.16902808  1
  Ni  Ni8  1  0.00327712  0.67014608  0.33493047  1
  Ni  Ni9  1  0.33531218  1.00095766  0.00255201  1
  Ni  Ni10  1  0.50150228  0.17086899  0.16838072  1
  Fe  Fe11  1  0.33377688  0.00328822  0.33589589  1
  Ni  Ni12  1  0.33463970  0.33563017  0.00322369  1
  Ni  Ni13  1  0.50180761  0.50184006  0.16929037  1
  Ni  Ni14  1  0.33487581  0.33587355  0.33611034  1
  Ni  Ni15  1  0.33672439  0.67055726  1.00228719  1
  Fe  Fe16  1  0.50203939  0.83528259  0.16744485  1
  Fe  Fe17  1  0.33543588  0.66821081  0.33532804  1
  Ni  Ni18  1  0.66853420  1.00172610  0.00377366  1
  Ni  Ni19  1  0.83619969  0.16900795  0.16846579  1
  Cr  Cr20  1  0.66947781  1.00225603  0.33570656  1
  Ni  Ni21  1  0.67053322  0.33618362  1.00237956  1
  Fe  Fe22  1  0.83553509  0.50135415  0.16904578  1
  Ni  Ni23  1  0.66787910  0.33612641  0.33531888  1
  Ni  Ni24  1  0.66767605  0.66923315  1.00201767  1
  Ni  Ni25  1  0.83636544  0.83479850  0.16904547  1
  Ni  Ni26  1  0.66877820  0.66929262  0.33568089  1
  Ni  Ni27  1  0.17046909  0.16815609  0.50136533  1
  Fe  Fe28  1  0.00286373  0.00240051  0.66760736  1
  Ni  Ni29  1  0.16852582  0.16711701  0.83681001  1
  Fe  Fe30  1  0.17085752  0.50294297  0.50116350  1
  Cr  Cr31  1  0.00278445  0.33452906  0.66917491  1
  Cr  Cr32  1  0.17013353  0.50259280  0.83652916  1
  Ni  Ni33  1  0.16858781  0.83581346  0.50219972  1
  Ni  Ni34  1  0.00369023  0.67180561  0.66851990  1
  Ni  Ni35  1  0.17040615  0.83685364  0.83597759  1
  Ni  Ni36  1  0.50121767  0.17008208  0.50293255  1
  Fe  Fe37  1  0.33504059  1.00198428  0.66855413  1
  Cr  Cr38  1  0.50223040  0.16991465  0.83650637  1
  Fe  Fe39  1  0.50119467  0.50156656  0.50217586  1
  Ni  Ni40  1  0.33706853  0.33575148  0.66780901  1
  Ni  Ni41  1  0.50408676  0.50370274  0.83511447  1
  Ni  Ni42  1  0.50174880  0.83523594  0.50303119  1
  Fe  Fe43  1  0.33692405  0.66984923  0.66914033  1
  Ni  Ni44  1  0.50093913  0.83368394  0.83630988  1
  Ni  Ni45  1  0.83545682  0.16761558  0.50239807  1
  Ni  Ni46  1  0.66879003  1.00198992  0.66729980  1
  Ni  Ni47  1  0.83632713  0.17026480  0.83628218  1
  Cr  Cr48  1  0.83495214  0.50329531  0.50051363  1
  Ni  Ni49  1  0.66720555  0.33451502  0.66944526  1
  Ni  Ni50  1  0.83316145  0.50182342  0.83769768  1
  Ni  Ni51  1  0.83680534  0.83582270  0.50340838  1
  Fe  Fe52  1  0.66756185  0.66859149  0.66930424  1
  Cr  Cr53  1  0.83554983  0.83540672  0.83474128  1
" 