4346,Ni66Fe27Cr6_4,-238.879786803196, 204.971770070767,Ni66Fe27Cr6,"# generated using pymatgen
 data_Cr5(Fe2Ni5)7
_symmetry_space_group_name_H-M   'P 1'
_cell_length_a   7.42769587
_cell_length_b   7.42769587
_cell_length_c   10.50434824
_cell_angle_alpha   90.00000000
_cell_angle_beta   90.00000000
_cell_angle_gamma   90.00000000
_symmetry_Int_Tables_number   1
_chemical_formula_structural   Cr5(Fe2Ni5)7
_chemical_formula_sum   'Cr5 Fe14 Ni35'
_cell_volume   579.53188831
_cell_formula_units_Z   1
loop_
 _symmetry_equiv_pos_site_id
 _symmetry_equiv_pos_as_xyz
  1  'x, y, z'
loop_
 _atom_site_type_symbol
 _atom_site_label
 _atom_site_symmetry_multiplicity
 _atom_site_fract_x
 _atom_site_fract_y
 _atom_site_fract_z
 _atom_site_occupancy
  Ni  Ni0  1  0.00265097  1.00251217  0.00332847  1
  Ni  Ni1  1  0.16851231  0.16916045  0.16856613  1
  Fe  Fe2  1  0.00381544  0.00284448  0.33442945  1
  Ni  Ni3  1  1.00233178  0.33565258  0.00308906  1
  Ni  Ni4  1  0.16841680  0.50358389  0.16833778  1
  Ni  Ni5  1  1.00018984  0.33693224  0.33453643  1
  Fe  Fe6  1  0.00340769  0.66961955  0.00272656  1
  Ni  Ni7  1  0.16985984  0.83520441  0.16996837  1
  Ni  Ni8  1  1.00072856  0.67021049  0.33549922  1
  Ni  Ni9  1  0.33569816  1.00205264  0.00291958  1
  Ni  Ni10  1  0.50382314  0.16835737  0.16885488  1
  Ni  Ni11  1  0.33582765  1.00108721  0.33605899  1
  Ni  Ni12  1  0.33599947  0.33609698  0.00288064  1
  Ni  Ni13  1  0.50308263  0.50355085  0.16926710  1
  Cr  Cr14  1  0.33735660  0.33377299  0.33446484  1
  Ni  Ni15  1  0.33589158  0.66980000  0.00324372  1
  Ni  Ni16  1  0.50243853  0.83604181  0.16871360  1
  Fe  Fe17  1  0.33646459  0.67128010  0.33402930  1
  Ni  Ni18  1  0.66959458  1.00262138  1.00247271  1
  Ni  Ni19  1  0.83561139  0.16980241  0.16938625  1
  Fe  Fe20  1  0.66841145  1.00246501  0.33445946  1
  Ni  Ni21  1  0.66961630  0.33584291  0.00302052  1
  Ni  Ni22  1  0.83644871  0.50220418  0.16954654  1
  Ni  Ni23  1  0.67059978  0.33744399  0.33557520  1
  Fe  Fe24  1  0.66896375  0.66967151  0.00289710  1
  Ni  Ni25  1  0.83564705  0.83594422  0.16998823  1
  Fe  Fe26  1  0.66966453  0.66870905  0.33625000  1
  Ni  Ni27  1  0.17218453  0.16773910  0.50256915  1
  Cr  Cr28  1  0.00490981  1.00015911  0.66958029  1
  Ni  Ni29  1  0.17119634  0.17012343  0.83680799  1
  Cr  Cr30  1  0.16810534  0.50348102  0.50302164  1
  Cr  Cr31  1  0.00265948  0.33715238  0.67084544  1
  Ni  Ni32  1  0.17001548  0.50384303  0.83646113  1
  Fe  Fe33  1  0.17038443  0.83739427  0.50192533  1
  Ni  Ni34  1  1.00040360  0.67070800  0.67019787  1
  Ni  Ni35  1  0.16949766  0.83397784  0.83563211  1
  Ni  Ni36  1  0.50194878  0.16727346  0.50426891  1
  Ni  Ni37  1  0.33712122  0.00327660  0.66896732  1
  Ni  Ni38  1  0.50322206  0.16936525  0.83481865  1
  Fe  Fe39  1  0.50561237  0.50222108  0.50355929  1
  Ni  Ni40  1  0.33925812  0.33385965  0.66978180  1
  Fe  Fe41  1  0.50215485  0.50169050  0.83629929  1
  Ni  Ni42  1  0.50252778  0.83673719  0.50341990  1
  Fe  Fe43  1  0.33662660  0.66971896  0.67071184  1
  Fe  Fe44  1  0.50194304  0.83712138  0.83602455  1
  Cr  Cr45  1  0.83432028  0.17062304  0.50123684  1
  Fe  Fe46  1  0.66666203  1.00216782  0.67068093  1
  Ni  Ni47  1  0.83352768  0.16885070  0.83732880  1
  Ni  Ni48  1  0.83464572  0.50487986  0.50256275  1
  Ni  Ni49  1  0.66615182  0.33822725  0.66935688  1
  Fe  Fe50  1  0.83600369  0.50269934  0.83599467  1
  Fe  Fe51  1  0.83522841  0.83324653  0.50236528  1
  Ni  Ni52  1  0.67024291  0.66857714  0.66851968  1
  Ni  Ni53  1  0.83543814  0.83546644  0.83559684  1
" 