1645,Ni66Fe18Cr14_4,-236.077965899069, 192.250401841639,Ni66Fe18Cr14,"# generated using pymatgen
 data_Cr4Fe5Ni18
_symmetry_space_group_name_H-M   'P 1'
_cell_length_a   7.44266152
_cell_length_b   7.44266152
_cell_length_c   10.52551286
_cell_angle_alpha   90.00000000
_cell_angle_beta   90.00000000
_cell_angle_gamma   90.00000000
_symmetry_Int_Tables_number   1
_chemical_formula_structural   Cr4Fe5Ni18
_chemical_formula_sum   'Cr8 Fe10 Ni36'
_cell_volume   583.04195008
_cell_formula_units_Z   2
loop_
 _symmetry_equiv_pos_site_id
 _symmetry_equiv_pos_as_xyz
  1  'x, y, z'
loop_
 _atom_site_type_symbol
 _atom_site_label
 _atom_site_symmetry_multiplicity
 _atom_site_fract_x
 _atom_site_fract_y
 _atom_site_fract_z
 _atom_site_occupancy
  Ni  Ni0  1  1.00097647  0.99830424  1.00122027  1
  Cr  Cr1  1  0.16788483  0.16773216  0.16811564  1
  Ni  Ni2  1  1.00099068  1.00078817  0.33564197  1
  Cr  Cr3  1  0.00279295  0.33640794  1.00076050  1
  Ni  Ni4  1  0.16865098  0.50329086  0.17002468  1
  Ni  Ni5  1  1.00148692  0.33561546  0.33620812  1
  Ni  Ni6  1  1.00024502  0.67068573  0.00218562  1
  Ni  Ni7  1  0.16629645  0.83406334  0.16974976  1
  Ni  Ni8  1  0.00399730  0.66851021  0.33367774  1
  Fe  Fe9  1  0.33395029  0.00216705  1.00063669  1
  Fe  Fe10  1  0.50321201  0.17072970  0.16820765  1
  Ni  Ni11  1  0.33474808  0.00177419  0.33621107  1
  Ni  Ni12  1  0.33689383  0.33524558  0.00170258  1
  Ni  Ni13  1  0.50197066  0.49923156  0.16802523  1
  Ni  Ni14  1  0.33558204  0.33596293  0.33496528  1
  Cr  Cr15  1  0.33360355  0.66631404  1.00070750  1
  Cr  Cr16  1  0.50148306  0.83530521  0.16775258  1
  Ni  Ni17  1  0.33209821  0.66718297  0.33622179  1
  Ni  Ni18  1  0.66974066  1.00094023  0.00255779  1
  Ni  Ni19  1  0.83279846  0.16777116  0.16921139  1
  Ni  Ni20  1  0.66917346  0.00427928  0.33577245  1
  Ni  Ni21  1  0.66585019  0.33598337  0.00351994  1
  Ni  Ni22  1  0.83429581  0.50077791  0.16798374  1
  Ni  Ni23  1  0.66784354  0.33295786  0.33436088  1
  Ni  Ni24  1  0.67041431  0.66799405  0.99987361  1
  Fe  Fe25  1  0.83779033  0.83505413  0.16720723  1
  Cr  Cr26  1  0.66907672  0.66762380  0.33550848  1
  Ni  Ni27  1  0.16713520  0.16873823  0.50255673  1
  Ni  Ni28  1  0.00444715  1.00029487  0.66805095  1
  Ni  Ni29  1  0.16885441  0.16726418  0.83418719  1
  Ni  Ni30  1  0.16962329  0.50077659  0.50078100  1
  Fe  Fe31  1  0.00288081  0.33507285  0.66711717  1
  Ni  Ni32  1  0.16959123  0.50186046  0.83410433  1
  Fe  Fe33  1  0.16806542  0.83527371  0.50130739  1
  Ni  Ni34  1  1.00120711  0.66880997  0.66905164  1
  Ni  Ni35  1  0.16660667  0.83578877  0.83404104  1
  Fe  Fe36  1  0.50077457  0.16911555  0.50095504  1
  Ni  Ni37  1  0.33201136  0.00196911  0.66851415  1
  Cr  Cr38  1  0.49993228  0.16982347  0.83664406  1
  Ni  Ni39  1  0.50033932  0.50193708  0.50228598  1
  Ni  Ni40  1  0.33438197  0.33537545  0.66824993  1
  Ni  Ni41  1  0.50198725  0.50244958  0.83460113  1
  Ni  Ni42  1  0.50134994  0.83412125  0.50261972  1
  Fe  Fe43  1  0.33531703  0.66793075  0.66802312  1
  Fe  Fe44  1  0.50139706  0.83351320  0.83468583  1
  Ni  Ni45  1  0.83623125  0.16772781  0.50060638  1
  Cr  Cr46  1  0.66843586  1.00004024  0.66619835  1
  Cr  Cr47  1  0.83679442  0.16741968  0.83478700  1
  Fe  Fe48  1  0.83553656  0.50106385  0.50194299  1
  Ni  Ni49  1  0.66720708  0.33862332  0.66703530  1
  Fe  Fe50  1  0.83453122  0.50447321  0.83479185  1
  Ni  Ni51  1  0.83507394  0.83660649  0.50085673  1
  Ni  Ni52  1  0.66888136  0.66644404  0.66940661  1
  Ni  Ni53  1  0.83602567  0.83325942  0.83705449  1
" 