2386,Ni66Fe18Cr14_6,-235.970764144586, 190.590245245284,Ni66Fe18Cr14,"# generated using pymatgen
 data_Cr4Fe5Ni18
_symmetry_space_group_name_H-M   'P 1'
_cell_length_a   7.44123127
_cell_length_b   7.44123127
_cell_length_c   10.52349018
_cell_angle_alpha   90.00000000
_cell_angle_beta   90.00000000
_cell_angle_gamma   90.00000000
_symmetry_Int_Tables_number   1
_chemical_formula_structural   Cr4Fe5Ni18
_chemical_formula_sum   'Cr8 Fe10 Ni36'
_cell_volume   582.70588592
_cell_formula_units_Z   2
loop_
 _symmetry_equiv_pos_site_id
 _symmetry_equiv_pos_as_xyz
  1  'x, y, z'
loop_
 _atom_site_type_symbol
 _atom_site_label
 _atom_site_symmetry_multiplicity
 _atom_site_fract_x
 _atom_site_fract_y
 _atom_site_fract_z
 _atom_site_occupancy
  Ni  Ni0  1  0.00363999  0.99774035  0.99939746  1
  Cr  Cr1  1  0.16936073  0.16634819  0.16793080  1
  Ni  Ni2  1  0.99984992  1.00046819  0.33583564  1
  Cr  Cr3  1  1.00159685  0.33777893  1.00054727  1
  Ni  Ni4  1  0.16947990  0.50405707  0.16977396  1
  Ni  Ni5  1  0.00209926  0.33645834  0.33621787  1
  Ni  Ni6  1  0.00228634  0.66897408  0.00228787  1
  Ni  Ni7  1  0.16852094  0.83395595  0.16750498  1
  Ni  Ni8  1  0.00404589  0.66830262  0.33373393  1
  Ni  Ni9  1  0.33604340  1.00063772  0.00188369  1
  Ni  Ni10  1  0.50098640  0.16928484  0.16927732  1
  Fe  Fe11  1  0.33547726  1.00127843  0.33470706  1
  Ni  Ni12  1  0.33727537  0.33583511  1.00077158  1
  Ni  Ni13  1  0.50232701  0.50186576  0.16688979  1
  Fe  Fe14  1  0.33449705  0.33567392  0.33422369  1
  Fe  Fe15  1  0.33526008  0.66884419  0.00193217  1
  Ni  Ni16  1  0.50080165  0.83421169  0.17013399  1
  Ni  Ni17  1  0.33491747  0.66813246  0.33292059  1
  Cr  Cr18  1  0.66653737  1.00111174  1.00138305  1
  Cr  Cr19  1  0.83444968  0.16855612  0.16841800  1
  Ni  Ni20  1  0.66688141  1.00162699  0.33619198  1
  Ni  Ni21  1  0.66536755  0.33720567  1.00117107  1
  Ni  Ni22  1  0.83360770  0.50400366  0.16970925  1
  Ni  Ni23  1  0.66722167  0.33326811  0.33335928  1
  Ni  Ni24  1  0.66813809  0.66737611  0.00203982  1
  Ni  Ni25  1  0.83612568  0.83288447  0.16875176  1
  Fe  Fe26  1  0.66932440  0.67005284  0.33294318  1
  Ni  Ni27  1  0.16894078  0.16790351  0.50152193  1
  Ni  Ni28  1  1.00121908  1.00109668  0.66966344  1
  Ni  Ni29  1  0.17038371  0.16562106  0.83489535  1
  Ni  Ni30  1  0.17062020  0.50147731  0.50106284  1
  Cr  Cr31  1  0.00190302  0.33496869  0.66831375  1
  Ni  Ni32  1  0.16924836  0.50409252  0.83439050  1
  Cr  Cr33  1  0.16800896  0.83483996  0.50198299  1
  Ni  Ni34  1  0.00372964  0.66904474  0.66930834  1
  Ni  Ni35  1  0.16985513  0.83534170  0.83564964  1
  Fe  Fe36  1  0.50231274  0.16763656  0.50192284  1
  Ni  Ni37  1  0.33679106  1.00088253  0.66823404  1
  Ni  Ni38  1  0.50113175  0.16805537  0.83423936  1
  Cr  Cr39  1  0.50115096  0.50289891  0.50357593  1
  Fe  Fe40  1  0.33429165  0.33327249  0.66992753  1
  Fe  Fe41  1  0.50115119  0.50134563  0.83539986  1
  Fe  Fe42  1  0.50210284  0.83591715  0.50199314  1
  Ni  Ni43  1  0.33443373  0.66871245  0.67051229  1
  Ni  Ni44  1  0.50018738  0.83470154  0.83364815  1
  Ni  Ni45  1  0.83449872  0.16651771  0.50127127  1
  Ni  Ni46  1  0.66746452  0.00281475  0.66788122  1
  Ni  Ni47  1  0.83375496  0.16850780  0.83435482  1
  Cr  Cr48  1  0.83460802  0.50346698  0.50029260  1
  Ni  Ni49  1  0.66719447  0.33266708  0.67058065  1
  Ni  Ni50  1  0.83295305  0.50315129  0.83507797  1
  Ni  Ni51  1  0.83387844  0.83692016  0.50270847  1
  Fe  Fe52  1  0.66938543  0.67100019  0.67074680  1
  Fe  Fe53  1  0.83635399  0.83488447  0.83458003  1
" 