1383,Ni66Fe18Cr14_5,-235.952415940112, 190.951711066222,Ni66Fe18Cr14,"# generated using pymatgen
 data_Cr4Fe5Ni18
_symmetry_space_group_name_H-M   'P 1'
_cell_length_a   7.44170980
_cell_length_b   7.44170980
_cell_length_c   10.52416692
_cell_angle_alpha   90.00000000
_cell_angle_beta   90.00000000
_cell_angle_gamma   90.00000000
_symmetry_Int_Tables_number   1
_chemical_formula_structural   Cr4Fe5Ni18
_chemical_formula_sum   'Cr8 Fe10 Ni36'
_cell_volume   582.81831073
_cell_formula_units_Z   2
loop_
 _symmetry_equiv_pos_site_id
 _symmetry_equiv_pos_as_xyz
  1  'x, y, z'
loop_
 _atom_site_type_symbol
 _atom_site_label
 _atom_site_symmetry_multiplicity
 _atom_site_fract_x
 _atom_site_fract_y
 _atom_site_fract_z
 _atom_site_occupancy
  Ni  Ni0  1  1.00002985  0.00184670  1.00141282  1
  Fe  Fe1  1  0.16732152  0.16914764  0.16970354  1
  Ni  Ni2  1  0.00271596  0.00300229  0.33469562  1
  Ni  Ni3  1  0.00272128  0.33535183  0.00317350  1
  Ni  Ni4  1  0.16787070  0.50167892  0.16825538  1
  Ni  Ni5  1  1.00073015  0.33444469  0.33469486  1
  Ni  Ni6  1  1.00026587  0.66790894  0.00197289  1
  Ni  Ni7  1  0.16639062  0.83419648  0.17038649  1
  Ni  Ni8  1  0.00198976  0.66766017  0.33301656  1
  Cr  Cr9  1  0.33616747  0.00238920  0.00191493  1
  Ni  Ni10  1  0.50317419  0.16949155  0.16847545  1
  Ni  Ni11  1  0.33541582  1.00153825  0.33569364  1
  Fe  Fe12  1  0.33508729  0.33551659  0.00245034  1
  Ni  Ni13  1  0.50171524  0.50046455  0.16887359  1
  Ni  Ni14  1  0.33579030  0.33430154  0.33388452  1
  Cr  Cr15  1  0.33549751  0.66735333  0.00191341  1
  Ni  Ni16  1  0.50293272  0.83515333  0.17044348  1
  Ni  Ni17  1  0.33599792  0.66926991  0.33457595  1
  Ni  Ni18  1  0.66910126  1.00082184  0.00222132  1
  Ni  Ni19  1  0.83456616  0.16801569  0.16845626  1
  Ni  Ni20  1  0.66697435  0.00279861  0.33380563  1
  Fe  Fe21  1  0.66787687  0.33516239  0.00395007  1
  Ni  Ni22  1  0.83552135  0.50143686  0.16885533  1
  Ni  Ni23  1  0.66858438  0.33502809  0.33562349  1
  Ni  Ni24  1  0.66924488  0.66931565  1.00166221  1
  Ni  Ni25  1  0.83578232  0.83565368  0.16665386  1
  Ni  Ni26  1  0.66711613  0.66727900  0.33450658  1
  Ni  Ni27  1  0.16784571  0.16648349  0.50227140  1
  Ni  Ni28  1  0.00512833  0.00449067  0.66899886  1
  Fe  Fe29  1  0.16856252  0.16810282  0.83360844  1
  Cr  Cr30  1  0.17000357  0.50199479  0.50095821  1
  Ni  Ni31  1  0.00237559  0.33265752  0.66723873  1
  Fe  Fe32  1  0.16946755  0.50150313  0.83539320  1
  Ni  Ni33  1  0.16989340  0.83747768  0.50140116  1
  Cr  Cr34  1  0.00209919  0.66835831  0.66972562  1
  Ni  Ni35  1  0.16769125  0.83598885  0.83332623  1
  Ni  Ni36  1  0.50147897  0.17025831  0.50166412  1
  Ni  Ni37  1  0.33383227  1.00149563  0.66829934  1
  Fe  Fe38  1  0.50051129  0.16836021  0.83511114  1
  Ni  Ni39  1  0.50278522  0.50096476  0.50222216  1
  Fe  Fe40  1  0.33575730  0.33446242  0.66828067  1
  Ni  Ni41  1  0.50043006  0.50158652  0.83401363  1
  Fe  Fe42  1  0.49895446  0.83488186  0.50104438  1
  Ni  Ni43  1  0.33798403  0.66931453  0.66941172  1
  Ni  Ni44  1  0.50160211  0.83336678  0.83331146  1
  Ni  Ni45  1  0.83577748  0.17001380  0.50133302  1
  Cr  Cr46  1  0.66665747  1.00113854  0.66855562  1
  Cr  Cr47  1  0.83608409  0.16647033  0.83563329  1
  Fe  Fe48  1  0.83312877  0.49880720  0.50054589  1
  Fe  Fe49  1  0.66682441  0.33653341  0.66616490  1
  Cr  Cr50  1  0.83389110  0.50281472  0.83520111  1
  Cr  Cr51  1  0.83627210  0.83596926  0.50057115  1
  Ni  Ni52  1  0.66449775  0.66655274  0.66893257  1
  Ni  Ni53  1  0.83581274  0.83565462  0.83744088  1
" 