4782,Ni66Fe18Cr14_1,-235.979270301957, 192.464558073633,Ni66Fe18Cr14,"# generated using pymatgen
 data_Cr4Fe5Ni18
_symmetry_space_group_name_H-M   'P 1'
_cell_length_a   7.44245563
_cell_length_b   7.44245563
_cell_length_c   10.52522169
_cell_angle_alpha   90.00000000
_cell_angle_beta   90.00000000
_cell_angle_gamma   90.00000000
_symmetry_Int_Tables_number   1
_chemical_formula_structural   Cr4Fe5Ni18
_chemical_formula_sum   'Cr8 Fe10 Ni36'
_cell_volume   582.99356468
_cell_formula_units_Z   2
loop_
 _symmetry_equiv_pos_site_id
 _symmetry_equiv_pos_as_xyz
  1  'x, y, z'
loop_
 _atom_site_type_symbol
 _atom_site_label
 _atom_site_symmetry_multiplicity
 _atom_site_fract_x
 _atom_site_fract_y
 _atom_site_fract_z
 _atom_site_occupancy
  Ni  Ni0  1  1.00072034  0.00368727  1.00162553  1
  Ni  Ni1  1  0.16802218  0.17012957  0.16580079  1
  Ni  Ni2  1  0.99871072  1.00150288  0.33562964  1
  Ni  Ni3  1  0.00326062  0.33413964  1.00129338  1
  Ni  Ni4  1  0.16974297  0.49986326  0.16833650  1
  Cr  Cr5  1  1.00144513  0.33508855  0.33451652  1
  Fe  Fe6  1  1.00084437  0.66744395  1.00109482  1
  Cr  Cr7  1  0.16556992  0.83459301  0.16773601  1
  Ni  Ni8  1  1.00040942  0.66839913  0.33489985  1
  Ni  Ni9  1  0.33416639  0.00209395  1.00073603  1
  Fe  Fe10  1  0.50194927  0.16992154  0.16822662  1
  Cr  Cr11  1  0.33495868  0.00243906  0.33607363  1
  Ni  Ni12  1  0.33203500  0.33613273  0.00362298  1
  Ni  Ni13  1  0.50030574  0.50083048  0.16917476  1
  Fe  Fe14  1  0.33639944  0.33672956  0.33499944  1
  Ni  Ni15  1  0.33609979  0.66673020  1.00024024  1
  Cr  Cr16  1  0.50434775  0.83403634  0.16728643  1
  Ni  Ni17  1  0.33578974  0.66511309  0.33648470  1
  Ni  Ni18  1  0.67006749  0.99962090  0.00225707  1
  Ni  Ni19  1  0.83582173  0.16611449  0.16915280  1
  Ni  Ni20  1  0.67062768  0.00213098  0.33508191  1
  Cr  Cr21  1  0.66999673  0.33645824  0.00258214  1
  Ni  Ni22  1  0.83490806  0.50307303  0.16815861  1
  Fe  Fe23  1  0.66720611  0.33577393  0.33508925  1
  Ni  Ni24  1  0.66807243  0.66927081  1.00060857  1
  Ni  Ni25  1  0.83484731  0.83577144  0.16850344  1
  Ni  Ni26  1  0.66875594  0.66760237  0.33567419  1
  Ni  Ni27  1  0.16953835  0.16749756  0.50430840  1
  Ni  Ni28  1  0.00349725  0.00258895  0.66770216  1
  Fe  Fe29  1  0.16645916  0.16883515  0.83492710  1
  Fe  Fe30  1  0.16901709  0.50224358  0.50279044  1
  Ni  Ni31  1  0.00315405  0.33486555  0.66901688  1
  Ni  Ni32  1  0.16855805  0.50121598  0.83456963  1
  Fe  Fe33  1  0.16741713  0.83423181  0.50231357  1
  Ni  Ni34  1  1.00162980  0.66750128  0.66819075  1
  Fe  Fe35  1  0.16839160  0.83444771  0.83479400  1
  Ni  Ni36  1  0.49910357  0.16931530  0.50008175  1
  Ni  Ni37  1  0.33252091  1.00090433  0.66773459  1
  Cr  Cr38  1  0.49913379  0.16740156  0.83625080  1
  Ni  Ni39  1  0.50096682  0.50186415  0.50119831  1
  Ni  Ni40  1  0.33225953  0.33594195  0.66714255  1
  Ni  Ni41  1  0.49937646  0.50529697  0.83459042  1
  Fe  Fe42  1  0.50211595  0.83329188  0.50191397  1
  Ni  Ni43  1  0.33546517  0.66810690  0.66823074  1
  Ni  Ni44  1  0.50131510  0.83285180  0.83500752  1
  Fe  Fe45  1  0.83561324  0.16762673  0.50095756  1
  Cr  Cr46  1  0.66881634  0.99946630  0.66797010  1
  Ni  Ni47  1  0.83922700  0.16674255  0.83472475  1
  Ni  Ni48  1  0.83437494  0.50474920  0.50220288  1
  Cr  Cr49  1  0.66995714  0.33770914  0.66799393  1
  Ni  Ni50  1  0.83702357  0.50369093  0.83459454  1
  Ni  Ni51  1  0.83619290  0.83385033  0.50012319  1
  Ni  Ni52  1  0.66786196  0.66776323  0.66867031  1
  Ni  Ni53  1  0.83514779  0.83452441  0.83632893  1
" 