8814,Ni66Fe18Cr14_17,-236.084582703944, 191.5916836058,Ni66Fe18Cr14,"# generated using pymatgen
 data_Cr4Fe5Ni18
_symmetry_space_group_name_H-M   'P 1'
_cell_length_a   7.44207426
_cell_length_b   7.44207426
_cell_length_c   10.52468235
_cell_angle_alpha   90.00000000
_cell_angle_beta   90.00000000
_cell_angle_gamma   90.00000000
_symmetry_Int_Tables_number   1
_chemical_formula_structural   Cr4Fe5Ni18
_chemical_formula_sum   'Cr8 Fe10 Ni36'
_cell_volume   582.90394621
_cell_formula_units_Z   2
loop_
 _symmetry_equiv_pos_site_id
 _symmetry_equiv_pos_as_xyz
  1  'x, y, z'
loop_
 _atom_site_type_symbol
 _atom_site_label
 _atom_site_symmetry_multiplicity
 _atom_site_fract_x
 _atom_site_fract_y
 _atom_site_fract_z
 _atom_site_occupancy
  Ni  Ni0  1  1.00162418  1.00134540  1.00032197  1
  Ni  Ni1  1  0.16974625  0.16836383  0.17042919  1
  Ni  Ni2  1  0.00356016  1.00104670  0.33437897  1
  Ni  Ni3  1  1.00064262  0.33519007  0.99982762  1
  Cr  Cr4  1  0.16790324  0.50169350  0.16847736  1
  Ni  Ni5  1  1.00164310  0.33526985  0.33548493  1
  Ni  Ni6  1  1.00129244  0.66850131  1.00063626  1
  Fe  Fe7  1  0.16738130  0.83599680  0.16900844  1
  Ni  Ni8  1  0.99943941  0.66872147  0.33445879  1
  Cr  Cr9  1  0.33494272  1.00078705  0.00193263  1
  Ni  Ni10  1  0.50052437  0.16810608  0.16976577  1
  Ni  Ni11  1  0.33551539  0.00244696  0.33453656  1
  Fe  Fe12  1  0.33560272  0.33507008  1.00147871  1
  Fe  Fe13  1  0.50369394  0.50175823  0.16910009  1
  Ni  Ni14  1  0.33651803  0.33295391  0.33564757  1
  Ni  Ni15  1  0.33579137  0.66852582  1.00082389  1
  Ni  Ni16  1  0.50245800  0.83481681  0.16997350  1
  Ni  Ni17  1  0.33732586  0.66963447  0.33403848  1
  Ni  Ni18  1  0.66836736  1.00154196  1.00033945  1
  Cr  Cr19  1  0.83457889  0.16814212  0.16749407  1
  Ni  Ni20  1  0.66595983  1.00023979  0.33513400  1
  Ni  Ni21  1  0.66840078  0.33593986  1.00113865  1
  Ni  Ni22  1  0.83442127  0.50344846  0.16966936  1
  Ni  Ni23  1  0.66687633  0.33707561  0.33494188  1
  Ni  Ni24  1  0.66795353  0.66755172  1.00122081  1
  Ni  Ni25  1  0.83416009  0.83343421  0.16859788  1
  Ni  Ni26  1  0.66827556  0.66771689  0.33595448  1
  Fe  Fe27  1  0.16801397  0.16951832  0.50047145  1
  Ni  Ni28  1  1.00041992  0.00193998  0.67032658  1
  Ni  Ni29  1  0.16713005  0.16989228  0.83407443  1
  Cr  Cr30  1  0.16772160  0.49998633  0.50123906  1
  Ni  Ni31  1  1.00044447  0.33538648  0.66972189  1
  Fe  Fe32  1  0.16663878  0.50140070  0.83584666  1
  Cr  Cr33  1  0.16646954  0.83576967  0.49902454  1
  Ni  Ni34  1  0.99915369  0.66770759  0.66993772  1
  Ni  Ni35  1  0.16656650  0.83399563  0.83650388  1
  Fe  Fe36  1  0.50218334  0.16958841  0.50059134  1
  Cr  Cr37  1  0.33574425  0.00273509  0.66867504  1
  Ni  Ni38  1  0.50293038  0.16943324  0.83457856  1
  Ni  Ni39  1  0.50314934  0.50059728  0.50038326  1
  Fe  Fe40  1  0.33543386  0.33351524  0.66865331  1
  Fe  Fe41  1  0.50306013  0.50102414  0.83559823  1
  Fe  Fe42  1  0.50536173  0.83419998  0.49964672  1
  Cr  Cr43  1  0.33584254  0.66825153  0.67027034  1
  Ni  Ni44  1  0.50324837  0.83470575  0.83497834  1
  Cr  Cr45  1  0.83490827  0.16783778  0.50153116  1
  Ni  Ni46  1  0.66870455  0.00198893  0.66955775  1
  Ni  Ni47  1  0.83497046  0.16846400  0.83529436  1
  Ni  Ni48  1  0.83332731  0.50300182  0.50104436  1
  Ni  Ni49  1  0.66861251  0.33540267  0.66894876  1
  Ni  Ni50  1  0.83568385  0.50146108  0.83432241  1
  Ni  Ni51  1  0.83365551  0.83391505  0.50205324  1
  Fe  Fe52  1  0.67140509  0.66845659  0.66813496  1
  Ni  Ni53  1  0.83522509  0.83510932  0.83438418  1
" 