4335,Ni66Fe27Cr6_14,-238.437659380818, 207.191572641661,Ni66Fe27Cr6,"# generated using pymatgen
 data_Cr5(Fe2Ni5)7
_symmetry_space_group_name_H-M   'P 1'
_cell_length_a   7.42063496
_cell_length_b   7.42063496
_cell_length_c   10.49436260
_cell_angle_alpha   90.00000000
_cell_angle_beta   90.00000000
_cell_angle_gamma   90.00000000
_symmetry_Int_Tables_number   1
_chemical_formula_structural   Cr5(Fe2Ni5)7
_chemical_formula_sum   'Cr5 Fe14 Ni35'
_cell_volume   577.88071589
_cell_formula_units_Z   1
loop_
 _symmetry_equiv_pos_site_id
 _symmetry_equiv_pos_as_xyz
  1  'x, y, z'
loop_
 _atom_site_type_symbol
 _atom_site_label
 _atom_site_symmetry_multiplicity
 _atom_site_fract_x
 _atom_site_fract_y
 _atom_site_fract_z
 _atom_site_occupancy
  Ni  Ni0  1  0.00319206  1.00244604  0.00506734  1
  Ni  Ni1  1  0.17005994  0.16813207  0.16910337  1
  Ni  Ni2  1  1.00051584  0.00411446  0.33459913  1
  Cr  Cr3  1  0.00430743  0.33667479  0.00444335  1
  Ni  Ni4  1  0.16896071  0.50572506  0.17009428  1
  Ni  Ni5  1  1.00189454  0.33568270  0.33724084  1
  Ni  Ni6  1  1.00172305  0.67002203  0.00346488  1
  Ni  Ni7  1  0.17076060  0.83556709  0.16969552  1
  Ni  Ni8  1  1.00226060  0.66960068  0.33511570  1
  Ni  Ni9  1  0.33757302  0.00435894  0.00445299  1
  Ni  Ni10  1  0.50441171  0.16875955  0.16931678  1
  Fe  Fe11  1  0.33666472  0.00313812  0.33538336  1
  Fe  Fe12  1  0.33685059  0.33707648  1.00265843  1
  Fe  Fe13  1  0.50393200  0.50415007  0.16995789  1
  Cr  Cr14  1  0.33632089  0.33682905  0.33574091  1
  Ni  Ni15  1  0.33831328  0.66902250  0.00332926  1
  Ni  Ni16  1  0.50228108  0.83648667  0.17048092  1
  Ni  Ni17  1  0.33809670  0.66976645  0.33597486  1
  Fe  Fe18  1  0.66909305  1.00094821  0.00505558  1
  Ni  Ni19  1  0.83495139  0.17023794  0.17079343  1
  Ni  Ni20  1  0.67054777  1.00302132  0.33694752  1
  Fe  Fe21  1  0.66809731  0.33768284  0.00450002  1
  Ni  Ni22  1  0.83565212  0.50328479  0.17118671  1
  Ni  Ni23  1  0.67074345  0.33537014  0.33618749  1
  Ni  Ni24  1  0.66935258  0.66930846  0.00347911  1
  Ni  Ni25  1  0.83629794  0.83563132  0.16915531  1
  Fe  Fe26  1  0.67091949  0.67018216  0.33697732  1
  Ni  Ni27  1  0.16861428  0.16980695  0.50468772  1
  Ni  Ni28  1  1.00205595  0.00420562  0.66964714  1
  Ni  Ni29  1  0.17221263  0.16961391  0.83604962  1
  Fe  Fe30  1  0.16884408  0.50354046  0.50373991  1
  Fe  Fe31  1  0.00497274  0.33803941  0.66903643  1
  Ni  Ni32  1  0.16980979  0.50382909  0.83462118  1
  Cr  Cr33  1  0.17058031  0.83667673  0.50193548  1
  Ni  Ni34  1  1.00043153  0.66918886  0.67034804  1
  Cr  Cr35  1  0.17087871  0.83634200  0.83692524  1
  Fe  Fe36  1  0.50483217  0.16951927  0.50350460  1
  Ni  Ni37  1  0.33782171  0.00540363  0.66875215  1
  Ni  Ni38  1  0.50253933  0.16926562  0.83602053  1
  Ni  Ni39  1  0.50475109  0.50423919  0.50364125  1
  Ni  Ni40  1  0.33704065  0.33580738  0.67049624  1
  Fe  Fe41  1  0.50287405  0.50238973  0.83565597  1
  Ni  Ni42  1  0.50338186  0.83515016  0.50318555  1
  Ni  Ni43  1  0.33886651  0.66788530  0.66981103  1
  Fe  Fe44  1  0.50382594  0.83643714  0.83643263  1
  Ni  Ni45  1  0.83699161  0.17087441  0.50316277  1
  Fe  Fe46  1  0.66829094  1.00119787  0.66794073  1
  Cr  Cr47  1  0.83505056  0.17005712  0.83603109  1
  Ni  Ni48  1  0.83517242  0.50241392  0.50293719  1
  Fe  Fe49  1  0.66877161  0.33776788  0.66838952  1
  Ni  Ni50  1  0.83497285  0.50467118  0.83553489  1
  Ni  Ni51  1  0.83542061  0.83608854  0.50378893  1
  Ni  Ni52  1  0.67002428  0.66981773  0.66952056  1
  Fe  Fe53  1  0.83607046  0.83542354  0.83667386  1
" 