4457,Ni66Fe18Cr14_16,-235.927361141816, 193.086374158611,Ni66Fe18Cr14,"# generated using pymatgen
 data_Cr4Fe5Ni18
_symmetry_space_group_name_H-M   'P 1'
_cell_length_a   7.44081088
_cell_length_b   7.44081088
_cell_length_c   10.52289567
_cell_angle_alpha   90.00000000
_cell_angle_beta   90.00000000
_cell_angle_gamma   90.00000000
_symmetry_Int_Tables_number   1
_chemical_formula_structural   Cr4Fe5Ni18
_chemical_formula_sum   'Cr8 Fe10 Ni36'
_cell_volume   582.60713349
_cell_formula_units_Z   2
loop_
 _symmetry_equiv_pos_site_id
 _symmetry_equiv_pos_as_xyz
  1  'x, y, z'
loop_
 _atom_site_type_symbol
 _atom_site_label
 _atom_site_symmetry_multiplicity
 _atom_site_fract_x
 _atom_site_fract_y
 _atom_site_fract_z
 _atom_site_occupancy
  Ni  Ni0  1  0.00274904  0.00363510  1.00120079  1
  Ni  Ni1  1  0.16723998  0.16948005  0.16847647  1
  Fe  Fe2  1  1.00149281  0.00280304  0.33640962  1
  Fe  Fe3  1  1.00125531  0.33391660  0.00223945  1
  Fe  Fe4  1  0.16979723  0.49934774  0.16986914  1
  Ni  Ni5  1  0.00265916  0.33588868  0.33391311  1
  Cr  Cr6  1  1.00101455  0.66747851  0.99952346  1
  Cr  Cr7  1  0.17048872  0.83728373  0.16870469  1
  Ni  Ni8  1  0.00188208  0.66650504  0.33663995  1
  Ni  Ni9  1  0.33424295  0.00239731  1.00129946  1
  Cr  Cr10  1  0.49999002  0.16944513  0.16859458  1
  Fe  Fe11  1  0.33587736  1.00157994  0.33648086  1
  Ni  Ni12  1  0.33457095  0.33601521  0.00223945  1
  Ni  Ni13  1  0.50306378  0.50264204  0.16854185  1
  Ni  Ni14  1  0.33373167  0.33618493  0.33559589  1
  Fe  Fe15  1  0.33775148  0.66846465  1.00054282  1
  Ni  Ni16  1  0.50103314  0.83270424  0.16942738  1
  Ni  Ni17  1  0.33541336  0.66711062  0.33478435  1
  Cr  Cr18  1  0.66847533  1.00067990  0.99994062  1
  Fe  Fe19  1  0.83692662  0.17066064  0.16903539  1
  Ni  Ni20  1  0.66829177  1.00121179  0.33620439  1
  Fe  Fe21  1  0.66899427  0.33752494  1.00084814  1
  Ni  Ni22  1  0.83341428  0.49950624  0.16909285  1
  Ni  Ni23  1  0.66890034  0.33529425  0.33503427  1
  Ni  Ni24  1  0.66687428  0.66673971  1.00154898  1
  Cr  Cr25  1  0.83360364  0.83397245  0.17033177  1
  Ni  Ni26  1  0.66799558  0.66878196  0.33511137  1
  Fe  Fe27  1  0.16803326  0.16801518  0.50094749  1
  Ni  Ni28  1  1.00052415  0.00203446  0.66826958  1
  Cr  Cr29  1  0.16726601  0.16672813  0.83525787  1
  Ni  Ni30  1  0.16799163  0.50152049  0.49966847  1
  Ni  Ni31  1  0.99964641  0.33464794  0.66849546  1
  Ni  Ni32  1  0.16924196  0.50212621  0.83652576  1
  Ni  Ni33  1  0.16886570  0.83631995  0.50149318  1
  Cr  Cr34  1  0.00194036  0.66821500  0.66874537  1
  Ni  Ni35  1  0.17005706  0.83627506  0.83514560  1
  Ni  Ni36  1  0.50216003  0.16786358  0.50160570  1
  Ni  Ni37  1  0.33628858  0.99955041  0.66796286  1
  Fe  Fe38  1  0.50330074  0.16824555  0.83459348  1
  Ni  Ni39  1  0.50283643  0.50158613  0.50070311  1
  Cr  Cr40  1  0.33571983  0.33640273  0.66688720  1
  Ni  Ni41  1  0.50322413  0.50305306  0.83604302  1
  Ni  Ni42  1  0.50155153  0.83583858  0.50120496  1
  Ni  Ni43  1  0.33615013  0.66995191  0.66967529  1
  Ni  Ni44  1  0.50086672  0.83381006  0.83465655  1
  Fe  Fe45  1  0.83435313  0.16863387  0.50254708  1
  Ni  Ni46  1  0.66847612  1.00170367  0.66913531  1
  Ni  Ni47  1  0.83529262  0.16924219  0.83466679  1
  Ni  Ni48  1  0.83446058  0.50090700  0.50122845  1
  Ni  Ni49  1  0.66982134  0.33451039  0.66920442  1
  Ni  Ni50  1  0.83282611  0.49981801  0.83496503  1
  Ni  Ni51  1  0.83487255  0.83564537  0.50099038  1
  Ni  Ni52  1  0.66733865  0.66907416  0.66862965  1
  Ni  Ni53  1  0.83436809  0.83623003  0.83432434  1
" 