3144,Ni66Fe18Cr14_13,-236.028815098498, 192.171175910605,Ni66Fe18Cr14,"# generated using pymatgen
 data_Cr4Fe5Ni18
_symmetry_space_group_name_H-M   'P 1'
_cell_length_a   7.44158520
_cell_length_b   7.44158520
_cell_length_c   10.52399072
_cell_angle_alpha   90.00000000
_cell_angle_beta   90.00000000
_cell_angle_gamma   90.00000000
_symmetry_Int_Tables_number   1
_chemical_formula_structural   Cr4Fe5Ni18
_chemical_formula_sum   'Cr8 Fe10 Ni36'
_cell_volume   582.78903699
_cell_formula_units_Z   2
loop_
 _symmetry_equiv_pos_site_id
 _symmetry_equiv_pos_as_xyz
  1  'x, y, z'
loop_
 _atom_site_type_symbol
 _atom_site_label
 _atom_site_symmetry_multiplicity
 _atom_site_fract_x
 _atom_site_fract_y
 _atom_site_fract_z
 _atom_site_occupancy
  Ni  Ni0  1  0.99996210  0.00321694  0.00316304  1
  Ni  Ni1  1  0.16740426  0.16781975  0.16943142  1
  Fe  Fe2  1  0.00176552  1.00077460  0.33459044  1
  Ni  Ni3  1  1.00158202  0.33563005  1.00135668  1
  Fe  Fe4  1  0.16761340  0.50194842  0.16867263  1
  Ni  Ni5  1  0.00259719  0.33542818  0.33410036  1
  Ni  Ni6  1  0.00218269  0.66628533  0.00214597  1
  Ni  Ni7  1  0.16746012  0.83439692  0.16911756  1
  Ni  Ni8  1  0.00249757  0.66694059  0.33465642  1
  Cr  Cr9  1  0.33679344  0.00208989  0.00236755  1
  Ni  Ni10  1  0.50281274  0.16949911  0.16932073  1
  Ni  Ni11  1  0.33649213  1.00124258  0.33564382  1
  Fe  Fe12  1  0.33517490  0.33614163  1.00107885  1
  Ni  Ni13  1  0.50142309  0.50083836  0.16923206  1
  Fe  Fe14  1  0.33456262  0.33469453  0.33472657  1
  Fe  Fe15  1  0.33440799  0.66631638  0.00262599  1
  Ni  Ni16  1  0.50068602  0.83479574  0.17054190  1
  Ni  Ni17  1  0.33470135  0.66983709  0.33362378  1
  Ni  Ni18  1  0.66900552  0.00312809  1.00128679  1
  Ni  Ni19  1  0.83491586  0.16856420  0.16811573  1
  Ni  Ni20  1  0.66655575  1.00114352  0.33471047  1
  Ni  Ni21  1  0.66919042  0.33391993  0.00177970  1
  Ni  Ni22  1  0.83530569  0.50077922  0.16939528  1
  Fe  Fe23  1  0.66845143  0.33378424  0.33329118  1
  Cr  Cr24  1  0.66839496  0.66899010  1.00130388  1
  Ni  Ni25  1  0.83698593  0.83578733  0.16932860  1
  Ni  Ni26  1  0.66793242  0.67035168  0.33327036  1
  Fe  Fe27  1  0.16937977  0.16784299  0.50084744  1
  Ni  Ni28  1  1.00117754  1.00138929  0.66725777  1
  Fe  Fe29  1  0.16824175  0.17001878  0.83531241  1
  Ni  Ni30  1  0.16832634  0.50395420  0.50021943  1
  Cr  Cr31  1  0.00260077  0.33523804  0.66979853  1
  Ni  Ni32  1  0.16845290  0.50157398  0.83632564  1
  Ni  Ni33  1  0.16733079  0.83515502  0.50138141  1
  Ni  Ni34  1  0.00171774  0.66910549  0.66833091  1
  Cr  Cr35  1  0.16601555  0.83444461  0.83521861  1
  Ni  Ni36  1  0.50243626  0.16692163  0.50250205  1
  Ni  Ni37  1  0.33656405  0.00444654  0.66709004  1
  Ni  Ni38  1  0.50381928  0.16987784  0.83330889  1
  Cr  Cr39  1  0.50049260  0.49906632  0.50076951  1
  Ni  Ni40  1  0.33551471  0.33222706  0.66934648  1
  Ni  Ni41  1  0.50077430  0.49827403  0.83512447  1
  Fe  Fe42  1  0.50129214  0.83865525  0.49974806  1
  Cr  Cr43  1  0.33404351  0.66838694  0.66892058  1
  Ni  Ni44  1  0.50273916  0.83698125  0.83419132  1
  Ni  Ni45  1  0.83320601  0.16593122  0.50113562  1
  Ni  Ni46  1  0.66739001  0.00329394  0.66913000  1
  Ni  Ni47  1  0.83281002  0.16771219  0.83588010  1
  Cr  Cr48  1  0.83621548  0.50126582  0.50105263  1
  Ni  Ni49  1  0.66674998  0.33169148  0.67002085  1
  Ni  Ni50  1  0.83590620  0.50049479  0.83496869  1
  Fe  Fe51  1  0.83614690  0.83733991  0.50118850  1
  Cr  Cr52  1  0.67007657  0.66982346  0.67040626  1
  Ni  Ni53  1  0.83610673  0.83692770  0.83403025  1
" 