5870,Ni66Fe10Cr22_0,-230.538975752181, 169.157361328268,Ni66Fe10Cr22,"# generated using pymatgen
 data_Cr14(FeNi7)5
_symmetry_space_group_name_H-M   'P 1'
_cell_length_a   7.46160983
_cell_length_b   7.46160983
_cell_length_c   10.55230981
_cell_angle_alpha   90.00000000
_cell_angle_beta   90.00000000
_cell_angle_gamma   90.00000000
_symmetry_Int_Tables_number   1
_chemical_formula_structural   Cr14(FeNi7)5
_chemical_formula_sum   'Cr14 Fe5 Ni35'
_cell_volume   587.50640410
_cell_formula_units_Z   1
loop_
 _symmetry_equiv_pos_site_id
 _symmetry_equiv_pos_as_xyz
  1  'x, y, z'
loop_
 _atom_site_type_symbol
 _atom_site_label
 _atom_site_symmetry_multiplicity
 _atom_site_fract_x
 _atom_site_fract_y
 _atom_site_fract_z
 _atom_site_occupancy
  Ni  Ni0  1  0.00044765  0.00410244  0.99912964  1
  Ni  Ni1  1  0.16545274  0.16750436  0.16769958  1
  Fe  Fe2  1  0.00127075  0.00218373  0.33504626  1
  Ni  Ni3  1  0.99898225  0.33043444  0.00164460  1
  Ni  Ni4  1  0.16536202  0.49759203  0.16789198  1
  Ni  Ni5  1  1.00030967  0.33407062  0.33244930  1
  Cr  Cr6  1  1.00027049  0.66554694  0.99918308  1
  Cr  Cr7  1  0.16761067  0.83551719  0.16821761  1
  Ni  Ni8  1  0.99891399  0.66469228  0.33554497  1
  Ni  Ni9  1  0.33258395  0.99922967  1.00001798  1
  Cr  Cr10  1  0.49998498  0.16721965  0.16702427  1
  Ni  Ni11  1  0.33195011  0.00067955  0.33402309  1
  Cr  Cr12  1  0.33123680  0.33423242  0.00048137  1
  Ni  Ni13  1  0.50308324  0.50069383  0.16763982  1
  Ni  Ni14  1  0.33149166  0.33373296  0.33354289  1
  Cr  Cr15  1  0.33618484  0.66750489  0.99988519  1
  Ni  Ni16  1  0.50067078  0.83312910  0.16564917  1
  Cr  Cr17  1  0.33519347  0.66684009  0.33355059  1
  Fe  Fe18  1  0.66823385  1.00031584  0.99977791  1
  Ni  Ni19  1  0.83551770  0.16994877  0.16542602  1
  Cr  Cr20  1  0.66736021  0.99916538  0.33420900  1
  Ni  Ni21  1  0.66990422  0.33473369  0.00135917  1
  Ni  Ni22  1  0.83264673  0.49814282  0.16793140  1
  Ni  Ni23  1  0.66927814  0.33661489  0.33366169  1
  Ni  Ni24  1  0.66505329  0.66696478  0.00125803  1
  Cr  Cr25  1  0.83325274  0.83259043  0.16691290  1
  Ni  Ni26  1  0.66767942  0.66522054  0.33394046  1
  Fe  Fe27  1  0.16665567  0.16643087  0.49971267  1
  Ni  Ni28  1  1.00008504  0.99924187  0.66682467  1
  Ni  Ni29  1  0.16614529  0.16428027  0.83371521  1
  Ni  Ni30  1  0.16599321  0.50113421  0.50020436  1
  Cr  Cr31  1  0.00102323  0.33280288  0.66716068  1
  Ni  Ni32  1  0.16777941  0.50092651  0.83299804  1
  Ni  Ni33  1  0.16511361  0.83446497  0.50058257  1
  Ni  Ni34  1  0.00140901  0.66946199  0.66627751  1
  Ni  Ni35  1  0.16612895  0.83587201  0.83280099  1
  Cr  Cr36  1  0.49995579  0.16841565  0.50187120  1
  Ni  Ni37  1  0.33232889  1.00018288  0.66704444  1
  Cr  Cr38  1  0.50126058  0.16738938  0.83222363  1
  Ni  Ni39  1  0.50129366  0.49890725  0.49988294  1
  Ni  Ni40  1  0.33367760  0.33380325  0.66720971  1
  Ni  Ni41  1  0.50054866  0.49972851  0.83356720  1
  Ni  Ni42  1  0.49994817  0.83442496  0.50042473  1
  Cr  Cr43  1  0.33254537  0.66639174  0.66765365  1
  Fe  Fe44  1  0.50005129  0.83463127  0.83440402  1
  Ni  Ni45  1  0.83382676  0.16692389  0.50081780  1
  Ni  Ni46  1  0.66867787  0.00051592  0.66775813  1
  Ni  Ni47  1  0.83384496  0.16486143  0.83486003  1
  Ni  Ni48  1  0.83380998  0.50081972  0.49845349  1
  Ni  Ni49  1  0.66634204  0.33251037  0.66606516  1
  Cr  Cr50  1  0.83311497  0.49959313  0.83431990  1
  Ni  Ni51  1  0.83603949  0.83336526  0.50121370  1
  Cr  Cr52  1  0.66723847  0.66778757  0.66540362  1
  Fe  Fe53  1  0.83491239  0.83620561  0.83312871  1
" 