7133,Ni66Fe27Cr6_9,-238.772537410633, 205.470887453405,Ni66Fe27Cr6,"# generated using pymatgen
 data_Cr5(Fe2Ni5)7
_symmetry_space_group_name_H-M   'P 1'
_cell_length_a   7.42814113
_cell_length_b   7.42814113
_cell_length_c   10.50497793
_cell_angle_alpha   90.00000000
_cell_angle_beta   90.00000000
_cell_angle_gamma   90.00000000
_symmetry_Int_Tables_number   1
_chemical_formula_structural   Cr5(Fe2Ni5)7
_chemical_formula_sum   'Cr5 Fe14 Ni35'
_cell_volume   579.63611570
_cell_formula_units_Z   1
loop_
 _symmetry_equiv_pos_site_id
 _symmetry_equiv_pos_as_xyz
  1  'x, y, z'
loop_
 _atom_site_type_symbol
 _atom_site_label
 _atom_site_symmetry_multiplicity
 _atom_site_fract_x
 _atom_site_fract_y
 _atom_site_fract_z
 _atom_site_occupancy
  Ni  Ni0  1  0.00283607  0.00442841  1.00247666  1
  Ni  Ni1  1  0.17006005  0.17008591  0.16965855  1
  Fe  Fe2  1  0.00278907  0.00308566  0.33547758  1
  Ni  Ni3  1  0.00314222  0.33516498  1.00223412  1
  Fe  Fe4  1  0.16799990  0.50174383  0.16866382  1
  Ni  Ni5  1  1.00157489  0.33592470  0.33604898  1
  Fe  Fe6  1  0.00294250  0.66949589  0.00265850  1
  Fe  Fe7  1  0.16814817  0.83764141  0.16767603  1
  Ni  Ni8  1  1.00246779  0.66822310  0.33482166  1
  Ni  Ni9  1  0.33365268  0.00280116  0.00421454  1
  Ni  Ni10  1  0.50093931  0.16733540  0.16980104  1
  Ni  Ni11  1  0.33550521  0.00356640  0.33521534  1
  Ni  Ni12  1  0.33352009  0.33659431  0.00389137  1
  Fe  Fe13  1  0.50388218  0.50093046  0.16666294  1
  Fe  Fe14  1  0.33534872  0.33458152  0.33641660  1
  Ni  Ni15  1  0.33674994  0.66835856  0.00299356  1
  Ni  Ni16  1  0.50296246  0.83849844  0.16732472  1
  Cr  Cr17  1  0.33559015  0.67085348  0.33647925  1
  Ni  Ni18  1  0.67154184  1.00125958  0.00504582  1
  Fe  Fe19  1  0.83609357  0.16895262  0.16886627  1
  Fe  Fe20  1  0.66920251  0.00371077  0.33543107  1
  Fe  Fe21  1  0.66993268  0.33621106  0.00343666  1
  Ni  Ni22  1  0.83860999  0.50285761  0.16840866  1
  Ni  Ni23  1  0.67071952  0.33478006  0.33493558  1
  Ni  Ni24  1  0.66970222  0.66836673  0.00357388  1
  Ni  Ni25  1  0.83590955  0.83426182  0.16860553  1
  Cr  Cr26  1  0.67054304  0.66785515  0.33691343  1
  Ni  Ni27  1  0.16824688  0.17119457  0.50188979  1
  Ni  Ni28  1  1.00109169  0.00360626  0.66937703  1
  Ni  Ni29  1  0.16641121  0.17055418  0.83632634  1
  Ni  Ni30  1  0.16563922  0.50201285  0.50286739  1
  Ni  Ni31  1  1.00261584  0.33563546  0.66950265  1
  Ni  Ni32  1  0.16800053  0.50264083  0.83632490  1
  Fe  Fe33  1  0.16645948  0.83684060  0.50305252  1
  Ni  Ni34  1  1.00126666  0.66884980  0.66980669  1
  Ni  Ni35  1  0.16727197  0.83462503  0.83751079  1
  Ni  Ni36  1  0.50339793  0.16746486  0.50107281  1
  Cr  Cr37  1  0.33285754  0.00445750  0.66978408  1
  Cr  Cr38  1  0.50346630  0.17032711  0.83718069  1
  Fe  Fe39  1  0.50331360  0.49889164  0.50496649  1
  Ni  Ni40  1  0.33433409  0.33765254  0.66767439  1
  Ni  Ni41  1  0.50292195  0.50350785  0.83559808  1
  Ni  Ni42  1  0.50338321  0.83760434  0.50349818  1
  Fe  Fe43  1  0.33455934  0.66688128  0.66911110  1
  Cr  Cr44  1  0.50350686  0.83479725  0.83717360  1
  Ni  Ni45  1  0.83606120  0.17101697  0.50160884  1
  Ni  Ni46  1  0.67283033  1.00246582  0.66680678  1
  Ni  Ni47  1  0.83795454  0.17019525  0.83639297  1
  Ni  Ni48  1  0.83893166  0.50194329  0.50329137  1
  Ni  Ni49  1  0.67099325  0.33711902  0.66925315  1
  Ni  Ni50  1  0.83684654  0.50264900  0.83612412  1
  Fe  Fe51  1  0.83809742  0.83685837  0.50310088  1
  Ni  Ni52  1  0.67087281  0.66808658  0.66775704  1
  Fe  Fe53  1  0.83771989  0.83597101  0.83643345  1
" 