4909,Ni66Fe10Cr22_13,-230.709250992387, 170.892335358394,Ni66Fe10Cr22,"# generated using pymatgen
 data_Cr14(FeNi7)5
_symmetry_space_group_name_H-M   'P 1'
_cell_length_a   7.46530444
_cell_length_b   7.46530444
_cell_length_c   10.55753479
_cell_angle_alpha   90.00000000
_cell_angle_beta   90.00000000
_cell_angle_gamma   90.00000000
_symmetry_Int_Tables_number   1
_chemical_formula_structural   Cr14(FeNi7)5
_chemical_formula_sum   'Cr14 Fe5 Ni35'
_cell_volume   588.37954767
_cell_formula_units_Z   1
loop_
 _symmetry_equiv_pos_site_id
 _symmetry_equiv_pos_as_xyz
  1  'x, y, z'
loop_
 _atom_site_type_symbol
 _atom_site_label
 _atom_site_symmetry_multiplicity
 _atom_site_fract_x
 _atom_site_fract_y
 _atom_site_fract_z
 _atom_site_occupancy
  Ni  Ni0  1  0.00072805  0.00048156  0.00172668  1
  Ni  Ni1  1  0.16477122  0.16723806  0.16865026  1
  Ni  Ni2  1  0.00255983  0.00155699  0.33309225  1
  Ni  Ni3  1  0.99952363  0.33536076  0.00129794  1
  Ni  Ni4  1  0.16728129  0.49983966  0.16614245  1
  Ni  Ni5  1  0.99944716  0.33282231  0.33278212  1
  Ni  Ni6  1  0.00219370  0.66451062  0.99930706  1
  Ni  Ni7  1  0.16770823  0.83329284  0.16784079  1
  Ni  Ni8  1  0.99928667  0.66599040  0.33219592  1
  Cr  Cr9  1  0.33369891  0.99967437  0.00210884  1
  Fe  Fe10  1  0.49925014  0.16968737  0.16797929  1
  Ni  Ni11  1  0.33230269  0.00038169  0.33264850  1
  Fe  Fe12  1  0.33335253  0.33645702  0.00063695  1
  Ni  Ni13  1  0.49907495  0.49941721  0.16811173  1
  Ni  Ni14  1  0.33396906  0.33250879  0.33233932  1
  Ni  Ni15  1  0.33210662  0.66517403  0.00022471  1
  Ni  Ni16  1  0.49621201  0.83123690  0.16923251  1
  Ni  Ni17  1  0.33529879  0.66746853  0.33170866  1
  Cr  Cr18  1  0.66602517  0.00158853  0.99905508  1
  Ni  Ni19  1  0.83601036  0.17006852  0.16672043  1
  Cr  Cr20  1  0.66507868  0.00015716  0.33389708  1
  Ni  Ni21  1  0.66712560  0.33433398  0.00074767  1
  Ni  Ni22  1  0.83398594  0.49650646  0.16833999  1
  Ni  Ni23  1  0.66691948  0.33580916  0.33319186  1
  Cr  Cr24  1  0.66619428  0.66425385  0.99893966  1
  Cr  Cr25  1  0.83602220  0.83342307  0.16691762  1
  Ni  Ni26  1  0.66573946  0.66433966  0.33455431  1
  Fe  Fe27  1  0.16797045  0.16807930  0.49792899  1
  Cr  Cr28  1  0.99750640  0.00147080  0.66549848  1
  Cr  Cr29  1  0.16693333  0.17082599  0.83306029  1
  Cr  Cr30  1  0.16869352  0.49830537  0.50020273  1
  Ni  Ni31  1  0.99967726  0.33434814  0.66625836  1
  Ni  Ni32  1  0.16794082  0.49977067  0.83397237  1
  Cr  Cr33  1  0.16728715  0.83335242  0.49708789  1
  Cr  Cr34  1  0.99916401  0.66392133  0.66893526  1
  Cr  Cr35  1  0.16618989  0.82985320  0.83527588  1
  Ni  Ni36  1  0.50115960  0.16871889  0.50059771  1
  Cr  Cr37  1  0.33768870  0.00075100  0.66586908  1
  Ni  Ni38  1  0.50191552  0.16946169  0.83248180  1
  Ni  Ni39  1  0.50052665  0.49837048  0.49962488  1
  Ni  Ni40  1  0.33513334  0.33474352  0.66796483  1
  Ni  Ni41  1  0.49812637  0.49846873  0.83262891  1
  Ni  Ni42  1  0.50176373  0.83326358  0.49985242  1
  Ni  Ni43  1  0.33636341  0.66424650  0.66840155  1
  Ni  Ni44  1  0.50129671  0.83244416  0.83127624  1
  Fe  Fe45  1  0.83207627  0.16802224  0.49981936  1
  Ni  Ni46  1  0.66516438  0.00089805  0.66703599  1
  Cr  Cr47  1  0.83148904  0.16744851  0.83356660  1
  Fe  Fe48  1  0.83072472  0.49905793  0.49821847  1
  Ni  Ni49  1  0.66552794  0.33235738  0.66643214  1
  Ni  Ni50  1  0.83429229  0.49912890  0.83377199  1
  Ni  Ni51  1  0.83196202  0.83490252  0.49905045  1
  Cr  Cr52  1  0.66528893  0.66729009  0.66715179  1
  Ni  Ni53  1  0.83257542  0.83322366  0.83395043  1
" 