8034,Ni66Fe10Cr22_8,-230.392889529896, 168.450335189733,Ni66Fe10Cr22,"# generated using pymatgen
 data_Cr14(FeNi7)5
_symmetry_space_group_name_H-M   'P 1'
_cell_length_a   7.46528165
_cell_length_b   7.46528165
_cell_length_c   10.55750256
_cell_angle_alpha   90.00000000
_cell_angle_beta   90.00000000
_cell_angle_gamma   90.00000000
_symmetry_Int_Tables_number   1
_chemical_formula_structural   Cr14(FeNi7)5
_chemical_formula_sum   'Cr14 Fe5 Ni35'
_cell_volume   588.37415866
_cell_formula_units_Z   1
loop_
 _symmetry_equiv_pos_site_id
 _symmetry_equiv_pos_as_xyz
  1  'x, y, z'
loop_
 _atom_site_type_symbol
 _atom_site_label
 _atom_site_symmetry_multiplicity
 _atom_site_fract_x
 _atom_site_fract_y
 _atom_site_fract_z
 _atom_site_occupancy
  Ni  Ni0  1  0.00181295  0.00049017  0.00015892  1
  Fe  Fe1  1  0.16848625  0.16533591  0.16861093  1
  Ni  Ni2  1  0.00145457  0.00076567  0.33340872  1
  Cr  Cr3  1  0.00139069  0.33217672  0.99983060  1
  Cr  Cr4  1  0.16927167  0.50061390  0.16679204  1
  Ni  Ni5  1  0.00169110  0.33276671  0.33195006  1
  Cr  Cr6  1  0.00020329  0.66756349  0.99755288  1
  Fe  Fe7  1  0.16851109  0.83581611  0.16800648  1
  Ni  Ni8  1  0.99876923  0.66684714  0.33516182  1
  Cr  Cr9  1  0.33316233  0.99956180  0.00093331  1
  Ni  Ni10  1  0.50013705  0.16795717  0.16875291  1
  Ni  Ni11  1  0.33394933  0.00160903  0.33274579  1
  Ni  Ni12  1  0.33424708  0.33445431  0.99859616  1
  Ni  Ni13  1  0.49928285  0.50012249  0.16657912  1
  Ni  Ni14  1  0.33247420  0.33199896  0.33369049  1
  Ni  Ni15  1  0.33659369  0.66603219  0.99941933  1
  Ni  Ni16  1  0.50046040  0.83233107  0.16749596  1
  Cr  Cr17  1  0.33469203  0.66834528  0.33557714  1
  Cr  Cr18  1  0.66592327  0.99807984  0.99849000  1
  Ni  Ni19  1  0.83439660  0.16584171  0.16981208  1
  Ni  Ni20  1  0.66553177  0.99822124  0.33257125  1
  Cr  Cr21  1  0.66503439  0.33553879  0.00065863  1
  Fe  Fe22  1  0.82969031  0.49994658  0.16928967  1
  Fe  Fe23  1  0.66528752  0.33385490  0.33133077  1
  Ni  Ni24  1  0.66345048  0.66621584  0.99908456  1
  Cr  Cr25  1  0.83406069  0.83439183  0.16744351  1
  Ni  Ni26  1  0.66633715  0.66780675  0.33320576  1
  Ni  Ni27  1  0.16776043  0.16596282  0.49828154  1
  Ni  Ni28  1  0.00429987  0.99632009  0.66699084  1
  Ni  Ni29  1  0.16897927  0.16577157  0.83359033  1
  Ni  Ni30  1  0.16911421  0.50007949  0.50081860  1
  Cr  Cr31  1  0.00312137  0.33564243  0.66759208  1
  Ni  Ni32  1  0.17111519  0.50120776  0.83243249  1
  Ni  Ni33  1  0.16565023  0.83441507  0.50021594  1
  Ni  Ni34  1  0.00108231  0.66925972  0.66744201  1
  Ni  Ni35  1  0.16731959  0.83363170  0.83307575  1
  Cr  Cr36  1  0.49767130  0.16802876  0.50079916  1
  Ni  Ni37  1  0.33055637  0.99875502  0.66709121  1
  Fe  Fe38  1  0.49583044  0.16847167  0.83164341  1
  Ni  Ni39  1  0.49798611  0.50139463  0.50086962  1
  Ni  Ni40  1  0.33377988  0.33449984  0.66798900  1
  Ni  Ni41  1  0.49801810  0.50202493  0.83325486  1
  Ni  Ni42  1  0.50017254  0.83175010  0.49946595  1
  Ni  Ni43  1  0.33353294  0.66712367  0.66647990  1
  Ni  Ni44  1  0.49858975  0.82857785  0.83325304  1
  Cr  Cr45  1  0.83491446  0.16375999  0.49868354  1
  Cr  Cr46  1  0.66482037  0.99605748  0.66796756  1
  Cr  Cr47  1  0.83486162  0.16456621  0.83123256  1
  Cr  Cr48  1  0.83236760  0.50239446  0.49838560  1
  Ni  Ni49  1  0.66290532  0.33807310  0.66858099  1
  Ni  Ni50  1  0.83083956  0.50398058  0.83304845  1
  Ni  Ni51  1  0.83460926  0.83285915  0.49981377  1
  Ni  Ni52  1  0.66569975  0.66604109  0.66790786  1
  Ni  Ni53  1  0.83448723  0.83105222  0.83233211  1
" 