13,Ni66Fe18Cr14_19,-236.097944962711, 191.606674059556,Ni66Fe18Cr14,"# generated using pymatgen
 data_Cr4Fe5Ni18
_symmetry_space_group_name_H-M   'P 1'
_cell_length_a   7.44280991
_cell_length_b   7.44280991
_cell_length_c   10.52572272
_cell_angle_alpha   90.00000000
_cell_angle_beta   90.00000000
_cell_angle_gamma   90.00000000
_symmetry_Int_Tables_number   1
_chemical_formula_structural   Cr4Fe5Ni18
_chemical_formula_sum   'Cr8 Fe10 Ni36'
_cell_volume   583.07682405
_cell_formula_units_Z   2
loop_
 _symmetry_equiv_pos_site_id
 _symmetry_equiv_pos_as_xyz
  1  'x, y, z'
loop_
 _atom_site_type_symbol
 _atom_site_label
 _atom_site_symmetry_multiplicity
 _atom_site_fract_x
 _atom_site_fract_y
 _atom_site_fract_z
 _atom_site_occupancy
  Cr  Cr0  1  0.00172892  0.00429762  1.00059644  1
  Ni  Ni1  1  0.16895016  0.16777168  0.16897821  1
  Ni  Ni2  1  1.00072695  1.00076460  0.33437728  1
  Ni  Ni3  1  1.00073062  0.33465186  0.00188574  1
  Ni  Ni4  1  0.17006740  0.50110345  0.16930551  1
  Cr  Cr5  1  1.00092850  0.33607671  0.33356673  1
  Cr  Cr6  1  0.00273146  0.66548827  1.00086416  1
  Fe  Fe7  1  0.17073030  0.83430536  0.17018639  1
  Ni  Ni8  1  0.00205990  0.66849073  0.33519399  1
  Fe  Fe9  1  0.33613275  0.99970017  1.00103164  1
  Fe  Fe10  1  0.50268418  0.16865882  0.16972740  1
  Ni  Ni11  1  0.33565240  0.00245566  0.33117651  1
  Cr  Cr12  1  0.33345892  0.33604336  1.00150449  1
  Ni  Ni13  1  0.50194370  0.50294724  0.16892986  1
  Ni  Ni14  1  0.33720470  0.33600293  0.33525251  1
  Ni  Ni15  1  0.33704866  0.66899104  0.00187386  1
  Fe  Fe16  1  0.50050803  0.83424529  0.16800767  1
  Ni  Ni17  1  0.33469132  0.66642572  0.33272613  1
  Ni  Ni18  1  0.66640328  0.00194827  1.00063688  1
  Ni  Ni19  1  0.83440185  0.16948077  0.16761482  1
  Ni  Ni20  1  0.66850904  0.00327765  0.33553801  1
  Fe  Fe21  1  0.67050092  0.33594047  0.00227353  1
  Ni  Ni22  1  0.83287456  0.49980585  0.16810641  1
  Ni  Ni23  1  0.66644024  0.33467046  0.33419771  1
  Ni  Ni24  1  0.66534866  0.66823484  1.00063655  1
  Cr  Cr25  1  0.83276938  0.83479596  0.17092449  1
  Ni  Ni26  1  0.66813318  0.66693897  0.33503011  1
  Cr  Cr27  1  0.16859334  0.16898505  0.50245129  1
  Ni  Ni28  1  1.00030698  0.00191490  0.66970949  1
  Ni  Ni29  1  0.16844791  0.16816556  0.83360295  1
  Ni  Ni30  1  0.16968365  0.50154468  0.50230487  1
  Ni  Ni31  1  1.00103151  0.33569167  0.66979964  1
  Ni  Ni32  1  0.16795252  0.50072199  0.83327803  1
  Cr  Cr33  1  0.16669787  0.83419074  0.50129746  1
  Ni  Ni34  1  1.00157871  0.66727822  0.66890832  1
  Ni  Ni35  1  0.17089968  0.83599664  0.83380125  1
  Fe  Fe36  1  0.50402609  0.17019559  0.50136206  1
  Ni  Ni37  1  0.33544254  0.00206789  0.67184447  1
  Fe  Fe38  1  0.50220388  0.16645096  0.83379452  1
  Ni  Ni39  1  0.50202935  0.50044411  0.50170940  1
  Fe  Fe40  1  0.33509254  0.33601591  0.66859601  1
  Fe  Fe41  1  0.50201125  0.50409963  0.83416826  1
  Cr  Cr42  1  0.50376019  0.83426790  0.50111561  1
  Ni  Ni43  1  0.33442083  0.66687432  0.67028622  1
  Ni  Ni44  1  0.50189308  0.83528297  0.83610136  1
  Ni  Ni45  1  0.83288270  0.16722833  0.50237239  1
  Ni  Ni46  1  0.66913742  0.00261499  0.66870968  1
  Fe  Fe47  1  0.83532256  0.16848495  0.83394463  1
  Ni  Ni48  1  0.83317298  0.50220599  0.50163955  1
  Ni  Ni49  1  0.66873489  0.33467308  0.66836793  1
  Ni  Ni50  1  0.83428570  0.50117849  0.83513913  1
  Ni  Ni51  1  0.83397998  0.83545124  0.50176924  1
  Ni  Ni52  1  0.66888383  0.66759926  0.66921961  1
  Ni  Ni53  1  0.83209419  0.83478735  0.83248977  1
" 