1951,Ni66Fe10Cr22_10,-230.390423756717, 162.962162363017,Ni66Fe10Cr22,"# generated using pymatgen
 data_Cr14(FeNi7)5
_symmetry_space_group_name_H-M   'P 1'
_cell_length_a   7.46914163
_cell_length_b   7.46914163
_cell_length_c   10.56296139
_cell_angle_alpha   90.00000000
_cell_angle_beta   90.00000000
_cell_angle_gamma   90.00000000
_symmetry_Int_Tables_number   1
_chemical_formula_structural   Cr14(FeNi7)5
_chemical_formula_sum   'Cr14 Fe5 Ni35'
_cell_volume   589.28730042
_cell_formula_units_Z   1
loop_
 _symmetry_equiv_pos_site_id
 _symmetry_equiv_pos_as_xyz
  1  'x, y, z'
loop_
 _atom_site_type_symbol
 _atom_site_label
 _atom_site_symmetry_multiplicity
 _atom_site_fract_x
 _atom_site_fract_y
 _atom_site_fract_z
 _atom_site_occupancy
  Ni  Ni0  1  0.99851020  0.00010685  0.99918877  1
  Ni  Ni1  1  0.16298574  0.16570612  0.16735958  1
  Ni  Ni2  1  0.99539547  0.99899621  0.33325198  1
  Ni  Ni3  1  0.99923225  0.33080335  0.99871325  1
  Ni  Ni4  1  0.16708678  0.50055136  0.16915286  1
  Ni  Ni5  1  0.99844337  0.33243063  0.33068380  1
  Cr  Cr6  1  0.00137447  0.66732731  0.99926052  1
  Ni  Ni7  1  0.16643819  0.83346022  0.16628017  1
  Ni  Ni8  1  0.00022376  0.66891435  0.33098705  1
  Ni  Ni9  1  0.33294609  0.99717941  0.99869825  1
  Cr  Cr10  1  0.50379477  0.16624940  0.16402365  1
  Cr  Cr11  1  0.33581440  0.99804696  0.32952040  1
  Cr  Cr12  1  0.33203221  0.33542154  0.99965435  1
  Ni  Ni13  1  0.49990936  0.50255992  0.16841270  1
  Ni  Ni14  1  0.33422246  0.33699588  0.33160535  1
  Ni  Ni15  1  0.33479394  0.66786313  0.00005650  1
  Ni  Ni16  1  0.50072294  0.83065628  0.16430101  1
  Ni  Ni17  1  0.33435101  0.66597986  0.33151979  1
  Ni  Ni18  1  0.66803470  0.99824251  0.99984477  1
  Ni  Ni19  1  0.83468636  0.16517946  0.16660362  1
  Ni  Ni20  1  0.66977810  0.99860559  0.33284600  1
  Ni  Ni21  1  0.66737355  0.33268135  0.99662228  1
  Cr  Cr22  1  0.83119998  0.49802723  0.16437428  1
  Ni  Ni23  1  0.66656828  0.33176720  0.33358271  1
  Ni  Ni24  1  0.66455313  0.66848479  0.99838518  1
  Ni  Ni25  1  0.83220786  0.83528932  0.16803832  1
  Fe  Fe26  1  0.66540443  0.66828404  0.33121146  1
  Cr  Cr27  1  0.16408944  0.16500798  0.49915534  1
  Fe  Fe28  1  -0.00010316  0.00106240  0.66912260  1
  Ni  Ni29  1  0.16635060  0.16286162  0.83371659  1
  Cr  Cr30  1  0.16621155  0.50126796  0.49678392  1
  Cr  Cr31  1  0.99702440  0.33299088  0.67107669  1
  Ni  Ni32  1  0.16746244  0.50143032  0.83446296  1
  Cr  Cr33  1  0.16823187  0.83365041  0.50181593  1
  Cr  Cr34  1  0.99820206  0.66831237  0.67092871  1
  Ni  Ni35  1  0.16861446  0.83496907  0.83290699  1
  Cr  Cr36  1  0.50057926  0.16561360  0.49888332  1
  Ni  Ni37  1  0.33591314  0.99646481  0.66973000  1
  Ni  Ni38  1  0.50105478  0.16495634  0.83427706  1
  Fe  Fe39  1  0.50031117  0.50137892  0.49922320  1
  Cr  Cr40  1  0.33569847  0.33383920  0.66860663  1
  Ni  Ni41  1  0.50220826  0.50187533  0.83214991  1
  Ni  Ni42  1  0.50171526  0.82942624  0.49970880  1
  Ni  Ni43  1  0.33494127  0.66848249  0.66856479  1
  Ni  Ni44  1  0.49886910  0.83258593  0.83471012  1
  Ni  Ni45  1  0.83191856  0.16722268  0.49800861  1
  Cr  Cr46  1  0.66769617  -0.00000083  0.66661855  1
  Ni  Ni47  1  0.83227064  0.16654772  0.83554602  1
  Cr  Cr48  1  0.83039742  0.50025942  0.49844569  1
  Ni  Ni49  1  0.66712596  0.33286931  0.66829926  1
  Ni  Ni50  1  0.82972704  0.49930835  0.83509751  1
  Fe  Fe51  1  0.83265780  0.83446278  0.49819968  1
  Fe  Fe52  1  0.66348471  0.66584697  0.66887487  1
  Ni  Ni53  1  0.83169391  0.83392785  0.83333803  1
" 