2628,Ni66Fe27Cr6_18,-238.515221771521, 204.955139857728,Ni66Fe27Cr6,"# generated using pymatgen
 data_Cr5(Fe2Ni5)7
_symmetry_space_group_name_H-M   'P 1'
_cell_length_a   7.42454900
_cell_length_b   7.42454900
_cell_length_c   10.49989790
_cell_angle_alpha   90.00000000
_cell_angle_beta   90.00000000
_cell_angle_gamma   90.00000000
_symmetry_Int_Tables_number   1
_chemical_formula_structural   Cr5(Fe2Ni5)7
_chemical_formula_sum   'Cr5 Fe14 Ni35'
_cell_volume   578.79561473
_cell_formula_units_Z   1
loop_
 _symmetry_equiv_pos_site_id
 _symmetry_equiv_pos_as_xyz
  1  'x, y, z'
loop_
 _atom_site_type_symbol
 _atom_site_label
 _atom_site_symmetry_multiplicity
 _atom_site_fract_x
 _atom_site_fract_y
 _atom_site_fract_z
 _atom_site_occupancy
  Cr  Cr0  1  1.00152621  0.00462405  1.00232183  1
  Fe  Fe1  1  0.17096091  0.17273958  0.17046910  1
  Fe  Fe2  1  1.00122760  0.00371506  0.33751365  1
  Ni  Ni3  1  0.00375357  0.33611484  0.00341408  1
  Ni  Ni4  1  0.16870599  0.49918862  0.17126088  1
  Ni  Ni5  1  0.00368485  0.33717052  0.33497087  1
  Cr  Cr6  1  1.00026767  0.66716848  1.00145427  1
  Cr  Cr7  1  0.17011591  0.83636436  0.17179427  1
  Ni  Ni8  1  1.00149065  0.66838799  0.33698435  1
  Fe  Fe9  1  0.33967792  0.00551198  1.00226823  1
  Ni  Ni10  1  0.50246430  0.16947423  0.16996149  1
  Ni  Ni11  1  0.33755563  0.00378813  0.33619782  1
  Ni  Ni12  1  0.33575155  0.33494076  0.00294343  1
  Ni  Ni13  1  0.50355811  0.50084476  0.16953542  1
  Ni  Ni14  1  0.33537140  0.33565322  0.33590499  1
  Cr  Cr15  1  0.33896672  0.66837112  1.00250236  1
  Ni  Ni16  1  0.50520163  0.83826857  0.16972495  1
  Fe  Fe17  1  0.33783386  0.66828422  0.33700382  1
  Ni  Ni18  1  0.66797336  1.00207214  0.00291713  1
  Fe  Fe19  1  0.83445354  0.17089169  0.17060269  1
  Ni  Ni20  1  0.66877129  1.00159419  0.33602675  1
  Ni  Ni21  1  0.66908091  0.33601955  1.00270607  1
  Ni  Ni22  1  0.83632426  0.50192192  0.17022358  1
  Ni  Ni23  1  0.66952972  0.33642015  0.33648188  1
  Ni  Ni24  1  0.66914829  0.67049657  0.00344303  1
  Ni  Ni25  1  0.83331206  0.83582126  0.17106502  1
  Ni  Ni26  1  0.67028769  0.67057159  0.33497346  1
  Fe  Fe27  1  0.16827451  0.17064819  0.50214874  1
  Ni  Ni28  1  1.00070946  0.00316098  0.66912180  1
  Fe  Fe29  1  0.16925546  0.17112549  0.83596863  1
  Fe  Fe30  1  0.16915527  0.50276373  0.50291709  1
  Ni  Ni31  1  0.00363214  0.33595284  0.67020258  1
  Ni  Ni32  1  0.16852632  0.50123974  0.83451789  1
  Fe  Fe33  1  0.16839228  0.83517326  0.50244028  1
  Fe  Fe34  1  1.00277560  0.66978014  0.66985572  1
  Ni  Ni35  1  0.16953964  0.83598044  0.83404086  1
  Fe  Fe36  1  0.50484604  0.17021897  0.50166804  1
  Cr  Cr37  1  0.33676351  1.00246672  0.67062065  1
  Ni  Ni38  1  0.50297916  0.16942920  0.83665005  1
  Ni  Ni39  1  0.50233752  0.50257670  0.50344123  1
  Ni  Ni40  1  0.33497401  0.33851037  0.66973756  1
  Fe  Fe41  1  0.50337223  0.50313676  0.83537715  1
  Ni  Ni42  1  0.50322577  0.83579430  0.50175647  1
  Ni  Ni43  1  0.33685091  0.66768656  0.66915424  1
  Ni  Ni44  1  0.50388218  0.83802999  0.83710485  1
  Ni  Ni45  1  0.83669982  0.16944938  0.50324163  1
  Ni  Ni46  1  0.67176640  1.00128389  0.66964279  1
  Fe  Fe47  1  0.83568241  0.16964735  0.83498585  1
  Ni  Ni48  1  0.83648974  0.50209422  0.50270770  1
  Fe  Fe49  1  0.66957545  0.33618327  0.66923802  1
  Ni  Ni50  1  0.83710762  0.50213779  0.83565385  1
  Ni  Ni51  1  0.83636532  0.83704356  0.50308524  1
  Ni  Ni52  1  0.66920990  0.67060996  0.67016988  1
  Ni  Ni53  1  0.83516548  0.83600640  0.83443555  1
" 