3135,Ni66Fe27Cr6_3,-238.608063680454, 206.998443800728,Ni66Fe27Cr6,"# generated using pymatgen
 data_Cr5(Fe2Ni5)7
_symmetry_space_group_name_H-M   'P 1'
_cell_length_a   7.42614733
_cell_length_b   7.42614733
_cell_length_c   10.50215827
_cell_angle_alpha   90.00000000
_cell_angle_beta   90.00000000
_cell_angle_gamma   90.00000000
_symmetry_Int_Tables_number   1
_chemical_formula_structural   Cr5(Fe2Ni5)7
_chemical_formula_sum   'Cr5 Fe14 Ni35'
_cell_volume   579.16949739
_cell_formula_units_Z   1
loop_
 _symmetry_equiv_pos_site_id
 _symmetry_equiv_pos_as_xyz
  1  'x, y, z'
loop_
 _atom_site_type_symbol
 _atom_site_label
 _atom_site_symmetry_multiplicity
 _atom_site_fract_x
 _atom_site_fract_y
 _atom_site_fract_z
 _atom_site_occupancy
  Ni  Ni0  1  0.00295145  0.00364231  1.00111882  1
  Ni  Ni1  1  0.16922268  0.16928424  0.16823558  1
  Ni  Ni2  1  1.00255475  0.00320669  0.33698677  1
  Fe  Fe3  1  0.00389197  0.33528057  0.00277447  1
  Ni  Ni4  1  0.16901132  0.50191111  0.16950175  1
  Ni  Ni5  1  0.99999011  0.33646164  0.33486823  1
  Fe  Fe6  1  0.00290692  0.66887345  1.00198837  1
  Fe  Fe7  1  0.16972614  0.83672136  0.17000390  1
  Ni  Ni8  1  0.00384696  0.66859028  0.33620777  1
  Ni  Ni9  1  0.33374071  0.00411461  0.00476042  1
  Fe  Fe10  1  0.50342274  0.16973184  0.16898090  1
  Ni  Ni11  1  0.33628884  1.00004112  0.33506587  1
  Ni  Ni12  1  0.33556306  0.33582716  0.00286806  1
  Ni  Ni13  1  0.50326728  0.50319948  0.16889225  1
  Cr  Cr14  1  0.33623057  0.33666974  0.33638112  1
  Cr  Cr15  1  0.33510490  0.66829495  0.00319980  1
  Fe  Fe16  1  0.50154833  0.83673666  0.17072539  1
  Ni  Ni17  1  0.33556017  0.67119054  0.33563013  1
  Fe  Fe18  1  0.67016820  0.00382877  0.00320773  1
  Ni  Ni19  1  0.83654598  0.17036196  0.16962386  1
  Ni  Ni20  1  0.66941741  0.00390235  0.33637344  1
  Fe  Fe21  1  0.67002782  0.33633246  0.00385219  1
  Ni  Ni22  1  0.83598634  0.50160270  0.17033286  1
  Ni  Ni23  1  0.67201684  0.33573670  0.33578562  1
  Fe  Fe24  1  0.67072396  0.66810142  1.00228036  1
  Cr  Cr25  1  0.83572160  0.83644595  0.16936284  1
  Fe  Fe26  1  0.66875967  0.66889651  0.33720387  1
  Ni  Ni27  1  0.16896581  0.16970616  0.50378343  1
  Fe  Fe28  1  1.00240375  0.00344949  0.66991858  1
  Ni  Ni29  1  0.16843336  0.17002677  0.83624216  1
  Ni  Ni30  1  0.16979278  0.50280742  0.50307706  1
  Ni  Ni31  1  1.00247096  0.33590716  0.67010810  1
  Ni  Ni32  1  0.16850579  0.50178782  0.83568055  1
  Fe  Fe33  1  0.17045949  0.83647768  0.50254882  1
  Fe  Fe34  1  1.00271531  0.66892203  0.66969607  1
  Ni  Ni35  1  0.16717201  0.83644580  0.83541655  1
  Ni  Ni36  1  0.50334830  0.16812632  0.50301988  1
  Ni  Ni37  1  0.33485721  1.00219009  0.66843045  1
  Cr  Cr38  1  0.50165791  0.17032671  0.83539501  1
  Ni  Ni39  1  0.50226282  0.50412776  0.50438649  1
  Ni  Ni40  1  0.33509328  0.33747636  0.66960670  1
  Fe  Fe41  1  0.50332267  0.50189553  0.83488186  1
  Ni  Ni42  1  0.50376932  0.83600667  0.50198209  1
  Ni  Ni43  1  0.33589677  0.66859534  0.66915872  1
  Cr  Cr44  1  0.50384875  0.83605582  0.83492540  1
  Ni  Ni45  1  0.83594800  0.16819600  0.50227867  1
  Ni  Ni46  1  0.67122160  1.00243246  0.66865869  1
  Ni  Ni47  1  0.83773253  0.16898553  0.83635696  1
  Fe  Fe48  1  0.83564584  0.50183944  0.50270715  1
  Ni  Ni49  1  0.67069781  0.33694537  0.66919459  1
  Ni  Ni50  1  0.83685866  0.50363630  0.83637905  1
  Ni  Ni51  1  0.83462586  0.83683267  0.50318675  1
  Ni  Ni52  1  0.66965373  0.66888143  0.66920185  1
  Ni  Ni53  1  0.83714828  0.83563861  0.83627128  1
" 