3455,Ni66Fe18Cr14_11,-236.411828508604, 193.213727201711,Ni66Fe18Cr14,"# generated using pymatgen
 data_Cr4Fe5Ni18
_symmetry_space_group_name_H-M   'P 1'
_cell_length_a   7.44633487
_cell_length_b   7.44633487
_cell_length_c   10.53070777
_cell_angle_alpha   90.00000000
_cell_angle_beta   90.00000000
_cell_angle_gamma   90.00000000
_symmetry_Int_Tables_number   1
_chemical_formula_structural   Cr4Fe5Ni18
_chemical_formula_sum   'Cr8 Fe10 Ni36'
_cell_volume   583.90566362
_cell_formula_units_Z   2
loop_
 _symmetry_equiv_pos_site_id
 _symmetry_equiv_pos_as_xyz
  1  'x, y, z'
loop_
 _atom_site_type_symbol
 _atom_site_label
 _atom_site_symmetry_multiplicity
 _atom_site_fract_x
 _atom_site_fract_y
 _atom_site_fract_z
 _atom_site_occupancy
  Ni  Ni0  1  0.00155380  0.00155716  1.00105852  1
  Fe  Fe1  1  0.16661023  0.16879807  0.16758926  1
  Fe  Fe2  1  0.99978415  1.00123062  0.33422988  1
  Ni  Ni3  1  0.00149542  0.33480840  1.00127810  1
  Ni  Ni4  1  0.16648969  0.50162638  0.16812462  1
  Ni  Ni5  1  1.00092797  0.33679461  0.33391272  1
  Ni  Ni6  1  1.00116901  0.66780838  1.00057446  1
  Fe  Fe7  1  0.16789587  0.83443257  0.16709629  1
  Ni  Ni8  1  1.00067904  0.66719048  0.33571875  1
  Ni  Ni9  1  0.33240155  1.00063274  0.00179561  1
  Cr  Cr10  1  0.50186760  0.16612605  0.16778234  1
  Ni  Ni11  1  0.33473390  1.00124565  0.33419997  1
  Ni  Ni12  1  0.33282826  0.33610053  1.00085289  1
  Fe  Fe13  1  0.50211745  0.50249863  0.16819577  1
  Ni  Ni14  1  0.33436325  0.33541635  0.33546641  1
  Ni  Ni15  1  0.33408021  0.66743885  0.00217913  1
  Ni  Ni16  1  0.50121753  0.83467338  0.16798832  1
  Fe  Fe17  1  0.33451004  0.66650202  0.33412345  1
  Ni  Ni18  1  0.67021801  1.00030645  0.00196697  1
  Ni  Ni19  1  0.83561917  0.16871730  0.16843777  1
  Ni  Ni20  1  0.66856066  1.00099677  0.33539342  1
  Ni  Ni21  1  0.66984735  0.33648476  1.00100643  1
  Ni  Ni22  1  0.83646318  0.50107532  0.16824121  1
  Ni  Ni23  1  0.66888081  0.33561202  0.33664133  1
  Ni  Ni24  1  0.66892461  0.66738023  0.00217862  1
  Fe  Fe25  1  0.83416001  0.83416150  0.16841356  1
  Ni  Ni26  1  0.66993867  0.66756341  0.33399218  1
  Cr  Cr27  1  0.16960236  0.16840072  0.50093634  1
  Ni  Ni28  1  1.00102218  1.00033377  0.66855276  1
  Ni  Ni29  1  0.16710104  0.16739028  0.83651394  1
  Ni  Ni30  1  0.16870480  0.50247338  0.50026005  1
  Cr  Cr31  1  1.00085306  0.33438693  0.66909177  1
  Ni  Ni32  1  0.16800564  0.50179183  0.83578680  1
  Fe  Fe33  1  0.16753545  0.83336128  0.50161954  1
  Cr  Cr34  1  0.00293918  0.66945967  0.66828212  1
  Ni  Ni35  1  0.16815621  0.83499053  0.83453318  1
  Ni  Ni36  1  0.50258888  0.16865068  0.50201370  1
  Ni  Ni37  1  0.33331685  0.00164735  0.66817669  1
  Cr  Cr38  1  0.50149144  0.16776296  0.83392278  1
  Ni  Ni39  1  0.50079811  0.49908359  0.50096732  1
  Ni  Ni40  1  0.33666238  0.33577468  0.66785351  1
  Fe  Fe41  1  0.50003670  0.50003698  0.83502914  1
  Cr  Cr42  1  0.50124047  0.83662121  0.50123298  1
  Ni  Ni43  1  0.33300972  0.66674762  0.66736196  1
  Cr  Cr44  1  0.50026449  0.83526406  0.83525028  1
  Fe  Fe45  1  0.83156505  0.16809111  0.50083213  1
  Ni  Ni46  1  0.66983369  0.00398924  0.66681053  1
  Ni  Ni47  1  0.83546503  0.16818953  0.83470802  1
  Ni  Ni48  1  0.83466848  0.50147983  0.49863834  1
  Ni  Ni49  1  0.66648518  0.33343254  0.66652224  1
  Ni  Ni50  1  0.83542826  0.50012389  0.83729608  1
  Ni  Ni51  1  0.83525217  0.83542511  0.50020062  1
  Cr  Cr52  1  0.66838195  0.66629793  0.66840678  1
  Fe  Fe53  1  0.83735702  0.83671790  0.83586566  1
" 