3017,Ni66Fe10Cr22_3,-230.436866695541, 170.8026105848,Ni66Fe10Cr22,"# generated using pymatgen
 data_Cr14(FeNi7)5
_symmetry_space_group_name_H-M   'P 1'
_cell_length_a   7.46613993
_cell_length_b   7.46613993
_cell_length_c   10.55871635
_cell_angle_alpha   90.00000000
_cell_angle_beta   90.00000000
_cell_angle_gamma   90.00000000
_symmetry_Int_Tables_number   1
_chemical_formula_structural   Cr14(FeNi7)5
_chemical_formula_sum   'Cr14 Fe5 Ni35'
_cell_volume   588.57711668
_cell_formula_units_Z   1
loop_
 _symmetry_equiv_pos_site_id
 _symmetry_equiv_pos_as_xyz
  1  'x, y, z'
loop_
 _atom_site_type_symbol
 _atom_site_label
 _atom_site_symmetry_multiplicity
 _atom_site_fract_x
 _atom_site_fract_y
 _atom_site_fract_z
 _atom_site_occupancy
  Cr  Cr0  1  0.99982136  0.00146724  0.00066080  1
  Ni  Ni1  1  0.16829363  0.16780913  0.16706590  1
  Ni  Ni2  1  0.99933750  0.00138262  0.33260510  1
  Ni  Ni3  1  0.00015487  0.33475042  0.00073307  1
  Ni  Ni4  1  0.16727934  0.49670655  0.16626353  1
  Fe  Fe5  1  0.00075659  0.33233093  0.33227783  1
  Cr  Cr6  1  0.00258446  0.66496811  0.00128948  1
  Ni  Ni7  1  0.17009699  0.83553139  0.16770288  1
  Cr  Cr8  1  0.00356399  0.66622231  0.33304511  1
  Ni  Ni9  1  0.33687093  0.00040229  0.00181655  1
  Ni  Ni10  1  0.49829859  0.16504672  0.16764247  1
  Ni  Ni11  1  0.33483759  0.00080584  0.33154277  1
  Ni  Ni12  1  0.33258935  0.33360185  0.99964542  1
  Cr  Cr13  1  0.50082116  0.50020891  0.16640657  1
  Ni  Ni14  1  0.33497618  0.33338063  0.33335279  1
  Ni  Ni15  1  0.33346505  0.66641412  0.00038294  1
  Ni  Ni16  1  0.49785698  0.83654743  0.16571120  1
  Ni  Ni17  1  0.33259313  0.66595067  0.33337764  1
  Ni  Ni18  1  0.66396299  0.00086147  0.99910800  1
  Fe  Fe19  1  0.83302434  0.16756099  0.16869351  1
  Ni  Ni20  1  0.66562576  0.00370534  0.33452886  1
  Cr  Cr21  1  0.66578609  0.33048574  0.99920324  1
  Ni  Ni22  1  0.83490260  0.49652862  0.16697212  1
  Ni  Ni23  1  0.66658469  0.33041461  0.33455680  1
  Fe  Fe24  1  0.66493049  0.66730731  0.99812463  1
  Cr  Cr25  1  0.82889075  0.83286247  0.16689224  1
  Cr  Cr26  1  0.66541689  0.66570594  0.33647135  1
  Cr  Cr27  1  0.16773867  0.16768721  0.50180828  1
  Ni  Ni28  1  0.99733778  0.00063337  0.66678251  1
  Cr  Cr29  1  0.16816272  0.16867595  0.83111913  1
  Ni  Ni30  1  0.16868640  0.49741989  0.50022346  1
  Fe  Fe31  1  0.99953042  0.33460079  0.66698244  1
  Ni  Ni32  1  0.16779483  0.49747126  0.83364554  1
  Cr  Cr33  1  0.16885667  0.83545528  0.50047290  1
  Cr  Cr34  1  0.99935539  0.66642975  0.66580718  1
  Cr  Cr35  1  0.16952128  0.83435973  0.83176862  1
  Ni  Ni36  1  0.49947828  0.16716304  0.49799490  1
  Ni  Ni37  1  0.33567730  0.00053872  0.66684772  1
  Ni  Ni38  1  0.49769585  0.16608919  0.83438352  1
  Ni  Ni39  1  0.49909239  0.49967872  0.50028558  1
  Ni  Ni40  1  0.33482755  0.33541210  0.66726804  1
  Ni  Ni41  1  0.49923363  0.50124627  0.83350542  1
  Ni  Ni42  1  0.50058229  0.83331528  0.50002058  1
  Ni  Ni43  1  0.33565364  0.66394474  0.66619563  1
  Ni  Ni44  1  0.50190921  0.83283091  0.83472099  1
  Ni  Ni45  1  0.83412134  0.16691071  0.49806684  1
  Cr  Cr46  1  0.66578457  0.00079582  0.66601804  1
  Fe  Fe47  1  0.83272464  0.16710802  0.83291428  1
  Ni  Ni48  1  0.83279489  0.49822387  0.49966793  1
  Cr  Cr49  1  0.66403766  0.33370017  0.66581260  1
  Ni  Ni50  1  0.83273817  0.50097203  0.83407451  1
  Ni  Ni51  1  0.83142280  0.83494202  0.50050618  1
  Ni  Ni52  1  0.66555161  0.66596594  0.66721626  1
  Ni  Ni53  1  0.82965019  0.83275207  0.83310056  1
" 