4392,Ni66Fe10Cr22_11,-230.449856258039, 169.891552246866,Ni66Fe10Cr22,"# generated using pymatgen
 data_Cr14(FeNi7)5
_symmetry_space_group_name_H-M   'P 1'
_cell_length_a   7.46786375
_cell_length_b   7.46786375
_cell_length_c   10.56115420
_cell_angle_alpha   90.00000000
_cell_angle_beta   90.00000000
_cell_angle_gamma   90.00000000
_symmetry_Int_Tables_number   1
_chemical_formula_structural   Cr14(FeNi7)5
_chemical_formula_sum   'Cr14 Fe5 Ni35'
_cell_volume   588.98489261
_cell_formula_units_Z   1
loop_
 _symmetry_equiv_pos_site_id
 _symmetry_equiv_pos_as_xyz
  1  'x, y, z'
loop_
 _atom_site_type_symbol
 _atom_site_label
 _atom_site_symmetry_multiplicity
 _atom_site_fract_x
 _atom_site_fract_y
 _atom_site_fract_z
 _atom_site_occupancy
  Ni  Ni0  1  0.00137747  0.99889754  0.00031095  1
  Fe  Fe1  1  0.16800392  0.16534243  0.16657510  1
  Ni  Ni2  1  0.99905475  0.00230185  0.33341668  1
  Cr  Cr3  1  0.00229714  0.33399828  0.00146944  1
  Ni  Ni4  1  0.16711463  0.49952565  0.16621387  1
  Ni  Ni5  1  0.00103154  0.33147635  0.33133106  1
  Ni  Ni6  1  0.00192954  0.66670677  0.99812478  1
  Ni  Ni7  1  0.16831698  0.83520955  0.16546908  1
  Cr  Cr8  1  0.00194085  0.66647819  0.33404187  1
  Ni  Ni9  1  0.33292143  0.99888114  0.99974193  1
  Ni  Ni10  1  0.49844194  0.16531354  0.16763623  1
  Ni  Ni11  1  0.33405890  0.00225678  0.33318171  1
  Ni  Ni12  1  0.33247635  0.33465160  0.00083617  1
  Ni  Ni13  1  0.49931010  0.49942117  0.16652061  1
  Ni  Ni14  1  0.33263105  0.33163460  0.33079811  1
  Ni  Ni15  1  0.33328796  0.66608121  0.00064892  1
  Ni  Ni16  1  0.49867643  0.83499663  0.16556328  1
  Cr  Cr17  1  0.33327161  0.66549757  0.33136098  1
  Ni  Ni18  1  0.66582079  0.99793911  0.00086716  1
  Ni  Ni19  1  0.83305963  0.16582083  0.16923370  1
  Ni  Ni20  1  0.66667371  0.00178667  0.33332587  1
  Cr  Cr21  1  0.66523628  0.33434225  0.00168098  1
  Ni  Ni22  1  0.83342071  0.49928854  0.16703968  1
  Fe  Fe23  1  0.66613743  0.33172744  0.33008204  1
  Ni  Ni24  1  0.66468454  0.66734718  0.99878901  1
  Cr  Cr25  1  0.83405778  0.83283283  0.16410228  1
  Ni  Ni26  1  0.66656828  0.66816319  0.33061352  1
  Cr  Cr27  1  0.16954297  0.16756164  0.49946532  1
  Cr  Cr28  1  0.99919375  0.99812455  0.66671367  1
  Ni  Ni29  1  0.16825100  0.16648775  0.83460214  1
  Ni  Ni30  1  0.16504107  0.49804127  0.50067842  1
  Ni  Ni31  1  0.00296661  0.33489856  0.66780514  1
  Ni  Ni32  1  0.16666155  0.49982776  0.83260890  1
  Ni  Ni33  1  0.16338766  0.83445255  0.49935261  1
  Ni  Ni34  1  0.99921292  0.66556875  0.66692001  1
  Ni  Ni35  1  0.16604041  0.83300214  0.83509518  1
  Ni  Ni36  1  0.50055004  0.16766392  0.49986358  1
  Fe  Fe37  1  0.33129654  0.99912259  0.66753243  1
  Cr  Cr38  1  0.49584998  0.16660641  0.83289269  1
  Cr  Cr39  1  0.49989888  0.49597280  0.49917119  1
  Ni  Ni40  1  0.33205458  0.33348316  0.66803288  1
  Ni  Ni41  1  0.49929049  0.50161461  0.83341361  1
  Cr  Cr42  1  0.49961214  0.83513112  0.49751329  1
  Cr  Cr43  1  0.33147031  0.66624149  0.66664169  1
  Ni  Ni44  1  0.49953021  0.83188704  0.83623639  1
  Fe  Fe45  1  0.83353154  0.16684820  0.49780392  1
  Cr  Cr46  1  0.66603525  0.99830837  0.66644008  1
  Cr  Cr47  1  0.83545583  0.16706695  0.83440046  1
  Cr  Cr48  1  0.83366029  0.50025631  0.50043402  1
  Fe  Fe49  1  0.66742040  0.33580514  0.66833051  1
  Ni  Ni50  1  0.83419502  0.50427530  0.83181443  1
  Ni  Ni51  1  0.83349839  0.83302547  0.49863264  1
  Ni  Ni52  1  0.66767524  0.66781324  0.66960806  1
  Ni  Ni53  1  0.83392441  0.83004327  0.83607099  1
" 