6754,Ni66Fe25Cr8_16,-237.967157875082, 204.313591333703,Ni66Fe25Cr8,"# generated using pymatgen
 data_Cr6Fe13Ni35
_symmetry_space_group_name_H-M   'P 1'
_cell_length_a   7.43001190
_cell_length_b   7.43001190
_cell_length_c   10.50762360
_cell_angle_alpha   90.00000000
_cell_angle_beta   90.00000000
_cell_angle_gamma   90.00000000
_symmetry_Int_Tables_number   1
_chemical_formula_structural   Cr6Fe13Ni35
_chemical_formula_sum   'Cr6 Fe13 Ni35'
_cell_volume   580.07416802
_cell_formula_units_Z   1
loop_
 _symmetry_equiv_pos_site_id
 _symmetry_equiv_pos_as_xyz
  1  'x, y, z'
loop_
 _atom_site_type_symbol
 _atom_site_label
 _atom_site_symmetry_multiplicity
 _atom_site_fract_x
 _atom_site_fract_y
 _atom_site_fract_z
 _atom_site_occupancy
  Ni  Ni0  1  0.00304606  1.00223089  1.00149325  1
  Cr  Cr1  1  0.16726669  0.17049691  0.16767858  1
  Ni  Ni2  1  1.00026294  1.00202276  0.33650496  1
  Ni  Ni3  1  1.00079381  0.33577456  1.00127476  1
  Ni  Ni4  1  0.16770909  0.50435685  0.17043133  1
  Fe  Fe5  1  1.00101756  0.33629785  0.33579287  1
  Ni  Ni6  1  0.00292542  0.66955963  0.00263610  1
  Fe  Fe7  1  0.16658774  0.83456928  0.16889131  1
  Fe  Fe8  1  1.00199880  0.66907735  0.33598730  1
  Ni  Ni9  1  0.33347721  0.00325927  1.00099806  1
  Cr  Cr10  1  0.50492502  0.16908929  0.16823113  1
  Cr  Cr11  1  0.33451503  1.00160807  0.33907704  1
  Fe  Fe12  1  0.33477087  0.33604796  1.00052786  1
  Fe  Fe13  1  0.50310602  0.50145368  0.17142974  1
  Ni  Ni14  1  0.33627082  0.33959853  0.33648132  1
  Cr  Cr15  1  0.33382546  0.66839919  0.00317263  1
  Fe  Fe16  1  0.50347434  0.83474504  0.17075324  1
  Ni  Ni17  1  0.33619812  0.66684941  0.33590442  1
  Fe  Fe18  1  0.67185010  0.00448764  1.00202452  1
  Ni  Ni19  1  0.83525688  0.16941209  0.16938639  1
  Ni  Ni20  1  0.67261595  1.00202748  0.33622723  1
  Ni  Ni21  1  0.67031555  0.33533203  1.00133201  1
  Ni  Ni22  1  0.83750048  0.50220009  0.16935332  1
  Ni  Ni23  1  0.66958830  0.33722776  0.33685617  1
  Cr  Cr24  1  0.67171895  0.66623771  1.00231142  1
  Fe  Fe25  1  0.83740841  0.83667511  0.17010255  1
  Ni  Ni26  1  0.66855200  0.66815972  0.33593994  1
  Ni  Ni27  1  0.16872525  0.16928061  0.50307869  1
  Ni  Ni28  1  0.00272327  1.00126389  0.66945140  1
  Fe  Fe29  1  0.16868951  0.16921257  0.83576387  1
  Fe  Fe30  1  0.16970798  0.50239034  0.50249888  1
  Fe  Fe31  1  1.00083394  0.33578476  0.66960156  1
  Ni  Ni32  1  0.16783092  0.50270977  0.83550493  1
  Ni  Ni33  1  0.16868121  0.83549762  0.50264020  1
  Ni  Ni34  1  1.00217251  0.67078788  0.67002124  1
  Ni  Ni35  1  0.16662098  0.83577013  0.83628433  1
  Ni  Ni36  1  0.50294536  0.16983712  0.50292863  1
  Fe  Fe37  1  0.33557584  0.00333436  0.66826005  1
  Ni  Ni38  1  0.50279537  0.17073352  0.83671555  1
  Ni  Ni39  1  0.50275902  0.50261390  0.50147726  1
  Ni  Ni40  1  0.33695506  0.33582961  0.67000212  1
  Ni  Ni41  1  0.50222929  0.49875100  0.83540534  1
  Ni  Ni42  1  0.50299931  0.83501878  0.50277300  1
  Fe  Fe43  1  0.33553745  0.66832281  0.66814415  1
  Cr  Cr44  1  0.50278977  0.83779743  0.83315022  1
  Ni  Ni45  1  0.83575181  0.16909695  0.50098298  1
  Ni  Ni46  1  0.67096046  0.00344633  0.66836625  1
  Ni  Ni47  1  0.83495060  0.16932410  0.83701430  1
  Ni  Ni48  1  0.83521100  0.50272020  0.50242621  1
  Ni  Ni49  1  0.66745248  0.33634138  0.66936410  1
  Ni  Ni50  1  0.83733150  0.50178191  0.83565735  1
  Ni  Ni51  1  0.83583096  0.83567778  0.50205572  1
  Ni  Ni52  1  0.67050597  0.66769538  0.66845716  1
  Ni  Ni53  1  0.83904002  0.83636816  0.83575952  1
" 