3790,Ni66Fe25Cr8_13,-237.924893172442, 203.22070175376,Ni66Fe25Cr8,"# generated using pymatgen
 data_Cr6Fe13Ni35
_symmetry_space_group_name_H-M   'P 1'
_cell_length_a   7.43228293
_cell_length_b   7.43228293
_cell_length_c   10.51083532
_cell_angle_alpha   90.00000000
_cell_angle_beta   90.00000000
_cell_angle_gamma   90.00000000
_symmetry_Int_Tables_number   1
_chemical_formula_structural   Cr6Fe13Ni35
_chemical_formula_sum   'Cr6 Fe13 Ni35'
_cell_volume   580.60624004
_cell_formula_units_Z   1
loop_
 _symmetry_equiv_pos_site_id
 _symmetry_equiv_pos_as_xyz
  1  'x, y, z'
loop_
 _atom_site_type_symbol
 _atom_site_label
 _atom_site_symmetry_multiplicity
 _atom_site_fract_x
 _atom_site_fract_y
 _atom_site_fract_z
 _atom_site_occupancy
  Ni  Ni0  1  0.00316812  1.00080565  1.00224773  1
  Ni  Ni1  1  0.16773556  0.16726953  0.16980074  1
  Fe  Fe2  1  1.00221586  0.00351623  0.33489246  1
  Cr  Cr3  1  0.00266240  0.33578786  0.00277488  1
  Fe  Fe4  1  0.16813398  0.50135181  0.16992360  1
  Ni  Ni5  1  1.00211617  0.33593440  0.33538074  1
  Ni  Ni6  1  1.00220561  0.67126532  1.00212128  1
  Ni  Ni7  1  0.16770315  0.83792594  0.16837150  1
  Ni  Ni8  1  1.00023000  0.66813914  0.33504139  1
  Ni  Ni9  1  0.33428146  0.00274255  1.00134635  1
  Cr  Cr10  1  0.50189706  0.16944563  0.16897773  1
  Ni  Ni11  1  0.33555631  0.00292360  0.33647453  1
  Ni  Ni12  1  0.33627571  0.33410003  1.00163658  1
  Ni  Ni13  1  0.50439485  0.50209033  0.16992440  1
  Ni  Ni14  1  0.33403600  0.33428200  0.33611879  1
  Cr  Cr15  1  0.33431025  0.66961074  0.00275395  1
  Ni  Ni16  1  0.50247187  0.83575381  0.16932928  1
  Cr  Cr17  1  0.33615384  0.66916318  0.33502796  1
  Fe  Fe18  1  0.66987230  0.00303575  1.00187315  1
  Ni  Ni19  1  0.83710986  0.16919034  0.16936637  1
  Ni  Ni20  1  0.66919607  1.00104079  0.33585676  1
  Ni  Ni21  1  0.66847513  0.33506545  1.00097983  1
  Ni  Ni22  1  0.83493754  0.50212389  0.17047897  1
  Ni  Ni23  1  0.67086226  0.33631570  0.33691030  1
  Cr  Cr24  1  0.67011057  0.66901087  0.00324591  1
  Fe  Fe25  1  0.83656131  0.83615398  0.16934042  1
  Ni  Ni26  1  0.67084546  0.66966023  0.33562193  1
  Ni  Ni27  1  0.16816665  0.16907082  0.50193151  1
  Fe  Fe28  1  0.00385548  0.00375012  0.66990240  1
  Ni  Ni29  1  0.16950584  0.16801613  0.83528673  1
  Ni  Ni30  1  0.16812136  0.50039370  0.50269235  1
  Ni  Ni31  1  0.00290259  0.33629537  0.66912806  1
  Ni  Ni32  1  0.16951129  0.50167524  0.83479205  1
  Fe  Fe33  1  0.16851445  0.83615252  0.50275083  1
  Fe  Fe34  1  0.00240017  0.66796161  0.66940008  1
  Ni  Ni35  1  0.16792559  0.83732605  0.83463833  1
  Fe  Fe36  1  0.50132690  0.17076520  0.50126713  1
  Ni  Ni37  1  0.33400401  1.00192501  0.66919143  1
  Fe  Fe38  1  0.50014497  0.16972982  0.83665249  1
  Ni  Ni39  1  0.50399500  0.50266989  0.50298893  1
  Ni  Ni40  1  0.33431568  0.33544258  0.66926116  1
  Ni  Ni41  1  0.50272857  0.50092709  0.83410400  1
  Ni  Ni42  1  0.50261284  0.83505949  0.50216598  1
  Fe  Fe43  1  0.33678045  0.66800512  0.66932011  1
  Ni  Ni44  1  0.50209834  0.83585905  0.83552486  1
  Ni  Ni45  1  0.83738422  0.17045729  0.50135319  1
  Cr  Cr46  1  0.66795484  1.00161193  0.66956277  1
  Fe  Fe47  1  0.83601004  0.16889766  0.83570924  1
  Ni  Ni48  1  0.83490031  0.50154564  0.50287303  1
  Ni  Ni49  1  0.66979894  0.33824073  0.66912366  1
  Fe  Fe50  1  0.83588694  0.50329922  0.83403999  1
  Fe  Fe51  1  0.83586147  0.83388864  0.50172818  1
  Ni  Ni52  1  0.66907324  0.66776116  0.66865148  1
  Ni  Ni53  1  0.83699430  0.83586134  0.83643566  1
" 