5114,Ni66Fe25Cr8_9,-237.746072436346, 203.338329145127,Ni66Fe25Cr8,"# generated using pymatgen
 data_Cr6Fe13Ni35
_symmetry_space_group_name_H-M   'P 1'
_cell_length_a   7.42845866
_cell_length_b   7.42845866
_cell_length_c   10.50542698
_cell_angle_alpha   90.00000000
_cell_angle_beta   90.00000000
_cell_angle_gamma   90.00000000
_symmetry_Int_Tables_number   1
_chemical_formula_structural   Cr6Fe13Ni35
_chemical_formula_sum   'Cr6 Fe13 Ni35'
_cell_volume   579.71045111
_cell_formula_units_Z   1
loop_
 _symmetry_equiv_pos_site_id
 _symmetry_equiv_pos_as_xyz
  1  'x, y, z'
loop_
 _atom_site_type_symbol
 _atom_site_label
 _atom_site_symmetry_multiplicity
 _atom_site_fract_x
 _atom_site_fract_y
 _atom_site_fract_z
 _atom_site_occupancy
  Ni  Ni0  1  0.00313402  1.00218666  0.00281626  1
  Ni  Ni1  1  0.16907715  0.16963987  0.16931535  1
  Fe  Fe2  1  0.00351322  0.00485888  0.33591316  1
  Fe  Fe3  1  1.00221482  0.33349637  0.00288127  1
  Ni  Ni4  1  0.17039055  0.50260088  0.16915471  1
  Ni  Ni5  1  0.00549381  0.33363433  0.33643666  1
  Ni  Ni6  1  1.00195808  0.67132670  1.00188517  1
  Ni  Ni7  1  0.17137835  0.83555323  0.16847852  1
  Cr  Cr8  1  0.00485576  0.66968867  0.33789023  1
  Ni  Ni9  1  0.33469343  0.00303747  0.00263384  1
  Ni  Ni10  1  0.50299289  0.16711750  0.16857997  1
  Ni  Ni11  1  0.33626899  0.00324504  0.33629325  1
  Ni  Ni12  1  0.33664644  0.33515475  0.00441006  1
  Fe  Fe13  1  0.49882977  0.50187764  0.16710088  1
  Ni  Ni14  1  0.33389714  0.33514821  0.33631216  1
  Fe  Fe15  1  0.33709621  0.67079025  0.00323384  1
  Ni  Ni16  1  0.50149423  0.83727529  0.16843580  1
  Ni  Ni17  1  0.33545153  0.66939637  0.33539013  1
  Ni  Ni18  1  0.66996655  1.00209499  0.00359330  1
  Ni  Ni19  1  0.83572085  0.16810276  0.16893288  1
  Ni  Ni20  1  0.66855935  0.00304921  0.33578281  1
  Ni  Ni21  1  0.66824118  0.33632819  1.00219828  1
  Cr  Cr22  1  0.83759077  0.50072530  0.16642979  1
  Cr  Cr23  1  0.66830935  0.33341299  0.33679452  1
  Ni  Ni24  1  0.66909268  0.66937063  1.00156775  1
  Fe  Fe25  1  0.83613222  0.83956943  0.16718800  1
  Cr  Cr26  1  0.66737739  0.67155591  0.33670350  1
  Ni  Ni27  1  0.16870326  0.16989187  0.50237275  1
  Ni  Ni28  1  0.00318807  0.00331930  0.66912403  1
  Ni  Ni29  1  0.16659959  0.16755484  0.83610587  1
  Ni  Ni30  1  0.16832996  0.50273065  0.50244957  1
  Ni  Ni31  1  1.00190939  0.33449963  0.66882440  1
  Cr  Cr32  1  0.16838082  0.50353292  0.83638964  1
  Ni  Ni33  1  0.17112386  0.83516972  0.50329564  1
  Ni  Ni34  1  1.00171502  0.66997643  0.66821759  1
  Ni  Ni35  1  0.16965544  0.83654687  0.83601487  1
  Ni  Ni36  1  0.50310826  0.16732872  0.50300919  1
  Fe  Fe37  1  0.33408880  1.00067354  0.66841337  1
  Cr  Cr38  1  0.50347871  0.16815619  0.83602617  1
  Fe  Fe39  1  0.50043669  0.50260124  0.50452248  1
  Fe  Fe40  1  0.33484030  0.33669613  0.66782396  1
  Ni  Ni41  1  0.50484110  0.50523372  0.83630935  1
  Ni  Ni42  1  0.50156998  0.83685120  0.50319325  1
  Ni  Ni43  1  0.33731828  0.67003971  0.66862821  1
  Ni  Ni44  1  0.50255594  0.83394372  0.83615891  1
  Ni  Ni45  1  0.83598153  0.17012191  0.50249245  1
  Fe  Fe46  1  0.67063713  1.00127971  0.66818437  1
  Ni  Ni47  1  0.83712996  0.16984578  0.83636704  1
  Ni  Ni48  1  0.83766348  0.50118992  0.50572920  1
  Fe  Fe49  1  0.67118412  0.33738888  0.66871126  1
  Fe  Fe50  1  0.83428576  0.50296691  0.83560602  1
  Fe  Fe51  1  0.83624289  0.83762621  0.50438381  1
  Ni  Ni52  1  0.66875722  0.66876487  0.66932831  1
  Fe  Fe53  1  0.83615585  0.83609000  0.83622431  1
" 