4413,Ni66Fe18Cr14_3,-236.165068169813, 194.225682951672,Ni66Fe18Cr14,"# generated using pymatgen
 data_Cr4Fe5Ni18
_symmetry_space_group_name_H-M   'P 1'
_cell_length_a   7.44189364
_cell_length_b   7.44189364
_cell_length_c   10.52442691
_cell_angle_alpha   90.00000000
_cell_angle_beta   90.00000000
_cell_angle_gamma   90.00000000
_symmetry_Int_Tables_number   1
_chemical_formula_structural   Cr4Fe5Ni18
_chemical_formula_sum   'Cr8 Fe10 Ni36'
_cell_volume   582.86150536
_cell_formula_units_Z   2
loop_
 _symmetry_equiv_pos_site_id
 _symmetry_equiv_pos_as_xyz
  1  'x, y, z'
loop_
 _atom_site_type_symbol
 _atom_site_label
 _atom_site_symmetry_multiplicity
 _atom_site_fract_x
 _atom_site_fract_y
 _atom_site_fract_z
 _atom_site_occupancy
  Fe  Fe0  1  0.00194329  1.00145800  0.00181734  1
  Ni  Ni1  1  0.16677199  0.16648771  0.16826221  1
  Ni  Ni2  1  0.00347420  1.00132311  0.33391905  1
  Ni  Ni3  1  1.00130672  0.33371545  0.00268801  1
  Cr  Cr4  1  0.16870357  0.50193015  0.16776086  1
  Ni  Ni5  1  0.00174843  0.33516651  0.33490447  1
  Ni  Ni6  1  1.00052631  0.66950539  0.00202237  1
  Ni  Ni7  1  0.16751881  0.83656146  0.16778241  1
  Ni  Ni8  1  0.00175907  0.66857877  0.33675292  1
  Ni  Ni9  1  0.33470329  1.00082573  0.99996915  1
  Cr  Cr10  1  0.50203442  0.16919803  0.16881732  1
  Ni  Ni11  1  0.33406059  1.00137991  0.33659665  1
  Ni  Ni12  1  0.33429309  0.33345334  0.00178835  1
  Ni  Ni13  1  0.50310526  0.50174825  0.16679256  1
  Fe  Fe14  1  0.33508317  0.33396233  0.33669456  1
  Ni  Ni15  1  0.33609357  0.67079093  0.00244207  1
  Fe  Fe16  1  0.50126667  0.83472584  0.16708534  1
  Fe  Fe17  1  0.33414275  0.66976695  0.33543905  1
  Ni  Ni18  1  0.66818898  1.00004298  1.00087291  1
  Ni  Ni19  1  0.83610563  0.16842012  0.16801404  1
  Ni  Ni20  1  0.66753322  1.00139098  0.33543859  1
  Ni  Ni21  1  0.66947089  0.33510164  0.00195482  1
  Ni  Ni22  1  0.83349901  0.50099666  0.16714745  1
  Ni  Ni23  1  0.66880945  0.33555545  0.33568684  1
  Ni  Ni24  1  0.66845116  0.66991882  0.00350153  1
  Ni  Ni25  1  0.83638543  0.83565205  0.16753663  1
  Cr  Cr26  1  0.66912264  0.66853737  0.33412651  1
  Ni  Ni27  1  0.17043640  0.16771660  0.50149423  1
  Ni  Ni28  1  0.00470467  1.00133115  0.66953465  1
  Ni  Ni29  1  0.16867519  0.16616017  0.83531371  1
  Fe  Fe30  1  0.16814429  0.50150118  0.50181122  1
  Ni  Ni31  1  0.00383347  0.33473262  0.66747195  1
  Cr  Cr32  1  0.16875130  0.50151326  0.83532795  1
  Ni  Ni33  1  0.16836396  0.83570237  0.50218395  1
  Fe  Fe34  1  1.00155661  0.67058712  0.66678675  1
  Ni  Ni35  1  0.16841297  0.83812297  0.83510860  1
  Ni  Ni36  1  0.49892610  0.16987019  0.50149167  1
  Ni  Ni37  1  0.33332256  0.00239497  0.66851086  1
  Fe  Fe38  1  0.50004287  0.16650896  0.83586492  1
  Ni  Ni39  1  0.50177568  0.50049204  0.50282254  1
  Ni  Ni40  1  0.33366042  0.33312933  0.66644940  1
  Cr  Cr41  1  0.50202343  0.50161545  0.83595135  1
  Ni  Ni42  1  0.49983229  0.83470789  0.50144119  1
  Fe  Fe43  1  0.33515217  0.67048635  0.66726744  1
  Ni  Ni44  1  0.50113317  0.83611898  0.83644094  1
  Cr  Cr45  1  0.83560715  0.16861773  0.50018822  1
  Cr  Cr46  1  0.66694108  0.99905898  0.66847275  1
  Fe  Fe47  1  0.83641838  0.16686390  0.83623203  1
  Ni  Ni48  1  0.83471234  0.50256199  0.50266940  1
  Fe  Fe49  1  0.66739995  0.33567191  0.66683728  1
  Cr  Cr50  1  0.83429452  0.50201488  0.83540395  1
  Ni  Ni51  1  0.83687147  0.83284897  0.50202763  1
  Ni  Ni52  1  0.66864162  0.66866571  0.66683674  1
  Ni  Ni53  1  0.83552568  0.83607179  0.83550601  1
" 