5308,Ni66Fe10Cr22_15,-230.306479425944, 166.715784077705,Ni66Fe10Cr22,"# generated using pymatgen
 data_Cr14(FeNi7)5
_symmetry_space_group_name_H-M   'P 1'
_cell_length_a   7.46528129
_cell_length_b   7.46528129
_cell_length_c   10.55750204
_cell_angle_alpha   90.00000000
_cell_angle_beta   90.00000000
_cell_angle_gamma   90.00000000
_symmetry_Int_Tables_number   1
_chemical_formula_structural   Cr14(FeNi7)5
_chemical_formula_sum   'Cr14 Fe5 Ni35'
_cell_volume   588.37407216
_cell_formula_units_Z   1
loop_
 _symmetry_equiv_pos_site_id
 _symmetry_equiv_pos_as_xyz
  1  'x, y, z'
loop_
 _atom_site_type_symbol
 _atom_site_label
 _atom_site_symmetry_multiplicity
 _atom_site_fract_x
 _atom_site_fract_y
 _atom_site_fract_z
 _atom_site_occupancy
  Ni  Ni0  1  0.99884075  0.00117165  0.00079836  1
  Fe  Fe1  1  0.16324546  0.16536167  0.16675218  1
  Fe  Fe2  1  1.00004127  0.00200911  0.33355708  1
  Ni  Ni3  1  0.99815884  0.33306055  0.99898298  1
  Cr  Cr4  1  0.16358928  0.50193848  0.16632876  1
  Ni  Ni5  1  0.99944260  0.33258805  0.33300337  1
  Ni  Ni6  1  0.99585963  0.66618952  0.99911711  1
  Cr  Cr7  1  0.16522238  0.83469216  0.16767977  1
  Ni  Ni8  1  0.00149476  0.66603045  0.33375714  1
  Ni  Ni9  1  0.33289004  0.00091005  0.99990505  1
  Fe  Fe10  1  0.50329199  0.16504783  0.16693381  1
  Ni  Ni11  1  0.33360863  1.00005263  0.33533387  1
  Cr  Cr12  1  0.32918097  0.33089282  0.99983531  1
  Cr  Cr13  1  0.50261445  0.49903617  0.16594590  1
  Cr  Cr14  1  0.33207028  0.33213568  0.33548305  1
  Fe  Fe15  1  0.33239766  0.66810163  0.99832972  1
  Cr  Cr16  1  0.49936429  0.83511421  0.16475259  1
  Ni  Ni17  1  0.33110844  0.66879757  0.33666550  1
  Ni  Ni18  1  0.66878390  0.99884257  0.99972612  1
  Ni  Ni19  1  0.83337328  0.16683727  0.16701129  1
  Ni  Ni20  1  0.66609486  0.00244040  0.33341994  1
  Ni  Ni21  1  0.67119132  0.33283843  0.00170490  1
  Ni  Ni22  1  0.83465791  0.49792490  0.16585275  1
  Ni  Ni23  1  0.66899781  0.32978017  0.33326793  1
  Ni  Ni24  1  0.67151387  0.66832926  0.99906571  1
  Ni  Ni25  1  0.83457284  0.83564138  0.16604649  1
  Cr  Cr26  1  0.66757408  0.66787583  0.33407261  1
  Ni  Ni27  1  0.16542220  0.16569455  0.50055760  1
  Ni  Ni28  1  0.00220679  0.00269448  0.66643105  1
  Ni  Ni29  1  0.16380150  0.16697907  0.83337365  1
  Ni  Ni30  1  0.16737106  0.50088464  0.50102852  1
  Ni  Ni31  1  0.00374103  0.33201077  0.66853469  1
  Ni  Ni32  1  0.16403706  0.49940682  0.83239496  1
  Ni  Ni33  1  0.16904758  0.83399367  0.49906388  1
  Fe  Fe34  1  0.00127722  0.66663652  0.66762449  1
  Cr  Cr35  1  0.16690435  0.83513321  0.83346013  1
  Ni  Ni36  1  0.49955291  0.16581405  0.49840655  1
  Ni  Ni37  1  0.33105618  0.99998564  0.66490502  1
  Cr  Cr38  1  0.49962267  0.16439920  0.83423868  1
  Ni  Ni39  1  0.49765311  0.50046030  0.50053520  1
  Ni  Ni40  1  0.32829672  0.33329309  0.66438202  1
  Cr  Cr41  1  0.50021596  0.50155330  0.83374447  1
  Ni  Ni42  1  0.49667804  0.83410761  0.50054280  1
  Ni  Ni43  1  0.33369700  0.66707940  0.66500391  1
  Ni  Ni44  1  0.50034219  0.83274786  0.83476212  1
  Ni  Ni45  1  0.83550721  0.16698989  0.49851441  1
  Cr  Cr46  1  0.66754314  0.99726279  0.66728650  1
  Ni  Ni47  1  0.83732267  0.16669250  0.83503513  1
  Cr  Cr48  1  0.83560739  0.49710978  0.49996004  1
  Cr  Cr49  1  0.66823534  0.33355607  0.66545474  1
  Ni  Ni50  1  0.83581786  0.49988430  0.83508982  1
  Cr  Cr51  1  0.83686019  0.83628312  0.49969648  1
  Ni  Ni52  1  0.66577894  0.66824016  0.66802533  1
  Ni  Ni53  1  0.83361044  0.83385512  0.83500685  1
" 