8878,Ni66Fe18Cr14_2,-236.015011465472, 192.073641556772,Ni66Fe18Cr14,"# generated using pymatgen
 data_Cr4Fe5Ni18
_symmetry_space_group_name_H-M   'P 1'
_cell_length_a   7.44117759
_cell_length_b   7.44117759
_cell_length_c   10.52341426
_cell_angle_alpha   90.00000000
_cell_angle_beta   90.00000000
_cell_angle_gamma   90.00000000
_symmetry_Int_Tables_number   1
_chemical_formula_structural   Cr4Fe5Ni18
_chemical_formula_sum   'Cr8 Fe10 Ni36'
_cell_volume   582.69327452
_cell_formula_units_Z   2
loop_
 _symmetry_equiv_pos_site_id
 _symmetry_equiv_pos_as_xyz
  1  'x, y, z'
loop_
 _atom_site_type_symbol
 _atom_site_label
 _atom_site_symmetry_multiplicity
 _atom_site_fract_x
 _atom_site_fract_y
 _atom_site_fract_z
 _atom_site_occupancy
  Cr  Cr0  1  1.00109579  0.99869349  0.00320721  1
  Cr  Cr1  1  0.17075296  0.16853761  0.16877546  1
  Cr  Cr2  1  1.00069428  1.00133339  0.33588737  1
  Cr  Cr3  1  0.00209430  0.33832790  0.00246325  1
  Ni  Ni4  1  0.16784151  0.50354644  0.16933497  1
  Ni  Ni5  1  1.00166896  0.33687287  0.33561436  1
  Ni  Ni6  1  0.99920941  0.66801461  0.00199851  1
  Ni  Ni7  1  0.16895859  0.83271812  0.16828357  1
  Ni  Ni8  1  0.00245230  0.66682913  0.33338965  1
  Ni  Ni9  1  0.33784639  0.00373348  1.00047853  1
  Ni  Ni10  1  0.50322971  0.16804735  0.16678422  1
  Ni  Ni11  1  0.33740351  1.00136966  0.33585048  1
  Ni  Ni12  1  0.33721872  0.33394072  1.00147040  1
  Ni  Ni13  1  0.50271581  0.50079619  0.16876056  1
  Fe  Fe14  1  0.33631622  0.33594156  0.33600240  1
  Cr  Cr15  1  0.33555448  0.66749874  0.00265706  1
  Ni  Ni16  1  0.50250262  0.83637262  0.16831525  1
  Fe  Fe17  1  0.33532059  0.66855442  0.33538212  1
  Ni  Ni18  1  0.66621045  1.00067639  0.00339770  1
  Ni  Ni19  1  0.83100383  0.16916390  0.16909932  1
  Ni  Ni20  1  0.66669511  0.00215038  0.33519980  1
  Fe  Fe21  1  0.66577252  0.33622353  0.00333745  1
  Ni  Ni22  1  0.83465761  0.50282223  0.16772558  1
  Ni  Ni23  1  0.66789230  0.33448539  0.33360313  1
  Ni  Ni24  1  0.67048806  0.66864117  1.00168930  1
  Ni  Ni25  1  0.83375461  0.83323022  0.16726925  1
  Ni  Ni26  1  0.66774594  0.66857987  0.33413456  1
  Ni  Ni27  1  0.17013587  0.16952513  0.50270732  1
  Cr  Cr28  1  1.00155751  1.00095725  0.66611879  1
  Fe  Fe29  1  0.17244911  0.16967561  0.83415045  1
  Ni  Ni30  1  0.16999808  0.50155706  0.50242819  1
  Fe  Fe31  1  0.00368254  0.33675296  0.66767636  1
  Fe  Fe32  1  0.16780099  0.50212873  0.83344596  1
  Ni  Ni33  1  0.17029225  0.83413454  0.50220147  1
  Ni  Ni34  1  0.00187205  0.66740231  0.66982440  1
  Fe  Fe35  1  0.16852948  0.83340742  0.83421800  1
  Ni  Ni36  1  0.50122591  0.16756336  0.50258174  1
  Ni  Ni37  1  0.33657108  0.00292924  0.66888394  1
  Fe  Fe38  1  0.50066772  0.16838951  0.83523088  1
  Ni  Ni39  1  0.49960741  0.50176663  0.50214110  1
  Ni  Ni40  1  0.33488266  0.33541338  0.66811737  1
  Ni  Ni41  1  0.50221866  0.50092910  0.83431164  1
  Ni  Ni42  1  0.50127858  0.83588622  0.50268450  1
  Ni  Ni43  1  0.33537337  0.66687297  0.66752194  1
  Fe  Fe44  1  0.50397374  0.83531679  0.83412906  1
  Ni  Ni45  1  0.83385232  0.16785602  0.50181129  1
  Ni  Ni46  1  0.66670295  1.00063711  0.66661648  1
  Cr  Cr47  1  0.83309520  0.16866677  0.83435678  1
  Cr  Cr48  1  0.83508049  0.50206999  0.50268529  1
  Fe  Fe49  1  0.66590303  0.33565262  0.66782523  1
  Ni  Ni50  1  0.83423038  0.50491017  0.83475262  1
  Ni  Ni51  1  0.83364445  0.83574982  0.50252178  1
  Ni  Ni52  1  0.66797103  0.66909079  0.66939083  1
  Ni  Ni53  1  0.83417486  0.83152539  0.83542343  1
" 