3794,Ni66Fe10Cr22_2,-230.600107553742, 170.197564006067,Ni66Fe10Cr22,"# generated using pymatgen
 data_Cr14(FeNi7)5
_symmetry_space_group_name_H-M   'P 1'
_cell_length_a   7.46863971
_cell_length_b   7.46863971
_cell_length_c   10.56225157
_cell_angle_alpha   90.00000000
_cell_angle_beta   90.00000000
_cell_angle_gamma   90.00000000
_symmetry_Int_Tables_number   1
_chemical_formula_structural   Cr14(FeNi7)5
_chemical_formula_sum   'Cr14 Fe5 Ni35'
_cell_volume   589.16850869
_cell_formula_units_Z   1
loop_
 _symmetry_equiv_pos_site_id
 _symmetry_equiv_pos_as_xyz
  1  'x, y, z'
loop_
 _atom_site_type_symbol
 _atom_site_label
 _atom_site_symmetry_multiplicity
 _atom_site_fract_x
 _atom_site_fract_y
 _atom_site_fract_z
 _atom_site_occupancy
  Cr  Cr0  1  0.99798794  0.99690088  0.00128818  1
  Cr  Cr1  1  0.16750237  0.16825160  0.16673145  1
  Ni  Ni2  1  0.99922899  0.99731552  0.33124130  1
  Cr  Cr3  1  0.99594737  0.33611542  -0.00003140  1
  Ni  Ni4  1  0.16697284  0.50180423  0.16868819  1
  Ni  Ni5  1  0.99877376  0.33583433  0.33214062  1
  Ni  Ni6  1  0.99948408  0.66699681  0.00089933  1
  Fe  Fe7  1  0.16544066  0.82922379  0.16672864  1
  Ni  Ni8  1  0.99981899  0.66612100  0.33315602  1
  Ni  Ni9  1  0.33508133  0.99764836  0.99959570  1
  Ni  Ni10  1  0.50139393  0.16860368  0.16576108  1
  Cr  Cr11  1  0.33347815  0.99784793  0.33379254  1
  Ni  Ni12  1  0.33708209  0.33589222  0.00174062  1
  Ni  Ni13  1  0.50024453  0.49966079  0.16629089  1
  Ni  Ni14  1  0.33537917  0.33686173  0.33380920  1
  Ni  Ni15  1  0.33292694  0.66567871  0.00024495  1
  Cr  Cr16  1  0.50123607  0.82887278  0.16394636  1
  Ni  Ni17  1  0.33261051  0.66354776  0.33372711  1
  Ni  Ni18  1  0.66639257  0.00016039  -0.00007726  1
  Ni  Ni19  1  0.83148186  0.16721910  0.16782356  1
  Cr  Cr20  1  0.66744261  0.99988990  0.33365431  1
  Ni  Ni21  1  0.66521367  0.33425935  0.00176984  1
  Ni  Ni22  1  0.83237949  0.50174026  0.16776656  1
  Ni  Ni23  1  0.66586741  0.33645607  0.33090362  1
  Ni  Ni24  1  0.66718196  0.66485885  0.99860618  1
  Ni  Ni25  1  0.83328038  0.83046247  0.16763558  1
  Ni  Ni26  1  0.66702560  0.66368116  0.33458909  1
  Cr  Cr27  1  0.16616158  0.16824489  0.50162470  1
  Cr  Cr28  1  0.99838310  0.99579008  0.66883672  1
  Cr  Cr29  1  0.16713882  0.16667666  0.83126682  1
  Fe  Fe30  1  0.16548883  0.50168429  0.49838343  1
  Ni  Ni31  1  0.99869099  0.33658900  0.66685192  1
  Cr  Cr32  1  0.16614855  0.50080069  0.83190293  1
  Ni  Ni33  1  0.16694992  0.83208409  0.49795822  1
  Ni  Ni34  1  0.99782395  0.66583510  0.66574441  1
  Ni  Ni35  1  0.16873327  0.83190605  0.83524710  1
  Fe  Fe36  1  0.49980082  0.16793243  0.50010333  1
  Ni  Ni37  1  0.33522809  0.99801015  0.66545008  1
  Cr  Cr38  1  0.49977797  0.16522062  0.83362327  1
  Ni  Ni39  1  0.50191751  0.50286718  0.49756677  1
  Ni  Ni40  1  0.33431983  0.33436515  0.66398987  1
  Ni  Ni41  1  0.50247812  0.50327193  0.83572632  1
  Ni  Ni42  1  0.50013539  0.83033696  0.50128555  1
  Cr  Cr43  1  0.33436308  0.66634477  0.66549676  1
  Ni  Ni44  1  0.50073180  0.83180133  0.83362901  1
  Cr  Cr45  1  0.83431672  0.16916105  0.49861973  1
  Ni  Ni46  1  0.66506967  0.99687435  0.66638313  1
  Ni  Ni47  1  0.83136012  0.16742544  0.83337555  1
  Ni  Ni48  1  0.83292495  0.50228723  0.49883395  1
  Cr  Cr49  1  0.66573628  0.33641410  0.66721173  1
  Ni  Ni50  1  0.83160818  0.50207083  0.83288835  1
  Fe  Fe51  1  0.83300657  0.82968574  0.49871686  1
  Ni  Ni52  1  0.66827767  0.66817139  0.66654053  1
  Fe  Fe53  1  0.83081733  0.83048778  0.83456510  1
" 