8437,Ni66Fe10Cr22_19,-230.542496721466, 167.192123846105,Ni66Fe10Cr22,"# generated using pymatgen
 data_Cr14(FeNi7)5
_symmetry_space_group_name_H-M   'P 1'
_cell_length_a   7.46439165
_cell_length_b   7.46439165
_cell_length_c   10.55624390
_cell_angle_alpha   90.00000000
_cell_angle_beta   90.00000000
_cell_angle_gamma   90.00000000
_symmetry_Int_Tables_number   1
_chemical_formula_structural   Cr14(FeNi7)5
_chemical_formula_sum   'Cr14 Fe5 Ni35'
_cell_volume   588.16374733
_cell_formula_units_Z   1
loop_
 _symmetry_equiv_pos_site_id
 _symmetry_equiv_pos_as_xyz
  1  'x, y, z'
loop_
 _atom_site_type_symbol
 _atom_site_label
 _atom_site_symmetry_multiplicity
 _atom_site_fract_x
 _atom_site_fract_y
 _atom_site_fract_z
 _atom_site_occupancy
  Ni  Ni0  1  0.00027484  0.99824261  0.99813034  1
  Cr  Cr1  1  0.16694999  0.16816080  0.16460299  1
  Cr  Cr2  1  0.00326635  0.99641074  0.33321627  1
  Ni  Ni3  1  0.99865075  0.33438906  0.00058109  1
  Ni  Ni4  1  0.16675549  0.50343708  0.16627677  1
  Fe  Fe5  1  0.00176899  0.33762782  0.33382935  1
  Ni  Ni6  1  0.99904131  0.66849113  0.00194335  1
  Ni  Ni7  1  0.16759223  0.83036858  0.16521525  1
  Ni  Ni8  1  1.00016652  0.66664201  0.33217931  1
  Ni  Ni9  1  0.33304776  0.99820484  0.99942847  1
  Cr  Cr10  1  0.50038194  0.16426492  0.16438315  1
  Ni  Ni11  1  0.33229322  0.99620633  0.33409232  1
  Ni  Ni12  1  0.33510372  0.33429589  0.99923157  1
  Ni  Ni13  1  0.49873968  0.50412583  0.16423499  1
  Cr  Cr14  1  0.33374980  0.33556624  0.33485327  1
  Ni  Ni15  1  0.33454946  0.66825717  0.00148340  1
  Ni  Ni16  1  0.50034299  0.83066564  0.16780980  1
  Ni  Ni17  1  0.33323517  0.66856100  0.33401042  1
  Ni  Ni18  1  0.66713709  0.99857201  0.99976831  1
  Cr  Cr19  1  0.83342056  0.16598179  0.16603288  1
  Fe  Fe20  1  0.66512934  0.99490115  0.33198795  1
  Ni  Ni21  1  0.66665238  0.33526969  0.99833571  1
  Fe  Fe22  1  0.83365542  0.50355386  0.16524232  1
  Cr  Cr23  1  0.66726007  0.33833544  0.33273327  1
  Ni  Ni24  1  0.66694846  0.66655074  0.00028666  1
  Ni  Ni25  1  0.83240195  0.83165914  0.16526700  1
  Ni  Ni26  1  0.66679172  0.66594005  0.33296933  1
  Ni  Ni27  1  0.16466101  0.16709330  0.50035627  1
  Ni  Ni28  1  0.00054647  0.00118783  0.66894530  1
  Ni  Ni29  1  0.16411311  0.16666004  0.83520074  1
  Ni  Ni30  1  0.16606084  0.50212260  0.49934586  1
  Ni  Ni31  1  0.99955813  0.33245234  0.66510204  1
  Cr  Cr32  1  0.16744370  0.50080182  0.83545600  1
  Ni  Ni33  1  0.16852099  0.83178235  0.50010880  1
  Cr  Cr34  1  0.99993466  0.66791488  0.66742482  1
  Fe  Fe35  1  0.16810026  0.83356544  0.83539114  1
  Cr  Cr36  1  0.50111456  0.16213169  0.49894634  1
  Cr  Cr37  1  0.33164089  0.99819585  0.66733417  1
  Ni  Ni38  1  0.50145836  0.16463407  0.83699014  1
  Ni  Ni39  1  0.49994113  0.50603857  0.50121504  1
  Cr  Cr40  1  0.33365270  0.33474593  0.66680278  1
  Ni  Ni41  1  0.50105878  0.50402884  0.83511348  1
  Ni  Ni42  1  0.49932606  0.82985516  0.49878844  1
  Ni  Ni43  1  0.33604130  0.66816234  0.66493787  1
  Ni  Ni44  1  0.50164991  0.83210220  0.83396485  1
  Cr  Cr45  1  0.83477856  0.16653875  0.50037637  1
  Ni  Ni46  1  0.66737119  0.99797206  0.66847605  1
  Ni  Ni47  1  0.83480964  0.16587087  0.83389881  1
  Ni  Ni48  1  0.83489979  0.50154438  0.49894695  1
  Cr  Cr49  1  0.66715644  0.33636444  0.66929658  1
  Ni  Ni50  1  0.83336833  0.50001395  0.83548225  1
  Cr  Cr51  1  0.83025082  0.83263453  0.50137536  1
  Ni  Ni52  1  0.66530361  0.66701799  0.66728487  1
  Fe  Fe53  1  0.83153863  0.83349328  0.83492021  1
" 