6866,Ni66Fe25Cr8_12,-237.831080507599, 204.199868353167,Ni66Fe25Cr8,"# generated using pymatgen
 data_Cr6Fe13Ni35
_symmetry_space_group_name_H-M   'P 1'
_cell_length_a   7.42885053
_cell_length_b   7.42885053
_cell_length_c   10.50598118
_cell_angle_alpha   90.00000000
_cell_angle_beta   90.00000000
_cell_angle_gamma   90.00000000
_symmetry_Int_Tables_number   1
_chemical_formula_structural   Cr6Fe13Ni35
_chemical_formula_sum   'Cr6 Fe13 Ni35'
_cell_volume   579.80220105
_cell_formula_units_Z   1
loop_
 _symmetry_equiv_pos_site_id
 _symmetry_equiv_pos_as_xyz
  1  'x, y, z'
loop_
 _atom_site_type_symbol
 _atom_site_label
 _atom_site_symmetry_multiplicity
 _atom_site_fract_x
 _atom_site_fract_y
 _atom_site_fract_z
 _atom_site_occupancy
  Ni  Ni0  1  1.00179422  1.00106786  1.00241385  1
  Cr  Cr1  1  0.17027520  0.16875223  0.16907933  1
  Fe  Fe2  1  0.99920439  0.00435825  0.33604930  1
  Cr  Cr3  1  1.00255024  0.33656603  0.00258239  1
  Ni  Ni4  1  0.17134533  0.50440196  0.17061627  1
  Fe  Fe5  1  1.00128490  0.33504311  0.33716201  1
  Fe  Fe6  1  0.00277577  0.67117044  0.00287396  1
  Ni  Ni7  1  0.16855357  0.83454596  0.16697116  1
  Cr  Cr8  1  1.00254749  0.66774850  0.33492639  1
  Ni  Ni9  1  0.33681025  1.00213405  1.00171105  1
  Ni  Ni10  1  0.50415126  0.17068748  0.16888657  1
  Cr  Cr11  1  0.33813976  0.00296310  0.33564999  1
  Ni  Ni12  1  0.33703317  0.33663347  1.00191170  1
  Ni  Ni13  1  0.50185955  0.50120611  0.16804011  1
  Ni  Ni14  1  0.33602322  0.33737783  0.33682062  1
  Ni  Ni15  1  0.33647379  0.66894348  0.00430977  1
  Fe  Fe16  1  0.50256296  0.83535671  0.16731464  1
  Fe  Fe17  1  0.33757669  0.66658379  0.33502049  1
  Ni  Ni18  1  0.66910253  1.00162851  0.00349931  1
  Fe  Fe19  1  0.83351412  0.16851033  0.17009755  1
  Ni  Ni20  1  0.67031223  0.00419643  0.33594049  1
  Fe  Fe21  1  0.66702381  0.33546665  0.00318522  1
  Ni  Ni22  1  0.83450635  0.50297415  0.16848593  1
  Ni  Ni23  1  0.66919340  0.33435598  0.33515212  1
  Ni  Ni24  1  0.66911635  0.66977754  0.00295991  1
  Ni  Ni25  1  0.83643535  0.83684757  0.16813597  1
  Cr  Cr26  1  0.66866030  0.66994188  0.33656606  1
  Ni  Ni27  1  0.16812931  0.17100549  0.50329819  1
  Ni  Ni28  1  1.00185331  0.00416870  0.66934722  1
  Ni  Ni29  1  0.17058717  0.16877265  0.83505795  1
  Fe  Fe30  1  0.16952361  0.50061973  0.50355493  1
  Ni  Ni31  1  0.00294668  0.33627220  0.66791173  1
  Ni  Ni32  1  0.16964033  0.50264489  0.83493037  1
  Cr  Cr33  1  0.16926596  0.83683651  0.50466473  1
  Ni  Ni34  1  1.00115666  0.66727475  0.67080188  1
  Fe  Fe35  1  0.16906705  0.83657101  0.83603497  1
  Fe  Fe36  1  0.50414090  0.16950244  0.50264833  1
  Ni  Ni37  1  0.33689299  0.00338273  0.67039801  1
  Ni  Ni38  1  0.50154200  0.16845021  0.83572629  1
  Ni  Ni39  1  0.50229056  0.50253955  0.50322781  1
  Fe  Fe40  1  0.33504376  0.33565774  0.66938823  1
  Fe  Fe41  1  0.50273849  0.50279664  0.83619770  1
  Ni  Ni42  1  0.50411678  0.83499863  0.50315838  1
  Ni  Ni43  1  0.33692885  0.66871833  0.66862345  1
  Ni  Ni44  1  0.50283103  0.83652884  0.83615936  1
  Ni  Ni45  1  0.83673532  0.16917522  0.50141752  1
  Ni  Ni46  1  0.66896527  1.00159590  0.66826600  1
  Ni  Ni47  1  0.83557809  0.16820289  0.83578135  1
  Ni  Ni48  1  0.83483364  0.50107970  0.50413395  1
  Fe  Fe49  1  0.67025469  0.33601805  0.66870861  1
  Ni  Ni50  1  0.83581164  0.50393182  0.83509392  1
  Ni  Ni51  1  0.83400623  0.83745529  0.50424566  1
  Ni  Ni52  1  0.66962842  0.66980785  0.66835290  1
  Ni  Ni53  1  0.83549154  0.83557927  0.83533490  1
" 