542,Ni67Fe14Cr18_11,-233.062656163157, 177.047449729278,Ni67Fe14Cr18,"# generated using pymatgen
 data_Cr11Fe7Ni36
_symmetry_space_group_name_H-M   'P 1'
_cell_length_a   7.45243353
_cell_length_b   7.45243353
_cell_length_c   10.53933257
_cell_angle_alpha   90.00000000
_cell_angle_beta   90.00000000
_cell_angle_gamma   90.00000000
_symmetry_Int_Tables_number   1
_chemical_formula_structural   Cr11Fe7Ni36
_chemical_formula_sum   'Cr11 Fe7 Ni36'
_cell_volume   585.34152068
_cell_formula_units_Z   1
loop_
 _symmetry_equiv_pos_site_id
 _symmetry_equiv_pos_as_xyz
  1  'x, y, z'
loop_
 _atom_site_type_symbol
 _atom_site_label
 _atom_site_symmetry_multiplicity
 _atom_site_fract_x
 _atom_site_fract_y
 _atom_site_fract_z
 _atom_site_occupancy
  Ni  Ni0  1  0.00129092  0.00250077  0.00163808  1
  Ni  Ni1  1  0.16557066  0.16887466  0.16455848  1
  Cr  Cr2  1  0.99904992  0.99965665  0.33347405  1
  Ni  Ni3  1  0.99982917  0.33434670  0.00190488  1
  Fe  Fe4  1  0.16756148  0.50319735  0.16708680  1
  Fe  Fe5  1  1.00081545  0.33736985  0.33363939  1
  Ni  Ni6  1  1.00075439  0.66627972  0.00264197  1
  Fe  Fe7  1  0.16797090  0.83188211  0.16647533  1
  Ni  Ni8  1  1.00019582  0.66764913  0.33406906  1
  Ni  Ni9  1  0.33320649  0.99929343  0.00175177  1
  Cr  Cr10  1  0.50009091  0.16731329  0.16545972  1
  Cr  Cr11  1  0.33547327  0.99790708  0.33493979  1
  Fe  Fe12  1  0.33316962  0.33633894  1.00081184  1
  Ni  Ni13  1  0.50213346  0.50415500  0.16595293  1
  Cr  Cr14  1  0.33498306  0.33680286  0.33449469  1
  Ni  Ni15  1  0.33545846  0.66805157  0.00168361  1
  Ni  Ni16  1  0.50282474  0.83135801  0.16682307  1
  Ni  Ni17  1  0.33471297  0.66803336  0.33502770  1
  Ni  Ni18  1  0.66839137  1.00030632  0.00308886  1
  Fe  Fe19  1  0.83400436  0.16837705  0.16550412  1
  Fe  Fe20  1  0.66775281  0.99679331  0.33491758  1
  Ni  Ni21  1  0.67015238  0.33641909  1.00013623  1
  Ni  Ni22  1  0.83488112  0.50329767  0.16698424  1
  Cr  Cr23  1  0.66923066  0.33478418  0.33607527  1
  Ni  Ni24  1  0.66692060  0.66620040  0.00123676  1
  Ni  Ni25  1  0.83362205  0.83185949  0.16665457  1
  Ni  Ni26  1  0.66813448  0.66743641  0.33445675  1
  Cr  Cr27  1  0.16687231  0.16862108  0.50363369  1
  Fe  Fe28  1  0.99889187  0.00171370  0.66758271  1
  Ni  Ni29  1  0.16540228  0.16872807  0.83492301  1
  Ni  Ni30  1  0.16638722  0.50358414  0.49893097  1
  Ni  Ni31  1  0.99787370  0.33423430  0.66746630  1
  Ni  Ni32  1  0.16695391  0.49935282  0.83670154  1
  Ni  Ni33  1  0.16799513  0.83184395  0.50113714  1
  Cr  Cr34  1  1.00088177  0.66499086  0.66670760  1
  Cr  Cr35  1  0.16941484  0.83536823  0.83475052  1
  Ni  Ni36  1  0.50379113  0.16613661  0.50204221  1
  Ni  Ni37  1  0.33576292  0.99858241  0.66666234  1
  Cr  Cr38  1  0.50172048  0.16593335  0.83565965  1
  Ni  Ni39  1  0.50205670  0.50381254  0.50176260  1
  Cr  Cr40  1  0.33520884  0.33740852  0.66847758  1
  Ni  Ni41  1  0.50218480  0.50359798  0.83549476  1
  Ni  Ni42  1  0.50213284  0.83256351  0.50142521  1
  Ni  Ni43  1  0.33612524  0.66898113  0.66593169  1
  Ni  Ni44  1  0.50120284  0.83293771  0.83471814  1
  Ni  Ni45  1  0.83313382  0.16776323  0.50136810  1
  Ni  Ni46  1  0.66701896  0.00153748  0.66476647  1
  Ni  Ni47  1  0.83591075  0.16915827  0.83504877  1
  Ni  Ni48  1  0.83448024  0.50181585  0.50092620  1
  Ni  Ni49  1  0.67052541  0.33492588  0.66704622  1
  Ni  Ni50  1  0.83368576  0.49910548  0.83515524  1
  Ni  Ni51  1  0.83263901  0.83314709  0.50055959  1
  Ni  Ni52  1  0.66570178  0.66649182  0.66717148  1
  Cr  Cr53  1  0.83081044  0.83412608  0.83540921  1
" 