7467,Ni67Fe8Cr23_19,-230.176960576658, 162.281504939217,Ni67Fe8Cr23,"# generated using pymatgen
 data_Cr7(FeNi9)2
_symmetry_space_group_name_H-M   'P 1'
_cell_length_a   7.47178272
_cell_length_b   7.47178272
_cell_length_c   10.56669645
_cell_angle_alpha   90.00000000
_cell_angle_beta   90.00000000
_cell_angle_gamma   90.00000000
_symmetry_Int_Tables_number   1
_chemical_formula_structural   Cr7(FeNi9)2
_chemical_formula_sum   'Cr14 Fe4 Ni36'
_cell_volume   589.91263708
_cell_formula_units_Z   2
loop_
 _symmetry_equiv_pos_site_id
 _symmetry_equiv_pos_as_xyz
  1  'x, y, z'
loop_
 _atom_site_type_symbol
 _atom_site_label
 _atom_site_symmetry_multiplicity
 _atom_site_fract_x
 _atom_site_fract_y
 _atom_site_fract_z
 _atom_site_occupancy
  Ni  Ni0  1  0.00264709  0.00144173  0.99959294  1
  Ni  Ni1  1  0.16565961  0.16396717  0.16699635  1
  Ni  Ni2  1  0.00057230  -0.00028430  0.33246205  1
  Cr  Cr3  1  0.99916136  0.33090898  0.99807446  1
  Cr  Cr4  1  0.16796412  0.49941629  0.16931240  1
  Ni  Ni5  1  0.99821621  0.33320327  0.33317486  1
  Cr  Cr6  1  0.00116773  0.66694568  0.99954653  1
  Ni  Ni7  1  0.16823855  0.83579743  0.16748058  1
  Ni  Ni8  1  0.00129223  0.66613997  0.33501158  1
  Ni  Ni9  1  0.33216184  0.99942123  0.99885275  1
  Cr  Cr10  1  0.49931829  0.16713240  0.16712785  1
  Ni  Ni11  1  0.33196723  0.99702634  0.33208868  1
  Ni  Ni12  1  0.33461829  0.33198762  0.99768754  1
  Ni  Ni13  1  0.49968960  0.49886924  0.16632591  1
  Ni  Ni14  1  0.33181925  0.33362232  0.33193276  1
  Fe  Fe15  1  0.33404514  0.66777595  0.99948246  1
  Ni  Ni16  1  0.49636969  0.83335287  0.16703765  1
  Ni  Ni17  1  0.33159776  0.66864646  0.33281412  1
  Ni  Ni18  1  0.66424316  0.00179332  0.99851413  1
  Ni  Ni19  1  0.83373926  0.16712080  0.16794454  1
  Ni  Ni20  1  0.66652326  0.00003485  0.33432055  1
  Ni  Ni21  1  0.66498431  0.33284972  0.99870899  1
  Ni  Ni22  1  0.83135355  0.49624892  0.16817820  1
  Ni  Ni23  1  0.66894686  0.33297878  0.33160085  1
  Cr  Cr24  1  0.66383840  0.66480517  0.00072357  1
  Cr  Cr25  1  0.83482234  0.83566213  0.16649504  1
  Cr  Cr26  1  0.66613069  0.66735912  0.33189684  1
  Cr  Cr27  1  0.16621795  0.16480723  0.49735914  1
  Ni  Ni28  1  0.00074488  0.99714145  0.66703179  1
  Ni  Ni29  1  0.16755807  0.16405286  0.83426781  1
  Fe  Fe30  1  0.16469589  0.50361897  0.49800389  1
  Cr  Cr31  1  -0.00027939  0.33374948  0.66759341  1
  Ni  Ni32  1  0.16820365  0.50115897  0.83156481  1
  Ni  Ni33  1  0.16507592  0.83235867  0.49948316  1
  Ni  Ni34  1  -0.00028831  0.66716610  0.66523841  1
  Ni  Ni35  1  0.16825584  0.83407090  0.83215603  1
  Cr  Cr36  1  0.50008959  0.16400419  0.49780392  1
  Ni  Ni37  1  0.33307848  0.99642097  0.66807575  1
  Ni  Ni38  1  0.49941837  0.16536910  0.83432425  1
  Cr  Cr39  1  0.49914436  0.50054748  0.49838831  1
  Cr  Cr40  1  0.33180398  0.33197613  0.66923282  1
  Ni  Ni41  1  0.49879899  0.49980288  0.83429800  1
  Ni  Ni42  1  0.49927497  0.83390879  0.50055983  1
  Fe  Fe43  1  0.33265915  0.67004852  0.66687929  1
  Ni  Ni44  1  0.49737828  0.83395615  0.83147751  1
  Fe  Fe45  1  0.83287829  0.16335820  0.49812219  1
  Ni  Ni46  1  0.66520791  0.99652432  0.66629054  1
  Ni  Ni47  1  0.83208491  0.16535984  0.83330175  1
  Ni  Ni48  1  0.83509701  0.50171564  0.49869389  1
  Cr  Cr49  1  0.66743776  0.33314131  0.66856486  1
  Ni  Ni50  1  0.83208129  0.49906279  0.83211272  1
  Ni  Ni51  1  0.83458727  0.83256823  0.50082801  1
  Ni  Ni52  1  0.66692286  0.66821172  0.66643558  1
  Cr  Cr53  1  0.83367312  0.83456486  0.83141739  1
" 