8952,Ni67Fe8Cr23_14,-230.132680892586, 165.379981972044,Ni67Fe8Cr23,"# generated using pymatgen
 data_Cr7(FeNi9)2
_symmetry_space_group_name_H-M   'P 1'
_cell_length_a   7.46825053
_cell_length_b   7.46825053
_cell_length_c   10.56170118
_cell_angle_alpha   90.00000000
_cell_angle_beta   90.00000000
_cell_angle_gamma   90.00000000
_symmetry_Int_Tables_number   1
_chemical_formula_structural   Cr7(FeNi9)2
_chemical_formula_sum   'Cr14 Fe4 Ni36'
_cell_volume   589.07641134
_cell_formula_units_Z   2
loop_
 _symmetry_equiv_pos_site_id
 _symmetry_equiv_pos_as_xyz
  1  'x, y, z'
loop_
 _atom_site_type_symbol
 _atom_site_label
 _atom_site_symmetry_multiplicity
 _atom_site_fract_x
 _atom_site_fract_y
 _atom_site_fract_z
 _atom_site_occupancy
  Ni  Ni0  1  0.00012694  0.00018635  0.99715752  1
  Ni  Ni1  1  0.16599593  0.16593475  0.16632434  1
  Ni  Ni2  1  0.00049782  0.99826674  0.33533606  1
  Ni  Ni3  1  0.99906549  0.33279062  0.99892231  1
  Ni  Ni4  1  0.16486993  0.49948892  0.16580762  1
  Ni  Ni5  1  0.99970609  0.33521066  0.33126354  1
  Cr  Cr6  1  0.99958319  0.66588384  0.99942358  1
  Cr  Cr7  1  0.16537943  0.83603921  0.16760369  1
  Ni  Ni8  1  0.99623097  0.66606594  0.33391782  1
  Ni  Ni9  1  0.33310993  0.99911625  0.99931026  1
  Ni  Ni10  1  0.50076877  0.16560404  0.16779374  1
  Ni  Ni11  1  0.33440665  0.00147169  0.33265523  1
  Cr  Cr12  1  0.33284725  0.33219041  0.00374314  1
  Ni  Ni13  1  0.50317363  0.50116045  0.16656548  1
  Cr  Cr14  1  0.33419902  0.33064512  0.33160819  1
  Ni  Ni15  1  0.33390446  0.66795589  0.00016964  1
  Ni  Ni16  1  0.50081433  0.83255059  0.16460477  1
  Cr  Cr17  1  0.33341583  0.66685311  0.33136310  1
  Cr  Cr18  1  0.66539864  0.99988578  0.99929067  1
  Cr  Cr19  1  0.83538368  0.16617664  0.16810849  1
  Ni  Ni20  1  0.66493112  0.99852063  0.33228025  1
  Ni  Ni21  1  0.66764292  0.33362266  0.99975945  1
  Ni  Ni22  1  0.83174468  0.49962571  0.16632119  1
  Ni  Ni23  1  0.66632241  0.33482970  0.33349993  1
  Fe  Fe24  1  0.66652345  0.66628827  0.00086280  1
  Ni  Ni25  1  0.83127975  0.83164114  0.16947919  1
  Ni  Ni26  1  0.66969668  0.66642601  0.33134123  1
  Ni  Ni27  1  0.16845997  0.16332385  0.49996316  1
  Ni  Ni28  1  0.00197969  0.99862892  0.66740713  1
  Ni  Ni29  1  0.16670631  0.16457947  0.83385199  1
  Cr  Cr30  1  0.16634858  0.50033936  0.50046293  1
  Cr  Cr31  1  0.00030522  0.33110531  0.66966880  1
  Ni  Ni32  1  0.16888436  0.50025620  0.83392717  1
  Ni  Ni33  1  0.16579120  0.83642049  0.50043555  1
  Cr  Cr34  1  0.99850476  0.66954472  0.66615765  1
  Ni  Ni35  1  0.16712806  0.83438731  0.83219395  1
  Ni  Ni36  1  0.49899768  0.16779440  0.50031432  1
  Ni  Ni37  1  0.33186511  0.00159240  0.66790535  1
  Ni  Ni38  1  0.49948129  0.16821873  0.83217435  1
  Fe  Fe39  1  0.50231395  0.49960598  0.50137919  1
  Ni  Ni40  1  0.33479791  0.33145269  0.66587786  1
  Cr  Cr41  1  0.49996609  0.50098384  0.83107876  1
  Cr  Cr42  1  0.49940334  0.83305731  0.50126750  1
  Ni  Ni43  1  0.33311305  0.66768761  0.66778095  1
  Fe  Fe44  1  0.49695837  0.83471807  0.83311025  1
  Cr  Cr45  1  0.83356238  0.16687260  0.49706010  1
  Cr  Cr46  1  0.66872787  0.00055781  0.66831981  1
  Ni  Ni47  1  0.83345477  0.16620339  0.83424381  1
  Ni  Ni48  1  0.82927185  0.50103928  0.49909839  1
  Ni  Ni49  1  0.66472743  0.33424299  0.66594755  1
  Fe  Fe50  1  0.83325562  0.49789340  0.83371319  1
  Ni  Ni51  1  0.83373507  0.83123024  0.49727223  1
  Ni  Ni52  1  0.66713382  0.66575001  0.66751758  1
  Ni  Ni53  1  0.83375833  0.83373358  0.83300834  1
" 