4302,Ni67Fe14Cr18_4,-232.930697202992, 177.036703817739,Ni67Fe14Cr18,"# generated using pymatgen
 data_Cr11Fe7Ni36
_symmetry_space_group_name_H-M   'P 1'
_cell_length_a   7.45373526
_cell_length_b   7.45373526
_cell_length_c   10.54117350
_cell_angle_alpha   90.00000000
_cell_angle_beta   90.00000000
_cell_angle_gamma   90.00000000
_symmetry_Int_Tables_number   1
_chemical_formula_structural   Cr11Fe7Ni36
_chemical_formula_sum   'Cr11 Fe7 Ni36'
_cell_volume   585.64830265
_cell_formula_units_Z   1
loop_
 _symmetry_equiv_pos_site_id
 _symmetry_equiv_pos_as_xyz
  1  'x, y, z'
loop_
 _atom_site_type_symbol
 _atom_site_label
 _atom_site_symmetry_multiplicity
 _atom_site_fract_x
 _atom_site_fract_y
 _atom_site_fract_z
 _atom_site_occupancy
  Ni  Ni0  1  0.00089812  0.99946104  0.00164629  1
  Fe  Fe1  1  0.16733695  0.16733484  0.16753573  1
  Ni  Ni2  1  0.00437454  0.00424747  0.33422640  1
  Ni  Ni3  1  0.00227937  0.33565993  0.00173506  1
  Ni  Ni4  1  0.16896249  0.50053515  0.16607045  1
  Ni  Ni5  1  1.00007287  0.33076511  0.33253349  1
  Ni  Ni6  1  0.00091625  0.66755359  0.99991980  1
  Ni  Ni7  1  0.16686605  0.83446722  0.16680044  1
  Cr  Cr8  1  0.00206573  0.66831520  0.33297689  1
  Ni  Ni9  1  0.33337693  1.00033345  0.00368856  1
  Ni  Ni10  1  0.50021613  0.16840297  0.16711861  1
  Ni  Ni11  1  0.33149269  0.99925243  0.33395504  1
  Ni  Ni12  1  0.33283406  0.33543781  0.00226181  1
  Ni  Ni13  1  0.49950954  0.50035753  0.16887663  1
  Fe  Fe14  1  0.33453140  0.33459102  0.33193529  1
  Fe  Fe15  1  0.33260854  0.66646319  0.00149846  1
  Fe  Fe16  1  0.50025243  0.83361708  0.16729655  1
  Ni  Ni17  1  0.33705907  0.66893457  0.33393288  1
  Ni  Ni18  1  0.66840629  0.99909314  0.00200400  1
  Ni  Ni19  1  0.83480772  0.16632153  0.16744443  1
  Cr  Cr20  1  0.66713263  0.00109964  0.33332855  1
  Cr  Cr21  1  0.66814779  0.33522524  1.00063470  1
  Fe  Fe22  1  0.83434415  0.50097170  0.16734098  1
  Ni  Ni23  1  0.66806017  0.33634829  0.33323766  1
  Ni  Ni24  1  0.66855576  0.66815635  0.00211763  1
  Ni  Ni25  1  0.83492335  0.83517490  0.16558464  1
  Ni  Ni26  1  0.66300195  0.66459047  0.33288955  1
  Ni  Ni27  1  0.16593519  0.16543592  0.49947241  1
  Ni  Ni28  1  0.00193246  0.00154206  0.66679809  1
  Cr  Cr29  1  0.16722189  0.16761348  0.83508523  1
  Cr  Cr30  1  0.16934229  0.50051765  0.50227904  1
  Ni  Ni31  1  0.99926270  0.33325188  0.66834203  1
  Ni  Ni32  1  0.16666713  0.50241885  0.83427561  1
  Ni  Ni33  1  0.16998980  0.83705430  0.50237578  1
  Ni  Ni34  1  0.00442183  0.66792887  0.67049115  1
  Ni  Ni35  1  0.16453296  0.83223716  0.83354265  1
  Cr  Cr36  1  0.50049113  0.16849619  0.50251613  1
  Ni  Ni37  1  0.33228356  0.99824872  0.66504493  1
  Cr  Cr38  1  0.50143108  0.16801037  0.83332312  1
  Ni  Ni39  1  0.50006970  0.50147824  0.50015273  1
  Fe  Fe40  1  0.33386479  0.33578266  0.66831433  1
  Ni  Ni41  1  0.49966290  0.50015358  0.83362504  1
  Ni  Ni42  1  0.49757378  0.83299064  0.50002402  1
  Ni  Ni43  1  0.33255303  0.66833370  0.66767936  1
  Cr  Cr44  1  0.50094566  0.83488989  0.83611789  1
  Ni  Ni45  1  0.83645996  0.16800180  0.50261284  1
  Ni  Ni46  1  0.66856261  0.00344683  0.66787944  1
  Fe  Fe47  1  0.83555692  0.16698150  0.83327376  1
  Cr  Cr48  1  0.83285498  0.49849132  0.49910592  1
  Ni  Ni49  1  0.66896707  0.33354996  0.66819958  1
  Ni  Ni50  1  0.83629084  0.50199473  0.83482547  1
  Cr  Cr51  1  0.83540566  0.83630849  0.50167609  1
  Cr  Cr52  1  0.66600650  0.66605800  0.66734571  1
  Ni  Ni53  1  0.83690254  0.83429424  0.83525301  1
" 