2724,Ni67Fe29Cr2_17,-241.354612422449, 216.118191042561,Ni67Fe29Cr2,"# generated using pymatgen
 data_Cr(Fe4Ni9)2
_symmetry_space_group_name_H-M   'P 1'
_cell_length_a   7.41590503
_cell_length_b   7.41590503
_cell_length_c   10.48767347
_cell_angle_alpha   90.00000000
_cell_angle_beta   90.00000000
_cell_angle_gamma   90.00000000
_symmetry_Int_Tables_number   1
_chemical_formula_structural   Cr(Fe4Ni9)2
_chemical_formula_sum   'Cr2 Fe16 Ni36'
_cell_volume   576.77639226
_cell_formula_units_Z   2
loop_
 _symmetry_equiv_pos_site_id
 _symmetry_equiv_pos_as_xyz
  1  'x, y, z'
loop_
 _atom_site_type_symbol
 _atom_site_label
 _atom_site_symmetry_multiplicity
 _atom_site_fract_x
 _atom_site_fract_y
 _atom_site_fract_z
 _atom_site_occupancy
  Fe  Fe0  1  0.00561446  1.00275453  1.00179180  1
  Fe  Fe1  1  0.17247527  0.17013510  0.16892239  1
  Fe  Fe2  1  0.00349126  1.00165479  0.33824550  1
  Ni  Ni3  1  0.00384675  0.33689695  1.00275331  1
  Ni  Ni4  1  0.17158676  0.50382702  0.17010107  1
  Fe  Fe5  1  0.00349694  0.33871573  0.33752227  1
  Fe  Fe6  1  0.00492035  0.67008370  0.00426141  1
  Ni  Ni7  1  0.17046261  0.83592473  0.17018390  1
  Ni  Ni8  1  1.00293927  0.67097601  0.33634904  1
  Ni  Ni9  1  0.33605801  1.00215451  0.00493123  1
  Fe  Fe10  1  0.50122883  0.16964081  0.17079324  1
  Fe  Fe11  1  0.33797929  1.00231502  0.33697442  1
  Ni  Ni12  1  0.33507045  0.33728324  0.00399448  1
  Ni  Ni13  1  0.50195044  0.50321991  0.17024391  1
  Ni  Ni14  1  0.33695001  0.33670500  0.33615685  1
  Ni  Ni15  1  0.33745872  0.67084373  1.00327514  1
  Ni  Ni16  1  0.50252829  0.83570683  0.17041867  1
  Ni  Ni17  1  0.33663514  0.66999221  0.33644444  1
  Fe  Fe18  1  0.66940912  1.00170331  0.00388753  1
  Cr  Cr19  1  0.83665926  0.17027509  0.17011685  1
  Ni  Ni20  1  0.67022308  1.00232651  0.33808213  1
  Fe  Fe21  1  0.66907246  0.33875329  1.00305462  1
  Fe  Fe22  1  0.83700370  0.50645544  0.17043277  1
  Ni  Ni23  1  0.66927644  0.33714085  0.33695939  1
  Fe  Fe24  1  0.66896245  0.66990384  1.00310980  1
  Ni  Ni25  1  0.83747802  0.83647561  0.17040436  1
  Ni  Ni26  1  0.67077182  0.67092138  0.33598051  1
  Fe  Fe27  1  0.17040526  0.16991916  0.50477087  1
  Ni  Ni28  1  1.00339759  0.00415419  0.67097093  1
  Ni  Ni29  1  0.16815230  0.16974617  0.83717418  1
  Fe  Fe30  1  0.17052804  0.50392321  0.50269113  1
  Ni  Ni31  1  1.00261422  0.33530923  0.67010357  1
  Fe  Fe32  1  0.17013783  0.50321666  0.83748324  1
  Ni  Ni33  1  0.17026530  0.83658235  0.50304573  1
  Fe  Fe34  1  0.00347818  0.66999378  0.66949590  1
  Ni  Ni35  1  0.17029444  0.83719607  0.83719499  1
  Ni  Ni36  1  0.50397285  0.17134528  0.50283239  1
  Ni  Ni37  1  0.33499436  1.00207737  0.66930293  1
  Cr  Cr38  1  0.50294423  0.17114753  0.83643875  1
  Ni  Ni39  1  0.50343060  0.50261126  0.50346285  1
  Ni  Ni40  1  0.33582519  0.33745921  0.67018905  1
  Ni  Ni41  1  0.50325326  0.50463492  0.83654345  1
  Ni  Ni42  1  0.50235789  0.83639781  0.50347201  1
  Ni  Ni43  1  0.33808685  0.67082746  0.67063402  1
  Ni  Ni44  1  0.50226107  0.83467664  0.83647939  1
  Ni  Ni45  1  0.83645355  0.17091516  0.50438308  1
  Fe  Fe46  1  0.67050346  1.00301567  0.66865949  1
  Ni  Ni47  1  0.83913966  0.17084130  0.83609708  1
  Ni  Ni48  1  0.83622799  0.50232924  0.50203836  1
  Ni  Ni49  1  0.67184804  0.33840950  0.66973790  1
  Ni  Ni50  1  0.83656586  0.50251394  0.83764680  1
  Ni  Ni51  1  0.83777867  0.83713983  0.50317202  1
  Ni  Ni52  1  0.66983020  0.67006634  0.67004519  1
  Ni  Ni53  1  0.83790505  0.83696664  0.83674477  1
" 