3667,Ni67Fe8Cr23_18,-230.351599861441, 166.202408301053,Ni67Fe8Cr23,"# generated using pymatgen
 data_Cr7(FeNi9)2
_symmetry_space_group_name_H-M   'P 1'
_cell_length_a   7.47115406
_cell_length_b   7.47115406
_cell_length_c   10.56580740
_cell_angle_alpha   90.00000000
_cell_angle_beta   90.00000000
_cell_angle_gamma   90.00000000
_symmetry_Int_Tables_number   1
_chemical_formula_structural   Cr7(FeNi9)2
_chemical_formula_sum   'Cr14 Fe4 Ni36'
_cell_volume   589.76374907
_cell_formula_units_Z   2
loop_
 _symmetry_equiv_pos_site_id
 _symmetry_equiv_pos_as_xyz
  1  'x, y, z'
loop_
 _atom_site_type_symbol
 _atom_site_label
 _atom_site_symmetry_multiplicity
 _atom_site_fract_x
 _atom_site_fract_y
 _atom_site_fract_z
 _atom_site_occupancy
  Cr  Cr0  1  0.00153167  -0.00016780  0.00048598  1
  Ni  Ni1  1  0.16558833  0.16609536  0.16711129  1
  Ni  Ni2  1  0.99733208  0.99809169  0.33183716  1
  Ni  Ni3  1  0.99871035  0.33202341  0.99931207  1
  Cr  Cr4  1  0.16533324  0.49953036  0.16702193  1
  Ni  Ni5  1  0.99819682  0.33377692  0.33249830  1
  Cr  Cr6  1  0.99951120  0.66809677  0.99928709  1
  Ni  Ni7  1  0.16505972  0.83459406  0.16804820  1
  Ni  Ni8  1  0.99898741  0.66717357  0.33401208  1
  Ni  Ni9  1  0.33233754  0.99944389  0.99900660  1
  Ni  Ni10  1  0.49931591  0.16846457  0.16717553  1
  Cr  Cr11  1  0.33353185  0.99859947  0.33117493  1
  Cr  Cr12  1  0.33396659  0.32958069  0.99954664  1
  Ni  Ni13  1  0.50285814  0.49887807  0.16784960  1
  Ni  Ni14  1  0.33425146  0.33565062  0.33269273  1
  Fe  Fe15  1  0.33367973  0.66849959  -0.00022705  1
  Cr  Cr16  1  0.50070218  0.83084455  0.16566427  1
  Ni  Ni17  1  0.33296815  0.66476029  0.33396812  1
  Cr  Cr18  1  0.66472874  0.00070247  0.99884259  1
  Fe  Fe19  1  0.83316815  0.16770292  0.16788745  1
  Ni  Ni20  1  0.66907838  0.99945076  0.33315870  1
  Ni  Ni21  1  0.66705943  0.33316411  0.00193332  1
  Ni  Ni22  1  0.83124987  0.49987828  0.16692525  1
  Ni  Ni23  1  0.66662150  0.33417862  0.33179489  1
  Ni  Ni24  1  0.66667077  0.66610793  0.00054703  1
  Ni  Ni25  1  0.83357608  0.83072844  0.16880365  1
  Ni  Ni26  1  0.66728062  0.66562816  0.33397991  1
  Cr  Cr27  1  0.16480537  0.16614028  0.49939835  1
  Ni  Ni28  1  0.99876788  0.99838623  0.66743124  1
  Ni  Ni29  1  0.16694222  0.16464362  0.83233817  1
  Ni  Ni30  1  0.16787566  0.50018446  0.49887745  1
  Cr  Cr31  1  0.00022707  0.33262522  0.66747560  1
  Fe  Fe32  1  0.16790801  0.50001924  0.83236725  1
  Fe  Fe33  1  0.16660198  0.83210392  0.49936242  1
  Cr  Cr34  1  0.99939917  0.66817490  0.66496386  1
  Ni  Ni35  1  0.16884415  0.83558499  0.83211530  1
  Cr  Cr36  1  0.50009419  0.16486818  0.50022147  1
  Ni  Ni37  1  0.33353276  0.99788911  0.66891883  1
  Ni  Ni38  1  0.49810844  0.16431593  0.83191696  1
  Ni  Ni39  1  0.49861051  0.50286804  0.49810410  1
  Ni  Ni40  1  0.33267146  0.33405257  0.66690030  1
  Cr  Cr41  1  0.50029060  0.50228456  0.83335035  1
  Ni  Ni42  1  0.50150028  0.83038643  0.50132176  1
  Ni  Ni43  1  0.33371507  0.66744383  0.66607242  1
  Ni  Ni44  1  0.49871117  0.83360444  0.83253642  1
  Ni  Ni45  1  0.83417033  0.16387265  0.49780142  1
  Ni  Ni46  1  0.66699107  0.99712265  0.66777053  1
  Ni  Ni47  1  0.83401724  0.16482195  0.83351091  1
  Ni  Ni48  1  0.83266153  0.50131768  0.49669192  1
  Cr  Cr49  1  0.66572875  0.33243548  0.66479213  1
  Cr  Cr50  1  0.83182929  0.50049083  0.83523041  1
  Ni  Ni51  1  0.83147671  0.83401113  0.49927661  1
  Ni  Ni52  1  0.66474741  0.66979097  0.66479638  1
  Ni  Ni53  1  0.83163546  0.83424263  0.83127888  1
" 