2128,Ni67Fe8Cr23_2,-230.413185110205, 166.176091319589,Ni67Fe8Cr23,"# generated using pymatgen
 data_Cr7(FeNi9)2
_symmetry_space_group_name_H-M   'P 1'
_cell_length_a   7.46742309
_cell_length_b   7.46742309
_cell_length_c   10.56053102
_cell_angle_alpha   90.00000000
_cell_angle_beta   90.00000000
_cell_angle_gamma   90.00000000
_symmetry_Int_Tables_number   1
_chemical_formula_structural   Cr7(FeNi9)2
_chemical_formula_sum   'Cr14 Fe4 Ni36'
_cell_volume   588.88063559
_cell_formula_units_Z   2
loop_
 _symmetry_equiv_pos_site_id
 _symmetry_equiv_pos_as_xyz
  1  'x, y, z'
loop_
 _atom_site_type_symbol
 _atom_site_label
 _atom_site_symmetry_multiplicity
 _atom_site_fract_x
 _atom_site_fract_y
 _atom_site_fract_z
 _atom_site_occupancy
  Ni  Ni0  1  0.99649063  0.00281714  0.99814310  1
  Cr  Cr1  1  0.16524201  0.16538972  0.16659736  1
  Ni  Ni2  1  0.99857593  0.00162746  0.33708122  1
  Ni  Ni3  1  0.99786041  0.33408404  0.00026500  1
  Fe  Fe4  1  0.16481108  0.49810962  0.16649763  1
  Ni  Ni5  1  0.99699984  0.33352260  0.33391178  1
  Fe  Fe6  1  0.99772369  0.66476069  0.99994377  1
  Cr  Cr7  1  0.16538966  0.83534634  0.16671499  1
  Ni  Ni8  1  0.99862340  0.66442750  0.33443512  1
  Ni  Ni9  1  0.33695378  0.00141755  0.00054116  1
  Ni  Ni10  1  0.50190780  0.16675400  0.16535576  1
  Ni  Ni11  1  0.33532624  0.99964367  0.33431856  1
  Ni  Ni12  1  0.33376495  0.33289774  0.99966266  1
  Ni  Ni13  1  0.50354600  0.49774696  0.16730754  1
  Cr  Cr14  1  0.33450123  0.33192762  0.33516547  1
  Cr  Cr15  1  0.33449516  0.66623646  0.00159014  1
  Ni  Ni16  1  0.50090395  0.83559437  0.16754362  1
  Cr  Cr17  1  0.33514764  0.66735363  0.33333217  1
  Ni  Ni18  1  0.66649929  0.00244981  0.99894561  1
  Ni  Ni19  1  0.83203811  0.16851504  0.16665216  1
  Ni  Ni20  1  0.66564471  0.00156662  0.33349455  1
  Ni  Ni21  1  0.66835200  0.33102935  0.00086767  1
  Ni  Ni22  1  0.83267541  0.49781812  0.16772458  1
  Ni  Ni23  1  0.66888228  0.33276545  0.33265721  1
  Cr  Cr24  1  0.66698040  0.66755706  0.99959514  1
  Cr  Cr25  1  0.83317965  0.83456940  0.16911662  1
  Ni  Ni26  1  0.66711607  0.66573847  0.33466461  1
  Ni  Ni27  1  0.16541583  0.16484904  0.49897049  1
  Ni  Ni28  1  0.99632209  0.00081729  0.66476131  1
  Cr  Cr29  1  0.16755468  0.16752949  0.83386695  1
  Ni  Ni30  1  0.16524305  0.49957778  0.49861912  1
  Cr  Cr31  1  0.99825792  0.33164696  0.66538860  1
  Ni  Ni32  1  0.16490394  0.49855145  0.83606990  1
  Ni  Ni33  1  0.16484492  0.83507959  0.49760146  1
  Cr  Cr34  1  0.99805313  0.66654137  0.66708519  1
  Cr  Cr35  1  0.16481165  0.83470245  0.83595541  1
  Ni  Ni36  1  0.50253442  0.16666867  0.50002532  1
  Cr  Cr37  1  0.33499960  0.00030305  0.66482620  1
  Ni  Ni38  1  0.50288611  0.16618355  0.83457779  1
  Ni  Ni39  1  0.50388143  0.49923005  0.50110453  1
  Fe  Fe40  1  0.33460786  0.33222661  0.66438204  1
  Cr  Cr41  1  0.50179949  0.49625127  0.82987907  1
  Ni  Ni42  1  0.50210612  0.83390457  0.49864151  1
  Cr  Cr43  1  0.33399319  0.66625994  0.66482420  1
  Ni  Ni44  1  0.50325945  0.83593150  0.83365953  1
  Ni  Ni45  1  0.83210145  0.16676386  0.49853508  1
  Ni  Ni46  1  0.66779085  0.00090516  0.66764215  1
  Ni  Ni47  1  0.83125181  0.16625451  0.83451998  1
  Ni  Ni48  1  0.83088979  0.49964518  0.49817240  1
  Ni  Ni49  1  0.66802740  0.33162158  0.66600751  1
  Ni  Ni50  1  0.83308519  0.49903018  0.83420624  1
  Fe  Fe51  1  0.83159851  0.83404462  0.49948914  1
  Ni  Ni52  1  0.66714225  0.66757315  0.66553478  1
  Ni  Ni53  1  0.83164893  0.83488304  0.83217129  1
" 