6347,Ni67Fe8Cr23_7,-230.232485645099, 166.811665378705,Ni67Fe8Cr23,"# generated using pymatgen
 data_Cr7(FeNi9)2
_symmetry_space_group_name_H-M   'P 1'
_cell_length_a   7.46991843
_cell_length_b   7.46991843
_cell_length_c   10.56405995
_cell_angle_alpha   90.00000000
_cell_angle_beta   90.00000000
_cell_angle_gamma   90.00000000
_symmetry_Int_Tables_number   1
_chemical_formula_structural   Cr7(FeNi9)2
_chemical_formula_sum   'Cr14 Fe4 Ni36'
_cell_volume   589.47117927
_cell_formula_units_Z   2
loop_
 _symmetry_equiv_pos_site_id
 _symmetry_equiv_pos_as_xyz
  1  'x, y, z'
loop_
 _atom_site_type_symbol
 _atom_site_label
 _atom_site_symmetry_multiplicity
 _atom_site_fract_x
 _atom_site_fract_y
 _atom_site_fract_z
 _atom_site_occupancy
  Ni  Ni0  1  0.00140653  0.99780110  0.00156813  1
  Ni  Ni1  1  0.16489471  0.16748218  0.16710229  1
  Ni  Ni2  1  0.99930089  0.00034659  0.33177582  1
  Fe  Fe3  1  0.00154945  0.33416336  -0.00016818  1
  Cr  Cr4  1  0.16620104  0.49992383  0.16632092  1
  Ni  Ni5  1  0.00090469  0.33234906  0.33379829  1
  Ni  Ni6  1  0.99852476  0.66835030  0.99813203  1
  Ni  Ni7  1  0.16525836  0.83221296  0.16707958  1
  Ni  Ni8  1  0.99789021  0.66674505  0.33377096  1
  Cr  Cr9  1  0.33036724  0.00044098  0.99926680  1
  Ni  Ni10  1  0.49843631  0.16752369  0.16673753  1
  Cr  Cr11  1  0.33023152  0.00229622  0.33102565  1
  Ni  Ni12  1  0.33285464  0.33350015  0.99887252  1
  Fe  Fe13  1  0.49945321  0.50183014  0.16587286  1
  Ni  Ni14  1  0.33227154  0.33390393  0.33413323  1
  Ni  Ni15  1  0.33332407  0.66535642  0.99826768  1
  Ni  Ni16  1  0.50025191  0.82970223  0.16659892  1
  Ni  Ni17  1  0.33365980  0.66345242  0.33230372  1
  Cr  Cr18  1  0.66756397  0.99735083  0.00065164  1
  Ni  Ni19  1  0.83615886  0.16670733  0.16701037  1
  Cr  Cr20  1  0.66936255  0.99914015  0.33184077  1
  Cr  Cr21  1  0.66505127  0.33660363  0.00087851  1
  Ni  Ni22  1  0.83369304  0.50173590  0.16698522  1
  Cr  Cr23  1  0.66628052  0.33521013  0.33307835  1
  Ni  Ni24  1  0.66761501  0.66559978  0.00030886  1
  Ni  Ni25  1  0.83393436  0.83105694  0.16699777  1
  Ni  Ni26  1  0.66792814  0.66524691  0.33116561  1
  Ni  Ni27  1  0.16426368  0.17208085  0.49710933  1
  Cr  Cr28  1  0.99947061  0.99854214  0.66612691  1
  Ni  Ni29  1  0.16653498  0.16929626  0.83528010  1
  Ni  Ni30  1  0.16544790  0.49864754  0.49935728  1
  Ni  Ni31  1  0.99877551  0.33591926  0.66605738  1
  Ni  Ni32  1  0.16592406  0.50117994  0.83333484  1
  Cr  Cr33  1  0.16498254  0.82873785  0.49826594  1
  Ni  Ni34  1  0.00032210  0.66388046  0.66738267  1
  Ni  Ni35  1  0.16621026  0.82904147  0.83381351  1
  Ni  Ni36  1  0.50187863  0.16909760  0.50144846  1
  Cr  Cr37  1  0.33360018  0.00011656  0.66913531  1
  Ni  Ni38  1  0.49948410  0.16735654  0.83122503  1
  Fe  Fe39  1  0.49831779  0.49892210  0.49940940  1
  Cr  Cr40  1  0.33279496  0.33422062  0.66647196  1
  Ni  Ni41  1  0.49839479  0.50110655  0.83424555  1
  Cr  Cr42  1  0.50151508  0.83218680  0.50030609  1
  Ni  Ni43  1  0.33105756  0.66441621  0.66882098  1
  Ni  Ni44  1  0.49986357  0.83092122  0.83269688  1
  Ni  Ni45  1  0.83326050  0.16763308  0.50070926  1
  Ni  Ni46  1  0.66672889  0.00172819  0.66662503  1
  Cr  Cr47  1  0.83315431  0.16748980  0.83222717  1
  Fe  Fe48  1  0.83597861  0.49916319  0.49974718  1
  Ni  Ni49  1  0.66719706  0.33222231  0.66557014  1
  Ni  Ni50  1  0.83517274  0.50153070  0.83247009  1
  Ni  Ni51  1  0.83299136  0.83273687  0.49852332  1
  Cr  Cr52  1  0.66855919  0.66506867  0.66800608  1
  Ni  Ni53  1  0.83337388  0.83034844  0.83388168  1
" 