7035,Ni67Fe14Cr18_17,-233.324243482398, 176.830500832234,Ni67Fe14Cr18,"# generated using pymatgen
 data_Cr11Fe7Ni36
_symmetry_space_group_name_H-M   'P 1'
_cell_length_a   7.45531710
_cell_length_b   7.45531710
_cell_length_c   10.54341055
_cell_angle_alpha   90.00000000
_cell_angle_beta   90.00000000
_cell_angle_gamma   90.00000000
_symmetry_Int_Tables_number   1
_chemical_formula_structural   Cr11Fe7Ni36
_chemical_formula_sum   'Cr11 Fe7 Ni36'
_cell_volume   586.02124122
_cell_formula_units_Z   1
loop_
 _symmetry_equiv_pos_site_id
 _symmetry_equiv_pos_as_xyz
  1  'x, y, z'
loop_
 _atom_site_type_symbol
 _atom_site_label
 _atom_site_symmetry_multiplicity
 _atom_site_fract_x
 _atom_site_fract_y
 _atom_site_fract_z
 _atom_site_occupancy
  Fe  Fe0  1  0.00228662  0.99917090  0.99967330  1
  Fe  Fe1  1  0.16853438  0.16898570  0.16681380  1
  Cr  Cr2  1  0.00196658  1.00016730  0.33594987  1
  Ni  Ni3  1  0.00410105  0.33445683  0.99877108  1
  Ni  Ni4  1  0.16796926  0.50211420  0.16742849  1
  Ni  Ni5  1  0.00190068  0.33381833  0.33479306  1
  Ni  Ni6  1  0.00180524  0.66790448  0.99987370  1
  Ni  Ni7  1  0.16878681  0.83185495  0.16683742  1
  Ni  Ni8  1  0.00158398  0.66798586  0.33356103  1
  Ni  Ni9  1  0.33324544  1.00001678  0.99986210  1
  Cr  Cr10  1  0.49927319  0.16599043  0.16868974  1
  Ni  Ni11  1  0.33377767  0.99937766  0.33469883  1
  Ni  Ni12  1  0.33099814  0.33448655  0.99945910  1
  Fe  Fe13  1  0.49764105  0.50328542  0.16858414  1
  Ni  Ni14  1  0.33353501  0.33514913  0.33357721  1
  Ni  Ni15  1  0.33327629  0.66785739  1.00074790  1
  Fe  Fe16  1  0.50012357  0.83250319  0.16745945  1
  Ni  Ni17  1  0.33502801  0.66783483  0.33357438  1
  Ni  Ni18  1  0.66730584  0.99771994  0.99860226  1
  Cr  Cr19  1  0.83370435  0.16696239  0.16762487  1
  Ni  Ni20  1  0.66707547  0.99906089  0.33582941  1
  Cr  Cr21  1  0.66654997  0.33512255  0.99783165  1
  Cr  Cr22  1  0.83605256  0.50274684  0.16908240  1
  Ni  Ni23  1  0.66692261  0.33507344  0.33529146  1
  Ni  Ni24  1  0.66727706  0.67015191  0.99941833  1
  Fe  Fe25  1  0.83373194  0.83254265  0.16674654  1
  Ni  Ni26  1  0.66574561  0.66822536  0.33473571  1
  Ni  Ni27  1  0.16731893  0.16718004  0.49943216  1
  Cr  Cr28  1  0.00138310  0.00238611  0.66668182  1
  Ni  Ni29  1  0.16910174  0.16897762  0.83588749  1
  Cr  Cr30  1  0.16856205  0.50056482  0.50034553  1
  Ni  Ni31  1  0.00181623  0.33199192  0.66879869  1
  Ni  Ni32  1  0.16703232  0.49935711  0.83540572  1
  Ni  Ni33  1  0.16996340  0.83513691  0.49979638  1
  Cr  Cr34  1  0.00142314  0.66765884  0.66838505  1
  Ni  Ni35  1  0.16896683  0.83402459  0.83572442  1
  Cr  Cr36  1  0.50029881  0.16568674  0.49991193  1
  Ni  Ni37  1  0.33467158  0.99929108  0.66780017  1
  Ni  Ni38  1  0.49906862  0.16533168  0.83428289  1
  Ni  Ni39  1  0.50056932  0.50327551  0.49882741  1
  Fe  Fe40  1  0.33296270  0.33413312  0.66938974  1
  Ni  Ni41  1  0.49993710  0.50180861  0.83467344  1
  Ni  Ni42  1  0.50115879  0.83356719  0.50048365  1
  Ni  Ni43  1  0.33686672  0.66895882  0.66803880  1
  Ni  Ni44  1  0.50165150  0.83522108  0.83425106  1
  Ni  Ni45  1  0.83446867  0.16658809  0.49982965  1
  Ni  Ni46  1  0.66625339  0.99883601  0.66792815  1
  Fe  Fe47  1  0.83475857  0.16692384  0.83443701  1
  Cr  Cr48  1  0.83350494  0.50092303  0.49859631  1
  Cr  Cr49  1  0.66804176  0.33452402  0.66919492  1
  Ni  Ni50  1  0.83538876  0.50194047  0.83513865  1
  Ni  Ni51  1  0.83123762  0.83514035  0.49867054  1
  Ni  Ni52  1  0.66413597  0.66933750  0.66820636  1
  Ni  Ni53  1  0.83174203  0.83315194  0.83684775  1
" 