6539,Ni67Fe8Cr23_8,-230.291981071751, 166.597635971623,Ni67Fe8Cr23,"# generated using pymatgen
 data_Cr7(FeNi9)2
_symmetry_space_group_name_H-M   'P 1'
_cell_length_a   7.46770457
_cell_length_b   7.46770457
_cell_length_c   10.56092908
_cell_angle_alpha   90.00000000
_cell_angle_beta   90.00000000
_cell_angle_gamma   90.00000000
_symmetry_Int_Tables_number   1
_chemical_formula_structural   Cr7(FeNi9)2
_chemical_formula_sum   'Cr14 Fe4 Ni36'
_cell_volume   588.94722873
_cell_formula_units_Z   2
loop_
 _symmetry_equiv_pos_site_id
 _symmetry_equiv_pos_as_xyz
  1  'x, y, z'
loop_
 _atom_site_type_symbol
 _atom_site_label
 _atom_site_symmetry_multiplicity
 _atom_site_fract_x
 _atom_site_fract_y
 _atom_site_fract_z
 _atom_site_occupancy
  Cr  Cr0  1  0.00016717  0.99935644  0.99965900  1
  Ni  Ni1  1  0.16728397  0.16652513  0.16818925  1
  Ni  Ni2  1  0.00349982  0.99976088  0.33174615  1
  Ni  Ni3  1  0.99925193  0.33390285  0.00064539  1
  Ni  Ni4  1  0.16270484  0.49833604  0.16717339  1
  Ni  Ni5  1  0.00107205  0.33388067  0.33221845  1
  Ni  Ni6  1  0.99953997  0.66658122  0.00106043  1
  Ni  Ni7  1  0.16330354  0.83507144  0.16690400  1
  Ni  Ni8  1  0.99942861  0.66628947  0.33171157  1
  Fe  Fe9  1  0.33202689  0.00187469  0.00113877  1
  Ni  Ni10  1  0.49796390  0.16890837  0.16718616  1
  Ni  Ni11  1  0.33061022  0.00270859  0.33329674  1
  Cr  Cr12  1  0.33373215  0.33371080  0.99967767  1
  Ni  Ni13  1  0.50346746  0.49681943  0.16668122  1
  Ni  Ni14  1  0.33357156  0.33137257  0.33372555  1
  Cr  Cr15  1  0.33085201  0.66499839  0.00024919  1
  Cr  Cr16  1  0.49998138  0.83373938  0.16667006  1
  Cr  Cr17  1  0.33176246  0.66500227  0.33460346  1
  Cr  Cr18  1  0.66793464  0.00221416  0.99937923  1
  Fe  Fe19  1  0.83475412  0.16990956  0.16715174  1
  Cr  Cr20  1  0.66629805  0.00092327  0.33350497  1
  Ni  Ni21  1  0.66650978  0.33346543  0.00089700  1
  Ni  Ni22  1  0.83370871  0.50075050  0.16618440  1
  Ni  Ni23  1  0.66522356  0.33544918  0.33174629  1
  Ni  Ni24  1  0.66866210  0.66456182  0.00075423  1
  Ni  Ni25  1  0.83604768  0.82952897  0.16693928  1
  Ni  Ni26  1  0.66820559  0.66328605  0.33327505  1
  Ni  Ni27  1  0.16807391  0.16747397  0.49964222  1
  Ni  Ni28  1  0.00123681  0.99957009  0.66861034  1
  Fe  Fe29  1  0.16525717  0.16874720  0.83204025  1
  Ni  Ni30  1  0.16569415  0.49856242  0.50126761  1
  Ni  Ni31  1  0.00376801  0.33321953  0.66699788  1
  Ni  Ni32  1  0.16618016  0.49936691  0.83143808  1
  Ni  Ni33  1  0.16696238  0.83383028  0.50023805  1
  Ni  Ni34  1  0.00232129  0.66707206  0.66700558  1
  Fe  Fe35  1  0.16392966  0.83155321  0.83204149  1
  Ni  Ni36  1  0.49550828  0.16806240  0.49810186  1
  Cr  Cr37  1  0.33166004  0.00076842  0.66571787  1
  Ni  Ni38  1  0.49904031  0.16838874  0.83454974  1
  Ni  Ni39  1  0.49987307  0.50010360  0.50069302  1
  Ni  Ni40  1  0.33161141  0.33584289  0.66661233  1
  Ni  Ni41  1  0.49853365  0.49891086  0.83250300  1
  Ni  Ni42  1  0.49805894  0.83170755  0.50018718  1
  Ni  Ni43  1  0.33216492  0.66355788  0.66586160  1
  Cr  Cr44  1  0.50064478  0.83154423  0.83359672  1
  Cr  Cr45  1  0.83677384  0.16947266  0.49905565  1
  Cr  Cr46  1  0.66850164  0.99986832  0.66703024  1
  Ni  Ni47  1  0.83510832  0.16614403  0.83374816  1
  Ni  Ni48  1  0.83430381  0.50119189  0.49915610  1
  Cr  Cr49  1  0.66455865  0.33401227  0.66656305  1
  Cr  Cr50  1  0.83481329  0.50092233  0.83398098  1
  Cr  Cr51  1  0.83459476  0.82966351  0.50057045  1
  Ni  Ni52  1  0.66536868  0.66614344  0.66581445  1
  Ni  Ni53  1  0.83551864  0.83299644  0.83223221  1
" 