1436,Ni67Fe29Cr2_6,-241.017107287028, 216.184216799117,Ni67Fe29Cr2,"# generated using pymatgen
 data_Cr(Fe4Ni9)2
_symmetry_space_group_name_H-M   'P 1'
_cell_length_a   7.41078417
_cell_length_b   7.41078417
_cell_length_c   10.48043149
_cell_angle_alpha   90.00000000
_cell_angle_beta   90.00000000
_cell_angle_gamma   90.00000000
_symmetry_Int_Tables_number   1
_chemical_formula_structural   Cr(Fe4Ni9)2
_chemical_formula_sum   'Cr2 Fe16 Ni36'
_cell_volume   575.58238464
_cell_formula_units_Z   2
loop_
 _symmetry_equiv_pos_site_id
 _symmetry_equiv_pos_as_xyz
  1  'x, y, z'
loop_
 _atom_site_type_symbol
 _atom_site_label
 _atom_site_symmetry_multiplicity
 _atom_site_fract_x
 _atom_site_fract_y
 _atom_site_fract_z
 _atom_site_occupancy
  Ni  Ni0  1  0.00468757  1.00374637  0.00414467  1
  Ni  Ni1  1  0.17098202  0.16896375  0.17070215  1
  Ni  Ni2  1  0.00442443  1.00320361  0.33699490  1
  Ni  Ni3  1  1.00358542  0.33634813  1.00249366  1
  Cr  Cr4  1  0.17049712  0.50261789  0.17022312  1
  Ni  Ni5  1  1.00332573  0.33671531  0.33861717  1
  Fe  Fe6  1  0.00440411  0.67114520  1.00266913  1
  Ni  Ni7  1  0.16962382  0.83901521  0.17016378  1
  Fe  Fe8  1  1.00284313  0.67156272  0.33883393  1
  Ni  Ni9  1  0.33640407  1.00373675  1.00373140  1
  Ni  Ni10  1  0.50396057  0.17029862  0.16945904  1
  Ni  Ni11  1  0.33651185  1.00326361  0.33732081  1
  Ni  Ni12  1  0.33780319  0.33665866  1.00274583  1
  Ni  Ni13  1  0.50481596  0.50231687  0.17135072  1
  Ni  Ni14  1  0.33793165  0.33697975  0.33821262  1
  Fe  Fe15  1  0.33687634  0.67120704  1.00254727  1
  Ni  Ni16  1  0.50422424  0.83877527  0.17194720  1
  Fe  Fe17  1  0.33774276  0.67135076  0.33808400  1
  Ni  Ni18  1  0.67029979  0.00491340  0.00386558  1
  Fe  Fe19  1  0.83685198  0.16972075  0.16993315  1
  Ni  Ni20  1  0.67045203  1.00330038  0.33664151  1
  Ni  Ni21  1  0.66999942  0.33657916  0.00432439  1
  Fe  Fe22  1  0.83592066  0.50276267  0.17126509  1
  Ni  Ni23  1  0.67012898  0.33804364  0.33608714  1
  Cr  Cr24  1  0.66963904  0.66984405  1.00289483  1
  Ni  Ni25  1  0.83753974  0.83816184  0.17095905  1
  Fe  Fe26  1  0.67080396  0.67058932  0.33652591  1
  Ni  Ni27  1  0.17146351  0.17071447  0.50340886  1
  Ni  Ni28  1  1.00344363  1.00271655  0.67024380  1
  Ni  Ni29  1  0.17032317  0.17109033  0.83728027  1
  Ni  Ni30  1  0.16936609  0.50360852  0.50384983  1
  Fe  Fe31  1  1.00358402  0.33752204  0.67073017  1
  Ni  Ni32  1  0.16974357  0.50357082  0.83718806  1
  Ni  Ni33  1  0.16934672  0.83706480  0.50336811  1
  Ni  Ni34  1  0.00500111  0.67092015  0.67083718  1
  Fe  Fe35  1  0.17073604  0.83710442  0.83684382  1
  Ni  Ni36  1  0.50340079  0.17020133  0.50387949  1
  Fe  Fe37  1  0.33718728  1.00367484  0.67039542  1
  Ni  Ni38  1  0.50429538  0.16982432  0.83805023  1
  Fe  Fe39  1  0.50326382  0.50339760  0.50371143  1
  Fe  Fe40  1  0.33689208  0.33694830  0.67060913  1
  Ni  Ni41  1  0.50322471  0.50318344  0.83627716  1
  Fe  Fe42  1  0.50328961  0.83746829  0.50392765  1
  Ni  Ni43  1  0.33632572  0.66988313  0.67080733  1
  Ni  Ni44  1  0.50376113  0.83838239  0.83626895  1
  Fe  Fe45  1  0.83773599  0.17024758  0.50409461  1
  Ni  Ni46  1  0.67108186  0.00429798  0.67088374  1
  Ni  Ni47  1  0.83676899  0.17055924  0.83713513  1
  Ni  Ni48  1  0.83783568  0.50492796  0.50334241  1
  Ni  Ni49  1  0.67004443  0.33721321  0.67097578  1
  Ni  Ni50  1  0.83842037  0.50303576  0.83689242  1
  Ni  Ni51  1  0.83732106  0.83628022  0.50427488  1
  Fe  Fe52  1  0.67118780  0.67075909  0.67085805  1
  Fe  Fe53  1  0.83766264  0.83856930  0.83611481  1
" 