145,Ni67Fe29Cr2_10,-241.186719867445, 213.946842591894,Ni67Fe29Cr2,"# generated using pymatgen
 data_Cr(Fe4Ni9)2
_symmetry_space_group_name_H-M   'P 1'
_cell_length_a   7.41824534
_cell_length_b   7.41824534
_cell_length_c   10.49098317
_cell_angle_alpha   90.00000000
_cell_angle_beta   90.00000000
_cell_angle_gamma   90.00000000
_symmetry_Int_Tables_number   1
_chemical_formula_structural   Cr(Fe4Ni9)2
_chemical_formula_sum   'Cr2 Fe16 Ni36'
_cell_volume   577.32262155
_cell_formula_units_Z   2
loop_
 _symmetry_equiv_pos_site_id
 _symmetry_equiv_pos_as_xyz
  1  'x, y, z'
loop_
 _atom_site_type_symbol
 _atom_site_label
 _atom_site_symmetry_multiplicity
 _atom_site_fract_x
 _atom_site_fract_y
 _atom_site_fract_z
 _atom_site_occupancy
  Ni  Ni0  1  1.00293744  0.00393772  1.00293672  1
  Cr  Cr1  1  0.17015975  0.16984455  0.17039742  1
  Ni  Ni2  1  1.00247049  0.00336535  0.33769041  1
  Ni  Ni3  1  1.00261576  0.33674888  1.00196022  1
  Fe  Fe4  1  0.17011742  0.50477332  0.17001007  1
  Ni  Ni5  1  1.00246577  0.33638850  0.33789933  1
  Ni  Ni6  1  0.00403660  0.66918211  0.00424312  1
  Ni  Ni7  1  0.16955224  0.83494860  0.16901559  1
  Fe  Fe8  1  0.00336995  0.67037857  0.33708845  1
  Ni  Ni9  1  0.33777464  1.00225312  1.00237883  1
  Ni  Ni10  1  0.50478961  0.17027515  0.16884863  1
  Ni  Ni11  1  0.33734095  1.00207194  0.33742299  1
  Ni  Ni12  1  0.33673262  0.33708145  1.00202002  1
  Fe  Fe13  1  0.50332769  0.50376094  0.17005222  1
  Ni  Ni14  1  0.33705297  0.33738689  0.33839608  1
  Ni  Ni15  1  0.33700327  0.67053359  1.00301901  1
  Ni  Ni16  1  0.50344768  0.83652643  0.16958831  1
  Ni  Ni17  1  0.33725552  0.67041280  0.33664143  1
  Ni  Ni18  1  0.66916575  0.00366994  0.00421226  1
  Ni  Ni19  1  0.83532392  0.16975698  0.16979998  1
  Ni  Ni20  1  0.67005578  1.00315803  0.33691641  1
  Fe  Fe21  1  0.66997922  0.33612965  1.00310182  1
  Fe  Fe22  1  0.83642052  0.50357547  0.17031702  1
  Ni  Ni23  1  0.67034836  0.33630580  0.33635695  1
  Ni  Ni24  1  0.66882775  0.67022010  0.00346668  1
  Ni  Ni25  1  0.83686808  0.83683558  0.16965956  1
  Ni  Ni26  1  0.66905725  0.67040743  0.33747915  1
  Fe  Fe27  1  0.17017214  0.17016593  0.50259728  1
  Fe  Fe28  1  0.00334568  0.00334450  0.66915362  1
  Fe  Fe29  1  0.16996528  0.17004512  0.83743120  1
  Ni  Ni30  1  0.16979198  0.50304842  0.50311959  1
  Ni  Ni31  1  1.00234264  0.33647966  0.67001342  1
  Fe  Fe32  1  0.16998168  0.50348877  0.83647210  1
  Ni  Ni33  1  0.16930701  0.83614368  0.50344570  1
  Ni  Ni34  1  0.00416129  0.66878340  0.66876432  1
  Fe  Fe35  1  0.17184255  0.83633615  0.83700939  1
  Ni  Ni36  1  0.50299379  0.17068117  0.50340211  1
  Fe  Fe37  1  0.33698862  1.00241890  0.66961140  1
  Fe  Fe38  1  0.50382570  0.16977047  0.83700450  1
  Ni  Ni39  1  0.50293001  0.50254405  0.50312831  1
  Fe  Fe40  1  0.33704731  0.33836346  0.66964865  1
  Ni  Ni41  1  0.50229951  0.50346144  0.83662218  1
  Ni  Ni42  1  0.50340781  0.83664868  0.50345635  1
  Ni  Ni43  1  0.33713450  0.67088266  0.67020371  1
  Ni  Ni44  1  0.50173942  0.83546162  0.83682496  1
  Fe  Fe45  1  0.83632677  0.17041754  0.50305014  1
  Fe  Fe46  1  0.66953476  0.00346311  0.66921610  1
  Ni  Ni47  1  0.83773978  0.17152646  0.83712226  1
  Ni  Ni48  1  0.83714716  0.50346361  0.50415874  1
  Ni  Ni49  1  0.67097563  0.33678051  0.67027716  1
  Fe  Fe50  1  0.83595453  0.50200351  0.83584594  1
  Ni  Ni51  1  0.83715365  0.83621048  0.50316767  1
  Ni  Ni52  1  0.66857134  0.66906881  0.66892463  1
  Cr  Cr53  1  0.83644685  0.83669341  0.83703428  1
" 