1578,Ni67Fe29Cr2_14,-241.338436897592, 216.063049178334,Ni67Fe29Cr2,"# generated using pymatgen
 data_Cr(Fe4Ni9)2
_symmetry_space_group_name_H-M   'P 1'
_cell_length_a   7.41608030
_cell_length_b   7.41608030
_cell_length_c   10.48792134
_cell_angle_alpha   90.00000000
_cell_angle_beta   90.00000000
_cell_angle_gamma   90.00000000
_symmetry_Int_Tables_number   1
_chemical_formula_structural   Cr(Fe4Ni9)2
_chemical_formula_sum   'Cr2 Fe16 Ni36'
_cell_volume   576.81728911
_cell_formula_units_Z   2
loop_
 _symmetry_equiv_pos_site_id
 _symmetry_equiv_pos_as_xyz
  1  'x, y, z'
loop_
 _atom_site_type_symbol
 _atom_site_label
 _atom_site_symmetry_multiplicity
 _atom_site_fract_x
 _atom_site_fract_y
 _atom_site_fract_z
 _atom_site_occupancy
  Ni  Ni0  1  1.00282267  1.00255641  1.00275478  1
  Ni  Ni1  1  0.17007345  0.17046425  0.17027563  1
  Ni  Ni2  1  0.00456655  1.00296072  0.33754455  1
  Fe  Fe3  1  0.00344847  0.33684804  0.00379665  1
  Ni  Ni4  1  0.16978496  0.50441614  0.17037448  1
  Ni  Ni5  1  0.00403729  0.33657243  0.33771999  1
  Ni  Ni6  1  1.00276533  0.67136556  0.00376890  1
  Ni  Ni7  1  0.17079137  0.83542596  0.17013385  1
  Ni  Ni8  1  0.00412189  0.67077817  0.33655725  1
  Fe  Fe9  1  0.33688856  1.00244339  1.00328921  1
  Ni  Ni10  1  0.50429867  0.16972586  0.17022271  1
  Ni  Ni11  1  0.33587477  0.00512513  0.33646038  1
  Ni  Ni12  1  0.33725456  0.33653446  1.00322231  1
  Fe  Fe13  1  0.50155256  0.50204348  0.16954304  1
  Ni  Ni14  1  0.33721911  0.33522619  0.33748451  1
  Ni  Ni15  1  0.33689634  0.66906498  1.00299065  1
  Ni  Ni16  1  0.50218853  0.83755586  0.16949513  1
  Fe  Fe17  1  0.33407340  0.66963166  0.33628583  1
  Ni  Ni18  1  0.67080067  1.00291155  1.00340189  1
  Ni  Ni19  1  0.83593861  0.17073359  0.17029794  1
  Fe  Fe20  1  0.67055614  0.00619054  0.33619810  1
  Fe  Fe21  1  0.67037056  0.33665869  1.00309762  1
  Fe  Fe22  1  0.83808322  0.50255620  0.16958808  1
  Ni  Ni23  1  0.66904919  0.33567184  0.33688426  1
  Ni  Ni24  1  0.67064712  0.67079948  1.00228630  1
  Fe  Fe25  1  0.83831857  0.83838058  0.16888176  1
  Cr  Cr26  1  0.67161735  0.66949309  0.33703613  1
  Ni  Ni27  1  0.16973195  0.16936063  0.50190578  1
  Fe  Fe28  1  0.00366936  0.00363381  0.67017066  1
  Ni  Ni29  1  0.16979094  0.16905934  0.83813175  1
  Ni  Ni30  1  0.16936615  0.50505374  0.50237720  1
  Fe  Fe31  1  1.00173217  0.33660166  0.66956491  1
  Fe  Fe32  1  0.16893988  0.50459449  0.83804893  1
  Ni  Ni33  1  0.17002482  0.83589649  0.50299527  1
  Ni  Ni34  1  1.00223718  0.67102606  0.66998431  1
  Ni  Ni35  1  0.17083436  0.83642025  0.83717989  1
  Ni  Ni36  1  0.50467186  0.17015874  0.50190549  1
  Ni  Ni37  1  0.33666178  1.00287486  0.67103243  1
  Ni  Ni38  1  0.50423475  0.16907553  0.83818219  1
  Ni  Ni39  1  0.50362590  0.50284907  0.50306438  1
  Cr  Cr40  1  0.33759869  0.33503499  0.66942971  1
  Fe  Fe41  1  0.50465457  0.50409674  0.83748046  1
  Fe  Fe42  1  0.50224951  0.83787435  0.50424737  1
  Fe  Fe43  1  0.33664906  0.67181091  0.67031034  1
  Ni  Ni44  1  0.50285346  0.83674126  0.83634723  1
  Ni  Ni45  1  0.83590402  0.17081707  0.50356081  1
  Fe  Fe46  1  0.67002936  0.00379422  0.67086728  1
  Ni  Ni47  1  0.83628315  0.17119292  0.83645193  1
  Ni  Ni48  1  0.83731200  0.50255588  0.50388855  1
  Ni  Ni49  1  0.67085180  0.33696591  0.67017754  1
  Ni  Ni50  1  0.83660401  0.50344564  0.83676501  1
  Ni  Ni51  1  0.83811145  0.83694076  0.50391784  1
  Fe  Fe52  1  0.67027647  0.66987560  0.67036886  1
  Ni  Ni53  1  0.83661999  0.83567341  0.83761054  1
" 