7745,Ni67Fe29Cr2_0,-241.594972186876, 214.51503665585,Ni67Fe29Cr2,"# generated using pymatgen
 data_Cr(Fe4Ni9)2
_symmetry_space_group_name_H-M   'P 1'
_cell_length_a   7.42263332
_cell_length_b   7.42263332
_cell_length_c   10.49718871
_cell_angle_alpha   90.00000000
_cell_angle_beta   90.00000000
_cell_angle_gamma   90.00000000
_symmetry_Int_Tables_number   1
_chemical_formula_structural   Cr(Fe4Ni9)2
_chemical_formula_sum   'Cr2 Fe16 Ni36'
_cell_volume   578.34770738
_cell_formula_units_Z   2
loop_
 _symmetry_equiv_pos_site_id
 _symmetry_equiv_pos_as_xyz
  1  'x, y, z'
loop_
 _atom_site_type_symbol
 _atom_site_label
 _atom_site_symmetry_multiplicity
 _atom_site_fract_x
 _atom_site_fract_y
 _atom_site_fract_z
 _atom_site_occupancy
  Fe  Fe0  1  1.00124075  0.00370954  1.00280500  1
  Ni  Ni1  1  0.16825731  0.16941052  0.17037466  1
  Ni  Ni2  1  1.00215900  1.00129667  0.33612324  1
  Fe  Fe3  1  1.00017836  0.33658670  1.00239132  1
  Fe  Fe4  1  0.16918409  0.50334464  0.16964660  1
  Fe  Fe5  1  1.00230368  0.33627698  0.33661100  1
  Ni  Ni6  1  0.00384567  0.67180939  0.00325040  1
  Fe  Fe7  1  0.17000447  0.83748861  0.16989253  1
  Ni  Ni8  1  0.00551077  0.67171997  0.33632567  1
  Fe  Fe9  1  0.33804549  1.00154519  1.00289632  1
  Ni  Ni10  1  0.50286627  0.16901092  0.17184891  1
  Fe  Fe11  1  0.33682195  1.00225344  0.33628175  1
  Cr  Cr12  1  0.33750975  0.33541696  1.00159106  1
  Ni  Ni13  1  0.50322163  0.50375161  0.16966814  1
  Ni  Ni14  1  0.33650285  0.33673136  0.33697823  1
  Fe  Fe15  1  0.33857978  0.67074461  1.00276952  1
  Ni  Ni16  1  0.50332362  0.83597349  0.16954222  1
  Ni  Ni17  1  0.33364786  0.66746056  0.33584943  1
  Ni  Ni18  1  0.67029577  0.00356960  0.00305015  1
  Ni  Ni19  1  0.83720281  0.16933186  0.17060988  1
  Ni  Ni20  1  0.67133249  0.00477922  0.33661408  1
  Ni  Ni21  1  0.66822988  0.33471803  0.00314151  1
  Fe  Fe22  1  0.83553486  0.50201123  0.16866954  1
  Ni  Ni23  1  0.66677903  0.33380074  0.33570472  1
  Ni  Ni24  1  0.67187652  0.67060042  1.00191164  1
  Ni  Ni25  1  0.83679395  0.83731114  0.16936736  1
  Cr  Cr26  1  0.67103836  0.67107619  0.33657754  1
  Ni  Ni27  1  0.16890097  0.16946819  0.50296943  1
  Ni  Ni28  1  1.00255677  1.00008689  0.67091404  1
  Ni  Ni29  1  0.16819858  0.16882445  0.83574105  1
  Fe  Fe30  1  0.16984884  0.50477913  0.50370360  1
  Fe  Fe31  1  1.00160061  0.33531124  0.67000216  1
  Ni  Ni32  1  0.16861635  0.50371842  0.83449411  1
  Ni  Ni33  1  0.16961828  0.83881105  0.50164388  1
  Ni  Ni34  1  0.00412422  0.67168388  0.66920573  1
  Ni  Ni35  1  0.16977397  0.83653831  0.83744750  1
  Fe  Fe36  1  0.50324177  0.16908103  0.50338348  1
  Fe  Fe37  1  0.33573317  0.00338347  0.67005775  1
  Ni  Ni38  1  0.50352240  0.16854016  0.83529201  1
  Ni  Ni39  1  0.50340886  0.50242007  0.50344328  1
  Ni  Ni40  1  0.33684832  0.33681598  0.66986845  1
  Ni  Ni41  1  0.50432025  0.50454654  0.83535627  1
  Ni  Ni42  1  0.50216119  0.83601717  0.50293604  1
  Fe  Fe43  1  0.33685564  0.67088981  0.66907965  1
  Ni  Ni44  1  0.50357227  0.83586289  0.83615442  1
  Fe  Fe45  1  0.83570190  0.16835814  0.50334792  1
  Ni  Ni46  1  0.67091288  0.00315424  0.66989845  1
  Ni  Ni47  1  0.83652350  0.16996609  0.83614670  1
  Ni  Ni48  1  0.83603808  0.50155428  0.50287457  1
  Ni  Ni49  1  0.66672738  0.33524534  0.67084377  1
  Ni  Ni50  1  0.83593666  0.50297678  0.83697783  1
  Ni  Ni51  1  0.83736361  0.83623145  0.50373286  1
  Fe  Fe52  1  0.67094373  0.66959004  0.66968008  1
  Ni  Ni53  1  0.83622086  0.83597341  0.83587053  1
" 