4836,Ni67Fe8Cr23_15,-230.18066498277, 163.481623549139,Ni67Fe8Cr23,"# generated using pymatgen
 data_Cr7(FeNi9)2
_symmetry_space_group_name_H-M   'P 1'
_cell_length_a   7.46647055
_cell_length_b   7.46647055
_cell_length_c   10.55918391
_cell_angle_alpha   90.00000000
_cell_angle_beta   90.00000000
_cell_angle_gamma   90.00000000
_symmetry_Int_Tables_number   1
_chemical_formula_structural   Cr7(FeNi9)2
_chemical_formula_sum   'Cr14 Fe4 Ni36'
_cell_volume   588.65531142
_cell_formula_units_Z   2
loop_
 _symmetry_equiv_pos_site_id
 _symmetry_equiv_pos_as_xyz
  1  'x, y, z'
loop_
 _atom_site_type_symbol
 _atom_site_label
 _atom_site_symmetry_multiplicity
 _atom_site_fract_x
 _atom_site_fract_y
 _atom_site_fract_z
 _atom_site_occupancy
  Cr  Cr0  1  0.99894759  0.99929244  0.00076262  1
  Ni  Ni1  1  0.16671376  0.16426992  0.16645795  1
  Ni  Ni2  1  0.00171831  0.99971606  0.33380711  1
  Ni  Ni3  1  0.00320633  0.33622765  0.00108594  1
  Fe  Fe4  1  0.16605896  0.49985868  0.16368885  1
  Cr  Cr5  1  0.99947680  0.33112827  0.33139990  1
  Ni  Ni6  1  0.00032511  0.66440370  0.00090543  1
  Ni  Ni7  1  0.16724691  0.83524437  0.16631089  1
  Cr  Cr8  1  0.99856023  0.66917123  0.33239125  1
  Ni  Ni9  1  0.33435609  0.00323704  0.00203679  1
  Ni  Ni10  1  0.49919345  0.16499731  0.16613235  1
  Ni  Ni11  1  0.33192009  0.00009150  0.33380576  1
  Ni  Ni12  1  0.33080114  0.33151244  0.99878171  1
  Cr  Cr13  1  0.50090033  0.49995386  0.16770113  1
  Cr  Cr14  1  0.33430131  0.32907477  0.33427142  1
  Fe  Fe15  1  0.33153278  0.66609324  0.00018107  1
  Ni  Ni16  1  0.49869288  0.83488455  0.16606609  1
  Cr  Cr17  1  0.33403295  0.66986179  0.33271846  1
  Ni  Ni18  1  0.66420338  0.99931549  0.00193242  1
  Ni  Ni19  1  0.83392224  0.16724254  0.16673967  1
  Cr  Cr20  1  0.66587436  0.99999608  0.33168976  1
  Cr  Cr21  1  0.66625313  0.33173952  0.99900238  1
  Ni  Ni22  1  0.83383708  0.49974536  0.16767664  1
  Ni  Ni23  1  0.66722231  0.33399849  0.33453147  1
  Cr  Cr24  1  0.67000151  0.66864158  0.99891947  1
  Ni  Ni25  1  0.83379514  0.83311861  0.16705607  1
  Ni  Ni26  1  0.66752376  0.66643590  0.33490342  1
  Ni  Ni27  1  0.16519754  0.16310744  0.50199330  1
  Ni  Ni28  1  0.00149058  0.99985994  0.66451669  1
  Ni  Ni29  1  0.16845379  0.16896003  0.83136859  1
  Cr  Cr30  1  0.16755772  0.50025515  0.50283782  1
  Ni  Ni31  1  0.00086434  0.33356655  0.66757698  1
  Ni  Ni32  1  0.16621096  0.49895866  0.83442292  1
  Ni  Ni33  1  0.16696619  0.83605648  0.50156675  1
  Ni  Ni34  1  0.99869180  0.66667488  0.66724419  1
  Cr  Cr35  1  0.16618807  0.83378912  0.83132430  1
  Ni  Ni36  1  0.50054096  0.16749823  0.50066222  1
  Ni  Ni37  1  0.33228595  0.00216568  0.66422957  1
  Ni  Ni38  1  0.49689738  0.16855170  0.83364018  1
  Ni  Ni39  1  0.50354334  0.50069185  0.50173130  1
  Ni  Ni40  1  0.33386556  0.33246081  0.66778105  1
  Ni  Ni41  1  0.49858817  0.49869004  0.83042219  1
  Ni  Ni42  1  0.49836772  0.83185270  0.50026555  1
  Ni  Ni43  1  0.33384247  0.66564415  0.66672043  1
  Cr  Cr44  1  0.49896363  0.83381550  0.83444737  1
  Ni  Ni45  1  0.83436566  0.16810505  0.50016984  1
  Cr  Cr46  1  0.66579218  0.00010239  0.66806073  1
  Cr  Cr47  1  0.83507901  0.16714368  0.83346474  1
  Fe  Fe48  1  0.83186197  0.49899307  0.50133385  1
  Ni  Ni49  1  0.66544012  0.33547844  0.66574938  1
  Ni  Ni50  1  0.83509780  0.50077584  0.83075071  1
  Fe  Fe51  1  0.83342417  0.83428851  0.50109071  1
  Ni  Ni52  1  0.66737963  0.66474089  0.66557547  1
  Ni  Ni53  1  0.83451213  0.83060759  0.83218388  1
" 