4064,Ni67Fe8Cr23_16,-230.126056410936, 161.707948400216,Ni67Fe8Cr23,"# generated using pymatgen
 data_Cr7(FeNi9)2
_symmetry_space_group_name_H-M   'P 1'
_cell_length_a   7.47123540
_cell_length_b   7.47123540
_cell_length_c   10.56592243
_cell_angle_alpha   90.00000000
_cell_angle_beta   90.00000000
_cell_angle_gamma   90.00000000
_symmetry_Int_Tables_number   1
_chemical_formula_structural   Cr7(FeNi9)2
_chemical_formula_sum   'Cr14 Fe4 Ni36'
_cell_volume   589.78301145
_cell_formula_units_Z   2
loop_
 _symmetry_equiv_pos_site_id
 _symmetry_equiv_pos_as_xyz
  1  'x, y, z'
loop_
 _atom_site_type_symbol
 _atom_site_label
 _atom_site_symmetry_multiplicity
 _atom_site_fract_x
 _atom_site_fract_y
 _atom_site_fract_z
 _atom_site_occupancy
  Ni  Ni0  1  0.99887864  0.99660967  0.99905994  1
  Cr  Cr1  1  0.16445997  0.16686721  0.16490180  1
  Ni  Ni2  1  0.99783892  0.99817071  0.33427159  1
  Ni  Ni3  1  0.99855009  0.33485632  0.99879252  1
  Ni  Ni4  1  0.16421270  0.49915390  0.16582780  1
  Ni  Ni5  1  0.00066990  0.33259663  0.33284839  1
  Ni  Ni6  1  -0.00003958  0.66741240  -0.00004568  1
  Ni  Ni7  1  0.16328701  0.83269662  0.16533722  1
  Ni  Ni8  1  0.00068739  0.66794459  0.33170497  1
  Ni  Ni9  1  0.33167265  0.99679603  0.00187535  1
  Ni  Ni10  1  0.49862594  0.16420228  0.16645357  1
  Cr  Cr11  1  0.33321512  0.99895678  0.33462759  1
  Ni  Ni12  1  0.33257545  0.33454593  0.00220457  1
  Ni  Ni13  1  0.49805487  0.49994829  0.16456857  1
  Ni  Ni14  1  0.33126170  0.33251667  0.33264646  1
  Ni  Ni15  1  0.33029530  0.66767936  0.00194881  1
  Ni  Ni16  1  0.50192542  0.83448649  0.16312844  1
  Cr  Cr17  1  0.32944445  0.66726847  0.33101040  1
  Fe  Fe18  1  0.66863330  0.99842675  0.00121463  1
  Fe  Fe19  1  0.83487056  0.16416605  0.16639364  1
  Ni  Ni20  1  0.66805353  -0.00012022  0.33204625  1
  Cr  Cr21  1  0.66863045  0.33278310  0.00115126  1
  Ni  Ni22  1  0.83672063  0.50212440  0.16618747  1
  Cr  Cr23  1  0.66571273  0.32944008  0.33056013  1
  Ni  Ni24  1  0.66902011  0.66661428  0.00119837  1
  Ni  Ni25  1  0.83391543  0.83356872  0.16625593  1
  Cr  Cr26  1  0.66685446  0.66922592  0.33123870  1
  Ni  Ni27  1  0.16435410  0.16757859  0.50073054  1
  Ni  Ni28  1  0.99915467  0.00034415  0.66586576  1
  Cr  Cr29  1  0.16554403  0.16607413  0.83414755  1
  Ni  Ni30  1  0.16645870  0.49518962  0.49897882  1
  Ni  Ni31  1  0.00141152  0.33107184  0.66736540  1
  Ni  Ni32  1  0.16539719  0.49955898  0.83434511  1
  Fe  Fe33  1  0.16350206  0.83314143  0.50026419  1
  Cr  Cr34  1  0.00088856  0.66812283  0.66805412  1
  Ni  Ni35  1  0.16560652  0.83339188  0.83366793  1
  Fe  Fe36  1  0.49996593  0.16494096  0.50025196  1
  Ni  Ni37  1  0.33130903  0.99800734  0.66320597  1
  Cr  Cr38  1  0.49707059  0.16301829  0.83241159  1
  Cr  Cr39  1  0.49713012  0.50274795  0.50246988  1
  Ni  Ni40  1  0.32944375  0.33254041  0.66431261  1
  Cr  Cr41  1  0.49731086  0.50284763  0.83185996  1
  Ni  Ni42  1  0.50238656  0.83617263  0.50285900  1
  Ni  Ni43  1  0.33048123  0.66840919  0.66574014  1
  Cr  Cr44  1  0.50035698  0.83275305  0.83377528  1
  Ni  Ni45  1  0.83782867  0.16182282  0.49874130  1
  Ni  Ni46  1  0.66861935  0.99870546  0.66517364  1
  Ni  Ni47  1  0.83631406  0.16321036  0.83349842  1
  Cr  Cr48  1  0.83727026  0.50178312  0.49901468  1
  Cr  Cr49  1  0.67102360  0.33065344  0.66722650  1
  Ni  Ni50  1  0.83599143  0.50155670  0.83347957  1
  Ni  Ni51  1  0.83117551  0.83765885  0.49945171  1
  Ni  Ni52  1  0.66740511  0.67048940  0.66706409  1
  Ni  Ni53  1  0.83343836  0.83413744  0.83350150  1
" 