7750,Ni67Fe14Cr18_16,-233.335656888707, 180.719219948727,Ni67Fe14Cr18,"# generated using pymatgen
 data_Cr11Fe7Ni36
_symmetry_space_group_name_H-M   'P 1'
_cell_length_a   7.45660437
_cell_length_b   7.45660437
_cell_length_c   10.54523102
_cell_angle_alpha   90.00000000
_cell_angle_beta   90.00000000
_cell_angle_gamma   90.00000000
_symmetry_Int_Tables_number   1
_chemical_formula_structural   Cr11Fe7Ni36
_chemical_formula_sum   'Cr11 Fe7 Ni36'
_cell_volume   586.32484864
_cell_formula_units_Z   1
loop_
 _symmetry_equiv_pos_site_id
 _symmetry_equiv_pos_as_xyz
  1  'x, y, z'
loop_
 _atom_site_type_symbol
 _atom_site_label
 _atom_site_symmetry_multiplicity
 _atom_site_fract_x
 _atom_site_fract_y
 _atom_site_fract_z
 _atom_site_occupancy
  Cr  Cr0  1  0.00124587  0.00133930  0.00172498  1
  Fe  Fe1  1  0.16702752  0.16706442  0.16701343  1
  Fe  Fe2  1  1.00054592  0.99872256  0.33266995  1
  Ni  Ni3  1  0.00076246  0.33562691  0.00117180  1
  Ni  Ni4  1  0.16590224  0.50274141  0.16630152  1
  Cr  Cr5  1  0.99968342  0.33516144  0.33221488  1
  Ni  Ni6  1  0.00315876  0.66524141  0.00264498  1
  Ni  Ni7  1  0.16737116  0.83233821  0.16813005  1
  Ni  Ni8  1  0.99995503  0.66828848  0.33249497  1
  Ni  Ni9  1  0.33565088  0.99898046  0.99994869  1
  Cr  Cr10  1  0.50130546  0.16631989  0.16700127  1
  Ni  Ni11  1  0.33494993  0.99958140  0.33389806  1
  Ni  Ni12  1  0.33280308  0.33460738  0.99960992  1
  Cr  Cr13  1  0.50010949  0.50099626  0.16704635  1
  Fe  Fe14  1  0.33516066  0.33337154  0.33543162  1
  Ni  Ni15  1  0.33266309  0.66851230  0.99914028  1
  Ni  Ni16  1  0.50015263  0.83481533  0.16756490  1
  Ni  Ni17  1  0.33393700  0.66958521  0.33362505  1
  Ni  Ni18  1  0.66526276  0.00137412  1.00021217  1
  Ni  Ni19  1  0.83349650  0.16709282  0.16696782  1
  Ni  Ni20  1  0.66607018  0.99968327  0.33443866  1
  Ni  Ni21  1  0.66853439  0.33263797  0.99972460  1
  Ni  Ni22  1  0.83597458  0.50129493  0.16691279  1
  Ni  Ni23  1  0.66736913  0.33405954  0.33535872  1
  Fe  Fe24  1  0.66608946  0.66792483  0.00112278  1
  Ni  Ni25  1  0.83457676  0.83371322  0.16870409  1
  Fe  Fe26  1  0.66814708  0.66825478  0.33525000  1
  Ni  Ni27  1  0.17046633  0.16779297  0.49943821  1
  Cr  Cr28  1  1.00031883  0.00151013  0.66779573  1
  Ni  Ni29  1  0.16866898  0.16960543  0.83466482  1
  Cr  Cr30  1  0.16827219  0.50043426  0.50253040  1
  Ni  Ni31  1  0.00134987  0.33572331  0.66857409  1
  Ni  Ni32  1  0.16931421  0.50081893  0.83375389  1
  Cr  Cr33  1  0.16592036  0.83389806  0.49985158  1
  Ni  Ni34  1  0.99998216  0.66526005  0.66696546  1
  Ni  Ni35  1  0.16993184  0.83167419  0.83484857  1
  Ni  Ni36  1  0.50027945  0.16894801  0.50004437  1
  Cr  Cr37  1  0.33625130  0.00164054  0.66890685  1
  Ni  Ni38  1  0.50139298  0.16795646  0.83459240  1
  Ni  Ni39  1  0.50233393  0.49934943  0.50076004  1
  Ni  Ni40  1  0.33462256  0.33460638  0.66711951  1
  Ni  Ni41  1  0.49818405  0.49990336  0.83379423  1
  Fe  Fe42  1  0.50330027  0.83381762  0.49974050  1
  Fe  Fe43  1  0.33590110  0.66502090  0.66944198  1
  Ni  Ni44  1  0.49921607  0.83423807  0.83473819  1
  Cr  Cr45  1  0.83201242  0.16671246  0.50204554  1
  Ni  Ni46  1  0.66571428  1.00044799  0.66745042  1
  Ni  Ni47  1  0.83203768  0.16857328  0.83384422  1
  Ni  Ni48  1  0.83121074  0.50337404  0.50145931  1
  Ni  Ni49  1  0.66613007  0.33464273  0.66701983  1
  Cr  Cr50  1  0.83460476  0.49883273  0.83387372  1
  Ni  Ni51  1  0.83236196  0.83189757  0.49984612  1
  Ni  Ni52  1  0.66682762  0.66701044  0.66472755  1
  Cr  Cr53  1  0.83330303  0.83479573  0.83366257  1
" 