5757,Ni67Fe8Cr23_12,-229.609122856992, 154.262619879417,Ni67Fe8Cr23,"# generated using pymatgen
 data_Cr7(FeNi9)2
_symmetry_space_group_name_H-M   'P 1'
_cell_length_a   7.47286495
_cell_length_b   7.47286495
_cell_length_c   10.56822697
_cell_angle_alpha   90.00000000
_cell_angle_beta   90.00000000
_cell_angle_gamma   90.00000000
_symmetry_Int_Tables_number   1
_chemical_formula_structural   Cr7(FeNi9)2
_chemical_formula_sum   'Cr14 Fe4 Ni36'
_cell_volume   590.16900853
_cell_formula_units_Z   2
loop_
 _symmetry_equiv_pos_site_id
 _symmetry_equiv_pos_as_xyz
  1  'x, y, z'
loop_
 _atom_site_type_symbol
 _atom_site_label
 _atom_site_symmetry_multiplicity
 _atom_site_fract_x
 _atom_site_fract_y
 _atom_site_fract_z
 _atom_site_occupancy
  Ni  Ni0  1  0.00007731  0.99894798  0.99917849  1
  Ni  Ni1  1  0.16767991  0.16503443  0.16335210  1
  Ni  Ni2  1  0.00102017  0.99635918  0.33467566  1
  Ni  Ni3  1  0.00071404  0.33279020  0.99820700  1
  Ni  Ni4  1  0.16994730  0.50043032  0.16504085  1
  Cr  Cr5  1  0.00171521  0.33235677  0.33491164  1
  Cr  Cr6  1  0.00333262  0.66717979  0.99791765  1
  Ni  Ni7  1  0.16609473  0.83323942  0.16619708  1
  Ni  Ni8  1  0.00336500  0.66903560  0.33523164  1
  Ni  Ni9  1  0.33380409  0.99767464  0.00048425  1
  Ni  Ni10  1  0.49686491  0.16650205  0.16144383  1
  Cr  Cr11  1  0.33138663  0.99699671  0.33297112  1
  Ni  Ni12  1  0.33362779  0.33434534  0.99912036  1
  Ni  Ni13  1  0.49464209  0.49921988  0.16402159  1
  Cr  Cr14  1  0.33300596  0.33368994  0.33528938  1
  Ni  Ni15  1  0.33275029  0.66688716  -0.00035908  1
  Ni  Ni16  1  0.49729870  0.83311054  0.16367786  1
  Ni  Ni17  1  0.33058054  0.66671511  0.33235574  1
  Ni  Ni18  1  0.66481936  0.00027618  0.99765879  1
  Cr  Cr19  1  0.83370924  0.16376282  0.16225839  1
  Cr  Cr20  1  0.66550321  0.99907580  0.33424857  1
  Ni  Ni21  1  0.66437150  0.33161937  0.99741277  1
  Cr  Cr22  1  0.83378791  0.50094095  0.16624969  1
  Cr  Cr23  1  0.66426220  0.33235967  0.33494308  1
  Cr  Cr24  1  0.66330630  0.66785945  0.99847382  1
  Ni  Ni25  1  0.83542359  0.83552638  0.16706581  1
  Cr  Cr26  1  0.66393351  0.66744644  0.33338500  1
  Ni  Ni27  1  0.16486888  0.16483404  0.50027315  1
  Ni  Ni28  1  0.99740225  0.99725614  0.66468888  1
  Cr  Cr29  1  0.16792265  0.16527123  0.83550140  1
  Ni  Ni30  1  0.16772392  0.50309507  0.50117717  1
  Cr  Cr31  1  0.00001855  0.33431285  0.66563730  1
  Ni  Ni32  1  0.16842244  0.50115953  0.83297712  1
  Ni  Ni33  1  0.16427957  0.83091029  0.49955325  1
  Fe  Fe34  1  -0.00003211  0.66900548  0.66657429  1
  Ni  Ni35  1  0.16618004  0.83188174  0.83296715  1
  Ni  Ni36  1  0.49964508  0.16616071  0.50208884  1
  Cr  Cr37  1  0.33348490  0.99622654  0.66460582  1
  Ni  Ni38  1  0.50143934  0.16588967  0.83534769  1
  Ni  Ni39  1  0.49740402  0.50224186  0.50194992  1
  Fe  Fe40  1  0.33350831  0.33346301  0.66616134  1
  Ni  Ni41  1  0.49790270  0.49934935  0.83296969  1
  Ni  Ni42  1  0.49991496  0.83054061  0.50170204  1
  Ni  Ni43  1  0.33266243  0.66527421  0.66681678  1
  Ni  Ni44  1  0.49973578  0.83351343  0.83305980  1
  Ni  Ni45  1  0.83414358  0.16275107  0.50120731  1
  Ni  Ni46  1  0.66745094  0.99831274  0.66626242  1
  Fe  Fe47  1  0.83156392  0.16401106  0.83415003  1
  Ni  Ni48  1  0.83383748  0.50347172  0.50022274  1
  Cr  Cr49  1  0.66611172  0.33277130  0.66561003  1
  Ni  Ni50  1  0.83257287  0.50046296  0.83325829  1
  Ni  Ni51  1  0.83480235  0.83321857  0.50109616  1
  Fe  Fe52  1  0.66618696  0.66898812  0.66688131  1
  Ni  Ni53  1  0.83280389  0.83522610  0.83082849  1
" 