3590,Ni67Fe14Cr18_2,-233.396354668638, 179.652802314145,Ni67Fe14Cr18,"# generated using pymatgen
 data_Cr11Fe7Ni36
_symmetry_space_group_name_H-M   'P 1'
_cell_length_a   7.45572800
_cell_length_b   7.45572800
_cell_length_c   10.54399166
_cell_angle_alpha   90.00000000
_cell_angle_beta   90.00000000
_cell_angle_gamma   90.00000000
_symmetry_Int_Tables_number   1
_chemical_formula_structural   Cr11Fe7Ni36
_chemical_formula_sum   'Cr11 Fe7 Ni36'
_cell_volume   586.11814406
_cell_formula_units_Z   1
loop_
 _symmetry_equiv_pos_site_id
 _symmetry_equiv_pos_as_xyz
  1  'x, y, z'
loop_
 _atom_site_type_symbol
 _atom_site_label
 _atom_site_symmetry_multiplicity
 _atom_site_fract_x
 _atom_site_fract_y
 _atom_site_fract_z
 _atom_site_occupancy
  Ni  Ni0  1  0.99761885  0.99935205  0.00081974  1
  Cr  Cr1  1  0.16630547  0.16681833  0.16777831  1
  Ni  Ni2  1  1.00069670  0.99982901  0.33500713  1
  Ni  Ni3  1  0.99943625  0.33392286  0.99901391  1
  Cr  Cr4  1  0.16690221  0.50288302  0.16655788  1
  Ni  Ni5  1  0.99729502  0.33218020  0.33610789  1
  Ni  Ni6  1  0.00166604  0.66900105  0.99826935  1
  Ni  Ni7  1  0.16763978  0.83284731  0.16758826  1
  Ni  Ni8  1  1.00048138  0.67026428  0.33563959  1
  Cr  Cr9  1  0.33535587  0.99895661  1.00062282  1
  Ni  Ni10  1  0.50392272  0.16600485  0.16674270  1
  Ni  Ni11  1  0.33420155  0.99767267  0.33554891  1
  Ni  Ni12  1  0.33624560  0.33686148  0.99917672  1
  Fe  Fe13  1  0.50096660  0.50206374  0.16692373  1
  Cr  Cr14  1  0.33675446  0.33359335  0.33527211  1
  Ni  Ni15  1  0.33422134  0.66626756  1.00026381  1
  Ni  Ni16  1  0.50121868  0.83454451  0.16862480  1
  Ni  Ni17  1  0.33540203  0.67143862  0.33364411  1
  Ni  Ni18  1  0.66932704  0.00137397  1.00027847  1
  Fe  Fe19  1  0.83245561  0.16530946  0.16735654  1
  Ni  Ni20  1  0.66737930  0.00085666  0.33416430  1
  Ni  Ni21  1  0.66659504  0.33281450  0.99993598  1
  Cr  Cr22  1  0.83401895  0.50067028  0.16800289  1
  Ni  Ni23  1  0.66855471  0.33338249  0.33530661  1
  Ni  Ni24  1  0.66638913  0.66808746  0.99976139  1
  Fe  Fe25  1  0.83397636  0.83593444  0.16725407  1
  Ni  Ni26  1  0.66639324  0.66803771  0.33560371  1
  Fe  Fe27  1  0.16744170  0.16551603  0.49883051  1
  Cr  Cr28  1  0.99857370  0.99818752  0.66647443  1
  Cr  Cr29  1  0.16806086  0.17078361  0.83536690  1
  Cr  Cr30  1  0.16572615  0.50169049  0.49925138  1
  Cr  Cr31  1  0.99885402  0.33548546  0.66655644  1
  Ni  Ni32  1  0.16692448  0.50174940  0.83660373  1
  Ni  Ni33  1  0.16650823  0.83414555  0.49828154  1
  Ni  Ni34  1  0.99820145  0.66819857  0.66837051  1
  Fe  Fe35  1  0.16538912  0.83125412  0.83602137  1
  Ni  Ni36  1  0.50277481  0.16710837  0.50169296  1
  Cr  Cr37  1  0.33632124  0.00156012  0.66587637  1
  Ni  Ni38  1  0.50407914  0.16842149  0.83383999  1
  Ni  Ni39  1  0.50377052  0.50013457  0.50049786  1
  Ni  Ni40  1  0.33792630  0.33395121  0.66776884  1
  Fe  Fe41  1  0.50177779  0.49955991  0.83454120  1
  Ni  Ni42  1  0.50228468  0.83503533  0.49886842  1
  Cr  Cr43  1  0.33490953  0.66711360  0.66818800  1
  Ni  Ni44  1  0.50457047  0.83391965  0.83478476  1
  Ni  Ni45  1  0.83184216  0.16784269  0.49841727  1
  Ni  Ni46  1  0.66710802  0.00108313  0.66783683  1
  Ni  Ni47  1  0.83053880  0.16685632  0.83711144  1
  Ni  Ni48  1  0.83273211  0.50128360  0.50078753  1
  Ni  Ni49  1  0.66535177  0.33398225  0.66703748  1
  Fe  Fe50  1  0.83302070  0.50161483  0.83474418  1
  Ni  Ni51  1  0.83348358  0.83315194  0.49983088  1
  Ni  Ni52  1  0.66905420  0.66721075  0.66691431  1
  Ni  Ni53  1  0.83234704  0.83318359  0.83523168  1
" 