237,Ni67Fe29Cr2_9,-241.421251523991, 215.19618412265,Ni67Fe29Cr2,"# generated using pymatgen
 data_Cr(Fe4Ni9)2
_symmetry_space_group_name_H-M   'P 1'
_cell_length_a   7.41329689
_cell_length_b   7.41329689
_cell_length_c   10.48398500
_cell_angle_alpha   90.00000000
_cell_angle_beta   90.00000000
_cell_angle_gamma   90.00000000
_symmetry_Int_Tables_number   1
_chemical_formula_structural   Cr(Fe4Ni9)2
_chemical_formula_sum   'Cr2 Fe16 Ni36'
_cell_volume   576.16805670
_cell_formula_units_Z   2
loop_
 _symmetry_equiv_pos_site_id
 _symmetry_equiv_pos_as_xyz
  1  'x, y, z'
loop_
 _atom_site_type_symbol
 _atom_site_label
 _atom_site_symmetry_multiplicity
 _atom_site_fract_x
 _atom_site_fract_y
 _atom_site_fract_z
 _atom_site_occupancy
  Ni  Ni0  1  1.00196458  0.00403372  0.00432357  1
  Ni  Ni1  1  0.17065292  0.17122290  0.17034937  1
  Ni  Ni2  1  0.00372700  0.00401560  0.33703713  1
  Ni  Ni3  1  0.00506193  0.33775410  1.00312751  1
  Ni  Ni4  1  0.16807136  0.50321744  0.17006328  1
  Ni  Ni5  1  0.00436553  0.33824615  0.33700972  1
  Ni  Ni6  1  0.00471768  0.66892262  1.00320851  1
  Fe  Fe7  1  0.16908047  0.83683095  0.17036011  1
  Ni  Ni8  1  1.00254930  0.66853210  0.33729722  1
  Fe  Fe9  1  0.33558228  0.00431410  0.00411119  1
  Ni  Ni10  1  0.50375246  0.16847013  0.16959696  1
  Ni  Ni11  1  0.33811634  0.00396221  0.33609952  1
  Ni  Ni12  1  0.33692755  0.33874362  1.00205683  1
  Fe  Fe13  1  0.50328938  0.50345163  0.16999614  1
  Fe  Fe14  1  0.33704766  0.33688688  0.33591474  1
  Ni  Ni15  1  0.33770850  0.66858109  0.00459102  1
  Ni  Ni16  1  0.50440350  0.83866857  0.17036736  1
  Fe  Fe17  1  0.33635672  0.67088711  0.33615706  1
  Ni  Ni18  1  0.66946069  1.00328857  1.00278934  1
  Fe  Fe19  1  0.83731960  0.16924911  0.17051885  1
  Ni  Ni20  1  0.66887941  1.00242175  0.33850604  1
  Fe  Fe21  1  0.67093383  0.33772672  1.00310403  1
  Ni  Ni22  1  0.83888013  0.50395310  0.17052932  1
  Fe  Fe23  1  0.67156060  0.33675193  0.33738545  1
  Fe  Fe24  1  0.67129868  0.66961086  0.00499794  1
  Ni  Ni25  1  0.83616563  0.83614772  0.17117029  1
  Ni  Ni26  1  0.66915045  0.66928458  0.33670072  1
  Fe  Fe27  1  0.17130002  0.17272087  0.50162256  1
  Cr  Cr28  1  1.00150615  0.00476320  0.66928989  1
  Ni  Ni29  1  0.16935784  0.17164411  0.83827344  1
  Ni  Ni30  1  0.16953413  0.50483985  0.50446264  1
  Ni  Ni31  1  1.00274968  0.33886395  0.67069143  1
  Ni  Ni32  1  0.16916355  0.50425152  0.83607122  1
  Ni  Ni33  1  0.17097190  0.83496683  0.50008923  1
  Fe  Fe34  1  1.00324291  0.67027261  0.67028417  1
  Ni  Ni35  1  0.17076537  0.83508914  0.84098366  1
  Ni  Ni36  1  0.50577001  0.17007398  0.50321456  1
  Cr  Cr37  1  0.33831618  1.00298851  0.67210247  1
  Ni  Ni38  1  0.50560869  0.17000504  0.83791971  1
  Ni  Ni39  1  0.50334467  0.50362268  0.50234409  1
  Fe  Fe40  1  0.33820778  0.33775060  0.67127451  1
  Ni  Ni41  1  0.50454837  0.50454767  0.83753489  1
  Ni  Ni42  1  0.50280945  0.83702543  0.50283542  1
  Fe  Fe43  1  0.33744572  0.66897941  0.67093819  1
  Ni  Ni44  1  0.50439134  0.83628182  0.83834401  1
  Ni  Ni45  1  0.83565950  0.17171954  0.50150270  1
  Ni  Ni46  1  0.67026938  0.00364529  0.66948588  1
  Ni  Ni47  1  0.83598958  0.17183710  0.83873833  1
  Ni  Ni48  1  0.83786922  0.50215542  0.50352007  1
  Ni  Ni49  1  0.67068803  0.33730371  0.67043410  1
  Ni  Ni50  1  0.83778616  0.50308645  0.83692185  1
  Fe  Fe51  1  0.83527708  0.83555427  0.50095610  1
  Fe  Fe52  1  0.67024590  0.66979988  0.66932366  1
  Fe  Fe53  1  0.83592294  0.83680159  0.83923773  1
" 