3245,Ni67Fe29Cr2_11,-241.312176888203, 213.246480188361,Ni67Fe29Cr2,"# generated using pymatgen
 data_Cr(Fe4Ni9)2
_symmetry_space_group_name_H-M   'P 1'
_cell_length_a   7.41775518
_cell_length_b   7.41775518
_cell_length_c   10.49028998
_cell_angle_alpha   90.00000000
_cell_angle_beta   90.00000000
_cell_angle_gamma   90.00000000
_symmetry_Int_Tables_number   1
_chemical_formula_structural   Cr(Fe4Ni9)2
_chemical_formula_sum   'Cr2 Fe16 Ni36'
_cell_volume   577.20819009
_cell_formula_units_Z   2
loop_
 _symmetry_equiv_pos_site_id
 _symmetry_equiv_pos_as_xyz
  1  'x, y, z'
loop_
 _atom_site_type_symbol
 _atom_site_label
 _atom_site_symmetry_multiplicity
 _atom_site_fract_x
 _atom_site_fract_y
 _atom_site_fract_z
 _atom_site_occupancy
  Fe  Fe0  1  0.00514571  1.00250450  1.00291821  1
  Ni  Ni1  1  0.17260345  0.16893128  0.16940505  1
  Ni  Ni2  1  0.00667443  1.00251196  0.33689378  1
  Ni  Ni3  1  1.00090583  0.33812507  1.00162817  1
  Fe  Fe4  1  0.16778737  0.50327624  0.16917041  1
  Ni  Ni5  1  1.00149912  0.33723949  0.33769567  1
  Ni  Ni6  1  0.00333153  0.66885820  0.00356237  1
  Fe  Fe7  1  0.16923051  0.83602379  0.16937951  1
  Ni  Ni8  1  0.00333551  0.66979041  0.33645043  1
  Ni  Ni9  1  0.33760975  1.00248810  1.00330120  1
  Fe  Fe10  1  0.50390547  0.17115603  0.16966749  1
  Ni  Ni11  1  0.33673146  1.00267456  0.33600424  1
  Fe  Fe12  1  0.33556062  0.33816583  1.00246711  1
  Ni  Ni13  1  0.50170354  0.50398365  0.16974671  1
  Fe  Fe14  1  0.33454909  0.33715378  0.33624978  1
  Ni  Ni15  1  0.33621676  0.67341518  1.00245870  1
  Fe  Fe16  1  0.50351576  0.83667385  0.17005366  1
  Ni  Ni17  1  0.33561784  0.67397429  0.33630621  1
  Fe  Fe18  1  0.67036078  1.00199939  1.00169908  1
  Cr  Cr19  1  0.83993716  0.16820836  0.17093877  1
  Fe  Fe20  1  0.67129354  1.00106066  0.33812015  1
  Ni  Ni21  1  0.67103450  0.33667843  1.00194294  1
  Ni  Ni22  1  0.83411906  0.50557873  0.17050603  1
  Ni  Ni23  1  0.67126596  0.33653980  0.33688372  1
  Fe  Fe24  1  0.66989886  0.66901750  0.00339315  1
  Ni  Ni25  1  0.83763148  0.83476483  0.17026002  1
  Ni  Ni26  1  0.67011207  0.66945288  0.33477699  1
  Ni  Ni27  1  0.17054572  0.16861313  0.50361150  1
  Fe  Fe28  1  0.00371974  1.00310237  0.66955322  1
  Ni  Ni29  1  0.17014433  0.16858334  0.83697746  1
  Fe  Fe30  1  0.16764093  0.50236435  0.50498577  1
  Ni  Ni31  1  1.00112039  0.33667289  0.67056674  1
  Ni  Ni32  1  0.17134138  0.50429827  0.83610716  1
  Fe  Fe33  1  0.16972715  0.83678983  0.50386145  1
  Ni  Ni34  1  1.00240716  0.66928494  0.66997053  1
  Ni  Ni35  1  0.16847696  0.83714477  0.83655373  1
  Ni  Ni36  1  0.50188575  0.16977454  0.50151311  1
  Ni  Ni37  1  0.33744914  1.00325627  0.67022045  1
  Ni  Ni38  1  0.50245075  0.17120310  0.83742208  1
  Cr  Cr39  1  0.50256835  0.50387778  0.50521519  1
  Ni  Ni40  1  0.33604352  0.33372792  0.67189764  1
  Ni  Ni41  1  0.50253444  0.50365005  0.83645978  1
  Fe  Fe42  1  0.50488407  0.83823720  0.50345698  1
  Ni  Ni43  1  0.33563581  0.67349362  0.67139798  1
  Fe  Fe44  1  0.50262403  0.83711643  0.83646287  1
  Ni  Ni45  1  0.83750215  0.16853526  0.50296179  1
  Fe  Fe46  1  0.67011422  0.00362079  0.66988743  1
  Ni  Ni47  1  0.83737257  0.16825128  0.83601406  1
  Ni  Ni48  1  0.83571412  0.50534387  0.50255094  1
  Ni  Ni49  1  0.67224376  0.33507796  0.67093832  1
  Ni  Ni50  1  0.83589434  0.50490911  0.83687502  1
  Ni  Ni51  1  0.83774703  0.83557717  0.50220519  1
  Ni  Ni52  1  0.67151873  0.67049982  0.67245149  1
  Ni  Ni53  1  0.83853658  0.83616742  0.83742282  1
" 