3646,Ni67Fe29Cr2_18,-241.221621289473, 213.745297515873,Ni67Fe29Cr2,"# generated using pymatgen
 data_Cr(Fe4Ni9)2
_symmetry_space_group_name_H-M   'P 1'
_cell_length_a   7.41680391
_cell_length_b   7.41680391
_cell_length_c   10.48894468
_cell_angle_alpha   90.00000000
_cell_angle_beta   90.00000000
_cell_angle_gamma   90.00000000
_symmetry_Int_Tables_number   1
_chemical_formula_structural   Cr(Fe4Ni9)2
_chemical_formula_sum   'Cr2 Fe16 Ni36'
_cell_volume   576.98615043
_cell_formula_units_Z   2
loop_
 _symmetry_equiv_pos_site_id
 _symmetry_equiv_pos_as_xyz
  1  'x, y, z'
loop_
 _atom_site_type_symbol
 _atom_site_label
 _atom_site_symmetry_multiplicity
 _atom_site_fract_x
 _atom_site_fract_y
 _atom_site_fract_z
 _atom_site_occupancy
  Ni  Ni0  1  1.00309097  1.00217544  1.00284940  1
  Fe  Fe1  1  0.17017891  0.16918429  0.16946761  1
  Ni  Ni2  1  0.00362180  1.00176488  0.33703156  1
  Fe  Fe3  1  0.00346733  0.33631428  1.00268522  1
  Ni  Ni4  1  0.16948766  0.50445415  0.16963582  1
  Fe  Fe5  1  1.00246185  0.33675868  0.33727955  1
  Ni  Ni6  1  0.00361080  0.67096675  1.00263485  1
  Ni  Ni7  1  0.17077108  0.83563407  0.16934306  1
  Ni  Ni8  1  1.00270138  0.67087877  0.33761601  1
  Ni  Ni9  1  0.33556258  1.00273462  0.00395380  1
  Ni  Ni10  1  0.50384069  0.16908106  0.17000454  1
  Ni  Ni11  1  0.33628503  0.00411885  0.33683086  1
  Ni  Ni12  1  0.33658293  0.33776985  0.00384235  1
  Fe  Fe13  1  0.50377021  0.50325499  0.17029014  1
  Ni  Ni14  1  0.33729739  0.33645361  0.33701607  1
  Ni  Ni15  1  0.33579862  0.66965476  1.00315635  1
  Ni  Ni16  1  0.50251018  0.83825880  0.16942697  1
  Fe  Fe17  1  0.33690861  0.67083018  0.33669549  1
  Ni  Ni18  1  0.67150532  1.00296035  0.00414325  1
  Ni  Ni19  1  0.83524603  0.17036306  0.16882314  1
  Ni  Ni20  1  0.67025259  1.00292237  0.33713314  1
  Ni  Ni21  1  0.67019089  0.33725528  1.00325393  1
  Ni  Ni22  1  0.83787248  0.50312370  0.16986489  1
  Ni  Ni23  1  0.66896525  0.33737364  0.33804298  1
  Fe  Fe24  1  0.67010843  0.67070892  0.00359766  1
  Ni  Ni25  1  0.83688014  0.83667329  0.17034947  1
  Ni  Ni26  1  0.67131583  0.66986595  0.33628928  1
  Fe  Fe27  1  0.17085049  0.17070709  0.50387977  1
  Fe  Fe28  1  1.00263278  0.00486819  0.67046811  1
  Ni  Ni29  1  0.16924342  0.17013633  0.83692906  1
  Ni  Ni30  1  0.16977428  0.50471449  0.50421578  1
  Ni  Ni31  1  0.00417548  0.33673014  0.67026566  1
  Fe  Fe32  1  0.16920278  0.50259597  0.83684916  1
  Ni  Ni33  1  0.17108106  0.83550224  0.50387502  1
  Fe  Fe34  1  0.00422558  0.66885604  0.66990126  1
  Fe  Fe35  1  0.16881132  0.83730041  0.83754138  1
  Ni  Ni36  1  0.50450316  0.16965626  0.50391795  1
  Fe  Fe37  1  0.33660893  0.00367944  0.66891559  1
  Cr  Cr38  1  0.50388196  0.16980566  0.83629542  1
  Ni  Ni39  1  0.50239772  0.50207326  0.50264923  1
  Ni  Ni40  1  0.33538095  0.33751235  0.66930471  1
  Fe  Fe41  1  0.50326456  0.50301886  0.83714608  1
  Ni  Ni42  1  0.50138061  0.83843562  0.50297102  1
  Fe  Fe43  1  0.33581870  0.66924989  0.66967533  1
  Fe  Fe44  1  0.50359641  0.83681625  0.83774383  1
  Ni  Ni45  1  0.83505370  0.17096449  0.50454054  1
  Ni  Ni46  1  0.67116881  0.00391045  0.66888418  1
  Ni  Ni47  1  0.83766727  0.17040839  0.83679841  1
  Ni  Ni48  1  0.83798869  0.50158647  0.50271348  1
  Ni  Ni49  1  0.67060503  0.33590340  0.66886494  1
  Ni  Ni50  1  0.83804032  0.50284795  0.83758268  1
  Fe  Fe51  1  0.83684697  0.83714348  0.50215154  1
  Cr  Cr52  1  0.67067465  0.67004298  0.67007123  1
  Ni  Ni53  1  0.83774564  0.83690554  0.83749751  1
" 