8640,Ni67Fe14Cr18_19,-233.156530111414, 177.501580209333,Ni67Fe14Cr18,"# generated using pymatgen
 data_Cr11Fe7Ni36
_symmetry_space_group_name_H-M   'P 1'
_cell_length_a   7.45644207
_cell_length_b   7.45644207
_cell_length_c   10.54500151
_cell_angle_alpha   90.00000000
_cell_angle_beta   90.00000000
_cell_angle_gamma   90.00000000
_symmetry_Int_Tables_number   1
_chemical_formula_structural   Cr11Fe7Ni36
_chemical_formula_sum   'Cr11 Fe7 Ni36'
_cell_volume   586.28656560
_cell_formula_units_Z   1
loop_
 _symmetry_equiv_pos_site_id
 _symmetry_equiv_pos_as_xyz
  1  'x, y, z'
loop_
 _atom_site_type_symbol
 _atom_site_label
 _atom_site_symmetry_multiplicity
 _atom_site_fract_x
 _atom_site_fract_y
 _atom_site_fract_z
 _atom_site_occupancy
  Cr  Cr0  1  0.00162994  0.00272885  0.00093403  1
  Ni  Ni1  1  0.16690216  0.16924941  0.16846912  1
  Ni  Ni2  1  1.00031599  0.00086031  0.33369135  1
  Cr  Cr3  1  0.99947640  0.33363071  0.00086349  1
  Ni  Ni4  1  0.17014514  0.50054900  0.16925321  1
  Fe  Fe5  1  0.00248744  0.33413781  0.33389396  1
  Cr  Cr6  1  0.00120768  0.66577298  0.99910731  1
  Ni  Ni7  1  0.16831987  0.83233631  0.16886693  1
  Ni  Ni8  1  0.00183518  0.66750482  0.33508990  1
  Cr  Cr9  1  0.33433959  1.00029247  0.00144727  1
  Ni  Ni10  1  0.50082234  0.16996982  0.16684442  1
  Cr  Cr11  1  0.33398836  0.99999416  0.33364421  1
  Fe  Fe12  1  0.33523080  0.33533689  0.00172932  1
  Ni  Ni13  1  0.49912558  0.50137319  0.16612577  1
  Ni  Ni14  1  0.33269956  0.33568396  0.33351060  1
  Ni  Ni15  1  0.33608553  0.66654382  0.00310609  1
  Ni  Ni16  1  0.50022902  0.83079053  0.16796182  1
  Ni  Ni17  1  0.33350133  0.66620344  0.33313374  1
  Cr  Cr18  1  0.66616417  0.00202303  0.99952513  1
  Ni  Ni19  1  0.83441111  0.16814609  0.16933447  1
  Ni  Ni20  1  0.66871509  1.00005644  0.33485501  1
  Ni  Ni21  1  0.66717126  0.33530526  0.00134773  1
  Fe  Fe22  1  0.83281153  0.49997157  0.16789053  1
  Cr  Cr23  1  0.66710977  0.33396228  0.33368017  1
  Ni  Ni24  1  0.66475257  0.66486410  1.00069538  1
  Cr  Cr25  1  0.83350974  0.83407255  0.16966178  1
  Ni  Ni26  1  0.66679794  0.66791028  0.33422819  1
  Ni  Ni27  1  0.16734941  0.16771219  0.50162464  1
  Ni  Ni28  1  0.00088640  0.00250518  0.66747982  1
  Ni  Ni29  1  0.16776415  0.16973365  0.83204313  1
  Fe  Fe30  1  0.16759977  0.50027343  0.49974234  1
  Ni  Ni31  1  1.00014326  0.33287703  0.66777555  1
  Ni  Ni32  1  0.16616953  0.49786436  0.83303978  1
  Ni  Ni33  1  0.16493163  0.83496532  0.50004295  1
  Fe  Fe34  1  0.99810387  0.66612678  0.66650487  1
  Cr  Cr35  1  0.16662194  0.83439356  0.83334253  1
  Ni  Ni36  1  0.49945556  0.16828251  0.50260353  1
  Ni  Ni37  1  0.33376491  0.00313966  0.66714619  1
  Ni  Ni38  1  0.50061833  0.16781328  0.83268635  1
  Ni  Ni39  1  0.50152651  0.50035959  0.50031670  1
  Ni  Ni40  1  0.33302027  0.33075359  0.66757666  1
  Cr  Cr41  1  0.50148062  0.49951279  0.83568828  1
  Ni  Ni42  1  0.50277791  0.83349152  0.50034059  1
  Cr  Cr43  1  0.33481529  0.66830972  0.66532118  1
  Ni  Ni44  1  0.50377649  0.83469053  0.83382836  1
  Fe  Fe45  1  0.83452418  0.16589216  0.50149438  1
  Fe  Fe46  1  0.66678652  0.00123511  0.66745946  1
  Ni  Ni47  1  0.83375056  0.16801006  0.83164005  1
  Ni  Ni48  1  0.83385585  0.50277900  0.50137579  1
  Ni  Ni49  1  0.66896812  0.33390167  0.66742384  1
  Ni  Ni50  1  0.83390917  0.50102471  0.83346560  1
  Ni  Ni51  1  0.83442490  0.83289376  0.50075524  1
  Ni  Ni52  1  0.66960479  0.66749459  0.66721176  1
  Ni  Ni53  1  0.83198794  0.83309715  0.83158250  1
" 