6998,Ni67Fe14Cr18_10,-233.303174702502, 182.832565850695,Ni67Fe14Cr18,"# generated using pymatgen
 data_Cr11Fe7Ni36
_symmetry_space_group_name_H-M   'P 1'
_cell_length_a   7.45435231
_cell_length_b   7.45435231
_cell_length_c   10.54204613
_cell_angle_alpha   90.00000000
_cell_angle_beta   90.00000000
_cell_angle_gamma   90.00000000
_symmetry_Int_Tables_number   1
_chemical_formula_structural   Cr11Fe7Ni36
_chemical_formula_sum   'Cr11 Fe7 Ni36'
_cell_volume   585.79376037
_cell_formula_units_Z   1
loop_
 _symmetry_equiv_pos_site_id
 _symmetry_equiv_pos_as_xyz
  1  'x, y, z'
loop_
 _atom_site_type_symbol
 _atom_site_label
 _atom_site_symmetry_multiplicity
 _atom_site_fract_x
 _atom_site_fract_y
 _atom_site_fract_z
 _atom_site_occupancy
  Ni  Ni0  1  0.00239465  0.00191293  0.99962178  1
  Ni  Ni1  1  0.16856541  0.16740726  0.16556911  1
  Ni  Ni2  1  0.99998508  0.00131377  0.33489301  1
  Fe  Fe3  1  1.00065021  0.33383843  0.00161356  1
  Ni  Ni4  1  0.16730633  0.50083545  0.16596439  1
  Cr  Cr5  1  0.00105818  0.33410046  0.33420400  1
  Ni  Ni6  1  0.00201413  0.66714569  1.00050059  1
  Cr  Cr7  1  0.16901629  0.83411680  0.16755167  1
  Ni  Ni8  1  1.00045440  0.66685606  0.33479311  1
  Ni  Ni9  1  0.33232367  0.00325733  0.00212073  1
  Ni  Ni10  1  0.49952597  0.16855696  0.16626445  1
  Fe  Fe11  1  0.33365007  1.00060271  0.33412767  1
  Ni  Ni12  1  0.33548640  0.33368151  0.00221940  1
  Ni  Ni13  1  0.50109475  0.49999393  0.16736576  1
  Cr  Cr14  1  0.33446349  0.33511311  0.33481090  1
  Ni  Ni15  1  0.33288349  0.66561616  0.00224174  1
  Ni  Ni16  1  0.49800964  0.83400372  0.16845118  1
  Ni  Ni17  1  0.33562392  0.66648113  0.33355910  1
  Cr  Cr18  1  0.66799295  0.00306849  1.00034361  1
  Fe  Fe19  1  0.83470776  0.16999313  0.16667512  1
  Cr  Cr20  1  0.66770933  0.00097577  0.33440898  1
  Ni  Ni21  1  0.66631115  0.33405719  0.00167937  1
  Ni  Ni22  1  0.83415500  0.49931937  0.16718130  1
  Fe  Fe23  1  0.66804420  0.33589973  0.33400996  1
  Cr  Cr24  1  0.66757388  0.66529564  0.00089870  1
  Cr  Cr25  1  0.83558186  0.83280561  0.16834806  1
  Fe  Fe26  1  0.66742140  0.66597807  0.33501151  1
  Ni  Ni27  1  0.16706741  0.16695845  0.50202120  1
  Ni  Ni28  1  0.99908009  0.00141602  0.66803919  1
  Fe  Fe29  1  0.16654532  0.16468490  0.83491013  1
  Ni  Ni30  1  0.16580400  0.50173356  0.50112907  1
  Ni  Ni31  1  0.99852388  0.33337545  0.66634866  1
  Cr  Cr32  1  0.16668324  0.50287980  0.83526227  1
  Cr  Cr33  1  0.16765995  0.83390608  0.50061282  1
  Ni  Ni34  1  0.99877594  0.66776232  0.66726215  1
  Ni  Ni35  1  0.16578359  0.83530986  0.83465225  1
  Ni  Ni36  1  0.50172896  0.16612969  0.50183557  1
  Ni  Ni37  1  0.33471958  0.00111088  0.66677346  1
  Ni  Ni38  1  0.50178112  0.16893271  0.83445747  1
  Fe  Fe39  1  0.50235995  0.50233005  0.50135682  1
  Cr  Cr40  1  0.33447630  0.33388869  0.66631724  1
  Ni  Ni41  1  0.50257884  0.49860579  0.83423163  1
  Ni  Ni42  1  0.50120720  0.83439034  0.50131988  1
  Ni  Ni43  1  0.33520520  0.66788988  0.66675533  1
  Cr  Cr44  1  0.49859795  0.83478801  0.83287641  1
  Ni  Ni45  1  0.83375683  0.16821741  0.50198179  1
  Ni  Ni46  1  0.66875459  0.00136005  0.66688251  1
  Ni  Ni47  1  0.83391365  0.16836058  0.83373299  1
  Ni  Ni48  1  0.83428561  0.50121060  0.50186491  1
  Ni  Ni49  1  0.66887844  0.33385979  0.66716223  1
  Ni  Ni50  1  0.83362063  0.49968208  0.83350601  1
  Ni  Ni51  1  0.83345389  0.83312764  0.50201528  1
  Ni  Ni52  1  0.66857547  0.66733467  0.66612807  1
  Ni  Ni53  1  0.83816173  0.83451124  0.83211889  1
" 