795,Ni67Fe29Cr2_2,-241.052135187029, 214.399658827501,Ni67Fe29Cr2,"# generated using pymatgen
 data_Cr(Fe4Ni9)2
_symmetry_space_group_name_H-M   'P 1'
_cell_length_a   7.41300627
_cell_length_b   7.41300627
_cell_length_c   10.48357400
_cell_angle_alpha   90.00000000
_cell_angle_beta   90.00000000
_cell_angle_gamma   90.00000000
_symmetry_Int_Tables_number   1
_chemical_formula_structural   Cr(Fe4Ni9)2
_chemical_formula_sum   'Cr2 Fe16 Ni36'
_cell_volume   576.10029786
_cell_formula_units_Z   2
loop_
 _symmetry_equiv_pos_site_id
 _symmetry_equiv_pos_as_xyz
  1  'x, y, z'
loop_
 _atom_site_type_symbol
 _atom_site_label
 _atom_site_symmetry_multiplicity
 _atom_site_fract_x
 _atom_site_fract_y
 _atom_site_fract_z
 _atom_site_occupancy
  Ni  Ni0  1  1.00228272  0.00469734  1.00360392  1
  Ni  Ni1  1  0.17040944  0.17030164  0.16995161  1
  Ni  Ni2  1  1.00314212  0.00489112  0.33707865  1
  Ni  Ni3  1  0.00664387  0.33462203  0.00412796  1
  Ni  Ni4  1  0.17050469  0.50399560  0.16949352  1
  Ni  Ni5  1  0.00486443  0.33519766  0.33765505  1
  Ni  Ni6  1  0.00528900  0.67161351  0.00441011  1
  Ni  Ni7  1  0.17042757  0.83663093  0.16996991  1
  Ni  Ni8  1  0.00427577  0.67084504  0.33767949  1
  Fe  Fe9  1  0.33679966  1.00303611  1.00328278  1
  Ni  Ni10  1  0.50339283  0.16983410  0.16993438  1
  Fe  Fe11  1  0.33630654  1.00253676  0.33734392  1
  Ni  Ni12  1  0.33653253  0.33789924  0.00403145  1
  Fe  Fe13  1  0.50142951  0.50429279  0.17007405  1
  Fe  Fe14  1  0.33644302  0.33773228  0.33621588  1
  Ni  Ni15  1  0.33817637  0.66862818  1.00350766  1
  Ni  Ni16  1  0.50279664  0.83768455  0.16995101  1
  Ni  Ni17  1  0.33836810  0.66973109  0.33707216  1
  Ni  Ni18  1  0.67074179  1.00304704  0.00393764  1
  Ni  Ni19  1  0.83712972  0.16975885  0.16951791  1
  Fe  Fe20  1  0.67116475  1.00294444  0.33683717  1
  Fe  Fe21  1  0.66879048  0.33545221  1.00352435  1
  Cr  Cr22  1  0.83824129  0.50389640  0.17024292  1
  Fe  Fe23  1  0.67040013  0.33668783  0.33833904  1
  Ni  Ni24  1  0.66746640  0.67298818  0.00400819  1
  Ni  Ni25  1  0.83770355  0.83777924  0.16959559  1
  Ni  Ni26  1  0.66828990  0.67145577  0.33779447  1
  Fe  Fe27  1  0.16968423  0.16976822  0.50353692  1
  Ni  Ni28  1  1.00337498  0.00460585  0.67025019  1
  Fe  Fe29  1  0.17110405  0.17024477  0.83729919  1
  Fe  Fe30  1  0.16962886  0.50410803  0.50290706  1
  Ni  Ni31  1  0.00505219  0.33594323  0.66914673  1
  Fe  Fe32  1  0.17273046  0.50389770  0.83800929  1
  Ni  Ni33  1  0.17000510  0.83684562  0.50351892  1
  Ni  Ni34  1  0.00370347  0.67038169  0.66884387  1
  Ni  Ni35  1  0.17058811  0.83726038  0.83744819  1
  Ni  Ni36  1  0.50399265  0.17058182  0.50414508  1
  Ni  Ni37  1  0.33809724  0.00431973  0.67031224  1
  Ni  Ni38  1  0.50346956  0.17022463  0.83685432  1
  Ni  Ni39  1  0.50478897  0.50322690  0.50390854  1
  Fe  Fe40  1  0.33754363  0.33645308  0.67091559  1
  Ni  Ni41  1  0.50311523  0.50314303  0.83761279  1
  Ni  Ni42  1  0.50263923  0.83712461  0.50443765  1
  Fe  Fe43  1  0.33682046  0.67167333  0.67039820  1
  Ni  Ni44  1  0.50211896  0.83756506  0.83654333  1
  Ni  Ni45  1  0.83694607  0.17166884  0.50411028  1
  Ni  Ni46  1  0.66945651  1.00297313  0.66974046  1
  Fe  Fe47  1  0.83658089  0.16803155  0.83699505  1
  Ni  Ni48  1  0.83723387  0.50321299  0.50374055  1
  Fe  Fe49  1  0.67003402  0.33572413  0.66907798  1
  Cr  Cr50  1  0.83708256  0.50354796  0.83736815  1
  Ni  Ni51  1  0.83828339  0.83605284  0.50433483  1
  Ni  Ni52  1  0.66880613  0.67170768  0.66913984  1
  Fe  Fe53  1  0.83593825  0.83836516  0.83705591  1
" 