2761,Ni67Fe29Cr2_19,-240.99612405696, 216.07849637394,Ni67Fe29Cr2,"# generated using pymatgen
 data_Cr(Fe4Ni9)2
_symmetry_space_group_name_H-M   'P 1'
_cell_length_a   7.41161775
_cell_length_b   7.41161775
_cell_length_c   10.48161035
_cell_angle_alpha   90.00000000
_cell_angle_beta   90.00000000
_cell_angle_gamma   90.00000000
_symmetry_Int_Tables_number   1
_chemical_formula_structural   Cr(Fe4Ni9)2
_chemical_formula_sum   'Cr2 Fe16 Ni36'
_cell_volume   575.77663421
_cell_formula_units_Z   2
loop_
 _symmetry_equiv_pos_site_id
 _symmetry_equiv_pos_as_xyz
  1  'x, y, z'
loop_
 _atom_site_type_symbol
 _atom_site_label
 _atom_site_symmetry_multiplicity
 _atom_site_fract_x
 _atom_site_fract_y
 _atom_site_fract_z
 _atom_site_occupancy
  Ni  Ni0  1  1.00305067  0.00466279  0.00583872  1
  Ni  Ni1  1  0.16925433  0.16943917  0.17077403  1
  Fe  Fe2  1  0.00433045  1.00344273  0.33732359  1
  Fe  Fe3  1  0.00490894  0.33722684  0.00492402  1
  Ni  Ni4  1  0.16951551  0.50507476  0.17032115  1
  Ni  Ni5  1  1.00222676  0.33741662  0.33657761  1
  Ni  Ni6  1  1.00326257  0.67141950  1.00228168  1
  Ni  Ni7  1  0.17036376  0.83667680  0.16990674  1
  Ni  Ni8  1  0.00486515  0.66957895  0.33759961  1
  Ni  Ni9  1  0.33472299  1.00368594  1.00127150  1
  Cr  Cr10  1  0.50289615  0.16970551  0.16837873  1
  Ni  Ni11  1  0.33657887  1.00170638  0.33885181  1
  Ni  Ni12  1  0.33669312  0.33830270  0.00392330  1
  Ni  Ni13  1  0.50450079  0.50523152  0.17161909  1
  Fe  Fe14  1  0.33622180  0.33726668  0.33748557  1
  Ni  Ni15  1  0.33726534  0.66949052  0.00429916  1
  Fe  Fe16  1  0.50241159  0.83608561  0.17045415  1
  Ni  Ni17  1  0.33578046  0.67106982  0.33627518  1
  Fe  Fe18  1  0.67129498  1.00192947  1.00264746  1
  Ni  Ni19  1  0.83776945  0.17057450  0.17111997  1
  Ni  Ni20  1  0.67142663  0.00469458  0.33726154  1
  Fe  Fe21  1  0.67120627  0.33824873  1.00309744  1
  Ni  Ni22  1  0.83745221  0.50429214  0.16934665  1
  Ni  Ni23  1  0.67264840  0.33670127  0.33848504  1
  Ni  Ni24  1  0.67050027  0.66954539  0.00463474  1
  Fe  Fe25  1  0.83831097  0.83618594  0.17095786  1
  Fe  Fe26  1  0.67121265  0.66993424  0.33732076  1
  Ni  Ni27  1  0.17157707  0.17065054  0.50320690  1
  Ni  Ni28  1  1.00349813  0.00425791  0.66880701  1
  Ni  Ni29  1  0.16971687  0.17143607  0.83704008  1
  Ni  Ni30  1  0.16758219  0.50327217  0.50212178  1
  Fe  Fe31  1  1.00362801  0.33652336  0.66979719  1
  Ni  Ni32  1  0.16890659  0.50315848  0.83835612  1
  Ni  Ni33  1  0.16938730  0.83733417  0.50435506  1
  Fe  Fe34  1  1.00185425  0.66986298  0.66983898  1
  Fe  Fe35  1  0.17000857  0.83898264  0.83839459  1
  Ni  Ni36  1  0.50431598  0.16928062  0.50513121  1
  Fe  Fe37  1  0.33895311  0.00523851  0.67028119  1
  Ni  Ni38  1  0.50409346  0.17008075  0.83700674  1
  Fe  Fe39  1  0.50380927  0.50354789  0.50288525  1
  Ni  Ni40  1  0.33704308  0.33673400  0.66950555  1
  Ni  Ni41  1  0.50405592  0.50366605  0.83761703  1
  Ni  Ni42  1  0.50552794  0.83923988  0.50234386  1
  Cr  Cr43  1  0.33689826  0.66993663  0.67114522  1
  Ni  Ni44  1  0.50581904  0.83741137  0.83836651  1
  Fe  Fe45  1  0.83752416  0.16982184  0.50372622  1
  Ni  Ni46  1  0.67262710  0.00412204  0.67089677  1
  Ni  Ni47  1  0.83760754  0.16995948  0.83724731  1
  Ni  Ni48  1  0.83725891  0.50453454  0.50468259  1
  Ni  Ni49  1  0.66973732  0.33651835  0.67059145  1
  Fe  Fe50  1  0.83560199  0.50303962  0.83691566  1
  Ni  Ni51  1  0.83638643  0.83566614  0.50319311  1
  Ni  Ni52  1  0.67061992  0.67058396  0.66916452  1
  Fe  Fe53  1  0.83721756  0.83747800  0.83633208  1
" 