2677,Ni67Fe29Cr2_7,-241.094513174858, 216.74738143645,Ni67Fe29Cr2,"# generated using pymatgen
 data_Cr(Fe4Ni9)2
_symmetry_space_group_name_H-M   'P 1'
_cell_length_a   7.41384564
_cell_length_b   7.41384564
_cell_length_c   10.48476105
_cell_angle_alpha   90.00000000
_cell_angle_beta   90.00000000
_cell_angle_gamma   90.00000000
_symmetry_Int_Tables_number   1
_chemical_formula_structural   Cr(Fe4Ni9)2
_chemical_formula_sum   'Cr2 Fe16 Ni36'
_cell_volume   576.29601461
_cell_formula_units_Z   2
loop_
 _symmetry_equiv_pos_site_id
 _symmetry_equiv_pos_as_xyz
  1  'x, y, z'
loop_
 _atom_site_type_symbol
 _atom_site_label
 _atom_site_symmetry_multiplicity
 _atom_site_fract_x
 _atom_site_fract_y
 _atom_site_fract_z
 _atom_site_occupancy
  Ni  Ni0  1  0.00367683  1.00343306  1.00340588  1
  Ni  Ni1  1  0.17023204  0.16979174  0.17008388  1
  Ni  Ni2  1  0.00480233  1.00349935  0.33763538  1
  Ni  Ni3  1  1.00253748  0.33668129  0.00369196  1
  Ni  Ni4  1  0.16823642  0.50404984  0.17116992  1
  Ni  Ni5  1  0.00402556  0.33732656  0.33672243  1
  Ni  Ni6  1  0.00383157  0.67064798  0.00362655  1
  Ni  Ni7  1  0.17028726  0.83692106  0.17005760  1
  Ni  Ni8  1  1.00347810  0.66993667  0.33702740  1
  Fe  Fe9  1  0.33718828  1.00153895  0.00367123  1
  Ni  Ni10  1  0.50423503  0.16907884  0.17073310  1
  Ni  Ni11  1  0.33665731  0.00382472  0.33601799  1
  Cr  Cr12  1  0.33675721  0.33644569  0.00367692  1
  Fe  Fe13  1  0.50440685  0.50490960  0.17110950  1
  Fe  Fe14  1  0.33649522  0.33639860  0.33731078  1
  Ni  Ni15  1  0.33686932  0.67202617  1.00332094  1
  Ni  Ni16  1  0.50389173  0.83792148  0.16996117  1
  Fe  Fe17  1  0.33657887  0.67064103  0.33641510  1
  Ni  Ni18  1  0.67017764  1.00323587  1.00354132  1
  Fe  Fe19  1  0.83734442  0.16990611  0.16963690  1
  Ni  Ni20  1  0.66930413  1.00327783  0.33745193  1
  Ni  Ni21  1  0.67155518  0.33664152  1.00329747  1
  Ni  Ni22  1  0.83729845  0.50370742  0.16980336  1
  Ni  Ni23  1  0.67029797  0.33733196  0.33701691  1
  Ni  Ni24  1  0.67006140  0.67089008  0.00376098  1
  Ni  Ni25  1  0.83658569  0.83592670  0.16935329  1
  Ni  Ni26  1  0.67062060  0.67015375  0.33673777  1
  Ni  Ni27  1  0.17140041  0.16948917  0.50357574  1
  Fe  Fe28  1  0.00382971  1.00202301  0.67011269  1
  Fe  Fe29  1  0.17067777  0.16797527  0.83674410  1
  Ni  Ni30  1  0.17077516  0.50396698  0.50309852  1
  Cr  Cr31  1  0.00411137  0.33764282  0.67006970  1
  Fe  Fe32  1  0.17053198  0.50515914  0.83718064  1
  Ni  Ni33  1  0.16932766  0.83730690  0.50358487  1
  Ni  Ni34  1  1.00308390  0.67176678  0.67011342  1
  Ni  Ni35  1  0.17071079  0.83641314  0.83712148  1
  Fe  Fe36  1  0.50306775  0.17078985  0.50372738  1
  Ni  Ni37  1  0.33695227  0.00424461  0.67100081  1
  Ni  Ni38  1  0.50531304  0.16974234  0.83558941  1
  Ni  Ni39  1  0.50438479  0.50263030  0.50396625  1
  Ni  Ni40  1  0.33852867  0.33552151  0.66965436  1
  Fe  Fe41  1  0.50468687  0.50420423  0.83560618  1
  Fe  Fe42  1  0.50336065  0.83623615  0.50344601  1
  Fe  Fe43  1  0.33696616  0.66977803  0.67067324  1
  Ni  Ni44  1  0.50284796  0.83741462  0.83690874  1
  Fe  Fe45  1  0.83691176  0.17024780  0.50282883  1
  Fe  Fe46  1  0.66996927  0.00381655  0.67088755  1
  Ni  Ni47  1  0.83515471  0.17074258  0.83812520  1
  Ni  Ni48  1  0.83560583  0.50470286  0.50329362  1
  Ni  Ni49  1  0.66795954  0.33752203  0.67044840  1
  Fe  Fe50  1  0.83554407  0.50437169  0.83778298  1
  Ni  Ni51  1  0.83737296  0.83624819  0.50452432  1
  Ni  Ni52  1  0.67072273  0.67019257  0.67026490  1
  Fe  Fe53  1  0.83652209  0.83745980  0.83718576  1
" 