5591,Ni67Fe14Cr18_0,-233.265516035349, 178.275596164883,Ni67Fe14Cr18,"# generated using pymatgen
 data_Cr11Fe7Ni36
_symmetry_space_group_name_H-M   'P 1'
_cell_length_a   7.45943888
_cell_length_b   7.45943888
_cell_length_c   10.54923964
_cell_angle_alpha   90.00000000
_cell_angle_beta   90.00000000
_cell_angle_gamma   90.00000000
_symmetry_Int_Tables_number   1
_chemical_formula_structural   Cr11Fe7Ni36
_chemical_formula_sum   'Cr11 Fe7 Ni36'
_cell_volume   586.99375130
_cell_formula_units_Z   1
loop_
 _symmetry_equiv_pos_site_id
 _symmetry_equiv_pos_as_xyz
  1  'x, y, z'
loop_
 _atom_site_type_symbol
 _atom_site_label
 _atom_site_symmetry_multiplicity
 _atom_site_fract_x
 _atom_site_fract_y
 _atom_site_fract_z
 _atom_site_occupancy
  Cr  Cr0  1  0.00257048  0.99954828  0.00061770  1
  Fe  Fe1  1  0.16805249  0.16498999  0.16713201  1
  Ni  Ni2  1  0.00093273  0.99978531  0.33374532  1
  Ni  Ni3  1  1.00031749  0.33604740  1.00033543  1
  Cr  Cr4  1  0.16697940  0.50060535  0.16586024  1
  Cr  Cr5  1  1.00014955  0.33306708  0.33365765  1
  Ni  Ni6  1  0.99958006  0.66517100  0.99936670  1
  Ni  Ni7  1  0.16803981  0.83657279  0.16818790  1
  Cr  Cr8  1  0.99946575  0.66845112  0.33416306  1
  Ni  Ni9  1  0.33321947  0.00161682  0.00110203  1
  Fe  Fe10  1  0.50057497  0.16602393  0.16829918  1
  Ni  Ni11  1  0.33474222  1.00034815  0.33332066  1
  Ni  Ni12  1  0.33255934  0.33136832  0.99864125  1
  Cr  Cr13  1  0.50125018  0.49954970  0.16904384  1
  Ni  Ni14  1  0.33578807  0.33216460  0.33641975  1
  Cr  Cr15  1  0.33246799  0.66939603  0.99828794  1
  Ni  Ni16  1  0.49946645  0.83672238  0.16942575  1
  Ni  Ni17  1  0.33605443  0.66901772  0.33567890  1
  Cr  Cr18  1  0.66501160  0.99989128  0.00214473  1
  Ni  Ni19  1  0.83300050  0.16751335  0.16799928  1
  Ni  Ni20  1  0.66587840  0.99952146  0.33263099  1
  Ni  Ni21  1  0.66864227  0.33483484  0.00111296  1
  Ni  Ni22  1  0.83314111  0.49871455  0.16578238  1
  Ni  Ni23  1  0.66563593  0.33380542  0.33379892  1
  Cr  Cr24  1  0.66963895  0.66692206  0.99888777  1
  Ni  Ni25  1  0.83402312  0.83529618  0.16879239  1
  Ni  Ni26  1  0.66619979  0.66820886  0.33515314  1
  Ni  Ni27  1  0.16956034  0.16723007  0.50065419  1
  Fe  Fe28  1  0.00252868  0.99854256  0.66710627  1
  Ni  Ni29  1  0.16803875  0.16806159  0.83421235  1
  Ni  Ni30  1  0.16936321  0.49980570  0.50180102  1
  Ni  Ni31  1  0.00166496  0.33644031  0.66773993  1
  Ni  Ni32  1  0.16643419  0.50001071  0.83394819  1
  Fe  Fe33  1  0.16867458  0.83406928  0.50107131  1
  Ni  Ni34  1  0.00053344  0.66552411  0.66796527  1
  Ni  Ni35  1  0.16747309  0.83345299  0.83277741  1
  Ni  Ni36  1  0.49850274  0.16703911  0.49938660  1
  Ni  Ni37  1  0.33464796  0.99933582  0.66712541  1
  Cr  Cr38  1  0.49857767  0.16755658  0.83411245  1
  Ni  Ni39  1  0.49939794  0.50073641  0.49971745  1
  Fe  Fe40  1  0.33224801  0.33467721  0.66621391  1
  Ni  Ni41  1  0.49987053  0.50081242  0.83272035  1
  Ni  Ni42  1  0.50070765  0.83377088  0.49988173  1
  Ni  Ni43  1  0.33347693  0.66777194  0.66743759  1
  Ni  Ni44  1  0.49923272  0.83306944  0.83220891  1
  Cr  Cr45  1  0.83345509  0.16547101  0.50143019  1
  Ni  Ni46  1  0.66548772  0.99818633  0.66665280  1
  Cr  Cr47  1  0.83534694  0.16812925  0.83211455  1
  Ni  Ni48  1  0.83274440  0.50200872  0.50129192  1
  Fe  Fe49  1  0.66637500  0.33648697  0.66629983  1
  Ni  Ni50  1  0.83521497  0.50136470  0.83445012  1
  Ni  Ni51  1  0.83256650  0.83354825  0.50062680  1
  Fe  Fe52  1  0.66720160  0.66784159  0.66690704  1
  Ni  Ni53  1  0.83483220  0.83144242  0.83209893  1
" 