8636,Ni67Fe8Cr23_17,-230.289014660885, 166.462575366205,Ni67Fe8Cr23,"# generated using pymatgen
 data_Cr7(FeNi9)2
_symmetry_space_group_name_H-M   'P 1'
_cell_length_a   7.47011887
_cell_length_b   7.47011887
_cell_length_c   10.56434342
_cell_angle_alpha   90.00000000
_cell_angle_beta   90.00000000
_cell_angle_gamma   90.00000000
_symmetry_Int_Tables_number   1
_chemical_formula_structural   Cr7(FeNi9)2
_chemical_formula_sum   'Cr14 Fe4 Ni36'
_cell_volume   589.51863220
_cell_formula_units_Z   2
loop_
 _symmetry_equiv_pos_site_id
 _symmetry_equiv_pos_as_xyz
  1  'x, y, z'
loop_
 _atom_site_type_symbol
 _atom_site_label
 _atom_site_symmetry_multiplicity
 _atom_site_fract_x
 _atom_site_fract_y
 _atom_site_fract_z
 _atom_site_occupancy
  Ni  Ni0  1  0.99864157  0.00005847  -0.00016976  1
  Fe  Fe1  1  0.16783999  0.16725578  0.16773177  1
  Cr  Cr2  1  0.99953179  0.00036846  0.33357238  1
  Cr  Cr3  1  0.99778383  0.33349376  -0.00013134  1
  Ni  Ni4  1  0.16653287  0.49912698  0.16900595  1
  Ni  Ni5  1  0.00216684  0.33582625  0.33410794  1
  Cr  Cr6  1  0.00177012  0.66650316  0.99977021  1
  Cr  Cr7  1  0.16758611  0.83298530  0.16562252  1
  Ni  Ni8  1  0.99817585  0.66290795  0.33273337  1
  Ni  Ni9  1  0.33501667  0.99817347  0.99942296  1
  Ni  Ni10  1  0.49913690  0.16568564  0.16521573  1
  Ni  Ni11  1  0.33463807  0.00152536  0.33337987  1
  Cr  Cr12  1  0.33573663  0.33446611  0.00083264  1
  Ni  Ni13  1  0.49930564  0.49963879  0.16696469  1
  Ni  Ni14  1  0.33109225  0.33360552  0.33334730  1
  Ni  Ni15  1  0.33357830  0.66757919  0.99772105  1
  Ni  Ni16  1  0.49985480  0.83405887  0.16640132  1
  Ni  Ni17  1  0.33421004  0.66425305  0.33338901  1
  Ni  Ni18  1  0.66572488  0.00243770  0.00022321  1
  Fe  Fe19  1  0.83228091  0.16677967  0.16450763  1
  Cr  Cr20  1  0.66471116  0.99777417  0.33413353  1
  Ni  Ni21  1  0.66635039  0.33093410  0.99902660  1
  Ni  Ni22  1  0.83354535  0.49984109  0.16804783  1
  Cr  Cr23  1  0.66565140  0.33450648  0.33303092  1
  Cr  Cr24  1  0.66460733  0.66551248  0.00027706  1
  Ni  Ni25  1  0.83214670  0.83300544  0.16676146  1
  Ni  Ni26  1  0.66699773  0.66645352  0.33380541  1
  Ni  Ni27  1  0.16706919  0.16856050  0.49997315  1
  Ni  Ni28  1  0.00098700  0.00115856  0.66608782  1
  Cr  Cr29  1  0.16617360  0.16426272  0.83152510  1
  Ni  Ni30  1  0.16675157  0.49671187  0.49843455  1
  Fe  Fe31  1  0.00048742  0.33213168  0.66529752  1
  Ni  Ni32  1  0.16796924  0.50161661  0.83194286  1
  Cr  Cr33  1  0.16771378  0.83388849  0.49989079  1
  Cr  Cr34  1  0.99929466  0.66565312  0.66707961  1
  Ni  Ni35  1  0.16944757  0.83331327  0.83389667  1
  Ni  Ni36  1  0.49654963  0.16623977  0.49979125  1
  Ni  Ni37  1  0.33257011  0.00086037  0.66658002  1
  Ni  Ni38  1  0.50069206  0.16590212  0.83437584  1
  Ni  Ni39  1  0.49885004  0.50101531  0.49954470  1
  Ni  Ni40  1  0.33261263  0.33329163  0.66531243  1
  Ni  Ni41  1  0.49921892  0.50041741  0.83287200  1
  Ni  Ni42  1  0.50041158  0.83212741  0.49933153  1
  Fe  Fe43  1  0.33545367  0.66607856  0.66757216  1
  Ni  Ni44  1  0.49628975  0.83306426  0.83364848  1
  Ni  Ni45  1  0.83576631  0.16700104  0.50068628  1
  Cr  Cr46  1  0.66573741  0.99915039  0.66492132  1
  Ni  Ni47  1  0.83244791  0.16738289  0.83489680  1
  Ni  Ni48  1  0.83378164  0.50057141  0.49869072  1
  Cr  Cr49  1  0.66549477  0.33443957  0.66730043  1
  Ni  Ni50  1  0.83219810  0.49721149  0.83264370  1
  Ni  Ni51  1  0.83146099  0.83180941  0.49927061  1
  Ni  Ni52  1  0.66531923  0.66539679  0.66513994  1
  Cr  Cr53  1  0.83353632  0.83488580  0.83346169  1
" 