8242,Ni67Fe14Cr18_3,-233.202962434544, 178.314430348228,Ni67Fe14Cr18,"# generated using pymatgen
 data_Cr11Fe7Ni36
_symmetry_space_group_name_H-M   'P 1'
_cell_length_a   7.45211471
_cell_length_b   7.45211471
_cell_length_c   10.53888168
_cell_angle_alpha   90.00000000
_cell_angle_beta   90.00000000
_cell_angle_gamma   90.00000000
_symmetry_Int_Tables_number   1
_chemical_formula_structural   Cr11Fe7Ni36
_chemical_formula_sum   'Cr11 Fe7 Ni36'
_cell_volume   585.26639856
_cell_formula_units_Z   1
loop_
 _symmetry_equiv_pos_site_id
 _symmetry_equiv_pos_as_xyz
  1  'x, y, z'
loop_
 _atom_site_type_symbol
 _atom_site_label
 _atom_site_symmetry_multiplicity
 _atom_site_fract_x
 _atom_site_fract_y
 _atom_site_fract_z
 _atom_site_occupancy
  Fe  Fe0  1  0.00141358  1.00063598  0.00287851  1
  Ni  Ni1  1  0.16859778  0.16853816  0.16629774  1
  Cr  Cr2  1  0.00242153  0.00295772  0.33258390  1
  Ni  Ni3  1  0.00468397  0.33455808  0.00166996  1
  Ni  Ni4  1  0.16794860  0.50091425  0.16635613  1
  Ni  Ni5  1  1.00017432  0.33479719  0.33526001  1
  Ni  Ni6  1  0.00157720  0.66718760  0.00252739  1
  Ni  Ni7  1  0.16858106  0.83350417  0.16710515  1
  Fe  Fe8  1  0.00178471  0.66596155  0.33307434  1
  Ni  Ni9  1  0.33511090  0.00147071  0.00105084  1
  Ni  Ni10  1  0.50056474  0.16687668  0.16787943  1
  Ni  Ni11  1  0.33466010  0.99847142  0.33479446  1
  Ni  Ni12  1  0.33073782  0.33354229  0.00164767  1
  Ni  Ni13  1  0.50037467  0.50176621  0.16848192  1
  Fe  Fe14  1  0.33426771  0.33510204  0.33346529  1
  Ni  Ni15  1  0.33361457  0.66800038  0.00276252  1
  Ni  Ni16  1  0.50147184  0.83434347  0.16734703  1
  Ni  Ni17  1  0.33507576  0.66859454  0.33436365  1
  Ni  Ni18  1  0.66670990  0.99828379  0.00163212  1
  Ni  Ni19  1  0.83383676  0.16744428  0.16773155  1
  Ni  Ni20  1  0.66604104  0.00132027  0.33277003  1
  Cr  Cr21  1  0.66757958  0.33363934  0.00420776  1
  Ni  Ni22  1  0.83469496  0.50186853  0.16861839  1
  Ni  Ni23  1  0.66976609  0.33525314  0.33361996  1
  Ni  Ni24  1  0.66778585  0.67158894  0.00190160  1
  Ni  Ni25  1  0.83294906  0.83369055  0.16541860  1
  Ni  Ni26  1  0.66485608  0.66641802  0.33385253  1
  Ni  Ni27  1  0.16739638  0.16984759  0.50221193  1
  Cr  Cr28  1  0.00166729  0.00226387  0.66659245  1
  Ni  Ni29  1  0.17043860  0.17037598  0.83440664  1
  Ni  Ni30  1  0.16747719  0.50009211  0.50168191  1
  Ni  Ni31  1  0.00469947  0.33524956  0.66606896  1
  Ni  Ni32  1  0.16768736  0.49809303  0.83493346  1
  Ni  Ni33  1  0.16982456  0.83304578  0.50025701  1
  Ni  Ni34  1  1.00084232  0.66539501  0.66633326  1
  Cr  Cr35  1  0.16642810  0.83372965  0.83594714  1
  Cr  Cr36  1  0.50078871  0.16703822  0.50027934  1
  Fe  Fe37  1  0.33516840  0.00246323  0.66712246  1
  Fe  Fe38  1  0.49755709  0.16471930  0.83495216  1
  Ni  Ni39  1  0.50051165  0.50266231  0.49949231  1
  Ni  Ni40  1  0.33041014  0.33344044  0.66801607  1
  Cr  Cr41  1  0.49840481  0.50147140  0.83587022  1
  Ni  Ni42  1  0.50079775  0.83309412  0.50140951  1
  Cr  Cr43  1  0.33424936  0.66744692  0.66624564  1
  Fe  Fe44  1  0.50327321  0.83640313  0.83549013  1
  Ni  Ni45  1  0.83499903  0.16954586  0.50053117  1
  Ni  Ni46  1  0.66603625  0.99846356  0.66868738  1
  Cr  Cr47  1  0.83539447  0.16505421  0.83521678  1
  Fe  Fe48  1  0.83533796  0.50021065  0.50000239  1
  Cr  Cr49  1  0.66811210  0.33433302  0.66590407  1
  Cr  Cr50  1  0.83733210  0.50492695  0.83338434  1
  Cr  Cr51  1  0.83262701  0.83349354  0.50147147  1
  Ni  Ni52  1  0.66791264  0.67071994  0.66724859  1
  Ni  Ni53  1  0.83144978  0.83379522  0.83504861  1
" 