1259,Ni67Fe8Cr23_0,-230.003557667151, 160.440631519972,Ni67Fe8Cr23,"# generated using pymatgen
 data_Cr7(FeNi9)2
_symmetry_space_group_name_H-M   'P 1'
_cell_length_a   7.47125047
_cell_length_b   7.47125047
_cell_length_c   10.56594375
_cell_angle_alpha   90.00000000
_cell_angle_beta   90.00000000
_cell_angle_gamma   90.00000000
_symmetry_Int_Tables_number   1
_chemical_formula_structural   Cr7(FeNi9)2
_chemical_formula_sum   'Cr14 Fe4 Ni36'
_cell_volume   589.78658092
_cell_formula_units_Z   2
loop_
 _symmetry_equiv_pos_site_id
 _symmetry_equiv_pos_as_xyz
  1  'x, y, z'
loop_
 _atom_site_type_symbol
 _atom_site_label
 _atom_site_symmetry_multiplicity
 _atom_site_fract_x
 _atom_site_fract_y
 _atom_site_fract_z
 _atom_site_occupancy
  Ni  Ni0  1  0.99814318  0.00352701  0.99893839  1
  Ni  Ni1  1  0.16540445  0.16753491  0.16640623  1
  Ni  Ni2  1  0.99642712  0.00288125  0.33281579  1
  Ni  Ni3  1  0.00046877  0.33105095  -0.00009214  1
  Ni  Ni4  1  0.16583790  0.49438394  0.16562034  1
  Ni  Ni5  1  -0.00024377  0.33007547  0.32971540  1
  Cr  Cr6  1  0.99769472  0.66415267  0.99963804  1
  Cr  Cr7  1  0.16681706  0.83918251  0.16724447  1
  Cr  Cr8  1  0.99705904  0.66607585  0.33085521  1
  Ni  Ni9  1  0.33378763  0.00344131  0.00063046  1
  Ni  Ni10  1  0.49874472  0.16421795  0.16598420  1
  Ni  Ni11  1  0.33637133  0.00241104  0.33242820  1
  Fe  Fe12  1  0.33247094  0.32981192  0.00081413  1
  Ni  Ni13  1  0.50128766  0.49996919  0.16691046  1
  Ni  Ni14  1  0.33368464  0.33079181  0.33024782  1
  Cr  Cr15  1  0.33321784  0.66509403  0.00124389  1
  Ni  Ni16  1  0.50266944  0.83477592  0.16610040  1
  Cr  Cr17  1  0.33621666  0.66578070  0.33339761  1
  Ni  Ni18  1  0.66686648  0.00058776  0.00030913  1
  Ni  Ni19  1  0.83475642  0.16583847  0.16661034  1
  Ni  Ni20  1  0.66583298  0.99917568  0.33296082  1
  Cr  Cr21  1  0.66842191  0.33057690  0.99942918  1
  Ni  Ni22  1  0.83192887  0.49850583  0.16624528  1
  Cr  Cr23  1  0.66533722  0.33046119  0.33406617  1
  Ni  Ni24  1  0.66811624  0.66753941  0.00214627  1
  Fe  Fe25  1  0.83009923  0.83619902  0.16595170  1
  Ni  Ni26  1  0.66541644  0.66922180  0.33162088  1
  Cr  Cr27  1  0.16526892  0.16657804  0.49758765  1
  Fe  Fe28  1  0.99661939  0.00143975  0.66710171  1
  Ni  Ni29  1  0.16604849  0.16723409  0.83404253  1
  Cr  Cr30  1  0.16689964  0.49658692  0.50117793  1
  Ni  Ni31  1  0.99851084  0.33216352  0.66913553  1
  Fe  Fe32  1  0.16486916  0.49647498  0.83144957  1
  Cr  Cr33  1  0.16589593  0.83619723  0.50165779  1
  Ni  Ni34  1  0.99781844  0.66587775  0.66855444  1
  Cr  Cr35  1  0.16616243  0.83642282  0.83034539  1
  Ni  Ni36  1  0.49999574  0.16567156  0.50091211  1
  Ni  Ni37  1  0.33595603  0.00189128  0.66616319  1
  Ni  Ni38  1  0.49885487  0.16568824  0.83254412  1
  Ni  Ni39  1  0.50055311  0.49961647  0.50134545  1
  Ni  Ni40  1  0.33355984  0.33074873  0.66782514  1
  Cr  Cr41  1  0.50250382  0.49854478  0.83110151  1
  Ni  Ni42  1  0.50235729  0.83401383  0.50062672  1
  Ni  Ni43  1  0.33339496  0.66607343  0.66497811  1
  Cr  Cr44  1  0.50232129  0.83477700  0.83347949  1
  Ni  Ni45  1  0.83243814  0.16406860  0.50082262  1
  Ni  Ni46  1  0.66649703  0.00126981  0.66618851  1
  Ni  Ni47  1  0.83396249  0.16631912  0.83189260  1
  Cr  Cr48  1  0.83102716  0.49805030  0.50090782  1
  Ni  Ni49  1  0.66663763  0.32969217  0.66617526  1
  Ni  Ni50  1  0.83338965  0.49934261  0.83168390  1
  Ni  Ni51  1  0.83009130  0.83509478  0.50002657  1
  Ni  Ni52  1  0.66791422  0.66811464  0.66545889  1
  Ni  Ni53  1  0.83242856  0.83359454  0.83338826  1
" 