571,Ni67Fe29Cr2_5,-241.54245935614, 216.62365841575,Ni67Fe29Cr2,"# generated using pymatgen
 data_Cr(Fe4Ni9)2
_symmetry_space_group_name_H-M   'P 1'
_cell_length_a   7.41841413
_cell_length_b   7.41841413
_cell_length_c   10.49122188
_cell_angle_alpha   90.00000000
_cell_angle_beta   90.00000000
_cell_angle_gamma   90.00000000
_symmetry_Int_Tables_number   1
_chemical_formula_structural   Cr(Fe4Ni9)2
_chemical_formula_sum   'Cr2 Fe16 Ni36'
_cell_volume   577.36203093
_cell_formula_units_Z   2
loop_
 _symmetry_equiv_pos_site_id
 _symmetry_equiv_pos_as_xyz
  1  'x, y, z'
loop_
 _atom_site_type_symbol
 _atom_site_label
 _atom_site_symmetry_multiplicity
 _atom_site_fract_x
 _atom_site_fract_y
 _atom_site_fract_z
 _atom_site_occupancy
  Fe  Fe0  1  0.00544802  1.00296425  1.00304361  1
  Ni  Ni1  1  0.16799620  0.16991554  0.16975569  1
  Ni  Ni2  1  1.00285632  0.00402861  0.33524770  1
  Ni  Ni3  1  0.00362668  0.33724291  1.00267814  1
  Ni  Ni4  1  0.17048597  0.50291719  0.17026882  1
  Ni  Ni5  1  0.00451302  0.33668133  0.33630488  1
  Ni  Ni6  1  1.00222123  0.66844095  1.00299874  1
  Fe  Fe7  1  0.17082259  0.83662562  0.16984966  1
  Fe  Fe8  1  0.00385161  0.67025778  0.33645438  1
  Ni  Ni9  1  0.33620924  0.00346352  1.00302046  1
  Fe  Fe10  1  0.50135320  0.17089406  0.17090571  1
  Ni  Ni11  1  0.33744189  0.00369326  0.33719861  1
  Ni  Ni12  1  0.33536678  0.33680962  1.00275598  1
  Ni  Ni13  1  0.50289625  0.50492739  0.16962605  1
  Ni  Ni14  1  0.33544218  0.33667265  0.33747326  1
  Ni  Ni15  1  0.33746041  0.66956578  1.00296700  1
  Ni  Ni16  1  0.50195597  0.83439760  0.17056700  1
  Ni  Ni17  1  0.33838883  0.66946434  0.33657683  1
  Cr  Cr18  1  0.66928410  1.00181044  1.00257726  1
  Ni  Ni19  1  0.83905329  0.17085635  0.17072386  1
  Ni  Ni20  1  0.66952601  1.00109688  0.33677478  1
  Fe  Fe21  1  0.66952433  0.33906914  1.00262861  1
  Fe  Fe22  1  0.83694385  0.50301943  0.16971781  1
  Fe  Fe23  1  0.66858718  0.33710947  0.33616917  1
  Ni  Ni24  1  0.67015333  0.66928260  1.00262872  1
  Fe  Fe25  1  0.83702738  0.83567739  0.17055034  1
  Ni  Ni26  1  0.66954074  0.67112313  0.33684680  1
  Ni  Ni27  1  0.17091150  0.16873405  0.50325406  1
  Ni  Ni28  1  1.00303601  0.00360144  0.67164200  1
  Fe  Fe29  1  0.17009867  0.16968641  0.83631410  1
  Fe  Fe30  1  0.17111100  0.50255967  0.50280181  1
  Ni  Ni31  1  0.00381398  0.33672119  0.67085432  1
  Fe  Fe32  1  0.17005950  0.50352252  0.83745306  1
  Ni  Ni33  1  0.17097813  0.83734050  0.50212812  1
  Fe  Fe34  1  0.00447051  0.67023533  0.67068982  1
  Ni  Ni35  1  0.17022408  0.83700093  0.83800842  1
  Ni  Ni36  1  0.50115022  0.16985373  0.50210558  1
  Ni  Ni37  1  0.33719700  0.00332614  0.66960889  1
  Ni  Ni38  1  0.50280474  0.17102658  0.83622062  1
  Ni  Ni39  1  0.50370618  0.50412858  0.50293980  1
  Ni  Ni40  1  0.33608279  0.33664718  0.66960063  1
  Ni  Ni41  1  0.50373538  0.50360938  0.83726718  1
  Ni  Ni42  1  0.50147035  0.83584936  0.50354816  1
  Ni  Ni43  1  0.33810785  0.66985697  0.67029679  1
  Ni  Ni44  1  0.50114983  0.83520539  0.83572279  1
  Cr  Cr45  1  0.83764491  0.17084485  0.50334685  1
  Fe  Fe46  1  0.66828664  1.00318549  0.67102151  1
  Ni  Ni47  1  0.83801710  0.17136010  0.83585892  1
  Ni  Ni48  1  0.83627689  0.50407523  0.50241824  1
  Fe  Fe49  1  0.66852207  0.33711552  0.67102965  1
  Ni  Ni50  1  0.83621631  0.50240805  0.83779958  1
  Fe  Fe51  1  0.83607372  0.83550232  0.50317105  1
  Fe  Fe52  1  0.66941310  0.66953686  0.67011493  1
  Ni  Ni53  1  0.83847096  0.83606501  0.83547926  1
" 