6988,Ni67Fe8Cr23_1,-230.187518171515, 165.241521014956,Ni67Fe8Cr23,"# generated using pymatgen
 data_Cr7(FeNi9)2
_symmetry_space_group_name_H-M   'P 1'
_cell_length_a   7.47197024
_cell_length_b   7.47197024
_cell_length_c   10.56696164
_cell_angle_alpha   90.00000000
_cell_angle_beta   90.00000000
_cell_angle_gamma   90.00000000
_symmetry_Int_Tables_number   1
_chemical_formula_structural   Cr7(FeNi9)2
_chemical_formula_sum   'Cr14 Fe4 Ni36'
_cell_volume   589.95705284
_cell_formula_units_Z   2
loop_
 _symmetry_equiv_pos_site_id
 _symmetry_equiv_pos_as_xyz
  1  'x, y, z'
loop_
 _atom_site_type_symbol
 _atom_site_label
 _atom_site_symmetry_multiplicity
 _atom_site_fract_x
 _atom_site_fract_y
 _atom_site_fract_z
 _atom_site_occupancy
  Cr  Cr0  1  0.99960095  0.99964000  0.99864739  1
  Ni  Ni1  1  0.16659394  0.16726796  0.16741253  1
  Ni  Ni2  1  0.99898441  0.99922607  0.33237030  1
  Ni  Ni3  1  0.99889788  0.33280956  0.00019806  1
  Ni  Ni4  1  0.16443424  0.49773003  0.16694956  1
  Ni  Ni5  1  0.00048542  0.33313441  0.33241779  1
  Ni  Ni6  1  0.99951997  0.66585238  0.00039283  1
  Ni  Ni7  1  0.16492871  0.83401390  0.16708490  1
  Ni  Ni8  1  0.99864460  0.66665100  0.33283994  1
  Fe  Fe9  1  0.33224170  0.00136125  0.99935491  1
  Fe  Fe10  1  0.49849258  0.16801402  0.16575534  1
  Ni  Ni11  1  0.33174851  0.00021575  0.33188251  1
  Ni  Ni12  1  0.33330869  0.33215510  0.00139571  1
  Ni  Ni13  1  0.50006033  0.49702389  0.16625767  1
  Ni  Ni14  1  0.33045027  0.33235171  0.33056443  1
  Cr  Cr15  1  0.33169762  0.66588133  0.99942431  1
  Cr  Cr16  1  0.50040885  0.83513748  0.16736692  1
  Cr  Cr17  1  0.33175092  0.66572222  0.33324323  1
  Ni  Ni18  1  0.66724911  0.00207108  0.99921142  1
  Ni  Ni19  1  0.83332696  0.16727753  0.16633589  1
  Ni  Ni20  1  0.66828159  0.99837267  0.33359576  1
  Ni  Ni21  1  0.66680478  0.33193689  0.00013766  1
  Ni  Ni22  1  0.83451706  0.49869021  0.16614804  1
  Cr  Cr23  1  0.66742940  0.33322756  0.33155237  1
  Cr  Cr24  1  0.66745894  0.66495101  0.99859946  1
  Fe  Fe25  1  0.83522235  0.83245222  0.16762713  1
  Ni  Ni26  1  0.66906506  0.66794736  0.33323110  1
  Cr  Cr27  1  0.16637473  0.16679877  0.49845094  1
  Cr  Cr28  1  0.99901269  0.99852972  0.66740211  1
  Ni  Ni29  1  0.16708954  0.16528405  0.83362282  1
  Ni  Ni30  1  0.16383955  0.50158251  0.49932656  1
  Cr  Cr31  1  0.99926742  0.33317574  0.66628766  1
  Cr  Cr32  1  0.16543307  0.49957113  0.83250812  1
  Ni  Ni33  1  0.16702369  0.83126270  0.49976156  1
  Ni  Ni34  1  -0.00027461  0.66735667  0.66577882  1
  Ni  Ni35  1  0.16728886  0.83393649  0.83216535  1
  Cr  Cr36  1  0.49968475  0.16253087  0.49909382  1
  Ni  Ni37  1  0.33384497  0.99643699  0.66788494  1
  Cr  Cr38  1  0.49905568  0.16516284  0.83391189  1
  Cr  Cr39  1  0.49900030  0.50218534  0.50099020  1
  Ni  Ni40  1  0.33254775  0.33446209  0.66705198  1
  Ni  Ni41  1  0.50100824  0.50077535  0.83199012  1
  Ni  Ni42  1  0.50037466  0.83409558  0.50119876  1
  Ni  Ni43  1  0.33361492  0.66811317  0.66634243  1
  Ni  Ni44  1  0.50006754  0.83344164  0.83031158  1
  Ni  Ni45  1  0.83291967  0.16520864  0.49826368  1
  Ni  Ni46  1  0.66585072  0.99630631  0.66620409  1
  Ni  Ni47  1  0.83263902  0.16622609  0.83441102  1
  Ni  Ni48  1  0.83575594  0.50178492  0.49886464  1
  Cr  Cr49  1  0.66737558  0.33370065  0.66755606  1
  Ni  Ni50  1  0.83214395  0.50057507  0.83399974  1
  Fe  Fe51  1  0.83234107  0.83172962  0.49921104  1
  Ni  Ni52  1  0.66567120  0.66865396  0.66742627  1
  Ni  Ni53  1  0.83165633  0.83221059  0.83219870  1
" 