4055,Ni67Fe29Cr2_8,-241.351470566136, 217.066563043128,Ni67Fe29Cr2,"# generated using pymatgen
 data_Cr(Fe4Ni9)2
_symmetry_space_group_name_H-M   'P 1'
_cell_length_a   7.41439899
_cell_length_b   7.41439899
_cell_length_c   10.48554361
_cell_angle_alpha   90.00000000
_cell_angle_beta   90.00000000
_cell_angle_gamma   90.00000000
_symmetry_Int_Tables_number   1
_chemical_formula_structural   Cr(Fe4Ni9)2
_chemical_formula_sum   'Cr2 Fe16 Ni36'
_cell_volume   576.42506476
_cell_formula_units_Z   2
loop_
 _symmetry_equiv_pos_site_id
 _symmetry_equiv_pos_as_xyz
  1  'x, y, z'
loop_
 _atom_site_type_symbol
 _atom_site_label
 _atom_site_symmetry_multiplicity
 _atom_site_fract_x
 _atom_site_fract_y
 _atom_site_fract_z
 _atom_site_occupancy
  Ni  Ni0  1  1.00331274  1.00327574  0.00368969  1
  Ni  Ni1  1  0.16933231  0.16980827  0.17045230  1
  Ni  Ni2  1  0.00491896  1.00333891  0.33619186  1
  Fe  Fe3  1  0.00375990  0.33579711  0.00498695  1
  Ni  Ni4  1  0.17063329  0.50333810  0.17046515  1
  Ni  Ni5  1  0.00465007  0.33718709  0.33643429  1
  Ni  Ni6  1  0.00359078  0.67082420  0.00410139  1
  Ni  Ni7  1  0.17027480  0.83750608  0.17089871  1
  Ni  Ni8  1  1.00312988  0.67013161  0.33690445  1
  Ni  Ni9  1  0.33683619  0.00455602  0.00356440  1
  Fe  Fe10  1  0.50263935  0.17089514  0.16900482  1
  Fe  Fe11  1  0.33488305  1.00335042  0.33662411  1
  Fe  Fe12  1  0.33693598  0.33697042  1.00341537  1
  Ni  Ni13  1  0.50383415  0.50376184  0.17025103  1
  Ni  Ni14  1  0.33655783  0.33724018  0.33654227  1
  Fe  Fe15  1  0.33661704  0.67124031  1.00325232  1
  Ni  Ni16  1  0.50260007  0.83548873  0.16940364  1
  Fe  Fe17  1  0.33684122  0.66964905  0.33721689  1
  Ni  Ni18  1  0.67050229  1.00302202  1.00303147  1
  Ni  Ni19  1  0.83819218  0.17104167  0.16922365  1
  Cr  Cr20  1  0.67095223  1.00241102  0.33624055  1
  Fe  Fe21  1  0.66995209  0.33564798  0.00455553  1
  Ni  Ni22  1  0.83618352  0.50281691  0.17114722  1
  Ni  Ni23  1  0.66943973  0.33902555  0.33674855  1
  Ni  Ni24  1  0.67016777  0.67102046  0.00465632  1
  Ni  Ni25  1  0.83777132  0.83678721  0.16966332  1
  Ni  Ni26  1  0.67065955  0.66858905  0.33653626  1
  Fe  Fe27  1  0.17029748  0.16937075  0.50304779  1
  Ni  Ni28  1  1.00287701  0.00373739  0.67077004  1
  Fe  Fe29  1  0.17035787  0.16995651  0.83704465  1
  Fe  Fe30  1  0.17038332  0.50405713  0.50349148  1
  Fe  Fe31  1  0.00443947  0.33554737  0.66938002  1
  Ni  Ni32  1  0.17281636  0.50436165  0.83652543  1
  Ni  Ni33  1  0.17031976  0.83733212  0.50303159  1
  Fe  Fe34  1  0.00509075  0.67233107  0.66985655  1
  Ni  Ni35  1  0.17002666  0.83678769  0.83672286  1
  Fe  Fe36  1  0.50295901  0.17025389  0.50496249  1
  Ni  Ni37  1  0.33679335  0.00428133  0.67000282  1
  Ni  Ni38  1  0.50407009  0.17077016  0.83636274  1
  Ni  Ni39  1  0.50348997  0.50351263  0.50371190  1
  Ni  Ni40  1  0.33661586  0.33752802  0.67092413  1
  Ni  Ni41  1  0.50130684  0.50268313  0.83669374  1
  Ni  Ni42  1  0.50228492  0.83528328  0.50509511  1
  Ni  Ni43  1  0.33756922  0.66884092  0.67098373  1
  Fe  Fe44  1  0.50397952  0.83697046  0.83668074  1
  Ni  Ni45  1  0.83778870  0.17075975  0.50463500  1
  Ni  Ni46  1  0.67098284  1.00278215  0.67106632  1
  Ni  Ni47  1  0.83611368  0.16796588  0.83679199  1
  Fe  Fe48  1  0.83619882  0.50465289  0.50256276  1
  Fe  Fe49  1  0.66844609  0.33544450  0.66935026  1
  Cr  Cr50  1  0.83629575  0.50355145  0.83638070  1
  Ni  Ni51  1  0.83804693  0.83735465  0.50445236  1
  Ni  Ni52  1  0.66920786  0.67134268  0.66945877  1
  Ni  Ni53  1  0.83779680  0.83954271  0.83653476  1
" 