310,Ni67Fe14Cr18_18,-233.11332191213, 180.742617132339,Ni67Fe14Cr18,"# generated using pymatgen
 data_Cr11Fe7Ni36
_symmetry_space_group_name_H-M   'P 1'
_cell_length_a   7.45143247
_cell_length_b   7.45143247
_cell_length_c   10.53791686
_cell_angle_alpha   90.00000000
_cell_angle_beta   90.00000000
_cell_angle_gamma   90.00000000
_symmetry_Int_Tables_number   1
_chemical_formula_structural   Cr11Fe7Ni36
_chemical_formula_sum   'Cr11 Fe7 Ni36'
_cell_volume   585.10567087
_cell_formula_units_Z   1
loop_
 _symmetry_equiv_pos_site_id
 _symmetry_equiv_pos_as_xyz
  1  'x, y, z'
loop_
 _atom_site_type_symbol
 _atom_site_label
 _atom_site_symmetry_multiplicity
 _atom_site_fract_x
 _atom_site_fract_y
 _atom_site_fract_z
 _atom_site_occupancy
  Ni  Ni0  1  1.00016778  1.00055885  0.00158352  1
  Cr  Cr1  1  0.16458685  0.16756765  0.16970614  1
  Ni  Ni2  1  0.00144151  0.00157582  0.33396398  1
  Ni  Ni3  1  1.00076657  0.33597333  0.99960076  1
  Ni  Ni4  1  0.16663614  0.50410731  0.16924586  1
  Ni  Ni5  1  1.00051336  0.33540684  0.33496830  1
  Ni  Ni6  1  0.00108527  0.66653702  0.00267902  1
  Ni  Ni7  1  0.16656668  0.83129156  0.16826148  1
  Ni  Ni8  1  1.00059133  0.66598000  0.33401751  1
  Cr  Cr9  1  0.33307214  0.99916115  0.00245130  1
  Ni  Ni10  1  0.50409772  0.16807372  0.17080021  1
  Ni  Ni11  1  0.33473269  1.00054622  0.33421799  1
  Cr  Cr12  1  0.33096197  0.33644790  1.00088687  1
  Ni  Ni13  1  0.50151800  0.50364484  0.16876956  1
  Fe  Fe14  1  0.33273929  0.33509780  0.33440951  1
  Fe  Fe15  1  0.33284690  0.66787184  0.00150883  1
  Ni  Ni16  1  0.50123466  0.83214492  0.16740972  1
  Ni  Ni17  1  0.33455788  0.66838167  0.33154967  1
  Ni  Ni18  1  0.66838497  0.99896064  0.00287185  1
  Ni  Ni19  1  0.83455421  0.16799926  0.16599351  1
  Cr  Cr20  1  0.66790162  0.99949571  0.33522567  1
  Cr  Cr21  1  0.66919827  0.33545595  0.00170525  1
  Fe  Fe22  1  0.83551057  0.50185350  0.16841951  1
  Fe  Fe23  1  0.67005306  0.33482267  0.33400432  1
  Ni  Ni24  1  0.66748520  0.66851087  0.00193366  1
  Fe  Fe25  1  0.83541952  0.83363741  0.16708647  1
  Ni  Ni26  1  0.66830641  0.66686839  0.33391994  1
  Ni  Ni27  1  0.16647617  0.16872509  0.50076135  1
  Ni  Ni28  1  0.00198935  0.00282503  0.66751616  1
  Ni  Ni29  1  0.16390730  0.16783776  0.83224709  1
  Ni  Ni30  1  0.16515923  0.50044456  0.50072705  1
  Ni  Ni31  1  0.00308791  0.33512557  0.66850653  1
  Ni  Ni32  1  0.16506349  0.50282082  0.83301705  1
  Cr  Cr33  1  0.16889507  0.83286194  0.50106130  1
  Ni  Ni34  1  0.00279331  0.66530537  0.66636756  1
  Ni  Ni35  1  0.16777043  0.83281018  0.83435206  1
  Ni  Ni36  1  0.50024623  0.16615785  0.50017504  1
  Ni  Ni37  1  0.33392464  0.00108329  0.66708379  1
  Cr  Cr38  1  0.50228170  0.16443132  0.83227354  1
  Cr  Cr39  1  0.49794396  0.50229209  0.49984258  1
  Ni  Ni40  1  0.33026245  0.33402618  0.66661513  1
  Fe  Fe41  1  0.49966223  0.50284301  0.83450978  1
  Ni  Ni42  1  0.50026581  0.83509776  0.50163702  1
  Ni  Ni43  1  0.33274422  0.66787989  0.67112326  1
  Ni  Ni44  1  0.49983026  0.83236201  0.83451693  1
  Ni  Ni45  1  0.83645421  0.16855757  0.50215929  1
  Ni  Ni46  1  0.66740020  1.00102353  0.66556775  1
  Ni  Ni47  1  0.83766981  0.16815407  0.83519144  1
  Ni  Ni48  1  0.83737157  0.50026179  0.49858623  1
  Cr  Cr49  1  0.67120612  0.33460094  0.66773921  1
  Ni  Ni50  1  0.83822440  0.50138908  0.83601554  1
  Fe  Fe51  1  0.83607446  0.83471979  0.50079318  1
  Cr  Cr52  1  0.66966928  0.66890864  0.66649750  1
  Cr  Cr53  1  0.83527653  0.83606294  0.83450715  1
" 