2055,Ni67Fe14Cr18_5,-233.135094220516, 178.884389652728,Ni67Fe14Cr18,"# generated using pymatgen
 data_Cr11Fe7Ni36
_symmetry_space_group_name_H-M   'P 1'
_cell_length_a   7.45532932
_cell_length_b   7.45532932
_cell_length_c   10.54342784
_cell_angle_alpha   90.00000000
_cell_angle_beta   90.00000000
_cell_angle_gamma   90.00000000
_symmetry_Int_Tables_number   1
_chemical_formula_structural   Cr11Fe7Ni36
_chemical_formula_sum   'Cr11 Fe7 Ni36'
_cell_volume   586.02412349
_cell_formula_units_Z   1
loop_
 _symmetry_equiv_pos_site_id
 _symmetry_equiv_pos_as_xyz
  1  'x, y, z'
loop_
 _atom_site_type_symbol
 _atom_site_label
 _atom_site_symmetry_multiplicity
 _atom_site_fract_x
 _atom_site_fract_y
 _atom_site_fract_z
 _atom_site_occupancy
  Ni  Ni0  1  0.00216224  0.99978889  0.00227432  1
  Ni  Ni1  1  0.16617148  0.16714998  0.16696145  1
  Ni  Ni2  1  0.99886459  0.00283773  0.33401579  1
  Ni  Ni3  1  0.00158607  0.33477505  0.00171776  1
  Cr  Cr4  1  0.16832817  0.49913460  0.16688155  1
  Fe  Fe5  1  1.00051597  0.32964294  0.33386209  1
  Ni  Ni6  1  0.00099014  0.66779281  0.99986521  1
  Ni  Ni7  1  0.16617186  0.83607908  0.16532169  1
  Cr  Cr8  1  0.00119657  0.66960155  0.33457923  1
  Ni  Ni9  1  0.33401370  0.99982971  0.00129027  1
  Ni  Ni10  1  0.50107984  0.16772685  0.16819354  1
  Cr  Cr11  1  0.33355291  0.00096249  0.33293290  1
  Fe  Fe12  1  0.33258757  0.33271942  0.99992714  1
  Ni  Ni13  1  0.50073002  0.50035837  0.16755894  1
  Ni  Ni14  1  0.33426712  0.33335953  0.33276813  1
  Ni  Ni15  1  0.33399303  0.66894376  0.00081125  1
  Ni  Ni16  1  0.50231514  0.83427242  0.16580649  1
  Cr  Cr17  1  0.33418478  0.66806636  0.33483783  1
  Ni  Ni18  1  0.66618218  0.99923445  0.00239082  1
  Ni  Ni19  1  0.83510457  0.16556735  0.16988905  1
  Ni  Ni20  1  0.67030857  0.00302835  0.33340091  1
  Cr  Cr21  1  0.66727799  0.33436679  0.00095325  1
  Fe  Fe22  1  0.83321560  0.49982693  0.16628728  1
  Ni  Ni23  1  0.66795664  0.33147096  0.33188067  1
  Fe  Fe24  1  0.66771605  0.66999329  1.00027105  1
  Ni  Ni25  1  0.83387101  0.83643215  0.16644228  1
  Cr  Cr26  1  0.66697465  0.66867301  0.33135564  1
  Ni  Ni27  1  0.16531400  0.16759478  0.50013719  1
  Ni  Ni28  1  0.00133508  0.99830478  0.66606708  1
  Ni  Ni29  1  0.16997155  0.16800739  0.83526141  1
  Fe  Fe30  1  0.16833407  0.50001952  0.50216347  1
  Cr  Cr31  1  0.00112464  0.33414763  0.66738659  1
  Ni  Ni32  1  0.16839715  0.50083912  0.83393298  1
  Fe  Fe33  1  0.16613008  0.83577397  0.50290980  1
  Ni  Ni34  1  0.00132668  0.66950461  0.66823157  1
  Fe  Fe35  1  0.16775174  0.83365203  0.83465407  1
  Cr  Cr36  1  0.50150436  0.16680353  0.50201411  1
  Ni  Ni37  1  0.33395098  0.99993958  0.66810148  1
  Ni  Ni38  1  0.49759358  0.16690420  0.83257934  1
  Cr  Cr39  1  0.49885174  0.50125491  0.50247954  1
  Ni  Ni40  1  0.33486463  0.33435631  0.66954417  1
  Ni  Ni41  1  0.49915177  0.50192469  0.83250794  1
  Ni  Ni42  1  0.50192974  0.83417660  0.50278350  1
  Ni  Ni43  1  0.33376777  0.66806295  0.66704947  1
  Ni  Ni44  1  0.50150376  0.83352965  0.83376727  1
  Ni  Ni45  1  0.83627461  0.16417404  0.49936827  1
  Ni  Ni46  1  0.66707251  0.99940370  0.66656673  1
  Cr  Cr47  1  0.83471161  0.16494687  0.83273051  1
  Cr  Cr48  1  0.83440566  0.50050088  0.50149525  1
  Ni  Ni49  1  0.66563046  0.33436464  0.66857075  1
  Ni  Ni50  1  0.83480711  0.50474749  0.83432276  1
  Ni  Ni51  1  0.83444330  0.83732734  0.50241952  1
  Ni  Ni52  1  0.66726392  0.66858897  0.66942252  1
  Ni  Ni53  1  0.83370763  0.83195360  0.83349480  1
" 