2654,Ni67Fe14Cr18_8,-233.33797725702, 182.996502826133,Ni67Fe14Cr18,"# generated using pymatgen
 data_Cr11Fe7Ni36
_symmetry_space_group_name_H-M   'P 1'
_cell_length_a   7.45035984
_cell_length_b   7.45035984
_cell_length_c   10.53639993
_cell_angle_alpha   90.00000000
_cell_angle_beta   90.00000000
_cell_angle_gamma   90.00000000
_symmetry_Int_Tables_number   1
_chemical_formula_structural   Cr11Fe7Ni36
_chemical_formula_sum   'Cr11 Fe7 Ni36'
_cell_volume   584.85303099
_cell_formula_units_Z   1
loop_
 _symmetry_equiv_pos_site_id
 _symmetry_equiv_pos_as_xyz
  1  'x, y, z'
loop_
 _atom_site_type_symbol
 _atom_site_label
 _atom_site_symmetry_multiplicity
 _atom_site_fract_x
 _atom_site_fract_y
 _atom_site_fract_z
 _atom_site_occupancy
  Cr  Cr0  1  1.00055129  1.00012120  0.99871596  1
  Cr  Cr1  1  0.16832583  0.16859370  0.16899484  1
  Ni  Ni2  1  0.99990975  1.00007833  0.33724148  1
  Ni  Ni3  1  0.00463531  0.33614180  1.00069904  1
  Ni  Ni4  1  0.16970515  0.50289189  0.16625313  1
  Fe  Fe5  1  0.00113219  0.33492114  0.33599529  1
  Ni  Ni6  1  0.00453434  0.66805276  1.00055892  1
  Ni  Ni7  1  0.16664055  0.83307139  0.16805171  1
  Ni  Ni8  1  0.00273218  0.67082904  0.33483623  1
  Ni  Ni9  1  0.33578118  1.00086958  1.00045334  1
  Ni  Ni10  1  0.50136240  0.16740086  0.16853077  1
  Fe  Fe11  1  0.33437417  1.00055374  0.33455888  1
  Ni  Ni12  1  0.33351042  0.33521652  1.00005763  1
  Ni  Ni13  1  0.49833533  0.49804157  0.16850054  1
  Ni  Ni14  1  0.33419143  0.33445000  0.33436608  1
  Ni  Ni15  1  0.33227169  0.66726475  0.00137150  1
  Fe  Fe16  1  0.49953929  0.83586639  0.16718684  1
  Cr  Cr17  1  0.33198208  0.66597068  0.33420544  1
  Ni  Ni18  1  0.66546420  1.00050851  0.00321172  1
  Ni  Ni19  1  0.83231080  0.16581346  0.17023285  1
  Ni  Ni20  1  0.67019612  0.00231239  0.33195880  1
  Cr  Cr21  1  0.66521500  0.33220496  1.00046315  1
  Cr  Cr22  1  0.83807881  0.50091499  0.16830237  1
  Ni  Ni23  1  0.66600665  0.33178857  0.33540125  1
  Cr  Cr24  1  0.66660497  0.66951939  0.99965258  1
  Ni  Ni25  1  0.83616799  0.83626556  0.16841965  1
  Cr  Cr26  1  0.66757591  0.66843787  0.33658974  1
  Ni  Ni27  1  0.16686640  0.16863466  0.50129233  1
  Fe  Fe28  1  0.00361753  0.00228371  0.66624831  1
  Ni  Ni29  1  0.17121373  0.16911873  0.83227585  1
  Ni  Ni30  1  0.16777308  0.50016059  0.49993319  1
  Ni  Ni31  1  0.00344395  0.33355636  0.66633225  1
  Ni  Ni32  1  0.16863182  0.50075770  0.83707818  1
  Ni  Ni33  1  0.16840813  0.83494867  0.50110546  1
  Cr  Cr34  1  0.00289145  0.66904294  0.66816998  1
  Ni  Ni35  1  0.17049541  0.83368384  0.83394473  1
  Cr  Cr36  1  0.50013574  0.16765781  0.50118046  1
  Fe  Fe37  1  0.33307094  1.00023254  0.66880020  1
  Ni  Ni38  1  0.49782690  0.16769814  0.83505268  1
  Fe  Fe39  1  0.49951797  0.50071403  0.50298663  1
  Ni  Ni40  1  0.33246791  0.33589972  0.66903643  1
  Ni  Ni41  1  0.49894500  0.50166277  0.83112274  1
  Ni  Ni42  1  0.50083668  0.83416134  0.50144642  1
  Ni  Ni43  1  0.33497896  0.66708960  0.66724841  1
  Ni  Ni44  1  0.49917128  0.83397003  0.83506936  1
  Ni  Ni45  1  0.83544350  0.16846337  0.49928818  1
  Cr  Cr46  1  0.66932508  0.99958078  0.66979101  1
  Cr  Cr47  1  0.83542754  0.16985301  0.83424423  1
  Fe  Fe48  1  0.83573024  0.50022392  0.50205090  1
  Ni  Ni49  1  0.66725967  0.33610938  0.66736202  1
  Ni  Ni50  1  0.83570220  0.50239016  0.83261076  1
  Ni  Ni51  1  0.83453257  0.83523764  0.50041422  1
  Ni  Ni52  1  0.66567016  0.66741408  0.66680265  1
  Ni  Ni53  1  0.83395741  0.83182970  0.83477897  1
" 