1606,Ni67Fe29Cr2_16,-241.130507285588, 213.844929572084,Ni67Fe29Cr2,"# generated using pymatgen
 data_Cr(Fe4Ni9)2
_symmetry_space_group_name_H-M   'P 1'
_cell_length_a   7.41446423
_cell_length_b   7.41446423
_cell_length_c   10.48563588
_cell_angle_alpha   90.00000000
_cell_angle_beta   90.00000000
_cell_angle_gamma   90.00000000
_symmetry_Int_Tables_number   1
_chemical_formula_structural   Cr(Fe4Ni9)2
_chemical_formula_sum   'Cr2 Fe16 Ni36'
_cell_volume   576.44028104
_cell_formula_units_Z   2
loop_
 _symmetry_equiv_pos_site_id
 _symmetry_equiv_pos_as_xyz
  1  'x, y, z'
loop_
 _atom_site_type_symbol
 _atom_site_label
 _atom_site_symmetry_multiplicity
 _atom_site_fract_x
 _atom_site_fract_y
 _atom_site_fract_z
 _atom_site_occupancy
  Ni  Ni0  1  1.00338015  1.00274431  0.00416628  1
  Ni  Ni1  1  0.16822288  0.16962263  0.17003279  1
  Ni  Ni2  1  1.00183127  0.00437775  0.33612218  1
  Ni  Ni3  1  1.00307877  0.33771197  0.00397555  1
  Fe  Fe4  1  0.16881652  0.50444018  0.17081584  1
  Ni  Ni5  1  0.00474540  0.33713894  0.33654112  1
  Ni  Ni6  1  1.00251260  0.67039272  0.00392580  1
  Fe  Fe7  1  0.16929979  0.83720000  0.16992784  1
  Ni  Ni8  1  1.00297920  0.66904604  0.33696541  1
  Ni  Ni9  1  0.33716057  1.00260466  0.00402963  1
  Fe  Fe10  1  0.50534873  0.16858026  0.16968696  1
  Fe  Fe11  1  0.33640202  0.00450661  0.33595508  1
  Cr  Cr12  1  0.33627357  0.33636981  1.00219394  1
  Ni  Ni13  1  0.50373634  0.50516666  0.17040525  1
  Fe  Fe14  1  0.33614628  0.33637760  0.33708208  1
  Fe  Fe15  1  0.33682120  0.67127762  1.00296635  1
  Ni  Ni16  1  0.50344383  0.83544402  0.16926220  1
  Fe  Fe17  1  0.33760194  0.66973837  0.33705855  1
  Ni  Ni18  1  0.67015325  1.00228349  1.00333062  1
  Ni  Ni19  1  0.83787475  0.16995186  0.16893448  1
  Ni  Ni20  1  0.66927858  1.00290526  0.33735045  1
  Ni  Ni21  1  0.67081640  0.33760667  0.00452607  1
  Fe  Fe22  1  0.83668026  0.50377763  0.16998490  1
  Fe  Fe23  1  0.67219711  0.33638450  0.33676477  1
  Ni  Ni24  1  0.67104884  0.67081989  0.00404758  1
  Ni  Ni25  1  0.83623215  0.83797435  0.17073876  1
  Fe  Fe26  1  0.67136668  0.67072471  0.33686891  1
  Ni  Ni27  1  0.16873856  0.17112474  0.50457458  1
  Ni  Ni28  1  1.00249440  0.00459530  0.67048926  1
  Fe  Fe29  1  0.16820214  0.16912601  0.83613493  1
  Ni  Ni30  1  0.17044832  0.50254349  0.50347147  1
  Ni  Ni31  1  0.00382947  0.33715798  0.67028175  1
  Ni  Ni32  1  0.16961467  0.50522696  0.83591628  1
  Cr  Cr33  1  0.17063339  0.83733474  0.50385275  1
  Fe  Fe34  1  1.00284476  0.66924455  0.67119585  1
  Ni  Ni35  1  0.17083790  0.83662224  0.83807442  1
  Fe  Fe36  1  0.50355897  0.17074997  0.50483267  1
  Ni  Ni37  1  0.33743852  0.00396202  0.67063487  1
  Ni  Ni38  1  0.50525473  0.16951226  0.83620346  1
  Ni  Ni39  1  0.50368116  0.50454719  0.50398159  1
  Ni  Ni40  1  0.33622135  0.33768601  0.66948782  1
  Fe  Fe41  1  0.50595415  0.50389788  0.83595462  1
  Ni  Ni42  1  0.50399763  0.83631351  0.50399793  1
  Ni  Ni43  1  0.33815009  0.66918731  0.67133736  1
  Fe  Fe44  1  0.50475464  0.83706691  0.83652623  1
  Ni  Ni45  1  0.83744865  0.17066795  0.50379174  1
  Ni  Ni46  1  0.67056667  1.00273879  0.66962666  1
  Ni  Ni47  1  0.83546324  0.17048001  0.83795665  1
  Ni  Ni48  1  0.83670069  0.50190575  0.50335071  1
  Ni  Ni49  1  0.67043701  0.33753220  0.66998105  1
  Ni  Ni50  1  0.83691179  0.50278300  0.83790999  1
  Fe  Fe51  1  0.83623852  0.83663640  0.50311327  1
  Ni  Ni52  1  0.67018761  0.67038491  0.66901619  1
  Ni  Ni53  1  0.83742583  0.83728741  0.83613050  1
" 