6434,Ni67Fe8Cr23_3,-230.226920854175, 160.845997529962,Ni67Fe8Cr23,"# generated using pymatgen
 data_Cr7(FeNi9)2
_symmetry_space_group_name_H-M   'P 1'
_cell_length_a   7.47269460
_cell_length_b   7.47269460
_cell_length_c   10.56798604
_cell_angle_alpha   90.00000000
_cell_angle_beta   90.00000000
_cell_angle_gamma   90.00000000
_symmetry_Int_Tables_number   1
_chemical_formula_structural   Cr7(FeNi9)2
_chemical_formula_sum   'Cr14 Fe4 Ni36'
_cell_volume   590.12864732
_cell_formula_units_Z   2
loop_
 _symmetry_equiv_pos_site_id
 _symmetry_equiv_pos_as_xyz
  1  'x, y, z'
loop_
 _atom_site_type_symbol
 _atom_site_label
 _atom_site_symmetry_multiplicity
 _atom_site_fract_x
 _atom_site_fract_y
 _atom_site_fract_z
 _atom_site_occupancy
  Ni  Ni0  1  0.99849935  0.99707617  0.00136701  1
  Ni  Ni1  1  0.16523015  0.16422660  0.16828973  1
  Ni  Ni2  1  0.00005934  0.00255015  0.33181589  1
  Cr  Cr3  1  0.99801260  0.33325338  -0.00025204  1
  Ni  Ni4  1  0.16725098  0.50138799  0.16590747  1
  Fe  Fe5  1  0.00037980  0.33159937  0.33059734  1
  Ni  Ni6  1  0.99847118  0.66924800  0.99866646  1
  Ni  Ni7  1  0.16689860  0.83425571  0.16465180  1
  Cr  Cr8  1  0.99751064  0.67107535  0.32960231  1
  Ni  Ni9  1  0.33215084  0.99664511  -0.00031256  1
  Cr  Cr10  1  0.50026665  0.16495913  0.16381368  1
  Ni  Ni11  1  0.33164464  -0.00006870  0.33321481  1
  Cr  Cr12  1  0.33614865  0.33507373  0.99718612  1
  Ni  Ni13  1  0.49990556  0.50033494  0.16615885  1
  Ni  Ni14  1  0.33338663  0.33145300  0.33161117  1
  Ni  Ni15  1  0.33427694  0.66931558  -0.00006922  1
  Ni  Ni16  1  0.49696529  0.83068974  0.16438370  1
  Ni  Ni17  1  0.33294452  0.66693812  0.32940570  1
  Fe  Fe18  1  0.66673303  0.99706458  0.99883129  1
  Ni  Ni19  1  0.83467167  0.16629596  0.16561945  1
  Cr  Cr20  1  0.66783758  0.99769060  0.33449880  1
  Ni  Ni21  1  0.66752754  0.33458808  0.99830459  1
  Ni  Ni22  1  0.83181560  0.49875128  0.16494848  1
  Ni  Ni23  1  0.66610140  0.33103200  0.33135285  1
  Ni  Ni24  1  0.66629459  0.66593836  0.00100237  1
  Ni  Ni25  1  0.83404942  0.83376529  0.16241349  1
  Cr  Cr26  1  0.66434038  0.66753440  0.32969167  1
  Ni  Ni27  1  0.16736940  0.16499130  0.49594290  1
  Cr  Cr28  1  0.99825933  0.99873629  0.66551122  1
  Cr  Cr29  1  0.16697091  0.15908036  0.83546664  1
  Cr  Cr30  1  0.16676604  0.50011392  0.50074232  1
  Cr  Cr31  1  0.99802853  0.33250315  0.66879817  1
  Fe  Fe32  1  0.16630291  0.50447557  0.83395342  1
  Cr  Cr33  1  0.16790641  0.83290067  0.50001154  1
  Ni  Ni34  1  0.99749117  0.66834080  0.67074033  1
  Ni  Ni35  1  0.16702828  0.83033009  0.83421881  1
  Ni  Ni36  1  0.49966808  0.16503458  0.50074128  1
  Ni  Ni37  1  0.33559751  0.99809183  0.66581053  1
  Ni  Ni38  1  0.50351971  0.16412077  0.83323860  1
  Cr  Cr39  1  0.49953151  0.50055031  0.49826387  1
  Cr  Cr40  1  0.33575496  0.33079244  0.67049869  1
  Ni  Ni41  1  0.50396982  0.50188650  0.83329056  1
  Ni  Ni42  1  0.49887591  0.83467779  0.50158008  1
  Ni  Ni43  1  0.33529920  0.66928052  0.67011998  1
  Ni  Ni44  1  0.49899555  0.83256535  0.83329392  1
  Ni  Ni45  1  0.83184986  0.16625742  0.49859883  1
  Fe  Fe46  1  0.66470293  0.99889031  0.66665256  1
  Ni  Ni47  1  0.82855305  0.16568293  0.83478437  1
  Cr  Cr48  1  0.83179783  0.50004139  0.50016420  1
  Ni  Ni49  1  0.66629555  0.33204970  0.66812643  1
  Ni  Ni50  1  0.82963473  0.50144975  0.83284158  1
  Ni  Ni51  1  0.83164640  0.83467131  0.50246844  1
  Ni  Ni52  1  0.66607749  0.66792966  0.66700429  1
  Ni  Ni53  1  0.83232992  0.83147794  0.83403180  1
" 