6569,Ni67Fe8Cr23_10,-230.196707522649, 161.840501347963,Ni67Fe8Cr23,"# generated using pymatgen
 data_Cr7(FeNi9)2
_symmetry_space_group_name_H-M   'P 1'
_cell_length_a   7.46884007
_cell_length_b   7.46884007
_cell_length_c   10.56253492
_cell_angle_alpha   90.00000000
_cell_angle_beta   90.00000000
_cell_angle_gamma   90.00000000
_symmetry_Int_Tables_number   1
_chemical_formula_structural   Cr7(FeNi9)2
_chemical_formula_sum   'Cr14 Fe4 Ni36'
_cell_volume   589.21592756
_cell_formula_units_Z   2
loop_
 _symmetry_equiv_pos_site_id
 _symmetry_equiv_pos_as_xyz
  1  'x, y, z'
loop_
 _atom_site_type_symbol
 _atom_site_label
 _atom_site_symmetry_multiplicity
 _atom_site_fract_x
 _atom_site_fract_y
 _atom_site_fract_z
 _atom_site_occupancy
  Ni  Ni0  1  0.00249093  0.00078556  0.99940149  1
  Ni  Ni1  1  0.16677154  0.16650180  0.16614613  1
  Fe  Fe2  1  0.99850391  0.00031710  0.33278215  1
  Cr  Cr3  1  0.99878254  0.33371951  0.00008858  1
  Ni  Ni4  1  0.16483514  0.50019376  0.16905290  1
  Ni  Ni5  1  0.99957780  0.33419722  0.33095681  1
  Ni  Ni6  1  0.00205745  0.66566452  0.99943594  1
  Ni  Ni7  1  0.16642388  0.83294641  0.16625010  1
  Ni  Ni8  1  0.00376673  0.66482704  0.33316450  1
  Ni  Ni9  1  0.33260194  0.00144759  0.00078812  1
  Ni  Ni10  1  0.50079655  0.16552557  0.16554394  1
  Cr  Cr11  1  0.33437230  0.99897251  0.33058707  1
  Fe  Fe12  1  0.33367095  0.33017442  0.99946957  1
  Cr  Cr13  1  0.49913338  0.49748619  0.16789641  1
  Ni  Ni14  1  0.33224168  0.33460768  0.33367575  1
  Cr  Cr15  1  0.33038758  0.66858520  0.00054541  1
  Ni  Ni16  1  0.49830449  0.83674478  0.16641044  1
  Ni  Ni17  1  0.32898443  0.66543845  0.33384390  1
  Ni  Ni18  1  0.66454264  0.00474660  0.00095643  1
  Ni  Ni19  1  0.83208878  0.16712236  0.16778671  1
  Ni  Ni20  1  0.66723910  0.00380259  0.33337626  1
  Ni  Ni21  1  0.66734806  0.33021927  0.99860280  1
  Ni  Ni22  1  0.83584032  0.49768204  0.16683208  1
  Ni  Ni23  1  0.66781127  0.32929766  0.33361996  1
  Cr  Cr24  1  0.66780596  0.66449427  0.99970341  1
  Cr  Cr25  1  0.83439066  0.83439103  0.16607042  1
  Cr  Cr26  1  0.66595730  0.66721400  0.33312264  1
  Cr  Cr27  1  0.16670908  0.16715148  0.49971248  1
  Fe  Fe28  1  0.99973586  0.99804545  0.66699753  1
  Ni  Ni29  1  0.16845783  0.16500775  0.83370888  1
  Ni  Ni30  1  0.16940577  0.50304370  0.49848240  1
  Cr  Cr31  1  0.99869422  0.33371305  0.66855937  1
  Ni  Ni32  1  0.16733003  0.50094788  0.83213985  1
  Ni  Ni33  1  0.16371398  0.83007847  0.50115954  1
  Ni  Ni34  1  0.00423189  0.66712643  0.66699991  1
  Ni  Ni35  1  0.16532452  0.83365293  0.83223126  1
  Ni  Ni36  1  0.50295973  0.16919326  0.50085582  1
  Ni  Ni37  1  0.33304939  0.99956942  0.66809093  1
  Ni  Ni38  1  0.49999100  0.16883029  0.83324181  1
  Ni  Ni39  1  0.49639629  0.49655386  0.50015178  1
  Fe  Fe40  1  0.33600925  0.33429614  0.66691535  1
  Ni  Ni41  1  0.49920265  0.49521880  0.83168566  1
  Cr  Cr42  1  0.49956898  0.83352196  0.50033239  1
  Ni  Ni43  1  0.32923279  0.66657793  0.66572654  1
  Cr  Cr44  1  0.49827959  0.83546872  0.83345156  1
  Ni  Ni45  1  0.83002988  0.16349156  0.49873958  1
  Ni  Ni46  1  0.66578889  0.00470832  0.66533565  1
  Ni  Ni47  1  0.83122223  0.16679060  0.83310234  1
  Cr  Cr48  1  0.83377847  0.49934621  0.49832675  1
  Ni  Ni49  1  0.66525793  0.32995268  0.66737858  1
  Ni  Ni50  1  0.83315887  0.49837694  0.83400060  1
  Ni  Ni51  1  0.83649232  0.83663753  0.50008248  1
  Cr  Cr52  1  0.66640437  0.66465711  0.66680701  1
  Cr  Cr53  1  0.83636709  0.83445661  0.83319425  1
" 