3591,Ni67Fe29Cr2_15,-241.196122271167, 215.149441008384,Ni67Fe29Cr2,"# generated using pymatgen
 data_Cr(Fe4Ni9)2
_symmetry_space_group_name_H-M   'P 1'
_cell_length_a   7.41771118
_cell_length_b   7.41771118
_cell_length_c   10.49022775
_cell_angle_alpha   90.00000000
_cell_angle_beta   90.00000000
_cell_angle_gamma   90.00000000
_symmetry_Int_Tables_number   1
_chemical_formula_structural   Cr(Fe4Ni9)2
_chemical_formula_sum   'Cr2 Fe16 Ni36'
_cell_volume   577.19791746
_cell_formula_units_Z   2
loop_
 _symmetry_equiv_pos_site_id
 _symmetry_equiv_pos_as_xyz
  1  'x, y, z'
loop_
 _atom_site_type_symbol
 _atom_site_label
 _atom_site_symmetry_multiplicity
 _atom_site_fract_x
 _atom_site_fract_y
 _atom_site_fract_z
 _atom_site_occupancy
  Ni  Ni0  1  0.00419174  1.00294653  1.00274762  1
  Fe  Fe1  1  0.17102616  0.16858717  0.17011416  1
  Ni  Ni2  1  0.00405046  1.00215723  0.33718899  1
  Ni  Ni3  1  1.00217618  0.33702407  0.00347360  1
  Ni  Ni4  1  0.16920502  0.50389012  0.17069922  1
  Cr  Cr5  1  1.00182360  0.33646235  0.33624829  1
  Ni  Ni6  1  1.00302312  0.66985451  0.00375588  1
  Fe  Fe7  1  0.17118547  0.83570232  0.17006979  1
  Fe  Fe8  1  1.00323133  0.67076223  0.33651911  1
  Ni  Ni9  1  0.33659907  1.00141067  1.00321044  1
  Ni  Ni10  1  0.50336342  0.16845561  0.17081728  1
  Ni  Ni11  1  0.33590691  1.00263616  0.33644476  1
  Cr  Cr12  1  0.33751448  0.33632582  0.00389651  1
  Ni  Ni13  1  0.50435910  0.50408823  0.17101550  1
  Ni  Ni14  1  0.33801898  0.33658187  0.33780244  1
  Fe  Fe15  1  0.33710451  0.67075053  1.00330753  1
  Ni  Ni16  1  0.50430979  0.83738454  0.16967601  1
  Ni  Ni17  1  0.33857316  0.67084031  0.33599158  1
  Ni  Ni18  1  0.66927250  1.00261697  0.00398549  1
  Fe  Fe19  1  0.83445710  0.17003606  0.16855451  1
  Fe  Fe20  1  0.66851907  0.00346342  0.33712706  1
  Ni  Ni21  1  0.67130275  0.33775436  0.00339551  1
  Ni  Ni22  1  0.83650072  0.50485989  0.16788085  1
  Ni  Ni23  1  0.66891119  0.33842985  0.33626822  1
  Ni  Ni24  1  0.67018402  0.66981459  1.00256047  1
  Fe  Fe25  1  0.83570913  0.83575995  0.16964196  1
  Ni  Ni26  1  0.66963667  0.66928510  0.33702295  1
  Ni  Ni27  1  0.17059420  0.16954995  0.50397183  1
  Fe  Fe28  1  1.00206907  1.00220025  0.66970240  1
  Ni  Ni29  1  0.16807307  0.16979413  0.83659790  1
  Fe  Fe30  1  0.17208441  0.50447943  0.50422490  1
  Ni  Ni31  1  1.00284714  0.33680502  0.67012819  1
  Ni  Ni32  1  0.16845631  0.50192678  0.83561000  1
  Fe  Fe33  1  0.17188273  0.83649527  0.50311419  1
  Ni  Ni34  1  1.00328852  0.66936002  0.66882397  1
  Fe  Fe35  1  0.17043344  0.83530763  0.83666533  1
  Ni  Ni36  1  0.50078127  0.16979375  0.50371049  1
  Ni  Ni37  1  0.33674098  1.00243677  0.67044182  1
  Fe  Fe38  1  0.50404505  0.16885123  0.83617195  1
  Ni  Ni39  1  0.50424753  0.50354162  0.50286852  1
  Fe  Fe40  1  0.33754407  0.33752512  0.66990437  1
  Ni  Ni41  1  0.50391073  0.50513595  0.83636395  1
  Ni  Ni42  1  0.50476433  0.83676117  0.50328055  1
  Ni  Ni43  1  0.33746686  0.67187633  0.67060315  1
  Ni  Ni44  1  0.50569958  0.83676669  0.83700358  1
  Fe  Fe45  1  0.83400022  0.16995149  0.50422457  1
  Ni  Ni46  1  0.66844005  1.00269491  0.66903396  1
  Fe  Fe47  1  0.83567211  0.17009617  0.83714798  1
  Ni  Ni48  1  0.83605487  0.50561570  0.50480984  1
  Ni  Ni49  1  0.67097078  0.33717636  0.67009510  1
  Fe  Fe50  1  0.83684132  0.50439138  0.83643916  1
  Ni  Ni51  1  0.83660833  0.83585711  0.50226789  1
  Ni  Ni52  1  0.66980937  0.67027507  0.67003945  1
  Ni  Ni53  1  0.83609952  0.83703570  0.83692070  1
" 