4532,Ni67Fe14Cr18_13,-232.73995044585, 175.481932590694,Ni67Fe14Cr18,"# generated using pymatgen
 data_Cr11Fe7Ni36
_symmetry_space_group_name_H-M   'P 1'
_cell_length_a   7.45336572
_cell_length_b   7.45336572
_cell_length_c   10.54065088
_cell_angle_alpha   90.00000000
_cell_angle_beta   90.00000000
_cell_angle_gamma   90.00000000
_symmetry_Int_Tables_number   1
_chemical_formula_structural   Cr11Fe7Ni36
_chemical_formula_sum   'Cr11 Fe7 Ni36'
_cell_volume   585.56119993
_cell_formula_units_Z   1
loop_
 _symmetry_equiv_pos_site_id
 _symmetry_equiv_pos_as_xyz
  1  'x, y, z'
loop_
 _atom_site_type_symbol
 _atom_site_label
 _atom_site_symmetry_multiplicity
 _atom_site_fract_x
 _atom_site_fract_y
 _atom_site_fract_z
 _atom_site_occupancy
  Ni  Ni0  1  1.00006100  0.00239100  0.99954805  1
  Ni  Ni1  1  0.16669117  0.16983825  0.16882885  1
  Ni  Ni2  1  0.00227047  0.00334907  0.33596033  1
  Ni  Ni3  1  0.00139461  0.33291318  1.00070361  1
  Ni  Ni4  1  0.16852861  0.49870936  0.16748135  1
  Ni  Ni5  1  0.00348060  0.33241670  0.33425940  1
  Ni  Ni6  1  0.00228438  0.66743937  0.99856866  1
  Cr  Cr7  1  0.16880560  0.83380785  0.16760305  1
  Fe  Fe8  1  0.00243234  0.66663960  0.33662879  1
  Fe  Fe9  1  0.33313654  0.00151430  0.99921982  1
  Cr  Cr10  1  0.49893185  0.16721033  0.16648210  1
  Ni  Ni11  1  0.33125978  0.99912394  0.33448501  1
  Ni  Ni12  1  0.33375555  0.33617358  1.00084778  1
  Fe  Fe13  1  0.49810492  0.50270151  0.16697743  1
  Ni  Ni14  1  0.33018676  0.33686162  0.33354551  1
  Ni  Ni15  1  0.33518656  0.66648407  0.99992630  1
  Ni  Ni16  1  0.50001217  0.83299095  0.16734906  1
  Ni  Ni17  1  0.33606136  0.66679017  0.33522792  1
  Fe  Fe18  1  0.66779228  0.00111501  0.99925062  1
  Ni  Ni19  1  0.83690256  0.16830345  0.16569614  1
  Cr  Cr20  1  0.66916314  0.99795359  0.33451080  1
  Ni  Ni21  1  0.66759826  0.33399693  0.99901209  1
  Cr  Cr22  1  0.83631706  0.50039507  0.16733396  1
  Cr  Cr23  1  0.66868145  0.33653131  0.33552305  1
  Fe  Fe24  1  0.66666272  0.66688385  0.99933518  1
  Cr  Cr25  1  0.83392021  0.83412251  0.16749725  1
  Ni  Ni26  1  0.66477699  0.66804397  0.33528005  1
  Fe  Fe27  1  0.16587210  0.16577921  0.49912692  1
  Ni  Ni28  1  1.00044960  1.00077507  0.66728224  1
  Ni  Ni29  1  0.16861237  0.16603149  0.83565055  1
  Ni  Ni30  1  0.16789645  0.50248318  0.49817289  1
  Cr  Cr31  1  0.99945599  0.33291002  0.66818818  1
  Ni  Ni32  1  0.16770038  0.50170835  0.83704507  1
  Ni  Ni33  1  0.16821944  0.83440780  0.50047024  1
  Cr  Cr34  1  0.00299736  0.66921212  0.66784050  1
  Ni  Ni35  1  0.16790048  0.83502154  0.83463104  1
  Cr  Cr36  1  0.50030488  0.16679576  0.50273220  1
  Ni  Ni37  1  0.33376251  0.99789562  0.66867908  1
  Ni  Ni38  1  0.50134620  0.16713097  0.83446780  1
  Ni  Ni39  1  0.50023680  0.50262281  0.49953954  1
  Cr  Cr40  1  0.33491065  0.33644552  0.66835591  1
  Ni  Ni41  1  0.50128857  0.49976507  0.83585056  1
  Ni  Ni42  1  0.49900767  0.83326681  0.50069854  1
  Ni  Ni43  1  0.33496118  0.66962882  0.66756483  1
  Ni  Ni44  1  0.50001165  0.83590877  0.83463600  1
  Ni  Ni45  1  0.83576432  0.16715785  0.50203797  1
  Ni  Ni46  1  0.66854210  0.00145218  0.66846614  1
  Fe  Fe47  1  0.83352867  0.16690843  0.83488473  1
  Ni  Ni48  1  0.83462301  0.50055711  0.49913386  1
  Ni  Ni49  1  0.66820785  0.33317090  0.66822525  1
  Ni  Ni50  1  0.83377397  0.50036818  0.83630936  1
  Ni  Ni51  1  0.83556053  0.83499973  0.49951203  1
  Cr  Cr52  1  0.66541732  0.66739819  0.66718199  1
  Ni  Ni53  1  0.83481201  0.83506092  0.83579743  1
" 