8585,Ni67Fe29Cr2_12,-241.305115781415, 215.396842705428,Ni67Fe29Cr2,"# generated using pymatgen
 data_Cr(Fe4Ni9)2
_symmetry_space_group_name_H-M   'P 1'
_cell_length_a   7.41725298
_cell_length_b   7.41725298
_cell_length_c   10.48957976
_cell_angle_alpha   90.00000000
_cell_angle_beta   90.00000000
_cell_angle_gamma   90.00000000
_symmetry_Int_Tables_number   1
_chemical_formula_structural   Cr(Fe4Ni9)2
_chemical_formula_sum   'Cr2 Fe16 Ni36'
_cell_volume   577.09096287
_cell_formula_units_Z   2
loop_
 _symmetry_equiv_pos_site_id
 _symmetry_equiv_pos_as_xyz
  1  'x, y, z'
loop_
 _atom_site_type_symbol
 _atom_site_label
 _atom_site_symmetry_multiplicity
 _atom_site_fract_x
 _atom_site_fract_y
 _atom_site_fract_z
 _atom_site_occupancy
  Ni  Ni0  1  0.00418401  1.00321717  0.00450789  1
  Ni  Ni1  1  0.16959649  0.17034188  0.17012023  1
  Ni  Ni2  1  1.00326689  0.00435867  0.33686679  1
  Fe  Fe3  1  0.00365672  0.33831016  0.00428542  1
  Ni  Ni4  1  0.16933173  0.50226020  0.17128214  1
  Ni  Ni5  1  1.00298823  0.33659647  0.33563443  1
  Ni  Ni6  1  1.00175352  0.67013061  1.00263515  1
  Ni  Ni7  1  0.16977674  0.83747029  0.17094263  1
  Ni  Ni8  1  0.00456871  0.66911385  0.33659678  1
  Fe  Fe9  1  0.33677366  0.00454265  1.00333713  1
  Fe  Fe10  1  0.50362928  0.16938216  0.16968068  1
  Ni  Ni11  1  0.33691470  1.00248354  0.33627720  1
  Fe  Fe12  1  0.33630078  0.33562067  1.00278907  1
  Fe  Fe13  1  0.50434225  0.50322178  0.17053932  1
  Fe  Fe14  1  0.33523478  0.33653552  0.33688219  1
  Cr  Cr15  1  0.33681673  0.67015404  1.00312171  1
  Ni  Ni16  1  0.50449506  0.83717660  0.17147885  1
  Ni  Ni17  1  0.33648967  0.67012301  0.33651221  1
  Fe  Fe18  1  0.66992915  1.00158035  0.00413517  1
  Ni  Ni19  1  0.83709936  0.16978023  0.17008812  1
  Ni  Ni20  1  0.66988496  0.00406206  0.33614264  1
  Ni  Ni21  1  0.66941244  0.33776202  0.00371789  1
  Ni  Ni22  1  0.83681283  0.50337596  0.17011663  1
  Fe  Fe23  1  0.67076100  0.33619968  0.33619116  1
  Ni  Ni24  1  0.67122317  0.66866507  0.00349652  1
  Ni  Ni25  1  0.83580304  0.83691537  0.16972416  1
  Fe  Fe26  1  0.67054498  0.67111302  0.33645841  1
  Ni  Ni27  1  0.16919549  0.17003003  0.50331961  1
  Ni  Ni28  1  0.00420155  0.00443501  0.66869906  1
  Ni  Ni29  1  0.17202033  0.17070907  0.83663006  1
  Ni  Ni30  1  0.17153523  0.50316471  0.50315028  1
  Ni  Ni31  1  0.00395086  0.33669030  0.67002267  1
  Ni  Ni32  1  0.16994015  0.50202073  0.83563159  1
  Ni  Ni33  1  0.16978294  0.83687508  0.50333800  1
  Fe  Fe34  1  1.00329975  0.67092286  0.67012365  1
  Fe  Fe35  1  0.16946892  0.83742539  0.83581323  1
  Fe  Fe36  1  0.50305481  0.16920974  0.50376310  1
  Ni  Ni37  1  0.33676620  1.00291703  0.67076582  1
  Ni  Ni38  1  0.50125024  0.16969269  0.83658375  1
  Ni  Ni39  1  0.50246314  0.50379391  0.50327934  1
  Fe  Fe40  1  0.33649362  0.33646137  0.67039811  1
  Ni  Ni41  1  0.50367035  0.50337199  0.83636799  1
  Fe  Fe42  1  0.50263373  0.83685702  0.50356569  1
  Ni  Ni43  1  0.33783710  0.66995099  0.67026918  1
  Ni  Ni44  1  0.50498704  0.83699737  0.83511901  1
  Ni  Ni45  1  0.83711618  0.16869809  0.50330065  1
  Ni  Ni46  1  0.66909591  1.00261325  0.67011516  1
  Cr  Cr47  1  0.83703266  0.16906558  0.83674474  1
  Fe  Fe48  1  0.83795208  0.50314994  0.50338267  1
  Fe  Fe49  1  0.66896021  0.33717100  0.66995815  1
  Ni  Ni50  1  0.83645447  0.50575089  0.83626240  1
  Ni  Ni51  1  0.83648735  0.83817260  0.50310165  1
  Ni  Ni52  1  0.66858002  0.66970000  0.67074871  1
  Ni  Ni53  1  0.83543926  0.83492084  0.83724573  1
" 