1978,Ni67Fe8Cr23_5,-230.341239942721, 166.272348157676,Ni67Fe8Cr23,"# generated using pymatgen
 data_Cr7(FeNi9)2
_symmetry_space_group_name_H-M   'P 1'
_cell_length_a   7.47242590
_cell_length_b   7.47242590
_cell_length_c   10.56760605
_cell_angle_alpha   90.00000000
_cell_angle_beta   90.00000000
_cell_angle_gamma   90.00000000
_symmetry_Int_Tables_number   1
_chemical_formula_structural   Cr7(FeNi9)2
_chemical_formula_sum   'Cr14 Fe4 Ni36'
_cell_volume   590.06499182
_cell_formula_units_Z   2
loop_
 _symmetry_equiv_pos_site_id
 _symmetry_equiv_pos_as_xyz
  1  'x, y, z'
loop_
 _atom_site_type_symbol
 _atom_site_label
 _atom_site_symmetry_multiplicity
 _atom_site_fract_x
 _atom_site_fract_y
 _atom_site_fract_z
 _atom_site_occupancy
  Cr  Cr0  1  0.99800035  0.00064376  0.99838586  1
  Ni  Ni1  1  0.16392882  0.16465617  0.16866659  1
  Ni  Ni2  1  -0.00024106  0.00096790  0.33279827  1
  Cr  Cr3  1  0.99828396  0.32967549  0.99726196  1
  Cr  Cr4  1  0.16584924  0.50004806  0.16462956  1
  Ni  Ni5  1  0.99695695  0.33066247  0.33403372  1
  Cr  Cr6  1  0.99876051  0.66865226  0.99838046  1
  Ni  Ni7  1  0.16346486  0.83429795  0.16925873  1
  Fe  Fe8  1  0.99816443  0.66706825  0.33393743  1
  Cr  Cr9  1  0.33060642  -0.00034901  0.99799509  1
  Cr  Cr10  1  0.50218276  0.16752201  0.16648240  1
  Ni  Ni11  1  0.32855901  0.99770724  0.33446192  1
  Ni  Ni12  1  0.33330851  0.33350737  0.99841803  1
  Ni  Ni13  1  0.50118214  0.49717168  0.16399881  1
  Cr  Cr14  1  0.33215513  0.33244835  0.33452303  1
  Ni  Ni15  1  0.33257801  0.66614869  0.99801743  1
  Cr  Cr16  1  0.49951515  0.83488679  0.16528428  1
  Cr  Cr17  1  0.33487660  0.66814218  0.33505299  1
  Ni  Ni18  1  0.66860319  0.00106591  0.99697742  1
  Ni  Ni19  1  0.83269144  0.16574142  0.16867380  1
  Ni  Ni20  1  0.67032157  0.99865645  0.33415935  1
  Ni  Ni21  1  0.66715648  0.33210470  -0.00004267  1
  Ni  Ni22  1  0.83215330  0.49721709  0.16869099  1
  Ni  Ni23  1  0.67165966  0.33456015  0.33347603  1
  Cr  Cr24  1  0.66699120  0.66756053  0.00057720  1
  Ni  Ni25  1  0.83562199  0.83594344  0.16821995  1
  Cr  Cr26  1  0.66662032  0.66469100  0.33336702  1
  Ni  Ni27  1  0.16411866  0.16524053  0.49916120  1
  Ni  Ni28  1  0.00015470  0.99846904  0.66683767  1
  Ni  Ni29  1  0.16906331  0.16636309  0.83105547  1
  Ni  Ni30  1  0.16440517  0.50046225  0.50123909  1
  Cr  Cr31  1  0.99951863  0.33036251  0.66743104  1
  Ni  Ni32  1  0.16732968  0.50117948  0.83238211  1
  Fe  Fe33  1  0.16419230  0.83491899  0.50071068  1
  Fe  Fe34  1  0.99789251  0.66749622  0.66683722  1
  Ni  Ni35  1  0.16690412  0.83142655  0.82961908  1
  Cr  Cr36  1  0.50202730  0.16403249  0.50087846  1
  Ni  Ni37  1  0.33118842  0.99880351  0.66661849  1
  Ni  Ni38  1  0.50092210  0.16513940  0.83181925  1
  Ni  Ni39  1  0.50015234  0.50070851  0.50258326  1
  Ni  Ni40  1  0.33164583  0.33262229  0.66640994  1
  Cr  Cr41  1  0.49877894  0.49795641  0.83300478  1
  Ni  Ni42  1  0.50050416  0.83387114  0.50198506  1
  Fe  Fe43  1  0.33390511  0.66749624  0.66578923  1
  Ni  Ni44  1  0.49981460  0.83528921  0.83111944  1
  Ni  Ni45  1  0.83452916  0.16440758  0.49847082  1
  Ni  Ni46  1  0.66748140  0.99673266  0.66774530  1
  Ni  Ni47  1  0.82887312  0.16455787  0.83154422  1
  Ni  Ni48  1  0.83434008  0.50040723  0.49935980  1
  Ni  Ni49  1  0.66692052  0.33474940  0.66556329  1
  Ni  Ni50  1  0.83319742  0.50020439  0.83098477  1
  Ni  Ni51  1  0.83364514  0.83431654  0.50044566  1
  Ni  Ni52  1  0.66685143  0.66756250  0.66513747  1
  Ni  Ni53  1  0.83225961  0.83439243  0.83014826  1
" 