2824,Ni67Fe14Cr18_14,-232.924420784705, 180.119386936994,Ni67Fe14Cr18,"# generated using pymatgen
 data_Cr11Fe7Ni36
_symmetry_space_group_name_H-M   'P 1'
_cell_length_a   7.45114933
_cell_length_b   7.45114933
_cell_length_c   10.53751644
_cell_angle_alpha   90.00000000
_cell_angle_beta   90.00000000
_cell_angle_gamma   90.00000000
_symmetry_Int_Tables_number   1
_chemical_formula_structural   Cr11Fe7Ni36
_chemical_formula_sum   'Cr11 Fe7 Ni36'
_cell_volume   585.03897472
_cell_formula_units_Z   1
loop_
 _symmetry_equiv_pos_site_id
 _symmetry_equiv_pos_as_xyz
  1  'x, y, z'
loop_
 _atom_site_type_symbol
 _atom_site_label
 _atom_site_symmetry_multiplicity
 _atom_site_fract_x
 _atom_site_fract_y
 _atom_site_fract_z
 _atom_site_occupancy
  Cr  Cr0  1  1.00042142  0.99935104  1.00079009  1
  Fe  Fe1  1  0.17107940  0.16728223  0.16779706  1
  Cr  Cr2  1  0.00197826  0.99967949  0.33475762  1
  Cr  Cr3  1  0.00202875  0.33580396  0.99988676  1
  Fe  Fe4  1  0.16953827  0.50300227  0.16720763  1
  Cr  Cr5  1  1.00042868  0.33440325  0.33468754  1
  Ni  Ni6  1  1.00028006  0.66766924  0.00200089  1
  Ni  Ni7  1  0.16956687  0.83292461  0.16812800  1
  Fe  Fe8  1  0.00202242  0.66855641  0.33350582  1
  Ni  Ni9  1  0.33536207  0.00215531  0.00211554  1
  Ni  Ni10  1  0.50055982  0.16841608  0.16692634  1
  Ni  Ni11  1  0.33276671  0.00201224  0.33394999  1
  Ni  Ni12  1  0.33547180  0.33478857  0.00146492  1
  Ni  Ni13  1  0.50038362  0.49998203  0.16751877  1
  Ni  Ni14  1  0.33635189  0.33413175  0.33365603  1
  Ni  Ni15  1  0.33415357  0.66625812  1.00101333  1
  Ni  Ni16  1  0.49862015  0.83480324  0.16627197  1
  Ni  Ni17  1  0.33325952  0.66705805  0.33375387  1
  Ni  Ni18  1  0.66732141  1.00060900  0.00198071  1
  Ni  Ni19  1  0.83173352  0.16878064  0.16732947  1
  Cr  Cr20  1  0.66757862  0.00235886  0.33397121  1
  Fe  Fe21  1  0.66600872  0.33493836  0.00142047  1
  Ni  Ni22  1  0.83361555  0.50131787  0.16722337  1
  Ni  Ni23  1  0.66601617  0.33537600  0.33468521  1
  Ni  Ni24  1  0.66876758  0.66756460  0.00155755  1
  Ni  Ni25  1  0.83501510  0.83310305  0.16597527  1
  Cr  Cr26  1  0.66836858  0.66588514  0.33450729  1
  Ni  Ni27  1  0.16825848  0.16504790  0.50138350  1
  Ni  Ni28  1  0.00110463  0.00173562  0.66742519  1
  Ni  Ni29  1  0.16766285  0.16712220  0.83359654  1
  Cr  Cr30  1  0.16852913  0.50182559  0.49970062  1
  Fe  Fe31  1  0.99807726  0.33132847  0.66862769  1
  Ni  Ni32  1  0.16860918  0.50141101  0.83600457  1
  Ni  Ni33  1  0.16809361  0.83642305  0.50107129  1
  Cr  Cr34  1  0.99950490  0.66918663  0.66838481  1
  Ni  Ni35  1  0.16821797  0.83466869  0.83400297  1
  Ni  Ni36  1  0.50126780  0.16920558  0.50078222  1
  Ni  Ni37  1  0.33196750  0.00205414  0.66713210  1
  Fe  Fe38  1  0.50156551  0.16829348  0.83500545  1
  Ni  Ni39  1  0.50284964  0.49938869  0.50077333  1
  Cr  Cr40  1  0.33525557  0.33365224  0.66830844  1
  Ni  Ni41  1  0.50142344  0.50085229  0.83490949  1
  Cr  Cr42  1  0.49911743  0.83451778  0.50241077  1
  Fe  Fe43  1  0.33574700  0.66900585  0.66852366  1
  Cr  Cr44  1  0.50067636  0.83408219  0.83458197  1
  Ni  Ni45  1  0.83367321  0.16880600  0.50339568  1
  Ni  Ni46  1  0.67012866  0.00214456  0.66730082  1
  Ni  Ni47  1  0.83399284  0.16811101  0.83247459  1
  Ni  Ni48  1  0.83185720  0.49955233  0.50165541  1
  Ni  Ni49  1  0.66863742  0.33512019  0.66715621  1
  Ni  Ni50  1  0.83316814  0.50029879  0.83432501  1
  Ni  Ni51  1  0.83601770  0.83483969  0.50243424  1
  Ni  Ni52  1  0.66895578  0.66593564  0.66736694  1
  Ni  Ni53  1  0.83455131  0.83478803  0.83479283  1
" 