8541,Ni67Fe8Cr23_9,-230.406126507826, 169.314871995154,Ni67Fe8Cr23,"# generated using pymatgen
 data_Cr7(FeNi9)2
_symmetry_space_group_name_H-M   'P 1'
_cell_length_a   7.46717067
_cell_length_b   7.46717067
_cell_length_c   10.56017404
_cell_angle_alpha   90.00000000
_cell_angle_beta   90.00000000
_cell_angle_gamma   90.00000000
_symmetry_Int_Tables_number   1
_chemical_formula_structural   Cr7(FeNi9)2
_chemical_formula_sum   'Cr14 Fe4 Ni36'
_cell_volume   588.82091997
_cell_formula_units_Z   2
loop_
 _symmetry_equiv_pos_site_id
 _symmetry_equiv_pos_as_xyz
  1  'x, y, z'
loop_
 _atom_site_type_symbol
 _atom_site_label
 _atom_site_symmetry_multiplicity
 _atom_site_fract_x
 _atom_site_fract_y
 _atom_site_fract_z
 _atom_site_occupancy
  Ni  Ni0  1  0.99682484  0.00085777  0.99927720  1
  Cr  Cr1  1  0.16526311  0.16678606  0.16829993  1
  Ni  Ni2  1  0.00068069  0.99727288  0.33311950  1
  Ni  Ni3  1  0.99970903  0.33319651  0.99979768  1
  Ni  Ni4  1  0.16511814  0.50020842  0.16569181  1
  Ni  Ni5  1  0.99955202  0.33659545  0.33281322  1
  Cr  Cr6  1  0.00125483  0.66584767  0.00159952  1
  Ni  Ni7  1  0.16582346  0.83297491  0.16745177  1
  Ni  Ni8  1  0.99846638  0.66608452  0.33371563  1
  Cr  Cr9  1  0.33393161  0.00097931  0.00163805  1
  Ni  Ni10  1  0.50095687  0.16760133  0.16748545  1
  Ni  Ni11  1  0.33401813  0.00059826  0.33437411  1
  Ni  Ni12  1  0.33311447  0.33534818  0.99888798  1
  Cr  Cr13  1  0.50097271  0.49908691  0.16484630  1
  Ni  Ni14  1  0.33390121  0.33196559  0.33479968  1
  Ni  Ni15  1  0.33268172  0.66424585  0.00062792  1
  Ni  Ni16  1  0.49977341  0.83280970  0.16608405  1
  Cr  Cr17  1  0.33082571  0.66705288  0.33451184  1
  Cr  Cr18  1  0.66881011  0.00140858  0.00001602  1
  Ni  Ni19  1  0.83364139  0.16832017  0.16564494  1
  Cr  Cr20  1  0.66488524  0.99982745  0.33239560  1
  Ni  Ni21  1  0.66710457  0.33146685  0.99990225  1
  Ni  Ni22  1  0.83356092  0.49902783  0.16790216  1
  Ni  Ni23  1  0.66654637  0.33407203  0.33406594  1
  Fe  Fe24  1  0.66722660  0.66643713  0.00164197  1
  Ni  Ni25  1  0.83440076  0.83256394  0.16703592  1
  Fe  Fe26  1  0.66930023  0.66575714  0.33459891  1
  Ni  Ni27  1  0.16872085  0.16600533  0.50009963  1
  Ni  Ni28  1  0.00111375  0.99926220  0.66756464  1
  Ni  Ni29  1  0.16516988  0.16878729  0.83242365  1
  Ni  Ni30  1  0.16601333  0.49929932  0.50132433  1
  Ni  Ni31  1  0.00317540  0.33470298  0.66736539  1
  Ni  Ni32  1  0.16767330  0.49693702  0.83296543  1
  Ni  Ni33  1  0.16599700  0.83465855  0.50096573  1
  Ni  Ni34  1  0.00085703  0.66600011  0.66476413  1
  Cr  Cr35  1  0.16515981  0.83414237  0.83138316  1
  Ni  Ni36  1  0.49604896  0.16860234  0.49996422  1
  Ni  Ni37  1  0.33292280  0.00280197  0.66446648  1
  Ni  Ni38  1  0.49912765  0.16951198  0.83249976  1
  Ni  Ni39  1  0.50031437  0.49838254  0.50046407  1
  Ni  Ni40  1  0.33193348  0.33221317  0.66630270  1
  Cr  Cr41  1  0.49773409  0.49830687  0.83475892  1
  Ni  Ni42  1  0.49775088  0.83293100  0.50007557  1
  Fe  Fe43  1  0.32963570  0.66578935  0.66425486  1
  Cr  Cr44  1  0.49927087  0.83219649  0.83399837  1
  Cr  Cr45  1  0.83629539  0.16845977  0.49984157  1
  Cr  Cr46  1  0.66615464  0.00114202  0.66756128  1
  Ni  Ni47  1  0.83572789  0.16653751  0.83404461  1
  Ni  Ni48  1  0.83362214  0.50112902  0.49868852  1
  Fe  Fe49  1  0.66633399  0.33186525  0.66569063  1
  Cr  Cr50  1  0.83415348  0.49810860  0.83328708  1
  Ni  Ni51  1  0.83616921  0.83031433  0.49957931  1
  Cr  Cr52  1  0.66873061  0.66728619  0.66366572  1
  Ni  Ni53  1  0.83540402  0.83578812  0.83332989  1
" 