7194,Ni67Fe14Cr18_7,-233.022656026426, 177.230904923739,Ni67Fe14Cr18,"# generated using pymatgen
 data_Cr11Fe7Ni36
_symmetry_space_group_name_H-M   'P 1'
_cell_length_a   7.45702893
_cell_length_b   7.45702893
_cell_length_c   10.54583144
_cell_angle_alpha   90.00000000
_cell_angle_beta   90.00000000
_cell_angle_gamma   90.00000000
_symmetry_Int_Tables_number   1
_chemical_formula_structural   Cr11Fe7Ni36
_chemical_formula_sum   'Cr11 Fe7 Ni36'
_cell_volume   586.42500604
_cell_formula_units_Z   1
loop_
 _symmetry_equiv_pos_site_id
 _symmetry_equiv_pos_as_xyz
  1  'x, y, z'
loop_
 _atom_site_type_symbol
 _atom_site_label
 _atom_site_symmetry_multiplicity
 _atom_site_fract_x
 _atom_site_fract_y
 _atom_site_fract_z
 _atom_site_occupancy
  Ni  Ni0  1  0.99934736  0.00152526  0.00074823  1
  Cr  Cr1  1  0.17051630  0.16707579  0.16642678  1
  Fe  Fe2  1  0.00162844  0.99846395  0.33441699  1
  Ni  Ni3  1  1.00038613  0.33377127  1.00030765  1
  Ni  Ni4  1  0.16833268  0.50148240  0.16646915  1
  Cr  Cr5  1  0.00153143  0.33521480  0.33259227  1
  Ni  Ni6  1  0.00121532  0.66666643  0.00273885  1
  Cr  Cr7  1  0.16929314  0.83305790  0.16614223  1
  Fe  Fe8  1  0.00200373  0.66922601  0.33346399  1
  Ni  Ni9  1  0.33569528  1.00026688  0.99908061  1
  Ni  Ni10  1  0.50128717  0.16743976  0.16770995  1
  Ni  Ni11  1  0.33660174  0.99899415  0.33514025  1
  Ni  Ni12  1  0.33486776  0.33524520  0.00079461  1
  Ni  Ni13  1  0.50028427  0.50070359  0.16801985  1
  Ni  Ni14  1  0.33400618  0.33622113  0.33376216  1
  Ni  Ni15  1  0.33539868  0.66652149  0.99995777  1
  Ni  Ni16  1  0.50115309  0.83398167  0.16712548  1
  Ni  Ni17  1  0.33495644  0.66715554  0.33448728  1
  Fe  Fe18  1  0.66656375  0.00087491  0.00181171  1
  Ni  Ni19  1  0.83174879  0.16726490  0.16666004  1
  Ni  Ni20  1  0.66773217  0.99793668  0.33181896  1
  Ni  Ni21  1  0.66678410  0.33368433  0.00241602  1
  Ni  Ni22  1  0.83304987  0.50155639  0.16628919  1
  Fe  Fe23  1  0.66492637  0.33398239  0.33107553  1
  Ni  Ni24  1  0.66527701  0.66735856  0.00273528  1
  Ni  Ni25  1  0.83277943  0.83320623  0.16831872  1
  Fe  Fe26  1  0.66525481  0.66880308  0.33294046  1
  Ni  Ni27  1  0.16829516  0.16551790  0.50089825  1
  Ni  Ni28  1  0.00329952  1.00040565  0.66596219  1
  Ni  Ni29  1  0.16702492  0.16607357  0.83391760  1
  Fe  Fe30  1  0.16859826  0.50269630  0.50058690  1
  Ni  Ni31  1  0.00322343  0.33321626  0.66860626  1
  Ni  Ni32  1  0.16791624  0.50189865  0.83466066  1
  Ni  Ni33  1  0.16838532  0.83430290  0.50101758  1
  Ni  Ni34  1  0.00340905  0.66844411  0.66582552  1
  Ni  Ni35  1  0.16892681  0.83407773  0.83357651  1
  Cr  Cr36  1  0.49773952  0.16655579  0.49802699  1
  Ni  Ni37  1  0.33166025  0.99807964  0.66756850  1
  Ni  Ni38  1  0.49889625  0.16701566  0.83685669  1
  Fe  Fe39  1  0.49832845  0.50394179  0.49972217  1
  Cr  Cr40  1  0.33184242  0.33473216  0.66794399  1
  Ni  Ni41  1  0.49972775  0.50251436  0.83456581  1
  Ni  Ni42  1  0.49934804  0.83217951  0.50039583  1
  Ni  Ni43  1  0.33391535  0.66927001  0.66737208  1
  Ni  Ni44  1  0.49756671  0.83250655  0.83440620  1
  Cr  Cr45  1  0.83526376  0.16621827  0.50104319  1
  Cr  Cr46  1  0.66574243  0.99829341  0.66981130  1
  Ni  Ni47  1  0.83608637  0.16795471  0.83519456  1
  Cr  Cr48  1  0.83261402  0.50302327  0.50214236  1
  Cr  Cr49  1  0.66643293  0.33462638  0.66901096  1
  Cr  Cr50  1  0.83453085  0.50115585  0.83445062  1
  Ni  Ni51  1  0.83462780  0.83213216  0.49937302  1
  Ni  Ni52  1  0.66456408  0.66915808  0.66550846  1
  Cr  Cr53  1  0.83568797  0.83260374  0.83438088  1
" 