5199,Ni67Fe14Cr18_1,-232.840050636051, 176.833679413372,Ni67Fe14Cr18,"# generated using pymatgen
 data_Cr11Fe7Ni36
_symmetry_space_group_name_H-M   'P 1'
_cell_length_a   7.45513482
_cell_length_b   7.45513482
_cell_length_c   10.54315277
_cell_angle_alpha   90.00000000
_cell_angle_beta   90.00000000
_cell_angle_gamma   90.00000000
_symmetry_Int_Tables_number   1
_chemical_formula_structural   Cr11Fe7Ni36
_chemical_formula_sum   'Cr11 Fe7 Ni36'
_cell_volume   585.97825829
_cell_formula_units_Z   1
loop_
 _symmetry_equiv_pos_site_id
 _symmetry_equiv_pos_as_xyz
  1  'x, y, z'
loop_
 _atom_site_type_symbol
 _atom_site_label
 _atom_site_symmetry_multiplicity
 _atom_site_fract_x
 _atom_site_fract_y
 _atom_site_fract_z
 _atom_site_occupancy
  Ni  Ni0  1  0.99927083  0.00164330  0.00170553  1
  Ni  Ni1  1  0.16724886  0.16747034  0.16685801  1
  Ni  Ni2  1  0.00149476  0.00217975  0.33464157  1
  Fe  Fe3  1  0.99971304  0.33233489  0.00363612  1
  Ni  Ni4  1  0.16573384  0.49839582  0.16595216  1
  Ni  Ni5  1  0.00153076  0.33143961  0.33244923  1
  Cr  Cr6  1  1.00048820  0.66903611  0.00464961  1
  Ni  Ni7  1  0.16805168  0.83652797  0.16592442  1
  Cr  Cr8  1  0.99981882  0.66855372  0.33274083  1
  Fe  Fe9  1  0.33590207  0.99964938  0.00368469  1
  Ni  Ni10  1  0.50050118  0.16577556  0.16733331  1
  Ni  Ni11  1  0.33359180  0.00285574  0.33301940  1
  Ni  Ni12  1  0.33472073  0.33461456  0.00236669  1
  Cr  Cr13  1  0.50247678  0.50038916  0.16617621  1
  Ni  Ni14  1  0.33386322  0.33107185  0.33539678  1
  Ni  Ni15  1  0.33613264  0.66749348  1.00065597  1
  Ni  Ni16  1  0.50155488  0.83636740  0.16587640  1
  Cr  Cr17  1  0.33453421  0.66818063  0.33547597  1
  Ni  Ni18  1  0.66859247  1.00023072  0.00143274  1
  Ni  Ni19  1  0.83464724  0.16809321  0.16624997  1
  Fe  Fe20  1  0.66735991  0.00141816  0.33414641  1
  Ni  Ni21  1  0.66678023  0.33305058  0.00115545  1
  Ni  Ni22  1  0.83448627  0.49945214  0.16743637  1
  Ni  Ni23  1  0.66700281  0.33288593  0.33415657  1
  Ni  Ni24  1  0.66542848  0.66911505  1.00071664  1
  Ni  Ni25  1  0.83279107  0.83485170  0.16661332  1
  Ni  Ni26  1  0.66767815  0.66850655  0.33348305  1
  Ni  Ni27  1  0.16702574  0.16828327  0.50051173  1
  Ni  Ni28  1  0.99787490  1.00003696  0.66605297  1
  Cr  Cr29  1  0.16551246  0.16800328  0.83504400  1
  Ni  Ni30  1  0.16893228  0.49901896  0.50339449  1
  Ni  Ni31  1  0.00151467  0.33301178  0.66655547  1
  Cr  Cr32  1  0.16847624  0.49992964  0.83288879  1
  Ni  Ni33  1  0.16676924  0.83509370  0.50236581  1
  Ni  Ni34  1  1.00063443  0.66934645  0.66566009  1
  Cr  Cr35  1  0.16799312  0.83446369  0.83392272  1
  Ni  Ni36  1  0.50105554  0.16830008  0.50002431  1
  Cr  Cr37  1  0.33451360  0.00091153  0.66498210  1
  Cr  Cr38  1  0.50274376  0.16741433  0.83515678  1
  Ni  Ni39  1  0.50003697  0.49989144  0.50339443  1
  Ni  Ni40  1  0.33474790  0.33663157  0.66463790  1
  Fe  Fe41  1  0.50070430  0.50229998  0.83413019  1
  Ni  Ni42  1  0.50218318  0.83420599  0.50114065  1
  Fe  Fe43  1  0.33551814  0.66595392  0.66594336  1
  Ni  Ni44  1  0.50355360  0.83223914  0.83537728  1
  Ni  Ni45  1  0.83431587  0.16613895  0.50232407  1
  Ni  Ni46  1  0.67019050  0.99959865  0.66662336  1
  Fe  Fe47  1  0.83376845  0.16545035  0.83384362  1
  Cr  Cr48  1  0.83355745  0.50013464  0.50033132  1
  Ni  Ni49  1  0.66613304  0.33386872  0.66708640  1
  Cr  Cr50  1  0.83228301  0.49989187  0.83352869  1
  Ni  Ni51  1  0.83344515  0.83611024  0.50291960  1
  Ni  Ni52  1  0.66657537  0.66892920  0.66819741  1
  Fe  Fe53  1  0.83169034  0.83640249  0.83317317  1
" 