8709,Ni67Fe29Cr2_3,-241.456033215597, 216.282221075189,Ni67Fe29Cr2,"# generated using pymatgen
 data_Cr(Fe4Ni9)2
_symmetry_space_group_name_H-M   'P 1'
_cell_length_a   7.41787238
_cell_length_b   7.41787238
_cell_length_c   10.49045573
_cell_angle_alpha   90.00000000
_cell_angle_beta   90.00000000
_cell_angle_gamma   90.00000000
_symmetry_Int_Tables_number   1
_chemical_formula_structural   Cr(Fe4Ni9)2
_chemical_formula_sum   'Cr2 Fe16 Ni36'
_cell_volume   577.23555012
_cell_formula_units_Z   2
loop_
 _symmetry_equiv_pos_site_id
 _symmetry_equiv_pos_as_xyz
  1  'x, y, z'
loop_
 _atom_site_type_symbol
 _atom_site_label
 _atom_site_symmetry_multiplicity
 _atom_site_fract_x
 _atom_site_fract_y
 _atom_site_fract_z
 _atom_site_occupancy
  Ni  Ni0  1  0.00385865  0.00350106  0.00399309  1
  Fe  Fe1  1  0.17012555  0.17027869  0.16977274  1
  Ni  Ni2  1  1.00321395  0.00566111  0.33573840  1
  Ni  Ni3  1  1.00181596  0.33607819  1.00269701  1
  Ni  Ni4  1  0.16874070  0.50263541  0.17002775  1
  Ni  Ni5  1  0.00379498  0.33569774  0.33660669  1
  Ni  Ni6  1  1.00311941  0.67008505  1.00294691  1
  Ni  Ni7  1  0.16984038  0.83768995  0.17100390  1
  Fe  Fe8  1  1.00272540  0.67018333  0.33590618  1
  Ni  Ni9  1  0.33638017  1.00293050  1.00260112  1
  Fe  Fe10  1  0.50247177  0.16940989  0.16968245  1
  Ni  Ni11  1  0.33636956  1.00074744  0.33729076  1
  Fe  Fe12  1  0.33469897  0.33537467  1.00216334  1
  Ni  Ni13  1  0.50331894  0.50389456  0.16982920  1
  Fe  Fe14  1  0.33595462  0.33651357  0.33814034  1
  Cr  Cr15  1  0.33708935  0.67137045  1.00236081  1
  Ni  Ni16  1  0.50336573  0.83774657  0.16995889  1
  Ni  Ni17  1  0.33755271  0.67013080  0.33656222  1
  Fe  Fe18  1  0.67047435  1.00280575  1.00327486  1
  Ni  Ni19  1  0.83796700  0.16941205  0.16880847  1
  Ni  Ni20  1  0.67028646  1.00211001  0.33618376  1
  Fe  Fe21  1  0.67025109  0.33652242  1.00328093  1
  Ni  Ni22  1  0.83767786  0.50238188  0.16913158  1
  Cr  Cr23  1  0.67265603  0.33686727  0.33998128  1
  Fe  Fe24  1  0.67225123  0.67070214  0.00336365  1
  Fe  Fe25  1  0.83720963  0.83538687  0.17082420  1
  Ni  Ni26  1  0.66745826  0.67070978  0.33581536  1
  Ni  Ni27  1  0.16911089  0.17030453  0.50282254  1
  Ni  Ni28  1  1.00318938  0.00471445  0.67001421  1
  Ni  Ni29  1  0.16889020  0.16901733  0.83767720  1
  Ni  Ni30  1  0.16918996  0.50266722  0.50367899  1
  Ni  Ni31  1  1.00323371  0.33469991  0.67050506  1
  Fe  Fe32  1  0.17080207  0.50232405  0.83559746  1
  Fe  Fe33  1  0.16988348  0.83679693  0.50331850  1
  Fe  Fe34  1  1.00226209  0.66956469  0.67030409  1
  Ni  Ni35  1  0.16842964  0.83865823  0.83464606  1
  Ni  Ni36  1  0.50232204  0.16794636  0.50464606  1
  Fe  Fe37  1  0.33733272  0.00509761  0.67067486  1
  Ni  Ni38  1  0.50303796  0.17010153  0.83700067  1
  Ni  Ni39  1  0.50242297  0.50520820  0.50431457  1
  Ni  Ni40  1  0.33656551  0.33827025  0.67011466  1
  Ni  Ni41  1  0.50597072  0.50245975  0.83606549  1
  Ni  Ni42  1  0.50439170  0.83672719  0.50410508  1
  Ni  Ni43  1  0.33756656  0.67016712  0.67028828  1
  Ni  Ni44  1  0.50392043  0.83743653  0.83554389  1
  Ni  Ni45  1  0.83838812  0.16835588  0.50540661  1
  Ni  Ni46  1  0.67094928  0.00345695  0.66962392  1
  Fe  Fe47  1  0.83608170  0.16911849  0.83637720  1
  Ni  Ni48  1  0.83806988  0.50495643  0.50454864  1
  Ni  Ni49  1  0.67019571  0.33658402  0.66964000  1
  Fe  Fe50  1  0.83660362  0.50306963  0.83645138  1
  Ni  Ni51  1  0.83574594  0.83685836  0.50212873  1
  Ni  Ni52  1  0.66751644  0.66987263  0.67005345  1
  Fe  Fe53  1  0.83624941  0.83772943  0.83549735  1
" 