3194,Ni67Fe8Cr23_6,-230.00943451473, 160.142180397945,Ni67Fe8Cr23,"# generated using pymatgen
 data_Cr7(FeNi9)2
_symmetry_space_group_name_H-M   'P 1'
_cell_length_a   7.47259148
_cell_length_b   7.47259148
_cell_length_c   10.56784022
_cell_angle_alpha   90.00000000
_cell_angle_beta   90.00000000
_cell_angle_gamma   90.00000000
_symmetry_Int_Tables_number   1
_chemical_formula_structural   Cr7(FeNi9)2
_chemical_formula_sum   'Cr14 Fe4 Ni36'
_cell_volume   590.10421918
_cell_formula_units_Z   2
loop_
 _symmetry_equiv_pos_site_id
 _symmetry_equiv_pos_as_xyz
  1  'x, y, z'
loop_
 _atom_site_type_symbol
 _atom_site_label
 _atom_site_symmetry_multiplicity
 _atom_site_fract_x
 _atom_site_fract_y
 _atom_site_fract_z
 _atom_site_occupancy
  Ni  Ni0  1  0.00076235  0.00158343  -0.00026622  1
  Ni  Ni1  1  0.16735595  0.16503132  0.16522417  1
  Cr  Cr2  1  0.99887413  0.99703038  0.33162711  1
  Ni  Ni3  1  0.99819659  0.32900406  0.00177908  1
  Ni  Ni4  1  0.16646614  0.49913514  0.16924656  1
  Cr  Cr5  1  0.99959403  0.32995042  0.33066145  1
  Cr  Cr6  1  -0.00020310  0.67064401  0.00317633  1
  Ni  Ni7  1  0.16789638  0.83455996  0.16798310  1
  Fe  Fe8  1  0.00202769  0.66566740  0.33243108  1
  Ni  Ni9  1  0.32962052  0.00062205  0.00110602  1
  Ni  Ni10  1  0.49885202  0.16580174  0.16835868  1
  Ni  Ni11  1  0.33392874  0.99843892  0.33097594  1
  Cr  Cr12  1  0.33321490  0.33024605  0.00198288  1
  Ni  Ni13  1  0.50179246  0.49990837  0.16863067  1
  Ni  Ni14  1  0.33605810  0.33376106  0.33287038  1
  Cr  Cr15  1  0.33402762  0.66930547  0.00260441  1
  Ni  Ni16  1  0.49951093  0.83358205  0.16774117  1
  Ni  Ni17  1  0.33521470  0.66739150  0.33368748  1
  Cr  Cr18  1  0.66701859  -0.00036169  0.00017982  1
  Ni  Ni19  1  0.83160522  0.16685007  0.16555283  1
  Fe  Fe20  1  0.66378395  0.00036722  0.33258362  1
  Ni  Ni21  1  0.66753922  0.33189521  0.00199995  1
  Ni  Ni22  1  0.83157169  0.49934313  0.16559048  1
  Ni  Ni23  1  0.66458064  0.33310340  0.33174106  1
  Ni  Ni24  1  0.66762622  0.66587254  0.00281524  1
  Ni  Ni25  1  0.83184306  0.83195940  0.16798806  1
  Ni  Ni26  1  0.66537378  0.66743037  0.33122450  1
  Cr  Cr27  1  0.16764586  0.16590620  0.50019375  1
  Ni  Ni28  1  0.99876240  0.99875942  0.66674575  1
  Ni  Ni29  1  0.16571411  0.16380551  0.83233917  1
  Ni  Ni30  1  0.16964127  0.50135170  0.50056802  1
  Ni  Ni31  1  0.00015172  0.32986832  0.66589495  1
  Cr  Cr32  1  0.16490388  0.49939992  0.82878713  1
  Ni  Ni33  1  0.16760157  0.83089074  0.49996010  1
  Ni  Ni34  1  0.00107143  0.67050612  0.66331083  1
  Ni  Ni35  1  0.16468548  0.83684323  0.83062601  1
  Ni  Ni36  1  0.49973296  0.16375424  0.49785396  1
  Ni  Ni37  1  0.33138992  0.99952849  0.66626823  1
  Ni  Ni38  1  0.49804386  0.16490632  0.83218097  1
  Fe  Fe39  1  0.49887355  0.50045375  0.49707375  1
  Ni  Ni40  1  0.33279600  0.33131566  0.66398468  1
  Cr  Cr41  1  0.49941917  0.49889956  0.83417711  1
  Ni  Ni42  1  0.49888755  0.83562294  0.49799924  1
  Ni  Ni43  1  0.33138962  0.66855441  0.66265000  1
  Cr  Cr44  1  0.49737957  0.83522091  0.83406904  1
  Ni  Ni45  1  0.82909608  0.16352656  0.50020443  1
  Fe  Fe46  1  0.66603201  0.00017633  0.66552642  1
  Ni  Ni47  1  0.83442070  0.16480650  0.83257572  1
  Cr  Cr48  1  0.83675864  0.49949309  0.49788997  1
  Cr  Cr49  1  0.66490013  0.32992517  0.66540188  1
  Cr  Cr50  1  0.83423589  0.49956678  0.83665137  1
  Ni  Ni51  1  0.83129229  0.83415969  0.49892347  1
  Cr  Cr52  1  0.66573358  0.66913023  0.66650725  1
  Ni  Ni53  1  0.83527707  0.83547410  0.83210980  1
" 