8724,Ni67Fe14Cr18_6,-233.14821538137, 178.183979349267,Ni67Fe14Cr18,"# generated using pymatgen
 data_Cr11Fe7Ni36
_symmetry_space_group_name_H-M   'P 1'
_cell_length_a   7.45507018
_cell_length_b   7.45507018
_cell_length_c   10.54306136
_cell_angle_alpha   90.00000000
_cell_angle_beta   90.00000000
_cell_angle_gamma   90.00000000
_symmetry_Int_Tables_number   1
_chemical_formula_structural   Cr11Fe7Ni36
_chemical_formula_sum   'Cr11 Fe7 Ni36'
_cell_volume   585.96301712
_cell_formula_units_Z   1
loop_
 _symmetry_equiv_pos_site_id
 _symmetry_equiv_pos_as_xyz
  1  'x, y, z'
loop_
 _atom_site_type_symbol
 _atom_site_label
 _atom_site_symmetry_multiplicity
 _atom_site_fract_x
 _atom_site_fract_y
 _atom_site_fract_z
 _atom_site_occupancy
  Ni  Ni0  1  0.00156690  1.00059362  0.00206181  1
  Ni  Ni1  1  0.16648929  0.16726615  0.16711049  1
  Ni  Ni2  1  0.00118507  0.00456039  0.33405965  1
  Ni  Ni3  1  0.00316301  0.33497040  0.00223500  1
  Ni  Ni4  1  0.16473371  0.49915567  0.16694055  1
  Ni  Ni5  1  0.00081927  0.33062652  0.33224932  1
  Ni  Ni6  1  0.99931670  0.66688288  0.00098179  1
  Ni  Ni7  1  0.16741221  0.83596080  0.16761689  1
  Cr  Cr8  1  0.00318131  0.66808479  0.33145715  1
  Ni  Ni9  1  0.33454070  0.00268588  0.00132790  1
  Ni  Ni10  1  0.49996475  0.16430817  0.16714997  1
  Fe  Fe11  1  0.33387501  0.99981602  0.33412301  1
  Ni  Ni12  1  0.33158477  0.33156943  0.99963806  1
  Cr  Cr13  1  0.50106991  0.50157444  0.16941560  1
  Fe  Fe14  1  0.33393130  0.33249684  0.33419343  1
  Cr  Cr15  1  0.33368692  0.66840913  1.00034394  1
  Ni  Ni16  1  0.50157810  0.83637245  0.16845665  1
  Ni  Ni17  1  0.33633532  0.66863611  0.33472351  1
  Ni  Ni18  1  0.66630101  0.99882012  0.00168987  1
  Ni  Ni19  1  0.83589282  0.16707132  0.16903616  1
  Ni  Ni20  1  0.66638352  0.00205319  0.33334588  1
  Cr  Cr21  1  0.66748033  0.33331250  1.00075214  1
  Ni  Ni22  1  0.83633122  0.50082159  0.16697877  1
  Fe  Fe23  1  0.66811301  0.33268220  0.33392033  1
  Ni  Ni24  1  0.66970107  0.66978458  0.99992100  1
  Fe  Fe25  1  0.83346160  0.83551518  0.16626143  1
  Ni  Ni26  1  0.66347588  0.66828826  0.33362127  1
  Ni  Ni27  1  0.16869453  0.16488400  0.50030093  1
  Ni  Ni28  1  0.00248507  0.99926050  0.66639747  1
  Ni  Ni29  1  0.17031706  0.16700938  0.83495854  1
  Cr  Cr30  1  0.16919172  0.50000501  0.50025175  1
  Cr  Cr31  1  0.00245214  0.33308998  0.66797250  1
  Fe  Fe32  1  0.16695840  0.49951428  0.83540448  1
  Ni  Ni33  1  0.16862428  0.83816138  0.50160435  1
  Ni  Ni34  1  1.00017228  0.67000786  0.66994849  1
  Fe  Fe35  1  0.16586506  0.83642419  0.83409751  1
  Ni  Ni36  1  0.49891343  0.16656248  0.50088509  1
  Ni  Ni37  1  0.33428127  0.00229451  0.66673422  1
  Ni  Ni38  1  0.49610964  0.16590069  0.83427357  1
  Ni  Ni39  1  0.50118439  0.50074972  0.49946886  1
  Ni  Ni40  1  0.33523150  0.33176799  0.66824354  1
  Ni  Ni41  1  0.50137806  0.50119492  0.83323054  1
  Ni  Ni42  1  0.50050121  0.83500522  0.50013895  1
  Cr  Cr43  1  0.33510932  0.66835773  0.66748881  1
  Ni  Ni44  1  0.50346009  0.83530627  0.83377390  1
  Fe  Fe45  1  0.83406791  0.16503318  0.49873876  1
  Ni  Ni46  1  0.66564222  0.99929049  0.66740003  1
  Cr  Cr47  1  0.83561945  0.16449344  0.83407918  1
  Cr  Cr48  1  0.83187931  0.50142512  0.50065170  1
  Cr  Cr49  1  0.66438626  0.33363718  0.66684489  1
  Ni  Ni50  1  0.83482829  0.50621225  0.83487558  1
  Cr  Cr51  1  0.83364765  0.83532915  0.50274263  1
  Ni  Ni52  1  0.66702711  0.66895457  0.66894529  1
  Ni  Ni53  1  0.83377625  0.83118848  0.83431548  1
" 