6630,Ni67Fe29Cr2_1,-241.591660928493, 215.132433804883,Ni67Fe29Cr2,"# generated using pymatgen
 data_Cr(Fe4Ni9)2
_symmetry_space_group_name_H-M   'P 1'
_cell_length_a   7.41736725
_cell_length_b   7.41736725
_cell_length_c   10.48974136
_cell_angle_alpha   90.00000000
_cell_angle_beta   90.00000000
_cell_angle_gamma   90.00000000
_symmetry_Int_Tables_number   1
_chemical_formula_structural   Cr(Fe4Ni9)2
_chemical_formula_sum   'Cr2 Fe16 Ni36'
_cell_volume   577.11763508
_cell_formula_units_Z   2
loop_
 _symmetry_equiv_pos_site_id
 _symmetry_equiv_pos_as_xyz
  1  'x, y, z'
loop_
 _atom_site_type_symbol
 _atom_site_label
 _atom_site_symmetry_multiplicity
 _atom_site_fract_x
 _atom_site_fract_y
 _atom_site_fract_z
 _atom_site_occupancy
  Ni  Ni0  1  0.00417672  0.00464405  0.00427954  1
  Ni  Ni1  1  0.16950485  0.16826550  0.16985536  1
  Fe  Fe2  1  1.00310165  0.00428126  0.33573128  1
  Ni  Ni3  1  1.00247912  0.33464549  1.00274743  1
  Cr  Cr4  1  0.16950067  0.50311434  0.17008484  1
  Ni  Ni5  1  1.00226518  0.33592777  0.33770094  1
  Fe  Fe6  1  1.00179869  0.67073202  1.00269346  1
  Ni  Ni7  1  0.17065418  0.83859126  0.17036645  1
  Ni  Ni8  1  0.00393301  0.66947927  0.33604811  1
  Fe  Fe9  1  0.33689645  1.00314604  1.00271341  1
  Fe  Fe10  1  0.50440237  0.16975359  0.16974843  1
  Fe  Fe11  1  0.33644216  1.00317518  0.33709523  1
  Fe  Fe12  1  0.33762812  0.33573824  1.00253652  1
  Ni  Ni13  1  0.50577892  0.50425476  0.16962862  1
  Fe  Fe14  1  0.33769324  0.33613155  0.33718475  1
  Ni  Ni15  1  0.33798792  0.67138783  1.00296624  1
  Ni  Ni16  1  0.50381392  0.83593706  0.17085290  1
  Fe  Fe17  1  0.33790991  0.67073953  0.33693548  1
  Ni  Ni18  1  0.67001704  0.00357346  1.00309830  1
  Ni  Ni19  1  0.83664774  0.17023139  0.17072956  1
  Ni  Ni20  1  0.66849039  0.00432232  0.33596672  1
  Ni  Ni21  1  0.67064512  0.33677879  0.00442830  1
  Ni  Ni22  1  0.83399174  0.50310703  0.17069875  1
  Ni  Ni23  1  0.67091681  0.33661504  0.33595223  1
  Ni  Ni24  1  0.66820889  0.66969449  0.00417475  1
  Ni  Ni25  1  0.83557616  0.83670859  0.16980735  1
  Ni  Ni26  1  0.66893052  0.66911173  0.33512982  1
  Ni  Ni27  1  0.17006951  0.16983957  0.50376684  1
  Ni  Ni28  1  0.00581252  0.00497681  0.67023769  1
  Ni  Ni29  1  0.17011834  0.17015393  0.83642713  1
  Fe  Fe30  1  0.16837446  0.50330111  0.50376859  1
  Ni  Ni31  1  1.00257496  0.33589320  0.66959535  1
  Ni  Ni32  1  0.16941499  0.50366212  0.83578417  1
  Ni  Ni33  1  0.17228783  0.83689409  0.50320321  1
  Ni  Ni34  1  0.00502904  0.66918081  0.67144913  1
  Ni  Ni35  1  0.17129970  0.83623211  0.83647618  1
  Fe  Fe36  1  0.50390108  0.16983114  0.50374233  1
  Ni  Ni37  1  0.33567169  1.00223442  0.67026811  1
  Ni  Ni38  1  0.50370451  0.16920009  0.83657721  1
  Fe  Fe39  1  0.50407061  0.50323886  0.50297086  1
  Fe  Fe40  1  0.33587368  0.33663695  0.67032366  1
  Fe  Fe41  1  0.50318491  0.50332735  0.83715122  1
  Fe  Fe42  1  0.50209418  0.83697578  0.50356526  1
  Ni  Ni43  1  0.33670764  0.67165765  0.66919464  1
  Ni  Ni44  1  0.50284166  0.83686606  0.83579634  1
  Ni  Ni45  1  0.83675909  0.17261119  0.50359470  1
  Fe  Fe46  1  0.66956286  0.00405324  0.67110378  1
  Ni  Ni47  1  0.83622849  0.17108491  0.83572345  1
  Ni  Ni48  1  0.83594143  0.50138936  0.50278416  1
  Ni  Ni49  1  0.67104767  0.33693100  0.66966558  1
  Ni  Ni50  1  0.83685996  0.50279984  0.83656552  1
  Cr  Cr51  1  0.83664682  0.83616691  0.50426155  1
  Ni  Ni52  1  0.66830518  0.66842206  0.67074700  1
  Fe  Fe53  1  0.83706745  0.83719361  0.83694334  1
" 