1031,Ni67Fe14Cr18_15,-233.21431408868, 179.188260052666,Ni67Fe14Cr18,"# generated using pymatgen
 data_Cr11Fe7Ni36
_symmetry_space_group_name_H-M   'P 1'
_cell_length_a   7.45360778
_cell_length_b   7.45360778
_cell_length_c   10.54099321
_cell_angle_alpha   90.00000000
_cell_angle_beta   90.00000000
_cell_angle_gamma   90.00000000
_symmetry_Int_Tables_number   1
_chemical_formula_structural   Cr11Fe7Ni36
_chemical_formula_sum   'Cr11 Fe7 Ni36'
_cell_volume   585.61825384
_cell_formula_units_Z   1
loop_
 _symmetry_equiv_pos_site_id
 _symmetry_equiv_pos_as_xyz
  1  'x, y, z'
loop_
 _atom_site_type_symbol
 _atom_site_label
 _atom_site_symmetry_multiplicity
 _atom_site_fract_x
 _atom_site_fract_y
 _atom_site_fract_z
 _atom_site_occupancy
  Ni  Ni0  1  0.99909761  0.99924635  0.99953066  1
  Ni  Ni1  1  0.16975760  0.16810632  0.16827568  1
  Ni  Ni2  1  0.99887164  0.00194008  0.33395264  1
  Cr  Cr3  1  0.99948420  0.33419970  0.00414437  1
  Ni  Ni4  1  0.16669948  0.50006989  0.16853539  1
  Ni  Ni5  1  0.00242283  0.33542161  0.33315623  1
  Ni  Ni6  1  0.99935160  0.66917113  0.99979422  1
  Cr  Cr7  1  0.16642095  0.83379116  0.16614470  1
  Ni  Ni8  1  0.99994038  0.66542230  0.33511832  1
  Ni  Ni9  1  0.33448243  1.00061287  0.00302912  1
  Ni  Ni10  1  0.50052042  0.16671744  0.16713025  1
  Fe  Fe11  1  0.33529738  0.00358768  0.33412533  1
  Ni  Ni12  1  0.33565762  0.33449021  0.00219857  1
  Cr  Cr13  1  0.50130332  0.49965600  0.16578264  1
  Ni  Ni14  1  0.33275599  0.33447051  0.33589388  1
  Ni  Ni15  1  0.33439120  0.66761479  0.99992909  1
  Fe  Fe16  1  0.50214430  0.83537500  0.16735468  1
  Ni  Ni17  1  0.33468194  0.66579049  0.33567690  1
  Ni  Ni18  1  0.66917306  1.00053980  0.00228410  1
  Fe  Fe19  1  0.83363043  0.16708777  0.16827866  1
  Ni  Ni20  1  0.66711627  0.99989760  0.33372803  1
  Ni  Ni21  1  0.66754629  0.33423578  0.99929081  1
  Ni  Ni22  1  0.83484886  0.50259356  0.16836175  1
  Ni  Ni23  1  0.66758508  0.33337672  0.33517456  1
  Ni  Ni24  1  0.66898578  0.66803431  0.00137687  1
  Ni  Ni25  1  0.83342362  0.83376363  0.16709522  1
  Fe  Fe26  1  0.66943187  0.66755887  0.33550718  1
  Ni  Ni27  1  0.17000023  0.16946370  0.49918872  1
  Ni  Ni28  1  0.99753594  0.99936156  0.66928470  1
  Cr  Cr29  1  0.16771469  0.16448532  0.83519018  1
  Ni  Ni30  1  0.16909448  0.50010851  0.49934266  1
  Cr  Cr31  1  0.00099423  0.33402676  0.66605655  1
  Cr  Cr32  1  0.16953592  0.50472403  0.83526425  1
  Cr  Cr33  1  0.16575690  0.83358907  0.50130757  1
  Fe  Fe34  1  0.99914150  0.66937225  0.66765089  1
  Ni  Ni35  1  0.16455623  0.83304929  0.83536775  1
  Ni  Ni36  1  0.49984625  0.16884631  0.50041958  1
  Cr  Cr37  1  0.33431370  1.00063523  0.66471270  1
  Cr  Cr38  1  0.50331390  0.17036102  0.83471025  1
  Ni  Ni39  1  0.50048842  0.50037195  0.50259382  1
  Ni  Ni40  1  0.33567837  0.33754515  0.66457966  1
  Fe  Fe41  1  0.50294499  0.50162996  0.83412009  1
  Ni  Ni42  1  0.50336867  0.83348563  0.49885577  1
  Ni  Ni43  1  0.33637192  0.66460597  0.66718593  1
  Cr  Cr44  1  0.50106242  0.83280215  0.83659621  1
  Cr  Cr45  1  0.83321156  0.16644255  0.50035675  1
  Ni  Ni46  1  0.67066515  0.99863790  0.66676974  1
  Ni  Ni47  1  0.83178670  0.16573150  0.83507883  1
  Ni  Ni48  1  0.83313223  0.50361985  0.49972157  1
  Fe  Fe49  1  0.66594435  0.33572840  0.66738434  1
  Ni  Ni50  1  0.83095828  0.50297101  0.83459722  1
  Ni  Ni51  1  0.83247413  0.83256555  0.50177343  1
  Ni  Ni52  1  0.66761804  0.66774677  0.66588521  1
  Ni  Ni53  1  0.83615321  0.83400555  0.83382031  1
" 