1526,Ni67Fe29Cr2_4,-241.666392599724, 214.953444347906,Ni67Fe29Cr2,"# generated using pymatgen
 data_Cr(Fe4Ni9)2
_symmetry_space_group_name_H-M   'P 1'
_cell_length_a   7.41994864
_cell_length_b   7.41994864
_cell_length_c   10.49339199
_cell_angle_alpha   90.00000000
_cell_angle_beta   90.00000000
_cell_angle_gamma   90.00000000
_symmetry_Int_Tables_number   1
_chemical_formula_structural   Cr(Fe4Ni9)2
_chemical_formula_sum   'Cr2 Fe16 Ni36'
_cell_volume   577.72038861
_cell_formula_units_Z   2
loop_
 _symmetry_equiv_pos_site_id
 _symmetry_equiv_pos_as_xyz
  1  'x, y, z'
loop_
 _atom_site_type_symbol
 _atom_site_label
 _atom_site_symmetry_multiplicity
 _atom_site_fract_x
 _atom_site_fract_y
 _atom_site_fract_z
 _atom_site_occupancy
  Ni  Ni0  1  0.00336780  1.00269031  1.00277184  1
  Fe  Fe1  1  0.17053937  0.17150909  0.16838728  1
  Cr  Cr2  1  1.00295911  1.00306937  0.33578618  1
  Ni  Ni3  1  0.00378036  0.33650334  1.00299963  1
  Ni  Ni4  1  0.17023020  0.50333121  0.17062469  1
  Ni  Ni5  1  0.00358291  0.33744647  0.33588243  1
  Ni  Ni6  1  1.00257083  0.67044568  1.00290180  1
  Fe  Fe7  1  0.17076011  0.83488582  0.16933952  1
  Ni  Ni8  1  1.00299449  0.66886567  0.33655720  1
  Fe  Fe9  1  0.33700962  1.00262853  1.00147315  1
  Cr  Cr10  1  0.50518905  0.17057963  0.16932680  1
  Ni  Ni11  1  0.33660253  1.00262362  0.33703826  1
  Ni  Ni12  1  0.33596897  0.33755424  1.00159239  1
  Ni  Ni13  1  0.50071922  0.50399023  0.17073059  1
  Ni  Ni14  1  0.33570017  0.33700911  0.33883372  1
  Fe  Fe15  1  0.33704711  0.66910969  0.00386475  1
  Ni  Ni16  1  0.50383194  0.83491742  0.17053653  1
  Ni  Ni17  1  0.33686273  0.66977015  0.33686153  1
  Ni  Ni18  1  0.67117950  1.00140271  1.00066102  1
  Ni  Ni19  1  0.83690853  0.17025107  0.16921672  1
  Ni  Ni20  1  0.66924384  1.00193892  0.33852679  1
  Ni  Ni21  1  0.66964915  0.33835971  1.00185173  1
  Fe  Fe22  1  0.83547070  0.50356115  0.16991124  1
  Ni  Ni23  1  0.67004486  0.33804853  0.33680705  1
  Ni  Ni24  1  0.66965917  0.66992389  1.00295262  1
  Ni  Ni25  1  0.83568591  0.83654322  0.16998779  1
  Ni  Ni26  1  0.66977133  0.66966356  0.33640023  1
  Fe  Fe27  1  0.16869200  0.16957971  0.50461357  1
  Ni  Ni28  1  0.00432801  1.00281195  0.67035840  1
  Ni  Ni29  1  0.16914695  0.16988271  0.83655537  1
  Fe  Fe30  1  0.16761730  0.50380084  0.50181189  1
  Fe  Fe31  1  1.00110055  0.33484275  0.66964367  1
  Fe  Fe32  1  0.16954118  0.50342293  0.83781121  1
  Ni  Ni33  1  0.17113533  0.83490218  0.50286597  1
  Fe  Fe34  1  1.00190157  0.67151494  0.66923543  1
  Ni  Ni35  1  0.16926960  0.83574836  0.83716306  1
  Fe  Fe36  1  0.50432507  0.16895075  0.50372506  1
  Ni  Ni37  1  0.33534127  1.00305314  0.67066662  1
  Ni  Ni38  1  0.50362712  0.17053945  0.83618660  1
  Fe  Fe39  1  0.50511727  0.50398478  0.50318280  1
  Fe  Fe40  1  0.33787317  0.33542104  0.67074337  1
  Ni  Ni41  1  0.50212595  0.50331940  0.83680874  1
  Fe  Fe42  1  0.50468891  0.83660826  0.50338934  1
  Fe  Fe43  1  0.33782786  0.67147482  0.66980104  1
  Ni  Ni44  1  0.50300582  0.83552597  0.83614751  1
  Ni  Ni45  1  0.83498312  0.17098363  0.50363563  1
  Ni  Ni46  1  0.66989775  1.00289815  0.67030752  1
  Ni  Ni47  1  0.83673007  0.16958287  0.83637806  1
  Ni  Ni48  1  0.83643129  0.50278965  0.50200472  1
  Ni  Ni49  1  0.66931949  0.33775406  0.67078955  1
  Fe  Fe50  1  0.83573194  0.50362239  0.83624617  1
  Ni  Ni51  1  0.83718778  0.83575923  0.50399356  1
  Ni  Ni52  1  0.66980954  0.66894930  0.67025822  1
  Ni  Ni53  1  0.83730015  0.83703998  0.83523902  1
" 