6960,Ni67Fe8Cr23_13,-230.329396669405, 167.767136818239,Ni67Fe8Cr23,"# generated using pymatgen
 data_Cr7(FeNi9)2
_symmetry_space_group_name_H-M   'P 1'
_cell_length_a   7.46839357
_cell_length_b   7.46839357
_cell_length_c   10.56190348
_cell_angle_alpha   90.00000000
_cell_angle_beta   90.00000000
_cell_angle_gamma   90.00000000
_symmetry_Int_Tables_number   1
_chemical_formula_structural   Cr7(FeNi9)2
_chemical_formula_sum   'Cr14 Fe4 Ni36'
_cell_volume   589.11026166
_cell_formula_units_Z   2
loop_
 _symmetry_equiv_pos_site_id
 _symmetry_equiv_pos_as_xyz
  1  'x, y, z'
loop_
 _atom_site_type_symbol
 _atom_site_label
 _atom_site_symmetry_multiplicity
 _atom_site_fract_x
 _atom_site_fract_y
 _atom_site_fract_z
 _atom_site_occupancy
  Cr  Cr0  1  0.99890287  0.00063261  0.00101656  1
  Fe  Fe1  1  0.16691141  0.16637902  0.16723302  1
  Ni  Ni2  1  0.99915354  0.00257942  0.33269141  1
  Ni  Ni3  1  0.00100415  0.33355430  0.99865420  1
  Cr  Cr4  1  0.16653350  0.50068571  0.16551852  1
  Ni  Ni5  1  0.99913132  0.32722923  0.33296489  1
  Ni  Ni6  1  0.99800086  0.66580413  -0.00003466  1
  Ni  Ni7  1  0.16658786  0.83409674  0.16673108  1
  Cr  Cr8  1  0.99758497  0.66985518  0.33144186  1
  Ni  Ni9  1  0.33359081  0.00074594  0.00096694  1
  Ni  Ni10  1  0.49984740  0.16733838  0.16698669  1
  Fe  Fe11  1  0.33175512  0.00125770  0.33224258  1
  Ni  Ni12  1  0.33188397  0.33340042  0.00017254  1
  Ni  Ni13  1  0.50026748  0.49842210  0.16805953  1
  Ni  Ni14  1  0.33496695  0.33266025  0.33227180  1
  Ni  Ni15  1  0.33468291  0.66566119  0.99871913  1
  Cr  Cr16  1  0.49942789  0.83400271  0.16581797  1
  Ni  Ni17  1  0.33767606  0.66593512  0.33408608  1
  Ni  Ni18  1  0.66686073  0.99772869  0.99968144  1
  Ni  Ni19  1  0.83210195  0.16671012  0.16889075  1
  Fe  Fe20  1  0.66923650  0.00048717  0.33281819  1
  Cr  Cr21  1  0.66654457  0.33486513  0.00049787  1
  Ni  Ni22  1  0.83227216  0.49940069  0.16668821  1
  Ni  Ni23  1  0.66560186  0.33390388  0.33190029  1
  Ni  Ni24  1  0.66702521  0.66754306  0.99943189  1
  Ni  Ni25  1  0.83378925  0.83359000  0.16646943  1
  Ni  Ni26  1  0.66410948  0.66599892  0.33314805  1
  Ni  Ni27  1  0.16547855  0.16598267  0.49771052  1
  Cr  Cr28  1  0.99851080  0.00185602  0.66646261  1
  Ni  Ni29  1  0.16618446  0.16940369  0.83423555  1
  Cr  Cr30  1  0.16719786  0.49936784  0.50095532  1
  Ni  Ni31  1  0.99851932  0.33207672  0.66804421  1
  Ni  Ni32  1  0.16512169  0.49963316  0.83339914  1
  Cr  Cr33  1  0.16769761  0.83330367  0.50029695  1
  Ni  Ni34  1  0.99960364  0.66567677  0.66839503  1
  Cr  Cr35  1  0.16859528  0.83071566  0.83356571  1
  Cr  Cr36  1  0.50183265  0.16638786  0.49982085  1
  Ni  Ni37  1  0.33429999  0.99843828  0.66616001  1
  Cr  Cr38  1  0.50085573  0.16370722  0.83374555  1
  Ni  Ni39  1  0.49963301  0.50080311  0.49751375  1
  Cr  Cr40  1  0.33263327  0.33433909  0.66786884  1
  Ni  Ni41  1  0.49873260  0.50220774  0.83416985  1
  Fe  Fe42  1  0.50090867  0.83259476  0.50010866  1
  Ni  Ni43  1  0.33474687  0.66723347  0.66695936  1
  Ni  Ni44  1  0.50039833  0.83315106  0.83315609  1
  Ni  Ni45  1  0.83322118  0.16538717  0.49958317  1
  Ni  Ni46  1  0.66731181  0.99951486  0.66638439  1
  Ni  Ni47  1  0.83332313  0.16780832  0.83119562  1
  Cr  Cr48  1  0.83260974  0.49767926  0.49983674  1
  Ni  Ni49  1  0.66889779  0.33260789  0.66689173  1
  Ni  Ni50  1  0.83587876  0.49969732  0.83315170  1
  Ni  Ni51  1  0.83147770  0.83606027  0.49884529  1
  Cr  Cr52  1  0.66532611  0.66681696  0.66722756  1
  Ni  Ni53  1  0.83068671  0.83221535  0.83438356  1
" 