6996,Ni67Fe8Cr23_11,-230.086402034808, 163.804741297438,Ni67Fe8Cr23,"# generated using pymatgen
 data_Cr7(FeNi9)2
_symmetry_space_group_name_H-M   'P 1'
_cell_length_a   7.47192652
_cell_length_b   7.47192652
_cell_length_c   10.56689983
_cell_angle_alpha   90.00000000
_cell_angle_beta   90.00000000
_cell_angle_gamma   90.00000000
_symmetry_Int_Tables_number   1
_chemical_formula_structural   Cr7(FeNi9)2
_chemical_formula_sum   'Cr14 Fe4 Ni36'
_cell_volume   589.94669915
_cell_formula_units_Z   2
loop_
 _symmetry_equiv_pos_site_id
 _symmetry_equiv_pos_as_xyz
  1  'x, y, z'
loop_
 _atom_site_type_symbol
 _atom_site_label
 _atom_site_symmetry_multiplicity
 _atom_site_fract_x
 _atom_site_fract_y
 _atom_site_fract_z
 _atom_site_occupancy
  Ni  Ni0  1  -0.00031256  0.99856164  0.99802094  1
  Ni  Ni1  1  0.16679009  0.16512533  0.16711512  1
  Ni  Ni2  1  0.99847989  0.99848900  0.33305820  1
  Ni  Ni3  1  -0.00027796  0.33203880  0.00146579  1
  Ni  Ni4  1  0.16683355  0.49975739  0.16693621  1
  Cr  Cr5  1  0.00010156  0.33401909  0.33331383  1
  Ni  Ni6  1  0.99861740  0.66848935  0.00165870  1
  Ni  Ni7  1  0.16508991  0.83417031  0.16723094  1
  Cr  Cr8  1  0.99855551  0.66629635  0.33293121  1
  Cr  Cr9  1  0.33397309  0.99927759  0.99929324  1
  Ni  Ni10  1  0.49911471  0.16565502  0.16767747  1
  Fe  Fe11  1  0.33475654  -0.00000829  0.33180099  1
  Cr  Cr12  1  0.33362297  0.33095385  0.99863633  1
  Ni  Ni13  1  0.49975544  0.49948545  0.16566058  1
  Ni  Ni14  1  0.33283621  0.33247651  0.33238253  1
  Cr  Cr15  1  0.33420609  0.66873895  0.00054310  1
  Ni  Ni16  1  0.50088723  0.83392965  0.16771800  1
  Fe  Fe17  1  0.33347661  0.66626482  0.33177729  1
  Ni  Ni18  1  0.66615666  0.99844453  0.99899756  1
  Cr  Cr19  1  0.83271044  0.16387107  0.16412364  1
  Ni  Ni20  1  0.66503097  0.99842890  0.33434163  1
  Ni  Ni21  1  0.66570825  0.33239120  -0.00016942  1
  Ni  Ni22  1  0.83266440  0.50130430  0.16244632  1
  Cr  Cr23  1  0.66583961  0.33175127  0.33378567  1
  Ni  Ni24  1  0.66674390  0.66819454  0.00043680  1
  Ni  Ni25  1  0.83304990  0.83364028  0.16454940  1
  Cr  Cr26  1  0.66718646  0.66912060  0.33270138  1
  Cr  Cr27  1  0.16848659  0.16505224  0.49936800  1
  Fe  Fe28  1  0.99704004  0.99776556  0.66781381  1
  Ni  Ni29  1  0.16514631  0.16347218  0.83215861  1
  Ni  Ni30  1  0.16772864  0.50052995  0.50012568  1
  Cr  Cr31  1  0.99787472  0.33200814  0.66432434  1
  Cr  Cr32  1  0.16685550  0.50137451  0.83160524  1
  Cr  Cr33  1  0.16785577  0.83265899  0.50042574  1
  Ni  Ni34  1  0.99913562  0.66764116  0.66496170  1
  Ni  Ni35  1  0.16465411  0.83463199  0.83116859  1
  Ni  Ni36  1  0.50063525  0.16413608  0.50009449  1
  Ni  Ni37  1  0.33562294  0.99903529  0.66761618  1
  Ni  Ni38  1  0.50203313  0.16609420  0.83106927  1
  Cr  Cr39  1  0.49799896  0.50046669  0.50234011  1
  Fe  Fe40  1  0.33558364  0.33190626  0.66710376  1
  Ni  Ni41  1  0.50174109  0.50009645  0.83127394  1
  Ni  Ni42  1  0.50067596  0.83529134  0.50021444  1
  Ni  Ni43  1  0.33361484  0.66933732  0.66646958  1
  Ni  Ni44  1  0.50153955  0.83280881  0.83108160  1
  Ni  Ni45  1  0.83069847  0.16302398  0.50037627  1
  Ni  Ni46  1  0.66439314  -0.00031453  0.66558232  1
  Ni  Ni47  1  0.83173809  0.16403037  0.83394328  1
  Ni  Ni48  1  0.83294379  0.50081821  0.50237740  1
  Ni  Ni49  1  0.66597293  0.33055485  0.66600208  1
  Cr  Cr50  1  0.83024125  0.50077944  0.83560311  1
  Ni  Ni51  1  0.83159091  0.83505594  0.50148509  1
  Ni  Ni52  1  0.66636914  0.66868003  0.66627157  1
  Ni  Ni53  1  0.83260266  0.83456697  0.83308028  1
" 