8035,Ni67Fe29Cr2_13,-241.348425904582, 217.403435596361,Ni67Fe29Cr2,"# generated using pymatgen
 data_Cr(Fe4Ni9)2
_symmetry_space_group_name_H-M   'P 1'
_cell_length_a   7.41195466
_cell_length_b   7.41195466
_cell_length_c   10.48208680
_cell_angle_alpha   90.00000000
_cell_angle_beta   90.00000000
_cell_angle_gamma   90.00000000
_symmetry_Int_Tables_number   1
_chemical_formula_structural   Cr(Fe4Ni9)2
_chemical_formula_sum   'Cr2 Fe16 Ni36'
_cell_volume   575.85515599
_cell_formula_units_Z   2
loop_
 _symmetry_equiv_pos_site_id
 _symmetry_equiv_pos_as_xyz
  1  'x, y, z'
loop_
 _atom_site_type_symbol
 _atom_site_label
 _atom_site_symmetry_multiplicity
 _atom_site_fract_x
 _atom_site_fract_y
 _atom_site_fract_z
 _atom_site_occupancy
  Ni  Ni0  1  1.00300520  1.00257473  0.00421878  1
  Fe  Fe1  1  0.16976917  0.16956257  0.17085560  1
  Ni  Ni2  1  0.00381082  1.00356683  0.33769130  1
  Fe  Fe3  1  1.00286077  0.33856114  0.00405630  1
  Fe  Fe4  1  0.16972890  0.50394653  0.17050649  1
  Ni  Ni5  1  1.00275645  0.33653992  0.33661243  1
  Ni  Ni6  1  1.00312959  0.67142728  1.00258585  1
  Ni  Ni7  1  0.17040876  0.83660341  0.16998654  1
  Ni  Ni8  1  1.00360169  0.67104121  0.33805494  1
  Ni  Ni9  1  0.33721360  1.00336183  0.00402474  1
  Ni  Ni10  1  0.50342038  0.17090859  0.17066906  1
  Ni  Ni11  1  0.33672203  1.00356067  0.33773301  1
  Ni  Ni12  1  0.33931153  0.33740301  0.00458565  1
  Fe  Fe13  1  0.50456072  0.50346586  0.17061914  1
  Ni  Ni14  1  0.33809187  0.33686164  0.33737999  1
  Ni  Ni15  1  0.33734492  0.67038377  1.00317469  1
  Fe  Fe16  1  0.50390933  0.83726108  0.17055532  1
  Ni  Ni17  1  0.33725660  0.67072495  0.33713940  1
  Fe  Fe18  1  0.67016874  1.00369195  1.00304215  1
  Ni  Ni19  1  0.83624293  0.17059507  0.16930286  1
  Fe  Fe20  1  0.67074528  0.00418094  0.33763715  1
  Ni  Ni21  1  0.66988951  0.33728149  1.00231762  1
  Ni  Ni22  1  0.83704782  0.50390677  0.17059905  1
  Ni  Ni23  1  0.67030103  0.33707393  0.33815811  1
  Ni  Ni24  1  0.67067660  0.66932837  0.00379492  1
  Ni  Ni25  1  0.83786228  0.83664901  0.17039281  1
  Fe  Fe26  1  0.67053405  0.67010751  0.33700008  1
  Ni  Ni27  1  0.17008723  0.17080737  0.50300872  1
  Ni  Ni28  1  1.00225905  1.00362632  0.66924320  1
  Cr  Cr29  1  0.17068535  0.17088766  0.83771728  1
  Ni  Ni30  1  0.17160746  0.50383583  0.50367338  1
  Ni  Ni31  1  1.00275234  0.33703499  0.66976231  1
  Ni  Ni32  1  0.17057754  0.50582818  0.83727998  1
  Ni  Ni33  1  0.17056454  0.83650527  0.50480015  1
  Ni  Ni34  1  0.00576582  0.67048837  0.67051272  1
  Fe  Fe35  1  0.16937158  0.83538707  0.83742154  1
  Fe  Fe36  1  0.50327441  0.16994088  0.50334939  1
  Fe  Fe37  1  0.33726154  1.00238300  0.66929172  1
  Ni  Ni38  1  0.50538080  0.17035626  0.83625517  1
  Ni  Ni39  1  0.50173641  0.50341448  0.50290421  1
  Fe  Fe40  1  0.33682944  0.33821309  0.66956416  1
  Fe  Fe41  1  0.50347790  0.50252999  0.83802983  1
  Ni  Ni42  1  0.50278357  0.83692882  0.50234566  1
  Ni  Ni43  1  0.33547110  0.67017126  0.67083659  1
  Fe  Fe44  1  0.50345226  0.83773084  0.83742641  1
  Ni  Ni45  1  0.83738013  0.16976021  0.50425559  1
  Ni  Ni46  1  0.67098014  0.00588497  0.67088048  1
  Ni  Ni47  1  0.83446247  0.17004236  0.83758986  1
  Fe  Fe48  1  0.83873153  0.50315629  0.50270902  1
  Fe  Fe49  1  0.67145230  0.33526145  0.67073617  1
  Ni  Ni50  1  0.83822825  0.50384024  0.83755662  1
  Ni  Ni51  1  0.83780134  0.83845096  0.50243412  1
  Cr  Cr52  1  0.67045658  0.67038824  0.67008912  1
  Ni  Ni53  1  0.83748892  0.83726613  0.83832320  1
" 