8191,Ni67Fe14Cr18_12,-233.059211103268, 179.004126272694,Ni67Fe14Cr18,"# generated using pymatgen
 data_Cr11Fe7Ni36
_symmetry_space_group_name_H-M   'P 1'
_cell_length_a   7.45572431
_cell_length_b   7.45572431
_cell_length_c   10.54398644
_cell_angle_alpha   90.00000000
_cell_angle_beta   90.00000000
_cell_angle_gamma   90.00000000
_symmetry_Int_Tables_number   1
_chemical_formula_structural   Cr11Fe7Ni36
_chemical_formula_sum   'Cr11 Fe7 Ni36'
_cell_volume   586.11727359
_cell_formula_units_Z   1
loop_
 _symmetry_equiv_pos_site_id
 _symmetry_equiv_pos_as_xyz
  1  'x, y, z'
loop_
 _atom_site_type_symbol
 _atom_site_label
 _atom_site_symmetry_multiplicity
 _atom_site_fract_x
 _atom_site_fract_y
 _atom_site_fract_z
 _atom_site_occupancy
  Ni  Ni0  1  0.99958535  0.99998680  0.00173826  1
  Ni  Ni1  1  0.16640038  0.16889996  0.16505135  1
  Ni  Ni2  1  0.99745914  1.00033895  0.33423572  1
  Ni  Ni3  1  0.00429454  0.33452375  0.00281885  1
  Ni  Ni4  1  0.16794733  0.49950993  0.16563774  1
  Cr  Cr5  1  1.00020977  0.33379090  0.33380312  1
  Ni  Ni6  1  0.00143599  0.66776903  1.00016912  1
  Cr  Cr7  1  0.16658522  0.83363974  0.16709442  1
  Ni  Ni8  1  0.99922724  0.66780016  0.33439013  1
  Fe  Fe9  1  0.33548751  1.00057014  0.00097509  1
  Ni  Ni10  1  0.50136212  0.16731141  0.16630074  1
  Cr  Cr11  1  0.33501181  1.00070429  0.33422572  1
  Ni  Ni12  1  0.33275844  0.33561096  0.00144559  1
  Ni  Ni13  1  0.50046328  0.50174303  0.16742094  1
  Cr  Cr14  1  0.33503740  0.33576574  0.33417203  1
  Ni  Ni15  1  0.33454992  0.66561203  0.99981783  1
  Ni  Ni16  1  0.50397329  0.83322149  0.16683851  1
  Ni  Ni17  1  0.33582106  0.66573006  0.33437310  1
  Ni  Ni18  1  0.66738174  0.99819541  0.00114772  1
  Fe  Fe19  1  0.83376341  0.16552037  0.16767431  1
  Ni  Ni20  1  0.66924474  1.00002007  0.33440186  1
  Cr  Cr21  1  0.66554487  0.33400388  0.00237001  1
  Fe  Fe22  1  0.83379571  0.50257056  0.16771968  1
  Ni  Ni23  1  0.66717453  0.33438506  0.33436076  1
  Ni  Ni24  1  0.66629237  0.67031968  0.00131238  1
  Ni  Ni25  1  0.83228125  0.83476835  0.16742155  1
  Ni  Ni26  1  0.66723011  0.66787315  0.33406000  1
  Ni  Ni27  1  0.16587417  0.16827410  0.50292779  1
  Ni  Ni28  1  0.99986734  1.00001495  0.66630274  1
  Cr  Cr29  1  0.16807554  0.16803979  0.83425119  1
  Ni  Ni30  1  0.16713193  0.49928165  0.50172927  1
  Fe  Fe31  1  0.00170728  0.33425967  0.66517693  1
  Ni  Ni32  1  0.16895270  0.50087398  0.83491068  1
  Cr  Cr33  1  0.16645659  0.83449371  0.50031581  1
  Ni  Ni34  1  0.00092798  0.66785867  0.66771821  1
  Fe  Fe35  1  0.16641003  0.83249022  0.83457326  1
  Fe  Fe36  1  0.50278715  0.16782334  0.50216850  1
  Ni  Ni37  1  0.33500986  0.00343969  0.66788590  1
  Fe  Fe38  1  0.50037845  0.16705316  0.83332607  1
  Ni  Ni39  1  0.50158418  0.50022473  0.49978159  1
  Ni  Ni40  1  0.33495084  0.33306356  0.66672921  1
  Ni  Ni41  1  0.49800018  0.50119817  0.83507613  1
  Ni  Ni42  1  0.50322931  0.83429403  0.49922157  1
  Cr  Cr43  1  0.33294170  0.66613834  0.66784832  1
  Ni  Ni44  1  0.50151118  0.83480677  0.83622166  1
  Ni  Ni45  1  0.83399023  0.16663080  0.50128295  1
  Ni  Ni46  1  0.66740321  0.00236020  0.66672744  1
  Cr  Cr47  1  0.83402427  0.16526314  0.83332266  1
  Ni  Ni48  1  0.83356150  0.50009836  0.50079207  1
  Ni  Ni49  1  0.66531696  0.33200333  0.66567181  1
  Cr  Cr50  1  0.83507790  0.50208868  0.83395749  1
  Ni  Ni51  1  0.83304821  0.83554824  0.50024600  1
  Cr  Cr52  1  0.66874695  0.66807807  0.66725223  1
  Ni  Ni53  1  0.83372177  0.83512166  0.83461192  1
" 