683,Ni67Fe8Cr23_4,-230.154527114129, 166.692991500222,Ni67Fe8Cr23,"# generated using pymatgen
 data_Cr7(FeNi9)2
_symmetry_space_group_name_H-M   'P 1'
_cell_length_a   7.47075304
_cell_length_b   7.47075304
_cell_length_c   10.56524027
_cell_angle_alpha   90.00000000
_cell_angle_beta   90.00000000
_cell_angle_gamma   90.00000000
_symmetry_Int_Tables_number   1
_chemical_formula_structural   Cr7(FeNi9)2
_chemical_formula_sum   'Cr14 Fe4 Ni36'
_cell_volume   589.66878561
_cell_formula_units_Z   2
loop_
 _symmetry_equiv_pos_site_id
 _symmetry_equiv_pos_as_xyz
  1  'x, y, z'
loop_
 _atom_site_type_symbol
 _atom_site_label
 _atom_site_symmetry_multiplicity
 _atom_site_fract_x
 _atom_site_fract_y
 _atom_site_fract_z
 _atom_site_occupancy
  Cr  Cr0  1  -0.00014731  0.00025431  0.00131058  1
  Ni  Ni1  1  0.16704550  0.16719688  0.16711578  1
  Ni  Ni2  1  0.00066133  0.99829922  0.33248470  1
  Ni  Ni3  1  0.99929418  0.33479917  0.00072527  1
  Ni  Ni4  1  0.16545581  0.50011544  0.16489017  1
  Cr  Cr5  1  0.99827897  0.33305449  0.33299837  1
  Fe  Fe6  1  0.00145134  0.66411319  0.00150067  1
  Ni  Ni7  1  0.16413646  0.83194315  0.16798651  1
  Ni  Ni8  1  0.00048413  0.66791798  0.33082450  1
  Cr  Cr9  1  0.33241280  0.99805401  0.00103751  1
  Ni  Ni10  1  0.49963463  0.16818893  0.16807244  1
  Ni  Ni11  1  0.33294416  0.99960139  0.33381156  1
  Ni  Ni12  1  0.33231926  0.33660497  0.00031448  1
  Cr  Cr13  1  0.49943060  0.49762450  0.16622148  1
  Ni  Ni14  1  0.33462498  0.33106446  0.33219062  1
  Ni  Ni15  1  0.33214433  0.66440173  0.99691139  1
  Cr  Cr16  1  0.50017648  0.83345227  0.16794776  1
  Ni  Ni17  1  0.33114672  0.66858985  0.33345224  1
  Cr  Cr18  1  0.66698965  0.00071464  0.99947716  1
  Ni  Ni19  1  0.83257648  0.16686775  0.16642353  1
  Ni  Ni20  1  0.66565133  0.00177743  0.33320097  1
  Ni  Ni21  1  0.66764245  0.33463067  0.00044631  1
  Ni  Ni22  1  0.83409004  0.50051889  0.16566744  1
  Ni  Ni23  1  0.66632135  0.33124297  0.33282884  1
  Ni  Ni24  1  0.66545736  0.66401810  0.99960077  1
  Ni  Ni25  1  0.83508257  0.83186917  0.16773772  1
  Fe  Fe26  1  0.66776255  0.66666800  0.33314356  1
  Ni  Ni27  1  0.16729663  0.16413273  0.50072116  1
  Ni  Ni28  1  0.00128620  0.00064025  0.66574694  1
  Cr  Cr29  1  0.16466993  0.16801811  0.83148370  1
  Cr  Cr30  1  0.16547235  0.49977848  0.50064587  1
  Ni  Ni31  1  -0.00018631  0.33259871  0.66590164  1
  Ni  Ni32  1  0.16840910  0.50119181  0.83353079  1
  Ni  Ni33  1  0.16765449  0.83513306  0.49970963  1
  Ni  Ni34  1  0.00146018  0.66601669  0.66696656  1
  Ni  Ni35  1  0.16817090  0.82997944  0.83155841  1
  Ni  Ni36  1  0.49897546  0.16412875  0.49843410  1
  Ni  Ni37  1  0.33289969  0.99730402  0.66469789  1
  Cr  Cr38  1  0.50058011  0.16704538  0.83338802  1
  Cr  Cr39  1  0.50058251  0.50018019  0.49847576  1
  Fe  Fe40  1  0.33139345  0.33252767  0.66645889  1
  Ni  Ni41  1  0.49737432  0.50243814  0.83442038  1
  Ni  Ni42  1  0.49869648  0.83505981  0.50042298  1
  Fe  Fe43  1  0.33278117  0.66902175  0.66825990  1
  Ni  Ni44  1  0.49859915  0.82971995  0.83123605  1
  Ni  Ni45  1  0.83298434  0.16626004  0.50052266  1
  Ni  Ni46  1  0.66506988  0.99895314  0.66633878  1
  Ni  Ni47  1  0.83373264  0.16685897  0.83230959  1
  Ni  Ni48  1  0.83290900  0.49971165  0.49975172  1
  Cr  Cr49  1  0.66830528  0.33263992  0.66564693  1
  Cr  Cr50  1  0.83365246  0.49914932  0.83390110  1
  Cr  Cr51  1  0.83319735  0.83299789  0.49958405  1
  Ni  Ni52  1  0.66489516  0.66770402  0.66625876  1
  Cr  Cr53  1  0.83267814  0.83383474  0.83191365  1
" 