7872,Ni67Fe14Cr18_9,-233.168252113447, 177.561362858655,Ni67Fe14Cr18,"# generated using pymatgen
 data_Cr11Fe7Ni36
_symmetry_space_group_name_H-M   'P 1'
_cell_length_a   7.45009382
_cell_length_b   7.45009382
_cell_length_c   10.53602373
_cell_angle_alpha   90.00000000
_cell_angle_beta   90.00000000
_cell_angle_gamma   90.00000000
_symmetry_Int_Tables_number   1
_chemical_formula_structural   Cr11Fe7Ni36
_chemical_formula_sum   'Cr11 Fe7 Ni36'
_cell_volume   584.79038627
_cell_formula_units_Z   1
loop_
 _symmetry_equiv_pos_site_id
 _symmetry_equiv_pos_as_xyz
  1  'x, y, z'
loop_
 _atom_site_type_symbol
 _atom_site_label
 _atom_site_symmetry_multiplicity
 _atom_site_fract_x
 _atom_site_fract_y
 _atom_site_fract_z
 _atom_site_occupancy
  Ni  Ni0  1  0.00206608  0.99844037  0.00126210  1
  Ni  Ni1  1  0.16785623  0.16534046  0.16877899  1
  Ni  Ni2  1  0.00317248  0.99828945  0.33576709  1
  Ni  Ni3  1  1.00004531  0.33600085  0.00132447  1
  Cr  Cr4  1  0.16519937  0.50283877  0.16806167  1
  Fe  Fe5  1  0.99969857  0.33292130  0.33436897  1
  Ni  Ni6  1  0.99953030  0.66908641  1.00019493  1
  Ni  Ni7  1  0.16935484  0.83523826  0.16775247  1
  Ni  Ni8  1  0.99910748  0.67001638  0.33451927  1
  Ni  Ni9  1  0.33490531  1.00010139  0.00274478  1
  Ni  Ni10  1  0.50181246  0.16519400  0.16789539  1
  Ni  Ni11  1  0.33408878  0.00285002  0.33401937  1
  Cr  Cr12  1  0.33640574  0.33234006  0.00152816  1
  Fe  Fe13  1  0.50269642  0.50096341  0.16890977  1
  Ni  Ni14  1  0.33634996  0.33168676  0.33488025  1
  Fe  Fe15  1  0.33505279  0.67009403  1.00050395  1
  Ni  Ni16  1  0.50092269  0.83456695  0.16771301  1
  Fe  Fe17  1  0.33620036  0.67060028  0.33467042  1
  Ni  Ni18  1  0.66613142  0.99974159  1.00020334  1
  Cr  Cr19  1  0.83339611  0.16888630  0.16693215  1
  Ni  Ni20  1  0.66633791  1.00019310  0.33572933  1
  Ni  Ni21  1  0.66763980  0.33604374  1.00049961  1
  Ni  Ni22  1  0.83295963  0.50236519  0.16797823  1
  Ni  Ni23  1  0.66497623  0.33566865  0.33516651  1
  Ni  Ni24  1  0.66930884  0.66784470  0.00205511  1
  Fe  Fe25  1  0.83450975  0.83463014  0.16852326  1
  Ni  Ni26  1  0.66944930  0.66750396  0.33454000  1
  Ni  Ni27  1  0.16727019  0.16642118  0.49896710  1
  Ni  Ni28  1  0.00137993  0.99974242  0.66664072  1
  Cr  Cr29  1  0.16600815  0.16539990  0.83517296  1
  Cr  Cr30  1  0.16943532  0.50209849  0.50077617  1
  Cr  Cr31  1  1.00042517  0.33354768  0.66703317  1
  Fe  Fe32  1  0.16936231  0.50206438  0.83529942  1
  Ni  Ni33  1  0.16842615  0.83544970  0.49993789  1
  Cr  Cr34  1  0.99995351  0.67098356  0.66879507  1
  Ni  Ni35  1  0.16896785  0.83292319  0.83583889  1
  Ni  Ni36  1  0.50109634  0.16823602  0.49928968  1
  Cr  Cr37  1  0.33454369  0.00163345  0.66588698  1
  Ni  Ni38  1  0.50345430  0.16726926  0.83623316  1
  Ni  Ni39  1  0.50118281  0.50211710  0.49934829  1
  Ni  Ni40  1  0.33642010  0.33552189  0.66775820  1
  Ni  Ni41  1  0.50220452  0.50355690  0.83555727  1
  Ni  Ni42  1  0.50024081  0.83345235  0.49927185  1
  Ni  Ni43  1  0.33502405  0.66722411  0.66865717  1
  Ni  Ni44  1  0.49911646  0.83324006  0.83638045  1
  Ni  Ni45  1  0.83486858  0.16675016  0.49915846  1
  Cr  Cr46  1  0.66952564  1.00073611  0.66731314  1
  Ni  Ni47  1  0.83400717  0.16831660  0.83708184  1
  Ni  Ni48  1  0.83330536  0.50066987  0.49740687  1
  Cr  Cr49  1  0.66563650  0.33484624  0.66755878  1
  Ni  Ni50  1  0.83396335  0.50018265  0.83795556  1
  Ni  Ni51  1  0.83494017  0.83552854  0.49880870  1
  Cr  Cr52  1  0.66783083  0.66789765  0.66634899  1
  Fe  Fe53  1  0.83367908  0.83618651  0.83644311  1
" 