5750,Ni68Fe27Cr4_0,-240.639178432731, 212.212441919416,Ni68Fe27Cr4,"# generated using pymatgen
 data_CrFe5Ni12
_symmetry_space_group_name_H-M   'P 1'
_cell_length_a   7.42039016
_cell_length_b   7.42039016
_cell_length_c   10.49401640
_cell_angle_alpha   90.00000000
_cell_angle_beta   90.00000000
_cell_angle_gamma   90.00000000
_symmetry_Int_Tables_number   1
_chemical_formula_structural   CrFe5Ni12
_chemical_formula_sum   'Cr3 Fe15 Ni36'
_cell_volume   577.82352618
_cell_formula_units_Z   3
loop_
 _symmetry_equiv_pos_site_id
 _symmetry_equiv_pos_as_xyz
  1  'x, y, z'
loop_
 _atom_site_type_symbol
 _atom_site_label
 _atom_site_symmetry_multiplicity
 _atom_site_fract_x
 _atom_site_fract_y
 _atom_site_fract_z
 _atom_site_occupancy
  Ni  Ni0  1  1.00299503  0.00353866  0.00352506  1
  Fe  Fe1  1  0.17022876  0.17098866  0.16887054  1
  Cr  Cr2  1  0.00356243  1.00259617  0.33617566  1
  Ni  Ni3  1  1.00199537  0.33592856  0.00323027  1
  Ni  Ni4  1  0.16882384  0.50443915  0.17013871  1
  Ni  Ni5  1  1.00268746  0.33770337  0.33644043  1
  Ni  Ni6  1  1.00304948  0.66996844  0.00452918  1
  Ni  Ni7  1  0.16937969  0.83520001  0.16887734  1
  Ni  Ni8  1  0.00328075  0.66884468  0.33599603  1
  Ni  Ni9  1  0.33580958  0.00390056  0.00511009  1
  Ni  Ni10  1  0.50378923  0.16980073  0.16954179  1
  Fe  Fe11  1  0.33815478  1.00304307  0.33663411  1
  Fe  Fe12  1  0.33602919  0.33686394  1.00304159  1
  Ni  Ni13  1  0.50321750  0.50175249  0.16990212  1
  Ni  Ni14  1  0.33763837  0.33707644  0.33560769  1
  Ni  Ni15  1  0.33626437  0.66909887  0.00481861  1
  Fe  Fe16  1  0.50268177  0.83522017  0.17002358  1
  Ni  Ni17  1  0.33698459  0.66940982  0.33661766  1
  Fe  Fe18  1  0.67104444  0.00432531  0.00340365  1
  Fe  Fe19  1  0.83605248  0.17157074  0.16833097  1
  Fe  Fe20  1  0.66797446  0.00320562  0.33686004  1
  Ni  Ni21  1  0.66975777  0.33637896  0.00314662  1
  Ni  Ni22  1  0.83738872  0.50330835  0.16965726  1
  Ni  Ni23  1  0.66910755  0.33707733  0.33659165  1
  Fe  Fe24  1  0.67101478  0.66879784  0.00432311  1
  Ni  Ni25  1  0.83739795  0.83576985  0.16848230  1
  Ni  Ni26  1  0.66916369  0.66880796  0.33610800  1
  Fe  Fe27  1  0.17156476  0.17105176  0.50402478  1
  Ni  Ni28  1  1.00251474  1.00300901  0.66990425  1
  Fe  Fe29  1  0.17031948  0.17141325  0.83653673  1
  Ni  Ni30  1  0.16861717  0.50449133  0.50286710  1
  Fe  Fe31  1  0.00316412  0.33683750  0.66986999  1
  Ni  Ni32  1  0.16943243  0.50256526  0.83642726  1
  Ni  Ni33  1  0.17061164  0.83520036  0.50419388  1
  Ni  Ni34  1  1.00256946  0.67050506  0.66890320  1
  Cr  Cr35  1  0.16846175  0.83534963  0.83599555  1
  Ni  Ni36  1  0.50403659  0.16900130  0.50386222  1
  Ni  Ni37  1  0.33607045  0.00482337  0.66770860  1
  Ni  Ni38  1  0.50489993  0.17143073  0.83602892  1
  Ni  Ni39  1  0.50346378  0.50256944  0.50350105  1
  Ni  Ni40  1  0.33790078  0.33643333  0.67099882  1
  Ni  Ni41  1  0.50281335  0.50061112  0.83603101  1
  Ni  Ni42  1  0.50220891  0.83786125  0.50271999  1
  Ni  Ni43  1  0.33652590  0.66817776  0.66799468  1
  Cr  Cr44  1  0.50348708  0.83720316  0.83638092  1
  Fe  Fe45  1  0.83523152  0.17112240  0.50456566  1
  Ni  Ni46  1  0.67084691  0.00438107  0.66923941  1
  Ni  Ni47  1  0.83557211  0.16981721  0.83664478  1
  Ni  Ni48  1  0.83735046  0.50266528  0.50312811  1
  Ni  Ni49  1  0.66852501  0.33637539  0.66969411  1
  Fe  Fe50  1  0.83597153  0.50249569  0.83653753  1
  Fe  Fe51  1  0.83532732  0.83450124  0.50393941  1
  Ni  Ni52  1  0.67033230  0.66867218  0.66960152  1
  Fe  Fe53  1  0.83647533  0.83658803  0.83648532  1
" 