2330,Ni68Fe32_12,-237.096831683916, 205.060626039222,Ni68Fe32,"# generated using pymatgen
 data_Fe2Ni
_symmetry_space_group_name_H-M   'P 1'
_cell_length_a   7.39450988
_cell_length_b   7.39450988
_cell_length_c   10.45741616
_cell_angle_alpha   90.00000000
_cell_angle_beta   90.00000000
_cell_angle_gamma   90.00000000
_symmetry_Int_Tables_number   1
_chemical_formula_structural   Fe2Ni
_chemical_formula_sum   'Fe36 Ni18'
_cell_volume   571.79871948
_cell_formula_units_Z   18
loop_
 _symmetry_equiv_pos_site_id
 _symmetry_equiv_pos_as_xyz
  1  'x, y, z'
loop_
 _atom_site_type_symbol
 _atom_site_label
 _atom_site_symmetry_multiplicity
 _atom_site_fract_x
 _atom_site_fract_y
 _atom_site_fract_z
 _atom_site_occupancy
  Fe  Fe0  1  1.00485526  1.00487171  1.00374963  1
  Fe  Fe1  1  0.17071585  0.17263287  0.17136222  1
  Fe  Fe2  1  1.00451605  0.00502523  0.33912604  1
  Fe  Fe3  1  1.00431239  0.33962476  0.00551696  1
  Ni  Ni4  1  0.17123218  0.50431731  0.17143118  1
  Ni  Ni5  1  0.00507099  0.33865516  0.33918875  1
  Fe  Fe6  1  1.00470822  0.66998262  0.00543404  1
  Fe  Fe7  1  0.17084751  0.83703393  0.17176970  1
  Ni  Ni8  1  0.00615778  0.67136137  0.33883963  1
  Fe  Fe9  1  0.33900870  1.00462709  0.00504130  1
  Fe  Fe10  1  0.50501356  0.17293115  0.17177138  1
  Fe  Fe11  1  0.33838362  1.00483021  0.33803351  1
  Ni  Ni12  1  0.33774485  0.33824260  0.00566768  1
  Fe  Fe13  1  0.50507394  0.50481167  0.17162703  1
  Fe  Fe14  1  0.33776468  0.33913833  0.33813242  1
  Fe  Fe15  1  0.33860859  0.67066985  0.00556186  1
  Fe  Fe16  1  0.50507641  0.83696966  0.17260243  1
  Ni  Ni17  1  0.33761269  0.67143524  0.33790097  1
  Fe  Fe18  1  0.67083488  0.00510258  0.00577630  1
  Fe  Fe19  1  0.83887388  0.17260506  0.17245779  1
  Ni  Ni20  1  0.67139141  0.00526893  0.33776066  1
  Fe  Fe21  1  0.67166088  0.33981607  0.00540342  1
  Ni  Ni22  1  0.83897552  0.50478301  0.17272363  1
  Ni  Ni23  1  0.67146259  0.33747013  0.33811297  1
  Ni  Ni24  1  0.67247495  0.67192565  0.00570800  1
  Fe  Fe25  1  0.83894187  0.83724224  0.17240480  1
  Fe  Fe26  1  0.67208486  0.67094998  0.33808344  1
  Fe  Fe27  1  0.17193823  0.17103288  0.50556425  1
  Ni  Ni28  1  1.00415588  1.00403311  0.67114134  1
  Fe  Fe29  1  0.17178487  0.17329933  0.83780177  1
  Ni  Ni30  1  0.17158226  0.50349434  0.50475650  1
  Fe  Fe31  1  0.00579293  0.33811597  0.67106707  1
  Ni  Ni32  1  0.17176137  0.50449519  0.83872181  1
  Fe  Fe33  1  0.17205541  0.83675238  0.50476400  1
  Fe  Fe34  1  0.00544522  0.67078796  0.67061060  1
  Fe  Fe35  1  0.17117783  0.83676031  0.83799842  1
  Fe  Fe36  1  0.50501505  0.17215296  0.50449895  1
  Fe  Fe37  1  0.33783858  0.00526512  0.67168647  1
  Fe  Fe38  1  0.50435547  0.17387503  0.83843458  1
  Ni  Ni39  1  0.50414051  0.50547236  0.50359050  1
  Ni  Ni40  1  0.33904734  0.33928842  0.67097558  1
  Ni  Ni41  1  0.50451213  0.50482224  0.83917881  1
  Ni  Ni42  1  0.50589025  0.83881200  0.50458572  1
  Fe  Fe43  1  0.33804095  0.67088183  0.67055944  1
  Fe  Fe44  1  0.50519324  0.83628513  0.83809680  1
  Fe  Fe45  1  0.83771263  0.17218937  0.50449046  1
  Fe  Fe46  1  0.67127771  0.00538401  0.67066122  1
  Fe  Fe47  1  0.83850245  0.17273433  0.83778809  1
  Fe  Fe48  1  0.83737298  0.50634936  0.50415096  1
  Fe  Fe49  1  0.67128548  0.33873466  0.67108289  1
  Ni  Ni50  1  0.83860779  0.50455303  0.83777952  1
  Ni  Ni51  1  0.83760639  0.83941437  0.50419214  1
  Fe  Fe52  1  0.67109060  0.67115135  0.67191166  1
  Fe  Fe53  1  0.83827354  0.83639973  0.83758394  1
" 