8718,Ni68Fe32_14,-237.0218509157, 209.454942899277,Ni68Fe32,"# generated using pymatgen
 data_Fe2Ni
_symmetry_space_group_name_H-M   'P 1'
_cell_length_a   7.39619122
_cell_length_b   7.39619122
_cell_length_c   10.45979393
_cell_angle_alpha   90.00000000
_cell_angle_beta   90.00000000
_cell_angle_gamma   90.00000000
_symmetry_Int_Tables_number   1
_chemical_formula_structural   Fe2Ni
_chemical_formula_sum   'Fe36 Ni18'
_cell_volume   572.18884938
_cell_formula_units_Z   18
loop_
 _symmetry_equiv_pos_site_id
 _symmetry_equiv_pos_as_xyz
  1  'x, y, z'
loop_
 _atom_site_type_symbol
 _atom_site_label
 _atom_site_symmetry_multiplicity
 _atom_site_fract_x
 _atom_site_fract_y
 _atom_site_fract_z
 _atom_site_occupancy
  Fe  Fe0  1  0.00626157  1.00330910  1.00476965  1
  Ni  Ni1  1  0.17266457  0.17226850  0.17142261  1
  Fe  Fe2  1  0.00534742  1.00433393  0.33803821  1
  Fe  Fe3  1  0.00550333  0.33912861  0.00487991  1
  Ni  Ni4  1  0.17064890  0.50486453  0.17134512  1
  Fe  Fe5  1  0.00621204  0.33871593  0.33782335  1
  Fe  Fe6  1  0.00555948  0.67177862  0.00502044  1
  Ni  Ni7  1  0.17206128  0.83748585  0.17265713  1
  Ni  Ni8  1  1.00452338  0.67164336  0.33722662  1
  Fe  Fe9  1  0.33802705  1.00438706  0.00530763  1
  Ni  Ni10  1  0.50463620  0.17140887  0.17312795  1
  Ni  Ni11  1  0.33819187  1.00398268  0.33755542  1
  Fe  Fe12  1  0.33832323  0.33812175  1.00440828  1
  Fe  Fe13  1  0.50194757  0.50549671  0.17189455  1
  Fe  Fe14  1  0.33791891  0.33889216  0.33860108  1
  Ni  Ni15  1  0.33731065  0.67246556  1.00407417  1
  Ni  Ni16  1  0.50497541  0.83859127  0.17108545  1
  Ni  Ni17  1  0.33721042  0.67330433  0.33872525  1
  Fe  Fe18  1  0.67019465  1.00431664  1.00445266  1
  Fe  Fe19  1  0.83880376  0.17096559  0.17162333  1
  Fe  Fe20  1  0.67050346  1.00308036  0.33831355  1
  Fe  Fe21  1  0.67031601  0.33845878  0.00512953  1
  Fe  Fe22  1  0.83795838  0.50452178  0.17130027  1
  Ni  Ni23  1  0.67253676  0.33750734  0.33807964  1
  Fe  Fe24  1  0.67131379  0.67170537  1.00413340  1
  Fe  Fe25  1  0.83906847  0.83882497  0.17147962  1
  Fe  Fe26  1  0.67021439  0.67221343  0.33856610  1
  Fe  Fe27  1  0.17241180  0.16947943  0.50479612  1
  Fe  Fe28  1  0.00538474  1.00453861  0.67154128  1
  Fe  Fe29  1  0.17074745  0.17085037  0.83815227  1
  Fe  Fe30  1  0.17172667  0.50637340  0.50404805  1
  Fe  Fe31  1  0.00626746  0.33770265  0.67145402  1
  Fe  Fe32  1  0.17155478  0.50519814  0.83857773  1
  Fe  Fe33  1  0.17192106  0.83853636  0.50462327  1
  Fe  Fe34  1  0.00563495  0.67180925  0.67086802  1
  Ni  Ni35  1  0.17098809  0.83774800  0.83712407  1
  Fe  Fe36  1  0.50477569  0.17016270  0.50487586  1
  Ni  Ni37  1  0.33809992  1.00465101  0.67291308  1
  Ni  Ni38  1  0.50413165  0.17218617  0.83770671  1
  Fe  Fe39  1  0.50520976  0.50576504  0.50456783  1
  Ni  Ni40  1  0.33825462  0.33760399  0.67142930  1
  Fe  Fe41  1  0.50507807  0.50565602  0.83790294  1
  Ni  Ni42  1  0.50490931  0.83908635  0.50596876  1
  Fe  Fe43  1  0.33810954  0.67161127  0.67136895  1
  Fe  Fe44  1  0.50508784  0.83813920  0.83817001  1
  Fe  Fe45  1  0.83734970  0.17028886  0.50431020  1
  Fe  Fe46  1  0.67062353  1.00468063  0.67180460  1
  Fe  Fe47  1  0.83797477  0.17058227  0.83846292  1
  Fe  Fe48  1  0.83747889  0.50586200  0.50486089  1
  Fe  Fe49  1  0.67031673  0.33750171  0.67132130  1
  Ni  Ni50  1  0.83863000  0.50477544  0.83695305  1
  Ni  Ni51  1  0.83793554  0.83747298  0.50461221  1
  Fe  Fe52  1  0.67076930  0.67207288  0.67151756  1
  Ni  Ni53  1  0.83905840  0.83655541  0.83769128  1
" 