4938,Ni68Fe27Cr4_18,-240.599291085504, 211.339632388394,Ni68Fe27Cr4,"# generated using pymatgen
 data_CrFe5Ni12
_symmetry_space_group_name_H-M   'P 1'
_cell_length_a   7.42499212
_cell_length_b   7.42499212
_cell_length_c   10.50052456
_cell_angle_alpha   90.00000000
_cell_angle_beta   90.00000000
_cell_angle_gamma   90.00000000
_symmetry_Int_Tables_number   1
_chemical_formula_structural   CrFe5Ni12
_chemical_formula_sum   'Cr3 Fe15 Ni36'
_cell_volume   578.89925336
_cell_formula_units_Z   3
loop_
 _symmetry_equiv_pos_site_id
 _symmetry_equiv_pos_as_xyz
  1  'x, y, z'
loop_
 _atom_site_type_symbol
 _atom_site_label
 _atom_site_symmetry_multiplicity
 _atom_site_fract_x
 _atom_site_fract_y
 _atom_site_fract_z
 _atom_site_occupancy
  Ni  Ni0  1  0.00386422  0.00285586  1.00248394  1
  Ni  Ni1  1  0.16982482  0.16923889  0.16974818  1
  Fe  Fe2  1  1.00234693  1.00235033  0.33440374  1
  Ni  Ni3  1  1.00163913  0.33641338  0.00297192  1
  Fe  Fe4  1  0.16824883  0.50154259  0.16906030  1
  Ni  Ni5  1  1.00280118  0.33673729  0.33532267  1
  Ni  Ni6  1  1.00264420  0.66922876  0.00293617  1
  Ni  Ni7  1  0.16843412  0.83867627  0.16950713  1
  Fe  Fe8  1  1.00123553  0.66890306  0.33590021  1
  Ni  Ni9  1  0.33602692  1.00178845  0.00296686  1
  Ni  Ni10  1  0.50070329  0.16890213  0.16987351  1
  Ni  Ni11  1  0.33650832  1.00262666  0.33556076  1
  Fe  Fe12  1  0.33648056  0.33547547  0.00316406  1
  Ni  Ni13  1  0.50379105  0.50255576  0.16808378  1
  Ni  Ni14  1  0.33484052  0.33478253  0.33619508  1
  Fe  Fe15  1  0.33633267  0.67015132  1.00218408  1
  Ni  Ni16  1  0.50406209  0.83703454  0.16878947  1
  Cr  Cr17  1  0.33692809  0.67086506  0.33570575  1
  Ni  Ni18  1  0.66860375  1.00280020  0.00306714  1
  Ni  Ni19  1  0.83796560  0.16896119  0.16891295  1
  Fe  Fe20  1  0.66890317  1.00117818  0.33548855  1
  Ni  Ni21  1  0.67056615  0.33673284  0.00289743  1
  Ni  Ni22  1  0.83633081  0.50394873  0.16934096  1
  Cr  Cr23  1  0.67068105  0.33711206  0.33592321  1
  Ni  Ni24  1  0.66950409  0.66896380  1.00269378  1
  Ni  Ni25  1  0.83599619  0.83558293  0.17004698  1
  Ni  Ni26  1  0.67085282  0.67079766  0.33667846  1
  Cr  Cr27  1  0.17061407  0.17085568  0.50226609  1
  Fe  Fe28  1  1.00252416  1.00212112  0.67097379  1
  Ni  Ni29  1  0.17005570  0.16946213  0.83653653  1
  Ni  Ni30  1  0.16861048  0.50160229  0.50306353  1
  Ni  Ni31  1  1.00029461  0.33729127  0.67020304  1
  Ni  Ni32  1  0.16893592  0.50154348  0.83602909  1
  Fe  Fe33  1  0.16953951  0.83428698  0.50384624  1
  Fe  Fe34  1  0.00317512  0.66885686  0.67004060  1
  Ni  Ni35  1  0.16903498  0.83748705  0.83512911  1
  Fe  Fe36  1  0.50358799  0.16912237  0.50359317  1
  Ni  Ni37  1  0.33682655  0.99988383  0.66996999  1
  Ni  Ni38  1  0.50147491  0.16946492  0.83564332  1
  Ni  Ni39  1  0.50312886  0.50325764  0.50465510  1
  Fe  Fe40  1  0.33690334  0.33737143  0.67006071  1
  Ni  Ni41  1  0.50340855  0.50234878  0.83575423  1
  Ni  Ni42  1  0.50495278  0.83660515  0.50326666  1
  Ni  Ni43  1  0.33602428  0.67141210  0.66942683  1
  Ni  Ni44  1  0.50330509  0.83668117  0.83643739  1
  Fe  Fe45  1  0.83528523  0.17000717  0.50343883  1
  Fe  Fe46  1  0.66885756  1.00270758  0.66992193  1
  Fe  Fe47  1  0.83618504  0.17008889  0.83684670  1
  Ni  Ni48  1  0.83675306  0.50457481  0.50326728  1
  Ni  Ni49  1  0.67118396  0.33649370  0.66915135  1
  Ni  Ni50  1  0.83615180  0.50337398  0.83588822  1
  Ni  Ni51  1  0.83483869  0.83519353  0.50191155  1
  Fe  Fe52  1  0.66900585  0.66906757  0.66916391  1
  Ni  Ni53  1  0.83615501  0.83556177  0.83653698  1
" 