2794,Ni68Fe32_1,-236.89270700133, 207.301462539223,Ni68Fe32,"# generated using pymatgen
 data_Fe2Ni
_symmetry_space_group_name_H-M   'P 1'
_cell_length_a   7.39290746
_cell_length_b   7.39290746
_cell_length_c   10.45515000
_cell_angle_alpha   90.00000000
_cell_angle_beta   90.00000000
_cell_angle_gamma   90.00000000
_symmetry_Int_Tables_number   1
_chemical_formula_structural   Fe2Ni
_chemical_formula_sum   'Fe36 Ni18'
_cell_volume   571.42706777
_cell_formula_units_Z   18
loop_
 _symmetry_equiv_pos_site_id
 _symmetry_equiv_pos_as_xyz
  1  'x, y, z'
loop_
 _atom_site_type_symbol
 _atom_site_label
 _atom_site_symmetry_multiplicity
 _atom_site_fract_x
 _atom_site_fract_y
 _atom_site_fract_z
 _atom_site_occupancy
  Fe  Fe0  1  0.00572710  0.00559213  1.00497252  1
  Fe  Fe1  1  0.17205819  0.17244894  0.17183647  1
  Ni  Ni2  1  1.00431903  0.00569400  0.33817953  1
  Ni  Ni3  1  0.00585681  0.33780838  1.00491277  1
  Fe  Fe4  1  0.17258765  0.50417125  0.17076451  1
  Ni  Ni5  1  0.00536758  0.33732299  0.33872346  1
  Fe  Fe6  1  0.00620837  0.67056463  1.00444330  1
  Fe  Fe7  1  0.17259231  0.83842035  0.17175302  1
  Fe  Fe8  1  1.00482296  0.67187094  0.33900131  1
  Fe  Fe9  1  0.33835688  0.00532045  0.00523958  1
  Ni  Ni10  1  0.50493056  0.17234585  0.17105924  1
  Fe  Fe11  1  0.33801416  0.00567191  0.33846063  1
  Ni  Ni12  1  0.33799815  0.33928053  0.00620924  1
  Ni  Ni13  1  0.50423964  0.50424572  0.17151312  1
  Fe  Fe14  1  0.33809325  0.33761947  0.33823493  1
  Ni  Ni15  1  0.33947472  0.67074750  1.00474804  1
  Fe  Fe16  1  0.50482537  0.83800067  0.17133495  1
  Fe  Fe17  1  0.33767367  0.67175345  0.33766095  1
  Fe  Fe18  1  0.67095964  0.00574180  1.00435397  1
  Fe  Fe19  1  0.83816325  0.17233026  0.17133666  1
  Fe  Fe20  1  0.67213301  0.00555456  0.33911429  1
  Fe  Fe21  1  0.67111383  0.33853057  0.00550446  1
  Fe  Fe22  1  0.83774664  0.50416523  0.17183362  1
  Fe  Fe23  1  0.67201298  0.33768892  0.33792634  1
  Fe  Fe24  1  0.67083762  0.67076994  1.00478585  1
  Fe  Fe25  1  0.83762635  0.83854180  0.17248001  1
  Fe  Fe26  1  0.67254620  0.67179728  0.33891851  1
  Fe  Fe27  1  0.17175433  0.17076614  0.50479975  1
  Ni  Ni28  1  1.00374485  1.00443304  0.67161374  1
  Fe  Fe29  1  0.17160762  0.17208790  0.83841817  1
  Fe  Fe30  1  0.17201882  0.50520140  0.50567616  1
  Fe  Fe31  1  1.00450040  0.33850529  0.67222046  1
  Ni  Ni32  1  0.17126855  0.50502113  0.83885637  1
  Fe  Fe33  1  0.17147617  0.83907768  0.50490541  1
  Ni  Ni34  1  1.00407737  0.67270833  0.67152419  1
  Fe  Fe35  1  0.17134804  0.83821699  0.83838237  1
  Ni  Ni36  1  0.50502305  0.17109226  0.50546877  1
  Fe  Fe37  1  0.33908459  1.00429751  0.67133495  1
  Fe  Fe38  1  0.50475275  0.17194527  0.83814661  1
  Fe  Fe39  1  0.50546846  0.50547538  0.50479755  1
  Ni  Ni40  1  0.33859016  0.33861068  0.67168893  1
  Fe  Fe41  1  0.50460881  0.50501622  0.83894960  1
  Ni  Ni42  1  0.50578642  0.83912155  0.50423230  1
  Fe  Fe43  1  0.33846553  0.67239966  0.67241096  1
  Ni  Ni44  1  0.50501353  0.83836304  0.83851197  1
  Fe  Fe45  1  0.83796894  0.17036871  0.50532314  1
  Ni  Ni46  1  0.67236611  1.00372806  0.67098320  1
  Ni  Ni47  1  0.83874133  0.17168134  0.83797217  1
  Fe  Fe48  1  0.83755431  0.50574587  0.50498592  1
  Fe  Fe49  1  0.67219885  0.33788215  0.67160527  1
  Fe  Fe50  1  0.83854971  0.50527367  0.83822849  1
  Ni  Ni51  1  0.83845002  0.83834361  0.50560956  1
  Ni  Ni52  1  0.67165963  0.67304631  0.67177894  1
  Fe  Fe53  1  0.83840657  0.83836216  0.83704459  1
" 