2573,Ni68Fe27Cr4_11,-240.225810452184, 212.989534439139,Ni68Fe27Cr4,"# generated using pymatgen
 data_CrFe5Ni12
_symmetry_space_group_name_H-M   'P 1'
_cell_length_a   7.41808012
_cell_length_b   7.41808012
_cell_length_c   10.49074951
_cell_angle_alpha   90.00000000
_cell_angle_beta   90.00000000
_cell_angle_gamma   90.00000000
_symmetry_Int_Tables_number   1
_chemical_formula_structural   CrFe5Ni12
_chemical_formula_sum   'Cr3 Fe15 Ni36'
_cell_volume   577.28404803
_cell_formula_units_Z   3
loop_
 _symmetry_equiv_pos_site_id
 _symmetry_equiv_pos_as_xyz
  1  'x, y, z'
loop_
 _atom_site_type_symbol
 _atom_site_label
 _atom_site_symmetry_multiplicity
 _atom_site_fract_x
 _atom_site_fract_y
 _atom_site_fract_z
 _atom_site_occupancy
  Ni  Ni0  1  0.00365956  1.00255434  1.00323141  1
  Fe  Fe1  1  0.17109847  0.16857649  0.17001595  1
  Fe  Fe2  1  1.00238255  1.00242057  0.33670439  1
  Cr  Cr3  1  1.00242604  0.33522579  0.00384588  1
  Fe  Fe4  1  0.17102125  0.50433001  0.17147569  1
  Ni  Ni5  1  0.00457374  0.33683236  0.33718415  1
  Fe  Fe6  1  1.00240954  0.67316280  0.00425751  1
  Ni  Ni7  1  0.16908497  0.83574556  0.16925737  1
  Ni  Ni8  1  0.00403362  0.66924186  0.33632654  1
  Ni  Ni9  1  0.33697554  0.00354131  1.00327887  1
  Ni  Ni10  1  0.50342478  0.17002358  0.16855382  1
  Fe  Fe11  1  0.33700298  1.00241199  0.33684608  1
  Ni  Ni12  1  0.33881294  0.33541326  0.00391555  1
  Ni  Ni13  1  0.50191081  0.50391030  0.16822904  1
  Fe  Fe14  1  0.33566636  0.33766127  0.33642229  1
  Fe  Fe15  1  0.33819643  0.67150971  0.00425964  1
  Ni  Ni16  1  0.50350284  0.83596874  0.17051956  1
  Ni  Ni17  1  0.33664599  0.67071082  0.33626467  1
  Ni  Ni18  1  0.66926858  1.00259989  1.00311351  1
  Ni  Ni19  1  0.83663601  0.16797317  0.16964012  1
  Ni  Ni20  1  0.66926106  1.00177975  0.33683377  1
  Fe  Fe21  1  0.66790118  0.33564032  1.00269340  1
  Fe  Fe22  1  0.83591815  0.50560431  0.16987307  1
  Cr  Cr23  1  0.67074071  0.33610208  0.33559896  1
  Ni  Ni24  1  0.66925263  0.67010931  0.00340145  1
  Ni  Ni25  1  0.83731190  0.83725764  0.16958104  1
  Ni  Ni26  1  0.66922073  0.67202038  0.33739512  1
  Ni  Ni27  1  0.16895510  0.17094994  0.50299748  1
  Ni  Ni28  1  0.00435211  0.00404314  0.67015126  1
  Ni  Ni29  1  0.16984684  0.16796810  0.83613602  1
  Ni  Ni30  1  0.17024907  0.50337487  0.50286465  1
  Ni  Ni31  1  1.00134135  0.33575053  0.66874964  1
  Cr  Cr32  1  0.17084329  0.50375785  0.83564117  1
  Ni  Ni33  1  0.16928347  0.83557687  0.50384502  1
  Ni  Ni34  1  0.00330632  0.67011136  0.66948770  1
  Fe  Fe35  1  0.17036682  0.83885805  0.83624108  1
  Ni  Ni36  1  0.50303041  0.16967442  0.50420557  1
  Ni  Ni37  1  0.33631971  1.00250874  0.67016533  1
  Ni  Ni38  1  0.50361132  0.16987468  0.83714101  1
  Ni  Ni39  1  0.50148999  0.50440577  0.50461839  1
  Fe  Fe40  1  0.33667453  0.33578405  0.66955230  1
  Ni  Ni41  1  0.50465056  0.50357501  0.83705778  1
  Ni  Ni42  1  0.50373205  0.83582234  0.50227905  1
  Ni  Ni43  1  0.33738361  0.67162807  0.66954973  1
  Ni  Ni44  1  0.50332881  0.83645179  0.83710703  1
  Ni  Ni45  1  0.83791433  0.16870688  0.50420178  1
  Fe  Fe46  1  0.67024165  0.00357364  0.66961564  1
  Ni  Ni47  1  0.83644272  0.16928163  0.83605837  1
  Fe  Fe48  1  0.83787775  0.50393468  0.50450257  1
  Ni  Ni49  1  0.67074852  0.33681415  0.67109678  1
  Ni  Ni50  1  0.83484637  0.50360776  0.83597720  1
  Ni  Ni51  1  0.83688741  0.83711429  0.50302938  1
  Fe  Fe52  1  0.66997506  0.66982594  0.67019635  1
  Fe  Fe53  1  0.83619117  0.83692751  0.83704258  1
" 