5625,Ni68Fe32_15,-236.870911467225, 207.386503508449,Ni68Fe32,"# generated using pymatgen
 data_Fe2Ni
_symmetry_space_group_name_H-M   'P 1'
_cell_length_a   7.39535465
_cell_length_b   7.39535465
_cell_length_c   10.45861084
_cell_angle_alpha   90.00000000
_cell_angle_beta   90.00000000
_cell_angle_gamma   90.00000000
_symmetry_Int_Tables_number   1
_chemical_formula_structural   Fe2Ni
_chemical_formula_sum   'Fe36 Ni18'
_cell_volume   571.99471263
_cell_formula_units_Z   18
loop_
 _symmetry_equiv_pos_site_id
 _symmetry_equiv_pos_as_xyz
  1  'x, y, z'
loop_
 _atom_site_type_symbol
 _atom_site_label
 _atom_site_symmetry_multiplicity
 _atom_site_fract_x
 _atom_site_fract_y
 _atom_site_fract_z
 _atom_site_occupancy
  Fe  Fe0  1  1.00481126  1.00457408  1.00465134  1
  Fe  Fe1  1  0.16995353  0.17096282  0.17096497  1
  Fe  Fe2  1  0.00504804  1.00400575  0.33822220  1
  Fe  Fe3  1  1.00452339  0.33822484  0.00500844  1
  Fe  Fe4  1  0.17059106  0.50376502  0.17204908  1
  Ni  Ni5  1  0.00501856  0.33637929  0.33628257  1
  Fe  Fe6  1  0.00498051  0.67131596  0.00593715  1
  Ni  Ni7  1  0.17200213  0.83623711  0.17107440  1
  Ni  Ni8  1  1.00446673  0.67076697  0.33903715  1
  Fe  Fe9  1  0.33824767  0.00577312  0.00585508  1
  Ni  Ni10  1  0.50384275  0.17312621  0.17220293  1
  Fe  Fe11  1  0.33785831  1.00447405  0.33761048  1
  Ni  Ni12  1  0.33750820  0.33876993  1.00464966  1
  Fe  Fe13  1  0.50577012  0.50507108  0.17150621  1
  Ni  Ni14  1  0.33749894  0.33766795  0.33814131  1
  Fe  Fe15  1  0.33787508  0.67123085  1.00454723  1
  Fe  Fe16  1  0.50727162  0.83926055  0.17155463  1
  Ni  Ni17  1  0.33908520  0.67069918  0.33601491  1
  Fe  Fe18  1  0.67168755  0.00534990  1.00455327  1
  Ni  Ni19  1  0.83609000  0.17160648  0.17118539  1
  Fe  Fe20  1  0.67148858  0.00641796  0.33878361  1
  Fe  Fe21  1  0.67062911  0.33808048  0.00551392  1
  Ni  Ni22  1  0.83846976  0.50518022  0.17176140  1
  Fe  Fe23  1  0.67141699  0.34002717  0.33794916  1
  Fe  Fe24  1  0.67227116  0.67129685  0.00567068  1
  Ni  Ni25  1  0.84038010  0.83796479  0.17232210  1
  Ni  Ni26  1  0.67149781  0.67406018  0.33805543  1
  Fe  Fe27  1  0.17006811  0.17238117  0.50511656  1
  Ni  Ni28  1  1.00303077  0.00606735  0.67132329  1
  Fe  Fe29  1  0.17051272  0.17106007  0.83836423  1
  Fe  Fe30  1  0.17163887  0.50325796  0.50441538  1
  Ni  Ni31  1  1.00461880  0.33759007  0.67263555  1
  Fe  Fe32  1  0.17108866  0.50523324  0.83762663  1
  Fe  Fe33  1  0.17224453  0.83865041  0.50419414  1
  Fe  Fe34  1  0.00518469  0.67247281  0.67073854  1
  Fe  Fe35  1  0.17113147  0.83824643  0.83819072  1
  Ni  Ni36  1  0.50463645  0.17222645  0.50593312  1
  Fe  Fe37  1  0.33719375  1.00484517  0.67137361  1
  Fe  Fe38  1  0.50541111  0.17075640  0.83865567  1
  Fe  Fe39  1  0.50464016  0.50493439  0.50418106  1
  Fe  Fe40  1  0.33796388  0.33687833  0.67200845  1
  Fe  Fe41  1  0.50515583  0.50577239  0.83840678  1
  Fe  Fe42  1  0.50522313  0.83890634  0.50529731  1
  Ni  Ni43  1  0.33931771  0.67083073  0.67184951  1
  Fe  Fe44  1  0.50601490  0.83787982  0.83743627  1
  Ni  Ni45  1  0.83716037  0.17223684  0.50473457  1
  Ni  Ni46  1  0.67187152  1.00441106  0.67251090  1
  Fe  Fe47  1  0.83831974  0.17060718  0.83774181  1
  Fe  Fe48  1  0.83851162  0.50290443  0.50314767  1
  Fe  Fe49  1  0.67214802  0.33738521  0.67142120  1
  Fe  Fe50  1  0.83853681  0.50506571  0.83905481  1
  Fe  Fe51  1  0.83717833  0.83984859  0.50506348  1
  Fe  Fe52  1  0.67331632  0.67179362  0.67114766  1
  Ni  Ni53  1  0.83934431  0.83721577  0.83807312  1
" 