2608,Ni68Fe32_7,-237.437676686554, 211.508605072501,Ni68Fe32,"# generated using pymatgen
 data_Fe2Ni
_symmetry_space_group_name_H-M   'P 1'
_cell_length_a   7.39846724
_cell_length_b   7.39846724
_cell_length_c   10.46301271
_cell_angle_alpha   90.00000000
_cell_angle_beta   90.00000000
_cell_angle_gamma   90.00000000
_symmetry_Int_Tables_number   1
_chemical_formula_structural   Fe2Ni
_chemical_formula_sum   'Fe36 Ni18'
_cell_volume   572.71724901
_cell_formula_units_Z   18
loop_
 _symmetry_equiv_pos_site_id
 _symmetry_equiv_pos_as_xyz
  1  'x, y, z'
loop_
 _atom_site_type_symbol
 _atom_site_label
 _atom_site_symmetry_multiplicity
 _atom_site_fract_x
 _atom_site_fract_y
 _atom_site_fract_z
 _atom_site_occupancy
  Fe  Fe0  1  1.00428879  1.00399008  0.00572601  1
  Fe  Fe1  1  0.17086394  0.17193545  0.17207728  1
  Ni  Ni2  1  1.00422374  1.00363581  0.33738967  1
  Fe  Fe3  1  0.00500392  0.33897591  1.00434438  1
  Ni  Ni4  1  0.17251370  0.50619040  0.17236372  1
  Fe  Fe5  1  1.00438163  0.33663336  0.33716267  1
  Ni  Ni6  1  0.00545603  0.67095530  1.00454156  1
  Ni  Ni7  1  0.17109053  0.83715321  0.17078412  1
  Fe  Fe8  1  0.00531524  0.67238410  0.33763348  1
  Fe  Fe9  1  0.33703587  1.00296250  0.00464486  1
  Fe  Fe10  1  0.50349124  0.17149384  0.17281938  1
  Fe  Fe11  1  0.33732442  0.00485246  0.33886887  1
  Fe  Fe12  1  0.33689136  0.33979118  0.00552992  1
  Ni  Ni13  1  0.50416137  0.50427430  0.17136622  1
  Ni  Ni14  1  0.33745396  0.33947056  0.33801912  1
  Ni  Ni15  1  0.33707531  0.67067932  1.00435982  1
  Fe  Fe16  1  0.50428998  0.83725623  0.17090444  1
  Fe  Fe17  1  0.33755048  0.67319938  0.33692926  1
  Fe  Fe18  1  0.67197807  1.00384691  1.00455788  1
  Ni  Ni19  1  0.83621218  0.17029218  0.17172616  1
  Ni  Ni20  1  0.67214361  1.00378375  0.33821481  1
  Fe  Fe21  1  0.67195366  0.33865792  1.00432064  1
  Fe  Fe22  1  0.83889632  0.50475680  0.17100631  1
  Fe  Fe23  1  0.67104529  0.33661686  0.33813900  1
  Fe  Fe24  1  0.67112111  0.67115056  1.00398065  1
  Fe  Fe25  1  0.83846346  0.83673237  0.17158130  1
  Fe  Fe26  1  0.67114656  0.67153285  0.33878141  1
  Fe  Fe27  1  0.17159030  0.16964703  0.50393811  1
  Fe  Fe28  1  1.00246453  1.00399384  0.67041954  1
  Fe  Fe29  1  0.16958083  0.17138241  0.83766857  1
  Fe  Fe30  1  0.17146460  0.50462439  0.50454994  1
  Fe  Fe31  1  1.00278074  0.33820216  0.67228548  1
  Ni  Ni32  1  0.17358612  0.50518181  0.83707902  1
  Ni  Ni33  1  0.17027033  0.83637975  0.50604173  1
  Fe  Fe34  1  1.00240038  0.67177280  0.67238777  1
  Fe  Fe35  1  0.16987251  0.83796957  0.83842803  1
  Ni  Ni36  1  0.50604535  0.17276266  0.50401073  1
  Fe  Fe37  1  0.34006890  0.00467076  0.67047763  1
  Fe  Fe38  1  0.50505094  0.17132798  0.83656303  1
  Fe  Fe39  1  0.50502887  0.50601330  0.50392879  1
  Fe  Fe40  1  0.34004114  0.33813763  0.67019490  1
  Fe  Fe41  1  0.50636432  0.50473983  0.83858095  1
  Fe  Fe42  1  0.50562622  0.83926110  0.50521433  1
  Fe  Fe43  1  0.33967556  0.67138915  0.67230743  1
  Fe  Fe44  1  0.50526920  0.83776303  0.83802496  1
  Fe  Fe45  1  0.83797774  0.16967366  0.50448706  1
  Ni  Ni46  1  0.67169481  1.00429198  0.67073422  1
  Ni  Ni47  1  0.83626866  0.16990483  0.83658076  1
  Fe  Fe48  1  0.83740526  0.50560572  0.50549269  1
  Ni  Ni49  1  0.67112184  0.33791522  0.67044116  1
  Fe  Fe50  1  0.83901172  0.50489003  0.83753468  1
  Ni  Ni51  1  0.83862286  0.83823002  0.50435316  1
  Ni  Ni52  1  0.67164137  0.67191762  0.67211743  1
  Ni  Ni53  1  0.83798062  0.83942567  0.83866248  1
" 