5191,Ni68Fe32_0,-236.929132979428, 206.938985125333,Ni68Fe32,"# generated using pymatgen
 data_Fe2Ni
_symmetry_space_group_name_H-M   'P 1'
_cell_length_a   7.39717230
_cell_length_b   7.39717230
_cell_length_c   10.46118139
_cell_angle_alpha   90.00000000
_cell_angle_beta   90.00000000
_cell_angle_gamma   90.00000000
_symmetry_Int_Tables_number   1
_chemical_formula_structural   Fe2Ni
_chemical_formula_sum   'Fe36 Ni18'
_cell_volume   572.41657685
_cell_formula_units_Z   18
loop_
 _symmetry_equiv_pos_site_id
 _symmetry_equiv_pos_as_xyz
  1  'x, y, z'
loop_
 _atom_site_type_symbol
 _atom_site_label
 _atom_site_symmetry_multiplicity
 _atom_site_fract_x
 _atom_site_fract_y
 _atom_site_fract_z
 _atom_site_occupancy
  Ni  Ni0  1  1.00438102  1.00455310  0.00550874  1
  Fe  Fe1  1  0.17097078  0.17104649  0.17130926  1
  Fe  Fe2  1  1.00451087  1.00459316  0.33755757  1
  Fe  Fe3  1  1.00437952  0.33755261  0.00487856  1
  Fe  Fe4  1  0.17084524  0.50464749  0.17131257  1
  Fe  Fe5  1  1.00464407  0.33728077  0.33811141  1
  Fe  Fe6  1  1.00430327  0.67197254  0.00472413  1
  Fe  Fe7  1  0.17097242  0.83847466  0.17171446  1
  Fe  Fe8  1  0.00485655  0.67229728  0.33840494  1
  Fe  Fe9  1  0.33768818  0.00493039  1.00451100  1
  Fe  Fe10  1  0.50534821  0.17112404  0.17103823  1
  Ni  Ni11  1  0.33787788  1.00427274  0.33758868  1
  Fe  Fe12  1  0.33813052  0.33786473  1.00418675  1
  Ni  Ni13  1  0.50362356  0.50445956  0.17068888  1
  Fe  Fe14  1  0.33840757  0.33813568  0.33807675  1
  Fe  Fe15  1  0.33792295  0.67137298  1.00439363  1
  Fe  Fe16  1  0.50542522  0.83831940  0.17208087  1
  Fe  Fe17  1  0.33848069  0.67172734  0.33872883  1
  Fe  Fe18  1  0.67225293  0.00485610  0.00508628  1
  Ni  Ni19  1  0.83905454  0.17012162  0.17038983  1
  Fe  Fe20  1  0.67168477  1.00451426  0.33804189  1
  Fe  Fe21  1  0.67165491  0.33778640  1.00403420  1
  Fe  Fe22  1  0.83769845  0.50472292  0.17131573  1
  Fe  Fe23  1  0.67111603  0.33778118  0.33859076  1
  Fe  Fe24  1  0.67194152  0.67152613  0.00488414  1
  Ni  Ni25  1  0.83941387  0.83958963  0.17146965  1
  Fe  Fe26  1  0.67082874  0.67187065  0.33824776  1
  Fe  Fe27  1  0.17153173  0.17067844  0.50478020  1
  Fe  Fe28  1  0.00549436  0.00499370  0.67132271  1
  Fe  Fe29  1  0.17209337  0.17213986  0.83807815  1
  Fe  Fe30  1  0.17109473  0.50570910  0.50499005  1
  Fe  Fe31  1  0.00505284  0.33827280  0.67117924  1
  Fe  Fe32  1  0.17221876  0.50424225  0.83786273  1
  Ni  Ni33  1  0.17186608  0.83888128  0.50453995  1
  Fe  Fe34  1  0.00527606  0.67090605  0.67104219  1
  Fe  Fe35  1  0.17207691  0.83778712  0.83752036  1
  Fe  Fe36  1  0.50520986  0.17074855  0.50562900  1
  Ni  Ni37  1  0.33777055  1.00416939  0.67167452  1
  Ni  Ni38  1  0.50373443  0.17227102  0.83821657  1
  Ni  Ni39  1  0.50425751  0.50478422  0.50571758  1
  Ni  Ni40  1  0.33931866  0.33840811  0.67084860  1
  Ni  Ni41  1  0.50455112  0.50374353  0.83775596  1
  Ni  Ni42  1  0.50308098  0.83733717  0.50500273  1
  Ni  Ni43  1  0.33812529  0.67158986  0.67085551  1
  Fe  Fe44  1  0.50470632  0.83764825  0.83730636  1
  Ni  Ni45  1  0.83886744  0.17132503  0.50546500  1
  Fe  Fe46  1  0.67000085  0.00522628  0.67104558  1
  Fe  Fe47  1  0.83715012  0.17236781  0.83828637  1
  Ni  Ni48  1  0.83731964  0.50397260  0.50407810  1
  Ni  Ni49  1  0.67160856  0.33877668  0.67121606  1
  Ni  Ni50  1  0.83761664  0.50456615  0.83887953  1
  Ni  Ni51  1  0.83921997  0.83887274  0.50510849  1
  Fe  Fe52  1  0.67000907  0.67046355  0.67104168  1
  Fe  Fe53  1  0.83738178  0.83777249  0.83872919  1
" 