549,Ni68Fe27Cr4_10,-241.252320939831, 214.033230124317,Ni68Fe27Cr4,"# generated using pymatgen
 data_CrFe5Ni12
_symmetry_space_group_name_H-M   'P 1'
_cell_length_a   7.42714725
_cell_length_b   7.42714725
_cell_length_c   10.50357238
_cell_angle_alpha   90.00000000
_cell_angle_beta   90.00000000
_cell_angle_gamma   90.00000000
_symmetry_Int_Tables_number   1
_chemical_formula_structural   CrFe5Ni12
_chemical_formula_sum   'Cr3 Fe15 Ni36'
_cell_volume   579.40348255
_cell_formula_units_Z   3
loop_
 _symmetry_equiv_pos_site_id
 _symmetry_equiv_pos_as_xyz
  1  'x, y, z'
loop_
 _atom_site_type_symbol
 _atom_site_label
 _atom_site_symmetry_multiplicity
 _atom_site_fract_x
 _atom_site_fract_y
 _atom_site_fract_z
 _atom_site_occupancy
  Ni  Ni0  1  1.00176345  1.00204538  0.00274932  1
  Fe  Fe1  1  0.16961126  0.16770677  0.16958399  1
  Ni  Ni2  1  0.00275246  1.00267161  0.33551347  1
  Ni  Ni3  1  1.00203750  0.33484026  1.00168533  1
  Cr  Cr4  1  0.17051245  0.50273480  0.17024330  1
  Ni  Ni5  1  1.00229563  0.33481522  0.33665502  1
  Ni  Ni6  1  0.00291840  0.67117134  1.00125300  1
  Ni  Ni7  1  0.16987054  0.83665699  0.16971558  1
  Ni  Ni8  1  0.00422513  0.67056981  0.33732193  1
  Fe  Fe9  1  0.33474594  0.00377228  0.00389537  1
  Fe  Fe10  1  0.50288778  0.16917668  0.16913156  1
  Ni  Ni11  1  0.33554970  1.00231723  0.33572402  1
  Ni  Ni12  1  0.33748412  0.33655541  1.00144500  1
  Ni  Ni13  1  0.50243748  0.50311025  0.16835726  1
  Ni  Ni14  1  0.33663131  0.33579364  0.33681990  1
  Ni  Ni15  1  0.33588157  0.66873669  0.00306682  1
  Ni  Ni16  1  0.50168899  0.83561456  0.16897428  1
  Ni  Ni17  1  0.33505826  0.66994825  0.33677154  1
  Ni  Ni18  1  0.67097085  0.00364654  0.00341714  1
  Ni  Ni19  1  0.83614957  0.16868207  0.16961979  1
  Ni  Ni20  1  0.66975517  0.00424280  0.33629044  1
  Ni  Ni21  1  0.66853500  0.33539788  1.00235182  1
  Fe  Fe22  1  0.83540568  0.50197089  0.16861060  1
  Ni  Ni23  1  0.66913255  0.33432274  0.33609212  1
  Fe  Fe24  1  0.67002900  0.66813605  0.00305813  1
  Fe  Fe25  1  0.83687335  0.83694838  0.16859280  1
  Cr  Cr26  1  0.66887279  0.66927787  0.33509064  1
  Ni  Ni27  1  0.16800644  0.17050352  0.50162437  1
  Ni  Ni28  1  1.00162216  0.00295273  0.66979692  1
  Ni  Ni29  1  0.16812476  0.17038062  0.83681674  1
  Ni  Ni30  1  0.17101612  0.50227464  0.50243225  1
  Ni  Ni31  1  0.00305760  0.33479581  0.66971927  1
  Fe  Fe32  1  0.16977557  0.50177092  0.83602784  1
  Fe  Fe33  1  0.16890777  0.83587533  0.50163859  1
  Fe  Fe34  1  1.00186378  0.66926655  0.66911920  1
  Fe  Fe35  1  0.16775497  0.83663747  0.83689117  1
  Fe  Fe36  1  0.50293969  0.16997364  0.50285652  1
  Fe  Fe37  1  0.33549276  0.00453074  0.66850752  1
  Ni  Ni38  1  0.50284370  0.17177856  0.83600625  1
  Ni  Ni39  1  0.50033327  0.50278386  0.50317875  1
  Ni  Ni40  1  0.33616847  0.33728735  0.66979460  1
  Ni  Ni41  1  0.50168572  0.50152448  0.83651993  1
  Fe  Fe42  1  0.50201620  0.83669690  0.50309576  1
  Ni  Ni43  1  0.33614866  0.66778613  0.66822150  1
  Cr  Cr44  1  0.50390437  0.83503565  0.83583480  1
  Ni  Ni45  1  0.83678845  0.16787350  0.50292684  1
  Ni  Ni46  1  0.67135248  0.00297464  0.66835165  1
  Ni  Ni47  1  0.83708765  0.16848751  0.83551205  1
  Fe  Fe48  1  0.83728849  0.50113270  0.50329302  1
  Ni  Ni49  1  0.66883125  0.33586503  0.66961440  1
  Fe  Fe50  1  0.83544619  0.50154159  0.83615180  1
  Ni  Ni51  1  0.83627983  0.83821145  0.50287750  1
  Ni  Ni52  1  0.66886507  0.66921792  0.66939073  1
  Ni  Ni53  1  0.83737292  0.83702863  0.83682009  1
" 