5904,Ni68Fe32_19,-237.300286417158, 208.474156604618,Ni68Fe32,"# generated using pymatgen
 data_Fe2Ni
_symmetry_space_group_name_H-M   'P 1'
_cell_length_a   7.40024252
_cell_length_b   7.40024252
_cell_length_c   10.46552333
_cell_angle_alpha   90.00000000
_cell_angle_beta   90.00000000
_cell_angle_gamma   90.00000000
_symmetry_Int_Tables_number   1
_chemical_formula_structural   Fe2Ni
_chemical_formula_sum   'Fe36 Ni18'
_cell_volume   573.12962155
_cell_formula_units_Z   18
loop_
 _symmetry_equiv_pos_site_id
 _symmetry_equiv_pos_as_xyz
  1  'x, y, z'
loop_
 _atom_site_type_symbol
 _atom_site_label
 _atom_site_symmetry_multiplicity
 _atom_site_fract_x
 _atom_site_fract_y
 _atom_site_fract_z
 _atom_site_occupancy
  Fe  Fe0  1  1.00407972  1.00443777  1.00443673  1
  Ni  Ni1  1  0.17117279  0.16932885  0.17099722  1
  Fe  Fe2  1  1.00437384  0.00457637  0.33727302  1
  Fe  Fe3  1  1.00372820  0.33713724  0.00480870  1
  Fe  Fe4  1  0.17110487  0.50345681  0.17069055  1
  Fe  Fe5  1  1.00373195  0.33714043  0.33711443  1
  Fe  Fe6  1  1.00424527  0.67196511  1.00422091  1
  Ni  Ni7  1  0.17081148  0.83838723  0.17120352  1
  Fe  Fe8  1  1.00394904  0.67182283  0.33748792  1
  Fe  Fe9  1  0.33776954  1.00443486  0.00461358  1
  Ni  Ni10  1  0.50506819  0.17207520  0.17151103  1
  Fe  Fe11  1  0.33805469  0.00487407  0.33789971  1
  Fe  Fe12  1  0.33841578  0.33743395  0.00461493  1
  Ni  Ni13  1  0.50553211  0.50390337  0.17151107  1
  Fe  Fe14  1  0.33899002  0.33714051  0.33811482  1
  Fe  Fe15  1  0.33790148  0.67167132  1.00402792  1
  Fe  Fe16  1  0.50499825  0.83877310  0.17118066  1
  Fe  Fe17  1  0.33847714  0.67152612  0.33811640  1
  Ni  Ni18  1  0.67181784  0.00470456  0.00467997  1
  Ni  Ni19  1  0.83730048  0.17135460  0.17192396  1
  Ni  Ni20  1  0.67142842  0.00489216  0.33759809  1
  Fe  Fe21  1  0.67139750  0.33726769  0.00475416  1
  Ni  Ni22  1  0.83647341  0.50426238  0.17099707  1
  Fe  Fe23  1  0.67081921  0.33756552  0.33797707  1
  Fe  Fe24  1  0.67139646  0.67131999  0.00480706  1
  Fe  Fe25  1  0.83728324  0.83869547  0.17084564  1
  Fe  Fe26  1  0.67111364  0.67088411  0.33770707  1
  Fe  Fe27  1  0.17254048  0.17174730  0.50438363  1
  Fe  Fe28  1  0.00529610  0.00471014  0.67182850  1
  Fe  Fe29  1  0.17053782  0.17077076  0.83782337  1
  Fe  Fe30  1  0.17246203  0.50402456  0.50551429  1
  Fe  Fe31  1  0.00549198  0.33784660  0.67161675  1
  Ni  Ni32  1  0.17222966  0.50594934  0.83747451  1
  Fe  Fe33  1  0.17259172  0.83776913  0.50487103  1
  Fe  Fe34  1  0.00572716  0.67098487  0.67182894  1
  Ni  Ni35  1  0.17067144  0.83683696  0.83674875  1
  Ni  Ni36  1  0.50477754  0.17227190  0.50482203  1
  Ni  Ni37  1  0.33756391  1.00404139  0.67136387  1
  Fe  Fe38  1  0.50453303  0.17054105  0.83733217  1
  Ni  Ni39  1  0.50441719  0.50360265  0.50518368  1
  Ni  Ni40  1  0.33803930  0.33838993  0.67126472  1
  Fe  Fe41  1  0.50427616  0.50493715  0.83711414  1
  Fe  Fe42  1  0.50437133  0.83806474  0.50465662  1
  Ni  Ni43  1  0.33684047  0.67110999  0.67126371  1
  Fe  Fe44  1  0.50437109  0.83806297  0.83770453  1
  Fe  Fe45  1  0.83649007  0.17166932  0.50451712  1
  Fe  Fe46  1  0.67005922  0.00524367  0.67139620  1
  Ni  Ni47  1  0.83689617  0.17028791  0.83710909  1
  Fe  Fe48  1  0.83678453  0.50388376  0.50408961  1
  Ni  Ni49  1  0.67139387  0.33766298  0.67126332  1
  Fe  Fe50  1  0.83878545  0.50485976  0.83811721  1
  Fe  Fe51  1  0.83657581  0.83798766  0.50463519  1
  Fe  Fe52  1  0.66976547  0.67059075  0.67102788  1
  Ni  Ni53  1  0.83881677  0.83886148  0.83767623  1
" 