5934,Ni68Fe32_2,-236.891149213764, 203.686654187561,Ni68Fe32,"# generated using pymatgen
 data_Fe2Ni
_symmetry_space_group_name_H-M   'P 1'
_cell_length_a   7.39819566
_cell_length_b   7.39819566
_cell_length_c   10.46262864
_cell_angle_alpha   90.00000000
_cell_angle_beta   90.00000000
_cell_angle_gamma   90.00000000
_symmetry_Int_Tables_number   1
_chemical_formula_structural   Fe2Ni
_chemical_formula_sum   'Fe36 Ni18'
_cell_volume   572.65418278
_cell_formula_units_Z   18
loop_
 _symmetry_equiv_pos_site_id
 _symmetry_equiv_pos_as_xyz
  1  'x, y, z'
loop_
 _atom_site_type_symbol
 _atom_site_label
 _atom_site_symmetry_multiplicity
 _atom_site_fract_x
 _atom_site_fract_y
 _atom_site_fract_z
 _atom_site_occupancy
  Fe  Fe0  1  1.00301753  1.00393813  1.00405328  1
  Fe  Fe1  1  0.17251988  0.17229910  0.16988109  1
  Fe  Fe2  1  1.00352259  0.00541175  0.33814781  1
  Fe  Fe3  1  1.00264121  0.33766110  1.00445589  1
  Fe  Fe4  1  0.17196497  0.50427197  0.17123195  1
  Fe  Fe5  1  1.00340771  0.33672818  0.33795918  1
  Fe  Fe6  1  1.00368848  0.67243297  1.00465303  1
  Fe  Fe7  1  0.17214323  0.83737644  0.17202255  1
  Fe  Fe8  1  1.00323891  0.67175207  0.33871316  1
  Fe  Fe9  1  0.33912713  1.00376853  1.00369189  1
  Fe  Fe10  1  0.50540121  0.17071063  0.17236075  1
  Fe  Fe11  1  0.33873831  0.00533741  0.33945690  1
  Fe  Fe12  1  0.34032919  0.33825256  1.00358962  1
  Ni  Ni13  1  0.50523897  0.50456804  0.17183118  1
  Fe  Fe14  1  0.33975554  0.33757024  0.33844357  1
  Fe  Fe15  1  0.34029826  0.67178731  0.00534536  1
  Fe  Fe16  1  0.50597791  0.83836750  0.17204893  1
  Fe  Fe17  1  0.33935444  0.67131160  0.33802940  1
  Ni  Ni18  1  0.67112143  1.00384811  1.00358037  1
  Fe  Fe19  1  0.83604071  0.17090263  0.17161095  1
  Ni  Ni20  1  0.67152064  1.00435760  0.33955864  1
  Fe  Fe21  1  0.67108822  0.33820581  0.00565730  1
  Fe  Fe22  1  0.83756761  0.50498367  0.17243125  1
  Ni  Ni23  1  0.67153708  0.33737205  0.33826382  1
  Ni  Ni24  1  0.67213909  0.67181718  0.00520765  1
  Fe  Fe25  1  0.83622436  0.83805082  0.17059904  1
  Fe  Fe26  1  0.67077308  0.67076096  0.33865970  1
  Fe  Fe27  1  0.17227161  0.17170909  0.50568777  1
  Fe  Fe28  1  0.00512297  1.00455748  0.67232772  1
  Ni  Ni29  1  0.17019999  0.17028628  0.83867759  1
  Fe  Fe30  1  0.17195638  0.50427544  0.50426576  1
  Fe  Fe31  1  1.00381067  0.33734285  0.67172706  1
  Fe  Fe32  1  0.17020319  0.50392632  0.83819894  1
  Ni  Ni33  1  0.17098906  0.83833465  0.50417415  1
  Fe  Fe34  1  0.00667878  0.67187157  0.67064926  1
  Ni  Ni35  1  0.17198337  0.83768225  0.83930233  1
  Ni  Ni36  1  0.50563089  0.17196507  0.50447887  1
  Ni  Ni37  1  0.33631834  0.00564364  0.67119558  1
  Fe  Fe38  1  0.50394998  0.17001039  0.83669332  1
  Ni  Ni39  1  0.50530358  0.50458194  0.50425358  1
  Ni  Ni40  1  0.33619418  0.33740752  0.67093768  1
  Fe  Fe41  1  0.50547027  0.50525105  0.83736002  1
  Ni  Ni42  1  0.50241819  0.83752446  0.50468056  1
  Fe  Fe43  1  0.33898677  0.67185708  0.67086021  1
  Fe  Fe44  1  0.50625135  0.83881854  0.83671721  1
  Ni  Ni45  1  0.83825066  0.17193922  0.50497829  1
  Fe  Fe46  1  0.67015756  0.00539756  0.67078858  1
  Ni  Ni47  1  0.83717892  0.17177731  0.83834582  1
  Ni  Ni48  1  0.83738518  0.50317861  0.50423435  1
  Fe  Fe49  1  0.66968982  0.33809304  0.66992537  1
  Fe  Fe50  1  0.83859003  0.50588087  0.83690569  1
  Fe  Fe51  1  0.83590522  0.83796908  0.50545489  1
  Ni  Ni52  1  0.67300896  0.67147880  0.66984243  1
  Ni  Ni53  1  0.83899421  0.83867336  0.83713056  1
" 