1000,Ni68Fe32_9,-236.972447102083, 204.627988695613,Ni68Fe32,"# generated using pymatgen
 data_Fe2Ni
_symmetry_space_group_name_H-M   'P 1'
_cell_length_a   7.39662480
_cell_length_b   7.39662480
_cell_length_c   10.46040711
_cell_angle_alpha   90.00000000
_cell_angle_beta   90.00000000
_cell_angle_gamma   90.00000000
_symmetry_Int_Tables_number   1
_chemical_formula_structural   Fe2Ni
_chemical_formula_sum   'Fe36 Ni18'
_cell_volume   572.28948440
_cell_formula_units_Z   18
loop_
 _symmetry_equiv_pos_site_id
 _symmetry_equiv_pos_as_xyz
  1  'x, y, z'
loop_
 _atom_site_type_symbol
 _atom_site_label
 _atom_site_symmetry_multiplicity
 _atom_site_fract_x
 _atom_site_fract_y
 _atom_site_fract_z
 _atom_site_occupancy
  Ni  Ni0  1  0.00532627  0.00493564  1.00467563  1
  Fe  Fe1  1  0.16971628  0.17163670  0.17162630  1
  Ni  Ni2  1  1.00438524  0.00598133  0.33903171  1
  Fe  Fe3  1  1.00463251  0.33787532  0.00580890  1
  Ni  Ni4  1  0.17163359  0.50465859  0.17142015  1
  Ni  Ni5  1  1.00362855  0.33686777  0.33769793  1
  Fe  Fe6  1  1.00453730  0.67123336  0.00523368  1
  Fe  Fe7  1  0.17000966  0.83809794  0.17192490  1
  Fe  Fe8  1  0.00497601  0.67113222  0.33796491  1
  Ni  Ni9  1  0.33657487  0.00502189  0.00526336  1
  Fe  Fe10  1  0.50554469  0.17213438  0.17070629  1
  Fe  Fe11  1  0.33691229  0.00482930  0.33884060  1
  Ni  Ni12  1  0.33902139  0.33792061  1.00467564  1
  Fe  Fe13  1  0.50574964  0.50484233  0.17042678  1
  Fe  Fe14  1  0.33674779  0.33802229  0.33759985  1
  Fe  Fe15  1  0.33852144  0.67092385  1.00467951  1
  Fe  Fe16  1  0.50554543  0.83730592  0.17137411  1
  Ni  Ni17  1  0.33886377  0.67143584  0.33797384  1
  Fe  Fe18  1  0.67135532  0.00525384  0.00518592  1
  Ni  Ni19  1  0.83780343  0.17104861  0.17131069  1
  Fe  Fe20  1  0.67218968  0.00476076  0.33775149  1
  Ni  Ni21  1  0.67153077  0.33998276  0.00515365  1
  Ni  Ni22  1  0.83829243  0.50466400  0.17020446  1
  Fe  Fe23  1  0.67248579  0.33822983  0.33763121  1
  Ni  Ni24  1  0.67161555  0.66974401  0.00477632  1
  Ni  Ni25  1  0.83781465  0.83856881  0.17153900  1
  Fe  Fe26  1  0.67263181  0.67129163  0.33746894  1
  Ni  Ni27  1  0.17218703  0.16994394  0.50474382  1
  Fe  Fe28  1  0.00610425  1.00418656  0.67108517  1
  Fe  Fe29  1  0.17234566  0.17141265  0.83794209  1
  Fe  Fe30  1  0.17121224  0.50497515  0.50405189  1
  Fe  Fe31  1  0.00566858  0.33817404  0.67034079  1
  Fe  Fe32  1  0.17235848  0.50475958  0.83850852  1
  Ni  Ni33  1  0.17217328  0.83947452  0.50473481  1
  Fe  Fe34  1  0.00560187  0.67192152  0.67107954  1
  Fe  Fe35  1  0.17234586  0.83810915  0.83735706  1
  Fe  Fe36  1  0.50420663  0.17113688  0.50513604  1
  Ni  Ni37  1  0.33752797  1.00374000  0.67058753  1
  Fe  Fe38  1  0.50433297  0.17193101  0.83844046  1
  Fe  Fe39  1  0.50385094  0.50526676  0.50541896  1
  Fe  Fe40  1  0.33817246  0.33801054  0.67208329  1
  Ni  Ni41  1  0.50466537  0.50475597  0.83837719  1
  Fe  Fe42  1  0.50361851  0.83787647  0.50505330  1
  Ni  Ni43  1  0.33864971  0.67207305  0.67200850  1
  Fe  Fe44  1  0.50433298  0.83758925  0.83785578  1
  Fe  Fe45  1  0.83943808  0.17144480  0.50392867  1
  Fe  Fe46  1  0.67042749  1.00426760  0.67134517  1
  Fe  Fe47  1  0.83760198  0.17192335  0.83885199  1
  Ni  Ni48  1  0.83733526  0.50486714  0.50483965  1
  Fe  Fe49  1  0.67043948  0.33851828  0.67192071  1
  Fe  Fe50  1  0.83708321  0.50475816  0.83819033  1
  Fe  Fe51  1  0.83914684  0.83845298  0.50421804  1
  Fe  Fe52  1  0.67059085  0.67149581  0.67200300  1
  Fe  Fe53  1  0.83760122  0.83760063  0.83901726  1
" 