6324,Ni68Fe27Cr4_19,-240.537566404428, 212.611714664505,Ni68Fe27Cr4,"# generated using pymatgen
 data_CrFe5Ni12
_symmetry_space_group_name_H-M   'P 1'
_cell_length_a   7.41860349
_cell_length_b   7.41860349
_cell_length_c   10.49148968
_cell_angle_alpha   90.00000000
_cell_angle_beta   90.00000000
_cell_angle_gamma   90.00000000
_symmetry_Int_Tables_number   1
_chemical_formula_structural   CrFe5Ni12
_chemical_formula_sum   'Cr3 Fe15 Ni36'
_cell_volume   577.40624541
_cell_formula_units_Z   3
loop_
 _symmetry_equiv_pos_site_id
 _symmetry_equiv_pos_as_xyz
  1  'x, y, z'
loop_
 _atom_site_type_symbol
 _atom_site_label
 _atom_site_symmetry_multiplicity
 _atom_site_fract_x
 _atom_site_fract_y
 _atom_site_fract_z
 _atom_site_occupancy
  Fe  Fe0  1  1.00289535  1.00241193  1.00234490  1
  Cr  Cr1  1  0.17018630  0.17075109  0.17050747  1
  Fe  Fe2  1  1.00233885  1.00204645  0.33753632  1
  Ni  Ni3  1  1.00290536  0.33638045  0.00340977  1
  Fe  Fe4  1  0.17063690  0.50455080  0.16993332  1
  Ni  Ni5  1  1.00222230  0.33767844  0.33762077  1
  Fe  Fe6  1  1.00315973  0.66926256  0.00429546  1
  Ni  Ni7  1  0.16981496  0.83489480  0.16931839  1
  Ni  Ni8  1  0.00518905  0.66981004  0.33593021  1
  Fe  Fe9  1  0.33822925  1.00229463  1.00237227  1
  Ni  Ni10  1  0.50394269  0.17018996  0.16898803  1
  Fe  Fe11  1  0.33638230  1.00209477  0.33667313  1
  Ni  Ni12  1  0.33515900  0.33862898  1.00165343  1
  Ni  Ni13  1  0.50280853  0.50373269  0.16934885  1
  Ni  Ni14  1  0.33620809  0.34039595  0.33755606  1
  Ni  Ni15  1  0.33648915  0.67002296  0.00377010  1
  Ni  Ni16  1  0.50349473  0.83596195  0.17101171  1
  Ni  Ni17  1  0.33568273  0.67004590  0.33604193  1
  Ni  Ni18  1  0.67078975  1.00286781  1.00274761  1
  Ni  Ni19  1  0.83615519  0.16924020  0.16957969  1
  Ni  Ni20  1  0.67160356  1.00211307  0.33613864  1
  Fe  Fe21  1  0.66924579  0.33722559  0.00330406  1
  Fe  Fe22  1  0.83633091  0.50358684  0.16977565  1
  Ni  Ni23  1  0.67114004  0.33517597  0.33432210  1
  Ni  Ni24  1  0.66857646  0.67260207  0.00397399  1
  Ni  Ni25  1  0.83662663  0.83615790  0.16935521  1
  Fe  Fe26  1  0.67026923  0.66845244  0.33660206  1
  Ni  Ni27  1  0.16805233  0.17105328  0.50399502  1
  Ni  Ni28  1  1.00325176  0.00504024  0.66966690  1
  Ni  Ni29  1  0.16948513  0.17115186  0.83586139  1
  Ni  Ni30  1  0.16958272  0.50264536  0.50333528  1
  Ni  Ni31  1  0.00450636  0.33618902  0.66903668  1
  Ni  Ni32  1  0.16812293  0.50352838  0.83663871  1
  Fe  Fe33  1  0.16987294  0.83599091  0.50282186  1
  Fe  Fe34  1  1.00269612  0.67006590  0.66905143  1
  Fe  Fe35  1  0.17014976  0.83672495  0.83697639  1
  Cr  Cr36  1  0.50209991  0.16860274  0.50297756  1
  Ni  Ni37  1  0.33535610  1.00003182  0.67068186  1
  Ni  Ni38  1  0.50193355  0.16680344  0.83817404  1
  Ni  Ni39  1  0.50225164  0.50654820  0.50370977  1
  Fe  Fe40  1  0.33519449  0.33651134  0.67085261  1
  Fe  Fe41  1  0.50271239  0.50415590  0.83767872  1
  Ni  Ni42  1  0.50408957  0.83447432  0.50208647  1
  Ni  Ni43  1  0.33621991  0.67050647  0.67021799  1
  Ni  Ni44  1  0.50378357  0.83592771  0.83661511  1
  Ni  Ni45  1  0.83951623  0.16881356  0.50225315  1
  Ni  Ni46  1  0.67090400  1.00093874  0.67099733  1
  Ni  Ni47  1  0.83824185  0.17001273  0.83769176  1
  Ni  Ni48  1  0.83776130  0.50497544  0.50169553  1
  Cr  Cr49  1  0.67325516  0.33674708  0.67165029  1
  Ni  Ni50  1  0.83881081  0.50559008  0.83779364  1
  Ni  Ni51  1  0.83561719  0.83585508  0.50412767  1
  Ni  Ni52  1  0.66821278  0.67192465  0.66930669  1
  Fe  Fe53  1  0.83614899  0.83692689  0.83630731  1
" 