6333,Ni68Fe27Cr4_14,-240.427168931709, 211.636573598257,Ni68Fe27Cr4,"# generated using pymatgen
 data_CrFe5Ni12
_symmetry_space_group_name_H-M   'P 1'
_cell_length_a   7.41904005
_cell_length_b   7.41904005
_cell_length_c   10.49210706
_cell_angle_alpha   90.00000000
_cell_angle_beta   90.00000000
_cell_angle_gamma   90.00000000
_symmetry_Int_Tables_number   1
_chemical_formula_structural   CrFe5Ni12
_chemical_formula_sum   'Cr3 Fe15 Ni36'
_cell_volume   577.50818552
_cell_formula_units_Z   3
loop_
 _symmetry_equiv_pos_site_id
 _symmetry_equiv_pos_as_xyz
  1  'x, y, z'
loop_
 _atom_site_type_symbol
 _atom_site_label
 _atom_site_symmetry_multiplicity
 _atom_site_fract_x
 _atom_site_fract_y
 _atom_site_fract_z
 _atom_site_occupancy
  Ni  Ni0  1  1.00213610  0.00421558  1.00297530  1
  Ni  Ni1  1  0.17009679  0.16800236  0.16928838  1
  Ni  Ni2  1  1.00279006  1.00261273  0.33630428  1
  Ni  Ni3  1  1.00028800  0.33494814  0.00329199  1
  Cr  Cr4  1  0.16685063  0.50367855  0.16921019  1
  Ni  Ni5  1  1.00028380  0.33637198  0.33757832  1
  Fe  Fe6  1  1.00218889  0.67259952  0.00337337  1
  Ni  Ni7  1  0.17087599  0.83871988  0.16942946  1
  Ni  Ni8  1  1.00308083  0.67088187  0.33759903  1
  Ni  Ni9  1  0.33712839  1.00191521  1.00291304  1
  Ni  Ni10  1  0.50450895  0.16732738  0.16918888  1
  Ni  Ni11  1  0.33717426  1.00069559  0.33663163  1
  Ni  Ni12  1  0.33709615  0.33622046  1.00226639  1
  Fe  Fe13  1  0.50292891  0.50366118  0.16932384  1
  Cr  Cr14  1  0.33732354  0.33571211  0.33937330  1
  Ni  Ni15  1  0.33920684  0.67132065  0.00362665  1
  Ni  Ni16  1  0.50430790  0.83870647  0.17000533  1
  Ni  Ni17  1  0.33700495  0.67219171  0.33685759  1
  Ni  Ni18  1  0.67085294  1.00268408  1.00218485  1
  Fe  Fe19  1  0.83709729  0.16833690  0.17086415  1
  Ni  Ni20  1  0.67018587  0.00360869  0.33725258  1
  Fe  Fe21  1  0.66920205  0.33517743  0.00340620  1
  Ni  Ni22  1  0.83481489  0.50269623  0.16964703  1
  Ni  Ni23  1  0.67136619  0.33636968  0.33521328  1
  Fe  Fe24  1  0.67045184  0.67070382  1.00264838  1
  Fe  Fe25  1  0.83720004  0.83752425  0.16969275  1
  Fe  Fe26  1  0.67033442  0.67064596  0.33602898  1
  Ni  Ni27  1  0.16795607  0.16816149  0.50392866  1
  Ni  Ni28  1  1.00280767  0.00392328  0.67027877  1
  Fe  Fe29  1  0.16919203  0.16834854  0.83676670  1
  Ni  Ni30  1  0.16847898  0.50448353  0.50447972  1
  Ni  Ni31  1  1.00069271  0.33641713  0.66811461  1
  Cr  Cr32  1  0.16906383  0.50336887  0.83625657  1
  Ni  Ni33  1  0.17044762  0.83661121  0.50289980  1
  Fe  Fe34  1  1.00222718  0.67251761  0.66926154  1
  Ni  Ni35  1  0.16980155  0.83791251  0.83757588  1
  Ni  Ni36  1  0.50587340  0.16821152  0.50458227  1
  Ni  Ni37  1  0.33662335  0.99967626  0.67031828  1
  Fe  Fe38  1  0.50374301  0.16879362  0.83635232  1
  Ni  Ni39  1  0.50508009  0.50441969  0.50340325  1
  Fe  Fe40  1  0.33772669  0.33423765  0.66851447  1
  Ni  Ni41  1  0.50513087  0.50310850  0.83771139  1
  Ni  Ni42  1  0.50384079  0.83698898  0.50323612  1
  Ni  Ni43  1  0.33783590  0.66989526  0.66935741  1
  Ni  Ni44  1  0.50372849  0.83723081  0.83640299  1
  Ni  Ni45  1  0.83574701  0.17042178  0.50239292  1
  Ni  Ni46  1  0.67037820  0.00378020  0.67015854  1
  Fe  Fe47  1  0.83646101  0.16924402  0.83519121  1
  Fe  Fe48  1  0.83583243  0.50273827  0.50276718  1
  Ni  Ni49  1  0.67086034  0.33740026  0.67073097  1
  Ni  Ni50  1  0.83578977  0.50268312  0.83639716  1
  Fe  Fe51  1  0.83670768  0.83859211  0.50381560  1
  Fe  Fe52  1  0.66968683  0.67092819  0.67114591  1
  Ni  Ni53  1  0.83622316  0.83709036  0.83649778  1
" 