3639,Ni68Fe27Cr4_13,-240.226877128536, 211.390769709428,Ni68Fe27Cr4,"# generated using pymatgen
 data_CrFe5Ni12
_symmetry_space_group_name_H-M   'P 1'
_cell_length_a   7.42037232
_cell_length_b   7.42037232
_cell_length_c   10.49399118
_cell_angle_alpha   90.00000000
_cell_angle_beta   90.00000000
_cell_angle_gamma   90.00000000
_symmetry_Int_Tables_number   1
_chemical_formula_structural   CrFe5Ni12
_chemical_formula_sum   'Cr3 Fe15 Ni36'
_cell_volume   577.81935988
_cell_formula_units_Z   3
loop_
 _symmetry_equiv_pos_site_id
 _symmetry_equiv_pos_as_xyz
  1  'x, y, z'
loop_
 _atom_site_type_symbol
 _atom_site_label
 _atom_site_symmetry_multiplicity
 _atom_site_fract_x
 _atom_site_fract_y
 _atom_site_fract_z
 _atom_site_occupancy
  Ni  Ni0  1  0.00480630  0.00523999  1.00287542  1
  Fe  Fe1  1  0.16996030  0.16952473  0.16895229  1
  Ni  Ni2  1  1.00280117  0.00368827  0.33601692  1
  Ni  Ni3  1  0.00454128  0.33515794  1.00314141  1
  Ni  Ni4  1  0.17141264  0.50276508  0.17000542  1
  Ni  Ni5  1  1.00185947  0.33687373  0.33550524  1
  Cr  Cr6  1  0.00387545  0.66907529  1.00274358  1
  Fe  Fe7  1  0.17131818  0.83749413  0.17021806  1
  Ni  Ni8  1  0.00342848  0.66887361  0.33739965  1
  Ni  Ni9  1  0.33517540  1.00273836  1.00272090  1
  Ni  Ni10  1  0.50242102  0.16956214  0.17168406  1
  Ni  Ni11  1  0.33723489  1.00230673  0.33621214  1
  Ni  Ni12  1  0.33485519  0.33707465  1.00290353  1
  Ni  Ni13  1  0.50080330  0.50435696  0.16985548  1
  Fe  Fe14  1  0.33700322  0.33704869  0.33607228  1
  Ni  Ni15  1  0.33762587  0.66962234  1.00299520  1
  Ni  Ni16  1  0.50317898  0.83551786  0.17065797  1
  Ni  Ni17  1  0.33672856  0.67012994  0.33621233  1
  Cr  Cr18  1  0.66969274  1.00265717  1.00308266  1
  Ni  Ni19  1  0.83775244  0.16824310  0.17116593  1
  Ni  Ni20  1  0.66940403  0.00387255  0.33666491  1
  Cr  Cr21  1  0.67055138  0.33733002  1.00292900  1
  Fe  Fe22  1  0.83565994  0.50292248  0.17131641  1
  Ni  Ni23  1  0.67065828  0.33637183  0.33689013  1
  Fe  Fe24  1  0.66800584  0.66981475  0.00352857  1
  Ni  Ni25  1  0.83616065  0.83766906  0.17076701  1
  Ni  Ni26  1  0.66927761  0.66918744  0.33527695  1
  Fe  Fe27  1  0.16929699  0.16981796  0.50365684  1
  Ni  Ni28  1  1.00281332  0.00461178  0.67054327  1
  Ni  Ni29  1  0.16971671  0.16959362  0.83725578  1
  Ni  Ni30  1  0.17077831  0.50417714  0.50357847  1
  Ni  Ni31  1  1.00254952  0.33624497  0.67078880  1
  Ni  Ni32  1  0.17036896  0.50312230  0.83585324  1
  Fe  Fe33  1  0.17015917  0.83676879  0.50343376  1
  Fe  Fe34  1  0.00337826  0.67055776  0.66981706  1
  Ni  Ni35  1  0.17058485  0.83672120  0.83604959  1
  Ni  Ni36  1  0.50415648  0.16995249  0.50277673  1
  Ni  Ni37  1  0.33691196  1.00245296  0.67050325  1
  Ni  Ni38  1  0.50195240  0.16927188  0.83497274  1
  Ni  Ni39  1  0.50146128  0.50288841  0.50320025  1
  Fe  Fe40  1  0.33661693  0.33608527  0.67022307  1
  Fe  Fe41  1  0.50172838  0.50360837  0.83581141  1
  Fe  Fe42  1  0.50354120  0.83635556  0.50287044  1
  Ni  Ni43  1  0.33717952  0.66990386  0.67022636  1
  Fe  Fe44  1  0.50150359  0.83606752  0.83575591  1
  Ni  Ni45  1  0.83558565  0.16789368  0.50328684  1
  Ni  Ni46  1  0.66971114  0.00327663  0.66974761  1
  Ni  Ni47  1  0.83776394  0.16949073  0.83498302  1
  Fe  Fe48  1  0.83596446  0.50263002  0.50326855  1
  Fe  Fe49  1  0.66968604  0.33548940  0.66961489  1
  Ni  Ni50  1  0.83718765  0.50314954  0.83498572  1
  Ni  Ni51  1  0.83687192  0.83767816  0.50348688  1
  Ni  Ni52  1  0.66887600  0.66964311  0.67078355  1
  Fe  Fe53  1  0.83729689  0.83726224  0.83456665  1
" 