699,Ni68Fe32_4,-237.506913555423, 211.002511431555,Ni68Fe32,"# generated using pymatgen
 data_Fe2Ni
_symmetry_space_group_name_H-M   'P 1'
_cell_length_a   7.39837133
_cell_length_b   7.39837133
_cell_length_c   10.46287707
_cell_angle_alpha   90.00000000
_cell_angle_beta   90.00000000
_cell_angle_gamma   90.00000000
_symmetry_Int_Tables_number   1
_chemical_formula_structural   Fe2Ni
_chemical_formula_sum   'Fe36 Ni18'
_cell_volume   572.69497486
_cell_formula_units_Z   18
loop_
 _symmetry_equiv_pos_site_id
 _symmetry_equiv_pos_as_xyz
  1  'x, y, z'
loop_
 _atom_site_type_symbol
 _atom_site_label
 _atom_site_symmetry_multiplicity
 _atom_site_fract_x
 _atom_site_fract_y
 _atom_site_fract_z
 _atom_site_occupancy
  Fe  Fe0  1  1.00441277  1.00388997  0.00469930  1
  Fe  Fe1  1  0.17146137  0.17070986  0.17143869  1
  Fe  Fe2  1  0.00482488  1.00347184  0.33776703  1
  Fe  Fe3  1  0.00471688  0.33797664  1.00409845  1
  Ni  Ni4  1  0.17175459  0.50637834  0.17128951  1
  Fe  Fe5  1  0.00539530  0.33812864  0.33872529  1
  Fe  Fe6  1  0.00486551  0.67205611  0.00540953  1
  Ni  Ni7  1  0.17060115  0.83595977  0.17183684  1
  Ni  Ni8  1  0.00594527  0.67030495  0.33752658  1
  Fe  Fe9  1  0.33860053  1.00451106  0.00509499  1
  Ni  Ni10  1  0.50544616  0.17123048  0.17158433  1
  Ni  Ni11  1  0.33903064  1.00429925  0.33657631  1
  Fe  Fe12  1  0.33872731  0.33778500  0.00484998  1
  Fe  Fe13  1  0.50381182  0.50558020  0.17116009  1
  Fe  Fe14  1  0.33783930  0.33818857  0.33768991  1
  Ni  Ni15  1  0.33717416  0.67129847  0.00472038  1
  Fe  Fe16  1  0.50396984  0.83813077  0.17151275  1
  Ni  Ni17  1  0.33638436  0.67180881  0.33807334  1
  Ni  Ni18  1  0.67114527  0.00570000  1.00417992  1
  Fe  Fe19  1  0.83808367  0.17055496  0.17123393  1
  Ni  Ni20  1  0.67044474  0.00579570  0.33816867  1
  Fe  Fe21  1  0.67048104  0.33733354  1.00389237  1
  Fe  Fe22  1  0.83867199  0.50525890  0.17144132  1
  Fe  Fe23  1  0.67069065  0.33747136  0.33844213  1
  Fe  Fe24  1  0.67110088  0.67193442  1.00423022  1
  Ni  Ni25  1  0.83857518  0.83816734  0.17149119  1
  Fe  Fe26  1  0.67104779  0.67247771  0.33831152  1
  Fe  Fe27  1  0.17089222  0.17172469  0.50479183  1
  Fe  Fe28  1  1.00328780  0.00505310  0.67145908  1
  Fe  Fe29  1  0.17109989  0.17144066  0.83769055  1
  Ni  Ni30  1  0.17166337  0.50587806  0.50510932  1
  Ni  Ni31  1  1.00403946  0.33838055  0.67147721  1
  Fe  Fe32  1  0.17109964  0.50383455  0.83784373  1
  Fe  Fe33  1  0.17098541  0.83769175  0.50383498  1
  Ni  Ni34  1  0.00474474  0.67019444  0.67192850  1
  Fe  Fe35  1  0.17145686  0.83864781  0.83844162  1
  Fe  Fe36  1  0.50471438  0.17149654  0.50428737  1
  Fe  Fe37  1  0.33810674  0.00484684  0.67111885  1
  Ni  Ni38  1  0.50612253  0.17140577  0.83682554  1
  Fe  Fe39  1  0.50497878  0.50445305  0.50499798  1
  Fe  Fe40  1  0.33797522  0.33898715  0.67138266  1
  Fe  Fe41  1  0.50538988  0.50403935  0.83776752  1
  Fe  Fe42  1  0.50456549  0.83797711  0.50430194  1
  Fe  Fe43  1  0.33776639  0.67009143  0.67117895  1
  Fe  Fe44  1  0.50523994  0.83865315  0.83810613  1
  Ni  Ni45  1  0.83682755  0.17077145  0.50471284  1
  Fe  Fe46  1  0.67252726  0.00525931  0.67158698  1
  Ni  Ni47  1  0.83632976  0.17105572  0.83807360  1
  Fe  Fe48  1  0.83860267  0.50435708  0.50548809  1
  Ni  Ni49  1  0.67216825  0.33734299  0.67182304  1
  Fe  Fe50  1  0.83743454  0.50368052  0.83699832  1
  Fe  Fe51  1  0.83837241  0.83742593  0.50416948  1
  Ni  Ni52  1  0.67181001  0.67088953  0.67147737  1
  Fe  Fe53  1  0.83722654  0.83864957  0.83831274  1
" 