4215,Ni68Fe27Cr4_7,-240.602670587885, 212.367701540194,Ni68Fe27Cr4,"# generated using pymatgen
 data_CrFe5Ni12
_symmetry_space_group_name_H-M   'P 1'
_cell_length_a   7.41798773
_cell_length_b   7.41798773
_cell_length_c   10.49061886
_cell_angle_alpha   90.00000000
_cell_angle_beta   90.00000000
_cell_angle_gamma   90.00000000
_symmetry_Int_Tables_number   1
_chemical_formula_structural   CrFe5Ni12
_chemical_formula_sum   'Cr3 Fe15 Ni36'
_cell_volume   577.26247911
_cell_formula_units_Z   3
loop_
 _symmetry_equiv_pos_site_id
 _symmetry_equiv_pos_as_xyz
  1  'x, y, z'
loop_
 _atom_site_type_symbol
 _atom_site_label
 _atom_site_symmetry_multiplicity
 _atom_site_fract_x
 _atom_site_fract_y
 _atom_site_fract_z
 _atom_site_occupancy
  Ni  Ni0  1  0.00507011  1.00303538  1.00311895  1
  Ni  Ni1  1  0.17305043  0.16854511  0.16993868  1
  Fe  Fe2  1  0.00458356  1.00159453  0.33646572  1
  Fe  Fe3  1  0.00597565  0.33693999  1.00319996  1
  Fe  Fe4  1  0.17204051  0.50472911  0.17031709  1
  Cr  Cr5  1  0.00362796  0.33884537  0.33813093  1
  Fe  Fe6  1  0.00404196  0.67219097  0.00403547  1
  Fe  Fe7  1  0.17158776  0.83666541  0.16972747  1
  Ni  Ni8  1  0.00339691  0.67063930  0.33548958  1
  Ni  Ni9  1  0.33554832  1.00259432  0.00358193  1
  Ni  Ni10  1  0.50050744  0.17055257  0.16950510  1
  Ni  Ni11  1  0.33819754  1.00260991  0.33634723  1
  Fe  Fe12  1  0.33763937  0.33665478  1.00310081  1
  Ni  Ni13  1  0.50377521  0.50286596  0.17096658  1
  Ni  Ni14  1  0.33805838  0.33674104  0.33540678  1
  Ni  Ni15  1  0.33762037  0.67015845  1.00189238  1
  Ni  Ni16  1  0.50305488  0.83635062  0.16949821  1
  Ni  Ni17  1  0.33621512  0.67048829  0.33789678  1
  Fe  Fe18  1  0.66788219  1.00101366  1.00282227  1
  Cr  Cr19  1  0.83534767  0.16888583  0.16847924  1
  Ni  Ni20  1  0.66810276  1.00226412  0.33575841  1
  Ni  Ni21  1  0.66905629  0.33771706  1.00309854  1
  Ni  Ni22  1  0.83525732  0.50578143  0.16962199  1
  Ni  Ni23  1  0.66841801  0.33681619  0.33799036  1
  Ni  Ni24  1  0.66851648  0.66928378  0.00535616  1
  Ni  Ni25  1  0.83745743  0.83424318  0.17020622  1
  Fe  Fe26  1  0.66841431  0.67012558  0.33707416  1
  Fe  Fe27  1  0.17240564  0.16965102  0.50420722  1
  Ni  Ni28  1  1.00310165  1.00318312  0.66860714  1
  Ni  Ni29  1  0.17115643  0.16828458  0.83595350  1
  Ni  Ni30  1  0.17049580  0.50456164  0.50516185  1
  Ni  Ni31  1  0.00457956  0.33604473  0.66992285  1
  Fe  Fe32  1  0.17207753  0.50381672  0.83516348  1
  Ni  Ni33  1  0.16907403  0.83700302  0.50279776  1
  Ni  Ni34  1  1.00295115  0.67048267  0.67008506  1
  Ni  Ni35  1  0.16856790  0.83841574  0.83613337  1
  Ni  Ni36  1  0.50203049  0.16994399  0.50248840  1
  Ni  Ni37  1  0.33722786  0.00403633  0.67012374  1
  Ni  Ni38  1  0.50139202  0.17076743  0.83812493  1
  Ni  Ni39  1  0.50285247  0.50189799  0.50331863  1
  Ni  Ni40  1  0.33629807  0.33609878  0.67022971  1
  Ni  Ni41  1  0.50302743  0.50220156  0.83536579  1
  Ni  Ni42  1  0.50297030  0.83791000  0.50447075  1
  Fe  Fe43  1  0.33612559  0.67122107  0.66952738  1
  Fe  Fe44  1  0.50290227  0.83618323  0.83688013  1
  Fe  Fe45  1  0.83431369  0.16864813  0.50424838  1
  Ni  Ni46  1  0.66953274  1.00196935  0.67238127  1
  Fe  Fe47  1  0.83697428  0.16822971  0.83698209  1
  Ni  Ni48  1  0.83626225  0.50510691  0.50393702  1
  Fe  Fe49  1  0.66890132  0.33501646  0.66907177  1
  Cr  Cr50  1  0.83536753  0.50542652  0.83628834  1
  Ni  Ni51  1  0.83768449  0.83579876  0.50255756  1
  Ni  Ni52  1  0.66952318  0.67145804  0.66818337  1
  Ni  Ni53  1  0.83832858  0.83687872  0.83732971  1
" 