8651,Ni68Fe32_18,-237.019638813444, 201.229631185729,Ni68Fe32,"# generated using pymatgen
 data_Fe2Ni
_symmetry_space_group_name_H-M   'P 1'
_cell_length_a   7.39839806
_cell_length_b   7.39839806
_cell_length_c   10.46291488
_cell_angle_alpha   90.00000000
_cell_angle_beta   90.00000000
_cell_angle_gamma   90.00000000
_symmetry_Int_Tables_number   1
_chemical_formula_structural   Fe2Ni
_chemical_formula_sum   'Fe36 Ni18'
_cell_volume   572.70118381
_cell_formula_units_Z   18
loop_
 _symmetry_equiv_pos_site_id
 _symmetry_equiv_pos_as_xyz
  1  'x, y, z'
loop_
 _atom_site_type_symbol
 _atom_site_label
 _atom_site_symmetry_multiplicity
 _atom_site_fract_x
 _atom_site_fract_y
 _atom_site_fract_z
 _atom_site_occupancy
  Fe  Fe0  1  1.00410654  1.00402251  0.00507720  1
  Fe  Fe1  1  0.17189675  0.17153061  0.17169904  1
  Fe  Fe2  1  0.00495582  1.00380500  0.33794480  1
  Fe  Fe3  1  1.00433788  0.33758591  1.00413698  1
  Fe  Fe4  1  0.17190894  0.50477992  0.17135428  1
  Fe  Fe5  1  0.00486924  0.33900471  0.33893741  1
  Fe  Fe6  1  1.00432231  0.67231294  1.00378774  1
  Fe  Fe7  1  0.17229666  0.83761038  0.17130167  1
  Fe  Fe8  1  1.00454945  0.67110622  0.33878839  1
  Ni  Ni9  1  0.33845624  0.00514469  0.00492001  1
  Fe  Fe10  1  0.50463714  0.17123239  0.17005973  1
  Fe  Fe11  1  0.33801791  1.00388334  0.33741578  1
  Fe  Fe12  1  0.33926442  0.33757496  1.00404387  1
  Ni  Ni13  1  0.50494155  0.50513842  0.17037364  1
  Fe  Fe14  1  0.33851689  0.33934146  0.33870943  1
  Fe  Fe15  1  0.33888061  0.67192560  0.00480936  1
  Fe  Fe16  1  0.50487236  0.83727091  0.17107675  1
  Ni  Ni17  1  0.33818612  0.67089006  0.33717235  1
  Ni  Ni18  1  0.67060395  1.00423758  0.00605987  1
  Fe  Fe19  1  0.83738357  0.17161658  0.17108382  1
  Fe  Fe20  1  0.67094397  1.00356754  0.33789269  1
  Fe  Fe21  1  0.67031639  0.33735899  1.00436212  1
  Fe  Fe22  1  0.83704758  0.50501897  0.17175112  1
  Fe  Fe23  1  0.67053260  0.33975052  0.33847626  1
  Ni  Ni24  1  0.67151133  0.67197393  1.00427432  1
  Fe  Fe25  1  0.83674900  0.83728562  0.17099513  1
  Ni  Ni26  1  0.67069466  0.67129686  0.33870979  1
  Ni  Ni27  1  0.17122284  0.17108446  0.50567401  1
  Fe  Fe28  1  0.00485020  0.00530452  0.67090360  1
  Fe  Fe29  1  0.17200075  0.17200529  0.83755746  1
  Ni  Ni30  1  0.17122968  0.50423472  0.50400864  1
  Ni  Ni31  1  0.00514559  0.33868589  0.67080523  1
  Ni  Ni32  1  0.17099557  0.50504022  0.83798430  1
  Fe  Fe33  1  0.17154793  0.83630035  0.50460605  1
  Ni  Ni34  1  0.00605053  0.67002126  0.67028427  1
  Fe  Fe35  1  0.17206788  0.83773230  0.83800181  1
  Fe  Fe36  1  0.50448898  0.17288695  0.50594908  1
  Fe  Fe37  1  0.33790829  0.00571206  0.67192787  1
  Ni  Ni38  1  0.50515320  0.17040835  0.83826050  1
  Ni  Ni39  1  0.50503020  0.50514847  0.50580158  1
  Ni  Ni40  1  0.33697525  0.33868735  0.67080953  1
  Fe  Fe41  1  0.50408973  0.50417062  0.83776347  1
  Fe  Fe42  1  0.50409690  0.83660990  0.50438831  1
  Ni  Ni43  1  0.33647334  0.67042799  0.67142847  1
  Fe  Fe44  1  0.50434394  0.83839330  0.83845892  1
  Fe  Fe45  1  0.83829179  0.17297859  0.50514980  1
  Ni  Ni46  1  0.67139546  0.00570217  0.67096597  1
  Fe  Fe47  1  0.83749770  0.17174261  0.83769018  1
  Ni  Ni48  1  0.83765724  0.50554784  0.50476451  1
  Ni  Ni49  1  0.67179966  0.33646059  0.67121143  1
  Fe  Fe50  1  0.83816055  0.50410779  0.83723201  1
  Fe  Fe51  1  0.83827259  0.83693337  0.50470362  1
  Fe  Fe52  1  0.67147882  0.66987502  0.67076785  1
  Fe  Fe53  1  0.83750782  0.83806369  0.83822028  1
" 