8096,Ni68Fe27Cr4_2,-240.867025637451, 211.908725635626,Ni68Fe27Cr4,"# generated using pymatgen
 data_CrFe5Ni12
_symmetry_space_group_name_H-M   'P 1'
_cell_length_a   7.42728958
_cell_length_b   7.42728958
_cell_length_c   10.50377366
_cell_angle_alpha   90.00000000
_cell_angle_beta   90.00000000
_cell_angle_gamma   90.00000000
_symmetry_Int_Tables_number   1
_chemical_formula_structural   CrFe5Ni12
_chemical_formula_sum   'Cr3 Fe15 Ni36'
_cell_volume   579.43679364
_cell_formula_units_Z   3
loop_
 _symmetry_equiv_pos_site_id
 _symmetry_equiv_pos_as_xyz
  1  'x, y, z'
loop_
 _atom_site_type_symbol
 _atom_site_label
 _atom_site_symmetry_multiplicity
 _atom_site_fract_x
 _atom_site_fract_y
 _atom_site_fract_z
 _atom_site_occupancy
  Ni  Ni0  1  1.00259003  0.00278389  0.00349040  1
  Fe  Fe1  1  0.16971339  0.16899551  0.16864026  1
  Fe  Fe2  1  1.00136583  0.00280111  0.33516949  1
  Fe  Fe3  1  0.00354486  0.33605139  0.00275123  1
  Ni  Ni4  1  0.16906902  0.50378594  0.16889317  1
  Ni  Ni5  1  1.00119748  0.33618027  0.33467781  1
  Ni  Ni6  1  1.00261598  0.66930046  0.00321958  1
  Ni  Ni7  1  0.16967110  0.83487904  0.17018531  1
  Ni  Ni8  1  1.00183029  0.66927796  0.33518181  1
  Ni  Ni9  1  0.33533202  0.00275992  0.00353124  1
  Ni  Ni10  1  0.50327579  0.16883119  0.16981806  1
  Ni  Ni11  1  0.33634584  0.00282133  0.33622857  1
  Ni  Ni12  1  0.33610504  0.33647958  0.00320845  1
  Ni  Ni13  1  0.50175875  0.50221732  0.17045536  1
  Fe  Fe14  1  0.33744571  0.33524638  0.33451494  1
  Ni  Ni15  1  0.33583686  0.66878847  0.00344907  1
  Ni  Ni16  1  0.50167751  0.83698055  0.16890277  1
  Fe  Fe17  1  0.33734715  0.67034036  0.33474339  1
  Fe  Fe18  1  0.66987945  1.00173243  0.00352987  1
  Ni  Ni19  1  0.83510740  0.16943667  0.16952091  1
  Ni  Ni20  1  0.66803351  0.00344909  0.33555844  1
  Ni  Ni21  1  0.66960010  0.33645003  0.00350394  1
  Ni  Ni22  1  0.83720999  0.50219092  0.16993507  1
  Ni  Ni23  1  0.66995540  0.33582689  0.33665365  1
  Fe  Fe24  1  0.66875453  0.66940257  1.00259041  1
  Ni  Ni25  1  0.83667570  0.83640131  0.17001421  1
  Ni  Ni26  1  0.67020574  0.66875000  0.33635285  1
  Fe  Fe27  1  0.16947382  0.16788171  0.50277162  1
  Fe  Fe28  1  1.00061666  0.00305127  0.66967951  1
  Ni  Ni29  1  0.16768450  0.17137241  0.83553736  1
  Cr  Cr30  1  0.16807389  0.50389372  0.50270627  1
  Fe  Fe31  1  1.00072891  0.33615770  0.66990379  1
  Ni  Ni32  1  0.16902827  0.50154221  0.83615376  1
  Fe  Fe33  1  0.16939184  0.83746224  0.50239244  1
  Ni  Ni34  1  1.00182006  0.66922799  0.66962742  1
  Cr  Cr35  1  0.17007262  0.83485791  0.83572795  1
  Ni  Ni36  1  0.50374747  0.16765515  0.50256463  1
  Fe  Fe37  1  0.33736681  1.00170280  0.66764089  1
  Cr  Cr38  1  0.50319581  0.16846979  0.83621740  1
  Fe  Fe39  1  0.50562226  0.50231387  0.50309978  1
  Fe  Fe40  1  0.33674276  0.33698444  0.67027422  1
  Ni  Ni41  1  0.50207973  0.50439928  0.83484754  1
  Ni  Ni42  1  0.50216464  0.83756770  0.50297974  1
  Ni  Ni43  1  0.33684559  0.66957590  0.66967093  1
  Ni  Ni44  1  0.50388744  0.83458565  0.83614969  1
  Ni  Ni45  1  0.83473015  0.16983374  0.50288410  1
  Ni  Ni46  1  0.66985429  0.00281081  0.66922706  1
  Ni  Ni47  1  0.83744624  0.16956725  0.83562282  1
  Ni  Ni48  1  0.83579673  0.50195848  0.50250605  1
  Ni  Ni49  1  0.67020730  0.33620630  0.66787836  1
  Ni  Ni50  1  0.83692226  0.50252924  0.83558928  1
  Fe  Fe51  1  0.83493280  0.83581929  0.50280743  1
  Ni  Ni52  1  0.66936602  0.66900824  0.67002661  1
  Ni  Ni53  1  0.83458675  0.83593443  0.83532320  1
" 