3238,Ni68Fe27Cr4_4,-240.507166507623, 211.05548908545,Ni68Fe27Cr4,"# generated using pymatgen
 data_CrFe5Ni12
_symmetry_space_group_name_H-M   'P 1'
_cell_length_a   7.41912432
_cell_length_b   7.41912432
_cell_length_c   10.49222624
_cell_angle_alpha   90.00000000
_cell_angle_beta   90.00000000
_cell_angle_gamma   90.00000000
_symmetry_Int_Tables_number   1
_chemical_formula_structural   CrFe5Ni12
_chemical_formula_sum   'Cr3 Fe15 Ni36'
_cell_volume   577.52786591
_cell_formula_units_Z   3
loop_
 _symmetry_equiv_pos_site_id
 _symmetry_equiv_pos_as_xyz
  1  'x, y, z'
loop_
 _atom_site_type_symbol
 _atom_site_label
 _atom_site_symmetry_multiplicity
 _atom_site_fract_x
 _atom_site_fract_y
 _atom_site_fract_z
 _atom_site_occupancy
  Cr  Cr0  1  1.00138964  1.00272620  1.00230635  1
  Ni  Ni1  1  0.17155034  0.17101520  0.17102908  1
  Ni  Ni2  1  0.00430792  1.00181401  0.33585684  1
  Ni  Ni3  1  0.00584055  0.33753107  0.00390937  1
  Ni  Ni4  1  0.16904726  0.50269524  0.17040876  1
  Fe  Fe5  1  1.00119787  0.33780222  0.33543339  1
  Ni  Ni6  1  1.00301976  0.66849717  0.00327300  1
  Fe  Fe7  1  0.17084941  0.83425163  0.16976576  1
  Ni  Ni8  1  0.00337607  0.67072341  0.33615353  1
  Fe  Fe9  1  0.33634017  1.00115461  0.00388227  1
  Ni  Ni10  1  0.50156063  0.16882838  0.17008778  1
  Fe  Fe11  1  0.33768130  1.00225673  0.33702935  1
  Ni  Ni12  1  0.33565286  0.33819515  0.00438072  1
  Ni  Ni13  1  0.50265722  0.50344865  0.17025274  1
  Fe  Fe14  1  0.33697209  0.33667795  0.33609355  1
  Ni  Ni15  1  0.33763798  0.66713782  1.00305099  1
  Ni  Ni16  1  0.50387701  0.83729961  0.16944566  1
  Fe  Fe17  1  0.33795077  0.67083456  0.33526867  1
  Ni  Ni18  1  0.66973466  1.00124941  0.00462424  1
  Fe  Fe19  1  0.83501585  0.17095137  0.17062788  1
  Ni  Ni20  1  0.66956037  1.00217337  0.33593618  1
  Fe  Fe21  1  0.67119979  0.33892499  0.00469716  1
  Ni  Ni22  1  0.83797538  0.50491137  0.16986849  1
  Ni  Ni23  1  0.66675887  0.33788728  0.33542841  1
  Ni  Ni24  1  0.66932647  0.67098578  0.00350356  1
  Ni  Ni25  1  0.83575370  0.83480892  0.17173017  1
  Ni  Ni26  1  0.66987261  0.66992484  0.33654565  1
  Fe  Fe27  1  0.16998161  0.16873863  0.50287683  1
  Ni  Ni28  1  0.00403373  1.00281908  0.67093679  1
  Fe  Fe29  1  0.16945182  0.17141364  0.83596815  1
  Fe  Fe30  1  0.16942611  0.50427536  0.50335221  1
  Ni  Ni31  1  0.00665523  0.33742026  0.67050776  1
  Ni  Ni32  1  0.16936295  0.50386637  0.83665970  1
  Fe  Fe33  1  0.16844497  0.83690150  0.50425638  1
  Ni  Ni34  1  1.00188227  0.66959623  0.67043076  1
  Ni  Ni35  1  0.17073108  0.83423079  0.83604461  1
  Ni  Ni36  1  0.50099029  0.16890010  0.50270106  1
  Ni  Ni37  1  0.33594871  0.00459927  0.66983221  1
  Cr  Cr38  1  0.50392441  0.16939949  0.83718311  1
  Fe  Fe39  1  0.50573483  0.50379570  0.50320637  1
  Ni  Ni40  1  0.33571133  0.33737595  0.66834143  1
  Ni  Ni41  1  0.50231811  0.50407401  0.83558087  1
  Ni  Ni42  1  0.50270212  0.83774907  0.50374495  1
  Fe  Fe43  1  0.33607523  0.67108822  0.67108245  1
  Ni  Ni44  1  0.50261868  0.83602943  0.83665899  1
  Cr  Cr45  1  0.83555102  0.16940460  0.50291655  1
  Ni  Ni46  1  0.66946469  0.99994380  0.66934186  1
  Ni  Ni47  1  0.83678374  0.17117354  0.83564638  1
  Ni  Ni48  1  0.83907534  0.50516275  0.50313663  1
  Fe  Fe49  1  0.67086280  0.33777592  0.66910146  1
  Ni  Ni50  1  0.83819394  0.50322356  0.83666899  1
  Ni  Ni51  1  0.83670050  0.83469488  0.50349065  1
  Ni  Ni52  1  0.66958369  0.67039373  0.66965314  1
  Ni  Ni53  1  0.83608874  0.83565169  0.83449467  1
" 