8686,Ni68Fe27Cr4_15,-240.377086737257, 213.901597248238,Ni68Fe27Cr4,"# generated using pymatgen
 data_CrFe5Ni12
_symmetry_space_group_name_H-M   'P 1'
_cell_length_a   7.41778328
_cell_length_b   7.41778328
_cell_length_c   10.49032972
_cell_angle_alpha   90.00000000
_cell_angle_beta   90.00000000
_cell_angle_gamma   90.00000000
_symmetry_Int_Tables_number   1
_chemical_formula_structural   CrFe5Ni12
_chemical_formula_sum   'Cr3 Fe15 Ni36'
_cell_volume   577.21474920
_cell_formula_units_Z   3
loop_
 _symmetry_equiv_pos_site_id
 _symmetry_equiv_pos_as_xyz
  1  'x, y, z'
loop_
 _atom_site_type_symbol
 _atom_site_label
 _atom_site_symmetry_multiplicity
 _atom_site_fract_x
 _atom_site_fract_y
 _atom_site_fract_z
 _atom_site_occupancy
  Fe  Fe0  1  0.00502882  1.00251289  1.00213148  1
  Ni  Ni1  1  0.17135089  0.16950402  0.17048572  1
  Fe  Fe2  1  0.00388255  1.00222103  0.33805639  1
  Ni  Ni3  1  0.00360551  0.33764525  1.00139331  1
  Fe  Fe4  1  0.17084563  0.50335788  0.16983125  1
  Ni  Ni5  1  1.00315115  0.33769216  0.33832058  1
  Ni  Ni6  1  1.00280464  0.66971847  1.00314663  1
  Ni  Ni7  1  0.17080427  0.83697362  0.16992628  1
  Ni  Ni8  1  1.00312726  0.66933187  0.33676575  1
  Ni  Ni9  1  0.33693029  0.00366509  1.00228061  1
  Ni  Ni10  1  0.50195300  0.17052136  0.16992723  1
  Ni  Ni11  1  0.33734021  1.00325484  0.33761144  1
  Ni  Ni12  1  0.33666282  0.33547646  0.00405480  1
  Ni  Ni13  1  0.50388741  0.50377968  0.17009899  1
  Fe  Fe14  1  0.33694480  0.33687160  0.33647088  1
  Ni  Ni15  1  0.33639671  0.67081914  1.00286332  1
  Ni  Ni16  1  0.50278988  0.83566129  0.17014185  1
  Ni  Ni17  1  0.33602925  0.67119618  0.33664828  1
  Fe  Fe18  1  0.66861234  1.00217842  1.00279087  1
  Cr  Cr19  1  0.83686928  0.17058411  0.17001941  1
  Ni  Ni20  1  0.66862869  1.00322959  0.33728060  1
  Ni  Ni21  1  0.66969394  0.33711283  1.00201177  1
  Fe  Fe22  1  0.83622539  0.50462400  0.16998779  1
  Ni  Ni23  1  0.67049037  0.33638309  0.33789821  1
  Ni  Ni24  1  0.67076111  0.66998054  1.00304406  1
  Fe  Fe25  1  0.83593757  0.83508756  0.17020370  1
  Ni  Ni26  1  0.67080449  0.67034856  0.33711557  1
  Ni  Ni27  1  0.17039548  0.17034473  0.50200220  1
  Cr  Cr28  1  0.00485403  1.00232980  0.66961953  1
  Ni  Ni29  1  0.17065453  0.17049293  0.83747352  1
  Ni  Ni30  1  0.16979054  0.50322397  0.50335386  1
  Fe  Fe31  1  0.00473251  0.33836272  0.66965278  1
  Ni  Ni32  1  0.17006042  0.50275096  0.83677213  1
  Ni  Ni33  1  0.17090770  0.83639379  0.50309342  1
  Ni  Ni34  1  0.00369248  0.66820200  0.67004898  1
  Ni  Ni35  1  0.17114182  0.83671832  0.83694107  1
  Fe  Fe36  1  0.50258941  0.17040957  0.50206766  1
  Ni  Ni37  1  0.33682799  0.00353807  0.67006888  1
  Fe  Fe38  1  0.50167328  0.17083930  0.83784878  1
  Fe  Fe39  1  0.50318238  0.50342407  0.50319000  1
  Ni  Ni40  1  0.33653596  0.33677333  0.66987538  1
  Ni  Ni41  1  0.50403688  0.50376525  0.83640549  1
  Fe  Fe42  1  0.50222893  0.83613231  0.50220357  1
  Ni  Ni43  1  0.33551272  0.66965228  0.67044911  1
  Ni  Ni44  1  0.50266041  0.83541056  0.83734741  1
  Ni  Ni45  1  0.83670135  0.17172362  0.50195622  1
  Cr  Cr46  1  0.66873190  0.00340717  0.67032404  1
  Fe  Fe47  1  0.83696520  0.17184291  0.83824864  1
  Ni  Ni48  1  0.83617007  0.50297485  0.50333106  1
  Fe  Fe49  1  0.66960342  0.33871874  0.66992736  1
  Ni  Ni50  1  0.83586461  0.50327688  0.83641568  1
  Ni  Ni51  1  0.83643576  0.83526531  0.50084725  1
  Fe  Fe52  1  0.66965130  0.66879791  0.67053323  1
  Ni  Ni53  1  0.83615794  0.83481443  0.83881328  1
" 