4939,Ni68Fe27Cr4_3,-240.224514715545, 209.921284754116,Ni68Fe27Cr4,"# generated using pymatgen
 data_CrFe5Ni12
_symmetry_space_group_name_H-M   'P 1'
_cell_length_a   7.41888809
_cell_length_b   7.41888809
_cell_length_c   10.49189215
_cell_angle_alpha   90.00000000
_cell_angle_beta   90.00000000
_cell_angle_gamma   90.00000000
_symmetry_Int_Tables_number   1
_chemical_formula_structural   CrFe5Ni12
_chemical_formula_sum   'Cr3 Fe15 Ni36'
_cell_volume   577.47269941
_cell_formula_units_Z   3
loop_
 _symmetry_equiv_pos_site_id
 _symmetry_equiv_pos_as_xyz
  1  'x, y, z'
loop_
 _atom_site_type_symbol
 _atom_site_label
 _atom_site_symmetry_multiplicity
 _atom_site_fract_x
 _atom_site_fract_y
 _atom_site_fract_z
 _atom_site_occupancy
  Fe  Fe0  1  0.00335406  1.00281823  1.00250762  1
  Ni  Ni1  1  0.17001508  0.16964919  0.16947491  1
  Fe  Fe2  1  1.00311586  1.00232238  0.33740274  1
  Ni  Ni3  1  0.00427172  0.33789725  1.00314403  1
  Ni  Ni4  1  0.16925321  0.50311416  0.17015630  1
  Ni  Ni5  1  0.00371349  0.33704372  0.33602163  1
  Ni  Ni6  1  1.00196796  0.66742836  0.00355007  1
  Ni  Ni7  1  0.16715398  0.83691707  0.16980768  1
  Fe  Fe8  1  1.00288633  0.67100669  0.33591804  1
  Ni  Ni9  1  0.33648634  0.00488017  0.00444928  1
  Ni  Ni10  1  0.50381816  0.16940139  0.16932586  1
  Ni  Ni11  1  0.33719771  1.00315611  0.33631064  1
  Ni  Ni12  1  0.33370690  0.33453532  1.00234517  1
  Cr  Cr13  1  0.50287488  0.50215311  0.16956332  1
  Fe  Fe14  1  0.33629939  0.33551791  0.33725315  1
  Fe  Fe15  1  0.33372197  0.66941789  1.00308187  1
  Fe  Fe16  1  0.50186770  0.83813671  0.17047233  1
  Ni  Ni17  1  0.33649513  0.67140691  0.33653486  1
  Ni  Ni18  1  0.66938456  1.00278864  0.00446340  1
  Fe  Fe19  1  0.83770951  0.16968564  0.16932563  1
  Ni  Ni20  1  0.66938214  1.00229507  0.33664298  1
  Fe  Fe21  1  0.67034831  0.33574854  1.00137522  1
  Fe  Fe22  1  0.83885269  0.50319482  0.17080606  1
  Fe  Fe23  1  0.66953998  0.33576937  0.33862566  1
  Ni  Ni24  1  0.67295751  0.67040336  0.00403461  1
  Ni  Ni25  1  0.83650783  0.83716157  0.16893044  1
  Ni  Ni26  1  0.67070183  0.67144502  0.33667723  1
  Ni  Ni27  1  0.16879499  0.17120008  0.50238977  1
  Ni  Ni28  1  1.00208491  0.00477014  0.67000890  1
  Ni  Ni29  1  0.16809468  0.17068973  0.83776622  1
  Ni  Ni30  1  0.16944191  0.50238316  0.50272337  1
  Ni  Ni31  1  0.00378043  0.33678439  0.67044694  1
  Ni  Ni32  1  0.17028854  0.50313907  0.83656624  1
  Fe  Fe33  1  0.17049875  0.83525586  0.50275064  1
  Fe  Fe34  1  0.00336238  0.66931710  0.67028014  1
  Ni  Ni35  1  0.16635234  0.83565433  0.83717411  1
  Ni  Ni36  1  0.50365602  0.17069027  0.50346477  1
  Cr  Cr37  1  0.33680603  0.00430365  0.66923191  1
  Ni  Ni38  1  0.50482284  0.17267969  0.83687561  1
  Ni  Ni39  1  0.50326718  0.50361537  0.50411845  1
  Ni  Ni40  1  0.33506406  0.33813266  0.66945660  1
  Ni  Ni41  1  0.50317858  0.50162035  0.83587983  1
  Ni  Ni42  1  0.50621991  0.83546229  0.50134645  1
  Ni  Ni43  1  0.33688516  0.66772522  0.66952273  1
  Cr  Cr44  1  0.50442928  0.83560947  0.83814764  1
  Fe  Fe45  1  0.83653187  0.17136255  0.50413864  1
  Ni  Ni46  1  0.67194447  1.00317456  0.66887850  1
  Ni  Ni47  1  0.83672260  0.16868578  0.83652164  1
  Ni  Ni48  1  0.83708571  0.50516506  0.50265655  1
  Ni  Ni49  1  0.67104354  0.33745375  0.66994464  1
  Fe  Fe50  1  0.83689707  0.50220934  0.83612143  1
  Ni  Ni51  1  0.83656013  0.83664479  0.50492030  1
  Ni  Ni52  1  0.67019914  0.66921697  0.66905209  1
  Fe  Fe53  1  0.83767307  0.83702962  0.83668496  1
" 