4467,Ni68Fe27Cr4_16,-240.889827675978, 211.780648935356,Ni68Fe27Cr4,"# generated using pymatgen
 data_CrFe5Ni12
_symmetry_space_group_name_H-M   'P 1'
_cell_length_a   7.42051575
_cell_length_b   7.42051575
_cell_length_c   10.49419401
_cell_angle_alpha   90.00000000
_cell_angle_beta   90.00000000
_cell_angle_gamma   90.00000000
_symmetry_Int_Tables_number   1
_chemical_formula_structural   CrFe5Ni12
_chemical_formula_sum   'Cr3 Fe15 Ni36'
_cell_volume   577.85286580
_cell_formula_units_Z   3
loop_
 _symmetry_equiv_pos_site_id
 _symmetry_equiv_pos_as_xyz
  1  'x, y, z'
loop_
 _atom_site_type_symbol
 _atom_site_label
 _atom_site_symmetry_multiplicity
 _atom_site_fract_x
 _atom_site_fract_y
 _atom_site_fract_z
 _atom_site_occupancy
  Ni  Ni0  1  0.00319288  0.00387930  0.00327424  1
  Ni  Ni1  1  0.17089029  0.16869707  0.16950568  1
  Ni  Ni2  1  1.00287374  1.00085657  0.33661615  1
  Ni  Ni3  1  1.00240242  0.33656196  0.00385695  1
  Ni  Ni4  1  0.16927252  0.50480158  0.16847209  1
  Cr  Cr5  1  1.00295411  0.33689522  0.33610018  1
  Fe  Fe6  1  1.00284905  0.67039598  0.00393381  1
  Ni  Ni7  1  0.16900190  0.83590837  0.16980442  1
  Ni  Ni8  1  0.00321707  0.67084936  0.33552128  1
  Ni  Ni9  1  0.33603417  1.00293049  0.00406686  1
  Ni  Ni10  1  0.50373929  0.16900128  0.16918991  1
  Ni  Ni11  1  0.33736784  1.00300887  0.33635573  1
  Fe  Fe12  1  0.33610364  0.33476224  1.00264579  1
  Cr  Cr13  1  0.50307844  0.50173031  0.16986143  1
  Ni  Ni14  1  0.33762988  0.33584260  0.33659048  1
  Ni  Ni15  1  0.33542556  0.67023848  0.00357409  1
  Fe  Fe16  1  0.50313319  0.83858090  0.16900484  1
  Fe  Fe17  1  0.33464469  0.67066262  0.33723256  1
  Ni  Ni18  1  0.67017928  0.00400369  0.00466335  1
  Ni  Ni19  1  0.83477834  0.16873171  0.16899818  1
  Ni  Ni20  1  0.66916421  0.00331885  0.33545625  1
  Ni  Ni21  1  0.67145208  0.33595266  1.00233664  1
  Ni  Ni22  1  0.83696322  0.50420063  0.16950359  1
  Ni  Ni23  1  0.66886759  0.33550162  0.33726972  1
  Ni  Ni24  1  0.67050743  0.66945186  0.00340111  1
  Ni  Ni25  1  0.83726806  0.83647858  0.16925397  1
  Fe  Fe26  1  0.67140720  0.67094641  0.33650838  1
  Fe  Fe27  1  0.17033758  0.16854250  0.50412456  1
  Ni  Ni28  1  1.00257510  1.00302309  0.66951601  1
  Ni  Ni29  1  0.16972287  0.16961664  0.83553514  1
  Ni  Ni30  1  0.17127395  0.50536655  0.50407864  1
  Ni  Ni31  1  0.00333432  0.33700405  0.66928254  1
  Fe  Fe32  1  0.17006451  0.50235718  0.83581321  1
  Ni  Ni33  1  0.16912850  0.83475275  0.50358523  1
  Ni  Ni34  1  0.00367130  0.66937732  0.67052288  1
  Ni  Ni35  1  0.16863958  0.83582800  0.83601763  1
  Ni  Ni36  1  0.50426032  0.17063685  0.50353027  1
  Ni  Ni37  1  0.33638914  0.00360478  0.66898192  1
  Ni  Ni38  1  0.50378757  0.17172029  0.83668706  1
  Fe  Fe39  1  0.50270205  0.50276188  0.50301610  1
  Ni  Ni40  1  0.33621329  0.33700575  0.67034659  1
  Fe  Fe41  1  0.50252057  0.50123977  0.83686812  1
  Fe  Fe42  1  0.50303590  0.83743906  0.50363307  1
  Ni  Ni43  1  0.33529654  0.66879373  0.66845044  1
  Cr  Cr44  1  0.50221418  0.83714422  0.83646620  1
  Ni  Ni45  1  0.83405484  0.16848792  0.50398529  1
  Ni  Ni46  1  0.67044158  0.00394068  0.66928615  1
  Ni  Ni47  1  0.83589728  0.17038260  0.83642296  1
  Fe  Fe48  1  0.83657135  0.50396565  0.50343223  1
  Fe  Fe49  1  0.66974495  0.33520466  0.66980340  1
  Fe  Fe50  1  0.83682110  0.50214751  0.83721558  1
  Ni  Ni51  1  0.83733938  0.83687201  0.50397715  1
  Fe  Fe52  1  0.67073035  0.66970261  0.66938570  1
  Fe  Fe53  1  0.83814284  0.83820171  0.83634725  1
" 