5496,Ni68Fe32_10,-237.116256479572, 207.665608634666,Ni68Fe32,"# generated using pymatgen
 data_Fe2Ni
_symmetry_space_group_name_H-M   'P 1'
_cell_length_a   7.39788598
_cell_length_b   7.39788598
_cell_length_c   10.46219068
_cell_angle_alpha   90.00000000
_cell_angle_beta   90.00000000
_cell_angle_gamma   90.00000000
_symmetry_Int_Tables_number   1
_chemical_formula_structural   Fe2Ni
_chemical_formula_sum   'Fe36 Ni18'
_cell_volume   572.58227205
_cell_formula_units_Z   18
loop_
 _symmetry_equiv_pos_site_id
 _symmetry_equiv_pos_as_xyz
  1  'x, y, z'
loop_
 _atom_site_type_symbol
 _atom_site_label
 _atom_site_symmetry_multiplicity
 _atom_site_fract_x
 _atom_site_fract_y
 _atom_site_fract_z
 _atom_site_occupancy
  Fe  Fe0  1  1.00396030  0.00491152  0.00561714  1
  Ni  Ni1  1  0.17062317  0.17184791  0.17183494  1
  Ni  Ni2  1  0.00467764  0.00487830  0.33720791  1
  Ni  Ni3  1  0.00469186  0.33892660  1.00384989  1
  Fe  Fe4  1  0.17073965  0.50342474  0.17141472  1
  Ni  Ni5  1  0.00467853  0.33676077  0.33852584  1
  Ni  Ni6  1  0.00468922  0.67091699  0.00591011  1
  Fe  Fe7  1  0.17065798  0.83878078  0.17149866  1
  Fe  Fe8  1  1.00467162  0.67026097  0.33817962  1
  Fe  Fe9  1  0.33725000  0.00482637  1.00419864  1
  Fe  Fe10  1  0.50491042  0.17157673  0.17122948  1
  Fe  Fe11  1  0.33798563  0.00504283  0.33863131  1
  Fe  Fe12  1  0.33721421  0.33777031  0.00482291  1
  Fe  Fe13  1  0.50450223  0.50360296  0.17245778  1
  Ni  Ni14  1  0.33830089  0.33820053  0.33778299  1
  Fe  Fe15  1  0.33762501  0.67142707  0.00538748  1
  Fe  Fe16  1  0.50482317  0.83884786  0.17203029  1
  Ni  Ni17  1  0.33881658  0.67146140  0.33851641  1
  Ni  Ni18  1  0.67091150  1.00458858  1.00448014  1
  Ni  Ni19  1  0.83921558  0.17184491  0.17103170  1
  Fe  Fe20  1  0.67136418  0.00504118  0.33738172  1
  Fe  Fe21  1  0.67282563  0.33807345  1.00450202  1
  Fe  Fe22  1  0.83878254  0.50334048  0.17096057  1
  Ni  Ni23  1  0.67104564  0.33819643  0.33698000  1
  Fe  Fe24  1  0.67273959  0.67144767  1.00465646  1
  Fe  Fe25  1  0.83854054  0.83918885  0.17063563  1
  Ni  Ni26  1  0.67052593  0.67146148  0.33771530  1
  Fe  Fe27  1  0.17220324  0.17086982  0.50398600  1
  Fe  Fe28  1  0.00508134  0.00504463  0.67086784  1
  Fe  Fe29  1  0.17076029  0.17157466  0.83822124  1
  Fe  Fe30  1  0.17220087  0.50514050  0.50452438  1
  Fe  Fe31  1  0.00506041  0.33818440  0.67166271  1
  Fe  Fe32  1  0.16977166  0.50538853  0.83808823  1
  Fe  Fe33  1  0.17181099  0.83801066  0.50484378  1
  Ni  Ni34  1  1.00424431  0.67215440  0.67090576  1
  Fe  Fe35  1  0.17000391  0.83706113  0.83768348  1
  Fe  Fe36  1  0.50444278  0.17158056  0.50542489  1
  Ni  Ni37  1  0.33840817  0.00496228  0.67142817  1
  Fe  Fe38  1  0.50574781  0.17133799  0.83736756  1
  Fe  Fe39  1  0.50467843  0.50466518  0.50402637  1
  Ni  Ni40  1  0.33932415  0.33690305  0.67165019  1
  Fe  Fe41  1  0.50568298  0.50457011  0.83753855  1
  Ni  Ni42  1  0.50437772  0.83760761  0.50498131  1
  Fe  Fe43  1  0.33830385  0.67112118  0.67048340  1
  Fe  Fe44  1  0.50568048  0.83811221  0.83764148  1
  Fe  Fe45  1  0.83737882  0.17119337  0.50349033  1
  Fe  Fe46  1  0.67070092  1.00467364  0.67205230  1
  Fe  Fe47  1  0.83751568  0.17157558  0.83886888  1
  Fe  Fe48  1  0.83714375  0.50505458  0.50514467  1
  Ni  Ni49  1  0.67045864  0.33781919  0.67216128  1
  Ni  Ni50  1  0.83811796  0.50528002  0.83811702  1
  Fe  Fe51  1  0.83785580  0.83777399  0.50505578  1
  Fe  Fe52  1  0.67097881  0.67109957  0.67104199  1
  Ni  Ni53  1  0.83771561  0.83701210  0.83772131  1
" 