4337,Ni68Fe27Cr4_8,-240.828748265855, 213.267145306366,Ni68Fe27Cr4,"# generated using pymatgen
 data_CrFe5Ni12
_symmetry_space_group_name_H-M   'P 1'
_cell_length_a   7.42217598
_cell_length_b   7.42217598
_cell_length_c   10.49654193
_cell_angle_alpha   90.00000000
_cell_angle_beta   90.00000000
_cell_angle_gamma   90.00000000
_symmetry_Int_Tables_number   1
_chemical_formula_structural   CrFe5Ni12
_chemical_formula_sum   'Cr3 Fe15 Ni36'
_cell_volume   578.24080956
_cell_formula_units_Z   3
loop_
 _symmetry_equiv_pos_site_id
 _symmetry_equiv_pos_as_xyz
  1  'x, y, z'
loop_
 _atom_site_type_symbol
 _atom_site_label
 _atom_site_symmetry_multiplicity
 _atom_site_fract_x
 _atom_site_fract_y
 _atom_site_fract_z
 _atom_site_occupancy
  Ni  Ni0  1  1.00153508  1.00199762  1.00273328  1
  Cr  Cr1  1  0.16982466  0.17142907  0.16861288  1
  Ni  Ni2  1  1.00199462  1.00206963  0.33673187  1
  Ni  Ni3  1  1.00122907  0.33573240  0.00336243  1
  Ni  Ni4  1  0.16951107  0.50421846  0.17094865  1
  Ni  Ni5  1  0.99917413  0.33710419  0.33602326  1
  Ni  Ni6  1  0.00324441  0.67133146  0.00470739  1
  Fe  Fe7  1  0.16815034  0.83596878  0.17075529  1
  Fe  Fe8  1  1.00302190  0.66913328  0.33640933  1
  Fe  Fe9  1  0.33773398  1.00238555  1.00224319  1
  Ni  Ni10  1  0.50428477  0.16842143  0.16923924  1
  Ni  Ni11  1  0.33706773  0.99962183  0.33586960  1
  Ni  Ni12  1  0.33838103  0.33784501  0.00418793  1
  Fe  Fe13  1  0.50447723  0.50218427  0.17022494  1
  Fe  Fe14  1  0.33776978  0.33697620  0.33664053  1
  Ni  Ni15  1  0.33684281  0.67020143  0.00427661  1
  Fe  Fe16  1  0.50371270  0.83581311  0.16955592  1
  Ni  Ni17  1  0.33689368  0.67028698  0.33675781  1
  Ni  Ni18  1  0.67076726  0.00328911  0.00457653  1
  Ni  Ni19  1  0.83469231  0.16904023  0.16991719  1
  Fe  Fe20  1  0.66910966  0.00366833  0.33604759  1
  Ni  Ni21  1  0.66988801  0.33578001  0.00307088  1
  Ni  Ni22  1  0.83744549  0.50384715  0.16748064  1
  Ni  Ni23  1  0.67056848  0.33676841  0.33609936  1
  Ni  Ni24  1  0.66900946  0.66989953  0.00346341  1
  Ni  Ni25  1  0.83496841  0.83604061  0.16975173  1
  Fe  Fe26  1  0.67038496  0.66901061  0.33680063  1
  Cr  Cr27  1  0.17039093  0.17019514  0.50390921  1
  Ni  Ni28  1  1.00199512  1.00221671  0.66980846  1
  Fe  Fe29  1  0.16920422  0.16795882  0.83617521  1
  Ni  Ni30  1  0.16896301  0.50426077  0.50237744  1
  Ni  Ni31  1  1.00085678  0.33597571  0.66944465  1
  Cr  Cr32  1  0.16918646  0.50230093  0.83495146  1
  Ni  Ni33  1  0.17039937  0.83529478  0.50383048  1
  Ni  Ni34  1  1.00272800  0.67086163  0.66783262  1
  Fe  Fe35  1  0.16863886  0.83699160  0.83572663  1
  Ni  Ni36  1  0.50420134  0.16848272  0.50342181  1
  Ni  Ni37  1  0.33721169  1.00139435  0.67094636  1
  Fe  Fe38  1  0.50430004  0.16931942  0.83616792  1
  Ni  Ni39  1  0.50358622  0.50357102  0.50336177  1
  Ni  Ni40  1  0.33844289  0.33695484  0.66795881  1
  Fe  Fe41  1  0.50499137  0.50395724  0.83595654  1
  Ni  Ni42  1  0.50348345  0.83698051  0.50305133  1
  Ni  Ni43  1  0.33745057  0.67079105  0.66825350  1
  Ni  Ni44  1  0.50466541  0.83673526  0.83659178  1
  Fe  Fe45  1  0.83505704  0.17048709  0.50303548  1
  Ni  Ni46  1  0.66974292  0.00330706  0.66788871  1
  Ni  Ni47  1  0.83590176  0.16863362  0.83657132  1
  Ni  Ni48  1  0.83653230  0.50344717  0.50454231  1
  Ni  Ni49  1  0.66981617  0.33614906  0.66995219  1
  Fe  Fe50  1  0.83463466  0.50431255  0.83645306  1
  Fe  Fe51  1  0.83616480  0.83585774  0.50348491  1
  Ni  Ni52  1  0.66885121  0.66981890  0.66920940  1
  Ni  Ni53  1  0.83415206  0.83691130  0.83584020  1
" 