6410,Ni68Fe32_13,-236.781362806303, 208.547626839781,Ni68Fe32,"# generated using pymatgen
 data_Fe2Ni
_symmetry_space_group_name_H-M   'P 1'
_cell_length_a   7.39879279
_cell_length_b   7.39879279
_cell_length_c   10.46347310
_cell_angle_alpha   90.00000000
_cell_angle_beta   90.00000000
_cell_angle_gamma   90.00000000
_symmetry_Int_Tables_number   1
_chemical_formula_structural   Fe2Ni
_chemical_formula_sum   'Fe36 Ni18'
_cell_volume   572.79285413
_cell_formula_units_Z   18
loop_
 _symmetry_equiv_pos_site_id
 _symmetry_equiv_pos_as_xyz
  1  'x, y, z'
loop_
 _atom_site_type_symbol
 _atom_site_label
 _atom_site_symmetry_multiplicity
 _atom_site_fract_x
 _atom_site_fract_y
 _atom_site_fract_z
 _atom_site_occupancy
  Fe  Fe0  1  0.00525383  0.00533341  0.00481019  1
  Ni  Ni1  1  0.17201399  0.17193339  0.17165862  1
  Ni  Ni2  1  0.00545117  1.00437918  0.33840300  1
  Ni  Ni3  1  1.00386222  0.33819597  1.00443273  1
  Fe  Fe4  1  0.17177820  0.50419608  0.17075728  1
  Fe  Fe5  1  0.00541253  0.33822735  0.33746639  1
  Ni  Ni6  1  0.00544506  0.67114317  0.00486136  1
  Fe  Fe7  1  0.17177716  0.83844758  0.17188356  1
  Ni  Ni8  1  1.00460059  0.67181164  0.33797262  1
  Fe  Fe9  1  0.33722461  0.00593686  0.00483260  1
  Ni  Ni10  1  0.50330422  0.17155698  0.17155527  1
  Ni  Ni11  1  0.33740143  1.00437401  0.33782480  1
  Ni  Ni12  1  0.33842482  0.33782533  1.00416417  1
  Fe  Fe13  1  0.50397075  0.50373553  0.17097804  1
  Fe  Fe14  1  0.33728758  0.33800682  0.33700844  1
  Ni  Ni15  1  0.33683161  0.67150995  1.00459247  1
  Fe  Fe16  1  0.50359239  0.83852356  0.17238139  1
  Ni  Ni17  1  0.33787809  0.67218927  0.33824145  1
  Fe  Fe18  1  0.67135686  0.00488894  1.00403297  1
  Fe  Fe19  1  0.83800738  0.17157653  0.17114107  1
  Fe  Fe20  1  0.67091553  1.00293026  0.33844543  1
  Ni  Ni21  1  0.67155133  0.33696741  1.00427191  1
  Fe  Fe22  1  0.83808854  0.50367702  0.17113903  1
  Fe  Fe23  1  0.67113713  0.33832169  0.33780525  1
  Fe  Fe24  1  0.67157927  0.67005745  0.00481410  1
  Fe  Fe25  1  0.83846765  0.83858165  0.17122203  1
  Ni  Ni26  1  0.67136021  0.67058366  0.33813183  1
  Fe  Fe27  1  0.17192483  0.17011613  0.50447218  1
  Fe  Fe28  1  1.00403460  0.00527015  0.67130080  1
  Ni  Ni29  1  0.17167901  0.17223896  0.83802384  1
  Fe  Fe30  1  0.17169903  0.50571215  0.50425260  1
  Fe  Fe31  1  1.00447470  0.33664799  0.67183808  1
  Fe  Fe32  1  0.17070008  0.50491028  0.83882834  1
  Fe  Fe33  1  0.17202600  0.83801048  0.50387240  1
  Fe  Fe34  1  1.00373491  0.67191934  0.67157795  1
  Fe  Fe35  1  0.17097542  0.83801362  0.83808506  1
  Fe  Fe36  1  0.50476622  0.17047244  0.50478915  1
  Ni  Ni37  1  0.33838548  1.00420385  0.67158321  1
  Fe  Fe38  1  0.50505107  0.17099762  0.83806582  1
  Fe  Fe39  1  0.50491230  0.50527058  0.50447104  1
  Fe  Fe40  1  0.33858932  0.33670372  0.67199977  1
  Fe  Fe41  1  0.50461483  0.50417026  0.83838780  1
  Ni  Ni42  1  0.50526108  0.83759462  0.50441867  1
  Fe  Fe43  1  0.33932469  0.67186077  0.67097923  1
  Fe  Fe44  1  0.50425319  0.83866796  0.83698644  1
  Fe  Fe45  1  0.83714723  0.17079801  0.50498856  1
  Ni  Ni46  1  0.67053778  0.00580440  0.67063208  1
  Fe  Fe47  1  0.83786760  0.17127226  0.83770679  1
  Fe  Fe48  1  0.83722752  0.50517252  0.50439178  1
  Ni  Ni49  1  0.67176547  0.33714434  0.67153570  1
  Fe  Fe50  1  0.83852406  0.50411148  0.83830768  1
  Fe  Fe51  1  0.83758518  0.83786649  0.50467035  1
  Fe  Fe52  1  0.67077856  0.67229961  0.67069955  1
  Ni  Ni53  1  0.83726418  0.83691777  0.83738565  1
" 