5702,Ni68Fe32_6,-236.71575928435, 207.5952387045,Ni68Fe32,"# generated using pymatgen
 data_Fe2Ni
_symmetry_space_group_name_H-M   'P 1'
_cell_length_a   7.39316736
_cell_length_b   7.39316736
_cell_length_c   10.45551755
_cell_angle_alpha   90.00000000
_cell_angle_beta   90.00000000
_cell_angle_gamma   90.00000000
_symmetry_Int_Tables_number   1
_chemical_formula_structural   Fe2Ni
_chemical_formula_sum   'Fe36 Ni18'
_cell_volume   571.48733593
_cell_formula_units_Z   18
loop_
 _symmetry_equiv_pos_site_id
 _symmetry_equiv_pos_as_xyz
  1  'x, y, z'
loop_
 _atom_site_type_symbol
 _atom_site_label
 _atom_site_symmetry_multiplicity
 _atom_site_fract_x
 _atom_site_fract_y
 _atom_site_fract_z
 _atom_site_occupancy
  Fe  Fe0  1  0.00554149  1.00420172  1.00403017  1
  Fe  Fe1  1  0.17180997  0.17146031  0.17196107  1
  Fe  Fe2  1  1.00467669  1.00398480  0.33899437  1
  Fe  Fe3  1  0.00591193  0.33849699  0.00557727  1
  Ni  Ni4  1  0.17148615  0.50569123  0.17222208  1
  Ni  Ni5  1  0.00501787  0.33879370  0.33871520  1
  Fe  Fe6  1  0.00638586  0.67229016  0.00587505  1
  Fe  Fe7  1  0.17216270  0.83857063  0.17150187  1
  Ni  Ni8  1  1.00338241  0.67051931  0.33843735  1
  Ni  Ni9  1  0.33832282  1.00492066  1.00364595  1
  Ni  Ni10  1  0.50575320  0.17174551  0.17175783  1
  Ni  Ni11  1  0.33821980  0.00566415  0.33853572  1
  Fe  Fe12  1  0.33862883  0.33828074  1.00479403  1
  Fe  Fe13  1  0.50531490  0.50549342  0.17157998  1
  Fe  Fe14  1  0.33777175  0.33911702  0.33869775  1
  Ni  Ni15  1  0.33911875  0.67261704  0.00511711  1
  Fe  Fe16  1  0.50465974  0.83826575  0.17116690  1
  Fe  Fe17  1  0.33702253  0.67129764  0.33812379  1
  Fe  Fe18  1  0.67052177  1.00496170  1.00486640  1
  Fe  Fe19  1  0.83870314  0.17211534  0.17129301  1
  Fe  Fe20  1  0.67223259  1.00473568  0.33773776  1
  Fe  Fe21  1  0.67045067  0.33744277  1.00470034  1
  Fe  Fe22  1  0.83839055  0.50513522  0.17238397  1
  Fe  Fe23  1  0.67187586  0.33829145  0.33803610  1
  Fe  Fe24  1  0.67074211  0.67258968  1.00499418  1
  Ni  Ni25  1  0.83854111  0.83834663  0.17164693  1
  Ni  Ni26  1  0.67258774  0.67137013  0.33735925  1
  Fe  Fe27  1  0.17166430  0.17166229  0.50499657  1
  Ni  Ni28  1  0.00541103  0.00546326  0.67166010  1
  Fe  Fe29  1  0.17220663  0.17043617  0.83803205  1
  Ni  Ni30  1  0.17127988  0.50623765  0.50521130  1
  Fe  Fe31  1  1.00475705  0.33840393  0.67116822  1
  Fe  Fe32  1  0.17258609  0.50475491  0.83849847  1
  Ni  Ni33  1  0.17127403  0.83651626  0.50402198  1
  Fe  Fe34  1  0.00579175  0.67180805  0.67087260  1
  Ni  Ni35  1  0.17222830  0.83685877  0.83852696  1
  Fe  Fe36  1  0.50332456  0.17174600  0.50482980  1
  Fe  Fe37  1  0.33848160  1.00449103  0.67200595  1
  Ni  Ni38  1  0.50660803  0.17129372  0.83773694  1
  Fe  Fe39  1  0.50445243  0.50579402  0.50546108  1
  Ni  Ni40  1  0.33812252  0.33755803  0.67243507  1
  Fe  Fe41  1  0.50503061  0.50529407  0.83795153  1
  Fe  Fe42  1  0.50437100  0.83744914  0.50519677  1
  Fe  Fe43  1  0.33774726  0.67199525  0.67224785  1
  Ni  Ni44  1  0.50411903  0.83927769  0.83832096  1
  Fe  Fe45  1  0.84000053  0.17174610  0.50566168  1
  Fe  Fe46  1  0.67154590  0.00552832  0.67238324  1
  Ni  Ni47  1  0.83662126  0.17214961  0.83861102  1
  Fe  Fe48  1  0.83908297  0.50600573  0.50448719  1
  Fe  Fe49  1  0.67173522  0.33766608  0.67225268  1
  Fe  Fe50  1  0.83737423  0.50520164  0.83812083  1
  Fe  Fe51  1  0.83916674  0.83723673  0.50441584  1
  Ni  Ni52  1  0.67184474  0.67157988  0.67263470  1
  Fe  Fe53  1  0.83775157  0.83925848  0.83831936  1
" 