3114,Ni68Fe32_11,-237.382625909078, 209.640984122439,Ni68Fe32,"# generated using pymatgen
 data_Fe2Ni
_symmetry_space_group_name_H-M   'P 1'
_cell_length_a   7.39905084
_cell_length_b   7.39905084
_cell_length_c   10.46383805
_cell_angle_alpha   90.00000000
_cell_angle_beta   90.00000000
_cell_angle_gamma   90.00000000
_symmetry_Int_Tables_number   1
_chemical_formula_structural   Fe2Ni
_chemical_formula_sum   'Fe36 Ni18'
_cell_volume   572.85279027
_cell_formula_units_Z   18
loop_
 _symmetry_equiv_pos_site_id
 _symmetry_equiv_pos_as_xyz
  1  'x, y, z'
loop_
 _atom_site_type_symbol
 _atom_site_label
 _atom_site_symmetry_multiplicity
 _atom_site_fract_x
 _atom_site_fract_y
 _atom_site_fract_z
 _atom_site_occupancy
  Ni  Ni0  1  1.00261313  0.00497694  0.00490354  1
  Fe  Fe1  1  0.17099402  0.17329015  0.17157756  1
  Fe  Fe2  1  1.00434634  0.00673325  0.33826160  1
  Ni  Ni3  1  0.00485374  0.33717710  0.00476102  1
  Ni  Ni4  1  0.17254844  0.50535379  0.17132570  1
  Fe  Fe5  1  1.00365779  0.33716492  0.33740847  1
  Ni  Ni6  1  0.00482000  0.67181400  1.00355571  1
  Fe  Fe7  1  0.17008264  0.83802556  0.16979952  1
  Fe  Fe8  1  1.00368573  0.67004585  0.33714135  1
  Fe  Fe9  1  0.33527068  0.00464471  1.00448954  1
  Fe  Fe10  1  0.50393766  0.17252298  0.17202702  1
  Fe  Fe11  1  0.33942821  0.00618005  0.33845835  1
  Ni  Ni12  1  0.33854106  0.33855883  1.00350445  1
  Fe  Fe13  1  0.50471333  0.50300800  0.17121661  1
  Ni  Ni14  1  0.33819544  0.33924633  0.33894390  1
  Ni  Ni15  1  0.33900779  0.67058694  0.00520353  1
  Fe  Fe16  1  0.50505903  0.83830961  0.17182628  1
  Fe  Fe17  1  0.33936525  0.67146267  0.33790711  1
  Fe  Fe18  1  0.67170376  0.00491630  0.00545214  1
  Ni  Ni19  1  0.83683618  0.17111342  0.17183716  1
  Ni  Ni20  1  0.67331837  1.00457754  0.33903711  1
  Fe  Fe21  1  0.67295491  0.33826961  0.00505147  1
  Fe  Fe22  1  0.83955592  0.50387494  0.17174690  1
  Ni  Ni23  1  0.67054020  0.33702976  0.33783790  1
  Fe  Fe24  1  0.67250219  0.67065992  1.00417283  1
  Fe  Fe25  1  0.83865236  0.83779274  0.17075524  1
  Fe  Fe26  1  0.67083218  0.67034071  0.33851387  1
  Ni  Ni27  1  0.17131426  0.17092256  0.50409396  1
  Ni  Ni28  1  1.00289273  0.00499583  0.67099445  1
  Fe  Fe29  1  0.16889447  0.16939043  0.83753075  1
  Fe  Fe30  1  0.16986884  0.50338628  0.50353732  1
  Fe  Fe31  1  0.00476202  0.33765076  0.67102192  1
  Fe  Fe32  1  0.17044833  0.50504166  0.83941365  1
  Fe  Fe33  1  0.16953991  0.83807995  0.50599075  1
  Fe  Fe34  1  0.00508007  0.67177144  0.67204829  1
  Ni  Ni35  1  0.17227607  0.83695154  0.83824991  1
  Fe  Fe36  1  0.50528901  0.17217628  0.50396702  1
  Fe  Fe37  1  0.33616596  1.00342127  0.67093238  1
  Fe  Fe38  1  0.50470902  0.17005582  0.83830966  1
  Fe  Fe39  1  0.50486245  0.50288919  0.50499137  1
  Fe  Fe40  1  0.33662092  0.33701512  0.67110717  1
  Fe  Fe41  1  0.50490531  0.50557644  0.83758506  1
  Fe  Fe42  1  0.50529541  0.83854367  0.50450959  1
  Ni  Ni43  1  0.33821847  0.66960364  0.67046319  1
  Fe  Fe44  1  0.50494882  0.83785849  0.83779299  1
  Ni  Ni45  1  0.83822562  0.17244678  0.50480802  1
  Fe  Fe46  1  0.67120902  1.00419998  0.67070367  1
  Ni  Ni47  1  0.83690809  0.17140074  0.83752692  1
  Ni  Ni48  1  0.83714694  0.50428462  0.50407793  1
  Fe  Fe49  1  0.67206484  0.33784349  0.67048367  1
  Fe  Fe50  1  0.83905391  0.50519220  0.83730397  1
  Fe  Fe51  1  0.83892311  0.83858677  0.50508652  1
  Fe  Fe52  1  0.67210382  0.67194000  0.67097494  1
  Ni  Ni53  1  0.83838437  0.83922657  0.83790719  1
" 