7894,Ni68Fe27Cr4_9,-240.751990693602, 213.098465350628,Ni68Fe27Cr4,"# generated using pymatgen
 data_CrFe5Ni12
_symmetry_space_group_name_H-M   'P 1'
_cell_length_a   7.42025182
_cell_length_b   7.42025182
_cell_length_c   10.49382076
_cell_angle_alpha   90.00000000
_cell_angle_beta   90.00000000
_cell_angle_gamma   90.00000000
_symmetry_Int_Tables_number   1
_chemical_formula_structural   CrFe5Ni12
_chemical_formula_sum   'Cr3 Fe15 Ni36'
_cell_volume   577.79120955
_cell_formula_units_Z   3
loop_
 _symmetry_equiv_pos_site_id
 _symmetry_equiv_pos_as_xyz
  1  'x, y, z'
loop_
 _atom_site_type_symbol
 _atom_site_label
 _atom_site_symmetry_multiplicity
 _atom_site_fract_x
 _atom_site_fract_y
 _atom_site_fract_z
 _atom_site_occupancy
  Ni  Ni0  1  1.00214011  1.00301460  1.00289672  1
  Ni  Ni1  1  0.16989243  0.17079904  0.17008164  1
  Fe  Fe2  1  1.00221535  0.00321407  0.33563427  1
  Fe  Fe3  1  0.00344639  0.33675808  1.00237496  1
  Ni  Ni4  1  0.17046594  0.50306964  0.17010679  1
  Fe  Fe5  1  0.00370464  0.33601169  0.33632071  1
  Ni  Ni6  1  0.00324406  0.67069664  1.00299783  1
  Ni  Ni7  1  0.17013942  0.83558964  0.17027025  1
  Fe  Fe8  1  0.00359718  0.67023318  0.33533530  1
  Fe  Fe9  1  0.33642758  1.00236373  1.00259270  1
  Ni  Ni10  1  0.50352045  0.16996380  0.17047149  1
  Fe  Fe11  1  0.33800756  1.00302052  0.33646354  1
  Ni  Ni12  1  0.33562217  0.33704743  1.00314410  1
  Ni  Ni13  1  0.50238372  0.50334660  0.17049763  1
  Ni  Ni14  1  0.33584299  0.33747428  0.33703676  1
  Ni  Ni15  1  0.33611065  0.66843121  1.00283409  1
  Ni  Ni16  1  0.50355128  0.83614711  0.16991518  1
  Ni  Ni17  1  0.33636520  0.66847386  0.33681561  1
  Ni  Ni18  1  0.67140421  1.00252774  1.00302334  1
  Ni  Ni19  1  0.83604877  0.16963507  0.17012954  1
  Ni  Ni20  1  0.67138280  1.00280152  0.33690012  1
  Fe  Fe21  1  0.66979412  0.33656700  1.00305773  1
  Fe  Fe22  1  0.83600190  0.50358384  0.16961643  1
  Ni  Ni23  1  0.66880018  0.33527724  0.33592232  1
  Ni  Ni24  1  0.67010534  0.67099167  0.00367157  1
  Ni  Ni25  1  0.83577269  0.83672731  0.17035618  1
  Ni  Ni26  1  0.66899036  0.67138204  0.33527661  1
  Fe  Fe27  1  0.16862850  0.16908129  0.50268015  1
  Fe  Fe28  1  1.00275988  0.00369460  0.67049444  1
  Ni  Ni29  1  0.16946411  0.16998861  0.83686055  1
  Ni  Ni30  1  0.17081483  0.50371869  0.50274563  1
  Ni  Ni31  1  1.00275272  0.33515252  0.67087158  1
  Ni  Ni32  1  0.16853539  0.50404946  0.83660827  1
  Fe  Fe33  1  0.16987120  0.83602194  0.50346570  1
  Fe  Fe34  1  0.00542829  0.67016236  0.67125267  1
  Ni  Ni35  1  0.17079809  0.83541960  0.83538486  1
  Fe  Fe36  1  0.50494794  0.16887902  0.50254720  1
  Ni  Ni37  1  0.33615776  1.00153605  0.67011145  1
  Ni  Ni38  1  0.50430869  0.16838966  0.83651895  1
  Fe  Fe39  1  0.50222618  0.50364341  0.50074541  1
  Cr  Cr40  1  0.33578521  0.33720470  0.66964303  1
  Fe  Fe41  1  0.50301284  0.50330839  0.83849033  1
  Ni  Ni42  1  0.50246772  0.83757630  0.50240250  1
  Ni  Ni43  1  0.33452531  0.67118392  0.66980900  1
  Ni  Ni44  1  0.50221600  0.83777715  0.83714185  1
  Ni  Ni45  1  0.83565602  0.16868848  0.50408091  1
  Ni  Ni46  1  0.67090329  0.00439860  0.66953573  1
  Ni  Ni47  1  0.83568793  0.17065339  0.83524911  1
  Cr  Cr48  1  0.83753872  0.50169290  0.50216872  1
  Ni  Ni49  1  0.67165294  0.33352608  0.67072774  1
  Ni  Ni50  1  0.83804514  0.50195680  0.83693623  1
  Ni  Ni51  1  0.83567351  0.83917329  0.50274174  1
  Cr  Cr52  1  0.66899143  0.67139874  0.67095634  1
  Ni  Ni53  1  0.83644822  0.83685090  0.83636190  1
" 