4195,Ni68Fe27Cr4_5,-240.089629336652, 207.507173095556,Ni68Fe27Cr4,"# generated using pymatgen
 data_CrFe5Ni12
_symmetry_space_group_name_H-M   'P 1'
_cell_length_a   7.42304336
_cell_length_b   7.42304336
_cell_length_c   10.49776859
_cell_angle_alpha   90.00000000
_cell_angle_beta   90.00000000
_cell_angle_gamma   90.00000000
_symmetry_Int_Tables_number   1
_chemical_formula_structural   CrFe5Ni12
_chemical_formula_sum   'Cr3 Fe15 Ni36'
_cell_volume   578.44355978
_cell_formula_units_Z   3
loop_
 _symmetry_equiv_pos_site_id
 _symmetry_equiv_pos_as_xyz
  1  'x, y, z'
loop_
 _atom_site_type_symbol
 _atom_site_label
 _atom_site_symmetry_multiplicity
 _atom_site_fract_x
 _atom_site_fract_y
 _atom_site_fract_z
 _atom_site_occupancy
  Ni  Ni0  1  0.00315825  1.00209953  0.00372917  1
  Fe  Fe1  1  0.17091681  0.16885031  0.16862879  1
  Ni  Ni2  1  0.00422207  0.00348667  0.33584772  1
  Ni  Ni3  1  1.00273701  0.33559598  1.00204457  1
  Cr  Cr4  1  0.16885712  0.50286063  0.17001592  1
  Ni  Ni5  1  0.00352432  0.33506960  0.33588255  1
  Ni  Ni6  1  1.00213516  0.67117901  1.00176191  1
  Fe  Fe7  1  0.17015736  0.83657616  0.17085050  1
  Ni  Ni8  1  1.00152313  0.67033411  0.33707935  1
  Fe  Fe9  1  0.33502105  0.00408261  1.00261439  1
  Fe  Fe10  1  0.50116450  0.17134785  0.16909215  1
  Ni  Ni11  1  0.33539701  0.00383425  0.33530444  1
  Ni  Ni12  1  0.33774878  0.33582338  1.00119774  1
  Ni  Ni13  1  0.50342412  0.50442860  0.17026720  1
  Ni  Ni14  1  0.33693428  0.33565902  0.33738071  1
  Fe  Fe15  1  0.33600133  0.66883736  1.00214853  1
  Ni  Ni16  1  0.50232973  0.83633273  0.16874951  1
  Ni  Ni17  1  0.33784034  0.66987029  0.33684620  1
  Fe  Fe18  1  0.67047195  0.00407881  1.00249763  1
  Fe  Fe19  1  0.83689448  0.17078674  0.16876660  1
  Cr  Cr20  1  0.66930115  1.00184313  0.33741216  1
  Ni  Ni21  1  0.66816744  0.33673964  0.00349450  1
  Fe  Fe22  1  0.83467691  0.50360594  0.16927715  1
  Fe  Fe23  1  0.66961807  0.33751348  0.33687923  1
  Fe  Fe24  1  0.66974082  0.66832843  0.00318831  1
  Fe  Fe25  1  0.83691158  0.83415046  0.16910450  1
  Ni  Ni26  1  0.66920069  0.66881775  0.33558272  1
  Fe  Fe27  1  0.17058522  0.17043119  0.50357650  1
  Ni  Ni28  1  1.00282154  1.00294505  0.66904786  1
  Ni  Ni29  1  0.16821071  0.16975957  0.83631761  1
  Ni  Ni30  1  0.16871044  0.50449691  0.50312446  1
  Ni  Ni31  1  0.00310655  0.33663103  0.67097459  1
  Ni  Ni32  1  0.16855625  0.50301474  0.83631327  1
  Ni  Ni33  1  0.17046110  0.83593523  0.50174007  1
  Ni  Ni34  1  0.00407881  0.66928705  0.66968734  1
  Fe  Fe35  1  0.16939127  0.83689178  0.83505060  1
  Ni  Ni36  1  0.50395309  0.16896077  0.50353058  1
  Ni  Ni37  1  0.33678396  0.00349199  0.66976841  1
  Ni  Ni38  1  0.50396796  0.16830487  0.83680550  1
  Ni  Ni39  1  0.50168705  0.50284462  0.50117755  1
  Ni  Ni40  1  0.33698152  0.33645626  0.67041217  1
  Ni  Ni41  1  0.50217290  0.50299579  0.83745704  1
  Ni  Ni42  1  0.49956827  0.83710861  0.50257557  1
  Ni  Ni43  1  0.33540781  0.66917492  0.67009551  1
  Ni  Ni44  1  0.50199255  0.83771614  0.83764280  1
  Ni  Ni45  1  0.83766761  0.17045855  0.50395948  1
  Ni  Ni46  1  0.66945972  0.00415239  0.67074718  1
  Ni  Ni47  1  0.83671316  0.16965061  0.83667907  1
  Ni  Ni48  1  0.83859644  0.50018537  0.50062792  1
  Ni  Ni49  1  0.66903130  0.33526994  0.66956739  1
  Ni  Ni50  1  0.83812353  0.50065929  0.83827677  1
  Fe  Fe51  1  0.83734810  0.83546908  0.50322055  1
  Cr  Cr52  1  0.66965159  0.66848747  0.66921211  1
  Fe  Fe53  1  0.83695367  0.83714591  0.83682558  1
" 