7649,Ni68Fe32_8,-236.895195037842, 203.718047565225,Ni68Fe32,"# generated using pymatgen
 data_Fe2Ni
_symmetry_space_group_name_H-M   'P 1'
_cell_length_a   7.39793315
_cell_length_b   7.39793315
_cell_length_c   10.46225739
_cell_angle_alpha   90.00000000
_cell_angle_beta   90.00000000
_cell_angle_gamma   90.00000000
_symmetry_Int_Tables_number   1
_chemical_formula_structural   Fe2Ni
_chemical_formula_sum   'Fe36 Ni18'
_cell_volume   572.59322549
_cell_formula_units_Z   18
loop_
 _symmetry_equiv_pos_site_id
 _symmetry_equiv_pos_as_xyz
  1  'x, y, z'
loop_
 _atom_site_type_symbol
 _atom_site_label
 _atom_site_symmetry_multiplicity
 _atom_site_fract_x
 _atom_site_fract_y
 _atom_site_fract_z
 _atom_site_occupancy
  Fe  Fe0  1  0.00471699  1.00437567  1.00463845  1
  Ni  Ni1  1  0.17227510  0.17183035  0.17007838  1
  Ni  Ni2  1  0.00565367  0.00486596  0.33804882  1
  Fe  Fe3  1  0.00546988  0.33942658  0.00471897  1
  Ni  Ni4  1  0.17140584  0.50440853  0.17168732  1
  Fe  Fe5  1  1.00411449  0.33683955  0.33823173  1
  Ni  Ni6  1  0.00638579  0.67155698  1.00402842  1
  Fe  Fe7  1  0.17192308  0.83851181  0.17108917  1
  Fe  Fe8  1  1.00333686  0.67206354  0.33755442  1
  Fe  Fe9  1  0.33825512  1.00466727  0.00552505  1
  Ni  Ni10  1  0.50433265  0.17056876  0.17167044  1
  Ni  Ni11  1  0.33682450  0.00486064  0.33867033  1
  Fe  Fe12  1  0.33742438  0.33904358  0.00493997  1
  Fe  Fe13  1  0.50416367  0.50363035  0.17175382  1
  Fe  Fe14  1  0.33863929  0.33675534  0.33779522  1
  Ni  Ni15  1  0.33667667  0.67117074  1.00451724  1
  Fe  Fe16  1  0.50341546  0.83851861  0.17162173  1
  Fe  Fe17  1  0.33910425  0.67184164  0.33750335  1
  Fe  Fe18  1  0.67104423  1.00422517  0.00506948  1
  Fe  Fe19  1  0.83798567  0.17193237  0.17195491  1
  Ni  Ni20  1  0.67154046  0.00561664  0.33886902  1
  Ni  Ni21  1  0.67095429  0.33786622  1.00429963  1
  Fe  Fe22  1  0.83800736  0.50357184  0.17158455  1
  Ni  Ni23  1  0.67116161  0.33859731  0.33897775  1
  Fe  Fe24  1  0.67142619  0.67105914  0.00494043  1
  Fe  Fe25  1  0.83867702  0.83851010  0.17211916  1
  Ni  Ni26  1  0.67115232  0.66979602  0.33759939  1
  Ni  Ni27  1  0.17107961  0.17076667  0.50477684  1
  Ni  Ni28  1  0.00513300  1.00465511  0.67144921  1
  Fe  Fe29  1  0.17112052  0.17139046  0.83745951  1
  Fe  Fe30  1  0.17040262  0.50431810  0.50499421  1
  Fe  Fe31  1  0.00491124  0.33748101  0.67105250  1
  Ni  Ni32  1  0.17151778  0.50483109  0.83777861  1
  Fe  Fe33  1  0.17016409  0.83865807  0.50470277  1
  Fe  Fe34  1  1.00444674  0.67155804  0.67195255  1
  Fe  Fe35  1  0.17120596  0.83727563  0.83822283  1
  Fe  Fe36  1  0.50589625  0.17173333  0.50367994  1
  Fe  Fe37  1  0.33736000  0.00497419  0.67085472  1
  Fe  Fe38  1  0.50454533  0.17206077  0.83889768  1
  Ni  Ni39  1  0.50517838  0.50534543  0.50446586  1
  Fe  Fe40  1  0.33712179  0.33771648  0.67127194  1
  Fe  Fe41  1  0.50423594  0.50467312  0.83776620  1
  Fe  Fe42  1  0.50574264  0.83804516  0.50417325  1
  Fe  Fe43  1  0.33758289  0.67132481  0.67216561  1
  Fe  Fe44  1  0.50378191  0.83727952  0.83822536  1
  Ni  Ni45  1  0.83861357  0.16999280  0.50408033  1
  Fe  Fe46  1  0.67221472  1.00451091  0.67089375  1
  Fe  Fe47  1  0.83834798  0.17184539  0.83749963  1
  Ni  Ni48  1  0.83688142  0.50571781  0.50494948  1
  Fe  Fe49  1  0.67198072  0.33771304  0.67091997  1
  Fe  Fe50  1  0.83836011  0.50458976  0.83810249  1
  Ni  Ni51  1  0.83734947  0.83830240  0.50482731  1
  Fe  Fe52  1  0.67197342  0.67179490  0.67009626  1
  Fe  Fe53  1  0.83902987  0.83758011  0.83749890  1
" 