4849,Ni68Fe27Cr4_6,-240.572257750084, 210.864383206833,Ni68Fe27Cr4,"# generated using pymatgen
 data_CrFe5Ni12
_symmetry_space_group_name_H-M   'P 1'
_cell_length_a   7.42051321
_cell_length_b   7.42051321
_cell_length_c   10.49419043
_cell_angle_alpha   90.00000000
_cell_angle_beta   90.00000000
_cell_angle_gamma   90.00000000
_symmetry_Int_Tables_number   1
_chemical_formula_structural   CrFe5Ni12
_chemical_formula_sum   'Cr3 Fe15 Ni36'
_cell_volume   577.85227333
_cell_formula_units_Z   3
loop_
 _symmetry_equiv_pos_site_id
 _symmetry_equiv_pos_as_xyz
  1  'x, y, z'
loop_
 _atom_site_type_symbol
 _atom_site_label
 _atom_site_symmetry_multiplicity
 _atom_site_fract_x
 _atom_site_fract_y
 _atom_site_fract_z
 _atom_site_occupancy
  Ni  Ni0  1  1.00268126  0.00526522  0.00356253  1
  Ni  Ni1  1  0.17052192  0.16905799  0.16896003  1
  Ni  Ni2  1  0.00470385  1.00255154  0.33678852  1
  Ni  Ni3  1  0.00372701  0.33551515  0.00324526  1
  Ni  Ni4  1  0.17029096  0.50383813  0.16897957  1
  Cr  Cr5  1  1.00275309  0.33630348  0.33681063  1
  Fe  Fe6  1  1.00268738  0.66965797  0.00315609  1
  Fe  Fe7  1  0.16939906  0.83654973  0.16951234  1
  Ni  Ni8  1  0.00343443  0.67036396  0.33551850  1
  Fe  Fe9  1  0.33683335  1.00290281  1.00275540  1
  Ni  Ni10  1  0.50211084  0.16984709  0.16918179  1
  Fe  Fe11  1  0.33467206  0.00319699  0.33642577  1
  Fe  Fe12  1  0.33616317  0.33617007  0.00358880  1
  Ni  Ni13  1  0.50317744  0.50388413  0.16982462  1
  Fe  Fe14  1  0.33759963  0.33660125  0.33648683  1
  Ni  Ni15  1  0.33768139  0.66942184  0.00366705  1
  Ni  Ni16  1  0.50318746  0.83567633  0.16943982  1
  Fe  Fe17  1  0.33624314  0.66960799  0.33627004  1
  Ni  Ni18  1  0.66955011  1.00291711  1.00305251  1
  Ni  Ni19  1  0.83677317  0.16904609  0.16850041  1
  Cr  Cr20  1  0.67011481  0.00331276  0.33652727  1
  Fe  Fe21  1  0.67050165  0.33623005  1.00295762  1
  Ni  Ni22  1  0.83593668  0.50492072  0.16983410  1
  Fe  Fe23  1  0.66912237  0.33837351  0.33702862  1
  Ni  Ni24  1  0.66770563  0.67046869  0.00319852  1
  Ni  Ni25  1  0.83672548  0.83544365  0.16850131  1
  Ni  Ni26  1  0.66876181  0.66848985  0.33673895  1
  Ni  Ni27  1  0.16992143  0.16965813  0.50358907  1
  Ni  Ni28  1  1.00125547  0.00435973  0.66905799  1
  Ni  Ni29  1  0.16900476  0.17038206  0.83685724  1
  Ni  Ni30  1  0.17071497  0.50401268  0.50458706  1
  Ni  Ni31  1  1.00260626  0.33663011  0.66952947  1
  Ni  Ni32  1  0.16911211  0.50374681  0.83583764  1
  Fe  Fe33  1  0.16797354  0.83556286  0.50305957  1
  Ni  Ni34  1  0.00442221  0.66841848  0.66997928  1
  Ni  Ni35  1  0.16985949  0.83527717  0.83724475  1
  Ni  Ni36  1  0.50287898  0.17123824  0.50298090  1
  Cr  Cr37  1  0.33700615  1.00253060  0.67006679  1
  Ni  Ni38  1  0.50404472  0.16901837  0.83724301  1
  Ni  Ni39  1  0.50285393  0.50320332  0.50343874  1
  Fe  Fe40  1  0.33583280  0.33758478  0.66933154  1
  Fe  Fe41  1  0.50254781  0.50324636  0.83644214  1
  Fe  Fe42  1  0.50374093  0.83478396  0.50335935  1
  Ni  Ni43  1  0.33627462  0.66809853  0.66926245  1
  Ni  Ni44  1  0.50350769  0.83632040  0.83675108  1
  Ni  Ni45  1  0.83660467  0.16862000  0.50507197  1
  Ni  Ni46  1  0.67087031  0.00433283  0.66987675  1
  Ni  Ni47  1  0.83635762  0.16977074  0.83583424  1
  Ni  Ni48  1  0.83583792  0.50502945  0.50341220  1
  Ni  Ni49  1  0.67055644  0.33561954  0.66918389  1
  Ni  Ni50  1  0.83740377  0.50321212  0.83615790  1
  Ni  Ni51  1  0.83741677  0.83575922  0.50475700  1
  Fe  Fe52  1  0.67073696  0.66978624  0.66944666  1
  Fe  Fe53  1  0.83691685  0.83750148  0.83644670  1
" 