675,Ni68Fe27Cr4_12,-240.66461355683, 210.453137107418,Ni68Fe27Cr4,"# generated using pymatgen
 data_CrFe5Ni12
_symmetry_space_group_name_H-M   'P 1'
_cell_length_a   7.42417963
_cell_length_b   7.42417963
_cell_length_c   10.49937553
_cell_angle_alpha   90.00000000
_cell_angle_beta   90.00000000
_cell_angle_gamma   90.00000000
_symmetry_Int_Tables_number   1
_chemical_formula_structural   CrFe5Ni12
_chemical_formula_sum   'Cr3 Fe15 Ni36'
_cell_volume   578.70923361
_cell_formula_units_Z   3
loop_
 _symmetry_equiv_pos_site_id
 _symmetry_equiv_pos_as_xyz
  1  'x, y, z'
loop_
 _atom_site_type_symbol
 _atom_site_label
 _atom_site_symmetry_multiplicity
 _atom_site_fract_x
 _atom_site_fract_y
 _atom_site_fract_z
 _atom_site_occupancy
  Ni  Ni0  1  1.00248189  1.00129557  1.00123501  1
  Cr  Cr1  1  0.17120599  0.17057202  0.16895788  1
  Ni  Ni2  1  1.00210064  1.00064406  0.33766237  1
  Ni  Ni3  1  1.00151596  0.33736776  1.00169778  1
  Ni  Ni4  1  0.16943408  0.50326566  0.17044689  1
  Fe  Fe5  1  0.00360337  0.33697768  0.33793584  1
  Fe  Fe6  1  1.00184858  0.66911015  0.00303370  1
  Fe  Fe7  1  0.16927913  0.83544302  0.17002249  1
  Fe  Fe8  1  0.00330141  0.66953972  0.33555286  1
  Ni  Ni9  1  0.33619230  1.00269389  1.00253872  1
  Ni  Ni10  1  0.50247415  0.16922361  0.17025168  1
  Ni  Ni11  1  0.33664502  1.00088603  0.33644787  1
  Ni  Ni12  1  0.33752339  0.33633249  1.00233032  1
  Ni  Ni13  1  0.50296110  0.50296249  0.17081170  1
  Ni  Ni14  1  0.33790831  0.33856374  0.33616799  1
  Cr  Cr15  1  0.33613956  0.66951894  0.00346735  1
  Ni  Ni16  1  0.50452149  0.83648538  0.16986297  1
  Ni  Ni17  1  0.33587261  0.66921179  0.33568064  1
  Fe  Fe18  1  0.66872461  0.00325348  1.00226583  1
  Cr  Cr19  1  0.83531739  0.16869400  0.16909042  1
  Ni  Ni20  1  0.66991930  1.00268446  0.33610171  1
  Ni  Ni21  1  0.66962278  0.33733728  1.00243043  1
  Ni  Ni22  1  0.83626634  0.50530809  0.16945108  1
  Ni  Ni23  1  0.66891894  0.33702075  0.33656835  1
  Fe  Fe24  1  0.67111396  0.66917676  0.00344780  1
  Ni  Ni25  1  0.83529741  0.83471886  0.16996012  1
  Fe  Fe26  1  0.66827014  0.67017838  0.33563370  1
  Ni  Ni27  1  0.16804918  0.17014492  0.50334350  1
  Ni  Ni28  1  1.00223080  1.00282880  0.66976131  1
  Ni  Ni29  1  0.16915547  0.16972775  0.83616259  1
  Ni  Ni30  1  0.17065966  0.50196031  0.50290048  1
  Ni  Ni31  1  1.00199805  0.33604890  0.66957833  1
  Ni  Ni32  1  0.16995337  0.50180442  0.83531995  1
  Fe  Fe33  1  0.17045372  0.83660891  0.50326405  1
  Fe  Fe34  1  0.00373296  0.66954013  0.67007008  1
  Ni  Ni35  1  0.16788055  0.83712306  0.83525412  1
  Fe  Fe36  1  0.50255135  0.16999927  0.50274144  1
  Ni  Ni37  1  0.33584344  1.00127932  0.66967098  1
  Ni  Ni38  1  0.50285359  0.17023015  0.83603216  1
  Ni  Ni39  1  0.50182782  0.50422671  0.50252889  1
  Ni  Ni40  1  0.33641320  0.33794648  0.67016587  1
  Ni  Ni41  1  0.50259982  0.50185455  0.83531680  1
  Ni  Ni42  1  0.50343728  0.83532171  0.50349955  1
  Ni  Ni43  1  0.33615602  0.66944051  0.66955229  1
  Fe  Fe44  1  0.50262667  0.83772585  0.83496344  1
  Ni  Ni45  1  0.83741405  0.16853906  0.50277507  1
  Ni  Ni46  1  0.67058575  0.00309077  0.66992736  1
  Ni  Ni47  1  0.83664812  0.16815563  0.83644609  1
  Fe  Fe48  1  0.83599416  0.50169936  0.50258534  1
  Ni  Ni49  1  0.67024803  0.33636572  0.66966549  1
  Fe  Fe50  1  0.83659922  0.50162431  0.83681040  1
  Fe  Fe51  1  0.83627386  0.83710140  0.50282191  1
  Fe  Fe52  1  0.66865276  0.66966547  0.66958339  1
  Ni  Ni53  1  0.83660205  0.83738124  0.83610640  1
" 