1053,Ni68Fe32_17,-237.349974186025, 208.457511009668,Ni68Fe32,"# generated using pymatgen
 data_Fe2Ni
_symmetry_space_group_name_H-M   'P 1'
_cell_length_a   7.39541030
_cell_length_b   7.39541030
_cell_length_c   10.45868955
_cell_angle_alpha   90.00000000
_cell_angle_beta   90.00000000
_cell_angle_gamma   90.00000000
_symmetry_Int_Tables_number   1
_chemical_formula_structural   Fe2Ni
_chemical_formula_sum   'Fe36 Ni18'
_cell_volume   572.00762698
_cell_formula_units_Z   18
loop_
 _symmetry_equiv_pos_site_id
 _symmetry_equiv_pos_as_xyz
  1  'x, y, z'
loop_
 _atom_site_type_symbol
 _atom_site_label
 _atom_site_symmetry_multiplicity
 _atom_site_fract_x
 _atom_site_fract_y
 _atom_site_fract_z
 _atom_site_occupancy
  Fe  Fe0  1  0.00526934  1.00379969  1.00376026  1
  Fe  Fe1  1  0.17171388  0.17191568  0.17197702  1
  Fe  Fe2  1  1.00290359  0.00485655  0.33937804  1
  Fe  Fe3  1  0.00574030  0.34006939  0.00555221  1
  Ni  Ni4  1  0.17187651  0.50505683  0.17310605  1
  Fe  Fe5  1  1.00382412  0.33761169  0.33764428  1
  Ni  Ni6  1  0.00557915  0.67174851  1.00438615  1
  Fe  Fe7  1  0.17167846  0.83740177  0.17141848  1
  Fe  Fe8  1  1.00396702  0.67228702  0.33720828  1
  Fe  Fe9  1  0.33808901  1.00358832  0.00498288  1
  Fe  Fe10  1  0.50439205  0.17175994  0.17156583  1
  Ni  Ni11  1  0.33725147  0.00503512  0.33807621  1
  Fe  Fe12  1  0.33723656  0.33956705  1.00434826  1
  Fe  Fe13  1  0.50427132  0.50507939  0.17159657  1
  Fe  Fe14  1  0.34014375  0.33777126  0.33874573  1
  Ni  Ni15  1  0.33758834  0.67155960  1.00461874  1
  Fe  Fe16  1  0.50418705  0.83771791  0.17167255  1
  Fe  Fe17  1  0.34032138  0.67203158  0.33767729  1
  Fe  Fe18  1  0.67107265  1.00299494  0.00485281  1
  Fe  Fe19  1  0.83825433  0.17195587  0.17211075  1
  Ni  Ni20  1  0.67056026  0.00495480  0.33882756  1
  Fe  Fe21  1  0.67157029  0.33935966  1.00442123  1
  Fe  Fe22  1  0.83889996  0.50511225  0.17070216  1
  Ni  Ni23  1  0.67202833  0.33838967  0.33774410  1
  Fe  Fe24  1  0.67142883  0.67201142  1.00422817  1
  Fe  Fe25  1  0.83849008  0.83755356  0.17106526  1
  Ni  Ni26  1  0.67258233  0.67099499  0.33724278  1
  Fe  Fe27  1  0.17232812  0.17171787  0.50551568  1
  Ni  Ni28  1  0.00516506  1.00320488  0.67188401  1
  Fe  Fe29  1  0.17198886  0.17135311  0.83738140  1
  Fe  Fe30  1  0.17268148  0.50547071  0.50402100  1
  Fe  Fe31  1  1.00471716  0.33750136  0.67172133  1
  Fe  Fe32  1  0.17266670  0.50625113  0.83930867  1
  Ni  Ni33  1  0.17050090  0.83852061  0.50335737  1
  Fe  Fe34  1  0.00554910  0.67090438  0.67263061  1
  Ni  Ni35  1  0.17141883  0.83906756  0.83874373  1
  Fe  Fe36  1  0.50435937  0.17155329  0.50515146  1
  Fe  Fe37  1  0.33765623  0.00546000  0.67101653  1
  Ni  Ni38  1  0.50442485  0.17184846  0.83847314  1
  Ni  Ni39  1  0.50578309  0.50358877  0.50355570  1
  Ni  Ni40  1  0.33924349  0.33958517  0.67219752  1
  Ni  Ni41  1  0.50580933  0.50431108  0.83940156  1
  Fe  Fe42  1  0.50417442  0.83707036  0.50407333  1
  Fe  Fe43  1  0.33831270  0.67124156  0.67207179  1
  Ni  Ni44  1  0.50434552  0.83873330  0.83722398  1
  Fe  Fe45  1  0.83771924  0.17170275  0.50512365  1
  Fe  Fe46  1  0.67135369  0.00589534  0.67177742  1
  Fe  Fe47  1  0.83673744  0.17062106  0.83772150  1
  Fe  Fe48  1  0.83774977  0.50525315  0.50517776  1
  Ni  Ni49  1  0.67051544  0.33884051  0.67184088  1
  Ni  Ni50  1  0.83831972  0.50442430  0.83832878  1
  Fe  Fe51  1  0.83746113  0.83739623  0.50540884  1
  Fe  Fe52  1  0.67091494  0.67039984  0.67168030  1
  Ni  Ni53  1  0.83872463  0.83744037  0.83784400  1
" 