3119,Ni68Fe32_16,-236.796579795128, 208.504444151554,Ni68Fe32,"# generated using pymatgen
 data_Fe2Ni
_symmetry_space_group_name_H-M   'P 1'
_cell_length_a   7.39371690
_cell_length_b   7.39371690
_cell_length_c   10.45629472
_cell_angle_alpha   90.00000000
_cell_angle_beta   90.00000000
_cell_angle_gamma   90.00000000
_symmetry_Int_Tables_number   1
_chemical_formula_structural   Fe2Ni
_chemical_formula_sum   'Fe36 Ni18'
_cell_volume   571.61478279
_cell_formula_units_Z   18
loop_
 _symmetry_equiv_pos_site_id
 _symmetry_equiv_pos_as_xyz
  1  'x, y, z'
loop_
 _atom_site_type_symbol
 _atom_site_label
 _atom_site_symmetry_multiplicity
 _atom_site_fract_x
 _atom_site_fract_y
 _atom_site_fract_z
 _atom_site_occupancy
  Fe  Fe0  1  1.00400082  0.00526244  0.00532255  1
  Ni  Ni1  1  0.17081962  0.17163303  0.17108393  1
  Fe  Fe2  1  0.00553956  0.00526551  0.33804736  1
  Ni  Ni3  1  0.00539512  0.33795715  0.00536051  1
  Fe  Fe4  1  0.17172785  0.50479938  0.17183559  1
  Fe  Fe5  1  0.00542598  0.33822238  0.33805349  1
  Fe  Fe6  1  1.00394027  0.67162408  1.00472364  1
  Fe  Fe7  1  0.17178001  0.83844384  0.17153897  1
  Fe  Fe8  1  0.00548808  0.67138894  0.33846929  1
  Fe  Fe9  1  0.33883582  0.00531393  1.00472463  1
  Fe  Fe10  1  0.50541003  0.17130496  0.17105831  1
  Fe  Fe11  1  0.33805845  1.00489884  0.33804422  1
  Fe  Fe12  1  0.33915920  0.33814093  0.00535133  1
  Ni  Ni13  1  0.50475684  0.50568822  0.17113030  1
  Ni  Ni14  1  0.33763443  0.33883010  0.33808311  1
  Fe  Fe15  1  0.33904401  0.67142151  0.00540767  1
  Ni  Ni16  1  0.50508251  0.83699510  0.17109232  1
  Ni  Ni17  1  0.33817757  0.67101519  0.33855310  1
  Ni  Ni18  1  0.67160447  1.00453714  0.00504627  1
  Ni  Ni19  1  0.83930603  0.17130754  0.17106555  1
  Fe  Fe20  1  0.67128058  0.00496210  0.33804459  1
  Ni  Ni21  1  0.67222399  0.33794889  0.00498243  1
  Fe  Fe22  1  0.83794954  0.50486438  0.17134553  1
  Fe  Fe23  1  0.67105631  0.33885783  0.33832374  1
  Ni  Ni24  1  0.67133931  0.67239152  0.00523118  1
  Ni  Ni25  1  0.83809749  0.83875668  0.17148380  1
  Fe  Fe26  1  0.67069080  0.67105648  0.33819743  1
  Fe  Fe27  1  0.17141495  0.17260724  0.50439322  1
  Fe  Fe28  1  1.00441707  1.00448588  0.67150715  1
  Fe  Fe29  1  0.17189606  0.17153323  0.83874156  1
  Fe  Fe30  1  0.17151583  0.50454340  0.50465679  1
  Fe  Fe31  1  1.00388407  0.33829241  0.67161845  1
  Fe  Fe32  1  0.17177105  0.50475349  0.83838551  1
  Fe  Fe33  1  0.17136444  0.83772594  0.50528149  1
  Fe  Fe34  1  1.00435506  0.67209764  0.67168420  1
  Ni  Ni35  1  0.17140262  0.83822328  0.83878046  1
  Fe  Fe36  1  0.50562174  0.17228859  0.50555073  1
  Fe  Fe37  1  0.33883574  1.00454478  0.67210782  1
  Ni  Ni38  1  0.50533634  0.17204590  0.83857983  1
  Ni  Ni39  1  0.50514687  0.50537347  0.50571333  1
  Fe  Fe40  1  0.33936707  0.33823379  0.67126945  1
  Fe  Fe41  1  0.50488742  0.50516640  0.83838610  1
  Fe  Fe42  1  0.50588110  0.83783557  0.50481229  1
  Fe  Fe43  1  0.33883505  0.67210000  0.67126967  1
  Fe  Fe44  1  0.50514777  0.83871577  0.83853037  1
  Ni  Ni45  1  0.83869989  0.17194319  0.50550863  1
  Ni  Ni46  1  0.67182293  1.00429064  0.67155050  1
  Fe  Fe47  1  0.83809717  0.17126871  0.83853869  1
  Ni  Ni48  1  0.83754068  0.50449297  0.50473446  1
  Fe  Fe49  1  0.67162655  0.33829390  0.67155900  1
  Fe  Fe50  1  0.83822013  0.50501875  0.83818394  1
  Fe  Fe51  1  0.83763091  0.83793831  0.50502294  1
  Ni  Ni52  1  0.67155578  0.67249498  0.67128768  1
  Fe  Fe53  1  0.83768634  0.83858909  0.83853025  1
" 