1118,Ni68Fe32_5,-237.5699558189, 210.109842599781,Ni68Fe32,"# generated using pymatgen
 data_Fe2Ni
_symmetry_space_group_name_H-M   'P 1'
_cell_length_a   7.40262963
_cell_length_b   7.40262963
_cell_length_c   10.46889922
_cell_angle_alpha   90.00000000
_cell_angle_beta   90.00000000
_cell_angle_gamma   90.00000000
_symmetry_Int_Tables_number   1
_chemical_formula_structural   Fe2Ni
_chemical_formula_sum   'Fe36 Ni18'
_cell_volume   573.68442750
_cell_formula_units_Z   18
loop_
 _symmetry_equiv_pos_site_id
 _symmetry_equiv_pos_as_xyz
  1  'x, y, z'
loop_
 _atom_site_type_symbol
 _atom_site_label
 _atom_site_symmetry_multiplicity
 _atom_site_fract_x
 _atom_site_fract_y
 _atom_site_fract_z
 _atom_site_occupancy
  Fe  Fe0  1  0.00469593  0.00467508  1.00426751  1
  Ni  Ni1  1  0.17125884  0.17077093  0.17141786  1
  Fe  Fe2  1  0.00590098  1.00421806  0.33792088  1
  Ni  Ni3  1  1.00409687  0.33731710  1.00323751  1
  Fe  Fe4  1  0.17200733  0.50434323  0.17036813  1
  Ni  Ni5  1  1.00347976  0.33751181  0.33871001  1
  Fe  Fe6  1  0.00458691  0.67098782  1.00426911  1
  Ni  Ni7  1  0.17201037  0.83738468  0.17026963  1
  Fe  Fe8  1  0.00544414  0.67128765  0.33813868  1
  Fe  Fe9  1  0.33793901  0.00462705  0.00513884  1
  Ni  Ni10  1  0.50428154  0.17039318  0.17104593  1
  Ni  Ni11  1  0.33842228  1.00277815  0.33757583  1
  Fe  Fe12  1  0.33750590  0.33704202  1.00388921  1
  Fe  Fe13  1  0.50290671  0.50495434  0.17117347  1
  Fe  Fe14  1  0.33738234  0.33716219  0.33732086  1
  Ni  Ni15  1  0.33796657  0.67156911  1.00368793  1
  Ni  Ni16  1  0.50355153  0.83775032  0.17176337  1
  Ni  Ni17  1  0.33806118  0.67240538  0.33851322  1
  Ni  Ni18  1  0.67062980  0.00452488  1.00390848  1
  Fe  Fe19  1  0.83791633  0.17025265  0.17079443  1
  Fe  Fe20  1  0.67028666  0.00465157  0.33696826  1
  Fe  Fe21  1  0.67081713  0.33715002  1.00413429  1
  Fe  Fe22  1  0.83813609  0.50389946  0.17167149  1
  Fe  Fe23  1  0.67068073  0.33762018  0.33821127  1
  Fe  Fe24  1  0.67077602  0.67141221  0.00435362  1
  Fe  Fe25  1  0.83730795  0.83890056  0.17064011  1
  Fe  Fe26  1  0.67066115  0.67078421  0.33784002  1
  Fe  Fe27  1  0.16992575  0.17105924  0.50390389  1
  Fe  Fe28  1  1.00434547  0.00465155  0.67085828  1
  Ni  Ni29  1  0.17054134  0.17204189  0.83747897  1
  Fe  Fe30  1  0.17000194  0.50437178  0.50455968  1
  Fe  Fe31  1  1.00404599  0.33753460  0.67123922  1
  Ni  Ni32  1  0.17017459  0.50447220  0.83759299  1
  Ni  Ni33  1  0.17198314  0.83697338  0.50437842  1
  Fe  Fe34  1  0.00449415  0.67087558  0.67064191  1
  Fe  Fe35  1  0.17168902  0.83831080  0.83759515  1
  Fe  Fe36  1  0.50471960  0.17086565  0.50420544  1
  Fe  Fe37  1  0.33768615  0.00435466  0.67080971  1
  Ni  Ni38  1  0.50509882  0.16998162  0.83784268  1
  Fe  Fe39  1  0.50472034  0.50464853  0.50420856  1
  Fe  Fe40  1  0.33761710  0.33745953  0.67184090  1
  Fe  Fe41  1  0.50352375  0.50365467  0.83767316  1
  Fe  Fe42  1  0.50454885  0.83753679  0.50399136  1
  Fe  Fe43  1  0.33746383  0.67123875  0.67124529  1
  Ni  Ni44  1  0.50438239  0.83775266  0.83774515  1
  Ni  Ni45  1  0.83729237  0.17274680  0.50369442  1
  Fe  Fe46  1  0.67102713  0.00480197  0.67211110  1
  Ni  Ni47  1  0.83741223  0.17191273  0.83816458  1
  Ni  Ni48  1  0.83765538  0.50333955  0.50462750  1
  Fe  Fe49  1  0.67138052  0.33731065  0.67071001  1
  Fe  Fe50  1  0.83792206  0.50319668  0.83732855  1
  Fe  Fe51  1  0.83813465  0.83761836  0.50458245  1
  Fe  Fe52  1  0.67109507  0.67094078  0.67086615  1
  Fe  Fe53  1  0.83736342  0.83892985  0.83782962  1
" 