7980,Ni68Fe27Cr4_1,-241.189794095541, 215.693865634172,Ni68Fe27Cr4,"# generated using pymatgen
 data_CrFe5Ni12
_symmetry_space_group_name_H-M   'P 1'
_cell_length_a   7.42146460
_cell_length_b   7.42146460
_cell_length_c   10.49553589
_cell_angle_alpha   90.00000000
_cell_angle_beta   90.00000000
_cell_angle_gamma   90.00000000
_symmetry_Int_Tables_number   1
_chemical_formula_structural   CrFe5Ni12
_chemical_formula_sum   'Cr3 Fe15 Ni36'
_cell_volume   578.07456158
_cell_formula_units_Z   3
loop_
 _symmetry_equiv_pos_site_id
 _symmetry_equiv_pos_as_xyz
  1  'x, y, z'
loop_
 _atom_site_type_symbol
 _atom_site_label
 _atom_site_symmetry_multiplicity
 _atom_site_fract_x
 _atom_site_fract_y
 _atom_site_fract_z
 _atom_site_occupancy
  Ni  Ni0  1  0.00532164  0.00365380  1.00282211  1
  Ni  Ni1  1  0.16999079  0.16847396  0.16902191  1
  Fe  Fe2  1  1.00243589  0.00437636  0.33702742  1
  Ni  Ni3  1  1.00171247  0.33632033  0.00356970  1
  Fe  Fe4  1  0.16903965  0.50196787  0.16891146  1
  Ni  Ni5  1  0.00330934  0.33573628  0.33490024  1
  Ni  Ni6  1  0.00446819  0.66918705  1.00168132  1
  Ni  Ni7  1  0.17077277  0.83685609  0.17056843  1
  Fe  Fe8  1  1.00168077  0.67028562  0.33615991  1
  Ni  Ni9  1  0.33576184  1.00203255  0.00319538  1
  Ni  Ni10  1  0.50214753  0.17006053  0.16904623  1
  Ni  Ni11  1  0.33545192  1.00170291  0.33642492  1
  Ni  Ni12  1  0.33710469  0.33618730  1.00287729  1
  Ni  Ni13  1  0.50268866  0.50348715  0.16858391  1
  Fe  Fe14  1  0.33704546  0.33459554  0.33503872  1
  Ni  Ni15  1  0.33622375  0.67104471  0.00424993  1
  Fe  Fe16  1  0.50248944  0.83753828  0.17035321  1
  Fe  Fe17  1  0.33812861  0.67019767  0.33597942  1
  Fe  Fe18  1  0.66881950  0.00546990  1.00267050  1
  Ni  Ni19  1  0.83686067  0.17010041  0.16884971  1
  Ni  Ni20  1  0.66770550  1.00215366  0.33757264  1
  Ni  Ni21  1  0.67025122  0.33702122  0.00375541  1
  Ni  Ni22  1  0.83588287  0.50310878  0.16893459  1
  Cr  Cr23  1  0.67204232  0.33699160  0.33725724  1
  Fe  Fe24  1  0.66911063  0.66774586  1.00208236  1
  Cr  Cr25  1  0.83716970  0.83715711  0.16817233  1
  Ni  Ni26  1  0.66871172  0.66981732  0.33689464  1
  Ni  Ni27  1  0.16940189  0.16877927  0.50323907  1
  Ni  Ni28  1  0.00467838  0.00410193  0.66905282  1
  Fe  Fe29  1  0.17030902  0.16971074  0.83670016  1
  Cr  Cr30  1  0.17043721  0.50274529  0.50362630  1
  Ni  Ni31  1  1.00038293  0.33471206  0.67074407  1
  Fe  Fe32  1  0.17071839  0.50281489  0.83666061  1
  Ni  Ni33  1  0.16990462  0.83784551  0.50250738  1
  Fe  Fe34  1  1.00234932  0.67083658  0.67089722  1
  Ni  Ni35  1  0.16982687  0.83667795  0.83604972  1
  Fe  Fe36  1  0.50232578  0.16831183  0.50388526  1
  Ni  Ni37  1  0.33551974  1.00109385  0.66958081  1
  Ni  Ni38  1  0.50378226  0.17008220  0.83583021  1
  Ni  Ni39  1  0.50348458  0.50408089  0.50446705  1
  Fe  Fe40  1  0.33745092  0.33559569  0.67089518  1
  Ni  Ni41  1  0.50348489  0.50288677  0.83627008  1
  Ni  Ni42  1  0.50280698  0.83540176  0.50249951  1
  Ni  Ni43  1  0.33839629  0.67264370  0.66987131  1
  Ni  Ni44  1  0.50113678  0.83624197  0.83790122  1
  Ni  Ni45  1  0.83794561  0.16900265  0.50309298  1
  Fe  Fe46  1  0.66957427  0.00310056  0.66959618  1
  Ni  Ni47  1  0.83640516  0.17041822  0.83748042  1
  Ni  Ni48  1  0.83604623  0.50386536  0.50359825  1
  Ni  Ni49  1  0.67136518  0.33758011  0.66834702  1
  Ni  Ni50  1  0.83582909  0.50198096  0.83642093  1
  Ni  Ni51  1  0.83623066  0.83655224  0.50431011  1
  Ni  Ni52  1  0.66839823  0.66859266  0.66966666  1
  Fe  Fe53  1  0.83531652  0.83690987  0.83604387  1
" 