6083,Ni68Fe27Cr4_17,-240.085062645324, 211.032363646033,Ni68Fe27Cr4,"# generated using pymatgen
 data_CrFe5Ni12
_symmetry_space_group_name_H-M   'P 1'
_cell_length_a   7.41794743
_cell_length_b   7.41794743
_cell_length_c   10.49056186
_cell_angle_alpha   90.00000000
_cell_angle_beta   90.00000000
_cell_angle_gamma   90.00000000
_symmetry_Int_Tables_number   1
_chemical_formula_structural   CrFe5Ni12
_chemical_formula_sum   'Cr3 Fe15 Ni36'
_cell_volume   577.25307097
_cell_formula_units_Z   3
loop_
 _symmetry_equiv_pos_site_id
 _symmetry_equiv_pos_as_xyz
  1  'x, y, z'
loop_
 _atom_site_type_symbol
 _atom_site_label
 _atom_site_symmetry_multiplicity
 _atom_site_fract_x
 _atom_site_fract_y
 _atom_site_fract_z
 _atom_site_occupancy
  Fe  Fe0  1  1.00230398  0.00371446  1.00254326  1
  Cr  Cr1  1  0.16913906  0.17022362  0.17030584  1
  Ni  Ni2  1  1.00256419  0.00370813  0.33590529  1
  Ni  Ni3  1  1.00246954  0.33918403  1.00313802  1
  Ni  Ni4  1  0.16843761  0.50531291  0.17046700  1
  Ni  Ni5  1  0.00335905  0.33770899  0.33698862  1
  Ni  Ni6  1  1.00327704  0.66873480  0.00452104  1
  Ni  Ni7  1  0.17086375  0.83507364  0.16930296  1
  Fe  Fe8  1  0.00341165  0.66907985  0.33547117  1
  Ni  Ni9  1  0.33868445  1.00272377  1.00313858  1
  Fe  Fe10  1  0.50417431  0.16849304  0.16948176  1
  Ni  Ni11  1  0.33817299  0.00367869  0.33618986  1
  Ni  Ni12  1  0.33645577  0.33593536  1.00160015  1
  Cr  Cr13  1  0.50278041  0.50324728  0.16855857  1
  Ni  Ni14  1  0.33568789  0.33605854  0.33848476  1
  Fe  Fe15  1  0.33563072  0.67047843  1.00254141  1
  Ni  Ni16  1  0.50252959  0.83787799  0.17121432  1
  Fe  Fe17  1  0.33594489  0.66969554  0.33679540  1
  Ni  Ni18  1  0.66846661  0.00353418  0.00441535  1
  Ni  Ni19  1  0.83545691  0.17023790  0.16957599  1
  Fe  Fe20  1  0.67023874  0.00400223  0.33677159  1
  Ni  Ni21  1  0.67100698  0.33542510  0.00355834  1
  Ni  Ni22  1  0.83826815  0.50242484  0.17067026  1
  Fe  Fe23  1  0.67085858  0.33515688  0.33756067  1
  Fe  Fe24  1  0.67085021  0.67053701  1.00260635  1
  Fe  Fe25  1  0.83711615  0.83600529  0.17018124  1
  Ni  Ni26  1  0.67085038  0.67098987  0.33736909  1
  Fe  Fe27  1  0.16980425  0.17156655  0.50312554  1
  Ni  Ni28  1  1.00283649  0.00424125  0.67150829  1
  Ni  Ni29  1  0.17008552  0.17058504  0.83551322  1
  Ni  Ni30  1  0.17115996  0.50225282  0.50232062  1
  Ni  Ni31  1  1.00295218  0.33704700  0.66979750  1
  Ni  Ni32  1  0.16979830  0.50292494  0.83714153  1
  Cr  Cr33  1  0.16917367  0.83606876  0.50417931  1
  Ni  Ni34  1  1.00230110  0.66864144  0.66985944  1
  Fe  Fe35  1  0.16957381  0.83717626  0.83649872  1
  Ni  Ni36  1  0.50419900  0.17081243  0.50241812  1
  Ni  Ni37  1  0.33775501  0.00351620  0.67059331  1
  Ni  Ni38  1  0.50320709  0.16917823  0.83758992  1
  Ni  Ni39  1  0.50235739  0.50265278  0.50409126  1
  Fe  Fe40  1  0.33662411  0.33682071  0.66977088  1
  Fe  Fe41  1  0.50405902  0.50263067  0.83609505  1
  Fe  Fe42  1  0.50519440  0.83648953  0.50360377  1
  Ni  Ni43  1  0.33769302  0.66997004  0.67063162  1
  Ni  Ni44  1  0.50363643  0.83709305  0.83549461  1
  Ni  Ni45  1  0.83587745  0.16907208  0.50375507  1
  Ni  Ni46  1  0.66933644  1.00286318  0.66906498  1
  Ni  Ni47  1  0.83663609  0.16977102  0.83660453  1
  Fe  Fe48  1  0.83616168  0.50310849  0.50360297  1
  Ni  Ni49  1  0.67066732  0.33698409  0.66967632  1
  Ni  Ni50  1  0.83731041  0.50335562  0.83604190  1
  Ni  Ni51  1  0.83547485  0.83776715  0.50303713  1
  Ni  Ni52  1  0.66993613  0.67007818  0.67056715  1
  Ni  Ni53  1  0.83590512  0.83680596  0.83677622  1
" 