7232,Ni68Fe32_3,-237.302114383354, 205.986846248947,Ni68Fe32,"# generated using pymatgen
 data_Fe2Ni
_symmetry_space_group_name_H-M   'P 1'
_cell_length_a   7.40163814
_cell_length_b   7.40163814
_cell_length_c   10.46749704
_cell_angle_alpha   90.00000000
_cell_angle_beta   90.00000000
_cell_angle_gamma   90.00000000
_symmetry_Int_Tables_number   1
_chemical_formula_structural   Fe2Ni
_chemical_formula_sum   'Fe36 Ni18'
_cell_volume   573.45394495
_cell_formula_units_Z   18
loop_
 _symmetry_equiv_pos_site_id
 _symmetry_equiv_pos_as_xyz
  1  'x, y, z'
loop_
 _atom_site_type_symbol
 _atom_site_label
 _atom_site_symmetry_multiplicity
 _atom_site_fract_x
 _atom_site_fract_y
 _atom_site_fract_z
 _atom_site_occupancy
  Ni  Ni0  1  1.00340907  0.00472080  1.00431205  1
  Fe  Fe1  1  0.17148738  0.17174091  0.17085645  1
  Fe  Fe2  1  0.00550014  1.00393252  0.33754891  1
  Ni  Ni3  1  1.00341317  0.33778707  1.00432103  1
  Ni  Ni4  1  0.17046368  0.50524069  0.17148896  1
  Fe  Fe5  1  0.00552947  0.33926290  0.33729524  1
  Ni  Ni6  1  0.00552676  0.67074645  1.00431704  1
  Fe  Fe7  1  0.17170619  0.83723834  0.17023013  1
  Ni  Ni8  1  0.00519221  0.67109869  0.33785436  1
  Ni  Ni9  1  0.33909063  1.00381880  0.00470873  1
  Ni  Ni10  1  0.50433923  0.17075418  0.17160311  1
  Fe  Fe11  1  0.33753570  1.00428635  0.33722556  1
  Fe  Fe12  1  0.33696907  0.33680050  0.00537233  1
  Fe  Fe13  1  0.50312260  0.50417550  0.17158011  1
  Ni  Ni14  1  0.33885872  0.33823612  0.33813702  1
  Ni  Ni15  1  0.33696641  0.67165671  0.00471448  1
  Fe  Fe16  1  0.50348230  0.83769344  0.17085614  1
  Ni  Ni17  1  0.33674856  0.67017838  0.33813975  1
  Ni  Ni18  1  0.67075546  0.00593180  1.00380729  1
  Fe  Fe19  1  0.83796123  0.17138381  0.17044765  1
  Fe  Fe20  1  0.67022071  1.00403249  0.33696881  1
  Fe  Fe21  1  0.67107658  0.33670507  1.00379180  1
  Fe  Fe22  1  0.83841965  0.50395575  0.17155459  1
  Fe  Fe23  1  0.67052102  0.33883297  0.33854764  1
  Fe  Fe24  1  0.67204137  0.67243857  1.00426186  1
  Fe  Fe25  1  0.83806789  0.83791880  0.17022856  1
  Fe  Fe26  1  0.67087418  0.67038875  0.33816174  1
  Fe  Fe27  1  0.17061726  0.17178231  0.50409225  1
  Fe  Fe28  1  0.00450529  1.00345236  0.67185378  1
  Fe  Fe29  1  0.17070510  0.16973288  0.83830906  1
  Fe  Fe30  1  0.17083969  0.50514436  0.50346541  1
  Fe  Fe31  1  1.00414922  0.33902274  0.67113101  1
  Fe  Fe32  1  0.17092948  0.50571211  0.83853498  1
  Fe  Fe33  1  0.17054258  0.83633141  0.50504264  1
  Ni  Ni34  1  0.00553497  0.67141349  0.67108167  1
  Ni  Ni35  1  0.16966754  0.83703192  0.83827573  1
  Fe  Fe36  1  0.50512893  0.17210455  0.50441891  1
  Fe  Fe37  1  0.33775003  1.00410466  0.67194114  1
  Ni  Ni38  1  0.50432432  0.17142992  0.83753092  1
  Fe  Fe39  1  0.50450656  0.50441784  0.50450688  1
  Fe  Fe40  1  0.33810460  0.33836615  0.67061678  1
  Fe  Fe41  1  0.50417686  0.50525799  0.83716921  1
  Fe  Fe42  1  0.50447539  0.83672997  0.50424783  1
  Ni  Ni43  1  0.33652517  0.67141948  0.67040252  1
  Fe  Fe44  1  0.50384788  0.83823664  0.83815143  1
  Fe  Fe45  1  0.83751169  0.17180919  0.50465868  1
  Fe  Fe46  1  0.67099919  1.00390107  0.67194033  1
  Fe  Fe47  1  0.83771959  0.17006134  0.83814639  1
  Ni  Ni48  1  0.83824760  0.50502016  0.50412797  1
  Ni  Ni49  1  0.67119304  0.33602331  0.67068379  1
  Fe  Fe50  1  0.83815053  0.50473136  0.83695288  1
  Fe  Fe51  1  0.83823813  0.83695440  0.50478939  1
  Fe  Fe52  1  0.67165681  0.67042451  0.67082983  1
  Ni  Ni53  1  0.83927651  0.83703087  0.83737058  1
" 