4171,Ni69Cr31_17,-211.448351900103, 140.105881943887,Ni69Cr31,"# generated using pymatgen
 data_Cr37Ni17
_symmetry_space_group_name_H-M   'P 1'
_cell_length_a   7.56181496
_cell_length_b   7.56181496
_cell_length_c   10.69402128
_cell_angle_alpha   90.00000000
_cell_angle_beta   90.00000000
_cell_angle_gamma   90.00000000
_symmetry_Int_Tables_number   1
_chemical_formula_structural   Cr37Ni17
_chemical_formula_sum   'Cr37 Ni17'
_cell_volume   611.49531749
_cell_formula_units_Z   1
loop_
 _symmetry_equiv_pos_site_id
 _symmetry_equiv_pos_as_xyz
  1  'x, y, z'
loop_
 _atom_site_type_symbol
 _atom_site_label
 _atom_site_symmetry_multiplicity
 _atom_site_fract_x
 _atom_site_fract_y
 _atom_site_fract_z
 _atom_site_occupancy
  Cr  Cr0  1  -0.00555131  -0.00545391  0.99315430  1
  Cr  Cr1  1  0.16005035  0.16158046  0.16166124  1
  Ni  Ni2  1  -0.00421660  0.99228268  0.32549987  1
  Cr  Cr3  1  -0.00604774  0.32720622  0.99197463  1
  Ni  Ni4  1  0.15994636  0.49861136  0.16021320  1
  Cr  Cr5  1  -0.00447869  0.32601742  0.32559281  1
  Cr  Cr6  1  -0.00147185  0.65949803  0.99072396  1
  Ni  Ni7  1  0.15844608  0.82413678  0.16080863  1
  Ni  Ni8  1  -0.00478792  0.66226847  0.32492743  1
  Cr  Cr9  1  0.32280367  0.98960813  -0.00554609  1
  Cr  Cr10  1  0.49388995  0.16098614  0.15805895  1
  Cr  Cr11  1  0.32438476  0.99290085  0.32720668  1
  Cr  Cr12  1  0.32380319  0.33099915  -0.00619590  1
  Cr  Cr13  1  0.49236234  0.49443976  0.15918390  1
  Cr  Cr14  1  0.32644070  0.32846245  0.32863906  1
  Ni  Ni15  1  0.32327285  0.65888221  0.99236645  1
  Cr  Cr16  1  0.49254344  0.82571921  0.15750833  1
  Cr  Cr17  1  0.32692943  0.66004346  0.32533988  1
  Cr  Cr18  1  0.66389799  -0.00368175  -0.00567634  1
  Ni  Ni19  1  0.83070900  0.15941629  0.16161015  1
  Cr  Cr20  1  0.66080489  -0.00577385  0.32533986  1
  Cr  Cr21  1  0.66327993  0.32646571  0.99257012  1
  Cr  Cr22  1  0.82991524  0.49440322  0.16194624  1
  Cr  Cr23  1  0.65947657  0.32757668  0.32697290  1
  Cr  Cr24  1  0.65823077  0.65817137  0.99012084  1
  Cr  Cr25  1  0.82884881  0.82563729  0.16335241  1
  Ni  Ni26  1  0.66052304  0.65921740  0.32873523  1
  Ni  Ni27  1  0.16120145  0.15945311  0.49561658  1
  Cr  Cr28  1  -0.00437980  -0.00515230  0.66228577  1
  Ni  Ni29  1  0.16016138  0.16122566  0.82483386  1
  Cr  Cr30  1  0.16013986  0.49125896  0.49343953  1
  Cr  Cr31  1  -0.00442247  0.32685402  0.66388073  1
  Ni  Ni32  1  0.16267289  0.49291137  0.82759315  1
  Cr  Cr33  1  0.15853744  0.82831831  0.49391517  1
  Cr  Cr34  1  -0.00460078  0.65885949  0.66435869  1
  Ni  Ni35  1  0.16287150  0.82712401  0.82731175  1
  Cr  Cr36  1  0.48851682  0.16199052  0.49744931  1
  Ni  Ni37  1  0.32238312  -0.00333769  0.66205521  1
  Cr  Cr38  1  0.49039866  0.16159420  0.82715703  1
  Ni  Ni39  1  0.49254704  0.49350747  0.49426735  1
  Ni  Ni40  1  0.32515280  0.32699809  0.66118133  1
  Ni  Ni41  1  0.49027568  0.49292851  0.82657155  1
  Cr  Cr42  1  0.49377524  0.82719649  0.49528416  1
  Cr  Cr43  1  0.32656235  0.65957751  0.66207293  1
  Cr  Cr44  1  0.49155349  0.82758358  0.82797610  1
  Cr  Cr45  1  0.83086446  0.15979088  0.49262516  1
  Cr  Cr46  1  0.66047654  -0.00529234  0.66167526  1
  Ni  Ni47  1  0.82981405  0.16300550  0.82765104  1
  Cr  Cr48  1  0.82826730  0.49634946  0.49137266  1
  Cr  Cr49  1  0.66008588  0.32896341  0.66151883  1
  Ni  Ni50  1  0.82755784  0.49117501  0.82691295  1
  Cr  Cr51  1  0.82903722  0.82512599  0.49056319  1
  Cr  Cr52  1  0.65930206  0.65788276  0.65999656  1
  Cr  Cr53  1  0.82886914  0.82611322  0.82597180  1
" 