5311,Ni69Fe15Cr15_12,-234.919982981894, 182.269597924861,Ni69Fe15Cr15,"# generated using pymatgen
 data_Cr9Fe8Ni37
_symmetry_space_group_name_H-M   'P 1'
_cell_length_a   7.45104321
_cell_length_b   7.45104321
_cell_length_c   10.53736636
_cell_angle_alpha   90.00000000
_cell_angle_beta   90.00000000
_cell_angle_gamma   90.00000000
_symmetry_Int_Tables_number   1
_chemical_formula_structural   Cr9Fe8Ni37
_chemical_formula_sum   'Cr9 Fe8 Ni37'
_cell_volume   585.01397899
_cell_formula_units_Z   1
loop_
 _symmetry_equiv_pos_site_id
 _symmetry_equiv_pos_as_xyz
  1  'x, y, z'
loop_
 _atom_site_type_symbol
 _atom_site_label
 _atom_site_symmetry_multiplicity
 _atom_site_fract_x
 _atom_site_fract_y
 _atom_site_fract_z
 _atom_site_occupancy
  Ni  Ni0  1  0.00207529  0.00383173  0.00139339  1
  Ni  Ni1  1  0.16590229  0.16698376  0.16963580  1
  Ni  Ni2  1  0.00437527  0.00245300  0.33569755  1
  Ni  Ni3  1  0.99853525  0.33227622  0.00324431  1
  Ni  Ni4  1  0.16511853  0.50239128  0.16896455  1
  Fe  Fe5  1  1.00078964  0.33465868  0.33449581  1
  Fe  Fe6  1  0.00107510  0.66590458  0.00189522  1
  Ni  Ni7  1  0.16799299  0.83426445  0.16758541  1
  Fe  Fe8  1  1.00042697  0.66849978  0.33548110  1
  Ni  Ni9  1  0.33135492  0.99882888  0.00131902  1
  Cr  Cr10  1  0.50318548  0.16607144  0.16757925  1
  Ni  Ni11  1  0.32971330  0.99828734  0.33419184  1
  Cr  Cr12  1  0.33165425  0.33454106  0.99961724  1
  Cr  Cr13  1  0.50244998  0.50180943  0.16953768  1
  Fe  Fe14  1  0.33284871  0.33438827  0.33541756  1
  Ni  Ni15  1  0.33680911  0.67015262  0.00343654  1
  Ni  Ni16  1  0.49833809  0.83389409  0.16746204  1
  Fe  Fe17  1  0.33348339  0.66905617  0.33537802  1
  Fe  Fe18  1  0.66730074  0.00172892  0.99862356  1
  Ni  Ni19  1  0.83689148  0.16996870  0.16748633  1
  Cr  Cr20  1  0.67017475  0.99819353  0.33551208  1
  Ni  Ni21  1  0.67204710  0.33751923  0.99910920  1
  Ni  Ni22  1  0.83645433  0.49997549  0.16791845  1
  Ni  Ni23  1  0.67194414  0.33832747  0.33542973  1
  Ni  Ni24  1  0.66719251  0.66711438  0.99939671  1
  Cr  Cr25  1  0.83486641  0.83387784  0.16561787  1
  Ni  Ni26  1  0.66735236  0.66514701  0.33692641  1
  Fe  Fe27  1  0.16672238  0.16764139  0.50187956  1
  Ni  Ni28  1  0.00187960  0.00275842  0.66583050  1
  Ni  Ni29  1  0.16659588  0.16680419  0.83198724  1
  Ni  Ni30  1  0.16746174  0.50218973  0.50103311  1
  Ni  Ni31  1  1.00016000  0.33289846  0.66647687  1
  Cr  Cr32  1  0.16613167  0.50140955  0.83324984  1
  Ni  Ni33  1  0.16697278  0.83370078  0.50167855  1
  Fe  Fe34  1  0.99969415  0.66709566  0.66560903  1
  Cr  Cr35  1  0.16643407  0.83442733  0.83375863  1
  Cr  Cr36  1  0.50127789  0.16968589  0.50173074  1
  Ni  Ni37  1  0.33168051  0.99997937  0.66776038  1
  Ni  Ni38  1  0.50101105  0.16830278  0.83396429  1
  Ni  Ni39  1  0.50069824  0.50176916  0.50133086  1
  Ni  Ni40  1  0.33295598  0.33577767  0.66758691  1
  Ni  Ni41  1  0.50281060  0.50161848  0.83229460  1
  Ni  Ni42  1  0.49885274  0.83233705  0.50045777  1
  Ni  Ni43  1  0.33733235  0.66763387  0.66539641  1
  Ni  Ni44  1  0.50088990  0.83367424  0.83554462  1
  Ni  Ni45  1  0.83655629  0.16919793  0.50056860  1
  Cr  Cr46  1  0.66980293  0.99812338  0.66870438  1
  Ni  Ni47  1  0.83529754  0.16862684  0.83540185  1
  Ni  Ni48  1  0.83481948  0.50093633  0.50133257  1
  Ni  Ni49  1  0.66966842  0.33801526  0.66873420  1
  Ni  Ni50  1  0.83328043  0.50099566  0.83419204  1
  Ni  Ni51  1  0.83708546  0.83306760  0.50174979  1
  Ni  Ni52  1  0.66726613  0.66573297  0.66664010  1
  Ni  Ni53  1  0.83430384  0.83344905  0.83474829  1
" 