1649,Ni69Cr31_10,-211.563919480184, 144.41262043778,Ni69Cr31,"# generated using pymatgen
 data_Cr37Ni17
_symmetry_space_group_name_H-M   'P 1'
_cell_length_a   7.56056359
_cell_length_b   7.56056359
_cell_length_c   10.69225156
_cell_angle_alpha   90.00000000
_cell_angle_beta   90.00000000
_cell_angle_gamma   90.00000000
_symmetry_Int_Tables_number   1
_chemical_formula_structural   Cr37Ni17
_chemical_formula_sum   'Cr37 Ni17'
_cell_volume   611.19178577
_cell_formula_units_Z   1
loop_
 _symmetry_equiv_pos_site_id
 _symmetry_equiv_pos_as_xyz
  1  'x, y, z'
loop_
 _atom_site_type_symbol
 _atom_site_label
 _atom_site_symmetry_multiplicity
 _atom_site_fract_x
 _atom_site_fract_y
 _atom_site_fract_z
 _atom_site_occupancy
  Cr  Cr0  1  -0.00563911  0.98629092  0.99221587  1
  Cr  Cr1  1  0.15817727  0.16120203  0.15765916  1
  Cr  Cr2  1  -0.00498932  0.99369246  0.33038644  1
  Ni  Ni3  1  0.99140902  0.33169656  0.99149814  1
  Cr  Cr4  1  0.15989880  0.49414962  0.15893318  1
  Cr  Cr5  1  0.99336144  0.32860311  0.32897362  1
  Cr  Cr6  1  0.99235806  0.65820874  0.99148463  1
  Cr  Cr7  1  0.16161011  0.82427852  0.16356143  1
  Cr  Cr8  1  0.99187410  0.65696076  0.32674226  1
  Cr  Cr9  1  0.32787646  0.99070170  0.99009152  1
  Cr  Cr10  1  0.49529592  0.16095004  0.15681465  1
  Cr  Cr11  1  0.32570699  -0.00471119  0.32986129  1
  Cr  Cr12  1  0.32517053  0.33107211  0.99205076  1
  Cr  Cr13  1  0.49297334  0.49710330  0.16385373  1
  Cr  Cr14  1  0.32578170  0.32724454  0.32985532  1
  Cr  Cr15  1  0.32484327  0.66171749  0.98984071  1
  Cr  Cr16  1  0.49368795  0.82507958  0.16331069  1
  Ni  Ni17  1  0.32678279  0.65783331  0.33007353  1
  Ni  Ni18  1  0.66179263  0.98947436  0.98998597  1
  Cr  Cr19  1  0.82854887  0.16062229  0.15570225  1
  Cr  Cr20  1  0.66150255  -0.00565310  0.32798046  1
  Cr  Cr21  1  0.66213191  0.33298258  -0.00608208  1
  Ni  Ni22  1  0.82774649  0.49422665  0.16062766  1
  Cr  Cr23  1  0.66328937  0.33011890  0.32837055  1
  Cr  Cr24  1  0.66283930  0.66101575  0.99229102  1
  Cr  Cr25  1  0.82610507  0.82584620  0.16276217  1
  Ni  Ni26  1  0.66123422  0.65729624  0.32837802  1
  Ni  Ni27  1  0.15787273  0.16446757  0.49639046  1
  Cr  Cr28  1  -0.00488327  0.98955407  0.65948720  1
  Cr  Cr29  1  0.15723109  0.16445505  0.82720477  1
  Ni  Ni30  1  0.15801786  0.49499825  0.49642239  1
  Ni  Ni31  1  -0.00509257  0.33348993  0.65937027  1
  Ni  Ni32  1  0.15560418  0.49772909  0.82414518  1
  Cr  Cr33  1  0.16043259  0.82195046  0.49392333  1
  Ni  Ni34  1  0.99338151  0.65671464  0.66189259  1
  Ni  Ni35  1  0.15924200  0.82263259  0.82333092  1
  Cr  Cr36  1  0.49468123  0.16173369  0.49615042  1
  Cr  Cr37  1  0.32636710  0.99224758  0.66160810  1
  Cr  Cr38  1  0.49601731  0.16120022  0.82855371  1
  Cr  Cr39  1  0.49354623  0.49780408  0.49493187  1
  Cr  Cr40  1  0.32455684  0.32904906  0.65908472  1
  Cr  Cr41  1  0.49229575  0.49642249  0.82341039  1
  Cr  Cr42  1  0.49444441  0.82397480  0.49433384  1
  Ni  Ni43  1  0.32476977  0.65981822  0.66206291  1
  Ni  Ni44  1  0.49490291  0.82296374  0.82482575  1
  Cr  Cr45  1  0.82963974  0.16242309  0.49763232  1
  Cr  Cr46  1  0.66084559  0.99074372  0.66386051  1
  Cr  Cr47  1  0.82907394  0.16198480  0.82810825  1
  Ni  Ni48  1  0.82985789  0.49743808  0.49624185  1
  Cr  Cr49  1  0.66462577  0.33197329  0.65964715  1
  Ni  Ni50  1  0.83061125  0.49686648  0.82422494  1
  Cr  Cr51  1  0.82609035  0.82299186  0.49494578  1
  Ni  Ni52  1  0.66294930  0.65960740  0.66224708  1
  Ni  Ni53  1  0.82758800  0.82280156  0.82477962  1
" 