4977,Ni69Fe20Cr9_4,-236.623476262831, 194.101596083978,Ni69Fe20Cr9,"# generated using pymatgen
 data_Cr7Fe10Ni37
_symmetry_space_group_name_H-M   'P 1'
_cell_length_a   7.43493119
_cell_length_b   7.43493119
_cell_length_c   10.51458052
_cell_angle_alpha   90.00000000
_cell_angle_beta   90.00000000
_cell_angle_gamma   90.00000000
_symmetry_Int_Tables_number   1
_chemical_formula_structural   Cr7Fe10Ni37
_chemical_formula_sum   'Cr7 Fe10 Ni37'
_cell_volume   581.22710331
_cell_formula_units_Z   1
loop_
 _symmetry_equiv_pos_site_id
 _symmetry_equiv_pos_as_xyz
  1  'x, y, z'
loop_
 _atom_site_type_symbol
 _atom_site_label
 _atom_site_symmetry_multiplicity
 _atom_site_fract_x
 _atom_site_fract_y
 _atom_site_fract_z
 _atom_site_occupancy
  Ni  Ni0  1  1.00093881  0.00252598  1.00185808  1
  Ni  Ni1  1  0.16841560  0.16938780  0.16967765  1
  Ni  Ni2  1  1.00206092  0.00295146  0.33636948  1
  Ni  Ni3  1  1.00084470  0.33497299  0.00255230  1
  Cr  Cr4  1  0.16927520  0.50070485  0.16849760  1
  Fe  Fe5  1  0.00307231  0.33415163  0.33640147  1
  Ni  Ni6  1  1.00128639  0.66898015  0.99962998  1
  Cr  Cr7  1  0.16841057  0.83667508  0.16825514  1
  Fe  Fe8  1  1.00097558  0.66985329  0.33723804  1
  Fe  Fe9  1  0.33707865  1.00169853  0.00233601  1
  Ni  Ni10  1  0.50196154  0.16841761  0.16793953  1
  Ni  Ni11  1  0.33498259  0.00269153  0.33612286  1
  Fe  Fe12  1  0.33721840  0.33593833  0.00218321  1
  Ni  Ni13  1  0.50263404  0.50243467  0.16804594  1
  Ni  Ni14  1  0.33439633  0.33513683  0.33608322  1
  Ni  Ni15  1  0.33713477  0.66868333  0.99942282  1
  Ni  Ni16  1  0.50464351  0.83562760  0.16911074  1
  Ni  Ni17  1  0.33760140  0.66865057  0.33823892  1
  Ni  Ni18  1  0.66931011  1.00201780  1.00176132  1
  Ni  Ni19  1  0.83610264  0.16737741  0.16731766  1
  Ni  Ni20  1  0.66943678  0.99975465  0.33618632  1
  Ni  Ni21  1  0.66901189  0.33587064  1.00104830  1
  Fe  Fe22  1  0.83390189  0.50264817  0.16740407  1
  Cr  Cr23  1  0.66830840  0.33660846  0.33579709  1
  Ni  Ni24  1  0.66805671  0.66859115  0.00315757  1
  Ni  Ni25  1  0.83362876  0.83645823  0.16918509  1
  Ni  Ni26  1  0.66814008  0.67027208  0.33452830  1
  Fe  Fe27  1  0.16895414  0.17044047  0.50034169  1
  Cr  Cr28  1  1.00006608  1.00165187  0.66854704  1
  Cr  Cr29  1  0.16899123  0.17038752  0.83770242  1
  Ni  Ni30  1  0.16882461  0.50241056  0.50297046  1
  Ni  Ni31  1  0.00230798  0.33765811  0.66761094  1
  Ni  Ni32  1  0.16833141  0.50387499  0.83497442  1
  Ni  Ni33  1  0.16852684  0.83335040  0.50091964  1
  Fe  Fe34  1  0.00363688  0.66722539  0.66927964  1
  Ni  Ni35  1  0.16808232  0.83204342  0.83722457  1
  Ni  Ni36  1  0.50278453  0.16867604  0.50245008  1
  Cr  Cr37  1  0.33737297  1.00122579  0.66783058  1
  Ni  Ni38  1  0.50452567  0.16949169  0.83608494  1
  Ni  Ni39  1  0.49979890  0.50149982  0.50229147  1
  Ni  Ni40  1  0.33542458  0.33811747  0.66804983  1
  Ni  Ni41  1  0.50125683  0.50097248  0.83613988  1
  Ni  Ni42  1  0.50213183  0.83630299  0.50023252  1
  Fe  Fe43  1  0.33390984  0.66727723  0.66889890  1
  Ni  Ni44  1  0.50257591  0.83601321  0.83713704  1
  Ni  Ni45  1  0.83490957  0.16837986  0.50324276  1
  Ni  Ni46  1  0.66899663  0.00295949  0.66853329  1
  Fe  Fe47  1  0.83317642  0.16944335  0.83649383  1
  Ni  Ni48  1  0.83785717  0.50175919  0.50166817  1
  Fe  Fe49  1  0.66859845  0.33357350  0.66888692  1
  Ni  Ni50  1  0.83688979  0.50192644  0.83668054  1
  Ni  Ni51  1  0.83581993  0.83634070  0.50032178  1
  Cr  Cr52  1  0.66823118  0.66923995  0.66879571  1
  Ni  Ni53  1  0.83582073  0.83530825  0.83697320  1
" 