2942,Ni69Fe20Cr9_14,-236.531794549939, 192.089058798128,Ni69Fe20Cr9,"# generated using pymatgen
 data_Cr7Fe10Ni37
_symmetry_space_group_name_H-M   'P 1'
_cell_length_a   7.43698875
_cell_length_b   7.43698875
_cell_length_c   10.51749035
_cell_angle_alpha   90.00000000
_cell_angle_beta   90.00000000
_cell_angle_gamma   90.00000000
_symmetry_Int_Tables_number   1
_chemical_formula_structural   Cr7Fe10Ni37
_chemical_formula_sum   'Cr7 Fe10 Ni37'
_cell_volume   581.70978797
_cell_formula_units_Z   1
loop_
 _symmetry_equiv_pos_site_id
 _symmetry_equiv_pos_as_xyz
  1  'x, y, z'
loop_
 _atom_site_type_symbol
 _atom_site_label
 _atom_site_symmetry_multiplicity
 _atom_site_fract_x
 _atom_site_fract_y
 _atom_site_fract_z
 _atom_site_occupancy
  Ni  Ni0  1  0.99971170  1.00140646  0.00359608  1
  Ni  Ni1  1  0.16890101  0.16859061  0.16772819  1
  Fe  Fe2  1  1.00011879  1.00190565  0.33413672  1
  Ni  Ni3  1  1.00095766  0.33574452  0.00363573  1
  Fe  Fe4  1  0.16867296  0.50136446  0.16698236  1
  Ni  Ni5  1  1.00026452  0.33665736  0.33358307  1
  Ni  Ni6  1  0.00226294  0.66873323  0.00386293  1
  Ni  Ni7  1  0.16738727  0.83684108  0.16793770  1
  Ni  Ni8  1  1.00018096  0.66809687  0.33574227  1
  Ni  Ni9  1  0.33765257  1.00177025  0.00427583  1
  Ni  Ni10  1  0.50165652  0.17042190  0.16987608  1
  Ni  Ni11  1  0.33665329  0.00303929  0.33281995  1
  Ni  Ni12  1  0.33682320  0.33610949  0.00308740  1
  Ni  Ni13  1  0.50409029  0.50068295  0.16743797  1
  Ni  Ni14  1  0.33624862  0.33475966  0.33400428  1
  Ni  Ni15  1  0.33542634  0.66830298  1.00184214  1
  Ni  Ni16  1  0.50289661  0.83497852  0.16688824  1
  Cr  Cr17  1  0.33410866  0.66797243  0.33530145  1
  Fe  Fe18  1  0.66899314  0.00287845  0.00273400  1
  Ni  Ni19  1  0.83546363  0.16922609  0.16756568  1
  Ni  Ni20  1  0.66969605  0.00340546  0.33413274  1
  Ni  Ni21  1  0.66817850  0.33343000  0.00239987  1
  Fe  Fe22  1  0.83465323  0.50120323  0.16917000  1
  Ni  Ni23  1  0.66953206  0.33446756  0.33642092  1
  Fe  Fe24  1  0.66879231  0.66901985  0.00339994  1
  Ni  Ni25  1  0.83590120  0.83415178  0.16892309  1
  Ni  Ni26  1  0.67115438  0.66801689  0.33355956  1
  Cr  Cr27  1  0.16869102  0.16803662  0.50038395  1
  Ni  Ni28  1  0.99633946  1.00140148  0.66746981  1
  Cr  Cr29  1  0.16860153  0.17104442  0.83737288  1
  Fe  Fe30  1  0.16731735  0.50141567  0.50307641  1
  Ni  Ni31  1  1.00094133  0.33659710  0.66871956  1
  Ni  Ni32  1  0.16919313  0.50186746  0.83535387  1
  Ni  Ni33  1  0.16480810  0.83426353  0.50240733  1
  Ni  Ni34  1  1.00108614  0.66771398  0.66645549  1
  Cr  Cr35  1  0.16565389  0.83354011  0.83502694  1
  Ni  Ni36  1  0.50402018  0.17234064  0.50038382  1
  Cr  Cr37  1  0.33815532  0.00218252  0.66805189  1
  Ni  Ni38  1  0.50367344  0.17080657  0.83617760  1
  Ni  Ni39  1  0.50458557  0.49956866  0.50388471  1
  Ni  Ni40  1  0.33666725  0.33863855  0.66887820  1
  Fe  Fe41  1  0.50055699  0.50233951  0.83595094  1
  Cr  Cr42  1  0.50458553  0.83493381  0.50110575  1
  Ni  Ni43  1  0.33527456  0.66475966  0.66885667  1
  Fe  Fe44  1  0.50351032  0.83428209  0.83652159  1
  Ni  Ni45  1  0.83408999  0.16966262  0.50374483  1
  Ni  Ni46  1  0.67150570  0.00296358  0.67040826  1
  Fe  Fe47  1  0.83547968  0.16775004  0.83614690  1
  Ni  Ni48  1  0.83377005  0.50256413  0.50112199  1
  Fe  Fe49  1  0.66862496  0.33503651  0.66810870  1
  Cr  Cr50  1  0.83575406  0.50353231  0.83625953  1
  Ni  Ni51  1  0.83684354  0.83413008  0.50207089  1
  Ni  Ni52  1  0.66916105  0.66976768  0.66891100  1
  Ni  Ni53  1  0.83386023  0.83481237  0.83523503  1
" 