6653,Ni69Fe20Cr9_6,-237.056891804955, 192.243220962783,Ni69Fe20Cr9,"# generated using pymatgen
 data_Cr7Fe10Ni37
_symmetry_space_group_name_H-M   'P 1'
_cell_length_a   7.44012340
_cell_length_b   7.44012340
_cell_length_c   10.52192342
_cell_angle_alpha   90.00000000
_cell_angle_beta   90.00000000
_cell_angle_gamma   90.00000000
_symmetry_Int_Tables_number   1
_chemical_formula_structural   Cr7Fe10Ni37
_chemical_formula_sum   'Cr7 Fe10 Ni37'
_cell_volume   582.44566074
_cell_formula_units_Z   1
loop_
 _symmetry_equiv_pos_site_id
 _symmetry_equiv_pos_as_xyz
  1  'x, y, z'
loop_
 _atom_site_type_symbol
 _atom_site_label
 _atom_site_symmetry_multiplicity
 _atom_site_fract_x
 _atom_site_fract_y
 _atom_site_fract_z
 _atom_site_occupancy
  Ni  Ni0  1  1.00063857  1.00168729  0.99998753  1
  Cr  Cr1  1  0.16984344  0.16683030  0.16454599  1
  Cr  Cr2  1  0.00265751  1.00135656  0.33692802  1
  Ni  Ni3  1  1.00071208  0.33630232  1.00159236  1
  Ni  Ni4  1  0.16899279  0.50623386  0.16686330  1
  Cr  Cr5  1  0.99838955  0.33611003  0.33447506  1
  Ni  Ni6  1  0.00213210  0.66727398  1.00140965  1
  Ni  Ni7  1  0.16992902  0.83187903  0.16729969  1
  Ni  Ni8  1  1.00120889  0.66863776  0.33534829  1
  Ni  Ni9  1  0.33709148  1.00092751  1.00099759  1
  Ni  Ni10  1  0.50453924  0.16818068  0.16805400  1
  Ni  Ni11  1  0.33779882  0.99913505  0.33596775  1
  Ni  Ni12  1  0.33627678  0.33648487  1.00179886  1
  Ni  Ni13  1  0.50269765  0.50215131  0.16757812  1
  Cr  Cr14  1  0.33835131  0.33467167  0.33461399  1
  Ni  Ni15  1  0.33552846  0.66805539  1.00168040  1
  Fe  Fe16  1  0.50050117  0.83536242  0.16816692  1
  Ni  Ni17  1  0.33643275  0.67069125  0.33457043  1
  Ni  Ni18  1  0.66749204  0.00233360  1.00152148  1
  Ni  Ni19  1  0.83024734  0.16928960  0.16649659  1
  Fe  Fe20  1  0.66691967  0.00329096  0.33600283  1
  Fe  Fe21  1  0.66784585  0.33453676  0.00252577  1
  Ni  Ni22  1  0.83327686  0.50245809  0.16735028  1
  Ni  Ni23  1  0.66833535  0.33544719  0.33528983  1
  Fe  Fe24  1  0.66780288  0.66841201  1.00019887  1
  Cr  Cr25  1  0.83538552  0.83511856  0.16812643  1
  Fe  Fe26  1  0.66755243  0.66656226  0.33648581  1
  Ni  Ni27  1  0.17002687  0.16581659  0.50544400  1
  Ni  Ni28  1  1.00067347  1.00125447  0.66884808  1
  Ni  Ni29  1  0.16954126  0.16872627  0.83557540  1
  Cr  Cr30  1  0.16934336  0.50380644  0.50283361  1
  Fe  Fe31  1  0.00199535  0.33378018  0.66992210  1
  Ni  Ni32  1  0.16966162  0.50244475  0.83566737  1
  Ni  Ni33  1  0.16917572  0.83503341  0.50314880  1
  Ni  Ni34  1  1.00124514  0.66976845  0.66869408  1
  Ni  Ni35  1  0.16743792  0.83416102  0.83510616  1
  Ni  Ni36  1  0.50282914  0.16777373  0.50237156  1
  Ni  Ni37  1  0.33548924  0.00231681  0.66822672  1
  Ni  Ni38  1  0.50241599  0.16927647  0.83514646  1
  Ni  Ni39  1  0.50312782  0.50161611  0.50244115  1
  Ni  Ni40  1  0.33700842  0.33449172  0.66888763  1
  Fe  Fe41  1  0.49959134  0.50063719  0.83547274  1
  Ni  Ni42  1  0.50102602  0.83576712  0.50122316  1
  Ni  Ni43  1  0.33518115  0.66868601  0.66895283  1
  Fe  Fe44  1  0.50004884  0.83846231  0.83469244  1
  Ni  Ni45  1  0.83233520  0.16807090  0.50344812  1
  Ni  Ni46  1  0.66900332  0.00269489  0.66749255  1
  Ni  Ni47  1  0.83338608  0.16696797  0.83581217  1
  Ni  Ni48  1  0.83328924  0.50232606  0.50216011  1
  Fe  Fe49  1  0.66798881  0.33337052  0.66743663  1
  Fe  Fe50  1  0.83815034  0.50065650  0.83576831  1
  Ni  Ni51  1  0.83496106  0.83478993  0.50195717  1
  Cr  Cr52  1  0.66841106  0.66969632  0.66927742  1
  Ni  Ni53  1  0.83578388  0.83589473  0.83582458  1
" 