4879,Ni69Fe24Cr5_9,-239.770747065864, 202.954925520721,Ni69Fe24Cr5,"# generated using pymatgen
 data_Cr4Fe13Ni37
_symmetry_space_group_name_H-M   'P 1'
_cell_length_a   7.43019395
_cell_length_b   7.43019395
_cell_length_c   10.50788106
_cell_angle_alpha   90.00000000
_cell_angle_beta   90.00000000
_cell_angle_gamma   90.00000000
_symmetry_Int_Tables_number   1
_chemical_formula_structural   Cr4Fe13Ni37
_chemical_formula_sum   'Cr4 Fe13 Ni37'
_cell_volume   580.11680849
_cell_formula_units_Z   1
loop_
 _symmetry_equiv_pos_site_id
 _symmetry_equiv_pos_as_xyz
  1  'x, y, z'
loop_
 _atom_site_type_symbol
 _atom_site_label
 _atom_site_symmetry_multiplicity
 _atom_site_fract_x
 _atom_site_fract_y
 _atom_site_fract_z
 _atom_site_occupancy
  Cr  Cr0  1  0.00530897  0.00322614  1.00018250  1
  Ni  Ni1  1  0.17233806  0.17207455  0.17059570  1
  Cr  Cr2  1  0.00485213  0.00291609  0.33684840  1
  Ni  Ni3  1  0.00271810  0.33782730  1.00194380  1
  Ni  Ni4  1  0.16953529  0.50123772  0.16980929  1
  Ni  Ni5  1  0.00347687  0.33814891  0.33569499  1
  Ni  Ni6  1  0.00252160  0.66624680  1.00138087  1
  Fe  Fe7  1  0.17254268  0.83288822  0.16919022  1
  Ni  Ni8  1  0.00280883  0.66596980  0.33637733  1
  Ni  Ni9  1  0.33673596  1.00245538  0.00321092  1
  Fe  Fe10  1  0.50025270  0.17021105  0.16875516  1
  Ni  Ni11  1  0.33762297  0.00261301  0.33502070  1
  Ni  Ni12  1  0.33604230  0.33567010  1.00158139  1
  Ni  Ni13  1  0.50169946  0.50355844  0.17029498  1
  Ni  Ni14  1  0.33514705  0.33591998  0.33603351  1
  Ni  Ni15  1  0.33704009  0.66929916  0.00293227  1
  Ni  Ni16  1  0.50125124  0.83573971  0.17030917  1
  Ni  Ni17  1  0.33655315  0.66891844  0.33489449  1
  Fe  Fe18  1  0.66570809  1.00209705  1.00037898  1
  Cr  Cr19  1  0.83477624  0.17227863  0.16862681  1
  Ni  Ni20  1  0.66587469  1.00185973  0.33724853  1
  Ni  Ni21  1  0.66860619  0.33836158  1.00207654  1
  Ni  Ni22  1  0.83617319  0.50237801  0.17034563  1
  Fe  Fe23  1  0.66781937  0.33737467  0.33648487  1
  Ni  Ni24  1  0.66788977  0.66690939  1.00133708  1
  Cr  Cr25  1  0.83310729  0.83259558  0.16898056  1
  Ni  Ni26  1  0.66806721  0.66834946  0.33664507  1
  Fe  Fe27  1  0.17015191  0.17011403  0.50315567  1
  Ni  Ni28  1  0.00307330  0.00373988  0.66918895  1
  Ni  Ni29  1  0.16989595  0.17014328  0.83361371  1
  Ni  Ni30  1  0.16922199  0.50289025  0.50203257  1
  Ni  Ni31  1  1.00184156  0.33471324  0.66997657  1
  Ni  Ni32  1  0.16925314  0.50227303  0.83555304  1
  Ni  Ni33  1  0.17026810  0.83438596  0.50200525  1
  Fe  Fe34  1  0.00260163  0.66978668  0.66944545  1
  Ni  Ni35  1  0.17023078  0.83498033  0.83518861  1
  Fe  Fe36  1  0.50127310  0.16851170  0.50319713  1
  Ni  Ni37  1  0.33483039  1.00125326  0.66926183  1
  Ni  Ni38  1  0.50294091  0.16868154  0.83625850  1
  Fe  Fe39  1  0.50111610  0.50359517  0.50264954  1
  Fe  Fe40  1  0.33643985  0.33566641  0.66965206  1
  Ni  Ni41  1  0.50237508  0.50249800  0.83487061  1
  Fe  Fe42  1  0.50120857  0.83526976  0.50245025  1
  Ni  Ni43  1  0.33670791  0.66982087  0.66962370  1
  Ni  Ni44  1  0.50273733  0.83620107  0.83516726  1
  Fe  Fe45  1  0.83612791  0.16995001  0.50407635  1
  Ni  Ni46  1  0.66946270  1.00240639  0.67016091  1
  Ni  Ni47  1  0.83457244  0.16979170  0.83454986  1
  Fe  Fe48  1  0.83707516  0.50296756  0.50251632  1
  Ni  Ni49  1  0.67036906  0.33653526  0.66905701  1
  Ni  Ni50  1  0.83583012  0.50214464  0.83601048  1
  Fe  Fe51  1  0.83558847  0.83443101  0.50349732  1
  Ni  Ni52  1  0.66785588  0.66853598  0.66958308  1
  Ni  Ni53  1  0.83440076  0.83550770  0.83399785  1
" 