7268,Ni69Fe19Cr10_15,-237.030269294903, 194.699626861266,Ni69Fe19Cr10,"# generated using pymatgen
 data_Cr7Fe10Ni37
_symmetry_space_group_name_H-M   'P 1'
_cell_length_a   7.44210323
_cell_length_b   7.44210323
_cell_length_c   10.52472332
_cell_angle_alpha   90.00000000
_cell_angle_beta   90.00000000
_cell_angle_gamma   90.00000000
_symmetry_Int_Tables_number   1
_chemical_formula_structural   Cr7Fe10Ni37
_chemical_formula_sum   'Cr7 Fe10 Ni37'
_cell_volume   582.91075350
_cell_formula_units_Z   1
loop_
 _symmetry_equiv_pos_site_id
 _symmetry_equiv_pos_as_xyz
  1  'x, y, z'
loop_
 _atom_site_type_symbol
 _atom_site_label
 _atom_site_symmetry_multiplicity
 _atom_site_fract_x
 _atom_site_fract_y
 _atom_site_fract_z
 _atom_site_occupancy
  Ni  Ni0  1  0.00467830  0.99868156  1.00129372  1
  Fe  Fe1  1  0.16998531  0.16752184  0.16900459  1
  Ni  Ni2  1  0.00193400  0.00190693  0.33619803  1
  Fe  Fe3  1  0.00380437  0.33731393  1.00157093  1
  Ni  Ni4  1  0.16877831  0.50165972  0.16764525  1
  Ni  Ni5  1  0.00187501  0.33418538  0.33547084  1
  Ni  Ni6  1  1.00146024  0.66904219  1.00117288  1
  Ni  Ni7  1  0.17059849  0.83497647  0.16754128  1
  Cr  Cr8  1  1.00125352  0.66879469  0.33626927  1
  Ni  Ni9  1  0.33242890  1.00109382  0.00265497  1
  Ni  Ni10  1  0.50015176  0.16796650  0.16972857  1
  Ni  Ni11  1  0.33455167  0.00269496  0.33316493  1
  Ni  Ni12  1  0.33513221  0.33556470  0.00205892  1
  Fe  Fe13  1  0.50165041  0.50217155  0.16910008  1
  Ni  Ni14  1  0.33568363  0.33447186  0.33538213  1
  Ni  Ni15  1  0.33390682  0.66837000  1.00097885  1
  Ni  Ni16  1  0.49990062  0.83551621  0.16891425  1
  Ni  Ni17  1  0.33590847  0.66785951  0.33473048  1
  Cr  Cr18  1  0.66761884  0.99970130  0.00232416  1
  Cr  Cr19  1  0.83492789  0.16990506  0.16949467  1
  Ni  Ni20  1  0.66854170  0.00168605  0.33561923  1
  Ni  Ni21  1  0.66725064  0.33877988  0.00217019  1
  Ni  Ni22  1  0.83494994  0.50141637  0.16722064  1
  Ni  Ni23  1  0.66747035  0.33554176  0.33645273  1
  Fe  Fe24  1  0.66825651  0.66725399  0.00218736  1
  Ni  Ni25  1  0.83452769  0.83382866  0.16773664  1
  Ni  Ni26  1  0.66825846  0.66780283  0.33303700  1
  Ni  Ni27  1  0.16734463  0.16884925  0.50177561  1
  Fe  Fe28  1  0.00339411  1.00107316  0.66686806  1
  Fe  Fe29  1  0.16885424  0.16822264  0.83456089  1
  Ni  Ni30  1  0.16919237  0.50064681  0.50305257  1
  Ni  Ni31  1  0.00187590  0.33621856  0.66808855  1
  Ni  Ni32  1  0.16755160  0.50318815  0.83433166  1
  Ni  Ni33  1  0.16838937  0.83553436  0.50267576  1
  Ni  Ni34  1  0.00282470  0.66844244  0.66826868  1
  Ni  Ni35  1  0.17026757  0.83353974  0.83481095  1
  Fe  Fe36  1  0.50150819  0.17053928  0.50123185  1
  Ni  Ni37  1  0.33332503  0.00187050  0.66920352  1
  Cr  Cr38  1  0.50058043  0.16796705  0.83310828  1
  Ni  Ni39  1  0.50064659  0.49932137  0.50101718  1
  Ni  Ni40  1  0.33445187  0.33489097  0.66758593  1
  Fe  Fe41  1  0.50026933  0.50262602  0.83514431  1
  Cr  Cr42  1  0.49968100  0.83524427  0.50013906  1
  Ni  Ni43  1  0.33200890  0.66826652  0.66931596  1
  Ni  Ni44  1  0.49833044  0.83440700  0.83547302  1
  Ni  Ni45  1  0.83498739  0.16917865  0.50171451  1
  Fe  Fe46  1  0.66869769  0.00261060  0.66724633  1
  Cr  Cr47  1  0.83617444  0.17075424  0.83424720  1
  Ni  Ni48  1  0.83518887  0.49827914  0.50160480  1
  Ni  Ni49  1  0.66869813  0.33489080  0.66640166  1
  Ni  Ni50  1  0.83685036  0.50099008  0.83620506  1
  Ni  Ni51  1  0.83631726  0.83757622  0.50200139  1
  Cr  Cr52  1  0.67013029  0.66704924  0.66997560  1
  Fe  Fe53  1  0.83747362  0.83261359  0.83532740  1
" 