3003,Ni69Fe24Cr5_3,-239.796870749181, 207.534415948294,Ni69Fe24Cr5,"# generated using pymatgen
 data_Cr4Fe13Ni37
_symmetry_space_group_name_H-M   'P 1'
_cell_length_a   7.42763177
_cell_length_b   7.42763177
_cell_length_c   10.50425759
_cell_angle_alpha   90.00000000
_cell_angle_beta   90.00000000
_cell_angle_gamma   90.00000000
_symmetry_Int_Tables_number   1
_chemical_formula_structural   Cr4Fe13Ni37
_chemical_formula_sum   'Cr4 Fe13 Ni37'
_cell_volume   579.51688465
_cell_formula_units_Z   1
loop_
 _symmetry_equiv_pos_site_id
 _symmetry_equiv_pos_as_xyz
  1  'x, y, z'
loop_
 _atom_site_type_symbol
 _atom_site_label
 _atom_site_symmetry_multiplicity
 _atom_site_fract_x
 _atom_site_fract_y
 _atom_site_fract_z
 _atom_site_occupancy
  Fe  Fe0  1  1.00205046  1.00197575  1.00236921  1
  Ni  Ni1  1  0.17065920  0.16976585  0.16995707  1
  Fe  Fe2  1  0.00415376  1.00186768  0.33678705  1
  Ni  Ni3  1  0.00508176  0.33806138  1.00136864  1
  Fe  Fe4  1  0.16796389  0.50262953  0.16939894  1
  Ni  Ni5  1  0.00274618  0.33715698  0.33736286  1
  Ni  Ni6  1  1.00166209  0.66887995  0.00318679  1
  Ni  Ni7  1  0.16881337  0.83580708  0.17002870  1
  Ni  Ni8  1  1.00188583  0.66916653  0.33577718  1
  Cr  Cr9  1  0.33662297  0.00359686  1.00190232  1
  Fe  Fe10  1  0.50106362  0.16898491  0.17051639  1
  Ni  Ni11  1  0.33515536  1.00219273  0.33575772  1
  Ni  Ni12  1  0.33377046  0.33591917  0.00270279  1
  Fe  Fe13  1  0.50214453  0.50353249  0.17050952  1
  Ni  Ni14  1  0.33512686  0.33508466  0.33493208  1
  Fe  Fe15  1  0.33604464  0.66763209  1.00190817  1
  Fe  Fe16  1  0.50386207  0.83544444  0.17016985  1
  Ni  Ni17  1  0.33543457  0.67068261  0.33599339  1
  Ni  Ni18  1  0.66934810  0.99997733  1.00204591  1
  Cr  Cr19  1  0.83690940  0.16932589  0.16995181  1
  Fe  Fe20  1  0.66929315  1.00085956  0.33629967  1
  Cr  Cr21  1  0.66870728  0.33638069  1.00162857  1
  Ni  Ni22  1  0.83585723  0.50509086  0.17027203  1
  Ni  Ni23  1  0.67008335  0.33743680  0.33601308  1
  Ni  Ni24  1  0.67148694  0.67146552  1.00207963  1
  Ni  Ni25  1  0.83579514  0.83388802  0.16844367  1
  Ni  Ni26  1  0.67063779  0.66919032  0.33665206  1
  Ni  Ni27  1  0.16783553  0.16917583  0.50219003  1
  Fe  Fe28  1  0.00358847  0.00270901  0.66879910  1
  Ni  Ni29  1  0.16930185  0.16999496  0.83581172  1
  Ni  Ni30  1  0.16929256  0.50277318  0.50208864  1
  Fe  Fe31  1  0.00320110  0.33605656  0.66914287  1
  Ni  Ni32  1  0.16922470  0.50226373  0.83737222  1
  Ni  Ni33  1  0.16959854  0.83601083  0.50238212  1
  Ni  Ni34  1  0.00313306  0.66934875  0.66899555  1
  Ni  Ni35  1  0.16922814  0.83570108  0.83554797  1
  Cr  Cr36  1  0.50219536  0.16972919  0.50214121  1
  Ni  Ni37  1  0.33589626  1.00193624  0.66995536  1
  Ni  Ni38  1  0.50249164  0.16916370  0.83533898  1
  Ni  Ni39  1  0.50305272  0.50428146  0.50268941  1
  Ni  Ni40  1  0.33583048  0.33587720  0.67032969  1
  Ni  Ni41  1  0.50251808  0.50304237  0.83554777  1
  Ni  Ni42  1  0.50246988  0.83422513  0.50223708  1
  Ni  Ni43  1  0.33459804  0.67014666  0.66952369  1
  Ni  Ni44  1  0.50334700  0.83575130  0.83576521  1
  Ni  Ni45  1  0.83739945  0.16976162  0.50247539  1
  Ni  Ni46  1  0.66917885  0.00291630  0.67026985  1
  Fe  Fe47  1  0.83602098  0.16902814  0.83503960  1
  Ni  Ni48  1  0.83561350  0.50251784  0.50183102  1
  Ni  Ni49  1  0.66997790  0.33562554  0.67019266  1
  Ni  Ni50  1  0.83621667  0.50311633  0.83585624  1
  Ni  Ni51  1  0.83589152  0.83567907  0.50210111  1
  Fe  Fe52  1  0.66812238  0.66906433  0.66913972  1
  Fe  Fe53  1  0.83569485  0.83538748  0.83650020  1
" 