1257,Ni69Fe15Cr15_2,-235.03564573545, 185.915786057867,Ni69Fe15Cr15,"# generated using pymatgen
 data_Cr9Fe8Ni37
_symmetry_space_group_name_H-M   'P 1'
_cell_length_a   7.44928870
_cell_length_b   7.44928870
_cell_length_c   10.53488510
_cell_angle_alpha   90.00000000
_cell_angle_beta   90.00000000
_cell_angle_gamma   90.00000000
_symmetry_Int_Tables_number   1
_chemical_formula_structural   Cr9Fe8Ni37
_chemical_formula_sum   'Cr9 Fe8 Ni37'
_cell_volume   584.60081236
_cell_formula_units_Z   1
loop_
 _symmetry_equiv_pos_site_id
 _symmetry_equiv_pos_as_xyz
  1  'x, y, z'
loop_
 _atom_site_type_symbol
 _atom_site_label
 _atom_site_symmetry_multiplicity
 _atom_site_fract_x
 _atom_site_fract_y
 _atom_site_fract_z
 _atom_site_occupancy
  Ni  Ni0  1  1.00076871  1.00099818  0.99947318  1
  Ni  Ni1  1  0.17051896  0.16982107  0.16697286  1
  Cr  Cr2  1  0.00258577  0.00141431  0.33589679  1
  Ni  Ni3  1  0.00426412  0.33466446  0.00147726  1
  Ni  Ni4  1  0.16660771  0.50054319  0.16678443  1
  Ni  Ni5  1  1.00008542  0.33651450  0.33455637  1
  Ni  Ni6  1  0.99990805  0.66791170  0.00165569  1
  Cr  Cr7  1  0.16897861  0.83381743  0.16821791  1
  Ni  Ni8  1  0.99902014  0.66612262  0.33409249  1
  Ni  Ni9  1  0.33523509  0.00346413  0.00122685  1
  Ni  Ni10  1  0.49934311  0.16695379  0.16638309  1
  Ni  Ni11  1  0.33495478  1.00091189  0.33525259  1
  Ni  Ni12  1  0.33335505  0.33381662  0.00134179  1
  Fe  Fe13  1  0.50212891  0.50211211  0.16704763  1
  Cr  Cr14  1  0.33491494  0.33287842  0.33299881  1
  Fe  Fe15  1  0.33441538  0.66730945  1.00020662  1
  Ni  Ni16  1  0.50181512  0.83444963  0.16763902  1
  Ni  Ni17  1  0.33586441  0.66913719  0.33399334  1
  Ni  Ni18  1  0.66757138  0.99910838  1.00042533  1
  Cr  Cr19  1  0.83420871  0.16946590  0.16676163  1
  Cr  Cr20  1  0.66614038  1.00038534  0.33484679  1
  Fe  Fe21  1  0.66696292  0.33401828  0.00126706  1
  Ni  Ni22  1  0.83495279  0.50301603  0.16904347  1
  Ni  Ni23  1  0.66872312  0.33742208  0.33499508  1
  Ni  Ni24  1  0.66842266  0.66979267  0.00255689  1
  Ni  Ni25  1  0.83208490  0.83053619  0.16610575  1
  Ni  Ni26  1  0.66869556  0.66630447  0.33451555  1
  Ni  Ni27  1  0.16938282  0.16714004  0.50153056  1
  Cr  Cr28  1  1.00067013  0.00273399  0.66805279  1
  Ni  Ni29  1  0.16871960  0.16831778  0.83507021  1
  Cr  Cr30  1  0.16714335  0.50115222  0.50188496  1
  Ni  Ni31  1  0.00159987  0.33284336  0.66754238  1
  Ni  Ni32  1  0.17097115  0.50069963  0.83519283  1
  Fe  Fe33  1  0.16963262  0.83590837  0.50054281  1
  Cr  Cr34  1  1.00064498  0.66783623  0.66830903  1
  Ni  Ni35  1  0.16964369  0.83455900  0.83531816  1
  Ni  Ni36  1  0.50113332  0.16682735  0.50297412  1
  Ni  Ni37  1  0.33609546  0.00198626  0.66709992  1
  Fe  Fe38  1  0.50066240  0.16781700  0.83426995  1
  Fe  Fe39  1  0.50438099  0.50114990  0.50268809  1
  Ni  Ni40  1  0.33532770  0.33383648  0.66888892  1
  Ni  Ni41  1  0.49904553  0.50161451  0.83377845  1
  Fe  Fe42  1  0.50098092  0.83451467  0.50154551  1
  Ni  Ni43  1  0.33715157  0.66775366  0.66934369  1
  Fe  Fe44  1  0.50109474  0.83446075  0.83466303  1
  Ni  Ni45  1  0.83306223  0.17013801  0.50228100  1
  Ni  Ni46  1  0.66656756  0.00124071  0.66808396  1
  Ni  Ni47  1  0.83392667  0.16644006  0.83443470  1
  Ni  Ni48  1  0.83253150  0.50081248  0.49995434  1
  Ni  Ni49  1  0.66664938  0.33389706  0.66692425  1
  Cr  Cr50  1  0.83401786  0.50029668  0.83428627  1
  Ni  Ni51  1  0.83221594  0.83262586  0.50092002  1
  Ni  Ni52  1  0.66557539  0.66843671  0.66650260  1
  Ni  Ni53  1  0.83301324  0.83643855  0.83655048  1
" 