926,Ni69Fe19Cr10_2,-236.78082163821, 196.90960571541,Ni69Fe19Cr10,"# generated using pymatgen
 data_Cr7Fe10Ni37
_symmetry_space_group_name_H-M   'P 1'
_cell_length_a   7.43655434
_cell_length_b   7.43655434
_cell_length_c   10.51687601
_cell_angle_alpha   90.00000000
_cell_angle_beta   90.00000000
_cell_angle_gamma   90.00000000
_symmetry_Int_Tables_number   1
_chemical_formula_structural   Cr7Fe10Ni37
_chemical_formula_sum   'Cr7 Fe10 Ni37'
_cell_volume   581.60785752
_cell_formula_units_Z   1
loop_
 _symmetry_equiv_pos_site_id
 _symmetry_equiv_pos_as_xyz
  1  'x, y, z'
loop_
 _atom_site_type_symbol
 _atom_site_label
 _atom_site_symmetry_multiplicity
 _atom_site_fract_x
 _atom_site_fract_y
 _atom_site_fract_z
 _atom_site_occupancy
  Ni  Ni0  1  0.00321041  1.00198691  1.00164466  1
  Cr  Cr1  1  0.16915408  0.16733558  0.16987347  1
  Fe  Fe2  1  0.00385651  1.00070172  0.33611747  1
  Ni  Ni3  1  0.00385203  0.33550027  0.00295887  1
  Ni  Ni4  1  0.16951353  0.50388789  0.16846110  1
  Fe  Fe5  1  0.00270209  0.33808151  0.33516358  1
  Fe  Fe6  1  0.00516024  0.66829738  1.00182571  1
  Ni  Ni7  1  0.17081112  0.83393274  0.16906986  1
  Ni  Ni8  1  0.00288337  0.66771369  0.33534538  1
  Ni  Ni9  1  0.33522094  1.00184226  1.00125013  1
  Ni  Ni10  1  0.50248553  0.16972555  0.16849861  1
  Ni  Ni11  1  0.33518821  1.00164201  0.33666697  1
  Ni  Ni12  1  0.33499055  0.33582393  1.00130366  1
  Ni  Ni13  1  0.50199150  0.50269077  0.16914396  1
  Ni  Ni14  1  0.33529208  0.33503026  0.33520460  1
  Ni  Ni15  1  0.33662631  0.66843880  0.00230443  1
  Ni  Ni16  1  0.49978846  0.83393224  0.16818587  1
  Ni  Ni17  1  0.33423054  0.66950301  0.33414393  1
  Fe  Fe18  1  0.66599561  0.00215101  1.00190233  1
  Ni  Ni19  1  0.83462570  0.17091536  0.16705534  1
  Cr  Cr20  1  0.66611122  1.00158416  0.33458851  1
  Fe  Fe21  1  0.66614981  0.33591986  0.00331699  1
  Ni  Ni22  1  0.83470671  0.50097271  0.16933030  1
  Ni  Ni23  1  0.66843447  0.33631688  0.33309530  1
  Ni  Ni24  1  0.66746229  0.66907052  0.00243797  1
  Cr  Cr25  1  0.83727838  0.83520259  0.16759043  1
  Ni  Ni26  1  0.66953950  0.66774967  0.33596428  1
  Ni  Ni27  1  0.16962185  0.16833430  0.50239179  1
  Ni  Ni28  1  0.00333033  1.00021700  0.66833069  1
  Ni  Ni29  1  0.16983059  0.16799522  0.83424935  1
  Ni  Ni30  1  0.16803605  0.50293393  0.50231152  1
  Ni  Ni31  1  0.00576311  0.33624199  0.66775184  1
  Ni  Ni32  1  0.17096684  0.50263250  0.83526426  1
  Ni  Ni33  1  0.16885342  0.83482433  0.50120360  1
  Ni  Ni34  1  0.00254894  0.66984099  0.66910390  1
  Ni  Ni35  1  0.16802913  0.83544748  0.83585525  1
  Ni  Ni36  1  0.50083210  0.16825062  0.50289904  1
  Fe  Fe37  1  0.33487712  0.00211623  0.66826750  1
  Ni  Ni38  1  0.50046097  0.16943291  0.83455572  1
  Cr  Cr39  1  0.50157965  0.50224361  0.50170137  1
  Ni  Ni40  1  0.33405183  0.33412105  0.66977021  1
  Ni  Ni41  1  0.50065403  0.50225286  0.83505097  1
  Ni  Ni42  1  0.50077305  0.83519182  0.50309103  1
  Fe  Fe43  1  0.33392239  0.66882078  0.66932372  1
  Fe  Fe44  1  0.50157087  0.83463972  0.83571657  1
  Cr  Cr45  1  0.83541438  0.16991670  0.50301043  1
  Ni  Ni46  1  0.66730530  0.99996982  0.66980689  1
  Cr  Cr47  1  0.83583937  0.16722165  0.83617958  1
  Fe  Fe48  1  0.83664147  0.50349330  0.50224047  1
  Ni  Ni49  1  0.66632414  0.33528784  0.66916872  1
  Cr  Cr50  1  0.83491771  0.50318746  0.83461959  1
  Fe  Fe51  1  0.83607624  0.83363419  0.50350283  1
  Ni  Ni52  1  0.66928635  0.67096144  0.66795399  1
  Ni  Ni53  1  0.83594391  0.83555328  0.83494778  1
" 