559,Ni69Fe15Cr15_7,-234.876255783232, 186.4283065184,Ni69Fe15Cr15,"# generated using pymatgen
 data_Cr9Fe8Ni37
_symmetry_space_group_name_H-M   'P 1'
_cell_length_a   7.44780952
_cell_length_b   7.44780952
_cell_length_c   10.53279324
_cell_angle_alpha   90.00000000
_cell_angle_beta   90.00000000
_cell_angle_gamma   90.00000000
_symmetry_Int_Tables_number   1
_chemical_formula_structural   Cr9Fe8Ni37
_chemical_formula_sum   'Cr9 Fe8 Ni37'
_cell_volume   584.25263675
_cell_formula_units_Z   1
loop_
 _symmetry_equiv_pos_site_id
 _symmetry_equiv_pos_as_xyz
  1  'x, y, z'
loop_
 _atom_site_type_symbol
 _atom_site_label
 _atom_site_symmetry_multiplicity
 _atom_site_fract_x
 _atom_site_fract_y
 _atom_site_fract_z
 _atom_site_occupancy
  Fe  Fe0  1  0.00236949  1.00028908  1.00044325  1
  Ni  Ni1  1  0.16759228  0.16839050  0.16750843  1
  Ni  Ni2  1  0.00266983  1.00082983  0.33401789  1
  Ni  Ni3  1  0.00339146  0.33683833  0.99980348  1
  Fe  Fe4  1  0.16874440  0.50060528  0.16616554  1
  Ni  Ni5  1  0.00419457  0.33599088  0.33514518  1
  Ni  Ni6  1  1.00119870  0.66696684  0.00132776  1
  Fe  Fe7  1  0.16819493  0.83513684  0.16649347  1
  Cr  Cr8  1  0.00130096  0.66724756  0.33483968  1
  Ni  Ni9  1  0.33519122  0.00154061  1.00086719  1
  Ni  Ni10  1  0.49813155  0.16639295  0.16748144  1
  Cr  Cr11  1  0.33533165  1.00083108  0.33544735  1
  Ni  Ni12  1  0.33196656  0.33272378  0.00264167  1
  Ni  Ni13  1  0.49939120  0.50504462  0.16788235  1
  Fe  Fe14  1  0.33280023  0.33510516  0.33385801  1
  Ni  Ni15  1  0.33278620  0.66958150  0.00179788  1
  Ni  Ni16  1  0.50203968  0.83244400  0.16751953  1
  Ni  Ni17  1  0.33429892  0.66809186  0.33392476  1
  Ni  Ni18  1  0.66561481  0.99944899  1.00063658  1
  Cr  Cr19  1  0.83854953  0.16532094  0.16802749  1
  Ni  Ni20  1  0.66678398  0.99858710  0.33499516  1
  Cr  Cr21  1  0.66832396  0.33447199  1.00121094  1
  Ni  Ni22  1  0.83542879  0.50385931  0.16708667  1
  Cr  Cr23  1  0.66761343  0.33557184  0.33212119  1
  Ni  Ni24  1  0.66995668  0.67031738  0.00268198  1
  Ni  Ni25  1  0.83359474  0.83381446  0.16794863  1
  Ni  Ni26  1  0.66785801  0.66970507  0.33366160  1
  Ni  Ni27  1  0.16614275  0.16797570  0.50118702  1
  Ni  Ni28  1  0.00131617  0.99915203  0.66885859  1
  Ni  Ni29  1  0.16603947  0.16812014  0.83532511  1
  Fe  Fe30  1  0.16829482  0.50060527  0.50299504  1
  Fe  Fe31  1  0.00167393  0.33525498  0.66915261  1
  Ni  Ni32  1  0.16648347  0.50193236  0.83400007  1
  Ni  Ni33  1  0.16748884  0.83448617  0.50155925  1
  Ni  Ni34  1  0.00138648  0.66822049  0.66762520  1
  Ni  Ni35  1  0.16770989  0.83371563  0.83609304  1
  Ni  Ni36  1  0.50069975  0.16733513  0.50197570  1
  Cr  Cr37  1  0.33456116  0.00137776  0.66852466  1
  Ni  Ni38  1  0.50121143  0.16626282  0.83446092  1
  Cr  Cr39  1  0.50173820  0.50387920  0.50263288  1
  Ni  Ni40  1  0.33334849  0.33327268  0.66751344  1
  Cr  Cr41  1  0.49990141  0.50448290  0.83401271  1
  Ni  Ni42  1  0.50163382  0.83279383  0.50130883  1
  Ni  Ni43  1  0.33152391  0.66874596  0.66808724  1
  Ni  Ni44  1  0.50129092  0.83414389  0.83511673  1
  Cr  Cr45  1  0.83650748  0.16764133  0.50110841  1
  Ni  Ni46  1  0.66834548  1.00129051  0.66822753  1
  Ni  Ni47  1  0.83656251  0.16730225  0.83397669  1
  Ni  Ni48  1  0.83560637  0.50226351  0.50275518  1
  Ni  Ni49  1  0.66861595  0.33340837  0.66939641  1
  Ni  Ni50  1  0.83695663  0.50189330  0.83394075  1
  Fe  Fe51  1  0.83353958  0.83503901  0.50141842  1
  Ni  Ni52  1  0.67108858  0.66934846  0.66785209  1
  Fe  Fe53  1  0.83475722  0.83465096  0.83510281  1
" 