8460,Ni69Fe20Cr9_15,-237.080827086597, 196.508562226195,Ni69Fe20Cr9,"# generated using pymatgen
 data_Cr7Fe10Ni37
_symmetry_space_group_name_H-M   'P 1'
_cell_length_a   7.43795432
_cell_length_b   7.43795432
_cell_length_c   10.51885587
_cell_angle_alpha   90.00000000
_cell_angle_beta   90.00000000
_cell_angle_gamma   90.00000000
_symmetry_Int_Tables_number   1
_chemical_formula_structural   Cr7Fe10Ni37
_chemical_formula_sum   'Cr7 Fe10 Ni37'
_cell_volume   581.93639257
_cell_formula_units_Z   1
loop_
 _symmetry_equiv_pos_site_id
 _symmetry_equiv_pos_as_xyz
  1  'x, y, z'
loop_
 _atom_site_type_symbol
 _atom_site_label
 _atom_site_symmetry_multiplicity
 _atom_site_fract_x
 _atom_site_fract_y
 _atom_site_fract_z
 _atom_site_occupancy
  Cr  Cr0  1  0.00243645  1.00019033  0.00245320  1
  Fe  Fe1  1  0.17076021  0.16923559  0.16740925  1
  Cr  Cr2  1  1.00165992  1.00071975  0.33580747  1
  Ni  Ni3  1  0.00340901  0.33818463  0.00320810  1
  Fe  Fe4  1  0.16855774  0.50340284  0.16677351  1
  Fe  Fe5  1  1.00012200  0.33570904  0.33487972  1
  Ni  Ni6  1  1.00166736  0.66674050  1.00145066  1
  Ni  Ni7  1  0.17104128  0.83417749  0.16822264  1
  Ni  Ni8  1  0.00198670  0.66878291  0.33440203  1
  Ni  Ni9  1  0.33692640  0.00288981  1.00185095  1
  Ni  Ni10  1  0.50266388  0.16752527  0.16679719  1
  Ni  Ni11  1  0.33645967  1.00145152  0.33541947  1
  Ni  Ni12  1  0.33472282  0.33438548  0.00240427  1
  Ni  Ni13  1  0.50403864  0.50250248  0.16821587  1
  Cr  Cr14  1  0.33642432  0.33476706  0.33591076  1
  Ni  Ni15  1  0.33450999  0.66859198  0.00343910  1
  Ni  Ni16  1  0.50065657  0.83584251  0.16879956  1
  Fe  Fe17  1  0.33623563  0.67124278  0.33508262  1
  Ni  Ni18  1  0.66588404  1.00114670  0.00313254  1
  Fe  Fe19  1  0.83223814  0.17034987  0.16875867  1
  Ni  Ni20  1  0.66733247  1.00184607  0.33551540  1
  Ni  Ni21  1  0.66773756  0.33576886  0.00369469  1
  Ni  Ni22  1  0.83526421  0.50106433  0.16759204  1
  Ni  Ni23  1  0.66811431  0.33494010  0.33475965  1
  Ni  Ni24  1  0.66968888  0.66894901  0.00267052  1
  Fe  Fe25  1  0.83267231  0.83293581  0.16867820  1
  Ni  Ni26  1  0.66882275  0.66908089  0.33451254  1
  Ni  Ni27  1  0.16798291  0.16722900  0.50254245  1
  Ni  Ni28  1  0.00253329  1.00085105  0.66722713  1
  Ni  Ni29  1  0.16960044  0.16908640  0.83563444  1
  Fe  Fe30  1  0.16812073  0.50376399  0.50290117  1
  Ni  Ni31  1  0.00220802  0.33517043  0.66800926  1
  Ni  Ni32  1  0.16564241  0.50188304  0.83655028  1
  Ni  Ni33  1  0.17048786  0.83532440  0.50354981  1
  Ni  Ni34  1  0.00222098  0.66984588  0.67001659  1
  Fe  Fe35  1  0.16908938  0.83387619  0.83442813  1
  Ni  Ni36  1  0.50310197  0.16641033  0.50257962  1
  Ni  Ni37  1  0.33481523  1.00099765  0.66859662  1
  Fe  Fe38  1  0.50151723  0.16635939  0.83631808  1
  Fe  Fe39  1  0.50265109  0.50341296  0.50185509  1
  Cr  Cr40  1  0.33502691  0.33435072  0.66812987  1
  Cr  Cr41  1  0.50340089  0.50354206  0.83617368  1
  Ni  Ni42  1  0.50081243  0.83592497  0.50138074  1
  Ni  Ni43  1  0.33420151  0.67062673  0.66669179  1
  Ni  Ni44  1  0.50175824  0.83652095  0.83568531  1
  Ni  Ni45  1  0.83478039  0.16907686  0.50238291  1
  Ni  Ni46  1  0.66851821  1.00101085  0.66721584  1
  Cr  Cr47  1  0.83529314  0.17037650  0.83370780  1
  Cr  Cr48  1  0.83506044  0.50115718  0.50339020  1
  Ni  Ni49  1  0.66930061  0.33455598  0.66741137  1
  Ni  Ni50  1  0.83745747  0.50320999  0.83559642  1
  Ni  Ni51  1  0.83456709  0.83576281  0.50249798  1
  Ni  Ni52  1  0.66944375  0.67029950  0.66868591  1
  Ni  Ni53  1  0.83398366  0.83256012  0.83461042  1
" 