2920,Ni69Fe19Cr10_10,-236.631124085079, 193.800701834484,Ni69Fe19Cr10,"# generated using pymatgen
 data_Cr7Fe10Ni37
_symmetry_space_group_name_H-M   'P 1'
_cell_length_a   7.43849169
_cell_length_b   7.43849169
_cell_length_c   10.51961583
_cell_angle_alpha   90.00000000
_cell_angle_beta   90.00000000
_cell_angle_gamma   90.00000000
_symmetry_Int_Tables_number   1
_chemical_formula_structural   Cr7Fe10Ni37
_chemical_formula_sum   'Cr7 Fe10 Ni37'
_cell_volume   582.06253253
_cell_formula_units_Z   1
loop_
 _symmetry_equiv_pos_site_id
 _symmetry_equiv_pos_as_xyz
  1  'x, y, z'
loop_
 _atom_site_type_symbol
 _atom_site_label
 _atom_site_symmetry_multiplicity
 _atom_site_fract_x
 _atom_site_fract_y
 _atom_site_fract_z
 _atom_site_occupancy
  Fe  Fe0  1  1.00112188  0.00356346  0.00205871  1
  Fe  Fe1  1  0.16736406  0.16900991  0.16824951  1
  Ni  Ni2  1  0.00209193  0.00329237  0.33331381  1
  Ni  Ni3  1  1.00115733  0.33314706  0.00286232  1
  Ni  Ni4  1  0.17029727  0.50074561  0.16910523  1
  Cr  Cr5  1  0.00208768  0.33411971  0.33605488  1
  Cr  Cr6  1  0.99829829  0.66770235  0.00277182  1
  Fe  Fe7  1  0.16881979  0.83691959  0.17021460  1
  Cr  Cr8  1  0.00217467  0.66823841  0.33479792  1
  Ni  Ni9  1  0.33571188  0.00370763  1.00112711  1
  Cr  Cr10  1  0.50162747  0.16890272  0.16864342  1
  Ni  Ni11  1  0.33537647  1.00125223  0.33601843  1
  Ni  Ni12  1  0.33441791  0.33296231  0.00192245  1
  Ni  Ni13  1  0.50127237  0.50246218  0.16922826  1
  Ni  Ni14  1  0.33566815  0.33592713  0.33593906  1
  Cr  Cr15  1  0.33859234  0.66906223  0.00282515  1
  Fe  Fe16  1  0.50391011  0.83382547  0.16945537  1
  Ni  Ni17  1  0.33780335  0.66857971  0.33512476  1
  Ni  Ni18  1  0.66896873  1.00078015  1.00063949  1
  Ni  Ni19  1  0.83635972  0.16638880  0.16830943  1
  Ni  Ni20  1  0.66829135  1.00116092  0.33574875  1
  Fe  Fe21  1  0.66903945  0.33593893  1.00055370  1
  Ni  Ni22  1  0.83418585  0.50237731  0.16707330  1
  Fe  Fe23  1  0.66716654  0.33600013  0.33639075  1
  Ni  Ni24  1  0.66915815  0.66917749  0.00213267  1
  Ni  Ni25  1  0.83464447  0.83698941  0.16827733  1
  Ni  Ni26  1  0.66592798  0.66860959  0.33353721  1
  Ni  Ni27  1  0.17037156  0.16800426  0.50226110  1
  Ni  Ni28  1  0.00313604  0.00279041  0.66979690  1
  Fe  Fe29  1  0.16885414  0.16747312  0.83475524  1
  Ni  Ni30  1  0.17019235  0.50157574  0.50320649  1
  Ni  Ni31  1  1.00050853  0.33477449  0.66760472  1
  Cr  Cr32  1  0.16881540  0.50045904  0.83266242  1
  Ni  Ni33  1  0.17045805  0.83617964  0.50268076  1
  Ni  Ni34  1  1.00120774  0.66819637  0.66845761  1
  Fe  Fe35  1  0.16881544  0.83821845  0.83271939  1
  Ni  Ni36  1  0.50058189  0.16861482  0.50187736  1
  Ni  Ni37  1  0.33489300  1.00176739  0.66861166  1
  Ni  Ni38  1  0.50163416  0.16784135  0.83547543  1
  Ni  Ni39  1  0.50095633  0.50115789  0.50150251  1
  Ni  Ni40  1  0.33597953  0.33425632  0.66789523  1
  Ni  Ni41  1  0.50331224  0.50097400  0.83502795  1
  Ni  Ni42  1  0.50007742  0.83598592  0.50097769  1
  Ni  Ni43  1  0.33630504  0.66973578  0.66742613  1
  Ni  Ni44  1  0.50321971  0.83694382  0.83508981  1
  Fe  Fe45  1  0.83494474  0.16947795  0.50268072  1
  Fe  Fe46  1  0.66747888  0.00268505  0.66989247  1
  Ni  Ni47  1  0.83498039  0.16742709  0.83539150  1
  Ni  Ni48  1  0.83460757  0.50107089  0.50358681  1
  Ni  Ni49  1  0.66926963  0.33618322  0.66865938  1
  Ni  Ni50  1  0.83382476  0.50190771  0.83510152  1
  Cr  Cr51  1  0.83511196  0.83557460  0.50284180  1
  Ni  Ni52  1  0.66824635  0.66710983  0.67008880  1
  Ni  Ni53  1  0.83433335  0.83642343  0.83500453  1
" 