6452,Ni69Fe19Cr10_19,-237.057001507596, 195.348504080039,Ni69Fe19Cr10,"# generated using pymatgen
 data_Cr7Fe10Ni37
_symmetry_space_group_name_H-M   'P 1'
_cell_length_a   7.43882357
_cell_length_b   7.43882357
_cell_length_c   10.52008518
_cell_angle_alpha   90.00000000
_cell_angle_beta   90.00000000
_cell_angle_gamma   90.00000000
_symmetry_Int_Tables_number   1
_chemical_formula_structural   Cr7Fe10Ni37
_chemical_formula_sum   'Cr7 Fe10 Ni37'
_cell_volume   582.14044494
_cell_formula_units_Z   1
loop_
 _symmetry_equiv_pos_site_id
 _symmetry_equiv_pos_as_xyz
  1  'x, y, z'
loop_
 _atom_site_type_symbol
 _atom_site_label
 _atom_site_symmetry_multiplicity
 _atom_site_fract_x
 _atom_site_fract_y
 _atom_site_fract_z
 _atom_site_occupancy
  Ni  Ni0  1  1.00123936  0.00253638  0.00318433  1
  Ni  Ni1  1  0.16689931  0.16905112  0.16766908  1
  Ni  Ni2  1  0.00254645  0.00300551  0.33366309  1
  Ni  Ni3  1  0.00308348  0.33525114  0.00302779  1
  Ni  Ni4  1  0.16741048  0.50071412  0.16924137  1
  Ni  Ni5  1  1.00136832  0.33529241  0.33544286  1
  Ni  Ni6  1  1.00001391  0.66790386  0.00234260  1
  Fe  Fe7  1  0.16741204  0.83576341  0.16923741  1
  Ni  Ni8  1  0.00229526  0.66739226  0.33465166  1
  Ni  Ni9  1  0.33590434  0.00306982  1.00141918  1
  Cr  Cr10  1  0.50112040  0.16773939  0.16952146  1
  Ni  Ni11  1  0.33474827  1.00045617  0.33572197  1
  Fe  Fe12  1  0.33309643  0.33373656  1.00107332  1
  Ni  Ni13  1  0.50225827  0.50357197  0.16906998  1
  Ni  Ni14  1  0.33465264  0.33656605  0.33552923  1
  Cr  Cr15  1  0.33639046  0.66813085  0.00231274  1
  Ni  Ni16  1  0.50333174  0.83444296  0.16937772  1
  Ni  Ni17  1  0.33627477  0.66866931  0.33600741  1
  Ni  Ni18  1  0.66854575  0.99999952  1.00032836  1
  Ni  Ni19  1  0.83750309  0.16797958  0.16875876  1
  Ni  Ni20  1  0.66839429  1.00138456  0.33604215  1
  Fe  Fe21  1  0.66868588  0.33511614  0.00288548  1
  Ni  Ni22  1  0.83602303  0.50275931  0.16906658  1
  Ni  Ni23  1  0.66967038  0.33682024  0.33640796  1
  Fe  Fe24  1  0.67010171  0.67074757  0.00311006  1
  Ni  Ni25  1  0.83464905  0.83495376  0.16755650  1
  Ni  Ni26  1  0.66712221  0.66749065  0.33310002  1
  Ni  Ni27  1  0.16825320  0.16938138  0.50232425  1
  Ni  Ni28  1  0.00332139  0.00319723  0.66884176  1
  Ni  Ni29  1  0.17106823  0.17046181  0.83570102  1
  Ni  Ni30  1  0.16882079  0.50093771  0.50245943  1
  Ni  Ni31  1  0.00338383  0.33477018  0.66722091  1
  Ni  Ni32  1  0.16910079  0.49943719  0.83399273  1
  Fe  Fe33  1  0.16984492  0.83524612  0.50170121  1
  Fe  Fe34  1  0.00417044  0.66696704  0.66816572  1
  Cr  Cr35  1  0.16752847  0.83594413  0.83385488  1
  Fe  Fe36  1  0.50189944  0.16957414  0.50216718  1
  Ni  Ni37  1  0.33526936  0.00270000  0.66854759  1
  Ni  Ni38  1  0.49977474  0.16741333  0.83455831  1
  Ni  Ni39  1  0.50065489  0.50185753  0.50124824  1
  Ni  Ni40  1  0.33490452  0.33496663  0.67016428  1
  Fe  Fe41  1  0.50021953  0.50009194  0.83467871  1
  Ni  Ni42  1  0.49994243  0.83572986  0.50100227  1
  Fe  Fe43  1  0.33449872  0.66720673  0.66747230  1
  Ni  Ni44  1  0.50354782  0.83771834  0.83531195  1
  Ni  Ni45  1  0.83585999  0.17009298  0.50194847  1
  Fe  Fe46  1  0.66709001  0.00415563  0.66903309  1
  Cr  Cr47  1  0.83552382  0.16672796  0.83503422  1
  Ni  Ni48  1  0.83621623  0.49930415  0.50082177  1
  Ni  Ni49  1  0.66740094  0.33499945  0.66714479  1
  Cr  Cr50  1  0.83743886  0.50296971  0.83577845  1
  Cr  Cr51  1  0.83507539  0.83619661  0.50162864  1
  Cr  Cr52  1  0.66716759  0.66810443  0.66959492  1
  Ni  Ni53  1  0.83372449  0.83574532  0.83629595  1
" 