1266,Ni69Fe20Cr9_0,-236.595226164138, 192.92543504675,Ni69Fe20Cr9,"# generated using pymatgen
 data_Cr7Fe10Ni37
_symmetry_space_group_name_H-M   'P 1'
_cell_length_a   7.43610718
_cell_length_b   7.43610718
_cell_length_c   10.51624362
_cell_angle_alpha   90.00000000
_cell_angle_beta   90.00000000
_cell_angle_gamma   90.00000000
_symmetry_Int_Tables_number   1
_chemical_formula_structural   Cr7Fe10Ni37
_chemical_formula_sum   'Cr7 Fe10 Ni37'
_cell_volume   581.50294700
_cell_formula_units_Z   1
loop_
 _symmetry_equiv_pos_site_id
 _symmetry_equiv_pos_as_xyz
  1  'x, y, z'
loop_
 _atom_site_type_symbol
 _atom_site_label
 _atom_site_symmetry_multiplicity
 _atom_site_fract_x
 _atom_site_fract_y
 _atom_site_fract_z
 _atom_site_occupancy
  Ni  Ni0  1  0.00366625  0.00326693  0.00208606  1
  Ni  Ni1  1  0.16934582  0.16863899  0.16920481  1
  Fe  Fe2  1  0.99969610  1.00146697  0.33465900  1
  Ni  Ni3  1  0.00346745  0.33545721  1.00064274  1
  Ni  Ni4  1  0.16764718  0.50135158  0.16797333  1
  Ni  Ni5  1  0.00236692  0.33805443  0.33670964  1
  Fe  Fe6  1  1.00195479  0.66692972  0.00283825  1
  Ni  Ni7  1  0.16808625  0.83567681  0.16697516  1
  Ni  Ni8  1  1.00070014  0.66724268  0.33412825  1
  Ni  Ni9  1  0.33412543  0.00335391  0.00450585  1
  Ni  Ni10  1  0.50065006  0.16997734  0.16936746  1
  Fe  Fe11  1  0.33712827  0.00293743  0.33367265  1
  Ni  Ni12  1  0.33461022  0.33569020  1.00200961  1
  Ni  Ni13  1  0.50363360  0.50133563  0.16738220  1
  Ni  Ni14  1  0.33579058  0.33502942  0.33467642  1
  Ni  Ni15  1  0.33620134  0.66690531  0.00284785  1
  Ni  Ni16  1  0.50157306  0.83504329  0.16901667  1
  Cr  Cr17  1  0.33593474  0.66627456  0.33606310  1
  Cr  Cr18  1  0.66821342  0.00276489  0.99988776  1
  Cr  Cr19  1  0.83477295  0.17280075  0.17055210  1
  Ni  Ni20  1  0.66719919  1.00157616  0.33816364  1
  Ni  Ni21  1  0.66820951  0.33825886  1.00126104  1
  Ni  Ni22  1  0.83480440  0.50353728  0.16856718  1
  Ni  Ni23  1  0.66797823  0.33595074  0.33642001  1
  Ni  Ni24  1  0.66871906  0.66721247  0.00365454  1
  Fe  Fe25  1  0.83500029  0.83466170  0.16923326  1
  Ni  Ni26  1  0.67038996  0.66906857  0.33523439  1
  Cr  Cr27  1  0.16836649  0.17045412  0.50018562  1
  Ni  Ni28  1  1.00185667  0.00319845  0.66964889  1
  Ni  Ni29  1  0.16925539  0.16956409  0.83567635  1
  Ni  Ni30  1  0.16751559  0.50197601  0.50359614  1
  Ni  Ni31  1  1.00108125  0.33609682  0.66884480  1
  Ni  Ni32  1  0.16855985  0.49972557  0.83478105  1
  Cr  Cr33  1  0.16652454  0.83404916  0.50455153  1
  Ni  Ni34  1  0.99921393  0.66682733  0.66911104  1
  Cr  Cr35  1  0.16739725  0.83502257  0.83551651  1
  Ni  Ni36  1  0.50425538  0.17006303  0.50191793  1
  Ni  Ni37  1  0.33734760  0.00430565  0.66804720  1
  Ni  Ni38  1  0.50123296  0.17169762  0.83500710  1
  Ni  Ni39  1  0.50403332  0.50021869  0.50297025  1
  Fe  Fe40  1  0.33558415  0.33624215  0.66927167  1
  Ni  Ni41  1  0.50317425  0.49982773  0.83627613  1
  Fe  Fe42  1  0.50454129  0.83506982  0.50322066  1
  Fe  Fe43  1  0.33516383  0.66435702  0.66865987  1
  Cr  Cr44  1  0.50309703  0.83324966  0.83290321  1
  Ni  Ni45  1  0.83351737  0.16928807  0.50273582  1
  Fe  Fe46  1  0.67198934  0.00317647  0.66793783  1
  Fe  Fe47  1  0.83680514  0.17067263  0.83444800  1
  Ni  Ni48  1  0.83469211  0.50234775  0.50142501  1
  Ni  Ni49  1  0.66903969  0.33633169  0.66900577  1
  Fe  Fe50  1  0.83469180  0.50205163  0.83541614  1
  Ni  Ni51  1  0.83493299  0.83466666  0.50141287  1
  Ni  Ni52  1  0.66992386  0.66743250  0.66670850  1
  Ni  Ni53  1  0.83668434  0.83396588  0.83533374  1
" 