7027,Ni69Fe19Cr10_12,-236.838599114939, 194.191104504544,Ni69Fe19Cr10,"# generated using pymatgen
 data_Cr7Fe10Ni37
_symmetry_space_group_name_H-M   'P 1'
_cell_length_a   7.43938695
_cell_length_b   7.43938695
_cell_length_c   10.52088192
_cell_angle_alpha   90.00000000
_cell_angle_beta   90.00000000
_cell_angle_gamma   90.00000000
_symmetry_Int_Tables_number   1
_chemical_formula_structural   Cr7Fe10Ni37
_chemical_formula_sum   'Cr7 Fe10 Ni37'
_cell_volume   582.27271967
_cell_formula_units_Z   1
loop_
 _symmetry_equiv_pos_site_id
 _symmetry_equiv_pos_as_xyz
  1  'x, y, z'
loop_
 _atom_site_type_symbol
 _atom_site_label
 _atom_site_symmetry_multiplicity
 _atom_site_fract_x
 _atom_site_fract_y
 _atom_site_fract_z
 _atom_site_occupancy
  Cr  Cr0  1  1.00172706  1.00108627  0.99936187  1
  Ni  Ni1  1  0.17003687  0.17041987  0.16926186  1
  Ni  Ni2  1  1.00124026  0.00317840  0.33675535  1
  Fe  Fe3  1  0.00218758  0.33734605  1.00025506  1
  Ni  Ni4  1  0.16885880  0.49952246  0.16614786  1
  Fe  Fe5  1  1.00050879  0.33408017  0.33674286  1
  Ni  Ni6  1  1.00088216  0.66585590  1.00116750  1
  Cr  Cr7  1  0.16891580  0.83616142  0.16792333  1
  Cr  Cr8  1  0.99966435  0.66861875  0.33605887  1
  Ni  Ni9  1  0.33765150  0.00387964  0.00212884  1
  Ni  Ni10  1  0.50124003  0.16800256  0.16766411  1
  Fe  Fe11  1  0.33630402  0.00267997  0.33536004  1
  Fe  Fe12  1  0.33495440  0.33407111  0.00273555  1
  Ni  Ni13  1  0.50288773  0.50241228  0.16707923  1
  Cr  Cr14  1  0.33538769  0.33420962  0.33472931  1
  Fe  Fe15  1  0.33614522  0.66887944  0.00205385  1
  Ni  Ni16  1  0.50477265  0.83516372  0.16817668  1
  Cr  Cr17  1  0.33693521  0.66787536  0.33599386  1
  Ni  Ni18  1  0.66541442  1.00138495  1.00140681  1
  Cr  Cr19  1  0.83461654  0.16797992  0.16969894  1
  Ni  Ni20  1  0.66906416  1.00152407  0.33465171  1
  Ni  Ni21  1  0.66734214  0.33554002  0.00186568  1
  Fe  Fe22  1  0.83347867  0.50296487  0.16750447  1
  Ni  Ni23  1  0.66824624  0.33550515  0.33621859  1
  Ni  Ni24  1  0.66997235  0.66865213  0.00420351  1
  Ni  Ni25  1  0.83141407  0.83398618  0.16895286  1
  Ni  Ni26  1  0.66904181  0.66854742  0.33413547  1
  Ni  Ni27  1  0.16706932  0.16728275  0.50158178  1
  Ni  Ni28  1  1.00183667  0.00205030  0.66852812  1
  Ni  Ni29  1  0.16889573  0.16938794  0.83472949  1
  Ni  Ni30  1  0.16886940  0.50131205  0.50439407  1
  Ni  Ni31  1  0.00316653  0.33553702  0.66842858  1
  Ni  Ni32  1  0.16686848  0.50156238  0.83503333  1
  Ni  Ni33  1  0.16830907  0.83698126  0.50374631  1
  Ni  Ni34  1  0.00203814  0.66798992  0.66876240  1
  Fe  Fe35  1  0.16895846  0.83481751  0.83377377  1
  Fe  Fe36  1  0.50277681  0.16823961  0.50265436  1
  Ni  Ni37  1  0.33503655  0.00279193  0.66804620  1
  Ni  Ni38  1  0.50188646  0.16607305  0.83549690  1
  Ni  Ni39  1  0.50319766  0.50246838  0.50329655  1
  Ni  Ni40  1  0.33362293  0.33470846  0.66810116  1
  Cr  Cr41  1  0.50154596  0.50254064  0.83469237  1
  Fe  Fe42  1  0.50289177  0.83521671  0.50299838  1
  Ni  Ni43  1  0.33400599  0.66807774  0.66784650  1
  Ni  Ni44  1  0.50260000  0.83707240  0.83549599  1
  Ni  Ni45  1  0.83587542  0.16793225  0.50177880  1
  Ni  Ni46  1  0.66870526  1.00166577  0.66952165  1
  Ni  Ni47  1  0.83479494  0.16825570  0.83402073  1
  Ni  Ni48  1  0.83350876  0.50122740  0.50190740  1
  Fe  Fe49  1  0.66961858  0.33452742  0.66780041  1
  Ni  Ni50  1  0.83724084  0.50227564  0.83566134  1
  Ni  Ni51  1  0.83472199  0.83641641  0.50201068  1
  Ni  Ni52  1  0.66953332  0.66940609  0.66723727  1
  Ni  Ni53  1  0.83392417  0.83504530  0.83461110  1
" 