4889,Ni69Fe15Cr15_1,-234.785465132679, 184.1663415752,Ni69Fe15Cr15,"# generated using pymatgen
 data_Cr9Fe8Ni37
_symmetry_space_group_name_H-M   'P 1'
_cell_length_a   7.44027218
_cell_length_b   7.44027218
_cell_length_c   10.52213383
_cell_angle_alpha   90.00000000
_cell_angle_beta   90.00000000
_cell_angle_gamma   90.00000000
_symmetry_Int_Tables_number   1
_chemical_formula_structural   Cr9Fe8Ni37
_chemical_formula_sum   'Cr9 Fe8 Ni37'
_cell_volume   582.48060378
_cell_formula_units_Z   1
loop_
 _symmetry_equiv_pos_site_id
 _symmetry_equiv_pos_as_xyz
  1  'x, y, z'
loop_
 _atom_site_type_symbol
 _atom_site_label
 _atom_site_symmetry_multiplicity
 _atom_site_fract_x
 _atom_site_fract_y
 _atom_site_fract_z
 _atom_site_occupancy
  Ni  Ni0  1  0.00364981  0.00252511  0.00216682  1
  Ni  Ni1  1  0.16932060  0.16857322  0.16849996  1
  Ni  Ni2  1  0.00324117  0.00225952  0.33459021  1
  Ni  Ni3  1  0.00278140  0.33323151  0.99937849  1
  Ni  Ni4  1  0.16934344  0.50137264  0.16842397  1
  Ni  Ni5  1  0.00191744  0.33317474  0.33718571  1
  Ni  Ni6  1  0.00408579  0.66968651  1.00066525  1
  Ni  Ni7  1  0.16803973  0.83542181  0.16816250  1
  Ni  Ni8  1  0.00365094  0.66998015  0.33606380  1
  Fe  Fe9  1  0.33279957  1.00048915  0.00403612  1
  Ni  Ni10  1  0.49979610  0.16922298  0.16930963  1
  Ni  Ni11  1  0.33432657  1.00114898  0.33541113  1
  Fe  Fe12  1  0.33274392  0.33598224  0.00376428  1
  Ni  Ni13  1  0.50068792  0.50147002  0.16844012  1
  Fe  Fe14  1  0.33407323  0.33531839  0.33492268  1
  Ni  Ni15  1  0.33449961  0.66920453  0.00253025  1
  Ni  Ni16  1  0.50130470  0.83463031  0.16908661  1
  Ni  Ni17  1  0.33542215  0.66955565  0.33547450  1
  Cr  Cr18  1  0.67026653  1.00146697  0.00405146  1
  Fe  Fe19  1  0.83678393  0.16849603  0.16937482  1
  Fe  Fe20  1  0.66850494  1.00078557  0.33557311  1
  Ni  Ni21  1  0.66908671  0.33532793  0.00201728  1
  Cr  Cr22  1  0.83637931  0.50381793  0.16738317  1
  Ni  Ni23  1  0.66731198  0.33418891  0.33611109  1
  Ni  Ni24  1  0.66683875  0.66849997  1.00133288  1
  Ni  Ni25  1  0.83604327  0.83471099  0.16986118  1
  Ni  Ni26  1  0.66631686  0.66819599  0.33577623  1
  Ni  Ni27  1  0.16871741  0.16901752  0.50057361  1
  Cr  Cr28  1  1.00072936  0.00390326  0.66846080  1
  Ni  Ni29  1  0.16671226  0.16910183  0.83627277  1
  Ni  Ni30  1  0.16677320  0.50171104  0.49999952  1
  Ni  Ni31  1  0.00252432  0.33381051  0.66889025  1
  Ni  Ni32  1  0.16583658  0.50090575  0.83669287  1
  Ni  Ni33  1  0.17050405  0.83472251  0.50067738  1
  Cr  Cr34  1  0.00427637  0.66672651  0.66849936  1
  Fe  Fe35  1  0.16948258  0.83493616  0.83710643  1
  Ni  Ni36  1  0.50172247  0.16542832  0.50053984  1
  Fe  Fe37  1  0.33551199  0.99986988  0.66636247  1
  Cr  Cr38  1  0.49999553  0.16490631  0.83522183  1
  Fe  Fe39  1  0.50118453  0.50298027  0.49862194  1
  Cr  Cr40  1  0.33154604  0.33682248  0.66529996  1
  Cr  Cr41  1  0.50132052  0.50419196  0.83793815  1
  Ni  Ni42  1  0.50113032  0.83698664  0.50194296  1
  Ni  Ni43  1  0.33451827  0.67090993  0.66750618  1
  Ni  Ni44  1  0.50063412  0.83579842  0.83450423  1
  Ni  Ni45  1  0.83493693  0.16899483  0.50025185  1
  Ni  Ni46  1  0.66799963  1.00138631  0.66688960  1
  Ni  Ni47  1  0.83794536  0.16905588  0.83600724  1
  Ni  Ni48  1  0.83737797  0.50109090  0.50033349  1
  Cr  Cr49  1  0.67260656  0.33320816  0.66754468  1
  Ni  Ni50  1  0.83885783  0.50153463  0.83759750  1
  Ni  Ni51  1  0.83379571  0.83508874  0.49877372  1
  Cr  Cr52  1  0.66730160  0.67062866  0.66813269  1
  Ni  Ni53  1  0.83400745  0.83471019  0.83693074  1
" 