4130,Ni69Fe20Cr9_2,-236.681001124215, 192.251491501395,Ni69Fe20Cr9,"# generated using pymatgen
 data_Cr7Fe10Ni37
_symmetry_space_group_name_H-M   'P 1'
_cell_length_a   7.43731718
_cell_length_b   7.43731718
_cell_length_c   10.51795483
_cell_angle_alpha   90.00000000
_cell_angle_beta   90.00000000
_cell_angle_gamma   90.00000000
_symmetry_Int_Tables_number   1
_chemical_formula_structural   Cr7Fe10Ni37
_chemical_formula_sum   'Cr7 Fe10 Ni37'
_cell_volume   581.78685981
_cell_formula_units_Z   1
loop_
 _symmetry_equiv_pos_site_id
 _symmetry_equiv_pos_as_xyz
  1  'x, y, z'
loop_
 _atom_site_type_symbol
 _atom_site_label
 _atom_site_symmetry_multiplicity
 _atom_site_fract_x
 _atom_site_fract_y
 _atom_site_fract_z
 _atom_site_occupancy
  Cr  Cr0  1  0.00470637  1.00074922  0.00234537  1
  Fe  Fe1  1  0.17117801  0.16843430  0.16943570  1
  Ni  Ni2  1  0.00511033  1.00067151  0.33558073  1
  Cr  Cr3  1  1.00120134  0.33529477  0.00416395  1
  Ni  Ni4  1  0.16973722  0.50357950  0.16967303  1
  Fe  Fe5  1  0.00283528  0.33383326  0.33402603  1
  Ni  Ni6  1  0.99914536  0.67040320  1.00155381  1
  Ni  Ni7  1  0.17001533  0.83258567  0.16848809  1
  Ni  Ni8  1  0.00229544  0.67077028  0.33455807  1
  Ni  Ni9  1  0.33666964  0.00226106  0.00253664  1
  Ni  Ni10  1  0.50165132  0.16917086  0.16689368  1
  Ni  Ni11  1  0.33286582  0.00315767  0.33470831  1
  Ni  Ni12  1  0.33858557  0.33302482  1.00131341  1
  Ni  Ni13  1  0.50039702  0.50123068  0.16960899  1
  Ni  Ni14  1  0.33603401  0.33379845  0.33667868  1
  Fe  Fe15  1  0.33664872  0.66803978  0.00270191  1
  Ni  Ni16  1  0.50017203  0.83545061  0.16797967  1
  Fe  Fe17  1  0.33591964  0.66978119  0.33586207  1
  Fe  Fe18  1  0.66861942  0.00206756  0.00283372  1
  Ni  Ni19  1  0.83274401  0.16936132  0.17045594  1
  Cr  Cr20  1  0.66708241  1.00025308  0.33485571  1
  Ni  Ni21  1  0.66621074  0.33790428  1.00161562  1
  Ni  Ni22  1  0.83559642  0.50271170  0.16944528  1
  Ni  Ni23  1  0.66584722  0.33643473  0.33430608  1
  Ni  Ni24  1  0.66822978  0.66770637  0.00291694  1
  Ni  Ni25  1  0.83602111  0.83420221  0.16953800  1
  Ni  Ni26  1  0.66830364  0.66733241  0.33457556  1
  Fe  Fe27  1  0.16887035  0.16616665  0.50201187  1
  Ni  Ni28  1  0.00413712  1.00051945  0.66841552  1
  Ni  Ni29  1  0.17158358  0.16782663  0.83416916  1
  Ni  Ni30  1  0.17099569  0.50389472  0.50137120  1
  Cr  Cr31  1  1.00000537  0.33351357  0.66937564  1
  Cr  Cr32  1  0.16982653  0.50456985  0.83578103  1
  Ni  Ni33  1  0.16921148  0.83330719  0.50310103  1
  Ni  Ni34  1  0.00315133  0.67202783  0.66995059  1
  Fe  Fe35  1  0.17037104  0.83732240  0.83457785  1
  Ni  Ni36  1  0.50156795  0.16870946  0.50404603  1
  Ni  Ni37  1  0.33489074  1.00183827  0.66867970  1
  Ni  Ni38  1  0.50209321  0.16734517  0.83498632  1
  Fe  Fe39  1  0.50125635  0.50200325  0.50090473  1
  Fe  Fe40  1  0.33586357  0.33604192  0.66794922  1
  Ni  Ni41  1  0.50151118  0.50159215  0.83491930  1
  Ni  Ni42  1  0.49916549  0.83798311  0.50062908  1
  Ni  Ni43  1  0.33631269  0.67150969  0.66780929  1
  Ni  Ni44  1  0.50162244  0.83690912  0.83688581  1
  Ni  Ni45  1  0.83318445  0.16704637  0.50199357  1
  Fe  Fe46  1  0.66840328  1.00126682  0.66794327  1
  Ni  Ni47  1  0.83247842  0.16688262  0.83427953  1
  Cr  Cr48  1  0.83846739  0.50164337  0.49947444  1
  Ni  Ni49  1  0.66567308  0.33418567  0.66997046  1
  Ni  Ni50  1  0.83397850  0.50295734  0.83673532  1
  Ni  Ni51  1  0.83740379  0.83725859  0.50171743  1
  Cr  Cr52  1  0.66768779  0.66737613  0.66721972  1
  Ni  Ni53  1  0.83439559  0.83602378  0.83438350  1
" 