5328,Ni69Fe19Cr10_5,-236.8603795798, 195.228809383317,Ni69Fe19Cr10,"# generated using pymatgen
 data_Cr7Fe10Ni37
_symmetry_space_group_name_H-M   'P 1'
_cell_length_a   7.43626776
_cell_length_b   7.43626776
_cell_length_c   10.51647072
_cell_angle_alpha   90.00000000
_cell_angle_beta   90.00000000
_cell_angle_gamma   90.00000000
_symmetry_Int_Tables_number   1
_chemical_formula_structural   Cr7Fe10Ni37
_chemical_formula_sum   'Cr7 Fe10 Ni37'
_cell_volume   581.54062045
_cell_formula_units_Z   1
loop_
 _symmetry_equiv_pos_site_id
 _symmetry_equiv_pos_as_xyz
  1  'x, y, z'
loop_
 _atom_site_type_symbol
 _atom_site_label
 _atom_site_symmetry_multiplicity
 _atom_site_fract_x
 _atom_site_fract_y
 _atom_site_fract_z
 _atom_site_occupancy
  Ni  Ni0  1  1.00102068  0.00283742  1.00203359  1
  Ni  Ni1  1  0.16860601  0.16779729  0.16864041  1
  Ni  Ni2  1  1.00143712  1.00202283  0.33504333  1
  Ni  Ni3  1  1.00198436  0.33430263  0.00286801  1
  Ni  Ni4  1  0.16731492  0.50227098  0.16968035  1
  Ni  Ni5  1  0.00514326  0.33459130  0.33428226  1
  Ni  Ni6  1  0.00309245  0.66930133  0.00345263  1
  Ni  Ni7  1  0.16869545  0.83579376  0.16925089  1
  Ni  Ni8  1  0.00323620  0.66967134  0.33446547  1
  Ni  Ni9  1  0.33674348  0.00217850  0.00266810  1
  Ni  Ni10  1  0.50204620  0.16769008  0.16853074  1
  Fe  Fe11  1  0.33360205  1.00096185  0.33339244  1
  Fe  Fe12  1  0.33518770  0.33334608  0.00275204  1
  Ni  Ni13  1  0.50300654  0.50180950  0.16946112  1
  Ni  Ni14  1  0.33422192  0.33681792  0.33344642  1
  Cr  Cr15  1  0.33658346  0.66803226  0.00268938  1
  Ni  Ni16  1  0.50161982  0.83663058  0.16986881  1
  Ni  Ni17  1  0.33573672  0.66753402  0.33593423  1
  Ni  Ni18  1  0.66849988  0.00325559  0.00214462  1
  Ni  Ni19  1  0.83541241  0.16937386  0.16913556  1
  Ni  Ni20  1  0.66916371  1.00052266  0.33352979  1
  Ni  Ni21  1  0.66792986  0.33331990  0.00298363  1
  Ni  Ni22  1  0.83619074  0.50221491  0.16852406  1
  Fe  Fe23  1  0.66889971  0.33642213  0.33238951  1
  Fe  Fe24  1  0.66932553  0.67033399  0.00287151  1
  Fe  Fe25  1  0.83596014  0.83578543  0.16872350  1
  Ni  Ni26  1  0.66702362  0.67109095  0.33409993  1
  Ni  Ni27  1  0.17095605  0.16731476  0.50168828  1
  Ni  Ni28  1  1.00159984  1.00141445  0.66963618  1
  Fe  Fe29  1  0.16962761  0.16761198  0.83685904  1
  Ni  Ni30  1  0.17133069  0.50259673  0.50031602  1
  Cr  Cr31  1  0.00458583  0.33223485  0.66882880  1
  Ni  Ni32  1  0.17081643  0.50194170  0.83644067  1
  Ni  Ni33  1  0.16973545  0.83606241  0.50182220  1
  Cr  Cr34  1  0.00429482  0.67183046  0.66867643  1
  Fe  Fe35  1  0.16935924  0.83679715  0.83635403  1
  Cr  Cr36  1  0.50067076  0.16811621  0.50102809  1
  Fe  Fe37  1  0.33486325  1.00166965  0.67005867  1
  Ni  Ni38  1  0.50217603  0.16797677  0.83597631  1
  Fe  Fe39  1  0.50004073  0.50344461  0.50204204  1
  Ni  Ni40  1  0.33625247  0.33702616  0.67044123  1
  Ni  Ni41  1  0.50086036  0.50118819  0.83408921  1
  Fe  Fe42  1  0.50209389  0.83443188  0.50164078  1
  Ni  Ni43  1  0.33719049  0.66784183  0.66798293  1
  Ni  Ni44  1  0.50251746  0.83688377  0.83399106  1
  Cr  Cr45  1  0.83499917  0.16705156  0.50160915  1
  Ni  Ni46  1  0.66932643  1.00073187  0.67018645  1
  Ni  Ni47  1  0.83366458  0.16644548  0.83510842  1
  Cr  Cr48  1  0.83385676  0.50380642  0.50099890  1
  Ni  Ni49  1  0.66457683  0.33431731  0.66946579  1
  Cr  Cr50  1  0.83455392  0.50230623  0.83650024  1
  Ni  Ni51  1  0.83497538  0.83566148  0.50131572  1
  Ni  Ni52  1  0.66457763  0.67137710  0.66924456  1
  Ni  Ni53  1  0.83457110  0.83776701  0.83659356  1
" 