2503,Ni69Fe19Cr10_8,-236.753436609041, 194.208559522658,Ni69Fe19Cr10,"# generated using pymatgen
 data_Cr7Fe10Ni37
_symmetry_space_group_name_H-M   'P 1'
_cell_length_a   7.43513226
_cell_length_b   7.43513226
_cell_length_c   10.51486488
_cell_angle_alpha   90.00000000
_cell_angle_beta   90.00000000
_cell_angle_gamma   90.00000000
_symmetry_Int_Tables_number   1
_chemical_formula_structural   Cr7Fe10Ni37
_chemical_formula_sum   'Cr7 Fe10 Ni37'
_cell_volume   581.27426092
_cell_formula_units_Z   1
loop_
 _symmetry_equiv_pos_site_id
 _symmetry_equiv_pos_as_xyz
  1  'x, y, z'
loop_
 _atom_site_type_symbol
 _atom_site_label
 _atom_site_symmetry_multiplicity
 _atom_site_fract_x
 _atom_site_fract_y
 _atom_site_fract_z
 _atom_site_occupancy
  Ni  Ni0  1  1.00001857  1.00101845  1.00107331  1
  Cr  Cr1  1  0.16693868  0.16993198  0.16814757  1
  Ni  Ni2  1  1.00123628  1.00124935  0.33649382  1
  Ni  Ni3  1  0.00220094  0.33654846  1.00094681  1
  Ni  Ni4  1  0.16953197  0.50297645  0.16868863  1
  Ni  Ni5  1  1.00165262  0.33554735  0.33542590  1
  Fe  Fe6  1  0.00246446  0.66867112  0.00284757  1
  Ni  Ni7  1  0.16898708  0.83380962  0.16987092  1
  Ni  Ni8  1  0.00388510  0.66966788  0.33489689  1
  Cr  Cr9  1  0.33579879  1.00049992  1.00144448  1
  Fe  Fe10  1  0.50364401  0.16852541  0.16890806  1
  Fe  Fe11  1  0.33522126  1.00110681  0.33539054  1
  Ni  Ni12  1  0.33494542  0.33928065  1.00143952  1
  Ni  Ni13  1  0.50110877  0.50401160  0.16929208  1
  Fe  Fe14  1  0.33599225  0.33754680  0.33617170  1
  Ni  Ni15  1  0.33525735  0.66734410  1.00152065  1
  Ni  Ni16  1  0.50310392  0.83411315  0.16855556  1
  Ni  Ni17  1  0.33474988  0.66793316  0.33540171  1
  Ni  Ni18  1  0.67098317  1.00067955  1.00141568  1
  Ni  Ni19  1  0.83546328  0.16789005  0.16906025  1
  Ni  Ni20  1  0.67023140  0.00326117  0.33492829  1
  Cr  Cr21  1  0.66981483  0.33597368  0.00250239  1
  Ni  Ni22  1  0.83591547  0.50242511  0.16986117  1
  Ni  Ni23  1  0.66807212  0.33498673  0.33514053  1
  Fe  Fe24  1  0.66920696  0.66945636  0.00268027  1
  Ni  Ni25  1  0.83450769  0.83614386  0.16923543  1
  Ni  Ni26  1  0.66785898  0.66840734  0.33312440  1
  Ni  Ni27  1  0.16844403  0.17076006  0.50115268  1
  Cr  Cr28  1  1.00135146  0.00237346  0.66864934  1
  Ni  Ni29  1  0.16893595  0.17132453  0.83670238  1
  Ni  Ni30  1  0.17065308  0.50122390  0.50220477  1
  Ni  Ni31  1  0.00298562  0.33607366  0.66997098  1
  Ni  Ni32  1  0.16901956  0.50168851  0.83545739  1
  Ni  Ni33  1  0.16835226  0.83444169  0.50022499  1
  Fe  Fe34  1  0.00215810  0.66812016  0.66888899  1
  Ni  Ni35  1  0.16800205  0.83287871  0.83626919  1
  Fe  Fe36  1  0.50333889  0.17077364  0.50282493  1
  Cr  Cr37  1  0.33430936  0.00239447  0.66963342  1
  Ni  Ni38  1  0.50281895  0.16946305  0.83457593  1
  Ni  Ni39  1  0.50097420  0.50139799  0.50282713  1
  Ni  Ni40  1  0.33514684  0.33739785  0.66900199  1
  Fe  Fe41  1  0.50150836  0.50205896  0.83461690  1
  Cr  Cr42  1  0.50453177  0.83343560  0.50213253  1
  Fe  Fe43  1  0.33448611  0.66656028  0.66907280  1
  Fe  Fe44  1  0.50390434  0.83439548  0.83594953  1
  Ni  Ni45  1  0.83511431  0.16842454  0.50226287  1
  Ni  Ni46  1  0.66980621  0.00224119  0.66999960  1
  Ni  Ni47  1  0.83483314  0.16895801  0.83525029  1
  Cr  Cr48  1  0.83443273  0.50246231  0.50174245  1
  Ni  Ni49  1  0.66835223  0.33584821  0.66932100  1
  Ni  Ni50  1  0.83627777  0.50278409  0.83469088  1
  Ni  Ni51  1  0.83489621  0.83642232  0.50121570  1
  Ni  Ni52  1  0.66843598  0.66832144  0.67076885  1
  Ni  Ni53  1  0.83403690  0.83466746  0.83602604  1
" 