7331,Ni69Fe24Cr5_19,-239.103992850902, 206.531236107212,Ni69Fe24Cr5,"# generated using pymatgen
 data_Cr4Fe13Ni37
_symmetry_space_group_name_H-M   'P 1'
_cell_length_a   7.41913410
_cell_length_b   7.41913410
_cell_length_c   10.49224006
_cell_angle_alpha   90.00000000
_cell_angle_beta   90.00000000
_cell_angle_gamma   90.00000000
_symmetry_Int_Tables_number   1
_chemical_formula_structural   Cr4Fe13Ni37
_chemical_formula_sum   'Cr4 Fe13 Ni37'
_cell_volume   577.53014818
_cell_formula_units_Z   1
loop_
 _symmetry_equiv_pos_site_id
 _symmetry_equiv_pos_as_xyz
  1  'x, y, z'
loop_
 _atom_site_type_symbol
 _atom_site_label
 _atom_site_symmetry_multiplicity
 _atom_site_fract_x
 _atom_site_fract_y
 _atom_site_fract_z
 _atom_site_occupancy
  Ni  Ni0  1  1.00289505  0.00346335  1.00253490  1
  Cr  Cr1  1  0.17118189  0.17106432  0.16939420  1
  Cr  Cr2  1  1.00262838  1.00251821  0.33816674  1
  Fe  Fe3  1  1.00190290  0.33695415  1.00227610  1
  Fe  Fe4  1  0.16978844  0.50504414  0.17052698  1
  Ni  Ni5  1  1.00216575  0.33813997  0.33659540  1
  Fe  Fe6  1  0.00368471  0.66955580  0.00427687  1
  Ni  Ni7  1  0.17039565  0.83352357  0.16966407  1
  Ni  Ni8  1  0.00502195  0.66877508  0.33583169  1
  Fe  Fe9  1  0.33802018  1.00254712  1.00259731  1
  Ni  Ni10  1  0.50503867  0.16981409  0.17062638  1
  Ni  Ni11  1  0.33809524  1.00248387  0.33635657  1
  Ni  Ni12  1  0.33749027  0.33770243  1.00205647  1
  Fe  Fe13  1  0.50313021  0.50264732  0.16885009  1
  Ni  Ni14  1  0.33751936  0.33687539  0.33783498  1
  Ni  Ni15  1  0.33662386  0.66981210  0.00354918  1
  Ni  Ni16  1  0.50267569  0.83735485  0.16890815  1
  Ni  Ni17  1  0.33495151  0.67032964  0.33633353  1
  Ni  Ni18  1  0.67057157  0.00431648  0.00510418  1
  Ni  Ni19  1  0.83377061  0.17074959  0.16916387  1
  Fe  Fe20  1  0.66813011  0.00504153  0.33659484  1
  Ni  Ni21  1  0.66990969  0.33615396  0.00329956  1
  Ni  Ni22  1  0.83760030  0.50302081  0.16941417  1
  Ni  Ni23  1  0.67000005  0.33499583  0.33609595  1
  Ni  Ni24  1  0.66862067  0.66921172  0.00347057  1
  Ni  Ni25  1  0.83661434  0.83591639  0.16875972  1
  Cr  Cr26  1  0.66970903  0.66960673  0.33680549  1
  Fe  Fe27  1  0.17122124  0.17078756  0.50384871  1
  Fe  Fe28  1  1.00314741  0.00363333  0.66986511  1
  Ni  Ni29  1  0.17006323  0.17044698  0.83598555  1
  Ni  Ni30  1  0.17037013  0.50356636  0.50218153  1
  Ni  Ni31  1  1.00238611  0.33637435  0.67034743  1
  Ni  Ni32  1  0.17108900  0.50335937  0.83725227  1
  Fe  Fe33  1  0.17147205  0.83547064  0.50383253  1
  Ni  Ni34  1  0.00420836  0.66884877  0.66903223  1
  Ni  Ni35  1  0.17061898  0.83588349  0.83633294  1
  Ni  Ni36  1  0.50386102  0.17009052  0.50246439  1
  Ni  Ni37  1  0.33653220  1.00244297  0.67083845  1
  Ni  Ni38  1  0.50328780  0.17116897  0.83660547  1
  Ni  Ni39  1  0.50105274  0.50246592  0.50353921  1
  Fe  Fe40  1  0.33714725  0.33726928  0.67022153  1
  Ni  Ni41  1  0.50218727  0.50257502  0.83647723  1
  Ni  Ni42  1  0.50321700  0.83713366  0.50441333  1
  Ni  Ni43  1  0.33647451  0.67106651  0.66980463  1
  Fe  Fe44  1  0.50115393  0.83673335  0.83629909  1
  Ni  Ni45  1  0.83536520  0.16971675  0.50344597  1
  Ni  Ni46  1  0.66880769  0.00426426  0.66860974  1
  Ni  Ni47  1  0.83633915  0.17069517  0.83708947  1
  Fe  Fe48  1  0.83665254  0.50236070  0.50363032  1
  Ni  Ni49  1  0.67102064  0.33631846  0.67028424  1
  Fe  Fe50  1  0.83662134  0.50099459  0.83656635  1
  Ni  Ni51  1  0.83647462  0.83704340  0.50412825  1
  Ni  Ni52  1  0.66900209  0.66909846  0.66959123  1
  Cr  Cr53  1  0.83645909  0.83694145  0.83659356  1
" 