4587,Ni69Fe20Cr9_19,-236.830249608706, 195.899788890545,Ni69Fe20Cr9,"# generated using pymatgen
 data_Cr7Fe10Ni37
_symmetry_space_group_name_H-M   'P 1'
_cell_length_a   7.43759444
_cell_length_b   7.43759444
_cell_length_c   10.51834693
_cell_angle_alpha   90.00000000
_cell_angle_beta   90.00000000
_cell_angle_gamma   90.00000000
_symmetry_Int_Tables_number   1
_chemical_formula_structural   Cr7Fe10Ni37
_chemical_formula_sum   'Cr7 Fe10 Ni37'
_cell_volume   581.85192877
_cell_formula_units_Z   1
loop_
 _symmetry_equiv_pos_site_id
 _symmetry_equiv_pos_as_xyz
  1  'x, y, z'
loop_
 _atom_site_type_symbol
 _atom_site_label
 _atom_site_symmetry_multiplicity
 _atom_site_fract_x
 _atom_site_fract_y
 _atom_site_fract_z
 _atom_site_occupancy
  Ni  Ni0  1  1.00070680  0.00305992  0.00239856  1
  Ni  Ni1  1  0.16768917  0.16732158  0.17044159  1
  Ni  Ni2  1  0.00273502  0.00238854  0.33618898  1
  Fe  Fe3  1  1.00015454  0.33587437  0.00216497  1
  Ni  Ni4  1  0.16782165  0.50357891  0.16862384  1
  Fe  Fe5  1  1.00186484  0.33552929  0.33385313  1
  Fe  Fe6  1  1.00060285  0.66796731  1.00171968  1
  Ni  Ni7  1  0.17028502  0.83526642  0.16866407  1
  Fe  Fe8  1  0.00263565  0.67021107  0.33562343  1
  Ni  Ni9  1  0.33588129  1.00131185  0.00395854  1
  Ni  Ni10  1  0.50317145  0.16738145  0.16961946  1
  Ni  Ni11  1  0.33477110  0.00213480  0.33521121  1
  Cr  Cr12  1  0.33609180  0.33659584  0.00267810  1
  Ni  Ni13  1  0.50297487  0.50299345  0.17026605  1
  Ni  Ni14  1  0.33510273  0.33518793  0.33458451  1
  Ni  Ni15  1  0.33644819  0.66807441  0.00300948  1
  Ni  Ni16  1  0.50013357  0.83543363  0.16779605  1
  Ni  Ni17  1  0.33685795  0.66863086  0.33401449  1
  Ni  Ni18  1  0.66956205  0.00234151  1.00148005  1
  Ni  Ni19  1  0.83482395  0.16988063  0.16770872  1
  Ni  Ni20  1  0.66831489  1.00062663  0.33429403  1
  Ni  Ni21  1  0.66981853  0.33580765  0.00214673  1
  Ni  Ni22  1  0.83473220  0.50048290  0.16911345  1
  Fe  Fe23  1  0.66642025  0.33518412  0.33443250  1
  Ni  Ni24  1  0.66818427  0.66765699  1.00073590  1
  Cr  Cr25  1  0.83447603  0.83552699  0.16931540  1
  Ni  Ni26  1  0.66795892  0.66822038  0.33689990  1
  Fe  Fe27  1  0.17018234  0.16806926  0.50089480  1
  Fe  Fe28  1  0.99979748  1.00022374  0.66798445  1
  Cr  Cr29  1  0.16764155  0.16764003  0.83379167  1
  Cr  Cr30  1  0.16814240  0.50423827  0.50196541  1
  Ni  Ni31  1  1.00010076  0.33619909  0.67014428  1
  Ni  Ni32  1  0.16724127  0.50439462  0.83529255  1
  Ni  Ni33  1  0.16948232  0.83626768  0.50199774  1
  Ni  Ni34  1  1.00020306  0.66843405  0.66825006  1
  Cr  Cr35  1  0.16976210  0.83354916  0.83616950  1
  Ni  Ni36  1  0.50280126  0.16721309  0.50114726  1
  Fe  Fe37  1  0.33816112  1.00030735  0.66711130  1
  Ni  Ni38  1  0.50574674  0.16723452  0.83513981  1
  Ni  Ni39  1  0.50424908  0.50258474  0.50132947  1
  Cr  Cr40  1  0.33712980  0.33612359  0.66852243  1
  Ni  Ni41  1  0.50395177  0.50303660  0.83427107  1
  Ni  Ni42  1  0.50048223  0.83549335  0.50241043  1
  Ni  Ni43  1  0.33660827  0.66912192  0.66904475  1
  Fe  Fe44  1  0.50422249  0.83452783  0.83609398  1
  Cr  Cr45  1  0.83361061  0.16999964  0.50223438  1
  Ni  Ni46  1  0.66914462  1.00081395  0.66998897  1
  Ni  Ni47  1  0.83279206  0.16866851  0.83585294  1
  Ni  Ni48  1  0.83371103  0.50226360  0.50238814  1
  Ni  Ni49  1  0.66974692  0.33569602  0.66901922  1
  Ni  Ni50  1  0.83446135  0.50179069  0.83451565  1
  Fe  Fe51  1  0.83337700  0.83374921  0.50207180  1
  Ni  Ni52  1  0.66921953  0.66916836  0.66829046  1
  Ni  Ni53  1  0.83473233  0.83544274  0.83405570  1
" 