5834,Ni69Fe15Cr15_19,-234.795109228278, 182.702385157592,Ni69Fe15Cr15,"# generated using pymatgen
 data_Cr9Fe8Ni37
_symmetry_space_group_name_H-M   'P 1'
_cell_length_a   7.45003659
_cell_length_b   7.45003659
_cell_length_c   10.53594279
_cell_angle_alpha   90.00000000
_cell_angle_beta   90.00000000
_cell_angle_gamma   90.00000000
_symmetry_Int_Tables_number   1
_chemical_formula_structural   Cr9Fe8Ni37
_chemical_formula_sum   'Cr9 Fe8 Ni37'
_cell_volume   584.77690919
_cell_formula_units_Z   1
loop_
 _symmetry_equiv_pos_site_id
 _symmetry_equiv_pos_as_xyz
  1  'x, y, z'
loop_
 _atom_site_type_symbol
 _atom_site_label
 _atom_site_symmetry_multiplicity
 _atom_site_fract_x
 _atom_site_fract_y
 _atom_site_fract_z
 _atom_site_occupancy
  Ni  Ni0  1  0.00401126  0.99946848  1.00079079  1
  Ni  Ni1  1  0.16848189  0.16700539  0.16729905  1
  Ni  Ni2  1  0.00313878  0.00222717  0.33426478  1
  Ni  Ni3  1  0.00523163  0.33628185  1.00045901  1
  Ni  Ni4  1  0.16707520  0.50163900  0.16750127  1
  Ni  Ni5  1  0.00181617  0.33547692  0.33621478  1
  Fe  Fe6  1  0.00141754  0.66752619  1.00091920  1
  Ni  Ni7  1  0.16827321  0.83478033  0.16787699  1
  Fe  Fe8  1  1.00045462  0.66617355  0.33311494  1
  Ni  Ni9  1  0.33366235  0.00146292  1.00066602  1
  Ni  Ni10  1  0.49965184  0.16613293  0.16816342  1
  Ni  Ni11  1  0.33466105  0.00133713  0.33408298  1
  Ni  Ni12  1  0.33211867  0.33397221  0.00120434  1
  Ni  Ni13  1  0.50119492  0.50264122  0.16835841  1
  Fe  Fe14  1  0.33489632  0.33345797  0.33452314  1
  Fe  Fe15  1  0.33459822  0.66821873  1.00095715  1
  Ni  Ni16  1  0.50086531  0.83464877  0.16800347  1
  Fe  Fe17  1  0.33578035  0.66761646  0.33383372  1
  Ni  Ni18  1  0.66574961  0.99698524  0.00136052  1
  Cr  Cr19  1  0.83472712  0.16761814  0.16864434  1
  Ni  Ni20  1  0.66562447  1.00048182  0.33456804  1
  Cr  Cr21  1  0.66587560  0.33663403  0.00175140  1
  Ni  Ni22  1  0.83515619  0.50285491  0.16867714  1
  Ni  Ni23  1  0.66776526  0.33640395  0.33562574  1
  Ni  Ni24  1  0.66806750  0.66921065  1.00028601  1
  Fe  Fe25  1  0.83394638  0.83319716  0.16791805  1
  Ni  Ni26  1  0.66687645  0.66653647  0.33458232  1
  Ni  Ni27  1  0.16619011  0.16961849  0.50113105  1
  Ni  Ni28  1  0.00252313  0.00319322  0.66836782  1
  Ni  Ni29  1  0.16786899  0.16758322  0.83499466  1
  Ni  Ni30  1  0.16763984  0.49797591  0.49994581  1
  Fe  Fe31  1  0.00167217  0.33398850  0.66685441  1
  Ni  Ni32  1  0.16752275  0.50019280  0.83597654  1
  Cr  Cr33  1  0.16907736  0.83553149  0.49917949  1
  Cr  Cr34  1  0.99965181  0.66671691  0.66918590  1
  Ni  Ni35  1  0.16751214  0.83564944  0.83642265  1
  Ni  Ni36  1  0.50195305  0.16913747  0.49984594  1
  Cr  Cr37  1  0.33316925  0.00349919  0.66848294  1
  Ni  Ni38  1  0.49927519  0.16784460  0.83541496  1
  Ni  Ni39  1  0.50268921  0.50065067  0.50125386  1
  Ni  Ni40  1  0.33466062  0.33460393  0.66762018  1
  Ni  Ni41  1  0.50181349  0.50212024  0.83381222  1
  Ni  Ni42  1  0.50212465  0.83363407  0.49909979  1
  Cr  Cr43  1  0.33670913  0.66576444  0.66827340  1
  Ni  Ni44  1  0.50156265  0.83345793  0.83632060  1
  Ni  Ni45  1  0.83528249  0.17018636  0.50078408  1
  Cr  Cr46  1  0.66741289  1.00100197  0.66747744  1
  Cr  Cr47  1  0.83579570  0.16828397  0.83382238  1
  Ni  Ni48  1  0.83309830  0.49815198  0.50088428  1
  Ni  Ni49  1  0.66674001  0.33777337  0.66661655  1
  Ni  Ni50  1  0.83408910  0.50248251  0.83386731  1
  Cr  Cr51  1  0.83274336  0.83525946  0.50004362  1
  Ni  Ni52  1  0.66749520  0.66437555  0.66855608  1
  Fe  Fe53  1  0.83425987  0.83298308  0.83576937  1
" 