3074,Ni69Fe15Cr15_10,-234.731157317673, 184.871172471622,Ni69Fe15Cr15,"# generated using pymatgen
 data_Cr9Fe8Ni37
_symmetry_space_group_name_H-M   'P 1'
_cell_length_a   7.44764427
_cell_length_b   7.44764427
_cell_length_c   10.53255953
_cell_angle_alpha   90.00000000
_cell_angle_beta   90.00000000
_cell_angle_gamma   90.00000000
_symmetry_Int_Tables_number   1
_chemical_formula_structural   Cr9Fe8Ni37
_chemical_formula_sum   'Cr9 Fe8 Ni37'
_cell_volume   584.21374693
_cell_formula_units_Z   1
loop_
 _symmetry_equiv_pos_site_id
 _symmetry_equiv_pos_as_xyz
  1  'x, y, z'
loop_
 _atom_site_type_symbol
 _atom_site_label
 _atom_site_symmetry_multiplicity
 _atom_site_fract_x
 _atom_site_fract_y
 _atom_site_fract_z
 _atom_site_occupancy
  Ni  Ni0  1  0.00132750  0.00232411  0.00159796  1
  Fe  Fe1  1  0.16562596  0.16797122  0.16717594  1
  Ni  Ni2  1  1.00031457  0.00191833  0.33366072  1
  Ni  Ni3  1  1.00107191  0.33379031  0.00130617  1
  Ni  Ni4  1  0.16677008  0.50171482  0.16859318  1
  Ni  Ni5  1  1.00012190  0.33407103  0.33385659  1
  Ni  Ni6  1  1.00126320  0.66779520  1.00128738  1
  Ni  Ni7  1  0.16677110  0.83466710  0.16909999  1
  Fe  Fe8  1  0.00214461  0.66797400  0.33429317  1
  Ni  Ni9  1  0.33310713  0.00190604  1.00057260  1
  Cr  Cr10  1  0.50227614  0.16802033  0.16745773  1
  Fe  Fe11  1  0.33500576  0.99947020  0.33494046  1
  Ni  Ni12  1  0.33336194  0.33420919  1.00027983  1
  Ni  Ni13  1  0.50056118  0.50011961  0.16871565  1
  Fe  Fe14  1  0.33507163  0.33646467  0.33500834  1
  Cr  Cr15  1  0.33452621  0.66774292  0.00172387  1
  Ni  Ni16  1  0.50030730  0.83600704  0.16849641  1
  Ni  Ni17  1  0.33403711  0.66791949  0.33493105  1
  Ni  Ni18  1  0.66947050  0.00209666  1.00027581  1
  Ni  Ni19  1  0.83523638  0.16778350  0.16836796  1
  Ni  Ni20  1  0.66979299  0.00187468  0.33636176  1
  Ni  Ni21  1  0.66947093  0.33427434  1.00053732  1
  Ni  Ni22  1  0.83657501  0.49970814  0.16742856  1
  Ni  Ni23  1  0.66979290  0.33430584  0.33598423  1
  Cr  Cr24  1  0.66803132  0.66742379  0.00229876  1
  Ni  Ni25  1  0.83682849  0.83641644  0.16720854  1
  Cr  Cr26  1  0.66558979  0.66777038  0.33366914  1
  Cr  Cr27  1  0.17061311  0.16784078  0.50003117  1
  Cr  Cr28  1  1.00082827  1.00085855  0.66869664  1
  Ni  Ni29  1  0.17017651  0.16733902  0.83715887  1
  Ni  Ni30  1  0.16821841  0.50400691  0.50152672  1
  Cr  Cr31  1  0.00227472  0.33550906  0.66887079  1
  Ni  Ni32  1  0.16765120  0.50185384  0.83378807  1
  Ni  Ni33  1  0.16821672  0.83212813  0.50077537  1
  Fe  Fe34  1  0.00359712  0.66806578  0.66817684  1
  Ni  Ni35  1  0.16764738  0.83471645  0.83403240  1
  Ni  Ni36  1  0.50254306  0.16696210  0.50151796  1
  Ni  Ni37  1  0.33641975  0.99940331  0.66831450  1
  Ni  Ni38  1  0.50091845  0.16733498  0.83482237  1
  Ni  Ni39  1  0.49954143  0.49968324  0.50057600  1
  Ni  Ni40  1  0.33487281  0.33652775  0.66841047  1
  Ni  Ni41  1  0.50004826  0.49845138  0.83461600  1
  Ni  Ni42  1  0.50035509  0.83726132  0.50186299  1
  Ni  Ni43  1  0.33384226  0.66797615  0.66755765  1
  Fe  Fe44  1  0.49994454  0.83739786  0.83363350  1
  Fe  Fe45  1  0.83191442  0.16702067  0.49844523  1
  Ni  Ni46  1  0.66642152  1.00052487  0.66727042  1
  Ni  Ni47  1  0.83281140  0.16733516  0.83665958  1
  Ni  Ni48  1  0.83614910  0.50182895  0.49985382  1
  Cr  Cr49  1  0.66713026  0.33371879  0.66722512  1
  Ni  Ni50  1  0.83621103  0.50098500  0.83662406  1
  Ni  Ni51  1  0.83533581  0.83512139  0.50114440  1
  Cr  Cr52  1  0.66641389  0.66898137  0.66793969  1
  Fe  Fe53  1  0.83579299  0.83577088  0.83568331  1
" 