7348,Ni69Fe20Cr9_12,-236.829665912445, 193.540589811728,Ni69Fe20Cr9,"# generated using pymatgen
 data_Cr7Fe10Ni37
_symmetry_space_group_name_H-M   'P 1'
_cell_length_a   7.44042757
_cell_length_b   7.44042757
_cell_length_c   10.52235358
_cell_angle_alpha   90.00000000
_cell_angle_beta   90.00000000
_cell_angle_gamma   90.00000000
_symmetry_Int_Tables_number   1
_chemical_formula_structural   Cr7Fe10Ni37
_chemical_formula_sum   'Cr7 Fe10 Ni37'
_cell_volume   582.51709816
_cell_formula_units_Z   1
loop_
 _symmetry_equiv_pos_site_id
 _symmetry_equiv_pos_as_xyz
  1  'x, y, z'
loop_
 _atom_site_type_symbol
 _atom_site_label
 _atom_site_symmetry_multiplicity
 _atom_site_fract_x
 _atom_site_fract_y
 _atom_site_fract_z
 _atom_site_occupancy
  Fe  Fe0  1  0.00494389  0.00271164  1.00165308  1
  Ni  Ni1  1  0.16708285  0.16768799  0.16750074  1
  Ni  Ni2  1  0.00188990  0.00284751  0.33559281  1
  Ni  Ni3  1  0.00183968  0.33512360  0.00273251  1
  Ni  Ni4  1  0.16851952  0.50272622  0.16785376  1
  Ni  Ni5  1  1.00023050  0.33467600  0.33505256  1
  Ni  Ni6  1  1.00145942  0.66703834  1.00135627  1
  Ni  Ni7  1  0.17074819  0.83495244  0.16827954  1
  Ni  Ni8  1  0.00416739  0.66784094  0.33621955  1
  Ni  Ni9  1  0.33458308  0.00198310  1.00102088  1
  Fe  Fe10  1  0.50131822  0.16845831  0.16870794  1
  Ni  Ni11  1  0.33538373  0.99997345  0.33531231  1
  Ni  Ni12  1  0.33356057  0.33333852  0.00282105  1
  Ni  Ni13  1  0.50153738  0.50275903  0.16604403  1
  Cr  Cr14  1  0.33374747  0.33548476  0.33502628  1
  Ni  Ni15  1  0.33516642  0.67004380  0.00403168  1
  Ni  Ni16  1  0.49836785  0.83396854  0.16920913  1
  Ni  Ni17  1  0.33320715  0.67061905  0.33449397  1
  Cr  Cr18  1  0.66707867  1.00165515  1.00126727  1
  Ni  Ni19  1  0.83629227  0.17086774  0.16982779  1
  Ni  Ni20  1  0.66809074  0.00390875  0.33610777  1
  Fe  Fe21  1  0.66918469  0.33676078  0.00244198  1
  Ni  Ni22  1  0.83530942  0.49910133  0.16775024  1
  Ni  Ni23  1  0.67086285  0.33249694  0.33484412  1
  Ni  Ni24  1  0.66874335  0.66806117  1.00090263  1
  Cr  Cr25  1  0.83657539  0.83573675  0.16866639  1
  Cr  Cr26  1  0.66773891  0.66867514  0.33600236  1
  Ni  Ni27  1  0.16743256  0.16765111  0.50307872  1
  Fe  Fe28  1  0.00300530  0.00271920  0.66754723  1
  Ni  Ni29  1  0.16794027  0.16650603  0.83478103  1
  Ni  Ni30  1  0.16898700  0.50317891  0.50221464  1
  Ni  Ni31  1  0.00181557  0.33421521  0.66758072  1
  Cr  Cr32  1  0.16794159  0.50126714  0.83536081  1
  Ni  Ni33  1  0.16780920  0.83453721  0.50149400  1
  Fe  Fe34  1  1.00091324  0.66789029  0.66732653  1
  Fe  Fe35  1  0.16913534  0.83680552  0.83562910  1
  Ni  Ni36  1  0.50255293  0.16944287  0.50167548  1
  Fe  Fe37  1  0.33431901  0.00275277  0.66869426  1
  Ni  Ni38  1  0.50057793  0.16767794  0.83541074  1
  Ni  Ni39  1  0.50126537  0.50165755  0.50412049  1
  Ni  Ni40  1  0.33398749  0.33399786  0.66720331  1
  Cr  Cr41  1  0.50318634  0.50211272  0.83545985  1
  Fe  Fe42  1  0.49980840  0.83532458  0.50163128  1
  Ni  Ni43  1  0.33547974  0.66937991  0.66684140  1
  Ni  Ni44  1  0.50082143  0.83495193  0.83476757  1
  Ni  Ni45  1  0.83538147  0.16825682  0.50039366  1
  Cr  Cr46  1  0.66823784  1.00153260  0.66820510  1
  Ni  Ni47  1  0.83685305  0.16962199  0.83514676  1
  Fe  Fe48  1  0.83620279  0.50024840  0.50260193  1
  Ni  Ni49  1  0.66956763  0.33552257  0.66839694  1
  Ni  Ni50  1  0.83454698  0.50184260  0.83493480  1
  Ni  Ni51  1  0.83690367  0.83582678  0.50196226  1
  Ni  Ni52  1  0.66872768  0.66849926  0.66844979  1
  Fe  Fe53  1  0.83557015  0.83368270  0.83497240  1
" 