2685,Ni69Fe19Cr10_17,-236.802237008626, 197.07351434855,Ni69Fe19Cr10,"# generated using pymatgen
 data_Cr7Fe10Ni37
_symmetry_space_group_name_H-M   'P 1'
_cell_length_a   7.43750829
_cell_length_b   7.43750829
_cell_length_c   10.51822510
_cell_angle_alpha   90.00000000
_cell_angle_beta   90.00000000
_cell_angle_gamma   90.00000000
_symmetry_Int_Tables_number   1
_chemical_formula_structural   Cr7Fe10Ni37
_chemical_formula_sum   'Cr7 Fe10 Ni37'
_cell_volume   581.83170962
_cell_formula_units_Z   1
loop_
 _symmetry_equiv_pos_site_id
 _symmetry_equiv_pos_as_xyz
  1  'x, y, z'
loop_
 _atom_site_type_symbol
 _atom_site_label
 _atom_site_symmetry_multiplicity
 _atom_site_fract_x
 _atom_site_fract_y
 _atom_site_fract_z
 _atom_site_occupancy
  Ni  Ni0  1  1.00126268  1.00133305  1.00194656  1
  Cr  Cr1  1  0.16844356  0.16768308  0.16936906  1
  Ni  Ni2  1  1.00124995  1.00108709  0.33608913  1
  Fe  Fe3  1  0.99974304  0.33584712  0.00230869  1
  Ni  Ni4  1  0.16761482  0.50348638  0.16952762  1
  Ni  Ni5  1  1.00051902  0.33651692  0.33532365  1
  Cr  Cr6  1  0.00290418  0.66971392  0.00247614  1
  Ni  Ni7  1  0.16782719  0.83437651  0.16971914  1
  Ni  Ni8  1  0.00283507  0.66834998  0.33492896  1
  Fe  Fe9  1  0.33581593  1.00043725  1.00048708  1
  Ni  Ni10  1  0.50391555  0.16894495  0.16925000  1
  Ni  Ni11  1  0.33541843  1.00161092  0.33621585  1
  Cr  Cr12  1  0.33691201  0.33674513  1.00086317  1
  Fe  Fe13  1  0.50284315  0.50216195  0.16903136  1
  Fe  Fe14  1  0.33617572  0.33610097  0.33646263  1
  Ni  Ni15  1  0.33540308  0.66856072  1.00142077  1
  Cr  Cr16  1  0.50215224  0.83580952  0.16787773  1
  Ni  Ni17  1  0.33379417  0.66785869  0.33519350  1
  Ni  Ni18  1  0.66955986  0.00321191  0.00215620  1
  Fe  Fe19  1  0.83416192  0.16830303  0.16909284  1
  Ni  Ni20  1  0.66929014  0.00392653  0.33590290  1
  Ni  Ni21  1  0.66847180  0.33524886  0.00308679  1
  Ni  Ni22  1  0.83520889  0.50164643  0.16925485  1
  Ni  Ni23  1  0.66879846  0.33489527  0.33456283  1
  Ni  Ni24  1  0.66809624  0.66749794  1.00042650  1
  Ni  Ni25  1  0.83605861  0.83515801  0.16930020  1
  Ni  Ni26  1  0.66932787  0.66713600  0.33620478  1
  Fe  Fe27  1  0.16917746  0.16812356  0.50176008  1
  Ni  Ni28  1  0.00249712  0.99893671  0.66792633  1
  Ni  Ni29  1  0.17085362  0.16646035  0.83486579  1
  Ni  Ni30  1  0.16932606  0.50233670  0.50169086  1
  Cr  Cr31  1  0.00348406  0.33644077  0.66908777  1
  Fe  Fe32  1  0.16971746  0.50287339  0.83413339  1
  Fe  Fe33  1  0.16877383  0.83479063  0.50201822  1
  Ni  Ni34  1  0.00275020  0.67044622  0.66878912  1
  Ni  Ni35  1  0.16917092  0.83677568  0.83498570  1
  Ni  Ni36  1  0.50113749  0.16754553  0.50147983  1
  Ni  Ni37  1  0.33560949  0.00203075  0.66993613  1
  Ni  Ni38  1  0.49942303  0.16786507  0.83522834  1
  Ni  Ni39  1  0.50058477  0.50244390  0.50043917  1
  Ni  Ni40  1  0.33592051  0.33558945  0.66831364  1
  Ni  Ni41  1  0.50215838  0.50304468  0.83582124  1
  Ni  Ni42  1  0.50237460  0.83596856  0.50278683  1
  Ni  Ni43  1  0.33436863  0.66833659  0.66933899  1
  Fe  Fe44  1  0.50211178  0.83536715  0.83510630  1
  Ni  Ni45  1  0.83515508  0.16674775  0.49973356  1
  Ni  Ni46  1  0.66785646  1.00049344  0.66789992  1
  Cr  Cr47  1  0.83566958  0.16736897  0.83773326  1
  Ni  Ni48  1  0.83604624  0.50357497  0.50073794  1
  Cr  Cr49  1  0.66615201  0.33514421  0.66779225  1
  Ni  Ni50  1  0.83395336  0.50473592  0.83596245  1
  Ni  Ni51  1  0.83505424  0.83563758  0.50233936  1
  Fe  Fe52  1  0.66874456  0.67047048  0.66853613  1
  Ni  Ni53  1  0.83536053  0.83403796  0.83431352  1
" 