568,Ni69Fe15Cr15_11,-235.034780707602, 185.705352632367,Ni69Fe15Cr15,"# generated using pymatgen
 data_Cr9Fe8Ni37
_symmetry_space_group_name_H-M   'P 1'
_cell_length_a   7.44757946
_cell_length_b   7.44757946
_cell_length_c   10.53246787
_cell_angle_alpha   90.00000000
_cell_angle_beta   90.00000000
_cell_angle_gamma   90.00000000
_symmetry_Int_Tables_number   1
_chemical_formula_structural   Cr9Fe8Ni37
_chemical_formula_sum   'Cr9 Fe8 Ni37'
_cell_volume   584.19849497
_cell_formula_units_Z   1
loop_
 _symmetry_equiv_pos_site_id
 _symmetry_equiv_pos_as_xyz
  1  'x, y, z'
loop_
 _atom_site_type_symbol
 _atom_site_label
 _atom_site_symmetry_multiplicity
 _atom_site_fract_x
 _atom_site_fract_y
 _atom_site_fract_z
 _atom_site_occupancy
  Fe  Fe0  1  0.99912341  0.00280500  1.00088696  1
  Fe  Fe1  1  0.16760123  0.17100603  0.16797785  1
  Ni  Ni2  1  0.99977217  0.00254656  0.33601555  1
  Ni  Ni3  1  1.00099750  0.33427102  0.00224151  1
  Ni  Ni4  1  0.16780506  0.50001311  0.16700907  1
  Ni  Ni5  1  0.00166141  0.33381316  0.33492931  1
  Ni  Ni6  1  0.99965477  0.66667317  0.00142279  1
  Cr  Cr7  1  0.16622762  0.83369027  0.16662753  1
  Ni  Ni8  1  0.99951962  0.66756344  0.33685781  1
  Ni  Ni9  1  0.33576926  0.00322557  0.00194076  1
  Ni  Ni10  1  0.50232616  0.16887636  0.16792742  1
  Fe  Fe11  1  0.33359818  0.00421424  0.33429466  1
  Ni  Ni12  1  0.33488671  0.33415589  1.00079903  1
  Ni  Ni13  1  0.50149374  0.49943681  0.16698226  1
  Ni  Ni14  1  0.33360441  0.33465511  0.33487205  1
  Ni  Ni15  1  0.33598172  0.66654207  0.00297212  1
  Fe  Fe16  1  0.50495889  0.83495624  0.16666173  1
  Cr  Cr17  1  0.33479248  0.66605209  0.33426129  1
  Ni  Ni18  1  0.66816670  0.00188219  1.00130613  1
  Ni  Ni19  1  0.83296007  0.16758906  0.16819680  1
  Ni  Ni20  1  0.67055359  0.00145703  0.33352932  1
  Ni  Ni21  1  0.66803578  0.33448139  1.00096833  1
  Ni  Ni22  1  0.83462326  0.50155291  0.16801556  1
  Ni  Ni23  1  0.66865452  0.33490726  0.33386992  1
  Ni  Ni24  1  0.66828500  0.66755607  0.00169650  1
  Ni  Ni25  1  0.83353502  0.83478058  0.16803907  1
  Ni  Ni26  1  0.66971057  0.66755597  0.33424608  1
  Ni  Ni27  1  0.16589179  0.16853144  0.50139112  1
  Ni  Ni28  1  1.00125091  0.00303483  0.66753746  1
  Ni  Ni29  1  0.16799429  0.16853817  0.83455292  1
  Ni  Ni30  1  0.16689066  0.50012441  0.50109228  1
  Ni  Ni31  1  0.00226813  0.33230399  0.66674884  1
  Cr  Cr32  1  0.16814198  0.49936245  0.83621644  1
  Ni  Ni33  1  0.16362302  0.83526805  0.50212097  1
  Fe  Fe34  1  0.99784637  0.66956645  0.66600335  1
  Cr  Cr35  1  0.16504879  0.83616271  0.83514419  1
  Cr  Cr36  1  0.50155857  0.16920770  0.50109449  1
  Ni  Ni37  1  0.33200077  0.00343521  0.66745983  1
  Ni  Ni38  1  0.50121887  0.16933915  0.83493139  1
  Ni  Ni39  1  0.50098871  0.50058023  0.50061323  1
  Fe  Fe40  1  0.33327081  0.33230110  0.66791940  1
  Ni  Ni41  1  0.50243014  0.49910760  0.83632440  1
  Cr  Cr42  1  0.50380686  0.83492711  0.50081050  1
  Cr  Cr43  1  0.33546322  0.66723138  0.66629657  1
  Cr  Cr44  1  0.50418892  0.83544604  0.83582304  1
  Ni  Ni45  1  0.83737316  0.16614089  0.50025481  1
  Ni  Ni46  1  0.67066672  1.00011560  0.66908349  1
  Ni  Ni47  1  0.83470583  0.16621348  0.83547110  1
  Fe  Fe48  1  0.83605458  0.50207273  0.49965936  1
  Cr  Cr49  1  0.66922400  0.33519987  0.66927661  1
  Fe  Fe50  1  0.83344508  0.50135724  0.83634480  1
  Ni  Ni51  1  0.83692021  0.83493403  0.50160909  1
  Ni  Ni52  1  0.66976518  0.66829212  0.66797681  1
  Ni  Ni53  1  0.83424227  0.83552607  0.83427473  1
" 