6112,Ni69Cr31_8,-211.431920764328, 139.304967915336,Ni69Cr31,"# generated using pymatgen
 data_Cr37Ni17
_symmetry_space_group_name_H-M   'P 1'
_cell_length_a   7.55830252
_cell_length_b   7.55830252
_cell_length_c   10.68905393
_cell_angle_alpha   90.00000000
_cell_angle_beta   90.00000000
_cell_angle_gamma   90.00000000
_symmetry_Int_Tables_number   1
_chemical_formula_structural   Cr37Ni17
_chemical_formula_sum   'Cr37 Ni17'
_cell_volume   610.64359869
_cell_formula_units_Z   1
loop_
 _symmetry_equiv_pos_site_id
 _symmetry_equiv_pos_as_xyz
  1  'x, y, z'
loop_
 _atom_site_type_symbol
 _atom_site_label
 _atom_site_symmetry_multiplicity
 _atom_site_fract_x
 _atom_site_fract_y
 _atom_site_fract_z
 _atom_site_occupancy
  Cr  Cr0  1  0.99182166  -0.00516538  0.99230096  1
  Cr  Cr1  1  0.15934830  0.16160061  0.16127415  1
  Cr  Cr2  1  0.99339708  0.99196997  0.32732569  1
  Ni  Ni3  1  0.99209959  0.32726524  0.99256015  1
  Cr  Cr4  1  0.15556826  0.49302071  0.16127410  1
  Ni  Ni5  1  0.99315036  0.33054391  0.32555631  1
  Cr  Cr6  1  0.99107936  0.66044824  -0.00534199  1
  Cr  Cr7  1  0.16060612  0.82720747  0.16134470  1
  Ni  Ni8  1  0.98887189  0.65971383  0.32643909  1
  Cr  Cr9  1  0.32657013  -0.00428983  0.99368864  1
  Cr  Cr10  1  0.49374350  0.15854705  0.16194808  1
  Ni  Ni11  1  0.32725433  -0.00598592  0.32733975  1
  Cr  Cr12  1  0.32663581  0.32724592  0.99118531  1
  Cr  Cr13  1  0.49696907  0.49542050  0.16092922  1
  Cr  Cr14  1  0.32573960  0.32619563  0.32824104  1
  Cr  Cr15  1  0.32790606  0.65889461  0.99331721  1
  Cr  Cr16  1  0.49498867  0.82784826  0.16197029  1
  Cr  Cr17  1  0.32685596  0.66112265  0.32691089  1
  Cr  Cr18  1  0.66350668  0.99367401  0.99308523  1
  Cr  Cr19  1  0.82881723  0.16370225  0.16030590  1
  Cr  Cr20  1  0.66178095  0.99082755  0.32689288  1
  Cr  Cr21  1  0.66202571  0.32792165  0.99056989  1
  Ni  Ni22  1  0.82943897  0.49609861  0.16292297  1
  Cr  Cr23  1  0.66202800  0.32923901  0.32759326  1
  Cr  Cr24  1  0.66287250  0.66030155  0.99375793  1
  Ni  Ni25  1  0.82708135  0.82284552  0.16316273  1
  Ni  Ni26  1  0.66571080  0.66161047  0.32600072  1
  Cr  Cr27  1  0.16029648  0.15899822  0.49361393  1
  Ni  Ni28  1  -0.00579929  0.99155309  0.66276019  1
  Ni  Ni29  1  0.15971267  0.15994537  0.82638249  1
  Cr  Cr30  1  0.15701677  0.49496736  0.49290840  1
  Cr  Cr31  1  0.99368596  0.32603585  0.66246815  1
  Cr  Cr32  1  0.15829506  0.49335035  0.82761875  1
  Cr  Cr33  1  0.15912413  0.82786216  0.49621228  1
  Ni  Ni34  1  0.99102171  0.66437812  0.66119401  1
  Cr  Cr35  1  0.15922505  0.82914950  0.82452591  1
  Cr  Cr36  1  0.49301937  0.15828548  0.49336258  1
  Ni  Ni37  1  0.32499445  -0.00391884  0.66231130  1
  Ni  Ni38  1  0.49312098  0.16171099  0.82616915  1
  Cr  Cr39  1  0.49572794  0.49500249  0.49366281  1
  Cr  Cr40  1  0.32871906  0.32608718  0.66239040  1
  Ni  Ni41  1  0.49628813  0.49146770  0.82728087  1
  Cr  Cr42  1  0.49437784  0.82850741  0.49260472  1
  Cr  Cr43  1  0.32636686  0.65958355  0.66164827  1
  Cr  Cr44  1  0.49399360  0.82798192  0.82737057  1
  Cr  Cr45  1  0.82865313  0.16031185  0.49397480  1
  Cr  Cr46  1  0.66382789  -0.00574222  0.66183267  1
  Ni  Ni47  1  0.82901214  0.16117111  0.82744716  1
  Cr  Cr48  1  0.82912171  0.49615785  0.49171464  1
  Cr  Cr49  1  0.65943236  0.32724873  0.66377543  1
  Ni  Ni50  1  0.82701813  0.49329316  0.82768362  1
  Ni  Ni51  1  0.82930094  0.82497355  0.49371869  1
  Cr  Cr52  1  0.66364477  0.66041446  0.66177045  1
  Ni  Ni53  1  0.82895067  0.82741593  0.82505908  1
" 