7890,Ni69Fe20Cr9_11,-237.009549049681, 192.887353834561,Ni69Fe20Cr9,"# generated using pymatgen
 data_Cr7Fe10Ni37
_symmetry_space_group_name_H-M   'P 1'
_cell_length_a   7.44178354
_cell_length_b   7.44178354
_cell_length_c   10.52427121
_cell_angle_alpha   90.00000000
_cell_angle_beta   90.00000000
_cell_angle_gamma   90.00000000
_symmetry_Int_Tables_number   1
_chemical_formula_structural   Cr7Fe10Ni37
_chemical_formula_sum   'Cr7 Fe10 Ni37'
_cell_volume   582.83563627
_cell_formula_units_Z   1
loop_
 _symmetry_equiv_pos_site_id
 _symmetry_equiv_pos_as_xyz
  1  'x, y, z'
loop_
 _atom_site_type_symbol
 _atom_site_label
 _atom_site_symmetry_multiplicity
 _atom_site_fract_x
 _atom_site_fract_y
 _atom_site_fract_z
 _atom_site_occupancy
  Ni  Ni0  1  1.00067070  1.00004199  0.00188415  1
  Fe  Fe1  1  0.16840247  0.16526992  0.16885481  1
  Fe  Fe2  1  0.99905966  1.00102056  0.33427850  1
  Cr  Cr3  1  0.99931083  0.33460777  1.00052667  1
  Fe  Fe4  1  0.16668540  0.50367982  0.16812161  1
  Fe  Fe5  1  1.00041000  0.33462541  0.33437393  1
  Ni  Ni6  1  0.00213111  0.67006036  1.00105112  1
  Ni  Ni7  1  0.16712389  0.83650302  0.16655523  1
  Ni  Ni8  1  1.00159285  0.66849233  0.33479245  1
  Ni  Ni9  1  0.33581771  0.99967822  1.00132914  1
  Ni  Ni10  1  0.50284924  0.16803483  0.16935747  1
  Fe  Fe11  1  0.33742292  0.00213519  0.33326890  1
  Cr  Cr12  1  0.33702979  0.33603866  1.00099736  1
  Ni  Ni13  1  0.50492621  0.50102261  0.16782866  1
  Fe  Fe14  1  0.33591944  0.33350438  0.33451841  1
  Ni  Ni15  1  0.33498732  0.67000224  0.00210434  1
  Ni  Ni16  1  0.50207226  0.83606433  0.16715859  1
  Cr  Cr17  1  0.33578052  0.66900136  0.33222404  1
  Ni  Ni18  1  0.66859509  1.00168685  0.00216003  1
  Ni  Ni19  1  0.83377861  0.16798890  0.16863386  1
  Ni  Ni20  1  0.66882576  0.00200759  0.33551671  1
  Ni  Ni21  1  0.66830599  0.33402130  1.00122235  1
  Ni  Ni22  1  0.83295869  0.50220975  0.16935887  1
  Ni  Ni23  1  0.66858161  0.33189419  0.33375233  1
  Ni  Ni24  1  0.66794583  0.66940272  0.00249195  1
  Ni  Ni25  1  0.83598146  0.83479215  0.16907922  1
  Ni  Ni26  1  0.66961223  0.67123281  0.33410560  1
  Ni  Ni27  1  0.16899315  0.16837611  0.49972776  1
  Ni  Ni28  1  0.99906638  1.00162130  0.66862203  1
  Ni  Ni29  1  0.16942609  0.16490514  0.83486758  1
  Ni  Ni30  1  0.16881179  0.49984640  0.50101685  1
  Cr  Cr31  1  0.00218284  0.33280458  0.67036694  1
  Ni  Ni32  1  0.16974991  0.50456191  0.83403129  1
  Cr  Cr33  1  0.16789573  0.83623349  0.50419737  1
  Fe  Fe34  1  1.00091018  0.66921689  0.67007969  1
  Ni  Ni35  1  0.16829955  0.83587155  0.83514509  1
  Fe  Fe36  1  0.50247808  0.16684726  0.50203042  1
  Fe  Fe37  1  0.33625000  0.00356030  0.67017407  1
  Ni  Ni38  1  0.50249797  0.16806052  0.83371640  1
  Cr  Cr39  1  0.50269556  0.50150119  0.50291123  1
  Ni  Ni40  1  0.33490896  0.33614934  0.66780102  1
  Ni  Ni41  1  0.50281165  0.50214204  0.83476214  1
  Ni  Ni42  1  0.50316907  0.83695584  0.50226715  1
  Ni  Ni43  1  0.33477872  0.66799804  0.67008413  1
  Ni  Ni44  1  0.50108989  0.83512555  0.83576437  1
  Ni  Ni45  1  0.83529799  0.16677598  0.50079655  1
  Ni  Ni46  1  0.66986383  1.00143163  0.66744952  1
  Ni  Ni47  1  0.83313978  0.16638021  0.83586222  1
  Cr  Cr48  1  0.83415347  0.50251957  0.50169572  1
  Ni  Ni49  1  0.66705785  0.33108865  0.67047335  1
  Ni  Ni50  1  0.83219404  0.50299914  0.83555182  1
  Ni  Ni51  1  0.83370928  0.83714615  0.50102577  1
  Fe  Fe52  1  0.66780076  0.67072673  0.67035380  1
  Ni  Ni53  1  0.83565208  0.83579736  0.83534157  1
" 