2092,Ni69Fe15Cr15_14,-235.120631053132, 184.643775335255,Ni69Fe15Cr15,"# generated using pymatgen
 data_Cr9Fe8Ni37
_symmetry_space_group_name_H-M   'P 1'
_cell_length_a   7.44801008
_cell_length_b   7.44801008
_cell_length_c   10.53307687
_cell_angle_alpha   90.00000000
_cell_angle_beta   90.00000000
_cell_angle_gamma   90.00000000
_symmetry_Int_Tables_number   1
_chemical_formula_structural   Cr9Fe8Ni37
_chemical_formula_sum   'Cr9 Fe8 Ni37'
_cell_volume   584.29983770
_cell_formula_units_Z   1
loop_
 _symmetry_equiv_pos_site_id
 _symmetry_equiv_pos_as_xyz
  1  'x, y, z'
loop_
 _atom_site_type_symbol
 _atom_site_label
 _atom_site_symmetry_multiplicity
 _atom_site_fract_x
 _atom_site_fract_y
 _atom_site_fract_z
 _atom_site_occupancy
  Cr  Cr0  1  0.00231089  0.00202979  1.00095769  1
  Ni  Ni1  1  0.16750802  0.17046150  0.16932561  1
  Ni  Ni2  1  0.00262015  0.00426466  0.33593901  1
  Fe  Fe3  1  0.99994886  0.33683113  0.00323750  1
  Ni  Ni4  1  0.16921769  0.49810382  0.16788217  1
  Ni  Ni5  1  1.00117960  0.33347116  0.33249429  1
  Ni  Ni6  1  0.00130798  0.66537084  1.00115383  1
  Cr  Cr7  1  0.17141567  0.83503841  0.16697676  1
  Cr  Cr8  1  1.00118072  0.66617201  0.33597711  1
  Ni  Ni9  1  0.33656749  1.00104364  1.00098545  1
  Fe  Fe10  1  0.50128237  0.16859081  0.16743104  1
  Ni  Ni11  1  0.33517797  0.00165879  0.33514252  1
  Ni  Ni12  1  0.33681721  0.33423653  0.00332605  1
  Ni  Ni13  1  0.50140064  0.50222671  0.16789192  1
  Fe  Fe14  1  0.33365255  0.33362694  0.33342071  1
  Ni  Ni15  1  0.33562714  0.66855409  1.00099125  1
  Ni  Ni16  1  0.50115485  0.83344021  0.16810270  1
  Ni  Ni17  1  0.33610624  0.66914998  0.33397201  1
  Fe  Fe18  1  0.66421512  0.00233574  1.00095934  1
  Ni  Ni19  1  0.83504331  0.17070773  0.16869166  1
  Ni  Ni20  1  0.66603215  0.00172683  0.33359660  1
  Ni  Ni21  1  0.66808778  0.33528807  1.00049004  1
  Ni  Ni22  1  0.83321680  0.49797959  0.16707854  1
  Ni  Ni23  1  0.66908620  0.33440151  0.33290917  1
  Ni  Ni24  1  0.66689811  0.66512535  0.00148770  1
  Cr  Cr25  1  0.83111485  0.83506318  0.16925392  1
  Ni  Ni26  1  0.66647711  0.66770619  0.33447108  1
  Ni  Ni27  1  0.16809056  0.16665180  0.50093625  1
  Fe  Fe28  1  0.00249178  1.00068382  0.66701148  1
  Cr  Cr29  1  0.16828557  0.16702909  0.83360688  1
  Fe  Fe30  1  0.16705754  0.50093810  0.50218286  1
  Ni  Ni31  1  0.99989896  0.33601421  0.66797562  1
  Cr  Cr32  1  0.16877516  0.50287380  0.83443036  1
  Ni  Ni33  1  0.16960681  0.83661645  0.50243722  1
  Ni  Ni34  1  1.00127778  0.66735650  0.66659437  1
  Ni  Ni35  1  0.17084196  0.83414046  0.83389453  1
  Fe  Fe36  1  0.49970707  0.16586443  0.50212080  1
  Ni  Ni37  1  0.33543582  1.00053471  0.66770389  1
  Ni  Ni38  1  0.50316054  0.16793464  0.83393804  1
  Cr  Cr39  1  0.50223052  0.50244581  0.50166846  1
  Ni  Ni40  1  0.33514157  0.33289588  0.66681521  1
  Ni  Ni41  1  0.50327943  0.50164633  0.83453341  1
  Ni  Ni42  1  0.50026543  0.83483989  0.50092081  1
  Ni  Ni43  1  0.33369482  0.67040086  0.66887052  1
  Ni  Ni44  1  0.49951247  0.83425225  0.83480945  1
  Cr  Cr45  1  0.83563060  0.16848150  0.50153948  1
  Ni  Ni46  1  0.66574509  0.00191127  0.66875724  1
  Ni  Ni47  1  0.83212503  0.17046546  0.83389033  1
  Ni  Ni48  1  0.83456644  0.50142914  0.50211882  1
  Ni  Ni49  1  0.66879215  0.33427049  0.67043479  1
  Ni  Ni50  1  0.83224311  0.49934928  0.83463569  1
  Fe  Fe51  1  0.83381038  0.83377374  0.50184065  1
  Ni  Ni52  1  0.66886249  0.66765229  0.66787670  1
  Cr  Cr53  1  0.83383695  0.83395608  0.83332395  1
" 