2219,Ni69Cr31_19,-211.754760582405, 148.632841951329,Ni69Cr31,"# generated using pymatgen
 data_Cr37Ni17
_symmetry_space_group_name_H-M   'P 1'
_cell_length_a   7.55515604
_cell_length_b   7.55515604
_cell_length_c   10.68460413
_cell_angle_alpha   90.00000000
_cell_angle_beta   90.00000000
_cell_angle_gamma   90.00000000
_symmetry_Int_Tables_number   1
_chemical_formula_structural   Cr37Ni17
_chemical_formula_sum   'Cr37 Ni17'
_cell_volume   609.88129317
_cell_formula_units_Z   1
loop_
 _symmetry_equiv_pos_site_id
 _symmetry_equiv_pos_as_xyz
  1  'x, y, z'
loop_
 _atom_site_type_symbol
 _atom_site_label
 _atom_site_symmetry_multiplicity
 _atom_site_fract_x
 _atom_site_fract_y
 _atom_site_fract_z
 _atom_site_occupancy
  Ni  Ni0  1  -0.00571967  0.99137978  0.99191143  1
  Cr  Cr1  1  0.16247283  0.15737007  0.16003711  1
  Ni  Ni2  1  -0.00557739  -0.00551239  0.32720501  1
  Cr  Cr3  1  -0.00346889  0.32871998  0.99306841  1
  Ni  Ni4  1  0.16316849  0.49524777  0.15944629  1
  Cr  Cr5  1  -0.00298788  0.32847407  0.32746954  1
  Cr  Cr6  1  -0.00225654  0.66161019  0.99226394  1
  Cr  Cr7  1  0.16209235  0.82763394  0.15915963  1
  Cr  Cr8  1  -0.00278516  0.66100945  0.32661835  1
  Ni  Ni9  1  0.32872995  0.99101251  0.99247663  1
  Ni  Ni10  1  0.49303107  0.15786010  0.15796059  1
  Cr  Cr11  1  0.32998725  0.99366845  0.32886144  1
  Cr  Cr12  1  0.32708265  0.32995301  -0.00510397  1
  Cr  Cr13  1  0.49301560  0.49602347  0.15908716  1
  Cr  Cr14  1  0.32774660  0.32891606  0.32685892  1
  Ni  Ni15  1  0.32649231  0.66280603  0.99120558  1
  Cr  Cr16  1  0.49203443  0.82798155  0.15814647  1
  Cr  Cr17  1  0.32731645  0.65977164  0.32827108  1
  Ni  Ni18  1  0.65951206  0.99224290  0.99335357  1
  Cr  Cr19  1  0.82791871  0.15906994  0.15949968  1
  Cr  Cr20  1  0.65980324  0.99374219  0.32673236  1
  Cr  Cr21  1  0.65854551  0.32497965  -0.00498355  1
  Cr  Cr22  1  0.82759616  0.49573656  0.16131192  1
  Cr  Cr23  1  0.65747404  0.32588901  0.32607312  1
  Cr  Cr24  1  0.65905023  0.66389949  0.99113922  1
  Cr  Cr25  1  0.82877499  0.82812506  0.16049684  1
  Cr  Cr26  1  0.65808958  0.66262962  0.33003761  1
  Cr  Cr27  1  0.16120537  0.15905113  0.49612012  1
  Cr  Cr28  1  -0.00523264  0.99095072  0.66292623  1
  Cr  Cr29  1  0.16293010  0.15749754  0.82674500  1
  Ni  Ni30  1  0.16342092  0.49496991  0.49384651  1
  Cr  Cr31  1  -0.00285708  0.32973857  0.66199395  1
  Ni  Ni32  1  0.16476703  0.49793341  0.82884667  1
  Cr  Cr33  1  0.16297711  0.82890824  0.49333042  1
  Cr  Cr34  1  -0.00439203  0.66180062  0.66380306  1
  Ni  Ni35  1  0.16368323  0.82751339  0.82996213  1
  Cr  Cr36  1  0.49228049  0.15987462  0.49586045  1
  Ni  Ni37  1  0.32905575  0.98995410  0.66224399  1
  Cr  Cr38  1  0.49205008  0.15920970  0.82892345  1
  Ni  Ni39  1  0.49259867  0.49765750  0.49551977  1
  Cr  Cr40  1  0.32699807  0.32994274  0.66068535  1
  Ni  Ni41  1  0.49125226  0.49917184  0.82723838  1
  Ni  Ni42  1  0.49357377  0.82470575  0.49689993  1
  Cr  Cr43  1  0.32787236  0.66216280  0.66162993  1
  Ni  Ni44  1  0.49236487  0.82629927  0.82814845  1
  Cr  Cr45  1  0.82910600  0.16088826  0.49426410  1
  Cr  Cr46  1  0.65869537  0.98932719  0.66202589  1
  Cr  Cr47  1  0.82758878  0.15957865  0.82859250  1
  Cr  Cr48  1  0.82536699  0.49528832  0.49552035  1
  Cr  Cr49  1  0.65785369  0.32889267  0.66128795  1
  Cr  Cr50  1  0.82432763  0.49630265  0.82600871  1
  Cr  Cr51  1  0.82720373  0.82642342  0.49329607  1
  Ni  Ni52  1  0.65714450  0.66282178  0.66193220  1
  Ni  Ni53  1  0.82615132  0.82802042  0.82886935  1
" 