2585,Ni69Fe24Cr5_4,-239.850940590227, 205.767429870448,Ni69Fe24Cr5,"# generated using pymatgen
 data_Cr4Fe13Ni37
_symmetry_space_group_name_H-M   'P 1'
_cell_length_a   7.42758629
_cell_length_b   7.42758629
_cell_length_c   10.50419327
_cell_angle_alpha   90.00000000
_cell_angle_beta   90.00000000
_cell_angle_gamma   90.00000000
_symmetry_Int_Tables_number   1
_chemical_formula_structural   Cr4Fe13Ni37
_chemical_formula_sum   'Cr4 Fe13 Ni37'
_cell_volume   579.50623920
_cell_formula_units_Z   1
loop_
 _symmetry_equiv_pos_site_id
 _symmetry_equiv_pos_as_xyz
  1  'x, y, z'
loop_
 _atom_site_type_symbol
 _atom_site_label
 _atom_site_symmetry_multiplicity
 _atom_site_fract_x
 _atom_site_fract_y
 _atom_site_fract_z
 _atom_site_occupancy
  Fe  Fe0  1  0.00533461  1.00147208  0.00338015  1
  Ni  Ni1  1  0.17018033  0.16747358  0.16863477  1
  Ni  Ni2  1  1.00262015  1.00111526  0.33523683  1
  Ni  Ni3  1  0.00367854  0.33714399  0.00440846  1
  Ni  Ni4  1  0.17060450  0.50524390  0.16953740  1
  Cr  Cr5  1  0.00403757  0.33576262  0.33683187  1
  Fe  Fe6  1  0.00435472  0.66919802  0.00266303  1
  Ni  Ni7  1  0.16927776  0.83507221  0.16946491  1
  Ni  Ni8  1  1.00230811  0.67087845  0.33519212  1
  Ni  Ni9  1  0.33583672  1.00223669  1.00231484  1
  Ni  Ni10  1  0.50269138  0.17092707  0.17038169  1
  Ni  Ni11  1  0.33612357  1.00218150  0.33522377  1
  Ni  Ni12  1  0.33403469  0.33618324  0.00343835  1
  Ni  Ni13  1  0.50238588  0.50244153  0.16982987  1
  Ni  Ni14  1  0.33749735  0.33558858  0.33565443  1
  Ni  Ni15  1  0.33764211  0.66959365  0.00290478  1
  Fe  Fe16  1  0.49996778  0.83464184  0.16921190  1
  Ni  Ni17  1  0.33611947  0.67023230  0.33529346  1
  Cr  Cr18  1  0.66661454  0.99985981  0.00397214  1
  Ni  Ni19  1  0.83504908  0.16932728  0.16996629  1
  Fe  Fe20  1  0.66856388  0.00341974  0.33622536  1
  Fe  Fe21  1  0.66617766  0.33797541  0.00388829  1
  Ni  Ni22  1  0.83474058  0.50316009  0.16781072  1
  Ni  Ni23  1  0.66859735  0.33605128  0.33465417  1
  Ni  Ni24  1  0.66907475  0.66897482  1.00258325  1
  Fe  Fe25  1  0.83735819  0.83459790  0.16956948  1
  Fe  Fe26  1  0.66889575  0.66872097  0.33519116  1
  Ni  Ni27  1  0.17136024  0.16632548  0.50311997  1
  Ni  Ni28  1  0.00342374  1.00078446  0.66915899  1
  Fe  Fe29  1  0.17239847  0.16839250  0.83668839  1
  Ni  Ni30  1  0.17190162  0.50701537  0.50186729  1
  Cr  Cr31  1  0.00486191  0.33719861  0.66692781  1
  Ni  Ni32  1  0.17134650  0.50554392  0.83673142  1
  Ni  Ni33  1  0.16866620  0.83454850  0.50326936  1
  Ni  Ni34  1  1.00222115  0.67024990  0.67001454  1
  Ni  Ni35  1  0.16925129  0.83405636  0.83532761  1
  Ni  Ni36  1  0.50426144  0.17010635  0.50311752  1
  Ni  Ni37  1  0.33662931  1.00233977  0.67049392  1
  Ni  Ni38  1  0.50215456  0.17076217  0.83471627  1
  Fe  Fe39  1  0.50134454  0.50144057  0.50277816  1
  Ni  Ni40  1  0.33707441  0.33599367  0.66911313  1
  Ni  Ni41  1  0.50145980  0.50261849  0.83553978  1
  Fe  Fe42  1  0.50022402  0.83704226  0.50358754  1
  Ni  Ni43  1  0.33630078  0.66962561  0.66966868  1
  Ni  Ni44  1  0.50188034  0.83472087  0.83468862  1
  Ni  Ni45  1  0.83255150  0.16704506  0.50239295  1
  Ni  Ni46  1  0.66818910  1.00123618  0.66814315  1
  Cr  Cr47  1  0.83437533  0.16874362  0.83573752  1
  Fe  Fe48  1  0.83481021  0.50358242  0.50196491  1
  Ni  Ni49  1  0.66778436  0.33725735  0.66982031  1
  Fe  Fe50  1  0.83485079  0.50570579  0.83726665  1
  Fe  Fe51  1  0.83776957  0.83679464  0.50371324  1
  Ni  Ni52  1  0.66923842  0.66998562  0.66937791  1
  Ni  Ni53  1  0.83734913  0.83485636  0.83475663  1
" 