9014,Ni69Cr31_1,-211.516382661531, 143.954892754455,Ni69Cr31,"# generated using pymatgen
 data_Cr37Ni17
_symmetry_space_group_name_H-M   'P 1'
_cell_length_a   7.56001335
_cell_length_b   7.56001335
_cell_length_c   10.69147341
_cell_angle_alpha   90.00000000
_cell_angle_beta   90.00000000
_cell_angle_gamma   90.00000000
_symmetry_Int_Tables_number   1
_chemical_formula_structural   Cr37Ni17
_chemical_formula_sum   'Cr37 Ni17'
_cell_volume   611.05835194
_cell_formula_units_Z   1
loop_
 _symmetry_equiv_pos_site_id
 _symmetry_equiv_pos_as_xyz
  1  'x, y, z'
loop_
 _atom_site_type_symbol
 _atom_site_label
 _atom_site_symmetry_multiplicity
 _atom_site_fract_x
 _atom_site_fract_y
 _atom_site_fract_z
 _atom_site_occupancy
  Ni  Ni0  1  -0.00493192  -0.00505977  0.99054184  1
  Cr  Cr1  1  0.15981196  0.16076374  0.15938653  1
  Cr  Cr2  1  -0.00471339  -0.00531433  0.32853756  1
  Ni  Ni3  1  -0.00424604  0.32594605  0.99222665  1
  Ni  Ni4  1  0.15616487  0.49477511  0.15893862  1
  Cr  Cr5  1  -0.00353013  0.32808371  0.32925322  1
  Ni  Ni6  1  -0.00341691  0.66100495  -0.00594635  1
  Cr  Cr7  1  0.15917414  0.82624123  0.15848563  1
  Ni  Ni8  1  -0.00367421  0.65751506  0.32704665  1
  Cr  Cr9  1  0.32672835  0.99315947  0.99136515  1
  Cr  Cr10  1  0.49273459  0.15907943  0.16125856  1
  Cr  Cr11  1  0.32682917  0.99272850  0.32794243  1
  Cr  Cr12  1  0.32408100  0.32631034  -0.00579671  1
  Cr  Cr13  1  0.49137693  0.49279519  0.15931392  1
  Cr  Cr14  1  0.32413650  0.32910061  0.32745835  1
  Cr  Cr15  1  0.32628049  0.66202912  -0.00614496  1
  Ni  Ni16  1  0.49337101  0.82649688  0.16088724  1
  Cr  Cr17  1  0.32536024  0.65926146  0.32648236  1
  Cr  Cr18  1  0.66136289  0.99312256  0.99281773  1
  Cr  Cr19  1  0.82838502  0.16053696  0.15904203  1
  Cr  Cr20  1  0.66004304  0.99190555  0.32571337  1
  Cr  Cr21  1  0.66172544  0.32433057  0.99137972  1
  Cr  Cr22  1  0.82957999  0.49475528  0.15750518  1
  Cr  Cr23  1  0.66054155  0.32796169  0.32743393  1
  Cr  Cr24  1  0.65892951  0.66294859  0.99251518  1
  Cr  Cr25  1  0.83032311  0.82621973  0.16104164  1
  Cr  Cr26  1  0.65914983  0.66109998  0.32837680  1
  Ni  Ni27  1  0.16122031  0.16307828  0.49675485  1
  Cr  Cr28  1  -0.00278372  -0.00259889  0.66266945  1
  Ni  Ni29  1  0.15957553  0.15896715  0.82693056  1
  Ni  Ni30  1  0.16057638  0.49263378  0.49360647  1
  Ni  Ni31  1  -0.00325482  0.32514043  0.66115055  1
  Cr  Cr32  1  0.15858104  0.49472204  0.82912686  1
  Cr  Cr33  1  0.16125370  0.82892658  0.49493229  1
  Cr  Cr34  1  -0.00279767  0.65919799  0.65985277  1
  Ni  Ni35  1  0.16212090  0.83140104  0.82861533  1
  Cr  Cr36  1  0.49078823  0.15985773  0.49390200  1
  Ni  Ni37  1  0.32668635  -0.00509364  0.66280992  1
  Ni  Ni38  1  0.49228300  0.15668752  0.82601725  1
  Ni  Ni39  1  0.49012321  0.49575212  0.49420139  1
  Cr  Cr40  1  0.32393619  0.32644803  0.65967850  1
  Cr  Cr41  1  0.49302128  0.49241150  0.82650318  1
  Ni  Ni42  1  0.49098842  0.82672161  0.49503152  1
  Cr  Cr43  1  0.32721878  0.66325050  0.66081131  1
  Ni  Ni44  1  0.49028834  0.83151385  0.82559341  1
  Cr  Cr45  1  0.82835775  0.16077713  0.49458173  1
  Cr  Cr46  1  0.66036121  0.99269200  0.66286275  1
  Ni  Ni47  1  0.83120425  0.16065604  0.82875801  1
  Cr  Cr48  1  0.82800118  0.49430142  0.49613148  1
  Cr  Cr49  1  0.66233716  0.32568027  0.66254205  1
  Cr  Cr50  1  0.82935102  0.49264134  0.82791156  1
  Cr  Cr51  1  0.82801740  0.82609310  0.49167427  1
  Cr  Cr52  1  0.65756070  0.66187217  0.66005152  1
  Cr  Cr53  1  0.83138693  0.82645140  0.82821686  1
" 