1942,Ni69Cr31_9,-211.539245790245, 142.107204495556,Ni69Cr31,"# generated using pymatgen
 data_Cr37Ni17
_symmetry_space_group_name_H-M   'P 1'
_cell_length_a   7.56020067
_cell_length_b   7.56020067
_cell_length_c   10.69173831
_cell_angle_alpha   90.00000000
_cell_angle_beta   90.00000000
_cell_angle_gamma   90.00000000
_symmetry_Int_Tables_number   1
_chemical_formula_structural   Cr37Ni17
_chemical_formula_sum   'Cr37 Ni17'
_cell_volume   611.10377473
_cell_formula_units_Z   1
loop_
 _symmetry_equiv_pos_site_id
 _symmetry_equiv_pos_as_xyz
  1  'x, y, z'
loop_
 _atom_site_type_symbol
 _atom_site_label
 _atom_site_symmetry_multiplicity
 _atom_site_fract_x
 _atom_site_fract_y
 _atom_site_fract_z
 _atom_site_occupancy
  Cr  Cr0  1  -0.00391104  -0.00540358  -0.00585786  1
  Ni  Ni1  1  0.16164508  0.16130373  0.16159810  1
  Ni  Ni2  1  -0.00368047  0.99158523  0.32733730  1
  Cr  Cr3  1  0.99342176  0.32747761  -0.00554644  1
  Cr  Cr4  1  0.16384417  0.49334744  0.16179170  1
  Cr  Cr5  1  -0.00368582  0.32617007  0.32554642  1
  Cr  Cr6  1  -0.00531575  0.65943578  0.99048142  1
  Cr  Cr7  1  0.16108627  0.82565308  0.16131576  1
  Ni  Ni8  1  -0.00508546  0.66368630  0.32852576  1
  Cr  Cr9  1  0.32651484  0.99255467  -0.00560623  1
  Cr  Cr10  1  0.49153417  0.16206413  0.15812028  1
  Cr  Cr11  1  0.32630917  0.99264305  0.32752608  1
  Ni  Ni12  1  0.32928439  0.32901635  -0.00601192  1
  Cr  Cr13  1  0.49100693  0.49506523  0.16020321  1
  Ni  Ni14  1  0.32666171  0.32943185  0.32695584  1
  Ni  Ni15  1  0.32867472  0.65937652  0.99240653  1
  Ni  Ni16  1  0.49275367  0.82444450  0.16172339  1
  Ni  Ni17  1  0.32917750  0.66096416  0.32940593  1
  Cr  Cr18  1  0.65885887  0.99380115  -0.00388257  1
  Cr  Cr19  1  0.82798730  0.15913437  0.16049809  1
  Cr  Cr20  1  0.65927307  0.99010483  0.32624580  1
  Ni  Ni21  1  0.65831509  0.32949692  0.99043103  1
  Cr  Cr22  1  0.82674370  0.49583020  0.16139169  1
  Cr  Cr23  1  0.65895698  0.33012091  0.32851924  1
  Cr  Cr24  1  0.65827220  0.65826601  0.99357971  1
  Cr  Cr25  1  0.82634404  0.82648779  0.16381475  1
  Ni  Ni26  1  0.65741198  0.66173690  0.32830761  1
  Cr  Cr27  1  0.16082495  0.15956451  0.49214257  1
  Cr  Cr28  1  -0.00318756  0.99258898  0.66077184  1
  Cr  Cr29  1  0.16220428  0.15976647  0.82786576  1
  Cr  Cr30  1  0.16344112  0.49654883  0.49019788  1
  Cr  Cr31  1  0.99090579  0.32859243  0.66157191  1
  Cr  Cr32  1  0.16303099  0.49617773  0.82943383  1
  Ni  Ni33  1  0.16159521  0.82601534  0.49150626  1
  Cr  Cr34  1  -0.00518009  0.66043171  0.66280825  1
  Ni  Ni35  1  0.16116313  0.82559447  0.82779573  1
  Cr  Cr36  1  0.49415263  0.16282336  0.49585443  1
  Cr  Cr37  1  0.32622523  0.99052534  0.65956250  1
  Cr  Cr38  1  0.49500142  0.16464867  0.82742420  1
  Ni  Ni39  1  0.49363929  0.49602585  0.49212999  1
  Cr  Cr40  1  0.32998642  0.32874489  0.65924598  1
  Ni  Ni41  1  0.49599443  0.49168135  0.82900369  1
  Ni  Ni42  1  0.49173510  0.82293396  0.49142634  1
  Cr  Cr43  1  0.32823183  0.66236348  0.65988844  1
  Cr  Cr44  1  0.49145793  0.82546357  0.82885699  1
  Cr  Cr45  1  0.82650086  0.15939583  0.49522450  1
  Cr  Cr46  1  0.65846975  -0.00581360  0.65922085  1
  Cr  Cr47  1  0.82425198  0.16246398  0.82584967  1
  Cr  Cr48  1  0.82538049  0.49522246  0.49332204  1
  Ni  Ni49  1  0.65977994  0.33029461  0.66234432  1
  Ni  Ni50  1  0.82305897  0.49168412  0.82701235  1
  Cr  Cr51  1  0.82846845  0.82680449  0.49064852  1
  Cr  Cr52  1  0.65854156  0.65674549  0.66018626  1
  Cr  Cr53  1  0.82924616  0.82623580  0.82720359  1
" 