6220,Ni69Fe24Cr5_8,-239.575589571084, 203.973448908872,Ni69Fe24Cr5,"# generated using pymatgen
 data_Cr4Fe13Ni37
_symmetry_space_group_name_H-M   'P 1'
_cell_length_a   7.42634205
_cell_length_b   7.42634205
_cell_length_c   10.50243365
_cell_angle_alpha   90.00000000
_cell_angle_beta   90.00000000
_cell_angle_gamma   90.00000000
_symmetry_Int_Tables_number   1
_chemical_formula_structural   Cr4Fe13Ni37
_chemical_formula_sum   'Cr4 Fe13 Ni37'
_cell_volume   579.21505754
_cell_formula_units_Z   1
loop_
 _symmetry_equiv_pos_site_id
 _symmetry_equiv_pos_as_xyz
  1  'x, y, z'
loop_
 _atom_site_type_symbol
 _atom_site_label
 _atom_site_symmetry_multiplicity
 _atom_site_fract_x
 _atom_site_fract_y
 _atom_site_fract_z
 _atom_site_occupancy
  Ni  Ni0  1  0.00303895  1.00131692  1.00226763  1
  Cr  Cr1  1  0.16945008  0.16756297  0.16909974  1
  Ni  Ni2  1  1.00264931  1.00099044  0.33660804  1
  Ni  Ni3  1  1.00120745  0.33617503  1.00089951  1
  Cr  Cr4  1  0.16893610  0.50389702  0.17014585  1
  Ni  Ni5  1  1.00152098  0.33658057  0.33761504  1
  Fe  Fe6  1  0.00296206  0.66970035  1.00213994  1
  Ni  Ni7  1  0.16930857  0.83631722  0.16967843  1
  Ni  Ni8  1  0.00361739  0.67065112  0.33656974  1
  Ni  Ni9  1  0.33619567  1.00138891  1.00130662  1
  Ni  Ni10  1  0.50478719  0.16922790  0.16961695  1
  Ni  Ni11  1  0.33673155  1.00179713  0.33723343  1
  Ni  Ni12  1  0.33830507  0.33639072  1.00074904  1
  Ni  Ni13  1  0.50482479  0.50193425  0.16862721  1
  Ni  Ni14  1  0.33809418  0.33600652  0.33746404  1
  Fe  Fe15  1  0.33636682  0.66975432  1.00187157  1
  Ni  Ni16  1  0.50191415  0.83706624  0.16845139  1
  Fe  Fe17  1  0.33539822  0.67064079  0.33679606  1
  Fe  Fe18  1  0.66897055  0.00447272  1.00272196  1
  Fe  Fe19  1  0.83417931  0.16980651  0.16947699  1
  Ni  Ni20  1  0.66883681  0.00388654  0.33511970  1
  Ni  Ni21  1  0.66870684  0.33714451  0.00356531  1
  Ni  Ni22  1  0.83484313  0.50195992  0.16818592  1
  Ni  Ni23  1  0.66860451  0.33504344  0.33551905  1
  Fe  Fe24  1  0.66889060  0.66845633  0.00346568  1
  Fe  Fe25  1  0.83660187  0.83657892  0.16950318  1
  Cr  Cr26  1  0.66935409  0.66922329  0.33713671  1
  Ni  Ni27  1  0.16913349  0.16869535  0.50332863  1
  Ni  Ni28  1  1.00190905  1.00193924  0.66934524  1
  Ni  Ni29  1  0.16899090  0.16910593  0.83610164  1
  Fe  Fe30  1  0.16828865  0.50167358  0.50235339  1
  Ni  Ni31  1  1.00263381  0.33620342  0.66971271  1
  Ni  Ni32  1  0.16873072  0.50224993  0.83692823  1
  Ni  Ni33  1  0.16804631  0.83727713  0.50106841  1
  Ni  Ni34  1  1.00164028  0.67007899  0.66960630  1
  Ni  Ni35  1  0.16794255  0.83686687  0.83746631  1
  Ni  Ni36  1  0.50273366  0.16977457  0.50258437  1
  Fe  Fe37  1  0.33539628  0.00502622  0.66924975  1
  Ni  Ni38  1  0.50292241  0.17022944  0.83601489  1
  Ni  Ni39  1  0.50371561  0.50109075  0.50206523  1
  Ni  Ni40  1  0.33678109  0.33543377  0.67001967  1
  Ni  Ni41  1  0.50347719  0.50141911  0.83752941  1
  Ni  Ni42  1  0.50266813  0.83736043  0.50299706  1
  Cr  Cr43  1  0.33572614  0.66888624  0.66847276  1
  Fe  Fe44  1  0.50258769  0.83757549  0.83684746  1
  Ni  Ni45  1  0.83635034  0.16973897  0.50182992  1
  Ni  Ni46  1  0.66986698  0.00277917  0.66951258  1
  Ni  Ni47  1  0.83630565  0.16944321  0.83643484  1
  Ni  Ni48  1  0.83643398  0.50218137  0.50417120  1
  Ni  Ni49  1  0.66881013  0.33569936  0.66913538  1
  Fe  Fe50  1  0.83680118  0.50131645  0.83601242  1
  Ni  Ni51  1  0.83750663  0.83629892  0.50357941  1
  Fe  Fe52  1  0.67135027  0.66873486  0.66862795  1
  Fe  Fe53  1  0.83694807  0.83694414  0.83516356  1
" 