901,Ni69Fe15Cr15_16,-234.964912907445, 186.435719375584,Ni69Fe15Cr15,"# generated using pymatgen
 data_Cr9Fe8Ni37
_symmetry_space_group_name_H-M   'P 1'
_cell_length_a   7.44707828
_cell_length_b   7.44707828
_cell_length_c   10.53175910
_cell_angle_alpha   90.00000000
_cell_angle_beta   90.00000000
_cell_angle_gamma   90.00000000
_symmetry_Int_Tables_number   1
_chemical_formula_structural   Cr9Fe8Ni37
_chemical_formula_sum   'Cr9 Fe8 Ni37'
_cell_volume   584.08056310
_cell_formula_units_Z   1
loop_
 _symmetry_equiv_pos_site_id
 _symmetry_equiv_pos_as_xyz
  1  'x, y, z'
loop_
 _atom_site_type_symbol
 _atom_site_label
 _atom_site_symmetry_multiplicity
 _atom_site_fract_x
 _atom_site_fract_y
 _atom_site_fract_z
 _atom_site_occupancy
  Cr  Cr0  1  0.99996783  0.99953805  0.00249912  1
  Ni  Ni1  1  0.16774679  0.16826696  0.17029214  1
  Ni  Ni2  1  1.00084403  0.00379762  0.33397610  1
  Cr  Cr3  1  1.00096168  0.33693579  0.00240499  1
  Ni  Ni4  1  0.16908189  0.50042778  0.16838984  1
  Fe  Fe5  1  0.00346619  0.33185057  0.33405298  1
  Ni  Ni6  1  0.99949728  0.66764260  1.00083575  1
  Fe  Fe7  1  0.16896349  0.83580471  0.16860129  1
  Cr  Cr8  1  0.00151535  0.66828182  0.33279494  1
  Ni  Ni9  1  0.33704660  0.00185750  0.00205542  1
  Cr  Cr10  1  0.50001102  0.16863876  0.16557053  1
  Ni  Ni11  1  0.33366994  0.00189731  0.33435741  1
  Ni  Ni12  1  0.33662057  0.33488157  0.00159102  1
  Ni  Ni13  1  0.50109595  0.50241447  0.16928505  1
  Ni  Ni14  1  0.33388499  0.33633837  0.33533962  1
  Cr  Cr15  1  0.33419915  0.66725963  1.00112929  1
  Ni  Ni16  1  0.50178640  0.83291105  0.16792056  1
  Ni  Ni17  1  0.33684436  0.66578682  0.33421961  1
  Ni  Ni18  1  0.66745204  1.00104629  1.00046597  1
  Ni  Ni19  1  0.83625900  0.16757690  0.16862371  1
  Cr  Cr20  1  0.66926538  1.00036415  0.33595758  1
  Ni  Ni21  1  0.66709290  0.33490917  1.00050742  1
  Fe  Fe22  1  0.83304934  0.50148810  0.16692591  1
  Fe  Fe23  1  0.66704218  0.33528976  0.33446465  1
  Ni  Ni24  1  0.66961561  0.66806574  0.00264290  1
  Ni  Ni25  1  0.83427464  0.83424661  0.16727558  1
  Fe  Fe26  1  0.66464685  0.66840946  0.33401840  1
  Fe  Fe27  1  0.16854089  0.16915545  0.50106874  1
  Ni  Ni28  1  0.99845217  0.00160858  0.66713142  1
  Cr  Cr29  1  0.17022432  0.16757267  0.83333279  1
  Ni  Ni30  1  0.17080458  0.49952874  0.50268839  1
  Ni  Ni31  1  0.00190483  0.33497552  0.66714779  1
  Ni  Ni32  1  0.16803250  0.50362133  0.83294078  1
  Cr  Cr33  1  0.16844930  0.83505920  0.50208351  1
  Ni  Ni34  1  1.00114188  0.66743739  0.67041974  1
  Ni  Ni35  1  0.16696766  0.83278063  0.83413447  1
  Ni  Ni36  1  0.50072458  0.16860684  0.50207797  1
  Ni  Ni37  1  0.33674777  0.00172433  0.66761036  1
  Ni  Ni38  1  0.50269980  0.16851452  0.83569980  1
  Ni  Ni39  1  0.49908394  0.50105291  0.50058752  1
  Ni  Ni40  1  0.33460142  0.33616774  0.66709221  1
  Ni  Ni41  1  0.50188497  0.49976341  0.83414933  1
  Ni  Ni42  1  0.50171899  0.83436342  0.50201101  1
  Ni  Ni43  1  0.33524895  0.66612973  0.66802739  1
  Fe  Fe44  1  0.50240982  0.83535981  0.83389121  1
  Ni  Ni45  1  0.83508258  0.16654293  0.50202337  1
  Ni  Ni46  1  0.66882346  1.00096245  0.66797245  1
  Ni  Ni47  1  0.83114151  0.16745096  0.83337475  1
  Cr  Cr48  1  0.83430545  0.50128400  0.50201064  1
  Fe  Fe49  1  0.66721394  0.33369957  0.66926069  1
  Ni  Ni50  1  0.83410387  0.50297775  0.83499794  1
  Ni  Ni51  1  0.83355940  0.83695433  0.50303635  1
  Ni  Ni52  1  0.66763121  0.66958365  0.66772203  1
  Ni  Ni53  1  0.83499925  0.83359510  0.83371004  1
" 