1824,Ni69Fe24Cr5_16,-239.977603085939, 207.201788026723,Ni69Fe24Cr5,"# generated using pymatgen
 data_Cr4Fe13Ni37
_symmetry_space_group_name_H-M   'P 1'
_cell_length_a   7.42560839
_cell_length_b   7.42560839
_cell_length_c   10.50139609
_cell_angle_alpha   90.00000000
_cell_angle_beta   90.00000000
_cell_angle_gamma   90.00000000
_symmetry_Int_Tables_number   1
_chemical_formula_structural   Cr4Fe13Ni37
_chemical_formula_sum   'Cr4 Fe13 Ni37'
_cell_volume   579.04340909
_cell_formula_units_Z   1
loop_
 _symmetry_equiv_pos_site_id
 _symmetry_equiv_pos_as_xyz
  1  'x, y, z'
loop_
 _atom_site_type_symbol
 _atom_site_label
 _atom_site_symmetry_multiplicity
 _atom_site_fract_x
 _atom_site_fract_y
 _atom_site_fract_z
 _atom_site_occupancy
  Ni  Ni0  1  0.00343346  1.00150351  0.00297272  1
  Ni  Ni1  1  0.17066475  0.16804048  0.16961753  1
  Ni  Ni2  1  1.00202611  1.00160367  0.33496463  1
  Cr  Cr3  1  0.00357092  0.33555853  0.00329875  1
  Ni  Ni4  1  0.17118966  0.50404633  0.17031421  1
  Fe  Fe5  1  1.00071070  0.33698876  0.33556882  1
  Fe  Fe6  1  0.00436457  0.67144715  0.00311559  1
  Ni  Ni7  1  0.16836592  0.83628579  0.16950815  1
  Ni  Ni8  1  0.00303551  0.66986671  0.33570748  1
  Ni  Ni9  1  0.33559943  0.00334747  1.00265100  1
  Ni  Ni10  1  0.50304805  0.17033629  0.16939618  1
  Fe  Fe11  1  0.33706200  1.00187469  0.33443513  1
  Ni  Ni12  1  0.33723633  0.33577969  0.00310168  1
  Ni  Ni13  1  0.50200072  0.50122701  0.17010780  1
  Fe  Fe14  1  0.33717593  0.33719872  0.33502924  1
  Fe  Fe15  1  0.33464893  0.66928687  1.00237074  1
  Fe  Fe16  1  0.50245534  0.83719717  0.17021910  1
  Fe  Fe17  1  0.33633898  0.66929815  0.33638863  1
  Ni  Ni18  1  0.66933561  0.00388299  0.00359308  1
  Ni  Ni19  1  0.83465846  0.16751318  0.17031390  1
  Ni  Ni20  1  0.66997114  0.00293013  0.33536417  1
  Ni  Ni21  1  0.66720316  0.33474737  1.00273662  1
  Ni  Ni22  1  0.83518079  0.50352504  0.17102936  1
  Ni  Ni23  1  0.66887245  0.33617484  0.33583823  1
  Cr  Cr24  1  0.66957477  0.66940062  0.00289886  1
  Ni  Ni25  1  0.83747716  0.83733366  0.17022329  1
  Ni  Ni26  1  0.66968470  0.66926699  0.33665593  1
  Cr  Cr27  1  0.16864840  0.16952950  0.50369804  1
  Ni  Ni28  1  0.00357799  1.00213459  0.67043268  1
  Ni  Ni29  1  0.17052944  0.16814849  0.83529597  1
  Ni  Ni30  1  0.17054695  0.50434366  0.50298260  1
  Ni  Ni31  1  0.00310200  0.33678818  0.66956968  1
  Ni  Ni32  1  0.17180566  0.50396141  0.83507402  1
  Fe  Fe33  1  0.16807623  0.83383779  0.50297048  1
  Ni  Ni34  1  0.00362109  0.66944620  0.66972260  1
  Ni  Ni35  1  0.16826406  0.83626201  0.83542932  1
  Fe  Fe36  1  0.50465375  0.17133353  0.50203073  1
  Fe  Fe37  1  0.33484568  1.00229400  0.67111038  1
  Ni  Ni38  1  0.50232246  0.17142951  0.83656287  1
  Ni  Ni39  1  0.50295892  0.50325114  0.50319743  1
  Ni  Ni40  1  0.33629157  0.33782387  0.67050516  1
  Ni  Ni41  1  0.50155043  0.50118035  0.83506443  1
  Fe  Fe42  1  0.50318825  0.83436869  0.50208462  1
  Ni  Ni43  1  0.33568367  0.66832372  0.66941335  1
  Fe  Fe44  1  0.50100863  0.83654339  0.83606652  1
  Ni  Ni45  1  0.83534591  0.16892996  0.50208919  1
  Cr  Cr46  1  0.67034320  0.00287844  0.66954540  1
  Ni  Ni47  1  0.83551829  0.16788977  0.83596642  1
  Ni  Ni48  1  0.83486479  0.50381255  0.50361892  1
  Ni  Ni49  1  0.66897789  0.33778013  0.66979613  1
  Fe  Fe50  1  0.83626081  0.50221139  0.83416096  1
  Ni  Ni51  1  0.83643963  0.83562940  0.50206133  1
  Ni  Ni52  1  0.66906455  0.66784737  0.66871979  1
  Ni  Ni53  1  0.83829994  0.83703488  0.83608587  1
" 