1442,Ni69Cr31_3,-211.669013125182, 144.061472162776,Ni69Cr31,"# generated using pymatgen
 data_Cr37Ni17
_symmetry_space_group_name_H-M   'P 1'
_cell_length_a   7.55677109
_cell_length_b   7.55677109
_cell_length_c   10.68688816
_cell_angle_alpha   90.00000000
_cell_angle_beta   90.00000000
_cell_angle_gamma   90.00000000
_symmetry_Int_Tables_number   1
_chemical_formula_structural   Cr37Ni17
_chemical_formula_sum   'Cr37 Ni17'
_cell_volume   610.27249714
_cell_formula_units_Z   1
loop_
 _symmetry_equiv_pos_site_id
 _symmetry_equiv_pos_as_xyz
  1  'x, y, z'
loop_
 _atom_site_type_symbol
 _atom_site_label
 _atom_site_symmetry_multiplicity
 _atom_site_fract_x
 _atom_site_fract_y
 _atom_site_fract_z
 _atom_site_occupancy
  Ni  Ni0  1  -0.00572775  0.98980019  0.99142522  1
  Cr  Cr1  1  0.16106109  0.15886799  0.15901707  1
  Cr  Cr2  1  0.99235573  -0.00511721  0.32780929  1
  Cr  Cr3  1  -0.00361319  0.32704520  0.99398804  1
  Cr  Cr4  1  0.16034004  0.49351823  0.16219312  1
  Ni  Ni5  1  -0.00523026  0.32729299  0.33022218  1
  Ni  Ni6  1  0.99341043  0.66686480  0.99332318  1
  Cr  Cr7  1  0.16095440  0.82970692  0.16105667  1
  Cr  Cr8  1  -0.00444974  0.65998492  0.32560193  1
  Ni  Ni9  1  0.32486147  -0.00451265  0.99206012  1
  Cr  Cr10  1  0.49143066  0.15809699  0.15780898  1
  Ni  Ni11  1  0.32835149  0.99362438  0.32852076  1
  Ni  Ni12  1  0.32541451  0.32370223  0.99253245  1
  Cr  Cr13  1  0.49230158  0.49426911  0.15957325  1
  Cr  Cr14  1  0.32657208  0.32723304  0.32867586  1
  Cr  Cr15  1  0.32398085  0.66138019  0.99350378  1
  Cr  Cr16  1  0.49249623  0.82979004  0.16247142  1
  Ni  Ni17  1  0.32597256  0.66124232  0.32899797  1
  Ni  Ni18  1  0.66307748  0.99140006  -0.00553869  1
  Cr  Cr19  1  0.82959677  0.15882790  0.16058812  1
  Cr  Cr20  1  0.66060170  -0.00481065  0.32760346  1
  Cr  Cr21  1  0.65898776  0.32564019  -0.00522959  1
  Cr  Cr22  1  0.82977866  0.49468934  0.16059680  1
  Cr  Cr23  1  0.66228302  0.32471147  0.32877530  1
  Cr  Cr24  1  0.66432062  0.66411117  -0.00558300  1
  Ni  Ni25  1  0.82874583  0.82907178  0.15627725  1
  Cr  Cr26  1  0.66102471  0.66250505  0.32530809  1
  Cr  Cr27  1  0.15872125  0.15964072  0.49319365  1
  Ni  Ni28  1  0.99385383  0.99389885  0.66341852  1
  Ni  Ni29  1  0.16013969  0.15572005  0.82992068  1
  Ni  Ni30  1  0.16075838  0.49351388  0.49128550  1
  Cr  Cr31  1  -0.00405190  0.32426923  0.65834988  1
  Cr  Cr32  1  0.16013228  0.49303489  0.82895406  1
  Cr  Cr33  1  0.16189682  0.82712835  0.49266583  1
  Cr  Cr34  1  -0.00468183  0.66419234  0.66316454  1
  Ni  Ni35  1  0.15642133  0.83213980  0.82954946  1
  Ni  Ni36  1  0.49445951  0.15991438  0.49259252  1
  Cr  Cr37  1  0.32427506  -0.00466680  0.66150320  1
  Cr  Cr38  1  0.49173867  0.15968260  0.83103969  1
  Cr  Cr39  1  0.49365443  0.49647127  0.49549844  1
  Cr  Cr40  1  0.32631257  0.32584229  0.66183936  1
  Cr  Cr41  1  0.49540589  0.49431726  0.82722398  1
  Cr  Cr42  1  0.49257712  0.82792896  0.49256233  1
  Cr  Cr43  1  0.32559999  0.66096375  0.66023718  1
  Cr  Cr44  1  0.49531127  0.82814690  0.82679411  1
  Ni  Ni45  1  0.82795804  0.16084077  0.49384035  1
  Cr  Cr46  1  0.66282456  -0.00559686  0.65896884  1
  Cr  Cr47  1  0.83033884  0.15746505  0.82742987  1
  Cr  Cr48  1  0.82942760  0.49292947  0.49477407  1
  Cr  Cr49  1  0.65982112  0.32570782  0.65847301  1
  Cr  Cr50  1  0.82666120  0.49700347  0.82669626  1
  Cr  Cr51  1  0.82779705  0.82831747  0.49679468  1
  Ni  Ni52  1  0.66238333  0.66261052  0.66219337  1
  Ni  Ni53  1  0.83078727  0.82906964  0.82887963  1
" 