7817,Ni69Fe20Cr9_13,-236.659024746997, 193.778890146155,Ni69Fe20Cr9,"# generated using pymatgen
 data_Cr7Fe10Ni37
_symmetry_space_group_name_H-M   'P 1'
_cell_length_a   7.43341770
_cell_length_b   7.43341770
_cell_length_c   10.51244013
_cell_angle_alpha   90.00000000
_cell_angle_beta   90.00000000
_cell_angle_gamma   90.00000000
_symmetry_Int_Tables_number   1
_chemical_formula_structural   Cr7Fe10Ni37
_chemical_formula_sum   'Cr7 Fe10 Ni37'
_cell_volume   580.87222433
_cell_formula_units_Z   1
loop_
 _symmetry_equiv_pos_site_id
 _symmetry_equiv_pos_as_xyz
  1  'x, y, z'
loop_
 _atom_site_type_symbol
 _atom_site_label
 _atom_site_symmetry_multiplicity
 _atom_site_fract_x
 _atom_site_fract_y
 _atom_site_fract_z
 _atom_site_occupancy
  Ni  Ni0  1  0.99955182  1.00202376  0.00329407  1
  Ni  Ni1  1  0.17020390  0.16910148  0.16767465  1
  Cr  Cr2  1  1.00149110  1.00222567  0.33480544  1
  Ni  Ni3  1  1.00213824  0.33541948  0.00543956  1
  Ni  Ni4  1  0.16937772  0.50365000  0.16880625  1
  Ni  Ni5  1  1.00160911  0.33719763  0.33389156  1
  Ni  Ni6  1  0.00369445  0.66925684  0.00482335  1
  Ni  Ni7  1  0.16888361  0.83394547  0.16930588  1
  Ni  Ni8  1  1.00210103  0.66750346  0.33585146  1
  Ni  Ni9  1  0.33771391  1.00208446  0.00349520  1
  Ni  Ni10  1  0.50295779  0.16981761  0.16953125  1
  Ni  Ni11  1  0.33679861  1.00066124  0.33382255  1
  Ni  Ni12  1  0.33775018  0.33792432  0.00281673  1
  Ni  Ni13  1  0.50290016  0.50221223  0.17016218  1
  Ni  Ni14  1  0.33566261  0.33750819  0.33303081  1
  Ni  Ni15  1  0.33623926  0.66678487  0.00309680  1
  Fe  Fe16  1  0.50103691  0.83554482  0.16910310  1
  Ni  Ni17  1  0.33577781  0.66804871  0.33622465  1
  Ni  Ni18  1  0.66917936  0.00302497  0.00324294  1
  Ni  Ni19  1  0.83352354  0.16917724  0.16882998  1
  Fe  Fe20  1  0.66853995  1.00137096  0.33368743  1
  Ni  Ni21  1  0.66669361  0.33351417  1.00149496  1
  Fe  Fe22  1  0.83545424  0.50127865  0.16955117  1
  Ni  Ni23  1  0.66962739  0.33658775  0.33620526  1
  Fe  Fe24  1  0.66705788  0.66839832  0.00372589  1
  Ni  Ni25  1  0.83477459  0.83353052  0.16777972  1
  Ni  Ni26  1  0.66851183  0.66838861  0.33483750  1
  Cr  Cr27  1  0.16928163  0.17128478  0.50289034  1
  Ni  Ni28  1  0.99864907  1.00165920  0.66839178  1
  Cr  Cr29  1  0.16834833  0.17044412  0.83666891  1
  Ni  Ni30  1  0.16734950  0.50424174  0.50209749  1
  Ni  Ni31  1  0.00266963  0.33634020  0.66818989  1
  Ni  Ni32  1  0.16954991  0.50338224  0.83595706  1
  Fe  Fe33  1  0.16946176  0.83421863  0.50216745  1
  Ni  Ni34  1  1.00177265  0.66879301  0.66641688  1
  Cr  Cr35  1  0.16899731  0.83262801  0.83469836  1
  Cr  Cr36  1  0.50273888  0.16865597  0.50087355  1
  Fe  Fe37  1  0.33583991  0.99934284  0.66897520  1
  Ni  Ni38  1  0.50351402  0.16910100  0.83574051  1
  Fe  Fe39  1  0.50262458  0.50270202  0.50122416  1
  Ni  Ni40  1  0.33659380  0.33986508  0.67068322  1
  Ni  Ni41  1  0.50227659  0.50371434  0.83397624  1
  Ni  Ni42  1  0.50190982  0.83284992  0.49972373  1
  Ni  Ni43  1  0.33723053  0.66607828  0.66699246  1
  Ni  Ni44  1  0.50263043  0.83419062  0.83822998  1
  Ni  Ni45  1  0.83547073  0.17227143  0.50220378  1
  Cr  Cr46  1  0.67005927  1.00147906  0.66984786  1
  Ni  Ni47  1  0.83469164  0.16932964  0.83600925  1
  Ni  Ni48  1  0.83611572  0.50330467  0.50084248  1
  Fe  Fe49  1  0.67052851  0.33882819  0.66898072  1
  Cr  Cr50  1  0.83760431  0.50280002  0.83807433  1
  Fe  Fe51  1  0.83472310  0.83339413  0.50119459  1
  Ni  Ni52  1  0.66751442  0.67003213  0.66871845  1
  Fe  Fe53  1  0.83475539  0.83503942  0.83785305  1
" 