6322,Ni69Fe19Cr10_11,-236.891346556475, 196.352000259361,Ni69Fe19Cr10,"# generated using pymatgen
 data_Cr7Fe10Ni37
_symmetry_space_group_name_H-M   'P 1'
_cell_length_a   7.44015078
_cell_length_b   7.44015078
_cell_length_c   10.52196214
_cell_angle_alpha   90.00000000
_cell_angle_beta   90.00000000
_cell_angle_gamma   90.00000000
_symmetry_Int_Tables_number   1
_chemical_formula_structural   Cr7Fe10Ni37
_chemical_formula_sum   'Cr7 Fe10 Ni37'
_cell_volume   582.45209040
_cell_formula_units_Z   1
loop_
 _symmetry_equiv_pos_site_id
 _symmetry_equiv_pos_as_xyz
  1  'x, y, z'
loop_
 _atom_site_type_symbol
 _atom_site_label
 _atom_site_symmetry_multiplicity
 _atom_site_fract_x
 _atom_site_fract_y
 _atom_site_fract_z
 _atom_site_occupancy
  Ni  Ni0  1  1.00095025  0.00194016  0.00215962  1
  Ni  Ni1  1  0.16929206  0.16842223  0.16860140  1
  Cr  Cr2  1  0.00371098  0.00221330  0.33533872  1
  Ni  Ni3  1  1.00104990  0.33350268  0.00183187  1
  Cr  Cr4  1  0.16930959  0.50169249  0.16915440  1
  Ni  Ni5  1  0.00195259  0.33572056  0.33504184  1
  Ni  Ni6  1  0.00314569  0.66998176  1.00095432  1
  Ni  Ni7  1  0.16873731  0.83480856  0.16753570  1
  Ni  Ni8  1  1.00116112  0.66844729  0.33527617  1
  Fe  Fe9  1  0.33476759  0.00263279  0.00243162  1
  Ni  Ni10  1  0.50094176  0.16897960  0.16717069  1
  Ni  Ni11  1  0.33495775  1.00103036  0.33499674  1
  Ni  Ni12  1  0.33579220  0.33481922  1.00122574  1
  Ni  Ni13  1  0.50092718  0.50186379  0.16809306  1
  Ni  Ni14  1  0.33418569  0.33330758  0.33469585  1
  Ni  Ni15  1  0.33391757  0.66889877  1.00111588  1
  Ni  Ni16  1  0.50117182  0.83457895  0.16962573  1
  Ni  Ni17  1  0.33519416  0.67108597  0.33416387  1
  Ni  Ni18  1  0.66966621  0.00380572  0.00210856  1
  Ni  Ni19  1  0.83518773  0.16817630  0.16524477  1
  Cr  Cr20  1  0.66673282  1.00088758  0.33513832  1
  Ni  Ni21  1  0.66858294  0.33261582  1.00178165  1
  Fe  Fe22  1  0.83536515  0.50155408  0.16795455  1
  Cr  Cr23  1  0.66946023  0.33500245  0.33399631  1
  Cr  Cr24  1  0.66816345  0.66851688  0.00301401  1
  Ni  Ni25  1  0.83551195  0.83482236  0.16770638  1
  Fe  Fe26  1  0.66891477  0.66921912  0.33430035  1
  Ni  Ni27  1  0.16956764  0.16801830  0.50191935  1
  Fe  Fe28  1  1.00155811  0.00248206  0.66838306  1
  Ni  Ni29  1  0.16923002  0.17013278  0.83490266  1
  Cr  Cr30  1  0.16842460  0.50140988  0.50112279  1
  Ni  Ni31  1  1.00065077  0.33416149  0.66854705  1
  Ni  Ni32  1  0.16894729  0.50200311  0.83500159  1
  Ni  Ni33  1  0.16823846  0.83534859  0.50239786  1
  Fe  Fe34  1  1.00075365  0.66893983  0.66934673  1
  Fe  Fe35  1  0.16778163  0.83516484  0.83542075  1
  Ni  Ni36  1  0.50058665  0.16746260  0.50312817  1
  Ni  Ni37  1  0.33554566  1.00141399  0.66750022  1
  Ni  Ni38  1  0.50208193  0.16902303  0.83511859  1
  Cr  Cr39  1  0.50105324  0.50149734  0.50269651  1
  Ni  Ni40  1  0.33464286  0.33352687  0.66950060  1
  Fe  Fe41  1  0.50126988  0.49997474  0.83444691  1
  Fe  Fe42  1  0.50044136  0.83713633  0.50260931  1
  Ni  Ni43  1  0.33542287  0.67048996  0.67014695  1
  Fe  Fe44  1  0.50166818  0.83628435  0.83424388  1
  Ni  Ni45  1  0.83526911  0.16783122  0.50496332  1
  Ni  Ni46  1  0.66849269  1.00162788  0.66803654  1
  Ni  Ni47  1  0.83411047  0.16799064  0.83521614  1
  Fe  Fe48  1  0.83663877  0.50174474  0.50312929  1
  Ni  Ni49  1  0.67013332  0.33404084  0.66942525  1
  Ni  Ni50  1  0.83654111  0.50199404  0.83394055  1
  Ni  Ni51  1  0.83524495  0.83418730  0.50329007  1
  Ni  Ni52  1  0.66913199  0.66975636  0.66808491  1
  Ni  Ni53  1  0.83542983  0.83543800  0.83443036  1
" 