3111,Ni69Fe19Cr10_6,-236.890253972479, 195.337792814961,Ni69Fe19Cr10,"# generated using pymatgen
 data_Cr7Fe10Ni37
_symmetry_space_group_name_H-M   'P 1'
_cell_length_a   7.43792249
_cell_length_b   7.43792249
_cell_length_c   10.51881086
_cell_angle_alpha   90.00000000
_cell_angle_beta   90.00000000
_cell_angle_gamma   90.00000000
_symmetry_Int_Tables_number   1
_chemical_formula_structural   Cr7Fe10Ni37
_chemical_formula_sum   'Cr7 Fe10 Ni37'
_cell_volume   581.92892221
_cell_formula_units_Z   1
loop_
 _symmetry_equiv_pos_site_id
 _symmetry_equiv_pos_as_xyz
  1  'x, y, z'
loop_
 _atom_site_type_symbol
 _atom_site_label
 _atom_site_symmetry_multiplicity
 _atom_site_fract_x
 _atom_site_fract_y
 _atom_site_fract_z
 _atom_site_occupancy
  Ni  Ni0  1  1.00151405  0.00205318  1.00018836  1
  Cr  Cr1  1  0.16602287  0.16790646  0.16721210  1
  Ni  Ni2  1  1.00190448  1.00152658  0.33751012  1
  Fe  Fe3  1  1.00162162  0.33293665  0.99978681  1
  Fe  Fe4  1  0.17006748  0.50354686  0.16939964  1
  Fe  Fe5  1  1.00082409  0.33540304  0.33764067  1
  Cr  Cr6  1  0.00367450  0.66872855  1.00049734  1
  Ni  Ni7  1  0.17111251  0.83536332  0.17041417  1
  Ni  Ni8  1  0.00317445  0.66752605  0.33692720  1
  Ni  Ni9  1  0.33649356  1.00120497  1.00096735  1
  Fe  Fe10  1  0.50343362  0.16664465  0.16806430  1
  Ni  Ni11  1  0.33569147  0.00226466  0.33471857  1
  Ni  Ni12  1  0.33760055  0.33575558  0.00254609  1
  Ni  Ni13  1  0.50134755  0.50314062  0.16931159  1
  Fe  Fe14  1  0.33666056  0.33591809  0.33645022  1
  Ni  Ni15  1  0.33420675  0.66878422  0.00352441  1
  Ni  Ni16  1  0.50049504  0.83261066  0.16747269  1
  Ni  Ni17  1  0.33378633  0.66718232  0.33387730  1
  Ni  Ni18  1  0.66783023  0.00551262  1.00129206  1
  Ni  Ni19  1  0.83568521  0.17031249  0.16895043  1
  Ni  Ni20  1  0.66842818  0.00509899  0.33506415  1
  Ni  Ni21  1  0.66890393  0.33345094  0.00393836  1
  Fe  Fe22  1  0.83421728  0.50058886  0.17042905  1
  Fe  Fe23  1  0.66823449  0.33537185  0.33557521  1
  Fe  Fe24  1  0.66523738  0.66963280  0.00211734  1
  Cr  Cr25  1  0.83415407  0.83876591  0.17010288  1
  Ni  Ni26  1  0.66890003  0.66602734  0.33460884  1
  Ni  Ni27  1  0.16868375  0.17092376  0.50203664  1
  Cr  Cr28  1  1.00191625  0.00294087  0.66806033  1
  Ni  Ni29  1  0.16864874  0.17041539  0.83625820  1
  Ni  Ni30  1  0.17004179  0.49940541  0.50066638  1
  Ni  Ni31  1  1.00172157  0.33600618  0.66955388  1
  Ni  Ni32  1  0.16998730  0.49890202  0.83614794  1
  Fe  Fe33  1  0.16944890  0.83549745  0.49952352  1
  Cr  Cr34  1  0.00262087  0.66734212  0.66764061  1
  Ni  Ni35  1  0.17139027  0.83631401  0.83618687  1
  Ni  Ni36  1  0.50128341  0.17044917  0.50136151  1
  Ni  Ni37  1  0.33695079  0.00414300  0.67038909  1
  Ni  Ni38  1  0.50196650  0.16772961  0.83582095  1
  Ni  Ni39  1  0.50129757  0.50145682  0.50239365  1
  Ni  Ni40  1  0.33510010  0.33405404  0.66701372  1
  Cr  Cr41  1  0.50059489  0.50259953  0.83246406  1
  Cr  Cr42  1  0.50380703  0.83367325  0.50341275  1
  Ni  Ni43  1  0.33416425  0.66783829  0.66853214  1
  Ni  Ni44  1  0.50258067  0.83582025  0.83611736  1
  Ni  Ni45  1  0.83590015  0.16887773  0.50078966  1
  Ni  Ni46  1  0.66754593  0.00454241  0.66959488  1
  Ni  Ni47  1  0.83550726  0.16848452  0.83644722  1
  Ni  Ni48  1  0.83447452  0.50154795  0.50136812  1
  Ni  Ni49  1  0.66904776  0.33333847  0.66626637  1
  Fe  Fe50  1  0.83478150  0.49942326  0.83418878  1
  Ni  Ni51  1  0.83389204  0.83538376  0.49943344  1
  Ni  Ni52  1  0.66955492  0.66787919  0.66922906  1
  Ni  Ni53  1  0.83159453  0.83747875  0.83624116  1
" 