2464,Ni69Fe19Cr10_3,-236.785601308157, 194.240491550526,Ni69Fe19Cr10,"# generated using pymatgen
 data_Cr7Fe10Ni37
_symmetry_space_group_name_H-M   'P 1'
_cell_length_a   7.43960140
_cell_length_b   7.43960140
_cell_length_c   10.52118520
_cell_angle_alpha   90.00000000
_cell_angle_beta   90.00000000
_cell_angle_gamma   90.00000000
_symmetry_Int_Tables_number   1
_chemical_formula_structural   Cr7Fe10Ni37
_chemical_formula_sum   'Cr7 Fe10 Ni37'
_cell_volume   582.32307601
_cell_formula_units_Z   1
loop_
 _symmetry_equiv_pos_site_id
 _symmetry_equiv_pos_as_xyz
  1  'x, y, z'
loop_
 _atom_site_type_symbol
 _atom_site_label
 _atom_site_symmetry_multiplicity
 _atom_site_fract_x
 _atom_site_fract_y
 _atom_site_fract_z
 _atom_site_occupancy
  Cr  Cr0  1  0.00310971  1.00087827  1.00110255  1
  Ni  Ni1  1  0.16987802  0.16780105  0.16981752  1
  Ni  Ni2  1  0.00285840  0.00265948  0.33594714  1
  Cr  Cr3  1  1.00089312  0.33660990  0.00247240  1
  Ni  Ni4  1  0.16881018  0.50344975  0.16917844  1
  Ni  Ni5  1  0.00388463  0.33465518  0.33500001  1
  Ni  Ni6  1  0.00234677  0.66829532  1.00121461  1
  Ni  Ni7  1  0.16905501  0.83428490  0.16871979  1
  Ni  Ni8  1  0.00239043  0.66821846  0.33510757  1
  Ni  Ni9  1  0.33541077  0.00208208  0.00265866  1
  Ni  Ni10  1  0.50172652  0.16764778  0.16693801  1
  Fe  Fe11  1  0.33457607  0.00186879  0.33503246  1
  Fe  Fe12  1  0.33716181  0.33610869  0.00194426  1
  Ni  Ni13  1  0.50151404  0.50232246  0.16687994  1
  Fe  Fe14  1  0.33331999  0.33511328  0.33536357  1
  Ni  Ni15  1  0.33481136  0.66874833  0.00223697  1
  Fe  Fe16  1  0.50156126  0.83499520  0.16854688  1
  Fe  Fe17  1  0.33459645  0.66855084  0.33551576  1
  Fe  Fe18  1  0.66772569  0.00260516  0.00219981  1
  Ni  Ni19  1  0.83393214  0.16789231  0.16937301  1
  Ni  Ni20  1  0.66828671  1.00045197  0.33493711  1
  Ni  Ni21  1  0.66702224  0.33591294  1.00083652  1
  Ni  Ni22  1  0.83520970  0.50314503  0.16799744  1
  Cr  Cr23  1  0.66942569  0.33571394  0.33660525  1
  Ni  Ni24  1  0.66837617  0.66638091  0.00279634  1
  Fe  Fe25  1  0.83496853  0.83402934  0.16969470  1
  Ni  Ni26  1  0.66828602  0.66996190  0.33541095  1
  Ni  Ni27  1  0.16764588  0.16754818  0.49927486  1
  Fe  Fe28  1  0.99951375  1.00000542  0.66811165  1
  Fe  Fe29  1  0.16906583  0.16784948  0.83608214  1
  Ni  Ni30  1  0.16871588  0.50366192  0.49987006  1
  Cr  Cr31  1  0.99986921  0.33493413  0.66820755  1
  Ni  Ni32  1  0.16924244  0.50523310  0.83648656  1
  Ni  Ni33  1  0.16789596  0.83432150  0.50186269  1
  Fe  Fe34  1  1.00136990  0.66988039  0.66871623  1
  Ni  Ni35  1  0.16667736  0.83289041  0.83494797  1
  Ni  Ni36  1  0.50315021  0.16755582  0.50149116  1
  Cr  Cr37  1  0.33446071  1.00038170  0.66742914  1
  Ni  Ni38  1  0.50431612  0.17034575  0.83710699  1
  Ni  Ni39  1  0.50181665  0.50339374  0.50282185  1
  Cr  Cr40  1  0.33671105  0.33671389  0.66899614  1
  Ni  Ni41  1  0.50225140  0.50023645  0.83583479  1
  Ni  Ni42  1  0.50262534  0.83458509  0.50087457  1
  Ni  Ni43  1  0.33489306  0.66846914  0.66753430  1
  Cr  Cr44  1  0.50204717  0.83462065  0.83611479  1
  Ni  Ni45  1  0.83473691  0.16673686  0.50211750  1
  Ni  Ni46  1  0.67054204  0.00245236  0.66795673  1
  Ni  Ni47  1  0.83197706  0.16778196  0.83404344  1
  Ni  Ni48  1  0.83500125  0.50314114  0.50212803  1
  Ni  Ni49  1  0.66918990  0.33533460  0.66866541  1
  Ni  Ni50  1  0.83404080  0.50279625  0.83540929  1
  Ni  Ni51  1  0.83500847  0.83565566  0.50207057  1
  Ni  Ni52  1  0.66873394  0.66774739  0.66732857  1
  Ni  Ni53  1  0.83697276  0.83495228  0.83459784  1
" 