5489,Ni69Fe20Cr9_10,-236.827339145281, 194.026524897406,Ni69Fe20Cr9,"# generated using pymatgen
 data_Cr7Fe10Ni37
_symmetry_space_group_name_H-M   'P 1'
_cell_length_a   7.43822483
_cell_length_b   7.43822483
_cell_length_c   10.51923844
_cell_angle_alpha   90.00000000
_cell_angle_beta   90.00000000
_cell_angle_gamma   90.00000000
_symmetry_Int_Tables_number   1
_chemical_formula_structural   Cr7Fe10Ni37
_chemical_formula_sum   'Cr7 Fe10 Ni37'
_cell_volume   581.99988973
_cell_formula_units_Z   1
loop_
 _symmetry_equiv_pos_site_id
 _symmetry_equiv_pos_as_xyz
  1  'x, y, z'
loop_
 _atom_site_type_symbol
 _atom_site_label
 _atom_site_symmetry_multiplicity
 _atom_site_fract_x
 _atom_site_fract_y
 _atom_site_fract_z
 _atom_site_occupancy
  Fe  Fe0  1  1.00001833  0.00448514  0.00327319  1
  Ni  Ni1  1  0.16665770  0.16970401  0.17077765  1
  Ni  Ni2  1  0.00219605  0.00300577  0.33466993  1
  Ni  Ni3  1  1.00185684  0.33602342  1.00077248  1
  Ni  Ni4  1  0.16868231  0.50209331  0.16843874  1
  Ni  Ni5  1  1.00147636  0.33409767  0.33535856  1
  Ni  Ni6  1  1.00156474  0.66616794  0.00330738  1
  Fe  Fe7  1  0.16780590  0.83351305  0.16995262  1
  Ni  Ni8  1  1.00014764  0.66870771  0.33370364  1
  Cr  Cr9  1  0.33643352  0.00312440  0.00269508  1
  Fe  Fe10  1  0.50286562  0.17057666  0.16920867  1
  Ni  Ni11  1  0.33509477  0.00196932  0.33383962  1
  Ni  Ni12  1  0.33461121  0.33611355  1.00115593  1
  Ni  Ni13  1  0.50129365  0.50343320  0.16878731  1
  Ni  Ni14  1  0.33503994  0.33436176  0.33373934  1
  Ni  Ni15  1  0.33588521  0.66706177  1.00148432  1
  Ni  Ni16  1  0.50244319  0.83394379  0.17006125  1
  Ni  Ni17  1  0.33740271  0.66948216  0.33429978  1
  Ni  Ni18  1  0.66845103  0.00234828  1.00137342  1
  Ni  Ni19  1  0.83591117  0.16854868  0.16811147  1
  Ni  Ni20  1  0.66852145  1.00064047  0.33546742  1
  Ni  Ni21  1  0.66934465  0.33517716  1.00137618  1
  Ni  Ni22  1  0.83583639  0.50129655  0.16940607  1
  Ni  Ni23  1  0.66929504  0.33640962  0.33457193  1
  Ni  Ni24  1  0.66836416  0.66828776  0.00248978  1
  Fe  Fe25  1  0.83511262  0.83452994  0.16866208  1
  Ni  Ni26  1  0.66825747  0.66876220  0.33575985  1
  Fe  Fe27  1  0.16679942  0.16939889  0.50102984  1
  Ni  Ni28  1  1.00089756  0.00439047  0.66815562  1
  Ni  Ni29  1  0.16699837  0.17278333  0.83366109  1
  Cr  Cr30  1  0.16905891  0.50102907  0.50163960  1
  Ni  Ni31  1  1.00128988  0.33420244  0.66968220  1
  Ni  Ni32  1  0.16841328  0.50029023  0.83540524  1
  Cr  Cr33  1  0.16840884  0.83481564  0.50080677  1
  Ni  Ni34  1  0.99910351  0.66722014  0.66880554  1
  Cr  Cr35  1  0.16887549  0.83229967  0.83595268  1
  Cr  Cr36  1  0.50412119  0.16943399  0.49936782  1
  Cr  Cr37  1  0.33542908  0.00343289  0.66950414  1
  Ni  Ni38  1  0.50406858  0.16962201  0.83590688  1
  Ni  Ni39  1  0.50304414  0.50419992  0.50220752  1
  Ni  Ni40  1  0.33495440  0.33545407  0.67091551  1
  Fe  Fe41  1  0.50209901  0.50091702  0.83533366  1
  Ni  Ni42  1  0.50415449  0.83265898  0.50149800  1
  Fe  Fe43  1  0.33744697  0.66559911  0.66921478  1
  Ni  Ni44  1  0.50333923  0.83430877  0.83425220  1
  Ni  Ni45  1  0.83639992  0.16814332  0.50253185  1
  Fe  Fe46  1  0.67076083  0.00261409  0.66894487  1
  Ni  Ni47  1  0.83474503  0.17052450  0.83516969  1
  Fe  Fe48  1  0.83272006  0.50207756  0.50211774  1
  Ni  Ni49  1  0.66956946  0.33724437  0.66986404  1
  Ni  Ni50  1  0.83632495  0.49956803  0.83470889  1
  Fe  Fe51  1  0.83322880  0.83506660  0.50200364  1
  Ni  Ni52  1  0.66834474  0.66758773  0.66756642  1
  Cr  Cr53  1  0.83345794  0.83587562  0.83563381  1
" 