3031,Ni69Fe24Cr5_12,-239.565749082925, 205.423523414123,Ni69Fe24Cr5,"# generated using pymatgen
 data_Cr4Fe13Ni37
_symmetry_space_group_name_H-M   'P 1'
_cell_length_a   7.42709116
_cell_length_b   7.42709116
_cell_length_c   10.50349304
_cell_angle_alpha   90.00000000
_cell_angle_beta   90.00000000
_cell_angle_gamma   90.00000000
_symmetry_Int_Tables_number   1
_chemical_formula_structural   Cr4Fe13Ni37
_chemical_formula_sum   'Cr4 Fe13 Ni37'
_cell_volume   579.39035449
_cell_formula_units_Z   1
loop_
 _symmetry_equiv_pos_site_id
 _symmetry_equiv_pos_as_xyz
  1  'x, y, z'
loop_
 _atom_site_type_symbol
 _atom_site_label
 _atom_site_symmetry_multiplicity
 _atom_site_fract_x
 _atom_site_fract_y
 _atom_site_fract_z
 _atom_site_occupancy
  Ni  Ni0  1  1.00255607  0.00329993  0.00348713  1
  Ni  Ni1  1  0.16999034  0.16874110  0.16903398  1
  Ni  Ni2  1  0.00295518  0.00286477  0.33642947  1
  Ni  Ni3  1  1.00231765  0.33530461  1.00231868  1
  Fe  Fe4  1  0.17066842  0.50184245  0.16765131  1
  Cr  Cr5  1  1.00261296  0.33257009  0.33629602  1
  Fe  Fe6  1  1.00233025  0.66945346  1.00184831  1
  Fe  Fe7  1  0.16998279  0.83853774  0.16896311  1
  Cr  Cr8  1  0.00426547  0.67206572  0.33585325  1
  Ni  Ni9  1  0.33541356  1.00226159  1.00201588  1
  Ni  Ni10  1  0.50247775  0.16985667  0.16923021  1
  Ni  Ni11  1  0.33566255  1.00183012  0.33671707  1
  Ni  Ni12  1  0.33575405  0.33645056  0.00368849  1
  Fe  Fe13  1  0.50327410  0.50178418  0.16907576  1
  Fe  Fe14  1  0.33716916  0.33536092  0.33649555  1
  Ni  Ni15  1  0.33649132  0.66936131  1.00234523  1
  Fe  Fe16  1  0.50267880  0.83731190  0.16897046  1
  Ni  Ni17  1  0.33777481  0.66998098  0.33710021  1
  Ni  Ni18  1  0.67010014  1.00256317  0.00279084  1
  Ni  Ni19  1  0.83559988  0.16825863  0.16891008  1
  Fe  Fe20  1  0.66927815  0.00301868  0.33606456  1
  Ni  Ni21  1  0.66999854  0.33638371  1.00221871  1
  Fe  Fe22  1  0.83412794  0.50132329  0.16741241  1
  Ni  Ni23  1  0.66723098  0.33511247  0.33562031  1
  Ni  Ni24  1  0.66895558  0.66912181  0.00295921  1
  Ni  Ni25  1  0.83531716  0.83666633  0.16917214  1
  Fe  Fe26  1  0.66683687  0.67054630  0.33510762  1
  Ni  Ni27  1  0.16970908  0.16817224  0.50259787  1
  Ni  Ni28  1  1.00207678  1.00227749  0.66815515  1
  Ni  Ni29  1  0.16874051  0.16940520  0.83643996  1
  Ni  Ni30  1  0.17272032  0.50344234  0.50432020  1
  Fe  Fe31  1  0.00343762  0.33534621  0.67048177  1
  Ni  Ni32  1  0.16964739  0.50291436  0.83582952  1
  Ni  Ni33  1  0.17074855  0.83645417  0.50298579  1
  Ni  Ni34  1  0.00582055  0.67088999  0.67016609  1
  Ni  Ni35  1  0.16978562  0.83575007  0.83659997  1
  Ni  Ni36  1  0.50305951  0.16932969  0.50262054  1
  Fe  Fe37  1  0.33603561  1.00228058  0.66896567  1
  Fe  Fe38  1  0.50298652  0.16964095  0.83624273  1
  Ni  Ni39  1  0.50032613  0.50256630  0.50090639  1
  Ni  Ni40  1  0.33636042  0.33714448  0.66804429  1
  Ni  Ni41  1  0.50217060  0.50288438  0.83691314  1
  Ni  Ni42  1  0.50114686  0.83617405  0.50091710  1
  Ni  Ni43  1  0.33373917  0.66823671  0.66861858  1
  Ni  Ni44  1  0.50200337  0.83574878  0.83765692  1
  Ni  Ni45  1  0.83530178  0.16735453  0.50266311  1
  Ni  Ni46  1  0.67074864  0.00489726  0.66863093  1
  Ni  Ni47  1  0.83625336  0.16957460  0.83649506  1
  Cr  Cr48  1  0.83521521  0.50152856  0.50405066  1
  Ni  Ni49  1  0.66809511  0.33339976  0.67023123  1
  Ni  Ni50  1  0.83625177  0.50184187  0.83778805  1
  Fe  Fe51  1  0.83661159  0.83970005  0.50300994  1
  Cr  Cr52  1  0.66816015  0.66977360  0.66967180  1
  Ni  Ni53  1  0.83628257  0.83665452  0.83647683  1
" 