808,Ni69Cr31_14,-211.233085081773, 137.472395345003,Ni69Cr31,"# generated using pymatgen
 data_Cr37Ni17
_symmetry_space_group_name_H-M   'P 1'
_cell_length_a   7.56668696
_cell_length_b   7.56668696
_cell_length_c   10.70091132
_cell_angle_alpha   90.00000000
_cell_angle_beta   90.00000000
_cell_angle_gamma   90.00000000
_symmetry_Int_Tables_number   1
_chemical_formula_structural   Cr37Ni17
_chemical_formula_sum   'Cr37 Ni17'
_cell_volume   612.67801934
_cell_formula_units_Z   1
loop_
 _symmetry_equiv_pos_site_id
 _symmetry_equiv_pos_as_xyz
  1  'x, y, z'
loop_
 _atom_site_type_symbol
 _atom_site_label
 _atom_site_symmetry_multiplicity
 _atom_site_fract_x
 _atom_site_fract_y
 _atom_site_fract_z
 _atom_site_occupancy
  Cr  Cr0  1  0.98766546  0.99286244  -0.00510118  1
  Cr  Cr1  1  0.15966471  0.15900735  0.16025522  1
  Ni  Ni2  1  0.99227021  -0.00608275  0.32585950  1
  Cr  Cr3  1  -0.00641723  0.32676164  -0.00632163  1
  Ni  Ni4  1  0.16145388  0.49360184  0.15978764  1
  Cr  Cr5  1  -0.00460359  0.32451176  0.32637816  1
  Cr  Cr6  1  -0.00587692  0.66046133  0.99218862  1
  Cr  Cr7  1  0.16041620  0.82855147  0.16046510  1
  Cr  Cr8  1  -0.00644507  0.66173503  0.32604112  1
  Cr  Cr9  1  0.33119971  0.99068527  0.99178241  1
  Cr  Cr10  1  0.49393699  0.16020451  0.15925545  1
  Cr  Cr11  1  0.32670292  -0.00624550  0.32914365  1
  Cr  Cr12  1  0.32687368  0.33077088  0.99327970  1
  Ni  Ni13  1  0.49331366  0.49593336  0.16110635  1
  Cr  Cr14  1  0.32578706  0.32783132  0.32768515  1
  Cr  Cr15  1  0.32801004  0.65867718  -0.00532060  1
  Ni  Ni16  1  0.49696766  0.82429006  0.16116199  1
  Cr  Cr17  1  0.32849632  0.65917579  0.32317804  1
  Cr  Cr18  1  0.66142704  0.99188324  0.99178548  1
  Ni  Ni19  1  0.82701110  0.15707224  0.16116977  1
  Cr  Cr20  1  0.66137925  0.99169763  0.32538889  1
  Cr  Cr21  1  0.65966217  0.32478191  0.99143330  1
  Cr  Cr22  1  0.82452521  0.49290839  0.16184044  1
  Cr  Cr23  1  0.65860348  0.32600302  0.32714265  1
  Cr  Cr24  1  0.65824661  0.66342349  -0.00614491  1
  Ni  Ni25  1  0.82479477  0.82803678  0.16243948  1
  Ni  Ni26  1  0.65964635  0.66153915  0.32333082  1
  Ni  Ni27  1  0.16186925  0.15776999  0.49330314  1
  Cr  Cr28  1  0.99179555  -0.00655869  0.65972436  1
  Cr  Cr29  1  0.16168576  0.15908837  0.82732110  1
  Cr  Cr30  1  0.15853099  0.49453345  0.49508366  1
  Cr  Cr31  1  -0.00535077  0.32676390  0.66035216  1
  Ni  Ni32  1  0.16142690  0.49421122  0.82573029  1
  Cr  Cr33  1  0.15983972  0.82924949  0.49555960  1
  Ni  Ni34  1  -0.00651997  0.66085808  0.66271290  1
  Cr  Cr35  1  0.16043956  0.82731068  0.82485317  1
  Ni  Ni36  1  0.49022304  0.15868042  0.49510112  1
  Ni  Ni37  1  0.32863924  -0.00458223  0.66002059  1
  Ni  Ni38  1  0.49398351  0.15929300  0.82515264  1
  Cr  Cr39  1  0.49660972  0.49367375  0.49147884  1
  Cr  Cr40  1  0.32752342  0.32568668  0.65918300  1
  Ni  Ni41  1  0.49195777  0.49340050  0.82699609  1
  Cr  Cr42  1  0.49335621  0.82727170  0.49313609  1
  Cr  Cr43  1  0.32670446  0.66031364  0.66238951  1
  Ni  Ni44  1  0.49427254  0.82769059  0.82585684  1
  Cr  Cr45  1  0.82648385  0.16022233  0.49199706  1
  Cr  Cr46  1  0.65837977  -0.00597639  0.66294056  1
  Ni  Ni47  1  0.82495859  0.15810594  0.82714901  1
  Cr  Cr48  1  0.82534836  0.49566507  0.49433720  1
  Cr  Cr49  1  0.65835419  0.32390684  0.66109735  1
  Cr  Cr50  1  0.82666770  0.49375716  0.82396339  1
  Cr  Cr51  1  0.82698799  0.82429872  0.49254692  1
  Cr  Cr52  1  0.65989436  0.66238101  0.66162406  1
  Ni  Ni53  1  0.82568630  0.82736558  0.82563841  1
" 