5927,Ni69Fe19Cr10_4,-236.795223195179, 192.686123789017,Ni69Fe19Cr10,"# generated using pymatgen
 data_Cr7Fe10Ni37
_symmetry_space_group_name_H-M   'P 1'
_cell_length_a   7.43852131
_cell_length_b   7.43852131
_cell_length_c   10.51965772
_cell_angle_alpha   90.00000000
_cell_angle_beta   90.00000000
_cell_angle_gamma   90.00000000
_symmetry_Int_Tables_number   1
_chemical_formula_structural   Cr7Fe10Ni37
_chemical_formula_sum   'Cr7 Fe10 Ni37'
_cell_volume   582.06948467
_cell_formula_units_Z   1
loop_
 _symmetry_equiv_pos_site_id
 _symmetry_equiv_pos_as_xyz
  1  'x, y, z'
loop_
 _atom_site_type_symbol
 _atom_site_label
 _atom_site_symmetry_multiplicity
 _atom_site_fract_x
 _atom_site_fract_y
 _atom_site_fract_z
 _atom_site_occupancy
  Fe  Fe0  1  1.00126946  0.00477849  0.00374446  1
  Ni  Ni1  1  0.16821949  0.16789840  0.16982592  1
  Ni  Ni2  1  1.00138483  0.00233602  0.33400166  1
  Ni  Ni3  1  0.00223191  0.33299694  0.00215944  1
  Ni  Ni4  1  0.16722692  0.50181954  0.16998618  1
  Ni  Ni5  1  0.00298848  0.33502305  0.33431763  1
  Cr  Cr6  1  0.00210508  0.66719715  0.00460590  1
  Ni  Ni7  1  0.16977115  0.83614880  0.16884563  1
  Ni  Ni8  1  1.00156736  0.66853562  0.33570440  1
  Fe  Fe9  1  0.33653376  0.00215673  0.00318182  1
  Ni  Ni10  1  0.50274753  0.16737689  0.16998244  1
  Ni  Ni11  1  0.33486835  1.00128592  0.33440145  1
  Cr  Cr12  1  0.33403344  0.33504940  1.00169365  1
  Fe  Fe13  1  0.50260075  0.50194355  0.16926407  1
  Ni  Ni14  1  0.33196120  0.33488630  0.33370389  1
  Fe  Fe15  1  0.33733531  0.66740840  0.00240260  1
  Ni  Ni16  1  0.50167803  0.83601036  0.16796216  1
  Ni  Ni17  1  0.33469356  0.66953007  0.33284861  1
  Fe  Fe18  1  0.66789800  0.00312833  0.00342116  1
  Ni  Ni19  1  0.83504949  0.16970775  0.16771150  1
  Ni  Ni20  1  0.66954629  0.99993495  0.33434134  1
  Ni  Ni21  1  0.66867621  0.33509992  0.00282040  1
  Ni  Ni22  1  0.83476547  0.50090189  0.16943011  1
  Fe  Fe23  1  0.67076037  0.33442484  0.33407096  1
  Ni  Ni24  1  0.66614538  0.66964113  0.00348113  1
  Ni  Ni25  1  0.83452760  0.83563971  0.16978331  1
  Ni  Ni26  1  0.66962682  0.67096876  0.33381094  1
  Ni  Ni27  1  0.16693606  0.16802960  0.50146504  1
  Ni  Ni28  1  1.00188754  0.00458709  0.66732033  1
  Ni  Ni29  1  0.16760055  0.16856085  0.83435637  1
  Ni  Ni30  1  0.16707491  0.50185090  0.50291541  1
  Ni  Ni31  1  0.00346055  0.33324221  0.66877463  1
  Ni  Ni32  1  0.16968304  0.49981615  0.83292242  1
  Ni  Ni33  1  0.16997141  0.83577581  0.50187314  1
  Fe  Fe34  1  0.00279958  0.66824295  0.66600318  1
  Cr  Cr35  1  0.17040806  0.83648074  0.83529059  1
  Cr  Cr36  1  0.50122243  0.16661321  0.50179906  1
  Ni  Ni37  1  0.33508542  1.00188285  0.66897740  1
  Fe  Fe38  1  0.50207994  0.16850723  0.83436585  1
  Cr  Cr39  1  0.50190374  0.50284040  0.50050208  1
  Ni  Ni40  1  0.33321501  0.33524412  0.67030941  1
  Ni  Ni41  1  0.50271906  0.50291706  0.83506808  1
  Ni  Ni42  1  0.50105366  0.83535898  0.50247995  1
  Ni  Ni43  1  0.33663279  0.66845521  0.67011020  1
  Ni  Ni44  1  0.50213914  0.83552935  0.83562499  1
  Ni  Ni45  1  0.83660537  0.16948397  0.50257417  1
  Ni  Ni46  1  0.66871472  1.00108872  0.66928433  1
  Fe  Fe47  1  0.83554435  0.16883017  0.83495184  1
  Ni  Ni48  1  0.83648040  0.50094976  0.50232733  1
  Ni  Ni49  1  0.66920325  0.33460019  0.66969337  1
  Cr  Cr50  1  0.83495158  0.50015179  0.83392504  1
  Fe  Fe51  1  0.83549984  0.83597978  0.50125462  1
  Ni  Ni52  1  0.66680543  0.67002984  0.66770539  1
  Cr  Cr53  1  0.83365336  0.83666560  0.83416647  1
" 