6857,Ni69Cr31_4,-211.607096413536, 148.134332090542,Ni69Cr31,"# generated using pymatgen
 data_Cr37Ni17
_symmetry_space_group_name_H-M   'P 1'
_cell_length_a   7.55487849
_cell_length_b   7.55487849
_cell_length_c   10.68421162
_cell_angle_alpha   90.00000000
_cell_angle_beta   90.00000000
_cell_angle_gamma   90.00000000
_symmetry_Int_Tables_number   1
_chemical_formula_structural   Cr37Ni17
_chemical_formula_sum   'Cr37 Ni17'
_cell_volume   609.81408163
_cell_formula_units_Z   1
loop_
 _symmetry_equiv_pos_site_id
 _symmetry_equiv_pos_as_xyz
  1  'x, y, z'
loop_
 _atom_site_type_symbol
 _atom_site_label
 _atom_site_symmetry_multiplicity
 _atom_site_fract_x
 _atom_site_fract_y
 _atom_site_fract_z
 _atom_site_occupancy
  Ni  Ni0  1  0.99390269  0.99213819  0.99398044  1
  Cr  Cr1  1  0.16301675  0.16113479  0.16049517  1
  Cr  Cr2  1  0.99197536  0.99368707  0.32836183  1
  Cr  Cr3  1  -0.00488439  0.32783295  0.99229538  1
  Cr  Cr4  1  0.16115636  0.49451536  0.16229969  1
  Cr  Cr5  1  -0.00492128  0.32769553  0.32903935  1
  Ni  Ni6  1  -0.00494275  0.66193482  0.99330705  1
  Cr  Cr7  1  0.15938818  0.82687445  0.16047343  1
  Ni  Ni8  1  0.99412854  0.66079549  0.32705834  1
  Cr  Cr9  1  0.32722773  0.99378785  -0.00428717  1
  Ni  Ni10  1  0.49417098  0.16083947  0.16291772  1
  Cr  Cr11  1  0.33052937  -0.00404222  0.32630151  1
  Cr  Cr12  1  0.32780601  0.32848859  -0.00419903  1
  Ni  Ni13  1  0.49315402  0.49306051  0.16178473  1
  Ni  Ni14  1  0.33184524  0.32767617  0.32695708  1
  Cr  Cr15  1  0.32711691  0.66028706  -0.00558251  1
  Ni  Ni16  1  0.49535954  0.82868804  0.16146878  1
  Cr  Cr17  1  0.32820941  0.65878686  0.32664700  1
  Cr  Cr18  1  0.66082876  0.99385452  -0.00392938  1
  Cr  Cr19  1  0.82594640  0.15940130  0.16023129  1
  Ni  Ni20  1  0.65888216  -0.00369316  0.32716646  1
  Cr  Cr21  1  0.65966074  0.32778046  -0.00514255  1
  Cr  Cr22  1  0.82773047  0.49624874  0.16043619  1
  Cr  Cr23  1  0.65777777  0.32550960  0.32893333  1
  Cr  Cr24  1  0.66022678  0.66091771  -0.00457028  1
  Cr  Cr25  1  0.82774430  0.82691959  0.16081871  1
  Cr  Cr26  1  0.65980567  0.66177578  0.32651775  1
  Cr  Cr27  1  0.16159066  0.16088381  0.49541663  1
  Ni  Ni28  1  -0.00459179  -0.00492665  0.66034247  1
  Cr  Cr29  1  0.15997748  0.16056133  0.82667534  1
  Cr  Cr30  1  0.16145900  0.49504585  0.49417160  1
  Ni  Ni31  1  -0.00546261  0.32742877  0.66128830  1
  Ni  Ni32  1  0.15856928  0.49632815  0.82574528  1
  Cr  Cr33  1  0.16023281  0.82659842  0.49665615  1
  Ni  Ni34  1  -0.00239679  0.66006471  0.66218214  1
  Cr  Cr35  1  0.15993507  0.82664957  0.82545448  1
  Ni  Ni36  1  0.49550913  0.16187968  0.49276892  1
  Ni  Ni37  1  0.32611028  0.99296027  0.66017968  1
  Cr  Cr38  1  0.49321501  0.15996906  0.82725580  1
  Ni  Ni39  1  0.49253090  0.49171585  0.49402016  1
  Cr  Cr40  1  0.32661273  0.32871913  0.66026304  1
  Cr  Cr41  1  0.49249645  0.49476783  0.82663122  1
  Cr  Cr42  1  0.49322788  0.82846690  0.49598925  1
  Ni  Ni43  1  0.32507126  0.66093197  0.66119349  1
  Cr  Cr44  1  0.49255982  0.82784700  0.82539978  1
  Ni  Ni45  1  0.82613905  0.15996075  0.49549565  1
  Cr  Cr46  1  0.66125546  -0.00432123  0.65877829  1
  Cr  Cr47  1  0.82935984  0.16048155  0.82717104  1
  Cr  Cr48  1  0.82844012  0.49389386  0.49457735  1
  Cr  Cr49  1  0.66239036  0.32689892  0.65878876  1
  Cr  Cr50  1  0.83060289  0.49488514  0.82754800  1
  Cr  Cr51  1  0.82898951  0.82837301  0.49322488  1
  Cr  Cr52  1  0.65944752  0.65994548  0.66061786  1
  Cr  Cr53  1  0.82999260  0.82720101  0.82848977  1
" 