453,Ni69Fe19Cr10_9,-236.772652220015, 195.094787557917,Ni69Fe19Cr10,"# generated using pymatgen
 data_Cr7Fe10Ni37
_symmetry_space_group_name_H-M   'P 1'
_cell_length_a   7.44096032
_cell_length_b   7.44096032
_cell_length_c   10.52310700
_cell_angle_alpha   90.00000000
_cell_angle_beta   90.00000000
_cell_angle_gamma   90.00000000
_symmetry_Int_Tables_number   1
_chemical_formula_structural   Cr7Fe10Ni37
_chemical_formula_sum   'Cr7 Fe10 Ni37'
_cell_volume   582.64223541
_cell_formula_units_Z   1
loop_
 _symmetry_equiv_pos_site_id
 _symmetry_equiv_pos_as_xyz
  1  'x, y, z'
loop_
 _atom_site_type_symbol
 _atom_site_label
 _atom_site_symmetry_multiplicity
 _atom_site_fract_x
 _atom_site_fract_y
 _atom_site_fract_z
 _atom_site_occupancy
  Ni  Ni0  1  1.00062671  1.00109974  0.00180303  1
  Ni  Ni1  1  0.16899991  0.16715051  0.16812701  1
  Ni  Ni2  1  0.00213327  1.00060468  0.33508858  1
  Ni  Ni3  1  0.00176867  0.33298218  0.00288218  1
  Cr  Cr4  1  0.16696687  0.50186811  0.16830705  1
  Fe  Fe5  1  0.99854867  0.33525537  0.33396941  1
  Ni  Ni6  1  0.00293108  0.67117662  0.00204665  1
  Ni  Ni7  1  0.16828343  0.83704993  0.16850917  1
  Ni  Ni8  1  1.00119798  0.67177196  0.33523344  1
  Fe  Fe9  1  0.33507198  0.99979690  0.00372429  1
  Ni  Ni10  1  0.50149071  0.16849815  0.16818700  1
  Fe  Fe11  1  0.33484581  0.99876201  0.33330488  1
  Ni  Ni12  1  0.33591534  0.33639017  0.00293653  1
  Ni  Ni13  1  0.50388585  0.50100466  0.16800931  1
  Fe  Fe14  1  0.33707919  0.33602479  0.33324577  1
  Ni  Ni15  1  0.33563052  0.66864583  0.99987991  1
  Ni  Ni16  1  0.50215398  0.83575176  0.16856562  1
  Ni  Ni17  1  0.33661954  0.67033096  0.33634801  1
  Ni  Ni18  1  0.67010272  1.00138561  0.00289269  1
  Ni  Ni19  1  0.83476916  0.16888684  0.16819770  1
  Fe  Fe20  1  0.66961770  0.99957724  0.33397160  1
  Ni  Ni21  1  0.66757357  0.33408056  0.00301092  1
  Ni  Ni22  1  0.83347165  0.50172499  0.16864515  1
  Ni  Ni23  1  0.66825023  0.33606654  0.33486076  1
  Ni  Ni24  1  0.66669503  0.66979376  0.00297276  1
  Ni  Ni25  1  0.83482482  0.83464665  0.16778307  1
  Ni  Ni26  1  0.66744087  0.66744091  0.33551787  1
  Cr  Cr27  1  0.16781344  0.16758680  0.50200067  1
  Fe  Fe28  1  0.99908482  1.00022965  0.66857602  1
  Cr  Cr29  1  0.16719760  0.16974948  0.83549417  1
  Cr  Cr30  1  0.16712827  0.50304522  0.50165904  1
  Ni  Ni31  1  1.00120407  0.33456171  0.66780243  1
  Ni  Ni32  1  0.16915330  0.50309364  0.83465751  1
  Ni  Ni33  1  0.16786604  0.83494608  0.50204311  1
  Ni  Ni34  1  0.00260677  0.67054295  0.66797988  1
  Ni  Ni35  1  0.16850813  0.83257604  0.83470654  1
  Cr  Cr36  1  0.50284625  0.16826902  0.50190513  1
  Fe  Fe37  1  0.33566935  0.99849761  0.66823262  1
  Cr  Cr38  1  0.50379275  0.16800728  0.83554947  1
  Ni  Ni39  1  0.50441145  0.50300473  0.50264018  1
  Ni  Ni40  1  0.33569330  0.33733832  0.66885435  1
  Fe  Fe41  1  0.50014573  0.50367166  0.83528288  1
  Ni  Ni42  1  0.50267257  0.83371025  0.50203539  1
  Fe  Fe43  1  0.33629518  0.66861095  0.66913826  1
  Ni  Ni44  1  0.50212882  0.83421530  0.83465564  1
  Fe  Fe45  1  0.83449656  0.16838761  0.50218817  1
  Ni  Ni46  1  0.67002166  1.00044143  0.66778704  1
  Ni  Ni47  1  0.83462653  0.16730050  0.83415873  1
  Ni  Ni48  1  0.83343258  0.50269129  0.50150592  1
  Ni  Ni49  1  0.66836002  0.33480040  0.66738941  1
  Cr  Cr50  1  0.83601418  0.50198791  0.83614820  1
  Ni  Ni51  1  0.83472303  0.83357515  0.50231560  1
  Ni  Ni52  1  0.66724993  0.67001610  0.66677310  1
  Ni  Ni53  1  0.83462183  0.83603488  0.83515963  1
" 