8086,Ni69Cr31_11,-211.27293295502, 139.455355968324,Ni69Cr31,"# generated using pymatgen
 data_Cr37Ni17
_symmetry_space_group_name_H-M   'P 1'
_cell_length_a   7.56654587
_cell_length_b   7.56654587
_cell_length_c   10.70071178
_cell_angle_alpha   90.00000000
_cell_angle_beta   90.00000000
_cell_angle_gamma   90.00000000
_symmetry_Int_Tables_number   1
_chemical_formula_structural   Cr37Ni17
_chemical_formula_sum   'Cr37 Ni17'
_cell_volume   612.64374632
_cell_formula_units_Z   1
loop_
 _symmetry_equiv_pos_site_id
 _symmetry_equiv_pos_as_xyz
  1  'x, y, z'
loop_
 _atom_site_type_symbol
 _atom_site_label
 _atom_site_symmetry_multiplicity
 _atom_site_fract_x
 _atom_site_fract_y
 _atom_site_fract_z
 _atom_site_occupancy
  Cr  Cr0  1  0.99226188  0.99305936  0.99247592  1
  Cr  Cr1  1  0.15965803  0.16024093  0.16128446  1
  Cr  Cr2  1  0.99031434  -0.00385518  0.32773400  1
  Cr  Cr3  1  0.99300051  0.32776966  -0.00525911  1
  Ni  Ni4  1  0.15895882  0.49055384  0.16162943  1
  Ni  Ni5  1  0.98868619  0.32590223  0.32654304  1
  Cr  Cr6  1  -0.00516295  0.65922662  0.99204810  1
  Cr  Cr7  1  0.16115712  0.82749629  0.16164865  1
  Cr  Cr8  1  -0.00529336  0.65745806  0.32566074  1
  Ni  Ni9  1  0.32618131  -0.00611692  -0.00596332  1
  Ni  Ni10  1  0.49623748  0.16283659  0.15860560  1
  Cr  Cr11  1  0.33015356  -0.00573770  0.32870206  1
  Cr  Cr12  1  0.32567824  0.32614257  0.99309799  1
  Cr  Cr13  1  0.49559762  0.49295381  0.15972707  1
  Cr  Cr14  1  0.32908395  0.32612096  0.32684973  1
  Cr  Cr15  1  0.32272450  0.65874584  -0.00656994  1
  Cr  Cr16  1  0.49263530  0.82836685  0.15903516  1
  Cr  Cr17  1  0.32676912  0.65923735  0.32933271  1
  Cr  Cr18  1  0.66117881  -0.00343000  -0.00436131  1
  Ni  Ni19  1  0.82343648  0.16524324  0.16199582  1
  Cr  Cr20  1  0.65924240  -0.00198619  0.32654130  1
  Ni  Ni21  1  0.66040257  0.32421373  -0.00334197  1
  Cr  Cr22  1  0.82561905  0.49166478  0.16299158  1
  Ni  Ni23  1  0.66169562  0.32446685  0.32860484  1
  Cr  Cr24  1  0.66333662  0.66094142  0.99117393  1
  Cr  Cr25  1  0.82612891  0.82741956  0.15972477  1
  Cr  Cr26  1  0.65888814  0.66001407  0.33105429  1
  Cr  Cr27  1  0.15686709  0.15798026  0.49478658  1
  Ni  Ni28  1  -0.00657042  0.99083655  0.65954832  1
  Cr  Cr29  1  0.16038801  0.15797539  0.82367264  1
  Cr  Cr30  1  0.15730690  0.49185855  0.49146662  1
  Cr  Cr31  1  0.99200244  0.32660004  0.65957756  1
  Ni  Ni32  1  0.15961372  0.49586978  0.82733278  1
  Ni  Ni33  1  0.16099677  0.82712775  0.49510394  1
  Cr  Cr34  1  -0.00577899  0.66010036  0.66327433  1
  Ni  Ni35  1  0.15916625  0.82790378  0.82620153  1
  Ni  Ni36  1  0.49648927  0.16169031  0.49149670  1
  Cr  Cr37  1  0.32845754  0.99283511  0.65749396  1
  Cr  Cr38  1  0.49321152  0.16048425  0.82964315  1
  Ni  Ni39  1  0.49687518  0.49130036  0.49186109  1
  Cr  Cr40  1  0.32841047  0.32845700  0.65949210  1
  Cr  Cr41  1  0.49449777  0.49229719  0.82753271  1
  Ni  Ni42  1  0.49193882  0.82696439  0.49324074  1
  Cr  Cr43  1  0.32625660  0.65854808  0.65830315  1
  Cr  Cr44  1  0.49368005  0.82779715  0.82834531  1
  Ni  Ni45  1  0.82554404  0.16303003  0.49192810  1
  Cr  Cr46  1  0.66225006  -0.00532113  0.65727404  1
  Cr  Cr47  1  0.82682891  0.15981680  0.82553013  1
  Ni  Ni48  1  0.82424778  0.48852627  0.49093294  1
  Cr  Cr49  1  0.65885063  0.32517508  0.65620168  1
  Cr  Cr50  1  0.82435752  0.49282715  0.82675933  1
  Cr  Cr51  1  0.82955186  0.82633877  0.49435266  1
  Cr  Cr52  1  0.66001805  0.66034116  0.65748991  1
  Ni  Ni53  1  0.83092839  0.82864748  0.82514895  1
" 