6295,Ni69Fe20Cr9_1,-236.456594444224, 190.330392432339,Ni69Fe20Cr9,"# generated using pymatgen
 data_Cr7Fe10Ni37
_symmetry_space_group_name_H-M   'P 1'
_cell_length_a   7.44033284
_cell_length_b   7.44033284
_cell_length_c   10.52221961
_cell_angle_alpha   90.00000000
_cell_angle_beta   90.00000000
_cell_angle_gamma   90.00000000
_symmetry_Int_Tables_number   1
_chemical_formula_structural   Cr7Fe10Ni37
_chemical_formula_sum   'Cr7 Fe10 Ni37'
_cell_volume   582.49484878
_cell_formula_units_Z   1
loop_
 _symmetry_equiv_pos_site_id
 _symmetry_equiv_pos_as_xyz
  1  'x, y, z'
loop_
 _atom_site_type_symbol
 _atom_site_label
 _atom_site_symmetry_multiplicity
 _atom_site_fract_x
 _atom_site_fract_y
 _atom_site_fract_z
 _atom_site_occupancy
  Fe  Fe0  1  1.00128325  1.00034710  0.00198215  1
  Fe  Fe1  1  0.16830762  0.17057105  0.16956575  1
  Fe  Fe2  1  1.00148040  0.00395933  0.33595258  1
  Fe  Fe3  1  0.00304416  0.33586466  0.00334011  1
  Ni  Ni4  1  0.16848565  0.50207773  0.16741968  1
  Ni  Ni5  1  1.00126200  0.33382722  0.33426557  1
  Ni  Ni6  1  1.00019390  0.66837965  0.00205767  1
  Ni  Ni7  1  0.16770764  0.83498944  0.16941338  1
  Cr  Cr8  1  1.00031346  0.66806570  0.33499742  1
  Cr  Cr9  1  0.33584096  0.00462003  1.00102058  1
  Ni  Ni10  1  0.50376045  0.16930120  0.16867225  1
  Ni  Ni11  1  0.33569941  0.00278024  0.33511554  1
  Ni  Ni12  1  0.33470408  0.33460012  1.00120890  1
  Ni  Ni13  1  0.50259996  0.50081355  0.16905876  1
  Ni  Ni14  1  0.33570306  0.33308255  0.33408346  1
  Cr  Cr15  1  0.33425716  0.66625642  0.00215624  1
  Fe  Fe16  1  0.50381984  0.83496445  0.17036114  1
  Fe  Fe17  1  0.33786550  0.66876197  0.33461362  1
  Ni  Ni18  1  0.66931565  1.00123486  0.00228327  1
  Ni  Ni19  1  0.83401416  0.16852026  0.16838354  1
  Ni  Ni20  1  0.66720737  0.00200776  0.33515661  1
  Fe  Fe21  1  0.66635522  0.33551961  0.00385814  1
  Ni  Ni22  1  0.83430027  0.50071593  0.16751169  1
  Ni  Ni23  1  0.66842230  0.33507056  0.33467157  1
  Ni  Ni24  1  0.67102283  0.66935408  0.00251877  1
  Fe  Fe25  1  0.83376715  0.83502144  0.16767415  1
  Ni  Ni26  1  0.66795158  0.66830686  0.33510285  1
  Ni  Ni27  1  0.16798362  0.16632221  0.50179289  1
  Ni  Ni28  1  0.00308033  1.00068286  0.66756399  1
  Ni  Ni29  1  0.16987638  0.16831301  0.83473814  1
  Cr  Cr30  1  0.16927462  0.50163772  0.50342903  1
  Ni  Ni31  1  0.00463826  0.33486985  0.66766381  1
  Ni  Ni32  1  0.16983098  0.50231179  0.83469717  1
  Ni  Ni33  1  0.16915500  0.83754197  0.50288695  1
  Ni  Ni34  1  0.00179942  0.66983264  0.66920136  1
  Ni  Ni35  1  0.16725799  0.83476027  0.83308845  1
  Ni  Ni36  1  0.50191803  0.16728916  0.50140818  1
  Ni  Ni37  1  0.33470935  0.00221396  0.66887771  1
  Ni  Ni38  1  0.50029671  0.16830787  0.83530260  1
  Ni  Ni39  1  0.50326252  0.50282295  0.50092357  1
  Ni  Ni40  1  0.33373405  0.33392249  0.67009733  1
  Ni  Ni41  1  0.49984779  0.50182452  0.83540223  1
  Ni  Ni42  1  0.50204670  0.83527407  0.50180150  1
  Ni  Ni43  1  0.33504332  0.66925019  0.66925611  1
  Fe  Fe44  1  0.50265151  0.83517992  0.83304766  1
  Ni  Ni45  1  0.83548330  0.16753493  0.50100653  1
  Ni  Ni46  1  0.66759559  0.99937453  0.66794778  1
  Cr  Cr47  1  0.83498818  0.16627808  0.83550016  1
  Ni  Ni48  1  0.83321890  0.50165291  0.50177510  1
  Cr  Cr49  1  0.66693350  0.33500548  0.66595315  1
  Cr  Cr50  1  0.83565345  0.50382950  0.83549159  1
  Ni  Ni51  1  0.83418506  0.83619913  0.50321680  1
  Ni  Ni52  1  0.66854429  0.67080543  0.66776456  1
  Fe  Fe53  1  0.83525056  0.83489320  0.83466471  1
" 