550,Ni69Fe19Cr10_13,-236.955362370537, 197.553864884478,Ni69Fe19Cr10,"# generated using pymatgen
 data_Cr7Fe10Ni37
_symmetry_space_group_name_H-M   'P 1'
_cell_length_a   7.43735341
_cell_length_b   7.43735341
_cell_length_c   10.51800607
_cell_angle_alpha   90.00000000
_cell_angle_beta   90.00000000
_cell_angle_gamma   90.00000000
_symmetry_Int_Tables_number   1
_chemical_formula_structural   Cr7Fe10Ni37
_chemical_formula_sum   'Cr7 Fe10 Ni37'
_cell_volume   581.79536240
_cell_formula_units_Z   1
loop_
 _symmetry_equiv_pos_site_id
 _symmetry_equiv_pos_as_xyz
  1  'x, y, z'
loop_
 _atom_site_type_symbol
 _atom_site_label
 _atom_site_symmetry_multiplicity
 _atom_site_fract_x
 _atom_site_fract_y
 _atom_site_fract_z
 _atom_site_occupancy
  Ni  Ni0  1  1.00104740  0.00299142  0.00237519  1
  Ni  Ni1  1  0.16790371  0.16948290  0.17017202  1
  Fe  Fe2  1  1.00016471  0.00231551  0.33589821  1
  Ni  Ni3  1  1.00159923  0.33443000  0.00301620  1
  Cr  Cr4  1  0.16907810  0.50150230  0.16965909  1
  Ni  Ni5  1  0.00200151  0.33493029  0.33615709  1
  Fe  Fe6  1  0.99841818  0.66990855  1.00123204  1
  Cr  Cr7  1  0.16798059  0.83519491  0.16902685  1
  Ni  Ni8  1  0.99974154  0.66694454  0.33624198  1
  Cr  Cr9  1  0.33560431  0.00294215  1.00051260  1
  Ni  Ni10  1  0.50245459  0.16769773  0.16887219  1
  Ni  Ni11  1  0.33603748  0.00286835  0.33518646  1
  Ni  Ni12  1  0.33601240  0.33407808  0.00266534  1
  Ni  Ni13  1  0.50218946  0.50360826  0.16721267  1
  Fe  Fe14  1  0.33629811  0.33539604  0.33653605  1
  Fe  Fe15  1  0.33834988  0.66884385  1.00122285  1
  Ni  Ni16  1  0.50449011  0.83472866  0.17022295  1
  Ni  Ni17  1  0.33722131  0.67028945  0.33633526  1
  Ni  Ni18  1  0.66879813  0.99894631  0.00263782  1
  Ni  Ni19  1  0.83550474  0.16681616  0.16799644  1
  Ni  Ni20  1  0.66711246  1.00067729  0.33521851  1
  Fe  Fe21  1  0.66839005  0.33468792  0.00279201  1
  Ni  Ni22  1  0.83514771  0.50332334  0.16762975  1
  Cr  Cr23  1  0.67109869  0.33700799  0.33343039  1
  Ni  Ni24  1  0.66913587  0.66854056  0.00294197  1
  Ni  Ni25  1  0.83310798  0.83573425  0.16902945  1
  Ni  Ni26  1  0.66892875  0.66946137  0.33504339  1
  Ni  Ni27  1  0.16801832  0.16977035  0.50095332  1
  Ni  Ni28  1  0.00288568  1.00126193  0.66808410  1
  Ni  Ni29  1  0.16840717  0.16951108  0.83509699  1
  Ni  Ni30  1  0.16889348  0.50305190  0.50206438  1
  Ni  Ni31  1  1.00153886  0.33539919  0.66686285  1
  Cr  Cr32  1  0.16809651  0.50153881  0.83452805  1
  Fe  Fe33  1  0.16807295  0.83422983  0.50176316  1
  Ni  Ni34  1  1.00041776  0.66935142  0.66859145  1
  Ni  Ni35  1  0.16701150  0.83415538  0.83499584  1
  Ni  Ni36  1  0.50286049  0.16820117  0.50230975  1
  Cr  Cr37  1  0.33401432  0.00209779  0.67039861  1
  Ni  Ni38  1  0.50276550  0.16947955  0.83475293  1
  Ni  Ni39  1  0.50098473  0.50332083  0.50351745  1
  Ni  Ni40  1  0.33612394  0.33500601  0.66717314  1
  Fe  Fe41  1  0.50344411  0.50204485  0.83500853  1
  Fe  Fe42  1  0.50267188  0.83449951  0.50112554  1
  Ni  Ni43  1  0.33659594  0.66881597  0.66884059  1
  Ni  Ni44  1  0.50433399  0.83396623  0.83481192  1
  Ni  Ni45  1  0.83509874  0.16748125  0.50330864  1
  Fe  Fe46  1  0.66925651  1.00114274  0.66800345  1
  Cr  Cr47  1  0.83450778  0.16878170  0.83427667  1
  Ni  Ni48  1  0.83619260  0.50281284  0.50312356  1
  Ni  Ni49  1  0.66838560  0.33788309  0.66899421  1
  Ni  Ni50  1  0.83451475  0.50384338  0.83521298  1
  Fe  Fe51  1  0.83500946  0.83502745  0.50195617  1
  Ni  Ni52  1  0.66919124  0.66755855  0.66793821  1
  Ni  Ni53  1  0.83468875  0.83421855  0.83484230  1
" 