7987,Ni69Fe20Cr9_18,-237.012954750584, 195.694683294712,Ni69Fe20Cr9,"# generated using pymatgen
 data_Cr7Fe10Ni37
_symmetry_space_group_name_H-M   'P 1'
_cell_length_a   7.43787029
_cell_length_b   7.43787029
_cell_length_c   10.51873703
_cell_angle_alpha   90.00000000
_cell_angle_beta   90.00000000
_cell_angle_gamma   90.00000000
_symmetry_Int_Tables_number   1
_chemical_formula_structural   Cr7Fe10Ni37
_chemical_formula_sum   'Cr7 Fe10 Ni37'
_cell_volume   581.91666963
_cell_formula_units_Z   1
loop_
 _symmetry_equiv_pos_site_id
 _symmetry_equiv_pos_as_xyz
  1  'x, y, z'
loop_
 _atom_site_type_symbol
 _atom_site_label
 _atom_site_symmetry_multiplicity
 _atom_site_fract_x
 _atom_site_fract_y
 _atom_site_fract_z
 _atom_site_occupancy
  Fe  Fe0  1  0.00238270  1.00037931  0.00314543  1
  Ni  Ni1  1  0.16783007  0.16823187  0.16780127  1
  Ni  Ni2  1  0.00314848  1.00184211  0.33395173  1
  Ni  Ni3  1  0.00489515  0.33637759  0.00209642  1
  Fe  Fe4  1  0.16837079  0.50149812  0.16743401  1
  Ni  Ni5  1  1.00073787  0.33528317  0.33450229  1
  Ni  Ni6  1  0.00259591  0.66878314  0.00233840  1
  Ni  Ni7  1  0.16682448  0.83609350  0.16881153  1
  Fe  Fe8  1  1.00162254  0.66915332  0.33473271  1
  Fe  Fe9  1  0.33494101  0.00243952  1.00180653  1
  Ni  Ni10  1  0.50038290  0.17122036  0.16868633  1
  Ni  Ni11  1  0.33331262  1.00098122  0.33529399  1
  Ni  Ni12  1  0.33260313  0.33466023  0.00346651  1
  Ni  Ni13  1  0.50214699  0.50103082  0.16969815  1
  Fe  Fe14  1  0.33695093  0.33541846  0.33428561  1
  Ni  Ni15  1  0.33313833  0.66873595  1.00171255  1
  Cr  Cr16  1  0.50107518  0.83339391  0.16700162  1
  Ni  Ni17  1  0.33450030  0.66853463  0.33627739  1
  Ni  Ni18  1  0.66843452  1.00018954  0.00210581  1
  Ni  Ni19  1  0.83767027  0.16951646  0.16924934  1
  Cr  Cr20  1  0.66934164  0.00347193  0.33601217  1
  Cr  Cr21  1  0.66834426  0.33427112  0.00407469  1
  Ni  Ni22  1  0.83520722  0.50203667  0.16841504  1
  Ni  Ni23  1  0.66920283  0.33647471  0.33520667  1
  Ni  Ni24  1  0.67015204  0.67151953  1.00171456  1
  Ni  Ni25  1  0.83819647  0.83433120  0.16784722  1
  Ni  Ni26  1  0.66833991  0.66612550  0.33578898  1
  Cr  Cr27  1  0.16740307  0.16745349  0.50301150  1
  Ni  Ni28  1  1.00123675  0.00235578  0.66863488  1
  Fe  Fe29  1  0.17023600  0.16878970  0.83533268  1
  Fe  Fe30  1  0.17002086  0.50233029  0.50223298  1
  Ni  Ni31  1  0.00221515  0.33468688  0.66928490  1
  Ni  Ni32  1  0.16825409  0.50166786  0.83587605  1
  Ni  Ni33  1  0.17001041  0.83504475  0.50102964  1
  Cr  Cr34  1  0.00279866  0.66864931  0.66829050  1
  Ni  Ni35  1  0.16920099  0.83512884  0.83604131  1
  Ni  Ni36  1  0.50330668  0.16985383  0.50295901  1
  Fe  Fe37  1  0.33671690  1.00118776  0.66878315  1
  Ni  Ni38  1  0.50021833  0.16675213  0.83424039  1
  Ni  Ni39  1  0.50330998  0.50277511  0.50194536  1
  Ni  Ni40  1  0.33544968  0.33549133  0.66856599  1
  Cr  Cr41  1  0.50144918  0.50316205  0.83445766  1
  Ni  Ni42  1  0.50022379  0.83325569  0.50362551  1
  Ni  Ni43  1  0.33597879  0.66911527  0.66789415  1
  Ni  Ni44  1  0.50173878  0.83601433  0.83512543  1
  Ni  Ni45  1  0.83511720  0.17061707  0.50262493  1
  Ni  Ni46  1  0.66794756  1.00182671  0.66768994  1
  Cr  Cr47  1  0.83608059  0.16849934  0.83399572  1
  Ni  Ni48  1  0.83332510  0.50022398  0.50217844  1
  Ni  Ni49  1  0.66822218  0.33396581  0.66664101  1
  Fe  Fe50  1  0.83675242  0.50421012  0.83529162  1
  Fe  Fe51  1  0.83426543  0.83577333  0.50230305  1
  Ni  Ni52  1  0.66714379  0.67009430  0.66838032  1
  Ni  Ni53  1  0.83494490  0.83499681  0.83602271  1
" 