3664,Ni69Fe15Cr15_5,-235.247684673286, 187.328582743183,Ni69Fe15Cr15,"# generated using pymatgen
 data_Cr9Fe8Ni37
_symmetry_space_group_name_H-M   'P 1'
_cell_length_a   7.44780015
_cell_length_b   7.44780015
_cell_length_c   10.53277999
_cell_angle_alpha   90.00000000
_cell_angle_beta   90.00000000
_cell_angle_gamma   90.00000000
_symmetry_Int_Tables_number   1
_chemical_formula_structural   Cr9Fe8Ni37
_chemical_formula_sum   'Cr9 Fe8 Ni37'
_cell_volume   584.25043144
_cell_formula_units_Z   1
loop_
 _symmetry_equiv_pos_site_id
 _symmetry_equiv_pos_as_xyz
  1  'x, y, z'
loop_
 _atom_site_type_symbol
 _atom_site_label
 _atom_site_symmetry_multiplicity
 _atom_site_fract_x
 _atom_site_fract_y
 _atom_site_fract_z
 _atom_site_occupancy
  Ni  Ni0  1  0.00275048  0.00281076  0.99999701  1
  Ni  Ni1  1  0.16846743  0.16980538  0.16777892  1
  Cr  Cr2  1  1.00090911  0.00247773  0.33472893  1
  Ni  Ni3  1  0.00204174  0.33377998  0.00313049  1
  Ni  Ni4  1  0.16890974  0.49916315  0.16944571  1
  Fe  Fe5  1  0.00132030  0.33412965  0.33388604  1
  Cr  Cr6  1  0.99938986  0.66703974  0.99892085  1
  Cr  Cr7  1  0.16826942  0.83501498  0.16776024  1
  Ni  Ni8  1  0.99764037  0.66633958  0.33445730  1
  Ni  Ni9  1  0.33360375  0.00251694  0.99966333  1
  Cr  Cr10  1  0.50155672  0.16744620  0.16644714  1
  Ni  Ni11  1  0.33639358  0.00405092  0.33604597  1
  Ni  Ni12  1  0.33398926  0.33340109  1.00009174  1
  Ni  Ni13  1  0.50110721  0.50202826  0.16686690  1
  Ni  Ni14  1  0.33321973  0.33205410  0.33390867  1
  Fe  Fe15  1  0.33510797  0.66609310  0.99946642  1
  Fe  Fe16  1  0.50183476  0.83305070  0.16776124  1
  Fe  Fe17  1  0.33701773  0.66821562  0.33376663  1
  Fe  Fe18  1  0.66918078  0.00149837  0.99953896  1
  Fe  Fe19  1  0.83548534  0.16878069  0.16599442  1
  Ni  Ni20  1  0.66681692  0.99864523  0.33448127  1
  Ni  Ni21  1  0.66830136  0.33762604  0.99960745  1
  Ni  Ni22  1  0.83427658  0.50238274  0.16918122  1
  Cr  Cr23  1  0.66804570  0.33450857  0.33601049  1
  Ni  Ni24  1  0.66761362  0.66730079  0.00173011  1
  Ni  Ni25  1  0.83235787  0.83488072  0.16764866  1
  Ni  Ni26  1  0.67041492  0.66963652  0.33392815  1
  Ni  Ni27  1  0.16855872  0.16913389  0.50151361  1
  Fe  Fe28  1  1.00026814  0.00322335  0.66937743  1
  Ni  Ni29  1  0.16763996  0.16819948  0.83464870  1
  Cr  Cr30  1  0.16749502  0.50059312  0.50080236  1
  Ni  Ni31  1  1.00094715  0.33430403  0.66800116  1
  Ni  Ni32  1  0.16846637  0.49981593  0.83407240  1
  Cr  Cr33  1  0.16801011  0.83414262  0.50357063  1
  Ni  Ni34  1  1.00067319  0.66776486  0.66967244  1
  Ni  Ni35  1  0.16819049  0.83584934  0.83288959  1
  Ni  Ni36  1  0.50163027  0.16615138  0.50257641  1
  Ni  Ni37  1  0.33590313  0.00260595  0.66767985  1
  Ni  Ni38  1  0.50193722  0.16834480  0.83347964  1
  Cr  Cr39  1  0.50012154  0.50062011  0.50282490  1
  Ni  Ni40  1  0.33421457  0.33157376  0.66977161  1
  Ni  Ni41  1  0.50093921  0.49960164  0.83563327  1
  Ni  Ni42  1  0.50312306  0.83714055  0.49872074  1
  Ni  Ni43  1  0.33423006  0.66968291  0.67114761  1
  Ni  Ni44  1  0.50100893  0.83581742  0.83641355  1
  Ni  Ni45  1  0.83366893  0.16641120  0.50215116  1
  Ni  Ni46  1  0.66651336  0.00226905  0.66770272  1
  Ni  Ni47  1  0.83435515  0.16839492  0.83591820  1
  Fe  Fe48  1  0.83560008  0.50109965  0.50209978  1
  Ni  Ni49  1  0.66872732  0.33186722  0.66907642  1
  Ni  Ni50  1  0.83458954  0.49912474  0.83366194  1
  Ni  Ni51  1  0.83345341  0.83566446  0.50131225  1
  Cr  Cr52  1  0.66881523  0.66900787  0.66860818  1
  Ni  Ni53  1  0.83467405  0.83669470  0.83420565  1
" 