3801,Ni69Fe20Cr9_7,-237.200116072833, 197.850556085533,Ni69Fe20Cr9,"# generated using pymatgen
 data_Cr7Fe10Ni37
_symmetry_space_group_name_H-M   'P 1'
_cell_length_a   7.43909458
_cell_length_b   7.43909458
_cell_length_c   10.52046845
_cell_angle_alpha   90.00000000
_cell_angle_beta   90.00000000
_cell_angle_gamma   90.00000000
_symmetry_Int_Tables_number   1
_chemical_formula_structural   Cr7Fe10Ni37
_chemical_formula_sum   'Cr7 Fe10 Ni37'
_cell_volume   582.20407197
_cell_formula_units_Z   1
loop_
 _symmetry_equiv_pos_site_id
 _symmetry_equiv_pos_as_xyz
  1  'x, y, z'
loop_
 _atom_site_type_symbol
 _atom_site_label
 _atom_site_symmetry_multiplicity
 _atom_site_fract_x
 _atom_site_fract_y
 _atom_site_fract_z
 _atom_site_occupancy
  Ni  Ni0  1  0.00344749  0.00289639  1.00158988  1
  Ni  Ni1  1  0.16846418  0.16746167  0.16780312  1
  Ni  Ni2  1  0.00315444  1.00065442  0.33549552  1
  Ni  Ni3  1  0.00209195  0.33522528  1.00172442  1
  Ni  Ni4  1  0.16835478  0.50341478  0.16878831  1
  Ni  Ni5  1  1.00153133  0.33658217  0.33477829  1
  Ni  Ni6  1  0.00243704  0.66751476  0.00288500  1
  Ni  Ni7  1  0.16871860  0.83476092  0.16845171  1
  Ni  Ni8  1  1.00061260  0.66839937  0.33502664  1
  Ni  Ni9  1  0.33431888  0.00189029  0.00198798  1
  Cr  Cr10  1  0.50100472  0.16923660  0.16904922  1
  Ni  Ni11  1  0.33480833  1.00122424  0.33533413  1
  Fe  Fe12  1  0.33329145  0.33599620  1.00128202  1
  Ni  Ni13  1  0.50164495  0.50291730  0.16854035  1
  Ni  Ni14  1  0.33469137  0.33427289  0.33390472  1
  Ni  Ni15  1  0.33476475  0.66908604  0.00328566  1
  Fe  Fe16  1  0.49994441  0.83370821  0.16902323  1
  Fe  Fe17  1  0.33396499  0.66897419  0.33417153  1
  Fe  Fe18  1  0.66874985  0.00207310  0.99928018  1
  Cr  Cr19  1  0.83662164  0.16961591  0.16897955  1
  Fe  Fe20  1  0.66897307  1.00105176  0.33799860  1
  Ni  Ni21  1  0.66944028  0.33567172  1.00005928  1
  Ni  Ni22  1  0.83563308  0.50266177  0.16961569  1
  Ni  Ni23  1  0.66941241  0.33681501  0.33658036  1
  Cr  Cr24  1  0.66852949  0.66757251  1.00161820  1
  Fe  Fe25  1  0.83739196  0.83353659  0.16983941  1
  Ni  Ni26  1  0.66998285  0.66851487  0.33427549  1
  Cr  Cr27  1  0.16936431  0.16698008  0.50114167  1
  Fe  Fe28  1  1.00032641  1.00038033  0.66825852  1
  Ni  Ni29  1  0.16938108  0.16903929  0.83699513  1
  Fe  Fe30  1  0.16744076  0.50432380  0.50141800  1
  Cr  Cr31  1  1.00106682  0.33618689  0.66856527  1
  Ni  Ni32  1  0.16850847  0.50184114  0.83582288  1
  Ni  Ni33  1  0.16843174  0.83409902  0.50220228  1
  Ni  Ni34  1  1.00083125  0.66884187  0.66772495  1
  Cr  Cr35  1  0.16908777  0.83463836  0.83439040  1
  Ni  Ni36  1  0.50371455  0.16718094  0.50213332  1
  Ni  Ni37  1  0.33772787  1.00174544  0.66831160  1
  Ni  Ni38  1  0.50266477  0.16820613  0.83467830  1
  Cr  Cr39  1  0.50277442  0.50138900  0.50274444  1
  Ni  Ni40  1  0.33670481  0.33419666  0.67088059  1
  Fe  Fe41  1  0.50108149  0.50044623  0.83443144  1
  Ni  Ni42  1  0.50131210  0.83663927  0.50150600  1
  Ni  Ni43  1  0.33534708  0.66969349  0.66804571  1
  Ni  Ni44  1  0.50185629  0.83636203  0.83450247  1
  Ni  Ni45  1  0.83265583  0.16825222  0.50100864  1
  Ni  Ni46  1  0.66710028  1.00159590  0.66841505  1
  Ni  Ni47  1  0.83358963  0.16911401  0.83599849  1
  Ni  Ni48  1  0.83519610  0.50264656  0.50062976  1
  Ni  Ni49  1  0.66795232  0.33417280  0.66899711  1
  Ni  Ni50  1  0.83519459  0.50103100  0.83538808  1
  Ni  Ni51  1  0.83589131  0.83473726  0.50237030  1
  Ni  Ni52  1  0.66945568  0.66986712  0.66957732  1
  Fe  Fe53  1  0.83481620  0.83611900  0.83394860  1
" 