7788,Ni69Fe15Cr15_18,-235.042107329229, 188.052171658867,Ni69Fe15Cr15,"# generated using pymatgen
 data_Cr9Fe8Ni37
_symmetry_space_group_name_H-M   'P 1'
_cell_length_a   7.44662450
_cell_length_b   7.44662450
_cell_length_c   10.53111736
_cell_angle_alpha   90.00000000
_cell_angle_beta   90.00000000
_cell_angle_gamma   90.00000000
_symmetry_Int_Tables_number   1
_chemical_formula_structural   Cr9Fe8Ni37
_chemical_formula_sum   'Cr9 Fe8 Ni37'
_cell_volume   583.97379961
_cell_formula_units_Z   1
loop_
 _symmetry_equiv_pos_site_id
 _symmetry_equiv_pos_as_xyz
  1  'x, y, z'
loop_
 _atom_site_type_symbol
 _atom_site_label
 _atom_site_symmetry_multiplicity
 _atom_site_fract_x
 _atom_site_fract_y
 _atom_site_fract_z
 _atom_site_occupancy
  Fe  Fe0  1  1.00093417  0.00148253  1.00115017  1
  Ni  Ni1  1  0.16827034  0.16674850  0.16816220  1
  Ni  Ni2  1  0.99965913  0.00167638  0.33530363  1
  Cr  Cr3  1  0.99951814  0.33597858  1.00135541  1
  Cr  Cr4  1  0.16755146  0.50099878  0.16914132  1
  Ni  Ni5  1  0.99902868  0.33369517  0.33605873  1
  Ni  Ni6  1  1.00021479  0.66907193  0.99972161  1
  Cr  Cr7  1  0.16727314  0.83676918  0.16847900  1
  Ni  Ni8  1  0.99982949  0.66862017  0.33628698  1
  Ni  Ni9  1  0.33614602  0.00268954  0.00220553  1
  Ni  Ni10  1  0.50155653  0.16748795  0.16695549  1
  Fe  Fe11  1  0.33612355  1.00104713  0.33522615  1
  Ni  Ni12  1  0.33578338  0.33245402  0.99984528  1
  Ni  Ni13  1  0.50406519  0.50164820  0.16671546  1
  Cr  Cr14  1  0.33683137  0.33413071  0.33539551  1
  Ni  Ni15  1  0.33241756  0.66876565  1.00094599  1
  Ni  Ni16  1  0.50321265  0.83493716  0.16876437  1
  Ni  Ni17  1  0.33607510  0.66966586  0.33685282  1
  Ni  Ni18  1  0.66810123  0.00311128  1.00107459  1
  Fe  Fe19  1  0.83320815  0.16689868  0.16953402  1
  Ni  Ni20  1  0.66815355  0.00164245  0.33593903  1
  Ni  Ni21  1  0.66793863  0.33171395  0.00271110  1
  Ni  Ni22  1  0.83208716  0.50252869  0.16936592  1
  Ni  Ni23  1  0.66931653  0.33369887  0.33404010  1
  Fe  Fe24  1  0.66928213  0.66805374  0.00314980  1
  Ni  Ni25  1  0.83336678  0.83413134  0.16792338  1
  Ni  Ni26  1  0.66817188  0.66869300  0.33474861  1
  Ni  Ni27  1  0.16583689  0.16756302  0.50122793  1
  Fe  Fe28  1  0.99985099  1.00127237  0.66718059  1
  Ni  Ni29  1  0.16767147  0.16768175  0.83471222  1
  Fe  Fe30  1  0.16768529  0.50154149  0.50092522  1
  Fe  Fe31  1  0.00185459  0.33335836  0.66784277  1
  Ni  Ni32  1  0.16822807  0.50077662  0.83375450  1
  Ni  Ni33  1  0.16764120  0.83586248  0.49876409  1
  Cr  Cr34  1  0.00160732  0.66796271  0.66797732  1
  Ni  Ni35  1  0.16642748  0.83557661  0.83705933  1
  Ni  Ni36  1  0.50217177  0.16776134  0.50063171  1
  Cr  Cr37  1  0.33539169  1.00103116  0.66659878  1
  Ni  Ni38  1  0.50134815  0.16815483  0.83612841  1
  Ni  Ni39  1  0.50287207  0.50313007  0.50127454  1
  Fe  Fe40  1  0.33395224  0.33535855  0.66741377  1
  Cr  Cr41  1  0.50171079  0.50093259  0.83622196  1
  Ni  Ni42  1  0.50252397  0.83332007  0.50022042  1
  Ni  Ni43  1  0.33285350  0.66777790  0.66641861  1
  Cr  Cr44  1  0.50295312  0.83485032  0.83524683  1
  Ni  Ni45  1  0.83592316  0.16758568  0.49995162  1
  Ni  Ni46  1  0.66975112  0.00166797  0.66703459  1
  Ni  Ni47  1  0.83513984  0.16622010  0.83474197  1
  Ni  Ni48  1  0.83340392  0.50136085  0.49903167  1
  Cr  Cr49  1  0.66964581  0.33238307  0.66734422  1
  Ni  Ni50  1  0.83481806  0.50197387  0.83599748  1
  Ni  Ni51  1  0.83391726  0.83514065  0.50092689  1
  Ni  Ni52  1  0.66906560  0.66957554  0.66698480  1
  Ni  Ni53  1  0.83568811  0.83589075  0.83538577  1
" 