6692,Ni69Fe20Cr9_16,-237.172476963968, 195.981766851895,Ni69Fe20Cr9,"# generated using pymatgen
 data_Cr7Fe10Ni37
_symmetry_space_group_name_H-M   'P 1'
_cell_length_a   7.43707550
_cell_length_b   7.43707550
_cell_length_c   10.51761304
_cell_angle_alpha   90.00000000
_cell_angle_beta   90.00000000
_cell_angle_gamma   90.00000000
_symmetry_Int_Tables_number   1
_chemical_formula_structural   Cr7Fe10Ni37
_chemical_formula_sum   'Cr7 Fe10 Ni37'
_cell_volume   581.73014529
_cell_formula_units_Z   1
loop_
 _symmetry_equiv_pos_site_id
 _symmetry_equiv_pos_as_xyz
  1  'x, y, z'
loop_
 _atom_site_type_symbol
 _atom_site_label
 _atom_site_symmetry_multiplicity
 _atom_site_fract_x
 _atom_site_fract_y
 _atom_site_fract_z
 _atom_site_occupancy
  Ni  Ni0  1  0.00396304  0.00422485  1.00184719  1
  Ni  Ni1  1  0.16947954  0.16815034  0.16883226  1
  Fe  Fe2  1  0.00407710  0.00263954  0.33653453  1
  Ni  Ni3  1  0.00384052  0.33416783  0.00223166  1
  Ni  Ni4  1  0.16888246  0.50044214  0.17016288  1
  Ni  Ni5  1  1.00170022  0.33611578  0.33470441  1
  Cr  Cr6  1  0.00293453  0.66621278  0.99951847  1
  Ni  Ni7  1  0.16987114  0.83717663  0.16950797  1
  Ni  Ni8  1  0.00377582  0.66669246  0.33731892  1
  Ni  Ni9  1  0.33487189  0.99999166  0.00270953  1
  Ni  Ni10  1  0.49831521  0.16907560  0.16868029  1
  Ni  Ni11  1  0.33420645  1.00147396  0.33626637  1
  Fe  Fe12  1  0.33380687  0.33498633  0.00304860  1
  Ni  Ni13  1  0.50197098  0.50203532  0.16960114  1
  Ni  Ni14  1  0.33401101  0.33413386  0.33404022  1
  Fe  Fe15  1  0.33684094  0.66914341  0.00327435  1
  Ni  Ni16  1  0.50063024  0.83500245  0.16854941  1
  Ni  Ni17  1  0.33341100  0.67044650  0.33310734  1
  Ni  Ni18  1  0.66760815  1.00051394  1.00123653  1
  Fe  Fe19  1  0.83689463  0.16979393  0.16768387  1
  Cr  Cr20  1  0.66634663  0.00408466  0.33638917  1
  Cr  Cr21  1  0.67165825  0.33615928  0.00346045  1
  Ni  Ni22  1  0.83530220  0.50210977  0.17100971  1
  Ni  Ni23  1  0.67032439  0.33567296  0.33415326  1
  Ni  Ni24  1  0.66640312  0.66939183  1.00143338  1
  Cr  Cr25  1  0.83693855  0.83387363  0.16847929  1
  Ni  Ni26  1  0.66895182  0.66785848  0.33475426  1
  Ni  Ni27  1  0.17005097  0.16791185  0.50223109  1
  Ni  Ni28  1  0.00244504  0.00314504  0.66893812  1
  Ni  Ni29  1  0.16734800  0.16831851  0.83540168  1
  Fe  Fe30  1  0.16712371  0.50060546  0.50015411  1
  Ni  Ni31  1  0.00208266  0.33559318  0.66925087  1
  Fe  Fe32  1  0.16868974  0.49891955  0.83556314  1
  Ni  Ni33  1  0.16585994  0.83816823  0.50077505  1
  Fe  Fe34  1  1.00015914  0.66915939  0.66785968  1
  Fe  Fe35  1  0.16876085  0.83857151  0.83532820  1
  Ni  Ni36  1  0.49895688  0.16923656  0.50431868  1
  Ni  Ni37  1  0.33436717  0.00202831  0.66723986  1
  Cr  Cr38  1  0.49926855  0.16886553  0.83299630  1
  Cr  Cr39  1  0.50401032  0.49902886  0.50012923  1
  Ni  Ni40  1  0.33265879  0.33476793  0.66918431  1
  Ni  Ni41  1  0.50255584  0.50369046  0.83592665  1
  Fe  Fe42  1  0.50186932  0.83610639  0.50204170  1
  Cr  Cr43  1  0.33388225  0.66987071  0.66917496  1
  Ni  Ni44  1  0.50360280  0.83412064  0.83567336  1
  Fe  Fe45  1  0.83627521  0.16992403  0.50398612  1
  Ni  Ni46  1  0.66954580  1.00097785  0.66850096  1
  Ni  Ni47  1  0.83887348  0.16766925  0.83464863  1
  Ni  Ni48  1  0.83590579  0.50382698  0.50199162  1
  Ni  Ni49  1  0.67081206  0.33555090  0.66857971  1
  Ni  Ni50  1  0.83463845  0.50326070  0.83275842  1
  Ni  Ni51  1  0.83720463  0.83316478  0.50349664  1
  Ni  Ni52  1  0.66962255  0.66937821  0.66988082  1
  Ni  Ni53  1  0.83522585  0.83538180  0.83424713  1
" 