188,Ni69Fe19Cr10_18,-236.847403701928, 193.80421964075,Ni69Fe19Cr10,"# generated using pymatgen
 data_Cr7Fe10Ni37
_symmetry_space_group_name_H-M   'P 1'
_cell_length_a   7.43942374
_cell_length_b   7.43942374
_cell_length_c   10.52093395
_cell_angle_alpha   90.00000000
_cell_angle_beta   90.00000000
_cell_angle_gamma   90.00000000
_symmetry_Int_Tables_number   1
_chemical_formula_structural   Cr7Fe10Ni37
_chemical_formula_sum   'Cr7 Fe10 Ni37'
_cell_volume   582.28135815
_cell_formula_units_Z   1
loop_
 _symmetry_equiv_pos_site_id
 _symmetry_equiv_pos_as_xyz
  1  'x, y, z'
loop_
 _atom_site_type_symbol
 _atom_site_label
 _atom_site_symmetry_multiplicity
 _atom_site_fract_x
 _atom_site_fract_y
 _atom_site_fract_z
 _atom_site_occupancy
  Fe  Fe0  1  0.99900315  0.00217854  0.00332399  1
  Ni  Ni1  1  0.16916680  0.16866439  0.16834682  1
  Ni  Ni2  1  0.00218488  1.00030087  0.33522014  1
  Fe  Fe3  1  1.00026071  0.33596729  0.00189936  1
  Fe  Fe4  1  0.16981656  0.50223128  0.16815209  1
  Cr  Cr5  1  0.00328724  0.33489832  0.33464773  1
  Ni  Ni6  1  1.00094626  0.66780877  0.00238985  1
  Fe  Fe7  1  0.16860497  0.83585409  0.16950142  1
  Ni  Ni8  1  0.00390401  0.67049296  0.33547536  1
  Fe  Fe9  1  0.33716059  1.00133017  0.00406351  1
  Ni  Ni10  1  0.50097239  0.16860216  0.16843138  1
  Ni  Ni11  1  0.33522249  0.00203246  0.33493562  1
  Ni  Ni12  1  0.33534746  0.33618456  0.00304741  1
  Ni  Ni13  1  0.49993149  0.50174026  0.16743512  1
  Ni  Ni14  1  0.33498249  0.33458051  0.33557996  1
  Fe  Fe15  1  0.33740982  0.66712912  0.00216037  1
  Ni  Ni16  1  0.50201286  0.83522613  0.16785630  1
  Ni  Ni17  1  0.33330453  0.66895867  0.33450668  1
  Ni  Ni18  1  0.66908393  1.00138391  0.00250324  1
  Ni  Ni19  1  0.83542928  0.16658279  0.16709514  1
  Ni  Ni20  1  0.66816322  0.00197791  0.33493376  1
  Ni  Ni21  1  0.66848696  0.33520237  0.00241743  1
  Fe  Fe22  1  0.83489987  0.50255119  0.16577495  1
  Cr  Cr23  1  0.66693282  0.33288659  0.33494331  1
  Ni  Ni24  1  0.66903132  0.66898318  1.00095279  1
  Ni  Ni25  1  0.83567388  0.83596331  0.16827239  1
  Cr  Cr26  1  0.66861829  0.67042430  0.33551772  1
  Ni  Ni27  1  0.16922322  0.16845350  0.50274671  1
  Ni  Ni28  1  0.00245979  0.00247533  0.66748168  1
  Cr  Cr29  1  0.16688600  0.17008459  0.83390805  1
  Ni  Ni30  1  0.16928115  0.50261421  0.50224998  1
  Ni  Ni31  1  1.00108339  0.33580643  0.66896720  1
  Ni  Ni32  1  0.16835900  0.50202251  0.83543429  1
  Ni  Ni33  1  0.16809734  0.83450346  0.50117344  1
  Ni  Ni34  1  1.00182298  0.66728886  0.66770552  1
  Cr  Cr35  1  0.16824724  0.83371325  0.83440848  1
  Ni  Ni36  1  0.50056640  0.16865338  0.50085300  1
  Ni  Ni37  1  0.33418130  1.00080205  0.66667505  1
  Cr  Cr38  1  0.50283809  0.16936126  0.83587095  1
  Fe  Fe39  1  0.50001796  0.50196272  0.50326118  1
  Fe  Fe40  1  0.33457866  0.33695676  0.66711416  1
  Ni  Ni41  1  0.50228770  0.50370407  0.83465347  1
  Ni  Ni42  1  0.50076154  0.83523442  0.50172037  1
  Ni  Ni43  1  0.33556491  0.66821420  0.66880585  1
  Ni  Ni44  1  0.50327177  0.83208914  0.83599514  1
  Ni  Ni45  1  0.83577924  0.16746804  0.50248298  1
  Cr  Cr46  1  0.66891476  1.00117697  0.66820120  1
  Ni  Ni47  1  0.83586602  0.16953044  0.83599349  1
  Fe  Fe48  1  0.83647338  0.50264688  0.50484864  1
  Ni  Ni49  1  0.66985380  0.33718870  0.66839606  1
  Ni  Ni50  1  0.83492344  0.50226401  0.83504727  1
  Ni  Ni51  1  0.83671077  0.83529055  0.50158681  1
  Ni  Ni52  1  0.66818237  0.66683722  0.66957740  1
  Ni  Ni53  1  0.83418518  0.83377667  0.83571348  1
" 