1289,Ni69Fe19Cr10_7,-236.720961859332, 192.925958947412,Ni69Fe19Cr10,"# generated using pymatgen
 data_Cr7Fe10Ni37
_symmetry_space_group_name_H-M   'P 1'
_cell_length_a   7.43956253
_cell_length_b   7.43956253
_cell_length_c   10.52113023
_cell_angle_alpha   90.00000000
_cell_angle_beta   90.00000000
_cell_angle_gamma   90.00000000
_symmetry_Int_Tables_number   1
_chemical_formula_structural   Cr7Fe10Ni37
_chemical_formula_sum   'Cr7 Fe10 Ni37'
_cell_volume   582.31394938
_cell_formula_units_Z   1
loop_
 _symmetry_equiv_pos_site_id
 _symmetry_equiv_pos_as_xyz
  1  'x, y, z'
loop_
 _atom_site_type_symbol
 _atom_site_label
 _atom_site_symmetry_multiplicity
 _atom_site_fract_x
 _atom_site_fract_y
 _atom_site_fract_z
 _atom_site_occupancy
  Ni  Ni0  1  0.00271919  0.00505912  0.00257692  1
  Ni  Ni1  1  0.16788338  0.16742780  0.16783375  1
  Ni  Ni2  1  0.00268474  0.00340855  0.33712223  1
  Ni  Ni3  1  1.00083247  0.33451602  1.00113268  1
  Fe  Fe4  1  0.16891442  0.50233376  0.16845631  1
  Ni  Ni5  1  1.00107976  0.33382658  0.33498573  1
  Fe  Fe6  1  0.00241178  0.66611647  0.00230373  1
  Ni  Ni7  1  0.16923167  0.83641196  0.16838577  1
  Ni  Ni8  1  0.00366541  0.66830599  0.33506992  1
  Ni  Ni9  1  0.33506158  1.00060027  1.00174989  1
  Cr  Cr10  1  0.50093879  0.16894082  0.16921906  1
  Ni  Ni11  1  0.33360078  0.99884104  0.33497911  1
  Ni  Ni12  1  0.33428558  0.33630361  1.00030543  1
  Ni  Ni13  1  0.50315312  0.50244345  0.16846340  1
  Fe  Fe14  1  0.33365854  0.33678089  0.33552097  1
  Ni  Ni15  1  0.33695514  0.66863806  0.00247138  1
  Ni  Ni16  1  0.50018134  0.83411666  0.16740950  1
  Ni  Ni17  1  0.33584010  0.66965217  0.33577405  1
  Ni  Ni18  1  0.66776092  0.00238293  1.00049890  1
  Fe  Fe19  1  0.83657376  0.16992749  0.16900099  1
  Ni  Ni20  1  0.66925739  1.00142714  0.33674857  1
  Ni  Ni21  1  0.67042389  0.33640592  1.00099584  1
  Ni  Ni22  1  0.83457662  0.50109498  0.16776144  1
  Ni  Ni23  1  0.67060706  0.33606705  0.33401429  1
  Ni  Ni24  1  0.66596734  0.66675182  1.00123111  1
  Cr  Cr25  1  0.83598032  0.83401941  0.16877283  1
  Ni  Ni26  1  0.66603794  0.66804843  0.33618955  1
  Ni  Ni27  1  0.16734498  0.16805718  0.50277907  1
  Fe  Fe28  1  0.00305040  0.00331366  0.66613545  1
  Fe  Fe29  1  0.16914254  0.17143228  0.83547187  1
  Ni  Ni30  1  0.16981799  0.50189594  0.50206755  1
  Ni  Ni31  1  0.00352510  0.33486894  0.66942479  1
  Ni  Ni32  1  0.16834351  0.49992982  0.83537308  1
  Ni  Ni33  1  0.16760528  0.83558901  0.50150088  1
  Ni  Ni34  1  0.00323200  0.66734700  0.66776870  1
  Cr  Cr35  1  0.16877305  0.83499302  0.83594967  1
  Cr  Cr36  1  0.50024898  0.16880559  0.49969681  1
  Ni  Ni37  1  0.33527314  1.00071441  0.66881372  1
  Ni  Ni38  1  0.50071503  0.16892585  0.83637951  1
  Ni  Ni39  1  0.49952346  0.50362233  0.50099767  1
  Ni  Ni40  1  0.33258857  0.33618977  0.66895990  1
  Ni  Ni41  1  0.50145334  0.50008309  0.83607929  1
  Ni  Ni42  1  0.50209082  0.83421699  0.50237152  1
  Ni  Ni43  1  0.33549377  0.66863853  0.66729851  1
  Fe  Fe44  1  0.50147799  0.83437911  0.83568516  1
  Ni  Ni45  1  0.83757008  0.16549441  0.50058930  1
  Fe  Fe46  1  0.66807331  1.00050061  0.66806077  1
  Fe  Fe47  1  0.83562522  0.17069509  0.83613789  1
  Cr  Cr48  1  0.83594096  0.50356534  0.50115572  1
  Cr  Cr49  1  0.66943948  0.33548706  0.67018452  1
  Ni  Ni50  1  0.83574434  0.50143973  0.83640181  1
  Ni  Ni51  1  0.83584635  0.83668857  0.50200046  1
  Fe  Fe52  1  0.66649104  0.66919080  0.66836868  1
  Cr  Cr53  1  0.83503632  0.83383755  0.83512445  1
" 