1306,Ni69Fe24Cr5_0,-239.847927913294, 207.255561182873,Ni69Fe24Cr5,"# generated using pymatgen
 data_Cr4Fe13Ni37
_symmetry_space_group_name_H-M   'P 1'
_cell_length_a   7.42781940
_cell_length_b   7.42781940
_cell_length_c   10.50452293
_cell_angle_alpha   90.00000000
_cell_angle_beta   90.00000000
_cell_angle_gamma   90.00000000
_symmetry_Int_Tables_number   1
_chemical_formula_structural   Cr4Fe13Ni37
_chemical_formula_sum   'Cr4 Fe13 Ni37'
_cell_volume   579.56080162
_cell_formula_units_Z   1
loop_
 _symmetry_equiv_pos_site_id
 _symmetry_equiv_pos_as_xyz
  1  'x, y, z'
loop_
 _atom_site_type_symbol
 _atom_site_label
 _atom_site_symmetry_multiplicity
 _atom_site_fract_x
 _atom_site_fract_y
 _atom_site_fract_z
 _atom_site_occupancy
  Fe  Fe0  1  0.00468933  1.00038764  1.00239160  1
  Fe  Fe1  1  0.16908627  0.16852584  0.16865191  1
  Fe  Fe2  1  1.00118041  0.00366223  0.33629533  1
  Ni  Ni3  1  0.00472002  0.33793645  0.00389354  1
  Ni  Ni4  1  0.16924599  0.50367806  0.16901544  1
  Ni  Ni5  1  0.00419928  0.33746581  0.33602595  1
  Ni  Ni6  1  1.00182023  0.66857380  1.00251180  1
  Ni  Ni7  1  0.16928854  0.83383411  0.16977681  1
  Ni  Ni8  1  1.00200085  0.66858367  0.33561072  1
  Ni  Ni9  1  0.33468916  1.00243728  1.00154836  1
  Cr  Cr10  1  0.50403196  0.17003561  0.16950242  1
  Ni  Ni11  1  0.33562809  0.00274237  0.33611336  1
  Ni  Ni12  1  0.33343045  0.33608868  1.00197305  1
  Ni  Ni13  1  0.50059107  0.50414711  0.17014916  1
  Ni  Ni14  1  0.33397418  0.33492736  0.33681048  1
  Ni  Ni15  1  0.33571263  0.66961631  0.00291867  1
  Ni  Ni16  1  0.50098227  0.83394400  0.17019653  1
  Fe  Fe17  1  0.33615756  0.66816769  0.33556639  1
  Cr  Cr18  1  0.66860683  0.99822155  1.00175603  1
  Ni  Ni19  1  0.83824385  0.17067241  0.16999112  1
  Ni  Ni20  1  0.66860733  1.00104857  0.33714719  1
  Fe  Fe21  1  0.66875469  0.33909060  0.00274968  1
  Fe  Fe22  1  0.83566617  0.50411865  0.16960703  1
  Ni  Ni23  1  0.67027553  0.33670170  0.33598183  1
  Ni  Ni24  1  0.67040393  0.66960442  0.00367985  1
  Ni  Ni25  1  0.83773318  0.83681330  0.17058412  1
  Ni  Ni26  1  0.67092089  0.67076877  0.33497095  1
  Fe  Fe27  1  0.16857565  0.16905638  0.50273758  1
  Ni  Ni28  1  0.00368584  1.00125243  0.66871283  1
  Ni  Ni29  1  0.16969821  0.16820164  0.83697732  1
  Ni  Ni30  1  0.16796804  0.50527010  0.50262983  1
  Ni  Ni31  1  0.00306886  0.33781384  0.66845969  1
  Fe  Fe32  1  0.16798017  0.50340721  0.83700401  1
  Fe  Fe33  1  0.16846005  0.83649257  0.50273545  1
  Ni  Ni34  1  1.00148511  0.66864051  0.66984957  1
  Ni  Ni35  1  0.17021443  0.83471382  0.83534857  1
  Ni  Ni36  1  0.50460086  0.16734648  0.50227526  1
  Ni  Ni37  1  0.33650675  1.00237394  0.67028067  1
  Ni  Ni38  1  0.50131614  0.16905951  0.83563395  1
  Fe  Fe39  1  0.50520502  0.50250813  0.50056042  1
  Cr  Cr40  1  0.33544534  0.33509736  0.66935136  1
  Fe  Fe41  1  0.50422108  0.50393672  0.83798051  1
  Ni  Ni42  1  0.50057150  0.83625210  0.50212136  1
  Fe  Fe43  1  0.33612207  0.67080596  0.66919505  1
  Ni  Ni44  1  0.50076716  0.83508421  0.83537002  1
  Ni  Ni45  1  0.83503289  0.17084490  0.50367931  1
  Ni  Ni46  1  0.66768840  1.00069956  0.66833454  1
  Cr  Cr47  1  0.83623545  0.17111626  0.83408062  1
  Ni  Ni48  1  0.83815843  0.50143817  0.50211867  1
  Ni  Ni49  1  0.66940224  0.33785061  0.66902640  1
  Ni  Ni50  1  0.83689524  0.50370029  0.83655802  1
  Fe  Fe51  1  0.83501259  0.83509898  0.50297735  1
  Ni  Ni52  1  0.67055699  0.66982146  0.66942705  1
  Ni  Ni53  1  0.83707872  0.83291677  0.83374915  1
" 