862,Ni69Fe15Cr15_15,-234.828114728254, 183.908022763233,Ni69Fe15Cr15,"# generated using pymatgen
 data_Cr9Fe8Ni37
_symmetry_space_group_name_H-M   'P 1'
_cell_length_a   7.44482747
_cell_length_b   7.44482747
_cell_length_c   10.52857598
_cell_angle_alpha   90.00000000
_cell_angle_beta   90.00000000
_cell_angle_gamma   90.00000000
_symmetry_Int_Tables_number   1
_chemical_formula_structural   Cr9Fe8Ni37
_chemical_formula_sum   'Cr9 Fe8 Ni37'
_cell_volume   583.55112535
_cell_formula_units_Z   1
loop_
 _symmetry_equiv_pos_site_id
 _symmetry_equiv_pos_as_xyz
  1  'x, y, z'
loop_
 _atom_site_type_symbol
 _atom_site_label
 _atom_site_symmetry_multiplicity
 _atom_site_fract_x
 _atom_site_fract_y
 _atom_site_fract_z
 _atom_site_occupancy
  Ni  Ni0  1  0.00235003  1.00105109  1.00038771  1
  Ni  Ni1  1  0.17044689  0.16848059  0.16850239  1
  Fe  Fe2  1  1.00112247  1.00004332  0.33369135  1
  Ni  Ni3  1  0.00283125  0.33502231  1.00068963  1
  Ni  Ni4  1  0.17034474  0.50085042  0.16853596  1
  Fe  Fe5  1  0.00460888  0.33670188  0.33542347  1
  Ni  Ni6  1  0.00208375  0.66838561  0.99992810  1
  Fe  Fe7  1  0.16891599  0.83464622  0.16778100  1
  Ni  Ni8  1  1.00134364  0.66811386  0.33577080  1
  Ni  Ni9  1  0.33499164  0.00173491  1.00140695  1
  Ni  Ni10  1  0.49805274  0.16716289  0.16717503  1
  Ni  Ni11  1  0.33596302  0.00193788  0.33321896  1
  Ni  Ni12  1  0.33379326  0.33357080  0.00221703  1
  Ni  Ni13  1  0.49855041  0.50260540  0.16723009  1
  Ni  Ni14  1  0.33402922  0.33479369  0.33499065  1
  Ni  Ni15  1  0.33381271  0.66917337  0.00281444  1
  Ni  Ni16  1  0.50202529  0.83467955  0.16854472  1
  Ni  Ni17  1  0.33484492  0.66774313  0.33435978  1
  Ni  Ni18  1  0.66712191  1.00100482  1.00111006  1
  Cr  Cr19  1  0.83577847  0.16569219  0.16688682  1
  Fe  Fe20  1  0.66649684  0.99857083  0.33551572  1
  Ni  Ni21  1  0.66787576  0.33382331  1.00010373  1
  Cr  Cr22  1  0.83504371  0.50455584  0.16649859  1
  Cr  Cr23  1  0.66710929  0.33480149  0.33649277  1
  Ni  Ni24  1  0.66856855  0.66964283  0.00178563  1
  Ni  Ni25  1  0.83427051  0.83458996  0.16838716  1
  Ni  Ni26  1  0.66830089  0.67009599  0.33620048  1
  Cr  Cr27  1  0.16980576  0.16851385  0.50075969  1
  Fe  Fe28  1  0.99940716  0.99964231  0.67002826  1
  Ni  Ni29  1  0.16968263  0.16686550  0.83547084  1
  Ni  Ni30  1  0.16844547  0.50180285  0.50006538  1
  Cr  Cr31  1  0.99997919  0.33685634  0.66837692  1
  Ni  Ni32  1  0.16595069  0.50147915  0.83594824  1
  Cr  Cr33  1  0.16675081  0.83408713  0.50134304  1
  Ni  Ni34  1  1.00110959  0.66791162  0.66878469  1
  Ni  Ni35  1  0.16653301  0.83611600  0.83576983  1
  Ni  Ni36  1  0.50243607  0.16834472  0.50271885  1
  Ni  Ni37  1  0.33700720  0.00291222  0.66990070  1
  Ni  Ni38  1  0.50073874  0.16642505  0.83452901  1
  Ni  Ni39  1  0.50121622  0.49986546  0.50049102  1
  Fe  Fe40  1  0.33675311  0.33335147  0.66806349  1
  Cr  Cr41  1  0.50213712  0.49966337  0.83730323  1
  Fe  Fe42  1  0.50307582  0.83615874  0.49994734  1
  Cr  Cr43  1  0.33247460  0.66929062  0.66787890  1
  Ni  Ni44  1  0.50185630  0.83857999  0.83585515  1
  Ni  Ni45  1  0.83247031  0.16627056  0.50195280  1
  Ni  Ni46  1  0.66703203  0.00404022  0.66702388  1
  Fe  Fe47  1  0.83395397  0.16734441  0.83561174  1
  Ni  Ni48  1  0.83488951  0.50306471  0.50085083  1
  Ni  Ni49  1  0.66866454  0.33145414  0.66708510  1
  Ni  Ni50  1  0.83653604  0.50259972  0.83636796  1
  Ni  Ni51  1  0.83427089  0.83503021  0.50060934  1
  Cr  Cr52  1  0.67066988  0.66853935  0.66676634  1
  Ni  Ni53  1  0.83606189  0.83490145  0.83543373  1
" 