6952,Ni69Fe24Cr5_11,-239.454086058031, 207.055055938956,Ni69Fe24Cr5,"# generated using pymatgen
 data_Cr4Fe13Ni37
_symmetry_space_group_name_H-M   'P 1'
_cell_length_a   7.42230807
_cell_length_b   7.42230807
_cell_length_c   10.49672873
_cell_angle_alpha   90.00000000
_cell_angle_beta   90.00000000
_cell_angle_gamma   90.00000000
_symmetry_Int_Tables_number   1
_chemical_formula_structural   Cr4Fe13Ni37
_chemical_formula_sum   'Cr4 Fe13 Ni37'
_cell_volume   578.27168268
_cell_formula_units_Z   1
loop_
 _symmetry_equiv_pos_site_id
 _symmetry_equiv_pos_as_xyz
  1  'x, y, z'
loop_
 _atom_site_type_symbol
 _atom_site_label
 _atom_site_symmetry_multiplicity
 _atom_site_fract_x
 _atom_site_fract_y
 _atom_site_fract_z
 _atom_site_occupancy
  Cr  Cr0  1  0.00382413  0.00497492  0.00331854  1
  Ni  Ni1  1  0.16977082  0.17275545  0.17024689  1
  Ni  Ni2  1  1.00235729  0.00404740  0.33727797  1
  Ni  Ni3  1  1.00299535  0.33767071  1.00278472  1
  Ni  Ni4  1  0.16924643  0.50163738  0.16969508  1
  Ni  Ni5  1  1.00259018  0.33582745  0.33593558  1
  Ni  Ni6  1  1.00230613  0.66665262  0.00320331  1
  Cr  Cr7  1  0.17218733  0.83468684  0.17046182  1
  Ni  Ni8  1  1.00135621  0.66906413  0.33731595  1
  Ni  Ni9  1  0.33841624  0.00414436  1.00139031  1
  Ni  Ni10  1  0.50272253  0.16786913  0.17012141  1
  Ni  Ni11  1  0.33683129  0.00434340  0.33765626  1
  Ni  Ni12  1  0.33600272  0.33611897  0.00389388  1
  Fe  Fe13  1  0.50045523  0.50273661  0.17067208  1
  Ni  Ni14  1  0.33694485  0.33555377  0.33523531  1
  Ni  Ni15  1  0.33707989  0.66868173  1.00202022  1
  Ni  Ni16  1  0.50465499  0.83584787  0.16985367  1
  Ni  Ni17  1  0.33779526  0.66892948  0.33782479  1
  Fe  Fe18  1  0.66769810  0.00321309  0.00327155  1
  Ni  Ni19  1  0.83612270  0.17028798  0.17116565  1
  Fe  Fe20  1  0.66904492  1.00287187  0.33745932  1
  Cr  Cr21  1  0.66937208  0.33650190  1.00214822  1
  Fe  Fe22  1  0.83771781  0.50301423  0.17001587  1
  Fe  Fe23  1  0.66945693  0.33615072  0.33662984  1
  Fe  Fe24  1  0.66816731  0.66947392  0.00344966  1
  Fe  Fe25  1  0.83585414  0.83659408  0.17122302  1
  Ni  Ni26  1  0.66964835  0.66914940  0.33550262  1
  Ni  Ni27  1  0.16930898  0.17009226  0.50173418  1
  Ni  Ni28  1  0.00331902  0.00359583  0.66862839  1
  Ni  Ni29  1  0.16965154  0.17207008  0.83677196  1
  Fe  Fe30  1  0.17065789  0.50256031  0.50231577  1
  Fe  Fe31  1  0.00444735  0.33603730  0.66980426  1
  Ni  Ni32  1  0.17011115  0.50185971  0.83666214  1
  Ni  Ni33  1  0.16964303  0.83622822  0.50378044  1
  Ni  Ni34  1  1.00265981  0.66933952  0.66867568  1
  Fe  Fe35  1  0.17085895  0.83485117  0.83485557  1
  Ni  Ni36  1  0.50301125  0.17065596  0.50350621  1
  Ni  Ni37  1  0.33634514  0.00387570  0.66991559  1
  Fe  Fe38  1  0.50222409  0.17019847  0.83522206  1
  Ni  Ni39  1  0.50297504  0.50315476  0.50239219  1
  Ni  Ni40  1  0.33734272  0.33631146  0.67007549  1
  Ni  Ni41  1  0.50161567  0.50517558  0.83641557  1
  Ni  Ni42  1  0.50339347  0.83528973  0.50322417  1
  Ni  Ni43  1  0.33708456  0.66882310  0.66927768  1
  Ni  Ni44  1  0.50196471  0.83547970  0.83601231  1
  Ni  Ni45  1  0.83688651  0.16982223  0.50357189  1
  Ni  Ni46  1  0.66929550  0.00342028  0.66908904  1
  Ni  Ni47  1  0.83769576  0.17111272  0.83433124  1
  Fe  Fe48  1  0.83577192  0.50335108  0.50312009  1
  Fe  Fe49  1  0.66888000  0.33692155  0.66985663  1
  Ni  Ni50  1  0.83742644  0.50223396  0.83545436  1
  Ni  Ni51  1  0.83598269  0.83655989  0.50209513  1
  Ni  Ni52  1  0.66933259  0.66877415  0.66961141  1
  Cr  Cr53  1  0.83424327  0.83615411  0.83657528  1
" 