994,Ni69Cr31_16,-211.771578477498, 147.446924387008,Ni69Cr31,"# generated using pymatgen
 data_Cr37Ni17
_symmetry_space_group_name_H-M   'P 1'
_cell_length_a   7.55212692
_cell_length_b   7.55212692
_cell_length_c   10.68032031
_cell_angle_alpha   90.00000000
_cell_angle_beta   90.00000000
_cell_angle_gamma   90.00000000
_symmetry_Int_Tables_number   1
_chemical_formula_structural   Cr37Ni17
_chemical_formula_sum   'Cr37 Ni17'
_cell_volume   609.14802109
_cell_formula_units_Z   1
loop_
 _symmetry_equiv_pos_site_id
 _symmetry_equiv_pos_as_xyz
  1  'x, y, z'
loop_
 _atom_site_type_symbol
 _atom_site_label
 _atom_site_symmetry_multiplicity
 _atom_site_fract_x
 _atom_site_fract_y
 _atom_site_fract_z
 _atom_site_occupancy
  Cr  Cr0  1  -0.00520447  -0.00288091  -0.00329609  1
  Ni  Ni1  1  0.16342547  0.16658916  0.16159785  1
  Cr  Cr2  1  -0.00407742  -0.00250781  0.32638278  1
  Cr  Cr3  1  -0.00554423  0.32738167  -0.00238529  1
  Ni  Ni4  1  0.16442823  0.49003940  0.16229557  1
  Cr  Cr5  1  -0.00448646  0.32673229  0.32541542  1
  Cr  Cr6  1  -0.00542981  0.65852818  -0.00290046  1
  Cr  Cr7  1  0.16237250  0.82681711  0.16148108  1
  Cr  Cr8  1  -0.00460330  0.65833701  0.32469071  1
  Cr  Cr9  1  0.32959965  -0.00228180  -0.00303855  1
  Ni  Ni10  1  0.49466664  0.16419217  0.16105238  1
  Cr  Cr11  1  0.32806723  -0.00256520  0.32629193  1
  Ni  Ni12  1  0.32875337  0.32776644  0.00034668  1
  Ni  Ni13  1  0.49353199  0.49246560  0.16213501  1
  Ni  Ni14  1  0.32753745  0.32837998  0.32373841  1
  Cr  Cr15  1  0.32973657  0.65769197  -0.00306200  1
  Cr  Cr16  1  0.49606601  0.82845152  0.16184782  1
  Ni  Ni17  1  0.33064167  0.65692025  0.32557334  1
  Ni  Ni18  1  0.66129174  -0.00315278  -0.00322808  1
  Ni  Ni19  1  0.82512190  0.16235376  0.16066400  1
  Ni  Ni20  1  0.65960168  -0.00420428  0.32392353  1
  Cr  Cr21  1  0.65877453  0.32794732  -0.00461866  1
  Ni  Ni22  1  0.82489913  0.49324689  0.16128402  1
  Cr  Cr23  1  0.65803504  0.32786342  0.32553502  1
  Ni  Ni24  1  0.65991881  0.66014012  -0.00230707  1
  Cr  Cr25  1  0.82514928  0.82865522  0.16172406  1
  Ni  Ni26  1  0.65747240  0.65967049  0.32384130  1
  Ni  Ni27  1  0.16419943  0.16170491  0.49417171  1
  Cr  Cr28  1  -0.00498050  -0.00498237  0.66025611  1
  Cr  Cr29  1  0.16203309  0.16261816  0.82817583  1
  Cr  Cr30  1  0.16354247  0.49205887  0.49349750  1
  Cr  Cr31  1  0.99253588  0.32623451  0.66018248  1
  Cr  Cr32  1  0.16315671  0.49266018  0.82828096  1
  Cr  Cr33  1  0.16340261  0.82694431  0.49446996  1
  Cr  Cr34  1  0.99436133  0.66157441  0.66130043  1
  Cr  Cr35  1  0.16286576  0.82776005  0.82693950  1
  Cr  Cr36  1  0.49277940  0.16111996  0.49225466  1
  Ni  Ni37  1  0.32728828  0.99362439  0.65962024  1
  Cr  Cr38  1  0.49383696  0.16070355  0.82984470  1
  Cr  Cr39  1  0.49301135  0.49483280  0.49234448  1
  Cr  Cr40  1  0.32948726  0.32662596  0.66002459  1
  Cr  Cr41  1  0.49243322  0.49396516  0.82885316  1
  Cr  Cr42  1  0.49457749  0.82736748  0.49158034  1
  Ni  Ni43  1  0.32855452  0.66320063  0.66063773  1
  Cr  Cr44  1  0.49432232  0.82826969  0.82915929  1
  Cr  Cr45  1  0.82751959  0.16053659  0.49279568  1
  Cr  Cr46  1  0.65920903  -0.00452344  0.66153526  1
  Ni  Ni47  1  0.82677582  0.15941193  0.82965464  1
  Cr  Cr48  1  0.82642730  0.49507213  0.49248568  1
  Cr  Cr49  1  0.66144081  0.32704513  0.66206968  1
  Cr  Cr50  1  0.82747767  0.49282628  0.82863738  1
  Cr  Cr51  1  0.82483195  0.82758527  0.48845209  1
  Cr  Cr52  1  0.65905633  0.66027115  0.66108591  1
  Cr  Cr53  1  0.82593689  0.82874367  0.83253386  1
" 