1152,Ni69Fe24Cr5_5,-239.555208068776, 206.27937152135,Ni69Fe24Cr5,"# generated using pymatgen
 data_Cr4Fe13Ni37
_symmetry_space_group_name_H-M   'P 1'
_cell_length_a   7.42466673
_cell_length_b   7.42466673
_cell_length_c   10.50006439
_cell_angle_alpha   90.00000000
_cell_angle_beta   90.00000000
_cell_angle_gamma   90.00000000
_symmetry_Int_Tables_number   1
_chemical_formula_structural   Cr4Fe13Ni37
_chemical_formula_sum   'Cr4 Fe13 Ni37'
_cell_volume   578.82314891
_cell_formula_units_Z   1
loop_
 _symmetry_equiv_pos_site_id
 _symmetry_equiv_pos_as_xyz
  1  'x, y, z'
loop_
 _atom_site_type_symbol
 _atom_site_label
 _atom_site_symmetry_multiplicity
 _atom_site_fract_x
 _atom_site_fract_y
 _atom_site_fract_z
 _atom_site_occupancy
  Ni  Ni0  1  0.00309965  1.00218602  1.00220448  1
  Ni  Ni1  1  0.16948491  0.16827109  0.16986256  1
  Ni  Ni2  1  0.00320846  0.00299539  0.33623860  1
  Cr  Cr3  1  0.00339237  0.33581298  1.00282242  1
  Fe  Fe4  1  0.17065090  0.50397698  0.17051020  1
  Fe  Fe5  1  0.00290138  0.33570948  0.33655497  1
  Fe  Fe6  1  1.00272468  0.67251703  1.00279889  1
  Ni  Ni7  1  0.16846478  0.83625776  0.16963328  1
  Ni  Ni8  1  0.00493707  0.66917701  0.33518459  1
  Ni  Ni9  1  0.33695302  1.00269544  1.00239260  1
  Ni  Ni10  1  0.50362097  0.17054033  0.16885033  1
  Ni  Ni11  1  0.33619544  1.00254827  0.33622264  1
  Fe  Fe12  1  0.33722692  0.33432162  0.00314532  1
  Ni  Ni13  1  0.50261103  0.50197348  0.16879924  1
  Fe  Fe14  1  0.33655548  0.33576296  0.33664695  1
  Fe  Fe15  1  0.33590400  0.67164452  0.00354822  1
  Ni  Ni16  1  0.50257893  0.83604630  0.16871591  1
  Ni  Ni17  1  0.33418811  0.66989975  0.33596792  1
  Ni  Ni18  1  0.66850966  1.00205042  0.00360086  1
  Ni  Ni19  1  0.83545891  0.16830219  0.17108526  1
  Ni  Ni20  1  0.66915894  0.00508146  0.33528503  1
  Fe  Fe21  1  0.66869852  0.33410592  0.00379979  1
  Fe  Fe22  1  0.83545481  0.50301781  0.17003973  1
  Ni  Ni23  1  0.66988464  0.33438497  0.33560929  1
  Ni  Ni24  1  0.66976812  0.67078204  0.00311526  1
  Ni  Ni25  1  0.83751786  0.83726821  0.16815409  1
  Cr  Cr26  1  0.66898301  0.66995512  0.33763135  1
  Ni  Ni27  1  0.16959121  0.16939478  0.50350705  1
  Fe  Fe28  1  0.00543942  0.00336465  0.66965360  1
  Ni  Ni29  1  0.16921914  0.16847863  0.83519274  1
  Ni  Ni30  1  0.16930413  0.50303358  0.50272364  1
  Ni  Ni31  1  0.00290330  0.33777999  0.66926602  1
  Ni  Ni32  1  0.16863765  0.50375218  0.83534230  1
  Ni  Ni33  1  0.16885104  0.83613301  0.50286773  1
  Ni  Ni34  1  0.00369762  0.66769300  0.67029584  1
  Ni  Ni35  1  0.16893678  0.83633627  0.83605884  1
  Ni  Ni36  1  0.50217675  0.17093016  0.50208780  1
  Ni  Ni37  1  0.33555601  1.00260958  0.66994817  1
  Ni  Ni38  1  0.50282068  0.16921979  0.83762396  1
  Ni  Ni39  1  0.50288018  0.50191435  0.50412090  1
  Ni  Ni40  1  0.33484080  0.33571633  0.66911049  1
  Cr  Cr41  1  0.50276437  0.50253009  0.83497353  1
  Ni  Ni42  1  0.50179700  0.83571693  0.50274808  1
  Ni  Ni43  1  0.33452264  0.67023618  0.66876094  1
  Ni  Ni44  1  0.50208699  0.83659845  0.83710001  1
  Fe  Fe45  1  0.83651242  0.17051838  0.50194203  1
  Cr  Cr46  1  0.66774990  0.00317564  0.66909611  1
  Ni  Ni47  1  0.83652573  0.16952033  0.83589591  1
  Ni  Ni48  1  0.83637781  0.50265600  0.50415552  1
  Ni  Ni49  1  0.67082161  0.33674771  0.66957468  1
  Fe  Fe50  1  0.83732327  0.50303785  0.83462947  1
  Ni  Ni51  1  0.83791574  0.83542864  0.50297474  1
  Fe  Fe52  1  0.66959517  0.66815445  0.66857029  1
  Fe  Fe53  1  0.83713924  0.83615768  0.83747904  1
" 