8895,Ni69Fe24Cr5_13,-239.182578784801, 201.845931800466,Ni69Fe24Cr5,"# generated using pymatgen
 data_Cr4Fe13Ni37
_symmetry_space_group_name_H-M   'P 1'
_cell_length_a   7.42622973
_cell_length_b   7.42622973
_cell_length_c   10.50227480
_cell_angle_alpha   90.00000000
_cell_angle_beta   90.00000000
_cell_angle_gamma   90.00000000
_symmetry_Int_Tables_number   1
_chemical_formula_structural   Cr4Fe13Ni37
_chemical_formula_sum   'Cr4 Fe13 Ni37'
_cell_volume   579.18877732
_cell_formula_units_Z   1
loop_
 _symmetry_equiv_pos_site_id
 _symmetry_equiv_pos_as_xyz
  1  'x, y, z'
loop_
 _atom_site_type_symbol
 _atom_site_label
 _atom_site_symmetry_multiplicity
 _atom_site_fract_x
 _atom_site_fract_y
 _atom_site_fract_z
 _atom_site_occupancy
  Fe  Fe0  1  1.00230340  0.00359299  1.00176550  1
  Ni  Ni1  1  0.16930853  0.16967938  0.16929266  1
  Ni  Ni2  1  0.00305785  0.00376879  0.33559004  1
  Fe  Fe3  1  1.00265765  0.33395669  1.00213284  1
  Cr  Cr4  1  0.17063038  0.50178971  0.17032148  1
  Ni  Ni5  1  1.00157898  0.33493607  0.33608431  1
  Ni  Ni6  1  1.00098487  0.66966660  1.00110979  1
  Cr  Cr7  1  0.16811028  0.83695616  0.16996101  1
  Ni  Ni8  1  1.00127538  0.66953501  0.33797701  1
  Ni  Ni9  1  0.33596469  0.00465249  0.00325953  1
  Ni  Ni10  1  0.50354975  0.17079707  0.16918002  1
  Ni  Ni11  1  0.33622084  0.00332107  0.33658483  1
  Ni  Ni12  1  0.33634203  0.33510612  0.00348476  1
  Ni  Ni13  1  0.50387883  0.50206253  0.16910670  1
  Fe  Fe14  1  0.33653202  0.33573316  0.33675567  1
  Fe  Fe15  1  0.33705077  0.66883998  1.00176678  1
  Fe  Fe16  1  0.50415003  0.83718113  0.16979350  1
  Ni  Ni17  1  0.33779136  0.67020360  0.33670428  1
  Ni  Ni18  1  0.67024786  0.00280217  0.00525655  1
  Ni  Ni19  1  0.83538812  0.16839385  0.16904998  1
  Fe  Fe20  1  0.67021691  1.00245518  0.33612817  1
  Fe  Fe21  1  0.66922139  0.33614719  0.00377010  1
  Fe  Fe22  1  0.83474104  0.50225094  0.17005465  1
  Ni  Ni23  1  0.66963375  0.33651084  0.33531742  1
  Fe  Fe24  1  0.66957853  0.66919228  0.00351148  1
  Ni  Ni25  1  0.83486269  0.83670000  0.16912785  1
  Ni  Ni26  1  0.66917872  0.66872351  0.33509250  1
  Ni  Ni27  1  0.16887675  0.17001638  0.50231108  1
  Ni  Ni28  1  1.00223212  1.00269606  0.67075692  1
  Ni  Ni29  1  0.16696678  0.16960146  0.83664012  1
  Ni  Ni30  1  0.17031612  0.50331644  0.50293012  1
  Ni  Ni31  1  0.00303563  0.33541580  0.67018973  1
  Fe  Fe32  1  0.16921859  0.50281668  0.83553257  1
  Ni  Ni33  1  0.16865292  0.83491456  0.50293069  1
  Ni  Ni34  1  0.00303380  0.67013090  0.66915995  1
  Ni  Ni35  1  0.16660683  0.83541459  0.83599015  1
  Ni  Ni36  1  0.50340257  0.17040256  0.50315746  1
  Fe  Fe37  1  0.33419015  1.00274726  0.66764072  1
  Cr  Cr38  1  0.50339763  0.17195490  0.83460362  1
  Ni  Ni39  1  0.50186786  0.50283302  0.50304823  1
  Ni  Ni40  1  0.33581857  0.33706379  0.66840994  1
  Ni  Ni41  1  0.50230199  0.50269401  0.83609148  1
  Ni  Ni42  1  0.50314554  0.83500954  0.50243240  1
  Ni  Ni43  1  0.33554974  0.66821094  0.66964502  1
  Cr  Cr44  1  0.50301516  0.83388352  0.83573883  1
  Ni  Ni45  1  0.83596553  0.16873686  0.50305124  1
  Ni  Ni46  1  0.67130979  0.00296467  0.66742458  1
  Ni  Ni47  1  0.83816847  0.16896677  0.83615066  1
  Fe  Fe48  1  0.83615303  0.50267908  0.50262026  1
  Ni  Ni49  1  0.66939174  0.33626636  0.66967901  1
  Fe  Fe50  1  0.83652451  0.50303002  0.83556914  1
  Ni  Ni51  1  0.83644903  0.83644662  0.50305273  1
  Ni  Ni52  1  0.66966145  0.66901341  0.66940351  1
  Ni  Ni53  1  0.83869511  0.83622336  0.83606453  1
" 