4791,Ni69Fe20Cr9_9,-237.081528741643, 193.5113503281,Ni69Fe20Cr9,"# generated using pymatgen
 data_Cr7Fe10Ni37
_symmetry_space_group_name_H-M   'P 1'
_cell_length_a   7.43591305
_cell_length_b   7.43591305
_cell_length_c   10.51596909
_cell_angle_alpha   90.00000000
_cell_angle_beta   90.00000000
_cell_angle_gamma   90.00000000
_symmetry_Int_Tables_number   1
_chemical_formula_structural   Cr7Fe10Ni37
_chemical_formula_sum   'Cr7 Fe10 Ni37'
_cell_volume   581.45740684
_cell_formula_units_Z   1
loop_
 _symmetry_equiv_pos_site_id
 _symmetry_equiv_pos_as_xyz
  1  'x, y, z'
loop_
 _atom_site_type_symbol
 _atom_site_label
 _atom_site_symmetry_multiplicity
 _atom_site_fract_x
 _atom_site_fract_y
 _atom_site_fract_z
 _atom_site_occupancy
  Ni  Ni0  1  0.00363744  0.00297625  1.00069494  1
  Fe  Fe1  1  0.16901203  0.16737967  0.16855410  1
  Ni  Ni2  1  0.00367956  0.00425806  0.33728876  1
  Ni  Ni3  1  0.00220271  0.33408614  0.00301007  1
  Ni  Ni4  1  0.16928422  0.50058302  0.16780615  1
  Ni  Ni5  1  0.00263367  0.33214296  0.33384042  1
  Ni  Ni6  1  0.00280657  0.66859781  1.00092775  1
  Ni  Ni7  1  0.17103975  0.83563053  0.16807474  1
  Cr  Cr8  1  0.00534975  0.67017848  0.33627246  1
  Ni  Ni9  1  0.33519002  0.00222476  0.00222781  1
  Fe  Fe10  1  0.50043941  0.16684220  0.17013168  1
  Ni  Ni11  1  0.33488249  0.00224763  0.33539780  1
  Ni  Ni12  1  0.33387468  0.33327251  1.00080414  1
  Cr  Cr13  1  0.49834522  0.50293945  0.16938048  1
  Ni  Ni14  1  0.33552164  0.33323407  0.33638799  1
  Ni  Ni15  1  0.33542338  0.67016157  1.00113360  1
  Ni  Ni16  1  0.49978416  0.83744890  0.16810233  1
  Ni  Ni17  1  0.33557224  0.67016672  0.33763086  1
  Fe  Fe18  1  0.66800954  0.00259849  1.00069189  1
  Ni  Ni19  1  0.83637684  0.16931922  0.17097518  1
  Fe  Fe20  1  0.66753973  0.00427851  0.33615648  1
  Cr  Cr21  1  0.66789328  0.33521024  1.00117013  1
  Fe  Fe22  1  0.83728214  0.50169845  0.16775754  1
  Ni  Ni23  1  0.66814253  0.33255901  0.33603857  1
  Ni  Ni24  1  0.66844277  0.66979980  1.00022787  1
  Cr  Cr25  1  0.83561140  0.83950842  0.16586146  1
  Cr  Cr26  1  0.66680420  0.66903522  0.33613647  1
  Ni  Ni27  1  0.16868954  0.16891037  0.50160483  1
  Ni  Ni28  1  0.00303756  0.00425530  0.66815686  1
  Ni  Ni29  1  0.16675103  0.16864579  0.83633052  1
  Ni  Ni30  1  0.17229163  0.49910370  0.50204107  1
  Ni  Ni31  1  0.00290092  0.33254782  0.66965177  1
  Ni  Ni32  1  0.17007146  0.50054751  0.83632529  1
  Ni  Ni33  1  0.17047452  0.83828515  0.50206788  1
  Cr  Cr34  1  0.00374988  0.66984088  0.66930127  1
  Ni  Ni35  1  0.17112082  0.83708149  0.83626638  1
  Ni  Ni36  1  0.50150161  0.16862465  0.50200262  1
  Ni  Ni37  1  0.33469362  0.00289101  0.66876250  1
  Fe  Fe38  1  0.49923928  0.16863857  0.83397514  1
  Ni  Ni39  1  0.50000910  0.50093518  0.50329948  1
  Ni  Ni40  1  0.33528740  0.33389770  0.66905584  1
  Ni  Ni41  1  0.50092765  0.50399321  0.83365385  1
  Ni  Ni42  1  0.50140274  0.83672897  0.50197247  1
  Ni  Ni43  1  0.33838436  0.66960171  0.66749412  1
  Ni  Ni44  1  0.50191613  0.83518968  0.83618934  1
  Fe  Fe45  1  0.83598205  0.16739901  0.50207905  1
  Fe  Fe46  1  0.66725763  1.00181693  0.66899423  1
  Ni  Ni47  1  0.83676913  0.16773206  0.83342279  1
  Cr  Cr48  1  0.83544266  0.49921131  0.50169225  1
  Fe  Fe49  1  0.66746572  0.33489155  0.66976280  1
  Ni  Ni50  1  0.83537107  0.49987729  0.83717710  1
  Ni  Ni51  1  0.83418768  0.83973380  0.50377405  1
  Ni  Ni52  1  0.66712918  0.66899915  0.66967073  1
  Fe  Fe53  1  0.83621470  0.83529250  0.83564453  1
" 