329,Ni69Fe24Cr5_2,-239.535658933587, 207.790425025164,Ni69Fe24Cr5,"# generated using pymatgen
 data_Cr4Fe13Ni37
_symmetry_space_group_name_H-M   'P 1'
_cell_length_a   7.42510854
_cell_length_b   7.42510854
_cell_length_c   10.50068919
_cell_angle_alpha   90.00000000
_cell_angle_beta   90.00000000
_cell_angle_gamma   90.00000000
_symmetry_Int_Tables_number   1
_chemical_formula_structural   Cr4Fe13Ni37
_chemical_formula_sum   'Cr4 Fe13 Ni37'
_cell_volume   578.92648291
_cell_formula_units_Z   1
loop_
 _symmetry_equiv_pos_site_id
 _symmetry_equiv_pos_as_xyz
  1  'x, y, z'
loop_
 _atom_site_type_symbol
 _atom_site_label
 _atom_site_symmetry_multiplicity
 _atom_site_fract_x
 _atom_site_fract_y
 _atom_site_fract_z
 _atom_site_occupancy
  Ni  Ni0  1  0.00298135  1.00130046  0.00371050  1
  Ni  Ni1  1  0.16876523  0.16878200  0.16925603  1
  Ni  Ni2  1  1.00165344  1.00279944  0.33608643  1
  Cr  Cr3  1  1.00187309  0.33654596  0.00373241  1
  Ni  Ni4  1  0.17071002  0.50373089  0.17062001  1
  Ni  Ni5  1  0.00358318  0.33685472  0.33638370  1
  Ni  Ni6  1  1.00273057  0.67075302  1.00259448  1
  Ni  Ni7  1  0.16828068  0.83595855  0.16795946  1
  Ni  Ni8  1  0.00304776  0.66881576  0.33646400  1
  Ni  Ni9  1  0.33672336  1.00256212  1.00255854  1
  Fe  Fe10  1  0.50299242  0.16977187  0.16755913  1
  Cr  Cr11  1  0.33642933  1.00270520  0.33629686  1
  Ni  Ni12  1  0.33844409  0.33618758  0.00354550  1
  Ni  Ni13  1  0.50199966  0.50369450  0.16807500  1
  Fe  Fe14  1  0.33408684  0.33706814  0.33617056  1
  Ni  Ni15  1  0.33674614  0.66972259  0.00322570  1
  Fe  Fe16  1  0.50374876  0.83531288  0.16828597  1
  Fe  Fe17  1  0.33553039  0.66853848  0.33590681  1
  Ni  Ni18  1  0.66876744  0.00299640  0.00330423  1
  Ni  Ni19  1  0.83695604  0.16758313  0.16947626  1
  Ni  Ni20  1  0.67038184  1.00183057  0.33659662  1
  Ni  Ni21  1  0.66773364  0.33643653  1.00248422  1
  Ni  Ni22  1  0.83575886  0.50418443  0.16889310  1
  Cr  Cr23  1  0.67031611  0.33571336  0.33582172  1
  Ni  Ni24  1  0.66899426  0.66904083  0.00356954  1
  Ni  Ni25  1  0.83700252  0.83670939  0.16945077  1
  Fe  Fe26  1  0.67047663  0.67086589  0.33633236  1
  Ni  Ni27  1  0.16838764  0.16901138  0.50395317  1
  Ni  Ni28  1  0.00321063  0.00354686  0.66866631  1
  Fe  Fe29  1  0.17087742  0.16912575  0.83514233  1
  Fe  Fe30  1  0.16871265  0.50148194  0.50194946  1
  Ni  Ni31  1  1.00246006  0.33595955  0.66859779  1
  Fe  Fe32  1  0.16992501  0.50233572  0.83652342  1
  Ni  Ni33  1  0.16861654  0.83701825  0.50305211  1
  Ni  Ni34  1  1.00051083  0.66896516  0.66941387  1
  Fe  Fe35  1  0.16898609  0.83701452  0.83696139  1
  Ni  Ni36  1  0.50235345  0.16925405  0.50483997  1
  Ni  Ni37  1  0.33644630  0.00477155  0.66933441  1
  Ni  Ni38  1  0.50260928  0.16938840  0.83624831  1
  Ni  Ni39  1  0.50335676  0.50342196  0.50335572  1
  Ni  Ni40  1  0.33647310  0.33400765  0.66855434  1
  Ni  Ni41  1  0.50390321  0.50251178  0.83702594  1
  Ni  Ni42  1  0.50311025  0.83579475  0.50263370  1
  Cr  Cr43  1  0.33715790  0.66989205  0.66911892  1
  Ni  Ni44  1  0.50240212  0.83657087  0.83724327  1
  Ni  Ni45  1  0.83773273  0.16926493  0.50344219  1
  Fe  Fe46  1  0.66924429  0.00307778  0.66940399  1
  Ni  Ni47  1  0.83582852  0.16935196  0.83555502  1
  Ni  Ni48  1  0.83649829  0.50319421  0.50377501  1
  Fe  Fe49  1  0.66987863  0.33644022  0.66977614  1
  Ni  Ni50  1  0.83525780  0.50328151  0.83580306  1
  Fe  Fe51  1  0.83604241  0.83652927  0.50232912  1
  Ni  Ni52  1  0.67076803  0.66894546  0.66864547  1
  Fe  Fe53  1  0.83503991  0.83588125  0.83679915  1
" 