3103,Ni69Fe15Cr15_8,-234.923404698173, 184.853536106564,Ni69Fe15Cr15,"# generated using pymatgen
 data_Cr9Fe8Ni37
_symmetry_space_group_name_H-M   'P 1'
_cell_length_a   7.44587840
_cell_length_b   7.44587840
_cell_length_c   10.53006222
_cell_angle_alpha   90.00000000
_cell_angle_beta   90.00000000
_cell_angle_gamma   90.00000000
_symmetry_Int_Tables_number   1
_chemical_formula_structural   Cr9Fe8Ni37
_chemical_formula_sum   'Cr9 Fe8 Ni37'
_cell_volume   583.79828755
_cell_formula_units_Z   1
loop_
 _symmetry_equiv_pos_site_id
 _symmetry_equiv_pos_as_xyz
  1  'x, y, z'
loop_
 _atom_site_type_symbol
 _atom_site_label
 _atom_site_symmetry_multiplicity
 _atom_site_fract_x
 _atom_site_fract_y
 _atom_site_fract_z
 _atom_site_occupancy
  Ni  Ni0  1  0.00278931  0.00166431  0.00305446  1
  Ni  Ni1  1  0.16891824  0.17037372  0.16811400  1
  Fe  Fe2  1  0.00211587  0.00220370  0.33504901  1
  Fe  Fe3  1  0.00434978  0.33399457  0.00166596  1
  Ni  Ni4  1  0.16964081  0.49989081  0.16832299  1
  Ni  Ni5  1  0.00364856  0.33491922  0.33473097  1
  Ni  Ni6  1  0.00370683  0.66805006  1.00009471  1
  Cr  Cr7  1  0.16821755  0.83314273  0.16772164  1
  Ni  Ni8  1  0.00321496  0.66780476  0.33652052  1
  Ni  Ni9  1  0.33477042  0.00216089  1.00082478  1
  Ni  Ni10  1  0.50052881  0.16777465  0.16660785  1
  Fe  Fe11  1  0.33407941  0.00174060  0.33452277  1
  Ni  Ni12  1  0.33534654  0.33517506  0.00172300  1
  Ni  Ni13  1  0.49907780  0.50173141  0.16853289  1
  Ni  Ni14  1  0.33220220  0.33641209  0.33432906  1
  Ni  Ni15  1  0.33476512  0.66694077  1.00088648  1
  Ni  Ni16  1  0.50303022  0.83487816  0.16804594  1
  Ni  Ni17  1  0.33363127  0.66761764  0.33541506  1
  Ni  Ni18  1  0.66670155  0.00226027  0.00315542  1
  Ni  Ni19  1  0.83524732  0.16640865  0.16812049  1
  Ni  Ni20  1  0.66893063  0.99988725  0.33371963  1
  Ni  Ni21  1  0.66566773  0.33426235  0.00143522  1
  Cr  Cr22  1  0.83674664  0.50333649  0.16514437  1
  Cr  Cr23  1  0.66836932  0.33325395  0.33506706  1
  Ni  Ni24  1  0.66588148  0.66785447  0.00227518  1
  Ni  Ni25  1  0.83332208  0.83586671  0.16842193  1
  Fe  Fe26  1  0.66793581  0.66859167  0.33481916  1
  Ni  Ni27  1  0.16768878  0.16939061  0.50179818  1
  Ni  Ni28  1  0.00543676  1.00133059  0.66530839  1
  Ni  Ni29  1  0.16973211  0.16834999  0.83421914  1
  Ni  Ni30  1  0.16666276  0.50099195  0.50130003  1
  Ni  Ni31  1  0.00330575  0.33560144  0.66731951  1
  Ni  Ni32  1  0.16854143  0.50140990  0.83485788  1
  Ni  Ni33  1  0.16808979  0.83425064  0.50247716  1
  Ni  Ni34  1  0.00481620  0.66727110  0.66746290  1
  Ni  Ni35  1  0.16928538  0.83456224  0.83377016  1
  Cr  Cr36  1  0.49691608  0.16753348  0.50236140  1
  Ni  Ni37  1  0.33201594  0.99960968  0.66919649  1
  Ni  Ni38  1  0.49836842  0.16871686  0.83638454  1
  Fe  Fe39  1  0.49753396  0.50413459  0.50023928  1
  Fe  Fe40  1  0.33105981  0.33563495  0.66939604  1
  Ni  Ni41  1  0.49920846  0.50127396  0.83528579  1
  Ni  Ni42  1  0.50015808  0.83462680  0.49976826  1
  Ni  Ni43  1  0.33221162  0.66897960  0.66800190  1
  Ni  Ni44  1  0.49850168  0.83436731  0.83660488  1
  Fe  Fe45  1  0.83887046  0.16662678  0.50021691  1
  Cr  Cr46  1  0.66697022  1.00088894  0.66848616  1
  Cr  Cr47  1  0.83634113  0.16841343  0.83583754  1
  Ni  Ni48  1  0.83809214  0.50286429  0.50198393  1
  Cr  Cr49  1  0.66829113  0.33588998  0.66753459  1
  Fe  Fe50  1  0.83625284  0.50147099  0.83593354  1
  Ni  Ni51  1  0.83611901  0.83315128  0.49926374  1
  Cr  Cr52  1  0.66661409  0.66771765  0.66670557  1
  Cr  Cr53  1  0.83684279  0.83350709  0.83672861  1
" 