8928,Ni69Fe24Cr5_1,-239.642489491624, 206.383992146511,Ni69Fe24Cr5,"# generated using pymatgen
 data_Cr4Fe13Ni37
_symmetry_space_group_name_H-M   'P 1'
_cell_length_a   7.42554505
_cell_length_b   7.42554505
_cell_length_c   10.50130652
_cell_angle_alpha   90.00000000
_cell_angle_beta   90.00000000
_cell_angle_gamma   90.00000000
_symmetry_Int_Tables_number   1
_chemical_formula_structural   Cr4Fe13Ni37
_chemical_formula_sum   'Cr4 Fe13 Ni37'
_cell_volume   579.02859323
_cell_formula_units_Z   1
loop_
 _symmetry_equiv_pos_site_id
 _symmetry_equiv_pos_as_xyz
  1  'x, y, z'
loop_
 _atom_site_type_symbol
 _atom_site_label
 _atom_site_symmetry_multiplicity
 _atom_site_fract_x
 _atom_site_fract_y
 _atom_site_fract_z
 _atom_site_occupancy
  Ni  Ni0  1  1.00245156  1.00130872  0.00294970  1
  Fe  Fe1  1  0.16842212  0.16824608  0.16837391  1
  Ni  Ni2  1  1.00177034  1.00149491  0.33615491  1
  Fe  Fe3  1  1.00279412  0.33631950  1.00251867  1
  Ni  Ni4  1  0.16768816  0.50393285  0.16876735  1
  Fe  Fe5  1  1.00273465  0.33625547  0.33713906  1
  Ni  Ni6  1  0.00330228  0.67101533  0.00361543  1
  Ni  Ni7  1  0.16784007  0.83536847  0.16922149  1
  Fe  Fe8  1  0.00303046  0.66980901  0.33536618  1
  Ni  Ni9  1  0.33471745  0.00395670  1.00276150  1
  Ni  Ni10  1  0.50305825  0.16918394  0.16736711  1
  Fe  Fe11  1  0.33544322  1.00206012  0.33653514  1
  Ni  Ni12  1  0.33738205  0.33664872  0.00348219  1
  Fe  Fe13  1  0.50250135  0.50350488  0.16741564  1
  Cr  Cr14  1  0.33574534  0.33774183  0.33615133  1
  Ni  Ni15  1  0.33446033  0.66777807  1.00213641  1
  Cr  Cr16  1  0.50255287  0.83729100  0.16890133  1
  Ni  Ni17  1  0.33411323  0.66911416  0.33693499  1
  Ni  Ni18  1  0.67121230  0.00423154  1.00248068  1
  Fe  Fe19  1  0.83687699  0.16789597  0.16877613  1
  Ni  Ni20  1  0.67221604  1.00259680  0.33674710  1
  Ni  Ni21  1  0.66797525  0.33580007  0.00320075  1
  Ni  Ni22  1  0.83769857  0.50361071  0.16851251  1
  Cr  Cr23  1  0.66941480  0.33530869  0.33632697  1
  Ni  Ni24  1  0.67062198  0.66834960  1.00262676  1
  Ni  Ni25  1  0.83780415  0.83543155  0.16970705  1
  Fe  Fe26  1  0.67057326  0.67043686  0.33684367  1
  Ni  Ni27  1  0.16842056  0.16846326  0.50327759  1
  Ni  Ni28  1  1.00196473  0.00450148  0.66928136  1
  Ni  Ni29  1  0.16909473  0.16899364  0.83606631  1
  Ni  Ni30  1  0.16933980  0.50321328  0.50297584  1
  Ni  Ni31  1  0.00327804  0.33370023  0.66839559  1
  Fe  Fe32  1  0.17120819  0.50202751  0.83687887  1
  Ni  Ni33  1  0.17056494  0.83670453  0.50138653  1
  Cr  Cr34  1  0.00368212  0.67065738  0.66960606  1
  Ni  Ni35  1  0.17009334  0.83702421  0.83778211  1
  Ni  Ni36  1  0.50334685  0.16824576  0.50492761  1
  Fe  Fe37  1  0.33610498  0.00332062  0.67009075  1
  Ni  Ni38  1  0.50310963  0.16987635  0.83609145  1
  Ni  Ni39  1  0.50324531  0.50425249  0.50365711  1
  Ni  Ni40  1  0.33666047  0.33701700  0.66881671  1
  Ni  Ni41  1  0.50308381  0.50308366  0.83684874  1
  Fe  Fe42  1  0.50255813  0.83570704  0.50311193  1
  Ni  Ni43  1  0.33747465  0.66800126  0.66931025  1
  Ni  Ni44  1  0.50283399  0.83542325  0.83586576  1
  Ni  Ni45  1  0.83661639  0.16947159  0.50334091  1
  Ni  Ni46  1  0.67063016  0.00368606  0.66915867  1
  Ni  Ni47  1  0.83617882  0.16924418  0.83631066  1
  Ni  Ni48  1  0.83579504  0.50211158  0.50300933  1
  Ni  Ni49  1  0.66844591  0.33538102  0.66888132  1
  Fe  Fe50  1  0.83443701  0.50209143  0.83687309  1
  Fe  Fe51  1  0.83557268  0.83764395  0.50212341  1
  Ni  Ni52  1  0.66730934  0.66931962  0.66857134  1
  Ni  Ni53  1  0.83545650  0.83705336  0.83725406  1
" 