7999,Ni69Fe15Cr15_6,-234.730391121565, 185.265142164856,Ni69Fe15Cr15,"# generated using pymatgen
 data_Cr9Fe8Ni37
_symmetry_space_group_name_H-M   'P 1'
_cell_length_a   7.44823094
_cell_length_b   7.44823094
_cell_length_c   10.53338921
_cell_angle_alpha   90.00000000
_cell_angle_beta   90.00000000
_cell_angle_gamma   90.00000000
_symmetry_Int_Tables_number   1
_chemical_formula_structural   Cr9Fe8Ni37
_chemical_formula_sum   'Cr9 Fe8 Ni37'
_cell_volume   584.35181773
_cell_formula_units_Z   1
loop_
 _symmetry_equiv_pos_site_id
 _symmetry_equiv_pos_as_xyz
  1  'x, y, z'
loop_
 _atom_site_type_symbol
 _atom_site_label
 _atom_site_symmetry_multiplicity
 _atom_site_fract_x
 _atom_site_fract_y
 _atom_site_fract_z
 _atom_site_occupancy
  Ni  Ni0  1  0.00153369  0.00148831  1.00073284  1
  Ni  Ni1  1  0.16730158  0.16802394  0.16973264  1
  Ni  Ni2  1  1.00108200  0.00430506  0.33457422  1
  Ni  Ni3  1  0.99910754  0.33503044  0.00168109  1
  Fe  Fe4  1  0.16714998  0.49976521  0.16789730  1
  Ni  Ni5  1  0.00245034  0.33347922  0.33467069  1
  Ni  Ni6  1  1.00007938  0.66727085  0.99994350  1
  Cr  Cr7  1  0.16904011  0.83638241  0.16625685  1
  Cr  Cr8  1  0.99996284  0.66639942  0.33522941  1
  Ni  Ni9  1  0.33347178  1.00108266  0.00149561  1
  Ni  Ni10  1  0.49936027  0.16748507  0.16755182  1
  Ni  Ni11  1  0.33540070  0.00210419  0.33428629  1
  Cr  Cr12  1  0.33509980  0.33405142  0.00144238  1
  Fe  Fe13  1  0.50220751  0.50285627  0.16741001  1
  Fe  Fe14  1  0.33256133  0.33382422  0.33525087  1
  Ni  Ni15  1  0.33448616  0.66811559  1.00068534  1
  Ni  Ni16  1  0.50062875  0.83345058  0.16886314  1
  Ni  Ni17  1  0.33733237  0.66692635  0.33513268  1
  Cr  Cr18  1  0.66844610  0.00261380  0.00221533  1
  Ni  Ni19  1  0.83712495  0.16984057  0.16746246  1
  Cr  Cr20  1  0.66775670  0.99982610  0.33443484  1
  Ni  Ni21  1  0.66962584  0.33604592  1.00054913  1
  Ni  Ni22  1  0.83428927  0.50074420  0.16613950  1
  Cr  Cr23  1  0.66827854  0.33516721  0.33408496  1
  Ni  Ni24  1  0.66922287  0.66568993  0.00339562  1
  Ni  Ni25  1  0.83375357  0.83320399  0.16746773  1
  Fe  Fe26  1  0.66700647  0.66878384  0.33495882  1
  Fe  Fe27  1  0.16805770  0.16941629  0.50137664  1
  Ni  Ni28  1  1.00015681  0.00364205  0.66848451  1
  Ni  Ni29  1  0.16700601  0.16670987  0.83364117  1
  Ni  Ni30  1  0.16903709  0.49826614  0.50052048  1
  Ni  Ni31  1  0.00135174  0.33300083  0.66743983  1
  Ni  Ni32  1  0.16755563  0.50145896  0.83484310  1
  Cr  Cr33  1  0.16946785  0.83609468  0.50150190  1
  Cr  Cr34  1  1.00060818  0.66713579  0.66939734  1
  Ni  Ni35  1  0.16726552  0.83562106  0.83591840  1
  Ni  Ni36  1  0.49938748  0.16785065  0.50281472  1
  Ni  Ni37  1  0.33533161  0.00330242  0.66801122  1
  Ni  Ni38  1  0.50075118  0.16973127  0.83342046  1
  Ni  Ni39  1  0.50068798  0.50195494  0.50166328  1
  Ni  Ni40  1  0.33513311  0.33433621  0.66697890  1
  Ni  Ni41  1  0.50212129  0.50036124  0.83388558  1
  Ni  Ni42  1  0.50177260  0.83398443  0.50126162  1
  Ni  Ni43  1  0.33708225  0.66615190  0.66796748  1
  Cr  Cr44  1  0.49929644  0.83377159  0.83378304  1
  Fe  Fe45  1  0.83613737  0.16828387  0.50240528  1
  Fe  Fe46  1  0.66825835  0.00165916  0.66707975  1
  Ni  Ni47  1  0.83603391  0.16944191  0.83401236  1
  Ni  Ni48  1  0.83406498  0.50064969  0.50188412  1
  Fe  Fe49  1  0.66719684  0.33495156  0.66846753  1
  Ni  Ni50  1  0.83411470  0.50010255  0.83576631  1
  Ni  Ni51  1  0.83247390  0.83478267  0.50135262  1
  Ni  Ni52  1  0.66696705  0.66734448  0.66581321  1
  Ni  Ni53  1  0.83713284  0.83424790  0.83497490  1
" 