5806,Ni69Fe24Cr5_10,-239.936351594269, 207.088206169067,Ni69Fe24Cr5,"# generated using pymatgen
 data_Cr4Fe13Ni37
_symmetry_space_group_name_H-M   'P 1'
_cell_length_a   7.42791349
_cell_length_b   7.42791349
_cell_length_c   10.50465600
_cell_angle_alpha   90.00000000
_cell_angle_beta   90.00000000
_cell_angle_gamma   90.00000000
_symmetry_Int_Tables_number   1
_chemical_formula_structural   Cr4Fe13Ni37
_chemical_formula_sum   'Cr4 Fe13 Ni37'
_cell_volume   579.58282803
_cell_formula_units_Z   1
loop_
 _symmetry_equiv_pos_site_id
 _symmetry_equiv_pos_as_xyz
  1  'x, y, z'
loop_
 _atom_site_type_symbol
 _atom_site_label
 _atom_site_symmetry_multiplicity
 _atom_site_fract_x
 _atom_site_fract_y
 _atom_site_fract_z
 _atom_site_occupancy
  Ni  Ni0  1  0.00319667  1.00170053  0.00355407  1
  Fe  Fe1  1  0.16801471  0.16865349  0.16976755  1
  Fe  Fe2  1  1.00146185  0.00282341  0.33569414  1
  Ni  Ni3  1  1.00198216  0.33658703  0.00317695  1
  Ni  Ni4  1  0.16953398  0.50344785  0.16990791  1
  Ni  Ni5  1  0.00315962  0.33567906  0.33611847  1
  Ni  Ni6  1  1.00256102  0.66962087  0.00283742  1
  Ni  Ni7  1  0.16796257  0.83500904  0.16920972  1
  Fe  Fe8  1  1.00229836  0.66850147  0.33602956  1
  Ni  Ni9  1  0.33508402  1.00192313  1.00171176  1
  Fe  Fe10  1  0.50371795  0.16982716  0.17001364  1
  Fe  Fe11  1  0.33555508  0.00450084  0.33594740  1
  Cr  Cr12  1  0.33598147  0.33608511  0.00276503  1
  Ni  Ni13  1  0.50180166  0.50187986  0.17047254  1
  Ni  Ni14  1  0.33576713  0.33676087  0.33648442  1
  Ni  Ni15  1  0.33505434  0.67005206  1.00153027  1
  Cr  Cr16  1  0.50254329  0.83512982  0.16829235  1
  Ni  Ni17  1  0.33470252  0.66687525  0.33612485  1
  Ni  Ni18  1  0.66962188  1.00250900  1.00229051  1
  Ni  Ni19  1  0.83602832  0.16890752  0.16929680  1
  Ni  Ni20  1  0.67127699  0.00410163  0.33639246  1
  Ni  Ni21  1  0.67005710  0.33655575  0.00392285  1
  Fe  Fe22  1  0.83606549  0.50287250  0.16942530  1
  Ni  Ni23  1  0.66897503  0.33564944  0.33620947  1
  Ni  Ni24  1  0.67028593  0.66884593  1.00154656  1
  Ni  Ni25  1  0.83759420  0.83807957  0.16907920  1
  Ni  Ni26  1  0.67019991  0.66815369  0.33640000  1
  Fe  Fe27  1  0.16895949  0.17007840  0.50265229  1
  Ni  Ni28  1  0.00321724  1.00183106  0.66802551  1
  Fe  Fe29  1  0.17064817  0.16754233  0.83548483  1
  Ni  Ni30  1  0.16958032  0.50253056  0.50238303  1
  Fe  Fe31  1  0.00341452  0.33706985  0.66811174  1
  Ni  Ni32  1  0.16956027  0.50426829  0.83560965  1
  Fe  Fe33  1  0.16786565  0.83538753  0.50333932  1
  Ni  Ni34  1  1.00254752  0.66945241  0.66875923  1
  Ni  Ni35  1  0.16974042  0.83474326  0.83632296  1
  Ni  Ni36  1  0.50368573  0.17065353  0.50212830  1
  Ni  Ni37  1  0.33526830  0.00384246  0.67009284  1
  Ni  Ni38  1  0.50287023  0.16821350  0.83580904  1
  Ni  Ni39  1  0.50137530  0.50096018  0.50235284  1
  Fe  Fe40  1  0.33643430  0.33634477  0.66897850  1
  Ni  Ni41  1  0.50159813  0.50367103  0.83508341  1
  Cr  Cr42  1  0.50308794  0.83568239  0.50284238  1
  Ni  Ni43  1  0.33518940  0.66818421  0.67025110  1
  Ni  Ni44  1  0.50209766  0.83602037  0.83652040  1
  Ni  Ni45  1  0.83567402  0.16879221  0.50248920  1
  Ni  Ni46  1  0.66941912  1.00263411  0.66921824  1
  Cr  Cr47  1  0.83552375  0.16812191  0.83609681  1
  Ni  Ni48  1  0.83694580  0.50178752  0.50253283  1
  Fe  Fe49  1  0.66805391  0.33651154  0.66819381  1
  Fe  Fe50  1  0.83553886  0.50513563  0.83599797  1
  Ni  Ni51  1  0.83724199  0.83732215  0.50254220  1
  Ni  Ni52  1  0.67016358  0.66871926  0.66995466  1
  Ni  Ni53  1  0.83606519  0.83601771  0.83627576  1
" 