8533,Ni69Fe15Cr15_9,-235.068099883483, 185.439568271578,Ni69Fe15Cr15,"# generated using pymatgen
 data_Cr9Fe8Ni37
_symmetry_space_group_name_H-M   'P 1'
_cell_length_a   7.44617013
_cell_length_b   7.44617013
_cell_length_c   10.53047478
_cell_angle_alpha   90.00000000
_cell_angle_beta   90.00000000
_cell_angle_gamma   90.00000000
_symmetry_Int_Tables_number   1
_chemical_formula_structural   Cr9Fe8Ni37
_chemical_formula_sum   'Cr9 Fe8 Ni37'
_cell_volume   583.86690815
_cell_formula_units_Z   1
loop_
 _symmetry_equiv_pos_site_id
 _symmetry_equiv_pos_as_xyz
  1  'x, y, z'
loop_
 _atom_site_type_symbol
 _atom_site_label
 _atom_site_symmetry_multiplicity
 _atom_site_fract_x
 _atom_site_fract_y
 _atom_site_fract_z
 _atom_site_occupancy
  Ni  Ni0  1  0.00331006  1.00084788  0.00224923  1
  Ni  Ni1  1  0.16836914  0.16711580  0.16762647  1
  Ni  Ni2  1  1.00099603  1.00052370  0.33404912  1
  Ni  Ni3  1  0.00250936  0.33529048  0.00195195  1
  Fe  Fe4  1  0.16838693  0.50214680  0.16797147  1
  Ni  Ni5  1  1.00093056  0.33586783  0.33432372  1
  Fe  Fe6  1  1.00101750  0.66808210  0.00145226  1
  Ni  Ni7  1  0.16715420  0.83581238  0.16757696  1
  Fe  Fe8  1  1.00012888  0.66744434  0.33490441  1
  Ni  Ni9  1  0.33206245  0.99997225  0.00163072  1
  Ni  Ni10  1  0.49901306  0.16886158  0.16876351  1
  Ni  Ni11  1  0.33434359  0.99927722  0.33281545  1
  Ni  Ni12  1  0.33240599  0.33560165  0.00324654  1
  Ni  Ni13  1  0.50269896  0.50169138  0.16812428  1
  Ni  Ni14  1  0.33403159  0.33715604  0.33307365  1
  Ni  Ni15  1  0.33484328  0.66836694  0.00255037  1
  Ni  Ni16  1  0.50048807  0.83361038  0.16804138  1
  Fe  Fe17  1  0.33572975  0.66827388  0.33435267  1
  Cr  Cr18  1  0.66908604  0.99843478  0.00436802  1
  Fe  Fe19  1  0.83539469  0.16823921  0.16982130  1
  Ni  Ni20  1  0.66878878  0.99902038  0.33418288  1
  Ni  Ni21  1  0.66951108  0.33790070  0.00445703  1
  Ni  Ni22  1  0.83467272  0.50277716  0.16672364  1
  Ni  Ni23  1  0.66929174  0.33722451  0.33375205  1
  Ni  Ni24  1  0.66859658  0.66745824  0.00198975  1
  Ni  Ni25  1  0.83652567  0.83195594  0.16942342  1
  Ni  Ni26  1  0.66786697  0.66776352  0.33458421  1
  Cr  Cr27  1  0.16580439  0.16795192  0.49971083  1
  Cr  Cr28  1  1.00051509  1.00054024  0.66762743  1
  Ni  Ni29  1  0.16713710  0.16864456  0.83704322  1
  Ni  Ni30  1  0.16633315  0.50497376  0.50001317  1
  Ni  Ni31  1  0.99995431  0.33815864  0.66819119  1
  Ni  Ni32  1  0.16602963  0.50269652  0.83566668  1
  Ni  Ni33  1  0.16805825  0.83149517  0.50012891  1
  Ni  Ni34  1  0.00143250  0.66625469  0.66801847  1
  Fe  Fe35  1  0.16682852  0.83164899  0.83637057  1
  Cr  Cr36  1  0.50422171  0.16806712  0.50014909  1
  Cr  Cr37  1  0.33448900  0.99754173  0.67009997  1
  Cr  Cr38  1  0.50086140  0.16832917  0.83549476  1
  Ni  Ni39  1  0.50286227  0.50453399  0.50044804  1
  Cr  Cr40  1  0.33133823  0.33879360  0.66708578  1
  Cr  Cr41  1  0.50335520  0.50247812  0.83507458  1
  Ni  Ni42  1  0.50137132  0.83233627  0.50127838  1
  Ni  Ni43  1  0.33394179  0.66825321  0.66659495  1
  Fe  Fe44  1  0.50221995  0.83226282  0.83530802  1
  Ni  Ni45  1  0.83419178  0.16930242  0.50016364  1
  Ni  Ni46  1  0.66953183  0.99762434  0.66655134  1
  Cr  Cr47  1  0.83523252  0.17033177  0.83485756  1
  Ni  Ni48  1  0.83485856  0.50164032  0.50278645  1
  Ni  Ni49  1  0.67183724  0.33740495  0.66604507  1
  Ni  Ni50  1  0.83653391  0.50443289  0.83478843  1
  Fe  Fe51  1  0.83420332  0.83308688  0.50023821  1
  Ni  Ni52  1  0.66890859  0.66881787  0.66759467  1
  Ni  Ni53  1  0.83549706  0.83138322  0.83436639  1
" 