8900,Ni69Cr31_15,-211.409987815466, 142.579572833617,Ni69Cr31,"# generated using pymatgen
 data_Cr37Ni17
_symmetry_space_group_name_H-M   'P 1'
_cell_length_a   7.55756661
_cell_length_b   7.55756661
_cell_length_c   10.68801320
_cell_angle_alpha   90.00000000
_cell_angle_beta   90.00000000
_cell_angle_gamma   90.00000000
_symmetry_Int_Tables_number   1
_chemical_formula_structural   Cr37Ni17
_chemical_formula_sum   'Cr37 Ni17'
_cell_volume   610.46525144
_cell_formula_units_Z   1
loop_
 _symmetry_equiv_pos_site_id
 _symmetry_equiv_pos_as_xyz
  1  'x, y, z'
loop_
 _atom_site_type_symbol
 _atom_site_label
 _atom_site_symmetry_multiplicity
 _atom_site_fract_x
 _atom_site_fract_y
 _atom_site_fract_z
 _atom_site_occupancy
  Ni  Ni0  1  -0.00593099  -0.00442721  -0.00562874  1
  Cr  Cr1  1  0.15982643  0.15968401  0.15976861  1
  Cr  Cr2  1  -0.00568168  -0.00569838  0.32670835  1
  Cr  Cr3  1  -0.00457843  0.32590414  0.99370353  1
  Ni  Ni4  1  0.16221251  0.49606932  0.16083419  1
  Cr  Cr5  1  0.99385452  0.32675651  0.32537774  1
  Cr  Cr6  1  -0.00576512  0.66076212  -0.00592301  1
  Cr  Cr7  1  0.16314596  0.82591661  0.16049478  1
  Cr  Cr8  1  -0.00464508  0.66092861  0.32674004  1
  Ni  Ni9  1  0.32627770  0.99293976  0.99299955  1
  Cr  Cr10  1  0.49633465  0.15921815  0.16072914  1
  Ni  Ni11  1  0.32740845  0.99217440  0.32751175  1
  Cr  Cr12  1  0.32562485  0.32699836  -0.00593245  1
  Cr  Cr13  1  0.49178948  0.49468391  0.16193208  1
  Cr  Cr14  1  0.32879710  0.32843005  0.32676354  1
  Ni  Ni15  1  0.32636258  0.66206944  -0.00452129  1
  Cr  Cr16  1  0.49120891  0.82818097  0.15894591  1
  Ni  Ni17  1  0.32752217  0.66023876  0.32724587  1
  Ni  Ni18  1  0.66166109  -0.00555614  -0.00482963  1
  Ni  Ni19  1  0.82653041  0.16004951  0.15999584  1
  Cr  Cr20  1  0.66066892  -0.00465951  0.32643203  1
  Cr  Cr21  1  0.66096280  0.32653282  -0.00537312  1
  Cr  Cr22  1  0.82821106  0.49106394  0.16152907  1
  Ni  Ni23  1  0.66039435  0.32756076  0.32761621  1
  Cr  Cr24  1  0.66037200  0.66187140  0.99258823  1
  Cr  Cr25  1  0.82768122  0.83046150  0.15894981  1
  Cr  Cr26  1  0.65890452  0.65929785  0.32852691  1
  Cr  Cr27  1  0.16103006  0.15953227  0.49550243  1
  Cr  Cr28  1  -0.00487911  -0.00427494  0.66068199  1
  Ni  Ni29  1  0.16020856  0.15884648  0.82722931  1
  Cr  Cr30  1  0.16207788  0.49549844  0.49391172  1
  Ni  Ni31  1  0.99216787  0.32718872  0.66269357  1
  Cr  Cr32  1  0.15949399  0.49382815  0.82710538  1
  Cr  Cr33  1  0.16391383  0.82698373  0.49333990  1
  Cr  Cr34  1  0.99341214  0.65932709  0.66121658  1
  Cr  Cr35  1  0.16348064  0.82894698  0.82816656  1
  Cr  Cr36  1  0.49546043  0.16124754  0.49451183  1
  Ni  Ni37  1  0.32823743  0.99348487  0.66154848  1
  Cr  Cr38  1  0.49382991  0.15809824  0.82681667  1
  Ni  Ni39  1  0.49416039  0.49428919  0.49367730  1
  Cr  Cr40  1  0.32704690  0.32647734  0.66124701  1
  Cr  Cr41  1  0.49483796  0.49486607  0.82671241  1
  Cr  Cr42  1  0.49091387  0.82708926  0.49486952  1
  Ni  Ni43  1  0.32858210  0.66131390  0.65930363  1
  Cr  Cr44  1  0.49200035  0.82902746  0.82821836  1
  Cr  Cr45  1  0.82560261  0.16299315  0.49474069  1
  Ni  Ni46  1  0.65893793  -0.00412852  0.66070813  1
  Cr  Cr47  1  0.82761167  0.16213375  0.82656165  1
  Cr  Cr48  1  0.82561790  0.49084291  0.49546598  1
  Ni  Ni49  1  0.66243194  0.32762364  0.66004300  1
  Ni  Ni50  1  0.82770197  0.49170863  0.82511214  1
  Cr  Cr51  1  0.82722856  0.82821705  0.49459060  1
  Cr  Cr52  1  0.65980832  0.65991835  0.66095081  1
  Cr  Cr53  1  0.82654732  0.82808238  0.82850321  1
" 