7527,Ni69Fe24Cr5_14,-239.691429953915, 207.714021140394,Ni69Fe24Cr5,"# generated using pymatgen
 data_Cr4Fe13Ni37
_symmetry_space_group_name_H-M   'P 1'
_cell_length_a   7.42556929
_cell_length_b   7.42556929
_cell_length_c   10.50134080
_cell_angle_alpha   90.00000000
_cell_angle_beta   90.00000000
_cell_angle_gamma   90.00000000
_symmetry_Int_Tables_number   1
_chemical_formula_structural   Cr4Fe13Ni37
_chemical_formula_sum   'Cr4 Fe13 Ni37'
_cell_volume   579.03426273
_cell_formula_units_Z   1
loop_
 _symmetry_equiv_pos_site_id
 _symmetry_equiv_pos_as_xyz
  1  'x, y, z'
loop_
 _atom_site_type_symbol
 _atom_site_label
 _atom_site_symmetry_multiplicity
 _atom_site_fract_x
 _atom_site_fract_y
 _atom_site_fract_z
 _atom_site_occupancy
  Ni  Ni0  1  1.00168521  1.00199659  0.00407084  1
  Ni  Ni1  1  0.16910797  0.17073216  0.16994812  1
  Ni  Ni2  1  0.00475884  0.00378207  0.33645970  1
  Ni  Ni3  1  1.00240588  0.33719264  1.00245003  1
  Ni  Ni4  1  0.16847489  0.50060629  0.16875946  1
  Ni  Ni5  1  1.00206933  0.33564420  0.33769334  1
  Ni  Ni6  1  1.00243130  0.66887432  0.00292313  1
  Fe  Fe7  1  0.16813257  0.83524677  0.16865087  1
  Fe  Fe8  1  1.00151723  0.66981682  0.33566578  1
  Ni  Ni9  1  0.33567912  1.00269204  0.00490846  1
  Fe  Fe10  1  0.50314235  0.17069313  0.16827317  1
  Ni  Ni11  1  0.33261576  1.00058307  0.33532074  1
  Ni  Ni12  1  0.33626497  0.33794933  0.00352861  1
  Ni  Ni13  1  0.50291268  0.50474581  0.16910924  1
  Fe  Fe14  1  0.33494680  0.33643239  0.33482134  1
  Ni  Ni15  1  0.33541073  0.66784027  0.00334946  1
  Ni  Ni16  1  0.50289427  0.83513026  0.16860235  1
  Fe  Fe17  1  0.33590812  0.66930592  0.33603741  1
  Ni  Ni18  1  0.67099998  1.00274303  0.00301023  1
  Ni  Ni19  1  0.83871000  0.17078277  0.16778973  1
  Cr  Cr20  1  0.67195185  1.00170440  0.33608160  1
  Fe  Fe21  1  0.66992946  0.33669324  0.00294818  1
  Ni  Ni22  1  0.83675742  0.50321821  0.16942072  1
  Ni  Ni23  1  0.67195741  0.33998783  0.33419647  1
  Ni  Ni24  1  0.67020173  0.66850713  0.00317666  1
  Ni  Ni25  1  0.83452979  0.83450811  0.16850622  1
  Ni  Ni26  1  0.66854271  0.66722628  0.33733932  1
  Ni  Ni27  1  0.16872744  0.17039738  0.50289323  1
  Ni  Ni28  1  1.00199135  1.00078222  0.66786945  1
  Cr  Cr29  1  0.17175675  0.17006755  0.83523159  1
  Ni  Ni30  1  0.16848783  0.50223095  0.50265243  1
  Fe  Fe31  1  0.00380652  0.33764146  0.66850696  1
  Ni  Ni32  1  0.16837974  0.50347851  0.83660212  1
  Ni  Ni33  1  0.16997853  0.83572764  0.50246677  1
  Fe  Fe34  1  0.00435813  0.66893563  0.67018895  1
  Ni  Ni35  1  0.16814739  0.83434654  0.83754484  1
  Cr  Cr36  1  0.50102674  0.16891636  0.50188298  1
  Ni  Ni37  1  0.33288037  1.00133413  0.66829323  1
  Ni  Ni38  1  0.50334142  0.17054505  0.83759436  1
  Fe  Fe39  1  0.50334039  0.50390549  0.50235701  1
  Ni  Ni40  1  0.33796180  0.33912408  0.66853203  1
  Fe  Fe41  1  0.50184207  0.50237917  0.83689230  1
  Ni  Ni42  1  0.50203877  0.83433541  0.50396417  1
  Ni  Ni43  1  0.33509737  0.66812913  0.66857926  1
  Cr  Cr44  1  0.50226441  0.83793959  0.83596633  1
  Ni  Ni45  1  0.83799631  0.17131404  0.50479598  1
  Fe  Fe46  1  0.66959488  0.00397204  0.66981706  1
  Fe  Fe47  1  0.83618724  0.16846400  0.83623314  1
  Ni  Ni48  1  0.83696231  0.50304899  0.50208451  1
  Ni  Ni49  1  0.67056535  0.33851368  0.67094152  1
  Ni  Ni50  1  0.83697355  0.50352549  0.83713168  1
  Ni  Ni51  1  0.83628020  0.83419802  0.50401886  1
  Fe  Fe52  1  0.67016786  0.66857478  0.66857865  1
  Ni  Ni53  1  0.83672562  0.83435628  0.83615811  1
" 