1856,Ni69Cr31_7,-211.771773813987, 143.554955494996,Ni69Cr31,"# generated using pymatgen
 data_Cr37Ni17
_symmetry_space_group_name_H-M   'P 1'
_cell_length_a   7.55852733
_cell_length_b   7.55852733
_cell_length_c   10.68937186
_cell_angle_alpha   90.00000000
_cell_angle_beta   90.00000000
_cell_angle_gamma   90.00000000
_symmetry_Int_Tables_number   1
_chemical_formula_structural   Cr37Ni17
_chemical_formula_sum   'Cr37 Ni17'
_cell_volume   610.69808903
_cell_formula_units_Z   1
loop_
 _symmetry_equiv_pos_site_id
 _symmetry_equiv_pos_as_xyz
  1  'x, y, z'
loop_
 _atom_site_type_symbol
 _atom_site_label
 _atom_site_symmetry_multiplicity
 _atom_site_fract_x
 _atom_site_fract_y
 _atom_site_fract_z
 _atom_site_occupancy
  Cr  Cr0  1  0.99326878  -0.00567300  0.99142620  1
  Cr  Cr1  1  0.16239728  0.16346637  0.16085003  1
  Cr  Cr2  1  0.99378648  0.99319123  0.32802186  1
  Ni  Ni3  1  0.99284847  0.32865800  0.99305117  1
  Ni  Ni4  1  0.16241491  0.49311382  0.15847221  1
  Cr  Cr5  1  -0.00432153  0.32865691  0.32389112  1
  Cr  Cr6  1  -0.00542664  0.65878524  0.99382027  1
  Cr  Cr7  1  0.16186596  0.82465380  0.15839490  1
  Cr  Cr8  1  0.99311120  0.65909932  0.32630826  1
  Cr  Cr9  1  0.32897764  0.99189453  0.99141574  1
  Ni  Ni10  1  0.49574361  0.16070258  0.16186212  1
  Cr  Cr11  1  0.32801494  -0.00434349  0.32665580  1
  Cr  Cr12  1  0.32780201  0.32807320  -0.00138849  1
  Cr  Cr13  1  0.49393452  0.49653886  0.16010481  1
  Ni  Ni14  1  0.33033177  0.33026198  0.32529662  1
  Ni  Ni15  1  0.32905103  0.66047315  0.99185267  1
  Cr  Cr16  1  0.49656937  0.82817710  0.15733311  1
  Cr  Cr17  1  0.32715165  0.65891253  0.32708887  1
  Ni  Ni18  1  0.65926262  0.99281067  0.99289038  1
  Cr  Cr19  1  0.82520443  0.15887735  0.15822315  1
  Ni  Ni20  1  0.65745630  -0.00582388  0.32546508  1
  Cr  Cr21  1  0.66213106  0.32791862  0.99084791  1
  Cr  Cr22  1  0.82677229  0.49598838  0.15770136  1
  Cr  Cr23  1  0.65898214  0.32955789  0.32922148  1
  Ni  Ni24  1  0.65912081  0.66294879  0.99170776  1
  Cr  Cr25  1  0.82313028  0.82712021  0.16369041  1
  Ni  Ni26  1  0.65726118  0.66177485  0.32805797  1
  Cr  Cr27  1  0.16176088  0.16204708  0.49362608  1
  Cr  Cr28  1  0.99378981  0.99142972  0.66264257  1
  Cr  Cr29  1  0.15906361  0.16133625  0.82739120  1
  Cr  Cr30  1  0.16271502  0.49376785  0.49498761  1
  Cr  Cr31  1  0.98989745  0.32807275  0.66401742  1
  Cr  Cr32  1  0.16113939  0.49400845  0.82869729  1
  Cr  Cr33  1  0.15981389  0.82544249  0.49888104  1
  Ni  Ni34  1  -0.00464833  0.65939301  0.66363616  1
  Ni  Ni35  1  0.16298764  0.82211232  0.82608971  1
  Cr  Cr36  1  0.49434381  0.16254816  0.49267494  1
  Cr  Cr37  1  0.32746633  0.98998313  0.66452232  1
  Cr  Cr38  1  0.49573113  0.16022427  0.82780515  1
  Ni  Ni39  1  0.49411215  0.49502480  0.49416864  1
  Cr  Cr40  1  0.33211141  0.32853507  0.65755997  1
  Cr  Cr41  1  0.49474609  0.49620352  0.82624391  1
  Cr  Cr42  1  0.49435227  0.82546924  0.49410130  1
  Ni  Ni43  1  0.32708385  0.65957266  0.66256696  1
  Ni  Ni44  1  0.49219527  0.82438339  0.82976883  1
  Cr  Cr45  1  0.82635928  0.15982011  0.49487779  1
  Cr  Cr46  1  0.66030549  -0.00435198  0.66299684  1
  Ni  Ni47  1  0.82529687  0.16311822  0.82886031  1
  Cr  Cr48  1  0.82590238  0.49572485  0.49633574  1
  Ni  Ni49  1  0.66160291  0.32904858  0.66188373  1
  Ni  Ni50  1  0.82696083  0.49312114  0.82780134  1
  Cr  Cr51  1  0.82596388  0.82674626  0.48927563  1
  Cr  Cr52  1  0.66003361  0.65859300  0.66082184  1
  Cr  Cr53  1  0.82529360  0.82603372  0.82872599  1
" 