6682,Ni69Fe15Cr15_4,-234.99160646566, 184.530462817445,Ni69Fe15Cr15,"# generated using pymatgen
 data_Cr9Fe8Ni37
_symmetry_space_group_name_H-M   'P 1'
_cell_length_a   7.44827284
_cell_length_b   7.44827284
_cell_length_c   10.53344846
_cell_angle_alpha   90.00000000
_cell_angle_beta   90.00000000
_cell_angle_gamma   90.00000000
_symmetry_Int_Tables_number   1
_chemical_formula_structural   Cr9Fe8Ni37
_chemical_formula_sum   'Cr9 Fe8 Ni37'
_cell_volume   584.36167939
_cell_formula_units_Z   1
loop_
 _symmetry_equiv_pos_site_id
 _symmetry_equiv_pos_as_xyz
  1  'x, y, z'
loop_
 _atom_site_type_symbol
 _atom_site_label
 _atom_site_symmetry_multiplicity
 _atom_site_fract_x
 _atom_site_fract_y
 _atom_site_fract_z
 _atom_site_occupancy
  Ni  Ni0  1  1.00013903  1.00047219  0.00210693  1
  Fe  Fe1  1  0.16540259  0.16591234  0.16758379  1
  Ni  Ni2  1  0.00166214  0.00148922  0.33471508  1
  Ni  Ni3  1  1.00020589  0.33370613  1.00066360  1
  Cr  Cr4  1  0.16691370  0.50167323  0.16684251  1
  Ni  Ni5  1  0.99793020  0.33181681  0.33487147  1
  Ni  Ni6  1  1.00110568  0.66960402  1.00039420  1
  Fe  Fe7  1  0.16518203  0.83584226  0.16794449  1
  Fe  Fe8  1  0.99887488  0.66988766  0.33475754  1
  Fe  Fe9  1  0.33387585  1.00012245  0.00169607  1
  Fe  Fe10  1  0.50373734  0.16880125  0.16744870  1
  Ni  Ni11  1  0.33259996  0.99975495  0.33542243  1
  Ni  Ni12  1  0.33460115  0.33513440  0.00281136  1
  Fe  Fe13  1  0.50488011  0.50088248  0.16721098  1
  Cr  Cr14  1  0.33646461  0.33350804  0.33540536  1
  Ni  Ni15  1  0.33382863  0.66830549  0.99969423  1
  Cr  Cr16  1  0.50193795  0.83452825  0.16732740  1
  Ni  Ni17  1  0.33603519  0.67084395  0.33603594  1
  Ni  Ni18  1  0.67027823  1.00124098  1.00036011  1
  Ni  Ni19  1  0.83478958  0.16851315  0.16747370  1
  Ni  Ni20  1  0.66951462  0.00142104  0.33617715  1
  Ni  Ni21  1  0.66897588  0.33416651  0.00349261  1
  Ni  Ni22  1  0.83390453  0.50021417  0.16754809  1
  Ni  Ni23  1  0.66989161  0.33525471  0.33443897  1
  Ni  Ni24  1  0.66884564  0.66837302  1.00114503  1
  Ni  Ni25  1  0.83527919  0.83505345  0.16756056  1
  Ni  Ni26  1  0.66815335  0.66710604  0.33547326  1
  Ni  Ni27  1  0.16744050  0.16768943  0.49989000  1
  Cr  Cr28  1  0.99880916  1.00065988  0.66676998  1
  Cr  Cr29  1  0.16588788  0.17043503  0.83598529  1
  Cr  Cr30  1  0.16728485  0.50156894  0.50365089  1
  Ni  Ni31  1  0.99991910  0.33607305  0.66824726  1
  Fe  Fe32  1  0.16641439  0.50342035  0.83466771  1
  Ni  Ni33  1  0.16887019  0.83456502  0.49857599  1
  Ni  Ni34  1  1.00082426  0.66695465  0.66881106  1
  Ni  Ni35  1  0.16781899  0.83065073  0.83732889  1
  Ni  Ni36  1  0.50258403  0.16778491  0.50141385  1
  Cr  Cr37  1  0.33603955  0.99956673  0.66586285  1
  Cr  Cr38  1  0.50410246  0.16697616  0.83528585  1
  Ni  Ni39  1  0.50287964  0.50205657  0.50111863  1
  Ni  Ni40  1  0.33459990  0.33667324  0.66597282  1
  Cr  Cr41  1  0.50047143  0.50305349  0.83477032  1
  Ni  Ni42  1  0.50168168  0.83394109  0.50141671  1
  Ni  Ni43  1  0.33485803  0.66751535  0.66805350  1
  Ni  Ni44  1  0.50203634  0.83297773  0.83508978  1
  Ni  Ni45  1  0.83375610  0.16888721  0.50071004  1
  Ni  Ni46  1  0.66869886  1.00049385  0.66724545  1
  Ni  Ni47  1  0.83438914  0.16827177  0.83559723  1
  Ni  Ni48  1  0.83312851  0.50062523  0.50118244  1
  Ni  Ni49  1  0.66926050  0.33473703  0.66584670  1
  Fe  Fe50  1  0.83604226  0.50187904  0.83458270  1
  Ni  Ni51  1  0.83322760  0.83426832  0.50016173  1
  Ni  Ni52  1  0.66809691  0.66855017  0.66715963  1
  Ni  Ni53  1  0.83392677  0.83415540  0.83605972  1
" 