1644,Ni69Cr31_12,-211.7345731273, 147.842124929889,Ni69Cr31,"# generated using pymatgen
 data_Cr37Ni17
_symmetry_space_group_name_H-M   'P 1'
_cell_length_a   7.55571433
_cell_length_b   7.55571433
_cell_length_c   10.68539368
_cell_angle_alpha   90.00000000
_cell_angle_beta   90.00000000
_cell_angle_gamma   90.00000000
_symmetry_Int_Tables_number   1
_chemical_formula_structural   Cr37Ni17
_chemical_formula_sum   'Cr37 Ni17'
_cell_volume   610.01650557
_cell_formula_units_Z   1
loop_
 _symmetry_equiv_pos_site_id
 _symmetry_equiv_pos_as_xyz
  1  'x, y, z'
loop_
 _atom_site_type_symbol
 _atom_site_label
 _atom_site_symmetry_multiplicity
 _atom_site_fract_x
 _atom_site_fract_y
 _atom_site_fract_z
 _atom_site_occupancy
  Cr  Cr0  1  -0.00553856  -0.00546540  0.99376444  1
  Cr  Cr1  1  0.16358852  0.15856949  0.16083842  1
  Ni  Ni2  1  -0.00457817  0.99312151  0.32904468  1
  Cr  Cr3  1  0.99401563  0.32808635  -0.00354282  1
  Ni  Ni4  1  0.15990817  0.49410374  0.16079696  1
  Cr  Cr5  1  -0.00498969  0.32868645  0.32651701  1
  Cr  Cr6  1  0.99313688  0.65967099  -0.00169285  1
  Cr  Cr7  1  0.16319213  0.82880194  0.16088721  1
  Cr  Cr8  1  -0.00414370  0.66097394  0.32647005  1
  Ni  Ni9  1  0.33011444  0.99388335  0.99198059  1
  Cr  Cr10  1  0.49332490  0.15919605  0.16346905  1
  Ni  Ni11  1  0.32757719  0.99209556  0.32910101  1
  Cr  Cr12  1  0.32829557  0.32547048  0.99285907  1
  Cr  Cr13  1  0.49446500  0.49339785  0.16200630  1
  Cr  Cr14  1  0.32684857  0.32875782  0.32928770  1
  Cr  Cr15  1  0.32887612  0.66189616  0.99333606  1
  Cr  Cr16  1  0.49261747  0.82981009  0.16180703  1
  Cr  Cr17  1  0.32668024  0.66178139  0.33138032  1
  Cr  Cr18  1  0.65777835  0.99378981  0.99099521  1
  Cr  Cr19  1  0.82550454  0.16038120  0.16471824  1
  Ni  Ni20  1  0.65943891  -0.00553721  0.32921238  1
  Cr  Cr21  1  0.66041252  0.32690895  0.99321328  1
  Ni  Ni22  1  0.82753061  0.49253329  0.16193616  1
  Ni  Ni23  1  0.66079412  0.32757961  0.32749244  1
  Cr  Cr24  1  0.66049175  0.66155618  0.99362036  1
  Cr  Cr25  1  0.82640076  0.82793985  0.16232179  1
  Cr  Cr26  1  0.65976420  0.66118369  0.32782643  1
  Cr  Cr27  1  0.16018375  0.15822680  0.49371510  1
  Ni  Ni28  1  0.99390377  0.99226753  0.65929252  1
  Cr  Cr29  1  0.16199960  0.15932487  0.82769721  1
  Ni  Ni30  1  0.16412638  0.49764902  0.49523063  1
  Cr  Cr31  1  -0.00383407  0.32645727  0.65962192  1
  Cr  Cr32  1  0.16272965  0.49584645  0.82652040  1
  Ni  Ni33  1  0.16316583  0.82759836  0.49425903  1
  Cr  Cr34  1  -0.00234198  0.66200858  0.65783909  1
  Cr  Cr35  1  0.16208895  0.82713253  0.82710586  1
  Cr  Cr36  1  0.49598779  0.16048454  0.49054735  1
  Cr  Cr37  1  0.32978039  0.99191517  0.66085534  1
  Ni  Ni38  1  0.49398070  0.15882436  0.82757270  1
  Ni  Ni39  1  0.49193096  0.49654012  0.49459872  1
  Cr  Cr40  1  0.32893953  0.32934698  0.66017445  1
  Ni  Ni41  1  0.49277084  0.49552201  0.82616116  1
  Ni  Ni42  1  0.49208092  0.82789947  0.49434219  1
  Ni  Ni43  1  0.32979902  0.66198449  0.65863248  1
  Ni  Ni44  1  0.49257180  0.82798819  0.82623858  1
  Cr  Cr45  1  0.82641408  0.15921566  0.49406929  1
  Ni  Ni46  1  0.65886182  0.99287342  0.66158842  1
  Cr  Cr47  1  0.82739463  0.15959523  0.82335482  1
  Cr  Cr48  1  0.82500994  0.49312318  0.49380752  1
  Cr  Cr49  1  0.65735548  0.32598423  0.66160491  1
  Cr  Cr50  1  0.82672342  0.49513047  0.82760626  1
  Cr  Cr51  1  0.82701500  0.83025743  0.49471284  1
  Cr  Cr52  1  0.65557004  0.66316323  0.66115677  1
  Cr  Cr53  1  0.82743883  0.82762084  0.82520141  1
" 