3657,Ni69Cr31_18,-211.47260837292, 143.565327012224,Ni69Cr31,"# generated using pymatgen
 data_Cr37Ni17
_symmetry_space_group_name_H-M   'P 1'
_cell_length_a   7.56289997
_cell_length_b   7.56289997
_cell_length_c   10.69555571
_cell_angle_alpha   90.00000000
_cell_angle_beta   90.00000000
_cell_angle_gamma   90.00000000
_symmetry_Int_Tables_number   1
_chemical_formula_structural   Cr37Ni17
_chemical_formula_sum   'Cr37 Ni17'
_cell_volume   611.75857685
_cell_formula_units_Z   1
loop_
 _symmetry_equiv_pos_site_id
 _symmetry_equiv_pos_as_xyz
  1  'x, y, z'
loop_
 _atom_site_type_symbol
 _atom_site_label
 _atom_site_symmetry_multiplicity
 _atom_site_fract_x
 _atom_site_fract_y
 _atom_site_fract_z
 _atom_site_occupancy
  Cr  Cr0  1  0.99153439  -0.00466876  0.99316731  1
  Cr  Cr1  1  0.16025029  0.16203966  0.15805420  1
  Cr  Cr2  1  0.99334909  0.99248631  0.32914150  1
  Ni  Ni3  1  0.99258226  0.32806284  -0.00270705  1
  Ni  Ni4  1  0.15722606  0.49486168  0.15914538  1
  Cr  Cr5  1  0.99216063  0.32784163  0.32299420  1
  Cr  Cr6  1  0.99309666  0.65812195  -0.00543788  1
  Cr  Cr7  1  0.16194934  0.82576119  0.15849607  1
  Ni  Ni8  1  0.99239467  0.65968527  0.32610580  1
  Ni  Ni9  1  0.33037790  0.99341279  0.99236244  1
  Cr  Cr10  1  0.49460739  0.15657526  0.16075092  1
  Cr  Cr11  1  0.32689993  0.99295461  0.32893014  1
  Cr  Cr12  1  0.32962073  0.32854642  0.99323095  1
  Cr  Cr13  1  0.49283287  0.49661580  0.16151143  1
  Cr  Cr14  1  0.32745429  0.32765997  0.32730405  1
  Ni  Ni15  1  0.32738645  0.65975963  -0.00623842  1
  Cr  Cr16  1  0.49472502  0.82787870  0.15948858  1
  Cr  Cr17  1  0.32551988  0.66053096  0.32690961  1
  Ni  Ni18  1  0.65809799  -0.00374109  -0.00622409  1
  Ni  Ni19  1  0.82613367  0.16082889  0.15907223  1
  Ni  Ni20  1  0.66220573  0.99282267  0.32574613  1
  Cr  Cr21  1  0.66212287  0.32662360  -0.00578866  1
  Ni  Ni22  1  0.82977719  0.49339835  0.16139419  1
  Cr  Cr23  1  0.66162077  0.32701501  0.32410505  1
  Cr  Cr24  1  0.65920369  0.65785467  0.99299270  1
  Cr  Cr25  1  0.82425306  0.82720187  0.16140781  1
  Ni  Ni26  1  0.66378764  0.66077381  0.32611969  1
  Cr  Cr27  1  0.16164579  0.16222236  0.49524626  1
  Cr  Cr28  1  -0.00611976  0.99175072  0.65859912  1
  Cr  Cr29  1  0.16254979  0.16192151  0.82812164  1
  Cr  Cr30  1  0.16001162  0.49311590  0.49332371  1
  Cr  Cr31  1  0.99283362  0.32645867  0.66099378  1
  Cr  Cr32  1  0.16175515  0.49217934  0.82865582  1
  Ni  Ni33  1  0.15935221  0.82499012  0.49226711  1
  Cr  Cr34  1  -0.00614633  0.66268539  0.65921233  1
  Cr  Cr35  1  0.16168894  0.82695162  0.82980534  1
  Cr  Cr36  1  0.49520330  0.16104889  0.49460966  1
  Cr  Cr37  1  0.32706895  0.99348525  0.65947836  1
  Ni  Ni38  1  0.49471414  0.16089245  0.82581371  1
  Cr  Cr39  1  0.49567998  0.49328280  0.49579814  1
  Ni  Ni40  1  0.33202048  0.32689158  0.66256236  1
  Ni  Ni41  1  0.49358501  0.49190195  0.82460119  1
  Cr  Cr42  1  0.49713009  0.82653273  0.49132690  1
  Cr  Cr43  1  0.32804059  0.66032694  0.66114604  1
  Cr  Cr44  1  0.49495631  0.82757497  0.83006254  1
  Cr  Cr45  1  0.82403335  0.16039138  0.49449042  1
  Ni  Ni46  1  0.65815219  -0.00520764  0.66130405  1
  Cr  Cr47  1  0.82504988  0.16018144  0.82687807  1
  Cr  Cr48  1  0.82505737  0.49493530  0.49406929  1
  Ni  Ni49  1  0.65583771  0.32677792  0.66258591  1
  Cr  Cr50  1  0.82582974  0.49311325  0.82478872  1
  Cr  Cr51  1  0.82461315  0.82558372  0.49372001  1
  Ni  Ni52  1  0.65823087  0.65937112  0.66116530  1
  Cr  Cr53  1  0.82385681  0.82753805  0.82514135  1
" 