3623,Ni69Fe24Cr5_7,-239.674835375723, 207.700267178183,Ni69Fe24Cr5,"# generated using pymatgen
 data_Cr4Fe13Ni37
_symmetry_space_group_name_H-M   'P 1'
_cell_length_a   7.42513632
_cell_length_b   7.42513632
_cell_length_c   10.50072848
_cell_angle_alpha   90.00000000
_cell_angle_beta   90.00000000
_cell_angle_gamma   90.00000000
_symmetry_Int_Tables_number   1
_chemical_formula_structural   Cr4Fe13Ni37
_chemical_formula_sum   'Cr4 Fe13 Ni37'
_cell_volume   578.93298072
_cell_formula_units_Z   1
loop_
 _symmetry_equiv_pos_site_id
 _symmetry_equiv_pos_as_xyz
  1  'x, y, z'
loop_
 _atom_site_type_symbol
 _atom_site_label
 _atom_site_symmetry_multiplicity
 _atom_site_fract_x
 _atom_site_fract_y
 _atom_site_fract_z
 _atom_site_occupancy
  Fe  Fe0  1  0.00363112  0.00307379  0.00389287  1
  Ni  Ni1  1  0.17004679  0.16962708  0.16737410  1
  Ni  Ni2  1  1.00011274  1.00157007  0.33603171  1
  Ni  Ni3  1  0.00373710  0.33715300  1.00277846  1
  Ni  Ni4  1  0.16948017  0.50354057  0.16892895  1
  Cr  Cr5  1  0.00307412  0.33676280  0.33471882  1
  Ni  Ni6  1  1.00258465  0.66833065  0.00359356  1
  Ni  Ni7  1  0.16817699  0.83529915  0.16963713  1
  Ni  Ni8  1  1.00173961  0.67024588  0.33577045  1
  Ni  Ni9  1  0.33706938  0.00308418  0.00292426  1
  Ni  Ni10  1  0.50220042  0.16815920  0.17029880  1
  Cr  Cr11  1  0.33639997  0.00338149  0.33611894  1
  Ni  Ni12  1  0.33353697  0.33448356  1.00242250  1
  Cr  Cr13  1  0.50060490  0.50320816  0.17082668  1
  Ni  Ni14  1  0.33653168  0.33660703  0.33599302  1
  Ni  Ni15  1  0.33457137  0.67090127  1.00189208  1
  Fe  Fe16  1  0.50332165  0.83714187  0.16904617  1
  Ni  Ni17  1  0.33548206  0.66837011  0.33709846  1
  Fe  Fe18  1  0.66915602  1.00174918  1.00257355  1
  Ni  Ni19  1  0.83622344  0.16685759  0.17012560  1
  Ni  Ni20  1  0.67119493  1.00261634  0.33531339  1
  Cr  Cr21  1  0.67114758  0.33520986  1.00204093  1
  Ni  Ni22  1  0.83817462  0.50492431  0.16954869  1
  Fe  Fe23  1  0.66930663  0.33549659  0.33634201  1
  Fe  Fe24  1  0.67019255  0.67108713  1.00159232  1
  Ni  Ni25  1  0.83670603  0.83668598  0.17017934  1
  Ni  Ni26  1  0.67124391  0.67087454  0.33641292  1
  Ni  Ni27  1  0.16973144  0.17031332  0.50442364  1
  Fe  Fe28  1  1.00261608  1.00225415  0.66863843  1
  Fe  Fe29  1  0.17022851  0.17019211  0.83634294  1
  Ni  Ni30  1  0.17102493  0.50301941  0.50264381  1
  Fe  Fe31  1  0.00303134  0.33679677  0.66950435  1
  Ni  Ni32  1  0.17034652  0.50258705  0.83688816  1
  Fe  Fe33  1  0.16778419  0.83505149  0.50305461  1
  Ni  Ni34  1  1.00176703  0.66861999  0.66910720  1
  Fe  Fe35  1  0.16993575  0.83523433  0.83671964  1
  Fe  Fe36  1  0.50370710  0.17006294  0.50371471  1
  Ni  Ni37  1  0.33737701  0.00375326  0.66955389  1
  Ni  Ni38  1  0.50173384  0.16830879  0.83492043  1
  Fe  Fe39  1  0.50275046  0.50320448  0.50294578  1
  Ni  Ni40  1  0.33592186  0.33532494  0.67005451  1
  Ni  Ni41  1  0.50066524  0.50394359  0.83453444  1
  Ni  Ni42  1  0.50401865  0.83523134  0.50308526  1
  Ni  Ni43  1  0.33598836  0.66938825  0.66948252  1
  Ni  Ni44  1  0.50311829  0.83621712  0.83715725  1
  Ni  Ni45  1  0.83584260  0.16779902  0.50311873  1
  Ni  Ni46  1  0.66914466  0.00288744  0.66991061  1
  Ni  Ni47  1  0.83654633  0.16812011  0.83521432  1
  Ni  Ni48  1  0.83594323  0.50414617  0.50347277  1
  Fe  Fe49  1  0.66911370  0.33655825  0.67023072  1
  Ni  Ni50  1  0.83745369  0.50397556  0.83543987  1
  Ni  Ni51  1  0.83506559  0.83652102  0.50233903  1
  Ni  Ni52  1  0.67070953  0.67007919  0.67048142  1
  Ni  Ni53  1  0.83518857  0.83637043  0.83594717  1
" 