8264,Ni69Fe20Cr9_8,-236.810132070578, 195.948363358766,Ni69Fe20Cr9,"# generated using pymatgen
 data_Cr7Fe10Ni37
_symmetry_space_group_name_H-M   'P 1'
_cell_length_a   7.43616511
_cell_length_b   7.43616511
_cell_length_c   10.51632555
_cell_angle_alpha   90.00000000
_cell_angle_beta   90.00000000
_cell_angle_gamma   90.00000000
_symmetry_Int_Tables_number   1
_chemical_formula_structural   Cr7Fe10Ni37
_chemical_formula_sum   'Cr7 Fe10 Ni37'
_cell_volume   581.51653767
_cell_formula_units_Z   1
loop_
 _symmetry_equiv_pos_site_id
 _symmetry_equiv_pos_as_xyz
  1  'x, y, z'
loop_
 _atom_site_type_symbol
 _atom_site_label
 _atom_site_symmetry_multiplicity
 _atom_site_fract_x
 _atom_site_fract_y
 _atom_site_fract_z
 _atom_site_occupancy
  Ni  Ni0  1  0.00251611  0.00253833  1.00082065  1
  Ni  Ni1  1  0.16749222  0.16897367  0.17019106  1
  Fe  Fe2  1  0.00268390  1.00120375  0.33810072  1
  Ni  Ni3  1  1.00179261  0.33577261  1.00162682  1
  Ni  Ni4  1  0.16544153  0.50253838  0.16924847  1
  Fe  Fe5  1  0.00305436  0.33695759  0.33696477  1
  Ni  Ni6  1  0.00298113  0.66814183  1.00039626  1
  Cr  Cr7  1  0.17029962  0.83570795  0.16728128  1
  Ni  Ni8  1  1.00164840  0.66816469  0.33674588  1
  Ni  Ni9  1  0.33474702  1.00063671  1.00025667  1
  Cr  Cr10  1  0.50162689  0.16530482  0.16825102  1
  Ni  Ni11  1  0.33506418  0.00253458  0.33739753  1
  Cr  Cr12  1  0.33355299  0.33542462  1.00029286  1
  Cr  Cr13  1  0.50235897  0.50381243  0.17034068  1
  Ni  Ni14  1  0.33334846  0.33473181  0.33805475  1
  Ni  Ni15  1  0.33337477  0.67116996  1.00007508  1
  Ni  Ni16  1  0.50188039  0.83637543  0.17031196  1
  Ni  Ni17  1  0.33414031  0.66910903  0.33700111  1
  Ni  Ni18  1  0.66878046  1.00157939  0.99955563  1
  Cr  Cr19  1  0.83630783  0.16973729  0.16778331  1
  Ni  Ni20  1  0.66835135  1.00073126  0.33812885  1
  Ni  Ni21  1  0.67188066  0.33433399  0.99881427  1
  Ni  Ni22  1  0.83855041  0.50257821  0.16967979  1
  Ni  Ni23  1  0.66943120  0.33563090  0.33808723  1
  Cr  Cr24  1  0.66965994  0.66953472  0.00248387  1
  Fe  Fe25  1  0.83524714  0.83492527  0.16980799  1
  Ni  Ni26  1  0.67048780  0.66976026  0.33688872  1
  Ni  Ni27  1  0.16910299  0.16799010  0.50135683  1
  Ni  Ni28  1  0.00249414  0.00275990  0.66808154  1
  Ni  Ni29  1  0.16773309  0.16782380  0.83507982  1
  Ni  Ni30  1  0.16876546  0.50365301  0.50225661  1
  Ni  Ni31  1  0.00305477  0.33409938  0.66776739  1
  Fe  Fe32  1  0.16667124  0.50311934  0.83394548  1
  Ni  Ni33  1  0.16841989  0.83470916  0.50341872  1
  Ni  Ni34  1  1.00190187  0.66955051  0.66892578  1
  Fe  Fe35  1  0.16720345  0.83667642  0.83458451  1
  Ni  Ni36  1  0.50138638  0.16829769  0.50156447  1
  Fe  Fe37  1  0.33440979  0.00221568  0.66861682  1
  Ni  Ni38  1  0.50156452  0.16541716  0.83610212  1
  Ni  Ni39  1  0.50126395  0.50294031  0.50140406  1
  Fe  Fe40  1  0.33265979  0.33576894  0.66746499  1
  Fe  Fe41  1  0.50275411  0.50311897  0.83359526  1
  Fe  Fe42  1  0.50159463  0.83461394  0.50160084  1
  Ni  Ni43  1  0.33536550  0.66966398  0.66847815  1
  Ni  Ni44  1  0.50051356  0.83601533  0.83456519  1
  Ni  Ni45  1  0.83576098  0.16762361  0.50213483  1
  Fe  Fe46  1  0.67088451  0.99950649  0.66913729  1
  Ni  Ni47  1  0.83703627  0.16818827  0.83660149  1
  Ni  Ni48  1  0.83601881  0.50364575  0.50125612  1
  Cr  Cr49  1  0.66968362  0.33456834  0.66908922  1
  Ni  Ni50  1  0.83814318  0.50254888  0.83554734  1
  Ni  Ni51  1  0.83647777  0.83454924  0.50216608  1
  Ni  Ni52  1  0.66872753  0.66994161  0.66737541  1
  Ni  Ni53  1  0.83583894  0.83521610  0.83542778  1
" 