4015,Ni69Fe19Cr10_16,-237.383886076062, 193.93082342779,Ni69Fe19Cr10,"# generated using pymatgen
 data_Cr7Fe10Ni37
_symmetry_space_group_name_H-M   'P 1'
_cell_length_a   7.44433075
_cell_length_b   7.44433075
_cell_length_c   10.52787350
_cell_angle_alpha   90.00000000
_cell_angle_beta   90.00000000
_cell_angle_gamma   90.00000000
_symmetry_Int_Tables_number   1
_chemical_formula_structural   Cr7Fe10Ni37
_chemical_formula_sum   'Cr7 Fe10 Ni37'
_cell_volume   583.43432826
_cell_formula_units_Z   1
loop_
 _symmetry_equiv_pos_site_id
 _symmetry_equiv_pos_as_xyz
  1  'x, y, z'
loop_
 _atom_site_type_symbol
 _atom_site_label
 _atom_site_symmetry_multiplicity
 _atom_site_fract_x
 _atom_site_fract_y
 _atom_site_fract_z
 _atom_site_occupancy
  Ni  Ni0  1  1.00106130  0.00185789  0.00213798  1
  Ni  Ni1  1  0.16854811  0.16849374  0.16824665  1
  Fe  Fe2  1  0.00243425  0.00277098  0.33340282  1
  Ni  Ni3  1  0.00216195  0.33586944  0.00176001  1
  Ni  Ni4  1  0.16792475  0.50128595  0.16770523  1
  Fe  Fe5  1  0.00415066  0.33357961  0.33430696  1
  Ni  Ni6  1  1.00055625  0.66685143  0.00177975  1
  Ni  Ni7  1  0.16798313  0.83479815  0.16873713  1
  Ni  Ni8  1  0.00299925  0.66800774  0.33338785  1
  Ni  Ni9  1  0.33623703  0.00286919  0.00226452  1
  Ni  Ni10  1  0.50052549  0.16733858  0.16727643  1
  Ni  Ni11  1  0.33565868  0.00236029  0.33524955  1
  Ni  Ni12  1  0.33384550  0.33356455  0.00245830  1
  Ni  Ni13  1  0.50097233  0.50227005  0.16797705  1
  Ni  Ni14  1  0.33346723  0.33390234  0.33525108  1
  Ni  Ni15  1  0.33443862  0.66814342  0.00264846  1
  Ni  Ni16  1  0.50207160  0.83497191  0.16774331  1
  Fe  Fe17  1  0.33498027  0.66848103  0.33416464  1
  Ni  Ni18  1  0.66727780  1.00126334  1.00129736  1
  Ni  Ni19  1  0.83550644  0.16739421  0.16757260  1
  Ni  Ni20  1  0.66651341  1.00106939  0.33467963  1
  Ni  Ni21  1  0.66857203  0.33407061  1.00150072  1
  Ni  Ni22  1  0.83567927  0.50283452  0.16718959  1
  Cr  Cr23  1  0.66703231  0.33335225  0.33469676  1
  Ni  Ni24  1  0.66958195  0.66924212  0.00293827  1
  Ni  Ni25  1  0.83452253  0.83434922  0.16823131  1
  Fe  Fe26  1  0.66624221  0.67019623  0.33300010  1
  Ni  Ni27  1  0.16755466  0.16933383  0.49999591  1
  Fe  Fe28  1  0.99942461  0.00304049  0.66853313  1
  Ni  Ni29  1  0.16724919  0.17007571  0.83633544  1
  Ni  Ni30  1  0.16886065  0.50129032  0.50152445  1
  Ni  Ni31  1  1.00134976  0.33598954  0.66814177  1
  Ni  Ni32  1  0.16512749  0.50015852  0.83534601  1
  Fe  Fe33  1  0.16890450  0.83467611  0.50032564  1
  Ni  Ni34  1  1.00093500  0.66601210  0.66940450  1
  Cr  Cr35  1  0.16747211  0.83424352  0.83535469  1
  Ni  Ni36  1  0.50151268  0.16649597  0.50097072  1
  Cr  Cr37  1  0.33681459  0.00175742  0.66780130  1
  Ni  Ni38  1  0.50246508  0.16631364  0.83633390  1
  Fe  Fe39  1  0.49987918  0.50198446  0.50125284  1
  Cr  Cr40  1  0.33337685  0.33447261  0.66745179  1
  Cr  Cr41  1  0.50224447  0.50214629  0.83535414  1
  Ni  Ni42  1  0.50114162  0.83496184  0.50148641  1
  Fe  Fe43  1  0.33490706  0.66819365  0.66720936  1
  Ni  Ni44  1  0.50459374  0.83621776  0.83534734  1
  Ni  Ni45  1  0.83551105  0.16738838  0.50338500  1
  Ni  Ni46  1  0.66809209  1.00114241  0.66860254  1
  Fe  Fe47  1  0.83486169  0.16819285  0.83509747  1
  Cr  Cr48  1  0.83599305  0.50089082  0.50252644  1
  Fe  Fe49  1  0.67034323  0.33343815  0.66831532  1
  Ni  Ni50  1  0.83673586  0.50228811  0.83446744  1
  Cr  Cr51  1  0.83391873  0.83632073  0.50151171  1
  Ni  Ni52  1  0.66920171  0.67008427  0.66824501  1
  Ni  Ni53  1  0.83297725  0.83409461  0.83446794  1
" 