8338,Ni69Fe15Cr15_17,-234.752812383924, 184.997664322978,Ni69Fe15Cr15,"# generated using pymatgen
 data_Cr9Fe8Ni37
_symmetry_space_group_name_H-M   'P 1'
_cell_length_a   7.44435524
_cell_length_b   7.44435524
_cell_length_c   10.52790815
_cell_angle_alpha   90.00000000
_cell_angle_beta   90.00000000
_cell_angle_gamma   90.00000000
_symmetry_Int_Tables_number   1
_chemical_formula_structural   Cr9Fe8Ni37
_chemical_formula_sum   'Cr9 Fe8 Ni37'
_cell_volume   583.44008805
_cell_formula_units_Z   1
loop_
 _symmetry_equiv_pos_site_id
 _symmetry_equiv_pos_as_xyz
  1  'x, y, z'
loop_
 _atom_site_type_symbol
 _atom_site_label
 _atom_site_symmetry_multiplicity
 _atom_site_fract_x
 _atom_site_fract_y
 _atom_site_fract_z
 _atom_site_occupancy
  Fe  Fe0  1  1.00084739  0.00153876  0.00214027  1
  Ni  Ni1  1  0.16657786  0.16723200  0.16786522  1
  Ni  Ni2  1  0.00273590  1.00077900  0.33397305  1
  Ni  Ni3  1  1.00089768  0.33593634  0.00241432  1
  Ni  Ni4  1  0.16617662  0.50236146  0.16794331  1
  Ni  Ni5  1  1.00085998  0.33478000  0.33426561  1
  Ni  Ni6  1  1.00116135  0.66759893  1.00100184  1
  Ni  Ni7  1  0.16806600  0.83497712  0.16913890  1
  Ni  Ni8  1  0.00261873  0.66901490  0.33523444  1
  Ni  Ni9  1  0.33636941  0.00281840  0.00270116  1
  Ni  Ni10  1  0.50343353  0.16742349  0.16719217  1
  Fe  Fe11  1  0.33406456  0.99991567  0.33490774  1
  Ni  Ni12  1  0.33459048  0.33226015  0.00276727  1
  Ni  Ni13  1  0.50212651  0.50046117  0.16842852  1
  Cr  Cr14  1  0.33465962  0.33424506  0.33462051  1
  Cr  Cr15  1  0.33310093  0.66913683  0.00181278  1
  Ni  Ni16  1  0.50004793  0.83668891  0.16903670  1
  Ni  Ni17  1  0.33402506  0.67004526  0.33542809  1
  Ni  Ni18  1  0.66718893  0.00308139  1.00069311  1
  Ni  Ni19  1  0.83455996  0.16931153  0.16790951  1
  Fe  Fe20  1  0.66770570  0.00247595  0.33352044  1
  Ni  Ni21  1  0.66908455  0.33211563  0.00204881  1
  Ni  Ni22  1  0.83626935  0.49897607  0.16854493  1
  Ni  Ni23  1  0.66869795  0.33463390  0.33413122  1
  Cr  Cr24  1  0.67050854  0.66914665  0.00256708  1
  Fe  Fe25  1  0.83662354  0.83612420  0.16784444  1
  Cr  Cr26  1  0.66760753  0.66767509  0.33394170  1
  Ni  Ni27  1  0.16874813  0.16657603  0.50128275  1
  Ni  Ni28  1  0.00281123  0.99790475  0.66881388  1
  Cr  Cr29  1  0.16852719  0.16762953  0.83577963  1
  Ni  Ni30  1  0.16840756  0.50405120  0.50173814  1
  Cr  Cr31  1  0.00221227  0.33600240  0.66787774  1
  Ni  Ni32  1  0.16597570  0.50400889  0.83488853  1
  Ni  Ni33  1  0.16840230  0.83394253  0.50185608  1
  Ni  Ni34  1  0.00216659  0.67042688  0.66833490  1
  Ni  Ni35  1  0.16683001  0.83339634  0.83357679  1
  Ni  Ni36  1  0.50188693  0.16793277  0.50289545  1
  Ni  Ni37  1  0.33539077  1.00151441  0.66699252  1
  Ni  Ni38  1  0.50430652  0.16662791  0.83448229  1
  Ni  Ni39  1  0.50063613  0.50110924  0.50221999  1
  Ni  Ni40  1  0.33695818  0.33335357  0.66677425  1
  Cr  Cr41  1  0.50056239  0.49911656  0.83459234  1
  Ni  Ni42  1  0.49928788  0.83553159  0.50161168  1
  Fe  Fe43  1  0.33211820  0.66889197  0.66686679  1
  Ni  Ni44  1  0.50103831  0.83865455  0.83392224  1
  Cr  Cr45  1  0.83433252  0.16817789  0.50097937  1
  Fe  Fe46  1  0.66722205  0.00274996  0.66985588  1
  Ni  Ni47  1  0.83198778  0.16747929  0.83581449  1
  Fe  Fe48  1  0.83556616  0.50194257  0.50063306  1
  Ni  Ni49  1  0.66564763  0.33400100  0.66839436  1
  Ni  Ni50  1  0.83724057  0.50073997  0.83526496  1
  Fe  Fe51  1  0.83718483  0.83486085  0.50203507  1
  Cr  Cr52  1  0.66954611  0.66857080  0.66806512  1
  Ni  Ni53  1  0.83670361  0.83635583  0.83468169  1
" 