6047,Ni69Fe24Cr5_6,-239.934108417422, 207.206924277839,Ni69Fe24Cr5,"# generated using pymatgen
 data_Cr4Fe13Ni37
_symmetry_space_group_name_H-M   'P 1'
_cell_length_a   7.43108105
_cell_length_b   7.43108105
_cell_length_c   10.50913561
_cell_angle_alpha   90.00000000
_cell_angle_beta   90.00000000
_cell_angle_gamma   90.00000000
_symmetry_Int_Tables_number   1
_chemical_formula_structural   Cr4Fe13Ni37
_chemical_formula_sum   'Cr4 Fe13 Ni37'
_cell_volume   580.32461651
_cell_formula_units_Z   1
loop_
 _symmetry_equiv_pos_site_id
 _symmetry_equiv_pos_as_xyz
  1  'x, y, z'
loop_
 _atom_site_type_symbol
 _atom_site_label
 _atom_site_symmetry_multiplicity
 _atom_site_fract_x
 _atom_site_fract_y
 _atom_site_fract_z
 _atom_site_occupancy
  Ni  Ni0  1  0.00300761  0.00318369  1.00118861  1
  Ni  Ni1  1  0.16877702  0.16792426  0.16994830  1
  Ni  Ni2  1  0.00305919  0.00310918  0.33633835  1
  Ni  Ni3  1  1.00142369  0.33532560  1.00226546  1
  Fe  Fe4  1  0.16885002  0.50169170  0.16906087  1
  Ni  Ni5  1  0.00396658  0.33515473  0.33589239  1
  Ni  Ni6  1  0.00275857  0.66874924  1.00088007  1
  Ni  Ni7  1  0.16955581  0.83619502  0.16945417  1
  Ni  Ni8  1  0.00281342  0.66899763  0.33657299  1
  Ni  Ni9  1  0.33495627  0.00274470  0.00271056  1
  Ni  Ni10  1  0.50192490  0.16873436  0.16915930  1
  Ni  Ni11  1  0.33550490  1.00229226  0.33613352  1
  Fe  Fe12  1  0.33610917  0.33546328  0.00256266  1
  Ni  Ni13  1  0.50295327  0.50362848  0.16862982  1
  Ni  Ni14  1  0.33382021  0.33519367  0.33627593  1
  Ni  Ni15  1  0.33519996  0.66919401  1.00240429  1
  Fe  Fe16  1  0.50246724  0.83620193  0.16954450  1
  Ni  Ni17  1  0.33579162  0.66977173  0.33635057  1
  Ni  Ni18  1  0.66929756  0.00408056  0.00245699  1
  Ni  Ni19  1  0.83655692  0.16924312  0.16859311  1
  Ni  Ni20  1  0.66869593  1.00113890  0.33628927  1
  Ni  Ni21  1  0.66974104  0.33557164  1.00105946  1
  Ni  Ni22  1  0.83526241  0.50285132  0.16879410  1
  Cr  Cr23  1  0.66967668  0.33520299  0.33594842  1
  Ni  Ni24  1  0.66930172  0.66761213  0.00271295  1
  Fe  Fe25  1  0.83563928  0.83614874  0.16869738  1
  Ni  Ni26  1  0.66865633  0.67068128  0.33594825  1
  Ni  Ni27  1  0.16882094  0.16794864  0.50072567  1
  Fe  Fe28  1  0.00248201  1.00069593  0.66922930  1
  Ni  Ni29  1  0.16933007  0.16814143  0.83658841  1
  Fe  Fe30  1  0.16973843  0.50353518  0.50184974  1
  Cr  Cr31  1  1.00148459  0.33562257  0.66969783  1
  Ni  Ni32  1  0.16959609  0.50395387  0.83647979  1
  Ni  Ni33  1  0.17006728  0.83552591  0.50304068  1
  Ni  Ni34  1  0.00478860  0.67069909  0.66980558  1
  Ni  Ni35  1  0.16732444  0.83516561  0.83476331  1
  Fe  Fe36  1  0.50138954  0.16741133  0.50283163  1
  Fe  Fe37  1  0.33463250  0.00261434  0.66832384  1
  Ni  Ni38  1  0.50306085  0.17129081  0.83482282  1
  Fe  Fe39  1  0.50037568  0.50271381  0.50232682  1
  Fe  Fe40  1  0.33715674  0.33665492  0.66927739  1
  Ni  Ni41  1  0.50227226  0.50028423  0.83601539  1
  Ni  Ni42  1  0.50104205  0.83528163  0.50039644  1
  Ni  Ni43  1  0.33338849  0.66941595  0.66850441  1
  Cr  Cr44  1  0.50141294  0.83550322  0.83771151  1
  Ni  Ni45  1  0.83606160  0.16850254  0.50206002  1
  Fe  Fe46  1  0.67014390  0.00443089  0.66847883  1
  Ni  Ni47  1  0.83486995  0.16901774  0.83660562  1
  Fe  Fe48  1  0.83714405  0.50328450  0.50157743  1
  Ni  Ni49  1  0.66784282  0.33370028  0.66975036  1
  Ni  Ni50  1  0.83539199  0.50228952  0.83706525  1
  Fe  Fe51  1  0.83696555  0.83714217  0.50158391  1
  Cr  Cr52  1  0.66958830  0.66781592  0.66921445  1
  Ni  Ni53  1  0.83854148  0.83595226  0.83608172  1
" 