3337,Ni69Fe24Cr5_17,-239.496982982036, 207.012035743455,Ni69Fe24Cr5,"# generated using pymatgen
 data_Cr4Fe13Ni37
_symmetry_space_group_name_H-M   'P 1'
_cell_length_a   7.42315021
_cell_length_b   7.42315021
_cell_length_c   10.49791970
_cell_angle_alpha   90.00000000
_cell_angle_beta   90.00000000
_cell_angle_gamma   90.00000000
_symmetry_Int_Tables_number   1
_chemical_formula_structural   Cr4Fe13Ni37
_chemical_formula_sum   'Cr4 Fe13 Ni37'
_cell_volume   578.46853908
_cell_formula_units_Z   1
loop_
 _symmetry_equiv_pos_site_id
 _symmetry_equiv_pos_as_xyz
  1  'x, y, z'
loop_
 _atom_site_type_symbol
 _atom_site_label
 _atom_site_symmetry_multiplicity
 _atom_site_fract_x
 _atom_site_fract_y
 _atom_site_fract_z
 _atom_site_occupancy
  Ni  Ni0  1  0.00347653  0.00405313  1.00253204  1
  Fe  Fe1  1  0.16813368  0.16728003  0.16840586  1
  Ni  Ni2  1  1.00262200  1.00174684  0.33747912  1
  Ni  Ni3  1  1.00233725  0.33620705  1.00244829  1
  Fe  Fe4  1  0.16761089  0.50519299  0.16867689  1
  Fe  Fe5  1  1.00138315  0.33547063  0.33608063  1
  Fe  Fe6  1  0.00303786  0.66894284  0.00444117  1
  Ni  Ni7  1  0.16985324  0.83714729  0.16968403  1
  Ni  Ni8  1  1.00267269  0.67010975  0.33512036  1
  Ni  Ni9  1  0.33597794  1.00294691  1.00292491  1
  Fe  Fe10  1  0.50519027  0.16724139  0.16857559  1
  Ni  Ni11  1  0.33615597  1.00183137  0.33611261  1
  Ni  Ni12  1  0.33542168  0.33560627  1.00173306  1
  Cr  Cr13  1  0.50354373  0.50494566  0.16916072  1
  Cr  Cr14  1  0.33730175  0.33450275  0.33627233  1
  Ni  Ni15  1  0.33516795  0.67023673  1.00152123  1
  Ni  Ni16  1  0.50248549  0.83607183  0.16951542  1
  Ni  Ni17  1  0.33442244  0.67138722  0.33780288  1
  Ni  Ni18  1  0.66973871  0.00398118  0.00434299  1
  Ni  Ni19  1  0.83788602  0.16899636  0.16894110  1
  Ni  Ni20  1  0.67025115  0.00342578  0.33555394  1
  Ni  Ni21  1  0.67089688  0.33538200  1.00149543  1
  Ni  Ni22  1  0.83664219  0.50254707  0.16968050  1
  Ni  Ni23  1  0.67156703  0.33481816  0.33706208  1
  Ni  Ni24  1  0.66983574  0.66918009  1.00188510  1
  Ni  Ni25  1  0.83650169  0.83703933  0.17009769  1
  Ni  Ni26  1  0.67134663  0.67017999  0.33854141  1
  Ni  Ni27  1  0.16827195  0.16960557  0.50353581  1
  Fe  Fe28  1  0.00406493  0.00582272  0.66940595  1
  Ni  Ni29  1  0.16986930  0.16977085  0.83606233  1
  Ni  Ni30  1  0.16997552  0.50261239  0.50162064  1
  Fe  Fe31  1  0.00440710  0.33470496  0.67080098  1
  Ni  Ni32  1  0.17134715  0.50163106  0.83832759  1
  Fe  Fe33  1  0.17186627  0.83775640  0.50155206  1
  Cr  Cr34  1  0.00397569  0.66883363  0.66971574  1
  Fe  Fe35  1  0.17209508  0.83738737  0.83761129  1
  Ni  Ni36  1  0.50357664  0.16835000  0.50252241  1
  Ni  Ni37  1  0.33704270  0.00346845  0.66936888  1
  Ni  Ni38  1  0.50251644  0.17005897  0.83714830  1
  Ni  Ni39  1  0.50211664  0.50444199  0.50425703  1
  Ni  Ni40  1  0.33713668  0.33623720  0.66984181  1
  Ni  Ni41  1  0.50188584  0.50310821  0.83545719  1
  Ni  Ni42  1  0.50301841  0.83592821  0.50274602  1
  Ni  Ni43  1  0.33472451  0.66942369  0.66942325  1
  Fe  Fe44  1  0.50116521  0.83734809  0.83639239  1
  Ni  Ni45  1  0.83720436  0.16865612  0.50360513  1
  Ni  Ni46  1  0.66895327  0.00551743  0.66887849  1
  Ni  Ni47  1  0.83687946  0.17007774  0.83616548  1
  Fe  Fe48  1  0.83515427  0.50044568  0.50210504  1
  Ni  Ni49  1  0.66941474  0.33499008  0.67007985  1
  Ni  Ni50  1  0.83529391  0.50122984  0.83691673  1
  Fe  Fe51  1  0.83522716  0.83776537  0.50195387  1
  Fe  Fe52  1  0.66610839  0.66923853  0.66979362  1
  Cr  Cr53  1  0.83491450  0.83878548  0.83829145  1
" 