6427,Ni69Fe19Cr10_0,-236.875161688651, 195.623779305112,Ni69Fe19Cr10,"# generated using pymatgen
 data_Cr7Fe10Ni37
_symmetry_space_group_name_H-M   'P 1'
_cell_length_a   7.43754338
_cell_length_b   7.43754338
_cell_length_c   10.51827471
_cell_angle_alpha   90.00000000
_cell_angle_beta   90.00000000
_cell_angle_gamma   90.00000000
_symmetry_Int_Tables_number   1
_chemical_formula_structural   Cr7Fe10Ni37
_chemical_formula_sum   'Cr7 Fe10 Ni37'
_cell_volume   581.83994355
_cell_formula_units_Z   1
loop_
 _symmetry_equiv_pos_site_id
 _symmetry_equiv_pos_as_xyz
  1  'x, y, z'
loop_
 _atom_site_type_symbol
 _atom_site_label
 _atom_site_symmetry_multiplicity
 _atom_site_fract_x
 _atom_site_fract_y
 _atom_site_fract_z
 _atom_site_occupancy
  Ni  Ni0  1  0.00227106  0.00462050  0.00199229  1
  Ni  Ni1  1  0.16895945  0.16695382  0.16866598  1
  Ni  Ni2  1  1.00186753  0.00247987  0.33533497  1
  Ni  Ni3  1  1.00134283  0.33280429  1.00161802  1
  Fe  Fe4  1  0.16639590  0.49885022  0.17022390  1
  Ni  Ni5  1  0.00212720  0.33405235  0.33459460  1
  Cr  Cr6  1  1.00104531  0.66837514  1.00142687  1
  Ni  Ni7  1  0.16775669  0.83887872  0.16981533  1
  Ni  Ni8  1  1.00191911  0.66939476  0.33524778  1
  Ni  Ni9  1  0.33457775  0.00414982  0.00202972  1
  Ni  Ni10  1  0.50126399  0.16929839  0.16863482  1
  Ni  Ni11  1  0.33438991  0.00383245  0.33523171  1
  Fe  Fe12  1  0.33641531  0.33265093  1.00139907  1
  Ni  Ni13  1  0.50494090  0.50029056  0.16863156  1
  Fe  Fe14  1  0.33582700  0.33374177  0.33573129  1
  Cr  Cr15  1  0.33629242  0.66780349  0.00315816  1
  Fe  Fe16  1  0.50437412  0.83801083  0.16857181  1
  Cr  Cr17  1  0.33466897  0.66787162  0.33405746  1
  Ni  Ni18  1  0.66912043  0.00409518  0.00300874  1
  Ni  Ni19  1  0.83573751  0.16913762  0.16835698  1
  Ni  Ni20  1  0.66975034  0.00364535  0.33444043  1
  Ni  Ni21  1  0.66885218  0.33473937  1.00094511  1
  Ni  Ni22  1  0.83318182  0.50151076  0.16995734  1
  Ni  Ni23  1  0.66823823  0.33411665  0.33543393  1
  Ni  Ni24  1  0.66838970  0.66721524  0.00316620  1
  Ni  Ni25  1  0.83550481  0.83529010  0.16953860  1
  Ni  Ni26  1  0.66960502  0.66825602  0.33314581  1
  Fe  Fe27  1  0.16854052  0.16991173  0.50103485  1
  Cr  Cr28  1  1.00029057  0.00242872  0.66866021  1
  Ni  Ni29  1  0.16895704  0.16814174  0.83639877  1
  Ni  Ni30  1  0.16948394  0.50181930  0.50306629  1
  Ni  Ni31  1  0.00382691  0.33600215  0.66974301  1
  Fe  Fe32  1  0.16854853  0.49931392  0.83246810  1
  Ni  Ni33  1  0.16759302  0.83530021  0.50224303  1
  Ni  Ni34  1  0.00373416  0.66774865  0.66926837  1
  Ni  Ni35  1  0.16861246  0.83690895  0.83386939  1
  Fe  Fe36  1  0.50241973  0.16975331  0.50177888  1
  Fe  Fe37  1  0.33466532  0.00291356  0.66922773  1
  Ni  Ni38  1  0.50167222  0.17020292  0.83475112  1
  Ni  Ni39  1  0.50103102  0.50010777  0.50333400  1
  Ni  Ni40  1  0.33543938  0.33680813  0.66849659  1
  Ni  Ni41  1  0.50414823  0.50022412  0.83395827  1
  Cr  Cr42  1  0.50224158  0.83525379  0.50238285  1
  Ni  Ni43  1  0.33402367  0.66551125  0.66864027  1
  Cr  Cr44  1  0.50138303  0.83571572  0.83534481  1
  Ni  Ni45  1  0.83490725  0.16812209  0.50076481  1
  Ni  Ni46  1  0.66892142  0.00364231  0.66850910  1
  Ni  Ni47  1  0.83534438  0.17101938  0.83681985  1
  Cr  Cr48  1  0.83511441  0.50182250  0.50144330  1
  Fe  Fe49  1  0.66819507  0.33527341  0.66982358  1
  Ni  Ni50  1  0.83397597  0.50052103  0.83425539  1
  Ni  Ni51  1  0.83655369  0.83634128  0.50148958  1
  Ni  Ni52  1  0.66821131  0.66839025  0.66968258  1
  Fe  Fe53  1  0.83445685  0.83584316  0.83529396  1
" 