4330,Ni69Fe15Cr15_13,-234.659299799888, 184.731941655139,Ni69Fe15Cr15,"# generated using pymatgen
 data_Cr9Fe8Ni37
_symmetry_space_group_name_H-M   'P 1'
_cell_length_a   7.44597804
_cell_length_b   7.44597804
_cell_length_c   10.53020313
_cell_angle_alpha   90.00000000
_cell_angle_beta   90.00000000
_cell_angle_gamma   90.00000000
_symmetry_Int_Tables_number   1
_chemical_formula_structural   Cr9Fe8Ni37
_chemical_formula_sum   'Cr9 Fe8 Ni37'
_cell_volume   583.82172361
_cell_formula_units_Z   1
loop_
 _symmetry_equiv_pos_site_id
 _symmetry_equiv_pos_as_xyz
  1  'x, y, z'
loop_
 _atom_site_type_symbol
 _atom_site_label
 _atom_site_symmetry_multiplicity
 _atom_site_fract_x
 _atom_site_fract_y
 _atom_site_fract_z
 _atom_site_occupancy
  Fe  Fe0  1  0.00540698  0.00167645  0.00298215  1
  Ni  Ni1  1  0.16696713  0.16725648  0.16816624  1
  Ni  Ni2  1  0.00173628  1.00114116  0.33376206  1
  Ni  Ni3  1  0.00171333  0.33621853  1.00095669  1
  Cr  Cr4  1  0.16928651  0.50112802  0.16871031  1
  Ni  Ni5  1  1.00090462  0.33415012  0.33592367  1
  Ni  Ni6  1  0.00281216  0.66779426  1.00111947  1
  Ni  Ni7  1  0.16739595  0.83588338  0.16815005  1
  Ni  Ni8  1  1.00129615  0.66912759  0.33608867  1
  Ni  Ni9  1  0.33357516  0.99985568  0.99989944  1
  Cr  Cr10  1  0.49773456  0.17042897  0.17016153  1
  Ni  Ni11  1  0.33336598  0.99898327  0.33485467  1
  Ni  Ni12  1  0.33493841  0.33477623  0.99926053  1
  Ni  Ni13  1  0.50314795  0.50238807  0.16904206  1
  Ni  Ni14  1  0.33366096  0.33576738  0.33595648  1
  Ni  Ni15  1  0.33436398  0.66973509  1.00119073  1
  Ni  Ni16  1  0.50095266  0.83246172  0.16917583  1
  Ni  Ni17  1  0.33524014  0.66978560  0.33530996  1
  Cr  Cr18  1  0.66463643  1.00075694  0.00423070  1
  Fe  Fe19  1  0.83605840  0.16917778  0.16952946  1
  Ni  Ni20  1  0.66922794  0.99961409  0.33464575  1
  Ni  Ni21  1  0.66811485  0.33633066  0.00153707  1
  Ni  Ni22  1  0.83405710  0.50247146  0.16754384  1
  Ni  Ni23  1  0.66983448  0.33606815  0.33444771  1
  Fe  Fe24  1  0.66577936  0.66549485  0.00277583  1
  Ni  Ni25  1  0.83619735  0.83238793  0.16876731  1
  Ni  Ni26  1  0.66770579  0.66891469  0.33391660  1
  Ni  Ni27  1  0.16707242  0.16864068  0.50064749  1
  Ni  Ni28  1  0.00260209  1.00125355  0.66672169  1
  Ni  Ni29  1  0.17066407  0.16823421  0.83495363  1
  Ni  Ni30  1  0.17026761  0.50132880  0.49983327  1
  Cr  Cr31  1  0.00385990  0.33427413  0.66663258  1
  Fe  Fe32  1  0.17113816  0.50239638  0.83608983  1
  Ni  Ni33  1  0.16797591  0.83442479  0.50035684  1
  Cr  Cr34  1  0.00357233  0.66836421  0.66613567  1
  Ni  Ni35  1  0.16962384  0.83527101  0.83516100  1
  Cr  Cr36  1  0.50014778  0.16704840  0.50110623  1
  Fe  Fe37  1  0.33347561  0.99995671  0.66854262  1
  Ni  Ni38  1  0.49868150  0.16906230  0.83378156  1
  Fe  Fe39  1  0.49977314  0.50363673  0.50028412  1
  Ni  Ni40  1  0.33408443  0.33651289  0.66962678  1
  Ni  Ni41  1  0.50041078  0.50193073  0.83568473  1
  Ni  Ni42  1  0.50245541  0.83242256  0.50207621  1
  Ni  Ni43  1  0.33607198  0.66841132  0.66802565  1
  Ni  Ni44  1  0.49956657  0.83291871  0.83326856  1
  Ni  Ni45  1  0.83592264  0.16556401  0.49901611  1
  Ni  Ni46  1  0.66739948  0.99947579  0.66714389  1
  Cr  Cr47  1  0.83564152  0.16706688  0.83578540  1
  Fe  Fe48  1  0.83456399  0.50293987  0.49819842  1
  Cr  Cr49  1  0.66735326  0.33561876  0.66768796  1
  Fe  Fe50  1  0.83367094  0.50198857  0.83745107  1
  Ni  Ni51  1  0.83368373  0.83536728  0.50136369  1
  Ni  Ni52  1  0.66541512  0.66974064  0.66825500  1
  Cr  Cr53  1  0.83519594  0.83277632  0.83446596  1
" 