3127,Ni69Cr31_0,-211.036582818346, 135.965088209999,Ni69Cr31,"# generated using pymatgen
 data_Cr37Ni17
_symmetry_space_group_name_H-M   'P 1'
_cell_length_a   7.56950201
_cell_length_b   7.56950201
_cell_length_c   10.70489241
_cell_angle_alpha   90.00000000
_cell_angle_beta   90.00000000
_cell_angle_gamma   90.00000000
_symmetry_Int_Tables_number   1
_chemical_formula_structural   Cr37Ni17
_chemical_formula_sum   'Cr37 Ni17'
_cell_volume   613.36208218
_cell_formula_units_Z   1
loop_
 _symmetry_equiv_pos_site_id
 _symmetry_equiv_pos_as_xyz
  1  'x, y, z'
loop_
 _atom_site_type_symbol
 _atom_site_label
 _atom_site_symmetry_multiplicity
 _atom_site_fract_x
 _atom_site_fract_y
 _atom_site_fract_z
 _atom_site_occupancy
  Ni  Ni0  1  0.99171740  -0.00412803  -0.00354661  1
  Ni  Ni1  1  0.15549994  0.15978056  0.15997076  1
  Ni  Ni2  1  0.99244681  0.99202465  0.32321095  1
  Ni  Ni3  1  0.99310109  0.32261885  -0.00482566  1
  Cr  Cr4  1  0.16049507  0.49261995  0.16199511  1
  Cr  Cr5  1  0.99233591  0.32478070  0.32571826  1
  Cr  Cr6  1  0.99312583  0.66057169  0.99261266  1
  Cr  Cr7  1  0.15702226  0.82770305  0.16092764  1
  Ni  Ni8  1  0.99217024  0.66294857  0.32546597  1
  Cr  Cr9  1  0.32487456  0.99288142  -0.00580578  1
  Cr  Cr10  1  0.49144424  0.16149676  0.16046450  1
  Cr  Cr11  1  0.32641361  0.99255337  0.32605702  1
  Cr  Cr12  1  0.32453559  0.32570754  -0.00610232  1
  Cr  Cr13  1  0.49338668  0.49467775  0.16127093  1
  Ni  Ni14  1  0.32493857  0.32689543  0.32552580  1
  Cr  Cr15  1  0.32680279  0.66132944  0.99224894  1
  Cr  Cr16  1  0.49556240  0.82335385  0.16033649  1
  Ni  Ni17  1  0.32754505  0.65990356  0.32762512  1
  Cr  Cr18  1  0.66156571  0.99283500  -0.00383926  1
  Ni  Ni19  1  0.83186855  0.15702491  0.15887349  1
  Cr  Cr20  1  0.66160176  0.99277309  0.32563860  1
  Cr  Cr21  1  0.66288672  0.32530371  -0.00546477  1
  Cr  Cr22  1  0.82605318  0.49590638  0.15974697  1
  Cr  Cr23  1  0.66111977  0.32458744  0.32596038  1
  Ni  Ni24  1  0.66214902  0.66154865  -0.00555674  1
  Ni  Ni25  1  0.82788683  0.82766648  0.16063092  1
  Ni  Ni26  1  0.66014412  0.66272231  0.32640396  1
  Cr  Cr27  1  0.16034326  0.15862472  0.49407439  1
  Ni  Ni28  1  -0.00670387  0.99304718  0.66008290  1
  Cr  Cr29  1  0.15918413  0.15837383  0.82593151  1
  Cr  Cr30  1  0.16122292  0.49288541  0.49033450  1
  Cr  Cr31  1  -0.00641111  0.32776792  0.66012749  1
  Cr  Cr32  1  0.15986446  0.49055417  0.82706550  1
  Cr  Cr33  1  0.15910471  0.82820037  0.49202392  1
  Cr  Cr34  1  0.99299693  0.65996115  0.65959405  1
  Cr  Cr35  1  0.15819944  0.83095221  0.82587716  1
  Cr  Cr36  1  0.49163152  0.15854475  0.49568975  1
  Ni  Ni37  1  0.32763754  -0.00671163  0.65898826  1
  Cr  Cr38  1  0.49257127  0.15853766  0.82339052  1
  Cr  Cr39  1  0.49296956  0.49423813  0.49072591  1
  Ni  Ni40  1  0.32671571  0.32494207  0.65971724  1
  Cr  Cr41  1  0.49491749  0.49367217  0.82766210  1
  Ni  Ni42  1  0.49406463  0.82540155  0.49446980  1
  Cr  Cr43  1  0.32636353  0.66103030  0.66015769  1
  Cr  Cr44  1  0.49542633  0.82738631  0.82585321  1
  Cr  Cr45  1  0.82799678  0.15587384  0.49489244  1
  Ni  Ni46  1  0.65874150  0.98966720  0.65882073  1
  Cr  Cr47  1  0.82802702  0.15721123  0.82628268  1
  Cr  Cr48  1  0.82551855  0.49676134  0.49227806  1
  Cr  Cr49  1  0.66034122  0.32670611  0.65917562  1
  Cr  Cr50  1  0.82506777  0.49446634  0.82751400  1
  Cr  Cr51  1  0.82608649  0.82695772  0.49291290  1
  Ni  Ni52  1  0.65809386  0.66337485  0.65909383  1
  Cr  Cr53  1  0.82588541  0.82803676  0.82627125  1
" 