7653,Ni69Fe19Cr10_14,-237.125243509121, 194.128357155902,Ni69Fe19Cr10,"# generated using pymatgen
 data_Cr7Fe10Ni37
_symmetry_space_group_name_H-M   'P 1'
_cell_length_a   7.43941523
_cell_length_b   7.43941523
_cell_length_c   10.52092191
_cell_angle_alpha   90.00000000
_cell_angle_beta   90.00000000
_cell_angle_gamma   90.00000000
_symmetry_Int_Tables_number   1
_chemical_formula_structural   Cr7Fe10Ni37
_chemical_formula_sum   'Cr7 Fe10 Ni37'
_cell_volume   582.27936021
_cell_formula_units_Z   1
loop_
 _symmetry_equiv_pos_site_id
 _symmetry_equiv_pos_as_xyz
  1  'x, y, z'
loop_
 _atom_site_type_symbol
 _atom_site_label
 _atom_site_symmetry_multiplicity
 _atom_site_fract_x
 _atom_site_fract_y
 _atom_site_fract_z
 _atom_site_occupancy
  Ni  Ni0  1  1.00128871  0.00261912  0.00461409  1
  Fe  Fe1  1  0.16891845  0.16807927  0.16747803  1
  Fe  Fe2  1  0.99904676  1.00094399  0.33538973  1
  Cr  Cr3  1  1.00132538  0.33471002  1.00097686  1
  Ni  Ni4  1  0.17296448  0.50362711  0.16756009  1
  Cr  Cr5  1  1.00183694  0.33510093  0.33551888  1
  Cr  Cr6  1  0.99964550  0.66799227  0.00271724  1
  Ni  Ni7  1  0.16809608  0.83541157  0.16766264  1
  Cr  Cr8  1  1.00072171  0.66847162  0.33565585  1
  Ni  Ni9  1  0.33649129  0.00295194  0.00287868  1
  Ni  Ni10  1  0.50322663  0.17073890  0.16712763  1
  Cr  Cr11  1  0.33639183  0.00233287  0.33549955  1
  Ni  Ni12  1  0.33673360  0.33444594  0.00262230  1
  Ni  Ni13  1  0.50095084  0.50055772  0.16829920  1
  Fe  Fe14  1  0.33771087  0.33707402  0.33533297  1
  Ni  Ni15  1  0.33775943  0.66817308  0.00386272  1
  Fe  Fe16  1  0.50355791  0.83387608  0.16786487  1
  Fe  Fe17  1  0.33700708  0.66714361  0.33541314  1
  Ni  Ni18  1  0.66779563  1.00159679  1.00183163  1
  Ni  Ni19  1  0.83279343  0.16586962  0.16806542  1
  Ni  Ni20  1  0.66877401  1.00117082  0.33575991  1
  Ni  Ni21  1  0.66694068  0.33519144  0.00319756  1
  Ni  Ni22  1  0.83165961  0.50201116  0.16779348  1
  Fe  Fe23  1  0.66709885  0.33506611  0.33505981  1
  Ni  Ni24  1  0.66727201  0.66878232  0.00218037  1
  Ni  Ni25  1  0.83586501  0.83768719  0.16789862  1
  Ni  Ni26  1  0.66800745  0.66901472  0.33518881  1
  Ni  Ni27  1  0.16841557  0.16771433  0.50412124  1
  Ni  Ni28  1  0.00203227  0.00485135  0.66594483  1
  Fe  Fe29  1  0.16885925  0.16941795  0.83363539  1
  Ni  Ni30  1  0.17183227  0.50185288  0.50352388  1
  Ni  Ni31  1  1.00176218  0.33359695  0.66844036  1
  Fe  Fe32  1  0.17100211  0.49886782  0.83425322  1
  Ni  Ni33  1  0.16901280  0.83600281  0.50248311  1
  Cr  Cr34  1  0.99978088  0.66661426  0.66719750  1
  Cr  Cr35  1  0.16916074  0.83654681  0.83516031  1
  Ni  Ni36  1  0.50248513  0.16992498  0.50296064  1
  Ni  Ni37  1  0.33565662  0.00314227  0.66740472  1
  Ni  Ni38  1  0.50214719  0.17025778  0.83548325  1
  Ni  Ni39  1  0.50113997  0.50171027  0.50155773  1
  Ni  Ni40  1  0.33473067  0.33411910  0.66764817  1
  Ni  Ni41  1  0.50190895  0.50053816  0.83571405  1
  Ni  Ni42  1  0.50174439  0.83393805  0.50340311  1
  Ni  Ni43  1  0.33785290  0.66830816  0.66618395  1
  Fe  Fe44  1  0.50457596  0.83476229  0.83495781  1
  Ni  Ni45  1  0.83467056  0.16710897  0.50290967  1
  Fe  Fe46  1  0.66844362  0.00249351  0.66819018  1
  Ni  Ni47  1  0.83383299  0.16762265  0.83459561  1
  Ni  Ni48  1  0.83260264  0.50111069  0.50295390  1
  Ni  Ni49  1  0.66907802  0.33579957  0.66741389  1
  Ni  Ni50  1  0.83170156  0.50081149  0.83482218  1
  Ni  Ni51  1  0.83481347  0.83735102  0.50190456  1
  Ni  Ni52  1  0.66736741  0.66804408  0.66820378  1
  Ni  Ni53  1  0.83379638  0.83713825  0.83576956  1
" 