1838,Ni69Fe20Cr9_5,-236.962854020869, 192.075734415373,Ni69Fe20Cr9,"# generated using pymatgen
 data_Cr7Fe10Ni37
_symmetry_space_group_name_H-M   'P 1'
_cell_length_a   7.44013852
_cell_length_b   7.44013852
_cell_length_c   10.52194481
_cell_angle_alpha   90.00000000
_cell_angle_beta   90.00000000
_cell_angle_gamma   90.00000000
_symmetry_Int_Tables_number   1
_chemical_formula_structural   Cr7Fe10Ni37
_chemical_formula_sum   'Cr7 Fe10 Ni37'
_cell_volume   582.44921259
_cell_formula_units_Z   1
loop_
 _symmetry_equiv_pos_site_id
 _symmetry_equiv_pos_as_xyz
  1  'x, y, z'
loop_
 _atom_site_type_symbol
 _atom_site_label
 _atom_site_symmetry_multiplicity
 _atom_site_fract_x
 _atom_site_fract_y
 _atom_site_fract_z
 _atom_site_occupancy
  Ni  Ni0  1  0.00334351  0.00278485  0.00273232  1
  Ni  Ni1  1  0.16717980  0.16659515  0.16906366  1
  Fe  Fe2  1  1.00157846  0.00207198  0.33502580  1
  Ni  Ni3  1  1.00059799  0.33296965  1.00116776  1
  Cr  Cr4  1  0.16570309  0.50041554  0.16777540  1
  Ni  Ni5  1  1.00084826  0.33423582  0.33515113  1
  Fe  Fe6  1  0.99966359  0.66872112  1.00117696  1
  Ni  Ni7  1  0.16774768  0.83761744  0.16794772  1
  Ni  Ni8  1  0.99932783  0.66925580  0.33539581  1
  Fe  Fe9  1  0.33412637  1.00172629  0.00183459  1
  Cr  Cr10  1  0.50179396  0.16708296  0.16928058  1
  Ni  Ni11  1  0.33368184  0.00317543  0.33405939  1
  Fe  Fe12  1  0.33417085  0.33423915  0.99869974  1
  Cr  Cr13  1  0.50440821  0.50228485  0.16922048  1
  Ni  Ni14  1  0.33420593  0.33157109  0.33789045  1
  Fe  Fe15  1  0.33525517  0.66946091  1.00039278  1
  Ni  Ni16  1  0.50300987  0.83611645  0.16731354  1
  Cr  Cr17  1  0.33456630  0.67043469  0.33634472  1
  Fe  Fe18  1  0.67068176  1.00155334  1.00160078  1
  Ni  Ni19  1  0.83667509  0.16810566  0.16841295  1
  Ni  Ni20  1  0.66894725  1.00165374  0.33446513  1
  Ni  Ni21  1  0.67056492  0.33641650  1.00057683  1
  Ni  Ni22  1  0.83517248  0.50264934  0.16845527  1
  Ni  Ni23  1  0.67037260  0.33503654  0.33624413  1
  Ni  Ni24  1  0.66788117  0.66852435  0.00183356  1
  Ni  Ni25  1  0.83466601  0.83467044  0.16951872  1
  Ni  Ni26  1  0.67161441  0.66873377  0.33443069  1
  Ni  Ni27  1  0.16913144  0.17023293  0.50058195  1
  Ni  Ni28  1  1.00090732  1.00180603  0.66789108  1
  Ni  Ni29  1  0.16875047  0.17015903  0.83577905  1
  Ni  Ni30  1  0.16677091  0.50004129  0.50214129  1
  Ni  Ni31  1  1.00127687  0.33444980  0.66910504  1
  Ni  Ni32  1  0.16852766  0.50061994  0.83559872  1
  Ni  Ni33  1  0.16456980  0.83515009  0.50103099  1
  Ni  Ni34  1  0.99970196  0.66917007  0.66902642  1
  Fe  Fe35  1  0.16583457  0.83545431  0.83633640  1
  Ni  Ni36  1  0.50175649  0.17083612  0.50087776  1
  Cr  Cr37  1  0.33305925  0.00419338  0.66903317  1
  Ni  Ni38  1  0.50194344  0.16977116  0.83548159  1
  Fe  Fe39  1  0.50367531  0.49788872  0.50216526  1
  Ni  Ni40  1  0.33554663  0.33461112  0.66856788  1
  Ni  Ni41  1  0.50183346  0.50067778  0.83514356  1
  Cr  Cr42  1  0.50477159  0.83653893  0.50074489  1
  Cr  Cr43  1  0.33457059  0.66653943  0.66871982  1
  Fe  Fe44  1  0.50424532  0.83449309  0.83707079  1
  Ni  Ni45  1  0.83453708  0.16863297  0.50218327  1
  Fe  Fe46  1  0.67192519  0.00332011  0.66869025  1
  Ni  Ni47  1  0.83473593  0.16775577  0.83482739  1
  Ni  Ni48  1  0.83590128  0.50264180  0.50169434  1
  Ni  Ni49  1  0.66860377  0.33581925  0.66860646  1
  Ni  Ni50  1  0.83506157  0.50291276  0.83527502  1
  Ni  Ni51  1  0.83650150  0.83414981  0.50183776  1
  Ni  Ni52  1  0.67105417  0.66692652  0.66916191  1
  Ni  Ni53  1  0.83467415  0.83475706  0.83406915  1
" 