870,Ni69Cr31_6,-211.580780053597, 141.920816130001,Ni69Cr31,"# generated using pymatgen
 data_Cr37Ni17
_symmetry_space_group_name_H-M   'P 1'
_cell_length_a   7.56018459
_cell_length_b   7.56018459
_cell_length_c   10.69171558
_cell_angle_alpha   90.00000000
_cell_angle_beta   90.00000000
_cell_angle_gamma   90.00000000
_symmetry_Int_Tables_number   1
_chemical_formula_structural   Cr37Ni17
_chemical_formula_sum   'Cr37 Ni17'
_cell_volume   611.09987690
_cell_formula_units_Z   1
loop_
 _symmetry_equiv_pos_site_id
 _symmetry_equiv_pos_as_xyz
  1  'x, y, z'
loop_
 _atom_site_type_symbol
 _atom_site_label
 _atom_site_symmetry_multiplicity
 _atom_site_fract_x
 _atom_site_fract_y
 _atom_site_fract_z
 _atom_site_occupancy
  Cr  Cr0  1  0.99229839  -0.00559330  -0.00545512  1
  Ni  Ni1  1  0.16061945  0.16330471  0.16063430  1
  Cr  Cr2  1  -0.00540302  -0.00216853  0.32805495  1
  Cr  Cr3  1  -0.00340548  0.32782084  -0.00329856  1
  Cr  Cr4  1  0.16078993  0.49222458  0.16114101  1
  Ni  Ni5  1  0.99149159  0.32504566  0.32688860  1
  Cr  Cr6  1  0.99343144  0.65927616  0.99025967  1
  Cr  Cr7  1  0.16154788  0.82720666  0.16241995  1
  Cr  Cr8  1  -0.00573553  0.65929512  0.32744168  1
  Cr  Cr9  1  0.32742283  -0.00338381  -0.00306612  1
  Cr  Cr10  1  0.49445421  0.16203081  0.15703306  1
  Cr  Cr11  1  0.32560782  0.99311789  0.32741292  1
  Ni  Ni12  1  0.32868457  0.32841199  0.99224031  1
  Cr  Cr13  1  0.49534498  0.49334916  0.16231981  1
  Cr  Cr14  1  0.32532207  0.32663154  0.32612763  1
  Cr  Cr15  1  0.32731527  0.65620995  0.99212313  1
  Cr  Cr16  1  0.49465975  0.82616565  0.16247231  1
  Ni  Ni17  1  0.32812033  0.66072413  0.32853993  1
  Ni  Ni18  1  0.66175597  -0.00470689  0.99242442  1
  Cr  Cr19  1  0.82642969  0.16305469  0.16064503  1
  Cr  Cr20  1  0.66131812  -0.00495801  0.32829872  1
  Ni  Ni21  1  0.65716814  0.32643129  0.99260053  1
  Cr  Cr22  1  0.82535516  0.49227902  0.16440339  1
  Ni  Ni23  1  0.66347522  0.32808917  0.32862261  1
  Cr  Cr24  1  0.66067867  0.66026998  0.99163329  1
  Cr  Cr25  1  0.82515708  0.82628609  0.15797854  1
  Ni  Ni26  1  0.65831564  0.65800394  0.32688022  1
  Cr  Cr27  1  0.15825833  0.15987953  0.49546243  1
  Ni  Ni28  1  0.99231177  0.99101416  0.65893878  1
  Cr  Cr29  1  0.16213343  0.16234312  0.82698108  1
  Cr  Cr30  1  0.16015068  0.49621640  0.49432753  1
  Cr  Cr31  1  0.99348193  0.32754016  0.65922665  1
  Ni  Ni32  1  0.16387303  0.49270765  0.82596523  1
  Ni  Ni33  1  0.15865582  0.82612719  0.49474122  1
  Ni  Ni34  1  -0.00492596  0.66326521  0.66218233  1
  Cr  Cr35  1  0.15676891  0.82629318  0.82382704  1
  Cr  Cr36  1  0.49666990  0.16403754  0.49654827  1
  Cr  Cr37  1  0.32578897  -0.00530638  0.65728972  1
  Cr  Cr38  1  0.49423202  0.16400538  0.82797286  1
  Cr  Cr39  1  0.49502141  0.49264528  0.49248937  1
  Ni  Ni40  1  0.32907428  0.32995287  0.66393515  1
  Ni  Ni41  1  0.49193086  0.48891324  0.82730680  1
  Cr  Cr42  1  0.49129692  0.82486790  0.48963308  1
  Cr  Cr43  1  0.32644407  0.65772572  0.66115304  1
  Cr  Cr44  1  0.49575143  0.82864430  0.82938468  1
  Ni  Ni45  1  0.82751306  0.16262245  0.49377768  1
  Cr  Cr46  1  0.66338262  -0.00477470  0.66029325  1
  Cr  Cr47  1  0.82545002  0.15860198  0.82674721  1
  Cr  Cr48  1  0.82608172  0.49120689  0.49072030  1
  Ni  Ni49  1  0.65874464  0.32742665  0.66025331  1
  Cr  Cr50  1  0.82731353  0.49379954  0.82643615  1
  Cr  Cr51  1  0.82986925  0.82661543  0.49596160  1
  Cr  Cr52  1  0.66133126  0.65846212  0.66287059  1
  Ni  Ni53  1  0.82855195  0.82812473  0.82617449  1
" 