7702,Ni69Cr31_2,-211.429008656383, 141.174330731108,Ni69Cr31,"# generated using pymatgen
 data_Cr37Ni17
_symmetry_space_group_name_H-M   'P 1'
_cell_length_a   7.56557864
_cell_length_b   7.56557864
_cell_length_c   10.69934391
_cell_angle_alpha   90.00000000
_cell_angle_beta   90.00000000
_cell_angle_gamma   90.00000000
_symmetry_Int_Tables_number   1
_chemical_formula_structural   Cr37Ni17
_chemical_formula_sum   'Cr37 Ni17'
_cell_volume   612.40883406
_cell_formula_units_Z   1
loop_
 _symmetry_equiv_pos_site_id
 _symmetry_equiv_pos_as_xyz
  1  'x, y, z'
loop_
 _atom_site_type_symbol
 _atom_site_label
 _atom_site_symmetry_multiplicity
 _atom_site_fract_x
 _atom_site_fract_y
 _atom_site_fract_z
 _atom_site_occupancy
  Cr  Cr0  1  -0.00601248  0.99312363  0.99266711  1
  Cr  Cr1  1  0.16136231  0.15896665  0.16066148  1
  Ni  Ni2  1  0.99014277  0.99075933  0.32765871  1
  Cr  Cr3  1  -0.00588384  0.32733899  0.99195560  1
  Cr  Cr4  1  0.16079781  0.49634243  0.15877342  1
  Cr  Cr5  1  -0.00649437  0.32816626  0.32840496  1
  Ni  Ni6  1  -0.00434428  0.65966324  -0.00636072  1
  Cr  Cr7  1  0.15849508  0.82516498  0.15920488  1
  Ni  Ni8  1  0.99303609  0.66231077  0.32856506  1
  Cr  Cr9  1  0.32743439  -0.00422466  0.99168188  1
  Ni  Ni10  1  0.49561712  0.16227120  0.15979041  1
  Cr  Cr11  1  0.32857489  0.99345817  0.32710375  1
  Ni  Ni12  1  0.32957662  0.32609359  0.99247642  1
  Cr  Cr13  1  0.49350853  0.48998296  0.15773268  1
  Cr  Cr14  1  0.32728133  0.32738882  0.32704396  1
  Ni  Ni15  1  0.32501088  0.65788073  -0.00636308  1
  Cr  Cr16  1  0.49232936  0.82803215  0.16016975  1
  Cr  Cr17  1  0.32574313  0.65958013  0.32853331  1
  Cr  Cr18  1  0.65900230  -0.00434762  0.99325138  1
  Cr  Cr19  1  0.82332831  0.16013311  0.16311895  1
  Ni  Ni20  1  0.66134030  -0.00568839  0.32782848  1
  Ni  Ni21  1  0.65589085  0.32525807  -0.00609467  1
  Cr  Cr22  1  0.82621340  0.49291120  0.15922434  1
  Ni  Ni23  1  0.65947490  0.32345535  0.32504646  1
  Cr  Cr24  1  0.66075747  0.65906527  0.99278666  1
  Cr  Cr25  1  0.82965416  0.82746452  0.16161877  1
  Cr  Cr26  1  0.66140453  0.66181352  0.32918773  1
  Cr  Cr27  1  0.15836456  0.16117160  0.49420645  1
  Cr  Cr28  1  0.99348093  -0.00538145  0.66132571  1
  Ni  Ni29  1  0.16225170  0.16203945  0.82666511  1
  Ni  Ni30  1  0.15717892  0.49519509  0.49443829  1
  Ni  Ni31  1  -0.00449610  0.32917319  0.66018306  1
  Cr  Cr32  1  0.15973048  0.49361634  0.82725061  1
  Cr  Cr33  1  0.15837591  0.82523243  0.49205507  1
  Ni  Ni34  1  0.99136642  0.65807162  0.65823158  1
  Cr  Cr35  1  0.15963343  0.82619234  0.82924481  1
  Cr  Cr36  1  0.49529315  0.15900679  0.49120534  1
  Cr  Cr37  1  0.32795252  -0.00537513  0.66170344  1
  Ni  Ni38  1  0.49145869  0.16212291  0.82943684  1
  Cr  Cr39  1  0.49357884  0.49448289  0.49377781  1
  Cr  Cr40  1  0.32341836  0.32578098  0.66049758  1
  Cr  Cr41  1  0.49394442  0.49229284  0.82886073  1
  Ni  Ni42  1  0.49722423  0.82653006  0.49373498  1
  Cr  Cr43  1  0.32796406  0.66012727  0.65721830  1
  Cr  Cr44  1  0.49282556  0.82616785  0.82584798  1
  Cr  Cr45  1  0.82677402  0.15886909  0.49116663  1
  Cr  Cr46  1  0.65907735  0.99009801  0.65976751  1
  Cr  Cr47  1  0.82668391  0.16195345  0.82629322  1
  Cr  Cr48  1  0.82838602  0.49454336  0.49526893  1
  Cr  Cr49  1  0.66117579  0.32787743  0.66166311  1
  Cr  Cr50  1  0.82684356  0.49401374  0.82596935  1
  Ni  Ni51  1  0.82605890  0.82550231  0.49251964  1
  Ni  Ni52  1  0.66250614  0.66215033  0.65824783  1
  Cr  Cr53  1  0.82806962  0.82454377  0.82591534  1
" 