5016,Ni69Fe20Cr9_17,-237.024204399725, 194.535441538661,Ni69Fe20Cr9,"# generated using pymatgen
 data_Cr7Fe10Ni37
_symmetry_space_group_name_H-M   'P 1'
_cell_length_a   7.44039696
_cell_length_b   7.44039696
_cell_length_c   10.52231029
_cell_angle_alpha   90.00000000
_cell_angle_beta   90.00000000
_cell_angle_gamma   90.00000000
_symmetry_Int_Tables_number   1
_chemical_formula_structural   Cr7Fe10Ni37
_chemical_formula_sum   'Cr7 Fe10 Ni37'
_cell_volume   582.50990903
_cell_formula_units_Z   1
loop_
 _symmetry_equiv_pos_site_id
 _symmetry_equiv_pos_as_xyz
  1  'x, y, z'
loop_
 _atom_site_type_symbol
 _atom_site_label
 _atom_site_symmetry_multiplicity
 _atom_site_fract_x
 _atom_site_fract_y
 _atom_site_fract_z
 _atom_site_occupancy
  Ni  Ni0  1  0.00221031  1.00016477  0.00226371  1
  Ni  Ni1  1  0.17099090  0.16660273  0.17023891  1
  Ni  Ni2  1  1.00075530  1.00126074  0.33531253  1
  Cr  Cr3  1  0.00254108  0.33390233  1.00080882  1
  Ni  Ni4  1  0.17055580  0.50374201  0.16953932  1
  Ni  Ni5  1  0.00472354  0.33504428  0.33686837  1
  Ni  Ni6  1  0.00587108  0.67143459  0.00317968  1
  Fe  Fe7  1  0.16826391  0.83467598  0.16845249  1
  Ni  Ni8  1  0.00303565  0.66906963  0.33543527  1
  Ni  Ni9  1  0.33573617  1.00023268  0.00220991  1
  Ni  Ni10  1  0.50003001  0.16797039  0.16789405  1
  Fe  Fe11  1  0.33387219  0.00279649  0.33481796  1
  Cr  Cr12  1  0.33701548  0.33586062  0.00189618  1
  Ni  Ni13  1  0.49954361  0.50145432  0.16937956  1
  Ni  Ni14  1  0.33466372  0.33639713  0.33435940  1
  Ni  Ni15  1  0.33378797  0.66965595  1.00171506  1
  Fe  Fe16  1  0.50074137  0.83609445  0.16825716  1
  Ni  Ni17  1  0.33503354  0.66639594  0.33432451  1
  Ni  Ni18  1  0.66742893  0.00355353  1.00160567  1
  Cr  Cr19  1  0.83461264  0.16558574  0.16796680  1
  Ni  Ni20  1  0.66865919  1.00089004  0.33525376  1
  Ni  Ni21  1  0.66565171  0.33182581  1.00107055  1
  Cr  Cr22  1  0.83526154  0.50443401  0.16942822  1
  Fe  Fe23  1  0.66663631  0.33541736  0.33656508  1
  Cr  Cr24  1  0.66577993  0.66943713  0.00300065  1
  Ni  Ni25  1  0.83663890  0.83551374  0.16846698  1
  Fe  Fe26  1  0.66864639  0.66899550  0.33633539  1
  Ni  Ni27  1  0.16920724  0.16801817  0.50133369  1
  Ni  Ni28  1  1.00116777  0.00296909  0.66779635  1
  Ni  Ni29  1  0.16883556  0.16642855  0.83380056  1
  Ni  Ni30  1  0.16797503  0.50193928  0.50210229  1
  Ni  Ni31  1  0.00308223  0.33384685  0.66756072  1
  Fe  Fe32  1  0.17068666  0.50300682  0.83333778  1
  Ni  Ni33  1  0.16665628  0.83541637  0.50204390  1
  Ni  Ni34  1  0.00368139  0.66855792  0.66675917  1
  Fe  Fe35  1  0.17053610  0.83562275  0.83511116  1
  Ni  Ni36  1  0.50089152  0.16909334  0.50198977  1
  Fe  Fe37  1  0.33506286  0.00238619  0.66908729  1
  Ni  Ni38  1  0.50187730  0.16785744  0.83549162  1
  Ni  Ni39  1  0.50234686  0.50108271  0.50198180  1
  Ni  Ni40  1  0.33519635  0.33634404  0.66871033  1
  Ni  Ni41  1  0.50036057  0.50170387  0.83401060  1
  Fe  Fe42  1  0.50157247  0.83436527  0.50256885  1
  Ni  Ni43  1  0.33562349  0.66708463  0.66933288  1
  Ni  Ni44  1  0.49935045  0.83581254  0.83444753  1
  Fe  Fe45  1  0.83582352  0.16864383  0.50238489  1
  Ni  Ni46  1  0.66856679  0.00254089  0.66851248  1
  Ni  Ni47  1  0.83465939  0.16744236  0.83473552  1
  Ni  Ni48  1  0.83505368  0.50363494  0.50170634  1
  Ni  Ni49  1  0.66709569  0.33383402  0.66810210  1
  Cr  Cr50  1  0.83449310  0.50096783  0.83419506  1
  Ni  Ni51  1  0.83612578  0.83396346  0.50180544  1
  Ni  Ni52  1  0.66607082  0.66899786  0.66607647  1
  Cr  Cr53  1  0.83602482  0.83674202  0.83508032  1
" 