6751,Ni69Fe20Cr9_3,-237.093201670007, 196.883488302862,Ni69Fe20Cr9,"# generated using pymatgen
 data_Cr7Fe10Ni37
_symmetry_space_group_name_H-M   'P 1'
_cell_length_a   7.44179305
_cell_length_b   7.44179305
_cell_length_c   10.52428466
_cell_angle_alpha   90.00000000
_cell_angle_beta   90.00000000
_cell_angle_gamma   90.00000000
_symmetry_Int_Tables_number   1
_chemical_formula_structural   Cr7Fe10Ni37
_chemical_formula_sum   'Cr7 Fe10 Ni37'
_cell_volume   582.83787074
_cell_formula_units_Z   1
loop_
 _symmetry_equiv_pos_site_id
 _symmetry_equiv_pos_as_xyz
  1  'x, y, z'
loop_
 _atom_site_type_symbol
 _atom_site_label
 _atom_site_symmetry_multiplicity
 _atom_site_fract_x
 _atom_site_fract_y
 _atom_site_fract_z
 _atom_site_occupancy
  Ni  Ni0  1  0.00246744  0.00235530  1.00104724  1
  Ni  Ni1  1  0.16841884  0.16880061  0.16758674  1
  Ni  Ni2  1  1.00137376  0.00337929  0.33532912  1
  Ni  Ni3  1  1.00069151  0.33375777  1.00127705  1
  Cr  Cr4  1  0.16878587  0.50032246  0.16853752  1
  Ni  Ni5  1  1.00025657  0.33350902  0.33581379  1
  Ni  Ni6  1  0.99873413  0.66898020  0.99990641  1
  Cr  Cr7  1  0.16628523  0.83513709  0.16759642  1
  Ni  Ni8  1  1.00148809  0.66819702  0.33631173  1
  Ni  Ni9  1  0.33470577  0.00251939  1.00099679  1
  Ni  Ni10  1  0.50245452  0.17004040  0.16785672  1
  Cr  Cr11  1  0.33427252  0.00274573  0.33569207  1
  Ni  Ni12  1  0.33615827  0.33327783  1.00121728  1
  Ni  Ni13  1  0.50254243  0.50003654  0.16780330  1
  Ni  Ni14  1  0.33597759  0.33495661  0.33576353  1
  Ni  Ni15  1  0.33795831  0.66929058  0.99985802  1
  Fe  Fe16  1  0.50338922  0.83476298  0.16700975  1
  Ni  Ni17  1  0.33584307  0.66785082  0.33766882  1
  Fe  Fe18  1  0.66848400  1.00169459  1.00148314  1
  Ni  Ni19  1  0.83422061  0.16756444  0.16870374  1
  Fe  Fe20  1  0.66944417  0.00469522  0.33496216  1
  Ni  Ni21  1  0.66823891  0.33701927  1.00154065  1
  Ni  Ni22  1  0.83354849  0.50193135  0.16724592  1
  Ni  Ni23  1  0.66885707  0.33484101  0.33576822  1
  Ni  Ni24  1  0.66840397  0.66753009  0.00235648  1
  Ni  Ni25  1  0.83477155  0.83560163  0.16822712  1
  Cr  Cr26  1  0.66795198  0.66661623  0.33311727  1
  Ni  Ni27  1  0.16773324  0.16963395  0.50104245  1
  Ni  Ni28  1  1.00159724  0.00289450  0.66871955  1
  Ni  Ni29  1  0.16905331  0.16938641  0.83645988  1
  Fe  Fe30  1  0.16828301  0.50110787  0.50146162  1
  Ni  Ni31  1  1.00138720  0.33431147  0.66800007  1
  Ni  Ni32  1  0.16877454  0.50164989  0.83459163  1
  Ni  Ni33  1  0.16861137  0.83307940  0.50212872  1
  Fe  Fe34  1  0.00304935  0.66708600  0.66931367  1
  Fe  Fe35  1  0.16734770  0.83397405  0.83618942  1
  Ni  Ni36  1  0.50293876  0.16997369  0.50185184  1
  Cr  Cr37  1  0.33415077  0.00219118  0.66814336  1
  Ni  Ni38  1  0.50135998  0.16971312  0.83537816  1
  Fe  Fe39  1  0.50012122  0.49935840  0.50136824  1
  Ni  Ni40  1  0.33495439  0.33568564  0.66810466  1
  Ni  Ni41  1  0.50039572  0.50007789  0.83552783  1
  Ni  Ni42  1  0.49935856  0.83546577  0.50153770  1
  Fe  Fe43  1  0.33372673  0.66659485  0.66814704  1
  Fe  Fe44  1  0.50175128  0.83443641  0.83633119  1
  Ni  Ni45  1  0.83441798  0.16998667  0.50235697  1
  Ni  Ni46  1  0.66909430  0.00325124  0.66850490  1
  Fe  Fe47  1  0.83527585  0.16948860  0.83447781  1
  Ni  Ni48  1  0.83679605  0.49878209  0.50147930  1
  Ni  Ni49  1  0.66874993  0.33451362  0.66778421  1
  Ni  Ni50  1  0.83591790  0.50284218  0.83636303  1
  Cr  Cr51  1  0.83709106  0.83684010  0.50094193  1
  Cr  Cr52  1  0.66771147  0.66686409  0.66913710  1
  Ni  Ni53  1  0.83625470  0.83502496  0.83560829  1
" 