448,Ni69Cr31_5,-211.510556725857, 141.575548835017,Ni69Cr31,"# generated using pymatgen
 data_Cr37Ni17
_symmetry_space_group_name_H-M   'P 1'
_cell_length_a   7.55758294
_cell_length_b   7.55758294
_cell_length_c   10.68803630
_cell_angle_alpha   90.00000000
_cell_angle_beta   90.00000000
_cell_angle_gamma   90.00000000
_symmetry_Int_Tables_number   1
_chemical_formula_structural   Cr37Ni17
_chemical_formula_sum   'Cr37 Ni17'
_cell_volume   610.46921018
_cell_formula_units_Z   1
loop_
 _symmetry_equiv_pos_site_id
 _symmetry_equiv_pos_as_xyz
  1  'x, y, z'
loop_
 _atom_site_type_symbol
 _atom_site_label
 _atom_site_symmetry_multiplicity
 _atom_site_fract_x
 _atom_site_fract_y
 _atom_site_fract_z
 _atom_site_occupancy
  Ni  Ni0  1  -0.00372095  -0.00357283  0.99151354  1
  Ni  Ni1  1  0.15945858  0.16203037  0.15945389  1
  Cr  Cr2  1  -0.00472185  -0.00413096  0.32552325  1
  Ni  Ni3  1  -0.00360204  0.32336851  0.99396335  1
  Cr  Cr4  1  0.16307775  0.49289740  0.16015641  1
  Ni  Ni5  1  0.99302965  0.32613587  0.32677363  1
  Cr  Cr6  1  0.99393479  0.66317970  0.99241321  1
  Cr  Cr7  1  0.16322038  0.82826326  0.16190568  1
  Cr  Cr8  1  -0.00553383  0.65909447  0.32846976  1
  Cr  Cr9  1  0.32378182  -0.00463341  0.99220097  1
  Cr  Cr10  1  0.49470406  0.16212971  0.16201556  1
  Ni  Ni11  1  0.32946662  -0.00568369  0.32822742  1
  Ni  Ni12  1  0.32604432  0.32829467  -0.00544977  1
  Ni  Ni13  1  0.49283584  0.49298670  0.15955722  1
  Cr  Cr14  1  0.32788019  0.32581549  0.32716147  1
  Ni  Ni15  1  0.32836333  0.65919513  0.99296587  1
  Cr  Cr16  1  0.49147285  0.82582920  0.16317302  1
  Ni  Ni17  1  0.32874157  0.66162453  0.32655990  1
  Cr  Cr18  1  0.66245924  0.99268991  0.99210464  1
  Cr  Cr19  1  0.82849120  0.16218536  0.16034103  1
  Ni  Ni20  1  0.65759253  -0.00313727  0.32933760  1
  Ni  Ni21  1  0.65955068  0.32881367  -0.00491059  1
  Cr  Cr22  1  0.82619910  0.48955570  0.16073114  1
  Ni  Ni23  1  0.66032987  0.32539188  0.32786715  1
  Cr  Cr24  1  0.65894957  0.66004760  0.99306777  1
  Cr  Cr25  1  0.82727560  0.83029076  0.16099002  1
  Cr  Cr26  1  0.65957804  0.65964912  0.32591517  1
  Cr  Cr27  1  0.16176542  0.16051753  0.49309895  1
  Cr  Cr28  1  -0.00477099  0.99279544  0.66445104  1
  Ni  Ni29  1  0.15933300  0.15898096  0.83033341  1
  Cr  Cr30  1  0.16021826  0.49522240  0.49338163  1
  Cr  Cr31  1  -0.00414431  0.32682976  0.66003420  1
  Cr  Cr32  1  0.16178069  0.49343647  0.82837354  1
  Cr  Cr33  1  0.16318504  0.82622372  0.49192839  1
  Cr  Cr34  1  0.99276342  0.66237866  0.66122195  1
  Ni  Ni35  1  0.16062931  0.82921345  0.82881786  1
  Ni  Ni36  1  0.49541987  0.15963605  0.49114493  1
  Cr  Cr37  1  0.32727484  -0.00421026  0.66175967  1
  Cr  Cr38  1  0.49345953  0.16096990  0.82749286  1
  Cr  Cr39  1  0.49344248  0.49295048  0.49339259  1
  Cr  Cr40  1  0.32734590  0.32452415  0.66039309  1
  Cr  Cr41  1  0.49274940  0.49461499  0.83038103  1
  Cr  Cr42  1  0.49226370  0.83033445  0.49136149  1
  Cr  Cr43  1  0.32738962  0.66170109  0.66219345  1
  Ni  Ni44  1  0.49276362  0.82635342  0.82772514  1
  Cr  Cr45  1  0.82431907  0.16173427  0.49158450  1
  Cr  Cr46  1  0.65950586  0.99276818  0.66112840  1
  Cr  Cr47  1  0.82914060  0.16044103  0.82997280  1
  Cr  Cr48  1  0.82840656  0.49148815  0.49343519  1
  Cr  Cr49  1  0.65882209  0.32703446  0.65869154  1
  Cr  Cr50  1  0.82744919  0.49262132  0.82777205  1
  Cr  Cr51  1  0.82664365  0.82876538  0.49347922  1
  Cr  Cr52  1  0.66186616  0.66224445  0.66320343  1
  Ni  Ni53  1  0.82867519  0.82867536  0.82777548  1
" 