7887,Ni69Cr31_13,-211.469240148051, 141.669016655578,Ni69Cr31,"# generated using pymatgen
 data_Cr37Ni17
_symmetry_space_group_name_H-M   'P 1'
_cell_length_a   7.56125257
_cell_length_b   7.56125257
_cell_length_c   10.69322593
_cell_angle_alpha   90.00000000
_cell_angle_beta   90.00000000
_cell_angle_gamma   90.00000000
_symmetry_Int_Tables_number   1
_chemical_formula_structural   Cr37Ni17
_chemical_formula_sum   'Cr37 Ni17'
_cell_volume   611.35889188
_cell_formula_units_Z   1
loop_
 _symmetry_equiv_pos_site_id
 _symmetry_equiv_pos_as_xyz
  1  'x, y, z'
loop_
 _atom_site_type_symbol
 _atom_site_label
 _atom_site_symmetry_multiplicity
 _atom_site_fract_x
 _atom_site_fract_y
 _atom_site_fract_z
 _atom_site_occupancy
  Cr  Cr0  1  -0.00585914  0.99080350  0.99370558  1
  Cr  Cr1  1  0.16119338  0.16254050  0.16071968  1
  Cr  Cr2  1  -0.00576436  -0.00574917  0.32775006  1
  Cr  Cr3  1  -0.00368461  0.33064054  -0.00592808  1
  Ni  Ni4  1  0.15933546  0.49483045  0.16094064  1
  Ni  Ni5  1  0.99060987  0.32851962  0.32624238  1
  Cr  Cr6  1  -0.00426744  0.65990641  -0.00570252  1
  Ni  Ni7  1  0.16128950  0.82394505  0.16140261  1
  Cr  Cr8  1  -0.00396225  0.65902525  0.32329519  1
  Cr  Cr9  1  0.32887227  -0.00390717  -0.00570789  1
  Ni  Ni10  1  0.49475864  0.16135265  0.15892522  1
  Cr  Cr11  1  0.32772271  0.99320299  0.32625378  1
  Ni  Ni12  1  0.32762317  0.32664675  0.99343121  1
  Cr  Cr13  1  0.49294059  0.49270631  0.16164205  1
  Cr  Cr14  1  0.32948497  0.32796338  0.32644862  1
  Cr  Cr15  1  0.32309057  0.65877262  -0.00568846  1
  Cr  Cr16  1  0.49289792  0.82789856  0.16043090  1
  Ni  Ni17  1  0.32572747  0.65912571  0.32660867  1
  Ni  Ni18  1  0.65834463  -0.00377400  0.99351414  1
  Cr  Cr19  1  0.82609515  0.16243040  0.16133087  1
  Cr  Cr20  1  0.65926518  -0.00210282  0.32794100  1
  Cr  Cr21  1  0.65719750  0.32476277  -0.00592113  1
  Ni  Ni22  1  0.82935759  0.49202114  0.16238874  1
  Ni  Ni23  1  0.66160690  0.32631909  0.32837826  1
  Cr  Cr24  1  0.66247738  0.66093958  -0.00566931  1
  Cr  Cr25  1  0.82645071  0.82688050  0.15861472  1
  Cr  Cr26  1  0.65940980  0.65712495  0.32746183  1
  Cr  Cr27  1  0.15894264  0.16053343  0.49383612  1
  Cr  Cr28  1  -0.00477220  0.99304852  0.65984881  1
  Cr  Cr29  1  0.16271758  0.16127625  0.82679364  1
  Cr  Cr30  1  0.16299274  0.49377301  0.49324638  1
  Cr  Cr31  1  0.99345534  0.32749031  0.66039260  1
  Ni  Ni32  1  0.16242376  0.49574703  0.82740538  1
  Cr  Cr33  1  0.16358048  0.82703595  0.49469011  1
  Cr  Cr34  1  -0.00355569  0.66078993  0.66377310  1
  Ni  Ni35  1  0.16240206  0.82520778  0.82496599  1
  Ni  Ni36  1  0.49621663  0.16219796  0.49402713  1
  Ni  Ni37  1  0.32798874  0.99240463  0.66154099  1
  Ni  Ni38  1  0.49250251  0.15922090  0.82833703  1
  Ni  Ni39  1  0.49336223  0.49273274  0.49298973  1
  Cr  Cr40  1  0.32944125  0.32679378  0.66174362  1
  Cr  Cr41  1  0.49084253  0.49329159  0.82640354  1
  Cr  Cr42  1  0.49125955  0.82474007  0.49469726  1
  Ni  Ni43  1  0.32574811  0.66168593  0.66107704  1
  Cr  Cr44  1  0.49258595  0.82848251  0.82625188  1
  Ni  Ni45  1  0.82485273  0.16261119  0.49182235  1
  Cr  Cr46  1  0.65834531  -0.00333492  0.65965968  1
  Cr  Cr47  1  0.82600651  0.15957048  0.82786849  1
  Cr  Cr48  1  0.82547494  0.49035172  0.49197445  1
  Cr  Cr49  1  0.65840045  0.32564262  0.65779922  1
  Cr  Cr50  1  0.82825987  0.49367533  0.82742188  1
  Cr  Cr51  1  0.82646577  0.82883900  0.49442337  1
  Cr  Cr52  1  0.65897631  0.65894031  0.65953205  1
  Cr  Cr53  1  0.82647980  0.82803585  0.82827881  1
" 