5805,Ni69Fe19Cr10_1,-237.134858284369, 195.522161489562,Ni69Fe19Cr10,"# generated using pymatgen
 data_Cr7Fe10Ni37
_symmetry_space_group_name_H-M   'P 1'
_cell_length_a   7.43986539
_cell_length_b   7.43986539
_cell_length_c   10.52155853
_cell_angle_alpha   90.00000000
_cell_angle_beta   90.00000000
_cell_angle_gamma   90.00000000
_symmetry_Int_Tables_number   1
_chemical_formula_structural   Cr7Fe10Ni37
_chemical_formula_sum   'Cr7 Fe10 Ni37'
_cell_volume   582.38506700
_cell_formula_units_Z   1
loop_
 _symmetry_equiv_pos_site_id
 _symmetry_equiv_pos_as_xyz
  1  'x, y, z'
loop_
 _atom_site_type_symbol
 _atom_site_label
 _atom_site_symmetry_multiplicity
 _atom_site_fract_x
 _atom_site_fract_y
 _atom_site_fract_z
 _atom_site_occupancy
  Ni  Ni0  1  0.00225851  0.00265369  0.00190230  1
  Ni  Ni1  1  0.16963921  0.16695629  0.16690282  1
  Ni  Ni2  1  0.00264792  1.00129037  0.33465907  1
  Ni  Ni3  1  0.00225956  0.33369874  1.00115076  1
  Fe  Fe4  1  0.17148669  0.50255114  0.16757610  1
  Cr  Cr5  1  1.00162043  0.33337166  0.33642087  1
  Ni  Ni6  1  0.00545216  0.66912580  1.00046517  1
  Ni  Ni7  1  0.16945385  0.83530195  0.16882376  1
  Ni  Ni8  1  0.00472221  0.67052112  0.33615680  1
  Ni  Ni9  1  0.33473258  1.00149294  0.00215345  1
  Ni  Ni10  1  0.50144861  0.16938838  0.16836141  1
  Fe  Fe11  1  0.33436840  0.00229341  0.33475704  1
  Ni  Ni12  1  0.33536121  0.33549092  0.00255769  1
  Ni  Ni13  1  0.49924263  0.50051302  0.16948200  1
  Ni  Ni14  1  0.33787737  0.33619754  0.33513053  1
  Ni  Ni15  1  0.33332539  0.66849687  0.00245890  1
  Ni  Ni16  1  0.49892557  0.83558186  0.16881523  1
  Ni  Ni17  1  0.33517172  0.66842012  0.33471672  1
  Ni  Ni18  1  0.66848880  0.00468537  1.00131926  1
  Ni  Ni19  1  0.83439097  0.16727479  0.16781009  1
  Fe  Fe20  1  0.66728490  0.00396227  0.33489466  1
  Ni  Ni21  1  0.66786139  0.33229623  1.00172651  1
  Cr  Cr22  1  0.83487072  0.50080324  0.16802735  1
  Ni  Ni23  1  0.66601830  0.33412557  0.33579434  1
  Cr  Cr24  1  0.66629553  0.66849218  1.00011151  1
  Cr  Cr25  1  0.83720121  0.83728638  0.16883521  1
  Fe  Fe26  1  0.66613225  0.66667744  0.33617554  1
  Ni  Ni27  1  0.17083350  0.16880952  0.50293251  1
  Cr  Cr28  1  0.00257581  0.00255344  0.66903400  1
  Fe  Fe29  1  0.16972479  0.16914625  0.83623571  1
  Ni  Ni30  1  0.16881643  0.50187744  0.50147621  1
  Fe  Fe31  1  1.00152579  0.33666081  0.66816389  1
  Ni  Ni32  1  0.16844505  0.50268601  0.83656420  1
  Fe  Fe33  1  0.16941256  0.83491337  0.50014630  1
  Ni  Ni34  1  1.00067071  0.66668778  0.66886245  1
  Ni  Ni35  1  0.16689290  0.83385104  0.83669496  1
  Ni  Ni36  1  0.50112297  0.16943517  0.50207966  1
  Ni  Ni37  1  0.33664238  0.00368458  0.66763059  1
  Ni  Ni38  1  0.50258347  0.16924339  0.83503700  1
  Ni  Ni39  1  0.50207506  0.50018715  0.50077485  1
  Ni  Ni40  1  0.33620089  0.33371119  0.66779351  1
  Ni  Ni41  1  0.50093961  0.49946020  0.83522164  1
  Fe  Fe42  1  0.50124672  0.83587927  0.50121457  1
  Cr  Cr43  1  0.33518417  0.66826593  0.66864786  1
  Fe  Fe44  1  0.50190178  0.83703570  0.83548902  1
  Ni  Ni45  1  0.83352274  0.16935388  0.50132896  1
  Ni  Ni46  1  0.66673995  0.00321188  0.66911307  1
  Ni  Ni47  1  0.83316766  0.16768955  0.83634275  1
  Ni  Ni48  1  0.83458981  0.50228023  0.50396829  1
  Ni  Ni49  1  0.66814043  0.33513973  0.66796248  1
  Fe  Fe50  1  0.83593196  0.50137466  0.83412912  1
  Cr  Cr51  1  0.83520609  0.83393884  0.50064761  1
  Ni  Ni52  1  0.66962284  0.66712824  0.66847412  1
  Ni  Ni53  1  0.83639280  0.83549241  0.83549652  1
" 