6851,Ni69Fe15Cr15_3,-234.571263003702, 184.5998063795,Ni69Fe15Cr15,"# generated using pymatgen
 data_Cr9Fe8Ni37
_symmetry_space_group_name_H-M   'P 1'
_cell_length_a   7.44487037
_cell_length_b   7.44487037
_cell_length_c   10.52863665
_cell_angle_alpha   90.00000000
_cell_angle_beta   90.00000000
_cell_angle_gamma   90.00000000
_symmetry_Int_Tables_number   1
_chemical_formula_structural   Cr9Fe8Ni37
_chemical_formula_sum   'Cr9 Fe8 Ni37'
_cell_volume   583.56121410
_cell_formula_units_Z   1
loop_
 _symmetry_equiv_pos_site_id
 _symmetry_equiv_pos_as_xyz
  1  'x, y, z'
loop_
 _atom_site_type_symbol
 _atom_site_label
 _atom_site_symmetry_multiplicity
 _atom_site_fract_x
 _atom_site_fract_y
 _atom_site_fract_z
 _atom_site_occupancy
  Ni  Ni0  1  0.00199400  1.00073303  0.99992129  1
  Ni  Ni1  1  0.16829135  0.17076641  0.16862473  1
  Ni  Ni2  1  1.00019729  0.00227015  0.33567231  1
  Ni  Ni3  1  0.00203300  0.33542475  1.00047726  1
  Ni  Ni4  1  0.16741203  0.50117575  0.16791999  1
  Ni  Ni5  1  0.00213888  0.33470784  0.33566827  1
  Ni  Ni6  1  0.00275323  0.66833396  0.00280718  1
  Ni  Ni7  1  0.16566571  0.83246157  0.16722322  1
  Fe  Fe8  1  1.00011162  0.66736737  0.33293161  1
  Cr  Cr9  1  0.33397521  0.00153213  0.00234134  1
  Ni  Ni10  1  0.50194168  0.17011541  0.16908559  1
  Cr  Cr11  1  0.33456233  0.00489126  0.33247892  1
  Ni  Ni12  1  0.33455752  0.33564545  0.00172543  1
  Fe  Fe13  1  0.50036073  0.49880485  0.16719411  1
  Ni  Ni14  1  0.33414867  0.33407221  0.33529855  1
  Ni  Ni15  1  0.33319391  0.66746808  1.00128585  1
  Ni  Ni16  1  0.50234678  0.83551410  0.16751076  1
  Cr  Cr17  1  0.33414719  0.66616451  0.33224297  1
  Fe  Fe18  1  0.66897679  0.00239594  1.00050385  1
  Cr  Cr19  1  0.83438299  0.16836128  0.16773806  1
  Ni  Ni20  1  0.67014047  0.00275685  0.33431408  1
  Ni  Ni21  1  0.66789199  0.33480653  1.00091020  1
  Ni  Ni22  1  0.83730085  0.50160406  0.16837677  1
  Ni  Ni23  1  0.66815363  0.33417318  0.33585302  1
  Cr  Cr24  1  0.66827429  0.66763050  1.00084469  1
  Ni  Ni25  1  0.83649399  0.83448989  0.16915667  1
  Cr  Cr26  1  0.67026279  0.66744819  0.33467143  1
  Ni  Ni27  1  0.16643695  0.17139448  0.50214293  1
  Fe  Fe28  1  0.99986980  0.00378211  0.66907934  1
  Ni  Ni29  1  0.16639210  0.16981992  0.83375786  1
  Fe  Fe30  1  0.16851785  0.49746010  0.50160048  1
  Ni  Ni31  1  1.00086404  0.33300797  0.66831711  1
  Ni  Ni32  1  0.16994664  0.50118268  0.83565156  1
  Cr  Cr33  1  0.16583391  0.83538128  0.50216531  1
  Cr  Cr34  1  1.00006451  0.66639579  0.66877460  1
  Ni  Ni35  1  0.16791073  0.83347164  0.83513016  1
  Ni  Ni36  1  0.50316026  0.17221690  0.50175982  1
  Ni  Ni37  1  0.33526490  0.00251248  0.66951139  1
  Ni  Ni38  1  0.50332691  0.16984259  0.83364657  1
  Ni  Ni39  1  0.50130772  0.49793168  0.50271140  1
  Fe  Fe40  1  0.33592799  0.33474889  0.66834094  1
  Ni  Ni41  1  0.49968760  0.50108832  0.83428725  1
  Cr  Cr42  1  0.50404733  0.83488880  0.50489125  1
  Ni  Ni43  1  0.33687956  0.66831541  0.67057222  1
  Ni  Ni44  1  0.50169120  0.83356683  0.83213360  1
  Ni  Ni45  1  0.83485152  0.16814709  0.50101997  1
  Ni  Ni46  1  0.66746402  0.00216310  0.66898538  1
  Ni  Ni47  1  0.83475661  0.16783446  0.83496608  1
  Fe  Fe48  1  0.83395692  0.49846932  0.50124369  1
  Ni  Ni49  1  0.66912945  0.33475129  0.66766175  1
  Fe  Fe50  1  0.83484425  0.49933932  0.83542814  1
  Ni  Ni51  1  0.83487013  0.83691323  0.50045793  1
  Ni  Ni52  1  0.66690133  0.66751976  0.66860217  1
  Ni  Ni53  1  0.83481607  0.83716854  0.83481219  1
" 