6095,Ni69Fe24Cr5_15,-240.29972853932, 207.25895054065,Ni69Fe24Cr5,"# generated using pymatgen
 data_Cr4Fe13Ni37
_symmetry_space_group_name_H-M   'P 1'
_cell_length_a   7.42994560
_cell_length_b   7.42994560
_cell_length_c   10.50752983
_cell_angle_alpha   90.00000000
_cell_angle_beta   90.00000000
_cell_angle_gamma   90.00000000
_symmetry_Int_Tables_number   1
_chemical_formula_structural   Cr4Fe13Ni37
_chemical_formula_sum   'Cr4 Fe13 Ni37'
_cell_volume   580.05863882
_cell_formula_units_Z   1
loop_
 _symmetry_equiv_pos_site_id
 _symmetry_equiv_pos_as_xyz
  1  'x, y, z'
loop_
 _atom_site_type_symbol
 _atom_site_label
 _atom_site_symmetry_multiplicity
 _atom_site_fract_x
 _atom_site_fract_y
 _atom_site_fract_z
 _atom_site_occupancy
  Ni  Ni0  1  1.00176228  0.00385033  0.00256865  1
  Ni  Ni1  1  0.16770815  0.16926990  0.16845702  1
  Ni  Ni2  1  1.00189598  0.00402538  0.33636044  1
  Ni  Ni3  1  0.00380515  0.33489266  0.00290136  1
  Ni  Ni4  1  0.17021205  0.50193825  0.16985670  1
  Ni  Ni5  1  0.00414384  0.33380371  0.33539055  1
  Ni  Ni6  1  0.00414483  0.66855492  0.00333694  1
  Ni  Ni7  1  0.16866292  0.83572118  0.16849541  1
  Ni  Ni8  1  0.00386345  0.66993169  0.33456119  1
  Fe  Fe9  1  0.33327654  1.00127847  1.00176822  1
  Fe  Fe10  1  0.50026709  0.16876324  0.17016513  1
  Fe  Fe11  1  0.33349884  1.00079782  0.33665060  1
  Ni  Ni12  1  0.33564111  0.33625288  0.00377358  1
  Ni  Ni13  1  0.50102564  0.50197962  0.17051197  1
  Fe  Fe14  1  0.33445108  0.33676691  0.33617605  1
  Ni  Ni15  1  0.33579010  0.66663942  0.00260113  1
  Ni  Ni16  1  0.50088077  0.83473064  0.17086260  1
  Ni  Ni17  1  0.33755847  0.66796187  0.33630009  1
  Cr  Cr18  1  0.66929709  0.00286804  0.00306126  1
  Ni  Ni19  1  0.83695966  0.16942523  0.17092532  1
  Fe  Fe20  1  0.66956205  1.00138370  0.33617116  1
  Fe  Fe21  1  0.66980221  0.33636139  0.00252717  1
  Fe  Fe22  1  0.83823659  0.50270277  0.17091191  1
  Fe  Fe23  1  0.66895067  0.33724229  0.33531218  1
  Cr  Cr24  1  0.66810340  0.66864078  0.00324331  1
  Ni  Ni25  1  0.83710618  0.83692281  0.17131699  1
  Ni  Ni26  1  0.66698095  0.67033678  0.33459534  1
  Ni  Ni27  1  0.16990304  0.17074646  0.50184447  1
  Cr  Cr28  1  0.00317482  0.00378614  0.66786564  1
  Ni  Ni29  1  0.16954060  0.17186290  0.83733120  1
  Ni  Ni30  1  0.16999363  0.50114758  0.50217979  1
  Ni  Ni31  1  0.00509761  0.33568406  0.66942490  1
  Ni  Ni32  1  0.16952570  0.50150558  0.83546317  1
  Fe  Fe33  1  0.17114693  0.83409146  0.50132921  1
  Ni  Ni34  1  0.00370335  0.66832246  0.66978983  1
  Fe  Fe35  1  0.17078678  0.83544717  0.83700972  1
  Ni  Ni36  1  0.50058940  0.16851650  0.50168237  1
  Ni  Ni37  1  0.33842427  0.00392887  0.66976887  1
  Ni  Ni38  1  0.50137757  0.17007769  0.83600588  1
  Ni  Ni39  1  0.50089631  0.50279916  0.50309207  1
  Ni  Ni40  1  0.33523035  0.33546502  0.66774765  1
  Ni  Ni41  1  0.49977114  0.50178227  0.83385842  1
  Ni  Ni42  1  0.50432986  0.83584201  0.50295310  1
  Ni  Ni43  1  0.33703222  0.66800348  0.66833848  1
  Ni  Ni44  1  0.50268425  0.83556597  0.83380094  1
  Fe  Fe45  1  0.83424001  0.17033537  0.50139148  1
  Ni  Ni46  1  0.66795917  0.00250799  0.66770448  1
  Ni  Ni47  1  0.83615825  0.16922126  0.83417249  1
  Cr  Cr48  1  0.83700519  0.50538405  0.50343365  1
  Fe  Fe49  1  0.66721452  0.33541285  0.66958333  1
  Fe  Fe50  1  0.83646725  0.50128575  0.83443321  1
  Ni  Ni51  1  0.83486529  0.83636154  0.50111447  1
  Ni  Ni52  1  0.66768885  0.67127598  0.66996052  1
  Ni  Ni53  1  0.83643315  0.83542434  0.83474500  1
" 