1307,Ni69Fe15Cr15_0,-234.870662495416, 185.748735250906,Ni69Fe15Cr15,"# generated using pymatgen
 data_Cr9Fe8Ni37
_symmetry_space_group_name_H-M   'P 1'
_cell_length_a   7.44851493
_cell_length_b   7.44851493
_cell_length_c   10.53379083
_cell_angle_alpha   90.00000000
_cell_angle_beta   90.00000000
_cell_angle_gamma   90.00000000
_symmetry_Int_Tables_number   1
_chemical_formula_structural   Cr9Fe8Ni37
_chemical_formula_sum   'Cr9 Fe8 Ni37'
_cell_volume   584.41866094
_cell_formula_units_Z   1
loop_
 _symmetry_equiv_pos_site_id
 _symmetry_equiv_pos_as_xyz
  1  'x, y, z'
loop_
 _atom_site_type_symbol
 _atom_site_label
 _atom_site_symmetry_multiplicity
 _atom_site_fract_x
 _atom_site_fract_y
 _atom_site_fract_z
 _atom_site_occupancy
  Ni  Ni0  1  0.00511272  0.00295386  0.00130954  1
  Ni  Ni1  1  0.16717510  0.16885308  0.16626534  1
  Cr  Cr2  1  0.00207655  0.00273525  0.33563291  1
  Fe  Fe3  1  0.00357066  0.33428531  0.00255153  1
  Ni  Ni4  1  0.16779695  0.50134702  0.16815207  1
  Fe  Fe5  1  1.00068922  0.33632724  0.33497538  1
  Fe  Fe6  1  0.00260491  0.66715925  0.00242132  1
  Ni  Ni7  1  0.17024686  0.83353461  0.16597755  1
  Ni  Ni8  1  0.00163785  0.66462321  0.33407382  1
  Ni  Ni9  1  0.33065099  0.99944718  0.00134554  1
  Cr  Cr10  1  0.50064133  0.16636175  0.16870992  1
  Ni  Ni11  1  0.33550381  1.00081237  0.33378986  1
  Ni  Ni12  1  0.33239229  0.33488376  0.00165409  1
  Ni  Ni13  1  0.49992134  0.50386576  0.16793057  1
  Fe  Fe14  1  0.33446700  0.33579425  0.33496040  1
  Ni  Ni15  1  0.33600987  0.66940060  0.00221983  1
  Ni  Ni16  1  0.49969889  0.83324799  0.16767288  1
  Ni  Ni17  1  0.33520759  0.66760602  0.33296340  1
  Fe  Fe18  1  0.66615499  0.99845622  0.00212333  1
  Ni  Ni19  1  0.83630630  0.16907160  0.16739879  1
  Ni  Ni20  1  0.66633040  0.00236146  0.33553536  1
  Cr  Cr21  1  0.66898597  0.33828787  0.00134261  1
  Ni  Ni22  1  0.83601900  0.50079062  0.16810396  1
  Ni  Ni23  1  0.66931482  0.33557455  0.33532083  1
  Ni  Ni24  1  0.66586027  0.66626716  1.00082823  1
  Cr  Cr25  1  0.83302079  0.83397935  0.16770487  1
  Ni  Ni26  1  0.66688620  0.66579595  0.33544524  1
  Ni  Ni27  1  0.16888953  0.17049612  0.50255978  1
  Fe  Fe28  1  0.00143289  0.00205332  0.66726359  1
  Ni  Ni29  1  0.16836387  0.16679950  0.83490878  1
  Ni  Ni30  1  0.16753942  0.49967990  0.50095004  1
  Ni  Ni31  1  1.00006727  0.33445545  0.66669343  1
  Cr  Cr32  1  0.16826173  0.50069062  0.83429950  1
  Cr  Cr33  1  0.16814548  0.83285041  0.50245941  1
  Ni  Ni34  1  1.00045880  0.66616042  0.66748953  1
  Fe  Fe35  1  0.17019025  0.83582001  0.83499445  1
  Ni  Ni36  1  0.50164951  0.16732096  0.50152445  1
  Ni  Ni37  1  0.33414809  1.00094229  0.66859725  1
  Cr  Cr38  1  0.49873748  0.16710981  0.83376839  1
  Ni  Ni39  1  0.50125259  0.50111089  0.50181332  1
  Fe  Fe40  1  0.33490471  0.33499970  0.66668338  1
  Ni  Ni41  1  0.50152986  0.50424900  0.83398702  1
  Ni  Ni42  1  0.50361081  0.83530240  0.50102998  1
  Ni  Ni43  1  0.33595212  0.66896784  0.66854742  1
  Ni  Ni44  1  0.50030485  0.83296408  0.83502781  1
  Ni  Ni45  1  0.83319387  0.16813793  0.50222950  1
  Ni  Ni46  1  0.66668849  0.00133182  0.66557656  1
  Cr  Cr47  1  0.83635936  0.16812072  0.83413167  1
  Ni  Ni48  1  0.83494073  0.50164222  0.50178745  1
  Ni  Ni49  1  0.66949442  0.33625754  0.66679255  1
  Ni  Ni50  1  0.83403927  0.50294318  0.83384058  1
  Ni  Ni51  1  0.83176049  0.83395105  0.50229116  1
  Ni  Ni52  1  0.66732327  0.66614356  0.66746051  1
  Cr  Cr53  1  0.83365696  0.83285482  0.83406215  1
" 