3166,Ni69Fe24Cr5_18,-239.747786361209, 207.954491826983,Ni69Fe24Cr5,"# generated using pymatgen
 data_Cr4Fe13Ni37
_symmetry_space_group_name_H-M   'P 1'
_cell_length_a   7.42622090
_cell_length_b   7.42622090
_cell_length_c   10.50226232
_cell_angle_alpha   90.00000000
_cell_angle_beta   90.00000000
_cell_angle_gamma   90.00000000
_symmetry_Int_Tables_number   1
_chemical_formula_structural   Cr4Fe13Ni37
_chemical_formula_sum   'Cr4 Fe13 Ni37'
_cell_volume   579.18671152
_cell_formula_units_Z   1
loop_
 _symmetry_equiv_pos_site_id
 _symmetry_equiv_pos_as_xyz
  1  'x, y, z'
loop_
 _atom_site_type_symbol
 _atom_site_label
 _atom_site_symmetry_multiplicity
 _atom_site_fract_x
 _atom_site_fract_y
 _atom_site_fract_z
 _atom_site_occupancy
  Ni  Ni0  1  0.00359196  1.00251261  0.00278405  1
  Fe  Fe1  1  0.17053721  0.16813061  0.16806117  1
  Ni  Ni2  1  0.00334964  1.00116547  0.33666482  1
  Fe  Fe3  1  0.00391662  0.33694698  0.00306840  1
  Ni  Ni4  1  0.17105401  0.50341462  0.16817496  1
  Cr  Cr5  1  0.00313201  0.33653207  0.33436133  1
  Ni  Ni6  1  0.00279953  0.66889347  1.00237428  1
  Fe  Fe7  1  0.16957928  0.83582085  0.16973545  1
  Ni  Ni8  1  0.00341287  0.67065777  0.33721526  1
  Ni  Ni9  1  0.33602592  0.00369749  1.00274585  1
  Ni  Ni10  1  0.50415681  0.16958940  0.16905263  1
  Fe  Fe11  1  0.33687818  1.00210248  0.33683455  1
  Ni  Ni12  1  0.33601186  0.33575224  1.00217277  1
  Ni  Ni13  1  0.50111095  0.50281837  0.16981477  1
  Fe  Fe14  1  0.33789964  0.33661322  0.33570077  1
  Ni  Ni15  1  0.33572772  0.66879600  1.00214816  1
  Ni  Ni16  1  0.50395826  0.83583778  0.16955930  1
  Ni  Ni17  1  0.33597626  0.66942965  0.33637803  1
  Ni  Ni18  1  0.66863424  0.00279846  0.00366259  1
  Ni  Ni19  1  0.83496206  0.16726593  0.16850857  1
  Ni  Ni20  1  0.66854705  1.00266675  0.33519295  1
  Ni  Ni21  1  0.66853354  0.33654615  0.00311624  1
  Fe  Fe22  1  0.83382129  0.50375790  0.16831556  1
  Ni  Ni23  1  0.66731561  0.33604677  0.33613829  1
  Ni  Ni24  1  0.66971653  0.66890501  1.00250026  1
  Ni  Ni25  1  0.83555899  0.83776369  0.16970170  1
  Ni  Ni26  1  0.66885527  0.66953922  0.33655404  1
  Ni  Ni27  1  0.17228144  0.16886341  0.50221660  1
  Fe  Fe28  1  0.00447933  0.99829428  0.66909070  1
  Ni  Ni29  1  0.17107068  0.16983138  0.83698991  1
  Ni  Ni30  1  0.17138076  0.50453084  0.50308810  1
  Cr  Cr31  1  0.00446040  0.33830416  0.66964895  1
  Ni  Ni32  1  0.17095205  0.50282908  0.83697648  1
  Ni  Ni33  1  0.16883807  0.83484805  0.50286334  1
  Ni  Ni34  1  1.00267277  0.66953468  0.66865905  1
  Fe  Fe35  1  0.16939381  0.83511913  0.83582226  1
  Ni  Ni36  1  0.50161869  0.16939640  0.50324667  1
  Ni  Ni37  1  0.33698202  0.00319335  0.66907581  1
  Fe  Fe38  1  0.50129053  0.16955276  0.83640554  1
  Fe  Fe39  1  0.50220727  0.50355917  0.50244496  1
  Fe  Fe40  1  0.33735930  0.33640566  0.66981838  1
  Ni  Ni41  1  0.50161057  0.50391460  0.83590183  1
  Ni  Ni42  1  0.50338121  0.83600773  0.50223430  1
  Ni  Ni43  1  0.33587025  0.66999008  0.66972056  1
  Ni  Ni44  1  0.50362806  0.83509751  0.83645411  1
  Cr  Cr45  1  0.83433037  0.16620619  0.50293419  1
  Ni  Ni46  1  0.66658701  1.00113496  0.66939231  1
  Cr  Cr47  1  0.83576410  0.16723710  0.83713125  1
  Fe  Fe48  1  0.83490575  0.50671205  0.50312590  1
  Fe  Fe49  1  0.66581086  0.33829642  0.66958127  1
  Ni  Ni50  1  0.83568011  0.50544810  0.83733826  1
  Ni  Ni51  1  0.83602864  0.83509975  0.50299325  1
  Ni  Ni52  1  0.66970205  0.67005089  0.66919345  1
  Ni  Ni53  1  0.83508692  0.83497764  0.83555218  1
" 