3279,Ni6Fe9Cr83_17,-205.578213849654, 197.31017429775,Ni6Fe9Cr83,"# generated using pymatgen
 data_Cr46Fe5Ni3
_symmetry_space_group_name_H-M   'P 1'
_cell_length_a   7.58657053
_cell_length_b   7.58657053
_cell_length_c   10.72903094
_cell_angle_alpha   90.00000000
_cell_angle_beta   90.00000000
_cell_angle_gamma   90.00000000
_symmetry_Int_Tables_number   1
_chemical_formula_structural   Cr46Fe5Ni3
_chemical_formula_sum   'Cr46 Fe5 Ni3'
_cell_volume   617.52066791
_cell_formula_units_Z   1
loop_
 _symmetry_equiv_pos_site_id
 _symmetry_equiv_pos_as_xyz
  1  'x, y, z'
loop_
 _atom_site_type_symbol
 _atom_site_label
 _atom_site_symmetry_multiplicity
 _atom_site_fract_x
 _atom_site_fract_y
 _atom_site_fract_z
 _atom_site_occupancy
  Cr  Cr0  1  0.99007493  0.98980946  0.99013101  1
  Cr  Cr1  1  0.15823671  0.15846805  0.15936440  1
  Cr  Cr2  1  0.99109585  0.99197094  0.32701664  1
  Fe  Fe3  1  -0.00711893  0.32668105  0.99068070  1
  Cr  Cr4  1  0.15582244  0.49190939  0.15588980  1
  Fe  Fe5  1  -0.00754663  0.32618608  0.32537485  1
  Fe  Fe6  1  0.99180040  0.65858796  0.98982639  1
  Cr  Cr7  1  0.15916110  0.82615535  0.15999491  1
  Cr  Cr8  1  -0.00741778  0.65914760  0.32504248  1
  Cr  Cr9  1  0.32606251  0.99110016  -0.00783397  1
  Cr  Cr10  1  0.49067410  0.15769310  0.15878459  1
  Fe  Fe11  1  0.32614960  -0.00760841  0.32537947  1
  Cr  Cr12  1  0.32454862  0.32784991  0.98969724  1
  Cr  Cr13  1  0.49300706  0.49290272  0.15896745  1
  Cr  Cr14  1  0.32526616  0.32685452  0.32596585  1
  Cr  Cr15  1  0.32402743  0.65766661  0.99113582  1
  Cr  Cr16  1  0.49082758  0.82582294  0.15995947  1
  Cr  Cr17  1  0.32453222  0.65711888  0.32487081  1
  Cr  Cr18  1  0.66023066  0.99110351  0.99085545  1
  Cr  Cr19  1  0.82772241  0.16088181  0.15794482  1
  Cr  Cr20  1  0.66083125  -0.00744857  0.32378413  1
  Cr  Cr21  1  0.65813213  0.32501641  -0.00622915  1
  Cr  Cr22  1  0.82727202  0.49192483  0.15800153  1
  Cr  Cr23  1  0.65869237  0.32508167  0.32487186  1
  Cr  Cr24  1  0.65892466  0.66019872  0.99138725  1
  Cr  Cr25  1  0.82649421  0.82364919  0.15706013  1
  Cr  Cr26  1  0.65922469  0.65874429  0.32573788  1
  Cr  Cr27  1  0.15918608  0.15778359  0.49116958  1
  Cr  Cr28  1  0.99012751  0.99049743  0.65912720  1
  Cr  Cr29  1  0.15815329  0.16008273  0.82549280  1
  Cr  Cr30  1  0.15744587  0.49218008  0.49240335  1
  Cr  Cr31  1  -0.00651734  0.32621101  0.65834483  1
  Ni  Ni32  1  0.15588674  0.49341440  0.82774851  1
  Cr  Cr33  1  0.16037694  0.82656409  0.48993247  1
  Cr  Cr34  1  -0.00751093  0.65991765  0.66034664  1
  Cr  Cr35  1  0.15908052  0.82480508  0.82625892  1
  Cr  Cr36  1  0.49122747  0.15738358  0.49212016  1
  Cr  Cr37  1  0.32545051  0.99120592  0.65934190  1
  Cr  Cr38  1  0.49177390  0.15715872  0.82566971  1
  Cr  Cr39  1  0.49405994  0.49398779  0.49413271  1
  Cr  Cr40  1  0.32444605  0.32782078  0.66062362  1
  Cr  Cr41  1  0.49303339  0.49368815  0.82381624  1
  Cr  Cr42  1  0.49191261  0.82523797  0.49243748  1
  Cr  Cr43  1  0.32455068  0.65763659  0.66041992  1
  Ni  Ni44  1  0.49511506  0.82349679  0.82456214  1
  Cr  Cr45  1  0.82618531  0.16026694  0.49182149  1
  Cr  Cr46  1  0.66070004  0.99061353  0.66206129  1
  Cr  Cr47  1  0.82623670  0.15978350  0.82616537  1
  Cr  Cr48  1  0.82500895  0.49272097  0.49182304  1
  Cr  Cr49  1  0.65841887  0.32525282  0.65772958  1
  Cr  Cr50  1  0.82656342  0.49295430  0.82608953  1
  Cr  Cr51  1  0.82418584  0.82354310  0.49451764  1
  Fe  Fe52  1  0.65932255  0.66046872  0.66125057  1
  Ni  Ni53  1  0.82347970  0.82248303  0.82555894  1
" 