8862,Ni6Fe20Cr73_3,-210.112428175331, 195.337600426068,Ni6Fe20Cr73,"# generated using pymatgen
 data_Cr40Fe11Ni3
_symmetry_space_group_name_H-M   'P 1'
_cell_length_a   7.56758459
_cell_length_b   7.56758459
_cell_length_c   10.70218076
_cell_angle_alpha   90.00000000
_cell_angle_beta   90.00000000
_cell_angle_gamma   90.00000000
_symmetry_Int_Tables_number   1
_chemical_formula_structural   Cr40Fe11Ni3
_chemical_formula_sum   'Cr40 Fe11 Ni3'
_cell_volume   612.89608896
_cell_formula_units_Z   1
loop_
 _symmetry_equiv_pos_site_id
 _symmetry_equiv_pos_as_xyz
  1  'x, y, z'
loop_
 _atom_site_type_symbol
 _atom_site_label
 _atom_site_symmetry_multiplicity
 _atom_site_fract_x
 _atom_site_fract_y
 _atom_site_fract_z
 _atom_site_occupancy
  Cr  Cr0  1  -0.00544405  -0.00649165  -0.00529063  1
  Fe  Fe1  1  0.16081434  0.15926113  0.15917475  1
  Cr  Cr2  1  0.99291668  -0.00430369  0.32725429  1
  Cr  Cr3  1  0.99249530  0.32672476  -0.00469004  1
  Cr  Cr4  1  0.15906592  0.49231632  0.15949013  1
  Cr  Cr5  1  0.99247291  0.32452800  0.32599412  1
  Fe  Fe6  1  0.99313626  0.66039484  -0.00658037  1
  Cr  Cr7  1  0.16118454  0.82847337  0.15883824  1
  Cr  Cr8  1  -0.00628373  0.65984783  0.32780256  1
  Ni  Ni9  1  0.32828302  0.99237047  -0.00570046  1
  Cr  Cr10  1  0.49113556  0.15797157  0.15793663  1
  Cr  Cr11  1  0.32591370  0.99137563  0.32361742  1
  Cr  Cr12  1  0.32678625  0.32505551  0.99245254  1
  Cr  Cr13  1  0.49486669  0.49467826  0.16166981  1
  Cr  Cr14  1  0.32617262  0.32866301  0.32756675  1
  Cr  Cr15  1  0.32780687  0.66266785  -0.00584454  1
  Fe  Fe16  1  0.49367346  0.82708409  0.15884709  1
  Cr  Cr17  1  0.32926629  0.66003414  0.32793985  1
  Fe  Fe18  1  0.65762231  0.99271147  0.99294750  1
  Cr  Cr19  1  0.82718523  0.16009181  0.16123117  1
  Cr  Cr20  1  0.66123833  0.99261187  0.32766345  1
  Cr  Cr21  1  0.66079104  0.32697572  0.99191774  1
  Cr  Cr22  1  0.82614444  0.49523326  0.15834314  1
  Cr  Cr23  1  0.66142452  0.32787244  0.32837009  1
  Fe  Fe24  1  0.65995744  0.66147763  -0.00634446  1
  Cr  Cr25  1  0.82483055  0.82475194  0.15910901  1
  Fe  Fe26  1  0.65930336  0.66000258  0.32671711  1
  Cr  Cr27  1  0.16014009  0.16151130  0.49222957  1
  Cr  Cr28  1  0.99076186  0.99318450  0.65810586  1
  Cr  Cr29  1  0.16379050  0.16017774  0.82778062  1
  Fe  Fe30  1  0.16031692  0.49294707  0.49407290  1
  Cr  Cr31  1  0.99298545  0.32679329  0.65876284  1
  Cr  Cr32  1  0.15905119  0.49381979  0.82515725  1
  Cr  Cr33  1  0.15916388  0.82522739  0.49480654  1
  Fe  Fe34  1  0.99324220  0.66012992  0.65962932  1
  Cr  Cr35  1  0.15912409  0.82607241  0.82642979  1
  Cr  Cr36  1  0.49435857  0.16113637  0.49626987  1
  Cr  Cr37  1  0.32806986  0.99296618  0.66173948  1
  Fe  Fe38  1  0.49334060  0.15837636  0.82670989  1
  Fe  Fe39  1  0.49304814  0.49294604  0.49334301  1
  Fe  Fe40  1  0.32751941  0.32662015  0.65966919  1
  Cr  Cr41  1  0.49325156  0.49101430  0.82609664  1
  Cr  Cr42  1  0.49459436  0.82634382  0.49168113  1
  Cr  Cr43  1  0.32564615  0.65822837  0.65797239  1
  Cr  Cr44  1  0.49456796  0.83026061  0.82880502  1
  Ni  Ni45  1  0.82571685  0.16028837  0.49400616  1
  Ni  Ni46  1  0.66059332  -0.00503239  0.66053794  1
  Cr  Cr47  1  0.82357457  0.15886237  0.82543467  1
  Cr  Cr48  1  0.82668713  0.49356477  0.49230592  1
  Cr  Cr49  1  0.65937977  0.32437814  0.65979248  1
  Cr  Cr50  1  0.82776625  0.49568157  0.82942430  1
  Cr  Cr51  1  0.82631106  0.82743151  0.49455467  1
  Cr  Cr52  1  0.65916304  0.66045716  0.65913750  1
  Cr  Cr53  1  0.82637459  0.82553194  0.82641139  1
" 