8922,Ni6Fe17Cr75_0,-208.348952608615, 193.781670058333,Ni6Fe17Cr75,"# generated using pymatgen
 data_Cr14Fe3Ni
_symmetry_space_group_name_H-M   'P 1'
_cell_length_a   7.57601565
_cell_length_b   7.57601565
_cell_length_c   10.71410408
_cell_angle_alpha   90.00000000
_cell_angle_beta   90.00000000
_cell_angle_gamma   90.00000000
_symmetry_Int_Tables_number   1
_chemical_formula_structural   Cr14Fe3Ni
_chemical_formula_sum   'Cr42 Fe9 Ni3'
_cell_volume   614.94685789
_cell_formula_units_Z   3
loop_
 _symmetry_equiv_pos_site_id
 _symmetry_equiv_pos_as_xyz
  1  'x, y, z'
loop_
 _atom_site_type_symbol
 _atom_site_label
 _atom_site_symmetry_multiplicity
 _atom_site_fract_x
 _atom_site_fract_y
 _atom_site_fract_z
 _atom_site_occupancy
  Fe  Fe0  1  0.99093783  -0.00582585  0.99186152  1
  Cr  Cr1  1  0.15901719  0.15988711  0.16091383  1
  Cr  Cr2  1  0.99218242  0.99213853  0.32636195  1
  Cr  Cr3  1  0.99229453  0.32650068  -0.00529292  1
  Fe  Fe4  1  0.15821488  0.49275406  0.15985954  1
  Fe  Fe5  1  -0.00712114  0.32687880  0.32632679  1
  Cr  Cr6  1  -0.00599012  0.65919329  0.99259130  1
  Cr  Cr7  1  0.15899059  0.82943998  0.15605661  1
  Cr  Cr8  1  -0.00669951  0.65842192  0.32653831  1
  Fe  Fe9  1  0.32843002  -0.00571969  0.99195956  1
  Cr  Cr10  1  0.49269521  0.15907243  0.15835674  1
  Cr  Cr11  1  0.32612787  0.99159529  0.32777634  1
  Cr  Cr12  1  0.32595631  0.32706152  0.99269588  1
  Cr  Cr13  1  0.49420784  0.49352702  0.15959351  1
  Cr  Cr14  1  0.32527632  0.32773026  0.32496166  1
  Cr  Cr15  1  0.32444044  0.65980179  -0.00529331  1
  Fe  Fe16  1  0.49346510  0.82877697  0.15815281  1
  Cr  Cr17  1  0.32500396  0.66008648  0.32302073  1
  Ni  Ni18  1  0.65942231  -0.00603630  0.99136897  1
  Cr  Cr19  1  0.82657637  0.15867028  0.15796082  1
  Cr  Cr20  1  0.65986918  0.99240857  0.32665785  1
  Cr  Cr21  1  0.66029907  0.32311470  0.98828688  1
  Cr  Cr22  1  0.82548675  0.49259085  0.16261709  1
  Cr  Cr23  1  0.66139940  0.32613422  0.32782573  1
  Cr  Cr24  1  0.65957355  0.66033542  -0.00497230  1
  Cr  Cr25  1  0.82465399  0.82655172  0.15801735  1
  Fe  Fe26  1  0.65955284  0.65969592  0.32577871  1
  Cr  Cr27  1  0.15844188  0.16057557  0.49138281  1
  Cr  Cr28  1  0.99083045  -0.00627259  0.65991175  1
  Cr  Cr29  1  0.15916187  0.15909050  0.82627803  1
  Cr  Cr30  1  0.15852637  0.49126810  0.49454289  1
  Ni  Ni31  1  0.99092622  0.32700612  0.65781291  1
  Cr  Cr32  1  0.15801769  0.49212281  0.82460227  1
  Cr  Cr33  1  0.15820001  0.82604864  0.49686819  1
  Fe  Fe34  1  0.99154228  0.65726186  0.65925105  1
  Cr  Cr35  1  0.15794458  0.82725267  0.82509696  1
  Cr  Cr36  1  0.49218833  0.16072423  0.49302868  1
  Cr  Cr37  1  0.32761308  -0.00683519  0.65828897  1
  Ni  Ni38  1  0.49369105  0.15632025  0.82837894  1
  Cr  Cr39  1  0.49495417  0.49308577  0.49291398  1
  Cr  Cr40  1  0.32662153  0.32507816  0.66139449  1
  Cr  Cr41  1  0.49352357  0.49170231  0.82588385  1
  Cr  Cr42  1  0.49359165  0.82456681  0.49024797  1
  Cr  Cr43  1  0.32506421  0.65989888  0.66041617  1
  Cr  Cr44  1  0.49344861  0.82680759  0.82840605  1
  Cr  Cr45  1  0.82800955  0.16081027  0.49203430  1
  Cr  Cr46  1  0.65955134  -0.00590674  0.66034093  1
  Fe  Fe47  1  0.82680459  0.15873259  0.82686284  1
  Fe  Fe48  1  0.82766143  0.49146237  0.49374619  1
  Cr  Cr49  1  0.66094487  0.32343722  0.66281049  1
  Cr  Cr50  1  0.82704837  0.49321047  0.82309773  1
  Cr  Cr51  1  0.82610039  0.82321047  0.49283777  1
  Cr  Cr52  1  0.66047877  0.65963643  0.65758104  1
  Cr  Cr53  1  0.82650109  0.82656964  0.82765193  1
" 