3187,Ni6Fe20Cr73_16,-210.023184734854, 191.895490775002,Ni6Fe20Cr73,"# generated using pymatgen
 data_Cr40Fe11Ni3
_symmetry_space_group_name_H-M   'P 1'
_cell_length_a   7.57157801
_cell_length_b   7.57157801
_cell_length_c   10.70782832
_cell_angle_alpha   90.00000000
_cell_angle_beta   90.00000000
_cell_angle_gamma   90.00000000
_symmetry_Int_Tables_number   1
_chemical_formula_structural   Cr40Fe11Ni3
_chemical_formula_sum   'Cr40 Fe11 Ni3'
_cell_volume   613.86687977
_cell_formula_units_Z   1
loop_
 _symmetry_equiv_pos_site_id
 _symmetry_equiv_pos_as_xyz
  1  'x, y, z'
loop_
 _atom_site_type_symbol
 _atom_site_label
 _atom_site_symmetry_multiplicity
 _atom_site_fract_x
 _atom_site_fract_y
 _atom_site_fract_z
 _atom_site_occupancy
  Cr  Cr0  1  -0.00463619  -0.00363103  0.99241135  1
  Ni  Ni1  1  0.16443945  0.16063656  0.15896226  1
  Cr  Cr2  1  -0.00507177  -0.00486993  0.32695991  1
  Cr  Cr3  1  -0.00681814  0.32545366  -0.00679772  1
  Cr  Cr4  1  0.15947643  0.49074163  0.15995029  1
  Cr  Cr5  1  -0.00605202  0.32617211  0.32480854  1
  Cr  Cr6  1  0.99293700  0.65747073  -0.00481296  1
  Cr  Cr7  1  0.15865697  0.82839322  0.15960557  1
  Cr  Cr8  1  -0.00630909  0.65798927  0.32539325  1
  Fe  Fe9  1  0.32636950  -0.00404663  -0.00570968  1
  Ni  Ni10  1  0.48866623  0.16087991  0.15931799  1
  Cr  Cr11  1  0.32657164  -0.00497484  0.32442433  1
  Fe  Fe12  1  0.32597514  0.32316523  -0.00538888  1
  Cr  Cr13  1  0.49374308  0.48934200  0.15959669  1
  Fe  Fe14  1  0.32601269  0.32402138  0.32489075  1
  Cr  Cr15  1  0.32796910  0.66176081  0.99176322  1
  Cr  Cr16  1  0.49367973  0.82890690  0.15754690  1
  Cr  Cr17  1  0.32604259  0.65985094  0.32798261  1
  Cr  Cr18  1  0.65664933  -0.00641154  -0.00678197  1
  Cr  Cr19  1  0.82555159  0.16021918  0.15998847  1
  Cr  Cr20  1  0.65779131  -0.00522273  0.32578745  1
  Cr  Cr21  1  0.66093407  0.32613633  -0.00598258  1
  Ni  Ni22  1  0.82575848  0.49368361  0.15893946  1
  Cr  Cr23  1  0.65965369  0.32563817  0.32533768  1
  Fe  Fe24  1  0.66047623  0.65918694  -0.00636740  1
  Cr  Cr25  1  0.82695607  0.82426590  0.16046391  1
  Cr  Cr26  1  0.65955762  0.65887308  0.32592661  1
  Fe  Fe27  1  0.16056954  0.15978147  0.49338224  1
  Fe  Fe28  1  -0.00574968  -0.00573774  0.66020002  1
  Fe  Fe29  1  0.16008653  0.15943279  0.82656039  1
  Cr  Cr30  1  0.16189791  0.49152033  0.49294239  1
  Cr  Cr31  1  -0.00611503  0.32320177  0.66128411  1
  Cr  Cr32  1  0.16141032  0.49109326  0.82640002  1
  Cr  Cr33  1  0.15792603  0.82810922  0.49384413  1
  Cr  Cr34  1  -0.00504184  0.65956141  0.65871119  1
  Cr  Cr35  1  0.15986471  0.82922902  0.82584220  1
  Cr  Cr36  1  0.49084938  0.16174556  0.49196568  1
  Fe  Fe37  1  0.32521611  -0.00565054  0.66012110  1
  Cr  Cr38  1  0.49087024  0.15983875  0.82683533  1
  Cr  Cr39  1  0.49110062  0.49011994  0.49343007  1
  Fe  Fe40  1  0.32569222  0.32485634  0.65978468  1
  Cr  Cr41  1  0.49228959  0.49209325  0.82627032  1
  Cr  Cr42  1  0.49298502  0.82742645  0.49432949  1
  Cr  Cr43  1  0.32729424  0.66131765  0.65954451  1
  Fe  Fe44  1  0.49268403  0.82670238  0.82683397  1
  Cr  Cr45  1  0.82697733  0.15777085  0.49477704  1
  Cr  Cr46  1  0.65912695  -0.00624308  0.66028497  1
  Fe  Fe47  1  0.82768189  0.15939092  0.82596780  1
  Cr  Cr48  1  0.82629445  0.49366008  0.49234103  1
  Cr  Cr49  1  0.66087549  0.32508688  0.65993698  1
  Cr  Cr50  1  0.82559837  0.49318943  0.82785032  1
  Cr  Cr51  1  0.82837851  0.82785614  0.49263188  1
  Cr  Cr52  1  0.65703613  0.66045031  0.66075977  1
  Cr  Cr53  1  0.82646818  0.82781429  0.82620033  1
" 