8470,Ni6Fe20Cr73_14,-209.94426890794, 194.564635346107,Ni6Fe20Cr73,"# generated using pymatgen
 data_Cr40Fe11Ni3
_symmetry_space_group_name_H-M   'P 1'
_cell_length_a   7.56379184
_cell_length_b   7.56379184
_cell_length_c   10.69681701
_cell_angle_alpha   90.00000000
_cell_angle_beta   90.00000000
_cell_angle_gamma   90.00000000
_symmetry_Int_Tables_number   1
_chemical_formula_structural   Cr40Fe11Ni3
_chemical_formula_sum   'Cr40 Fe11 Ni3'
_cell_volume   611.97503149
_cell_formula_units_Z   1
loop_
 _symmetry_equiv_pos_site_id
 _symmetry_equiv_pos_as_xyz
  1  'x, y, z'
loop_
 _atom_site_type_symbol
 _atom_site_label
 _atom_site_symmetry_multiplicity
 _atom_site_fract_x
 _atom_site_fract_y
 _atom_site_fract_z
 _atom_site_occupancy
  Cr  Cr0  1  -0.00559367  0.99211818  0.99230266  1
  Cr  Cr1  1  0.16154834  0.16051125  0.16263314  1
  Cr  Cr2  1  -0.00610099  0.99324492  0.33082769  1
  Ni  Ni3  1  -0.00411949  0.32410902  0.99309339  1
  Cr  Cr4  1  0.15892686  0.49260808  0.16081778  1
  Cr  Cr5  1  -0.00637621  0.32553894  0.32855305  1
  Fe  Fe6  1  0.99270862  0.65851049  0.99253226  1
  Cr  Cr7  1  0.16048472  0.82641989  0.15683879  1
  Cr  Cr8  1  -0.00617333  0.66167677  0.32492540  1
  Fe  Fe9  1  0.32581360  -0.00469485  0.99325616  1
  Fe  Fe10  1  0.49331237  0.16042611  0.16072180  1
  Cr  Cr11  1  0.32641271  0.99337818  0.32613959  1
  Cr  Cr12  1  0.32829440  0.32797144  -0.00443493  1
  Cr  Cr13  1  0.49222831  0.49472134  0.16329169  1
  Fe  Fe14  1  0.32677647  0.32555272  0.32869357  1
  Cr  Cr15  1  0.32434122  0.66116325  0.99050243  1
  Cr  Cr16  1  0.49266767  0.82890035  0.16022749  1
  Cr  Cr17  1  0.32757055  0.65824188  0.32972294  1
  Cr  Cr18  1  0.66088164  -0.00443407  -0.00368008  1
  Fe  Fe19  1  0.83050033  0.16039461  0.15974126  1
  Cr  Cr20  1  0.66226647  -0.00603089  0.32692776  1
  Cr  Cr21  1  0.66093904  0.32630176  -0.00472436  1
  Cr  Cr22  1  0.82889829  0.49300702  0.15719517  1
  Cr  Cr23  1  0.65886557  0.32696333  0.32354135  1
  Cr  Cr24  1  0.65858669  0.65959809  0.99355409  1
  Cr  Cr25  1  0.82662008  0.82633447  0.16191470  1
  Cr  Cr26  1  0.66020597  0.66002879  0.33084721  1
  Ni  Ni27  1  0.16242729  0.16047449  0.49392646  1
  Cr  Cr28  1  -0.00522276  -0.00541461  0.65716490  1
  Cr  Cr29  1  0.16004624  0.16114830  0.82476953  1
  Cr  Cr30  1  0.15991044  0.49168857  0.49230280  1
  Fe  Fe31  1  -0.00591875  0.32789070  0.65934503  1
  Cr  Cr32  1  0.15872775  0.49280580  0.82722915  1
  Cr  Cr33  1  0.16262054  0.82713706  0.49361224  1
  Cr  Cr34  1  -0.00533162  0.66197741  0.66173153  1
  Fe  Fe35  1  0.15907773  0.82695084  0.82707017  1
  Cr  Cr36  1  0.49245165  0.15868817  0.49198397  1
  Cr  Cr37  1  0.32532912  0.99330116  0.66237545  1
  Cr  Cr38  1  0.49281128  0.15880439  0.83021945  1
  Fe  Fe39  1  0.49349903  0.49246750  0.49469256  1
  Cr  Cr40  1  0.32612431  0.32778517  0.65759069  1
  Cr  Cr41  1  0.49391163  0.49579525  0.82290673  1
  Fe  Fe42  1  0.49352905  0.82673603  0.49506058  1
  Fe  Fe43  1  0.32836184  0.66063616  0.65876885  1
  Cr  Cr44  1  0.49227899  0.82772538  0.82562650  1
  Cr  Cr45  1  0.82763905  0.16193741  0.49568758  1
  Cr  Cr46  1  0.66052582  0.99274735  0.65895524  1
  Cr  Cr47  1  0.82825573  0.16146721  0.82566094  1
  Cr  Cr48  1  0.82635720  0.49475870  0.49589567  1
  Cr  Cr49  1  0.65855534  0.32817512  0.66260582  1
  Cr  Cr50  1  0.82796653  0.49329970  0.82753104  1
  Fe  Fe51  1  0.82711906  0.82651501  0.49469198  1
  Ni  Ni52  1  0.65880855  0.66079167  0.65590366  1
  Cr  Cr53  1  0.82431083  0.82580705  0.82538758  1
" 