7245,Ni6Fe61Cr31_2,-221.383426494873, 160.212453056889,Ni6Fe61Cr31,"# generated using pymatgen
 data_Cr6Fe11Ni
_symmetry_space_group_name_H-M   'P 1'
_cell_length_a   7.50111341
_cell_length_b   7.50111341
_cell_length_c   10.60817631
_cell_angle_alpha   90.00000000
_cell_angle_beta   90.00000000
_cell_angle_gamma   90.00000000
_symmetry_Int_Tables_number   1
_chemical_formula_structural   Cr6Fe11Ni
_chemical_formula_sum   'Cr18 Fe33 Ni3'
_cell_volume   596.88709921
_cell_formula_units_Z   3
loop_
 _symmetry_equiv_pos_site_id
 _symmetry_equiv_pos_as_xyz
  1  'x, y, z'
loop_
 _atom_site_type_symbol
 _atom_site_label
 _atom_site_symmetry_multiplicity
 _atom_site_fract_x
 _atom_site_fract_y
 _atom_site_fract_z
 _atom_site_occupancy
  Fe  Fe0  1  0.99620870  -0.00169635  0.99460097  1
  Cr  Cr1  1  0.16547647  0.16134621  0.15911568  1
  Cr  Cr2  1  -0.00110358  0.99694069  0.33504519  1
  Fe  Fe3  1  0.99544428  0.33226905  0.99499497  1
  Fe  Fe4  1  0.16240477  0.49926350  0.16374686  1
  Cr  Cr5  1  -0.00075057  0.33003105  0.33153392  1
  Fe  Fe6  1  -0.00164229  0.66275485  0.99611210  1
  Fe  Fe7  1  0.16730579  0.82880250  0.16300395  1
  Fe  Fe8  1  0.00060185  0.66459557  0.33088344  1
  Fe  Fe9  1  0.33608595  0.99715292  0.99590040  1
  Fe  Fe10  1  0.49711098  0.16177692  0.16274073  1
  Fe  Fe11  1  0.32991072  0.99670017  0.33209539  1
  Cr  Cr12  1  0.32793103  0.33336936  0.99386196  1
  Cr  Cr13  1  0.49605790  0.49682071  0.16683248  1
  Fe  Fe14  1  0.33017116  0.32749986  0.33237373  1
  Fe  Fe15  1  0.33157372  0.66661952  -0.00195868  1
  Fe  Fe16  1  0.49520889  0.83404535  0.16325009  1
  Ni  Ni17  1  0.32714666  0.66375318  0.33001393  1
  Ni  Ni18  1  0.66511991  0.99678472  0.99518772  1
  Cr  Cr19  1  0.83132019  0.16508084  0.16249044  1
  Cr  Cr20  1  0.66421571  0.00014453  0.33084556  1
  Cr  Cr21  1  0.66383099  0.33007760  0.99763614  1
  Fe  Fe22  1  0.83354240  0.49804113  0.16367689  1
  Fe  Fe23  1  0.66333610  0.33048139  0.33056671  1
  Cr  Cr24  1  0.66398819  0.66704439  0.99510978  1
  Cr  Cr25  1  0.83501855  0.83160454  0.16139016  1
  Cr  Cr26  1  0.66479342  0.66747293  0.32871433  1
  Ni  Ni27  1  0.16569708  0.16294321  0.50103250  1
  Fe  Fe28  1  0.00011470  0.00034456  0.66475467  1
  Fe  Fe29  1  0.16157038  0.16526737  0.83033357  1
  Fe  Fe30  1  0.16427030  0.49822911  0.49719610  1
  Fe  Fe31  1  0.99672666  0.33054365  0.66413024  1
  Fe  Fe32  1  0.16061107  0.49881131  0.83158174  1
  Fe  Fe33  1  0.16595439  0.82957271  0.49925166  1
  Fe  Fe34  1  -0.00175362  0.66241091  0.66671020  1
  Cr  Cr35  1  0.16478343  0.83435995  0.83245966  1
  Fe  Fe36  1  0.49730388  0.16383459  0.49914671  1
  Fe  Fe37  1  0.33064300  -0.00081037  0.66491424  1
  Fe  Fe38  1  0.49792789  0.16170145  0.83091922  1
  Cr  Cr39  1  0.49809779  0.49594826  0.49716966  1
  Cr  Cr40  1  0.32855049  0.33103462  0.66586016  1
  Fe  Fe41  1  0.49846232  0.49828067  0.83060011  1
  Cr  Cr42  1  0.49698083  0.82993470  0.49980384  1
  Cr  Cr43  1  0.33068475  0.66337713  0.66678968  1
  Fe  Fe44  1  0.49929153  0.83366164  0.83016286  1
  Fe  Fe45  1  0.83035665  0.16522264  0.50106047  1
  Fe  Fe46  1  0.66357777  -0.00034209  0.66746244  1
  Fe  Fe47  1  0.83160415  0.16287466  0.83091397  1
  Cr  Cr48  1  0.82943365  0.49802453  0.49734046  1
  Fe  Fe49  1  0.66458956  0.33010006  0.66716840  1
  Fe  Fe50  1  0.83240576  0.49720093  0.82934491  1
  Cr  Cr51  1  0.83299220  0.83032485  0.50358145  1
  Fe  Fe52  1  0.66509141  0.66289249  0.66865810  1
  Fe  Fe53  1  0.83110540  0.83286064  0.82926946  1
" 