3709,Ni6Fe20Cr72_7,-209.940568500611, 194.178532537207,Ni6Fe20Cr72,"# generated using pymatgen
 data_Cr40Fe11Ni3
_symmetry_space_group_name_H-M   'P 1'
_cell_length_a   7.56674069
_cell_length_b   7.56674069
_cell_length_c   10.70098730
_cell_angle_alpha   90.00000000
_cell_angle_beta   90.00000000
_cell_angle_gamma   90.00000000
_symmetry_Int_Tables_number   1
_chemical_formula_structural   Cr40Fe11Ni3
_chemical_formula_sum   'Cr40 Fe11 Ni3'
_cell_volume   612.69107006
_cell_formula_units_Z   1
loop_
 _symmetry_equiv_pos_site_id
 _symmetry_equiv_pos_as_xyz
  1  'x, y, z'
loop_
 _atom_site_type_symbol
 _atom_site_label
 _atom_site_symmetry_multiplicity
 _atom_site_fract_x
 _atom_site_fract_y
 _atom_site_fract_z
 _atom_site_occupancy
  Cr  Cr0  1  0.99272425  0.99317986  0.99154717  1
  Cr  Cr1  1  0.16054468  0.15901610  0.16071145  1
  Ni  Ni2  1  -0.00455088  0.99297098  0.32645491  1
  Cr  Cr3  1  0.99336062  0.32793078  0.99141386  1
  Cr  Cr4  1  0.16403874  0.49213427  0.15631946  1
  Cr  Cr5  1  -0.00602090  0.32877011  0.32745040  1
  Cr  Cr6  1  -0.00586789  0.65979028  -0.00565614  1
  Cr  Cr7  1  0.16043801  0.82913554  0.16031796  1
  Cr  Cr8  1  -0.00549118  0.65931155  0.32639148  1
  Fe  Fe9  1  0.32741318  0.99227305  0.99250621  1
  Cr  Cr10  1  0.49173667  0.16134816  0.15982761  1
  Fe  Fe11  1  0.32711299  0.99313253  0.32814215  1
  Fe  Fe12  1  0.32857547  0.32466335  0.99224674  1
  Cr  Cr13  1  0.49228300  0.49332135  0.15840239  1
  Cr  Cr14  1  0.32787468  0.32579841  0.32878214  1
  Fe  Fe15  1  0.32836189  0.66359693  0.99326960  1
  Fe  Fe16  1  0.49095596  0.82857780  0.15920530  1
  Cr  Cr17  1  0.32681536  0.66196421  0.32584409  1
  Cr  Cr18  1  0.65551555  0.99315263  0.99049827  1
  Cr  Cr19  1  0.82711926  0.15813617  0.16057312  1
  Cr  Cr20  1  0.65542863  -0.00655808  0.32612426  1
  Cr  Cr21  1  0.66024180  0.32535925  0.99134169  1
  Cr  Cr22  1  0.82458921  0.49266280  0.16054053  1
  Cr  Cr23  1  0.65894453  0.32629357  0.32904204  1
  Cr  Cr24  1  0.65902256  0.66255918  -0.00442509  1
  Cr  Cr25  1  0.82657996  0.82952522  0.16251920  1
  Cr  Cr26  1  0.65905096  0.66055188  0.32509389  1
  Cr  Cr27  1  0.15980735  0.15838145  0.49063391  1
  Cr  Cr28  1  -0.00606669  -0.00541092  0.66148477  1
  Cr  Cr29  1  0.16095278  0.15993391  0.82856701  1
  Cr  Cr30  1  0.16325844  0.49438428  0.49576228  1
  Cr  Cr31  1  0.99303970  0.32801402  0.66134067  1
  Cr  Cr32  1  0.16513580  0.49385161  0.82783924  1
  Cr  Cr33  1  0.15907305  0.82776725  0.49422959  1
  Cr  Cr34  1  0.99295671  0.65829046  0.65962044  1
  Cr  Cr35  1  0.16144039  0.82601099  0.82515301  1
  Ni  Ni36  1  0.49419115  0.15923260  0.49378472  1
  Cr  Cr37  1  0.32866426  0.99340347  0.65908002  1
  Fe  Fe38  1  0.49141376  0.16022942  0.82681826  1
  Cr  Cr39  1  0.49519455  0.49363528  0.49538854  1
  Cr  Cr40  1  0.32731682  0.32370980  0.65823049  1
  Cr  Cr41  1  0.49404280  0.49395119  0.82654315  1
  Cr  Cr42  1  0.49472910  0.82487492  0.49574488  1
  Fe  Fe43  1  0.32959729  0.66042957  0.66074256  1
  Fe  Fe44  1  0.49164469  0.82461731  0.82591586  1
  Cr  Cr45  1  0.82664232  0.15713746  0.49220787  1
  Cr  Cr46  1  0.65684965  -0.00631962  0.66351062  1
  Fe  Fe47  1  0.82572531  0.16135559  0.82657647  1
  Fe  Fe48  1  0.82524736  0.49412411  0.49449663  1
  Cr  Cr49  1  0.66034999  0.32559135  0.65983238  1
  Fe  Fe50  1  0.82577346  0.49524387  0.82637226  1
  Cr  Cr51  1  0.82624863  0.82691855  0.49311809  1
  Ni  Ni52  1  0.65910615  0.65931417  0.66181062  1
  Cr  Cr53  1  0.82513856  0.82700051  0.82498147  1
" 