8165,Ni6Fe61Cr31_11,-221.300646363766, 165.685045497435,Ni6Fe61Cr31,"# generated using pymatgen
 data_Cr6Fe11Ni
_symmetry_space_group_name_H-M   'P 1'
_cell_length_a   7.50007014
_cell_length_b   7.50007014
_cell_length_c   10.60670090
_cell_angle_alpha   90.00000000
_cell_angle_beta   90.00000000
_cell_angle_gamma   90.00000000
_symmetry_Int_Tables_number   1
_chemical_formula_structural   Cr6Fe11Ni
_chemical_formula_sum   'Cr18 Fe33 Ni3'
_cell_volume   596.63808455
_cell_formula_units_Z   3
loop_
 _symmetry_equiv_pos_site_id
 _symmetry_equiv_pos_as_xyz
  1  'x, y, z'
loop_
 _atom_site_type_symbol
 _atom_site_label
 _atom_site_symmetry_multiplicity
 _atom_site_fract_x
 _atom_site_fract_y
 _atom_site_fract_z
 _atom_site_occupancy
  Fe  Fe0  1  -0.00219844  0.00094308  -0.00038963  1
  Fe  Fe1  1  0.16270066  0.16231081  0.16380461  1
  Fe  Fe2  1  -0.00090577  0.99750041  0.33106593  1
  Ni  Ni3  1  0.99529799  0.33005213  -0.00089449  1
  Fe  Fe4  1  0.16560066  0.49838196  0.16463465  1
  Cr  Cr5  1  0.99773373  0.33208284  0.32805509  1
  Cr  Cr6  1  0.99661739  0.66047675  -0.00034071  1
  Fe  Fe7  1  0.16590583  0.83174454  0.16414676  1
  Cr  Cr8  1  0.99678852  0.66350168  0.33396098  1
  Fe  Fe9  1  0.33025657  0.99764602  -0.00178777  1
  Cr  Cr10  1  0.49832736  0.16631132  0.16909402  1
  Fe  Fe11  1  0.32862514  0.99583491  0.33130124  1
  Cr  Cr12  1  0.33020046  0.33006879  -0.00063584  1
  Fe  Fe13  1  0.49887079  0.49869572  0.16481820  1
  Fe  Fe14  1  0.32848022  0.33428612  0.32949514  1
  Fe  Fe15  1  0.33176959  0.66227778  -0.00207182  1
  Cr  Cr16  1  0.49872901  0.82913916  0.16228399  1
  Fe  Fe17  1  0.32929720  0.66425537  0.33077364  1
  Fe  Fe18  1  0.66554814  0.00097810  0.99778648  1
  Fe  Fe19  1  0.83123972  0.16498544  0.16357809  1
  Fe  Fe20  1  0.66618272  0.99576019  0.33168195  1
  Fe  Fe21  1  0.66635702  0.33270384  -0.00199562  1
  Fe  Fe22  1  0.82784758  0.49611269  0.16376807  1
  Fe  Fe23  1  0.66644111  0.33364352  0.33000937  1
  Fe  Fe24  1  0.66360812  0.66088131  0.99648666  1
  Cr  Cr25  1  0.83257064  0.83125714  0.16492239  1
  Fe  Fe26  1  0.66423094  0.66360925  0.33183290  1
  Cr  Cr27  1  0.16513801  0.16774092  0.49885607  1
  Fe  Fe28  1  0.99658654  0.99630025  0.66379508  1
  Cr  Cr29  1  0.16163068  0.16551961  0.82988357  1
  Ni  Ni30  1  0.16468908  0.50088368  0.49990235  1
  Fe  Fe31  1  0.99557468  0.33352861  0.66390244  1
  Cr  Cr32  1  0.16529586  0.49783968  0.82729353  1
  Fe  Fe33  1  0.16539066  0.83057679  0.49854723  1
  Fe  Fe34  1  -0.00171111  0.66500948  0.66178566  1
  Cr  Cr35  1  0.16296342  0.82965842  0.83322644  1
  Cr  Cr36  1  0.49878185  0.16544789  0.49500837  1
  Cr  Cr37  1  0.33371284  0.99627507  0.66490814  1
  Cr  Cr38  1  0.50050488  0.16636471  0.82955874  1
  Cr  Cr39  1  0.49565846  0.49700000  0.49445045  1
  Fe  Fe40  1  0.33321938  0.33460752  0.66434608  1
  Ni  Ni41  1  0.49945012  0.49836170  0.83268923  1
  Fe  Fe42  1  0.49722922  0.83063194  0.49531391  1
  Fe  Fe43  1  0.33234574  0.66358822  0.66391690  1
  Fe  Fe44  1  0.49717529  0.82889915  0.83387109  1
  Cr  Cr45  1  0.82997484  0.16156372  0.49841571  1
  Fe  Fe46  1  0.66583767  0.99730284  0.66442188  1
  Fe  Fe47  1  0.83139067  0.16775711  0.83103248  1
  Fe  Fe48  1  0.83215156  0.49594489  0.49871136  1
  Fe  Fe49  1  0.66474848  0.33245681  0.66528968  1
  Fe  Fe50  1  0.83041555  0.49499048  0.83136611  1
  Fe  Fe51  1  0.83127838  0.82981210  0.49782904  1
  Cr  Cr52  1  0.66473370  0.66464318  0.66479354  1
  Cr  Cr53  1  0.83083066  0.83297439  0.83262063  1
" 