6847,Ni6Fe9Cr83_10,-205.54658871824, 197.580864840118,Ni6Fe9Cr83,"# generated using pymatgen
 data_Cr46Fe5Ni3
_symmetry_space_group_name_H-M   'P 1'
_cell_length_a   7.58462071
_cell_length_b   7.58462071
_cell_length_c   10.72627347
_cell_angle_alpha   90.00000000
_cell_angle_beta   90.00000000
_cell_angle_gamma   90.00000000
_symmetry_Int_Tables_number   1
_chemical_formula_structural   Cr46Fe5Ni3
_chemical_formula_sum   'Cr46 Fe5 Ni3'
_cell_volume   617.04466252
_cell_formula_units_Z   1
loop_
 _symmetry_equiv_pos_site_id
 _symmetry_equiv_pos_as_xyz
  1  'x, y, z'
loop_
 _atom_site_type_symbol
 _atom_site_label
 _atom_site_symmetry_multiplicity
 _atom_site_fract_x
 _atom_site_fract_y
 _atom_site_fract_z
 _atom_site_occupancy
  Cr  Cr0  1  0.99106820  0.99079990  -0.00672063  1
  Cr  Cr1  1  0.16062471  0.15815581  0.15980592  1
  Cr  Cr2  1  -0.00642125  0.99038668  0.32503249  1
  Cr  Cr3  1  -0.00746938  0.32586575  0.99170303  1
  Fe  Fe4  1  0.15843641  0.49338883  0.15889513  1
  Cr  Cr5  1  -0.00769884  0.32601897  0.32602247  1
  Cr  Cr6  1  -0.00758364  0.66008418  -0.00522625  1
  Fe  Fe7  1  0.15804884  0.82573637  0.15975367  1
  Cr  Cr8  1  0.99218931  0.66034479  0.32337165  1
  Cr  Cr9  1  0.32688864  0.99196458  -0.00748549  1
  Fe  Fe10  1  0.49224063  0.15727234  0.15942401  1
  Ni  Ni11  1  0.32542764  -0.00759044  0.32435908  1
  Cr  Cr12  1  0.32611924  0.32539642  -0.00704220  1
  Cr  Cr13  1  0.49130847  0.49158195  0.15940001  1
  Cr  Cr14  1  0.32656891  0.32385897  0.32460129  1
  Cr  Cr15  1  0.32506806  0.65938767  0.99152956  1
  Cr  Cr16  1  0.49232615  0.82732277  0.15877930  1
  Cr  Cr17  1  0.32445995  0.66028465  0.32496154  1
  Fe  Fe18  1  0.65910071  0.99137861  -0.00733943  1
  Cr  Cr19  1  0.82461618  0.15714032  0.15758112  1
  Cr  Cr20  1  0.65793845  -0.00750866  0.32428167  1
  Cr  Cr21  1  0.65809796  0.32404254  -0.00686490  1
  Cr  Cr22  1  0.82626803  0.49373706  0.15899535  1
  Cr  Cr23  1  0.65787838  0.32524683  0.32577039  1
  Cr  Cr24  1  0.65926159  0.66085114  0.99174814  1
  Ni  Ni25  1  0.82612059  0.82611001  0.15814738  1
  Cr  Cr26  1  0.66009525  0.65900886  0.32609181  1
  Cr  Cr27  1  0.15941678  0.15787761  0.49243814  1
  Cr  Cr28  1  0.99116044  -0.00734397  0.65843248  1
  Cr  Cr29  1  0.15856652  0.15913663  0.82450107  1
  Cr  Cr30  1  0.15900928  0.49206821  0.49247571  1
  Cr  Cr31  1  0.99210071  0.32496312  0.65902482  1
  Cr  Cr32  1  0.15932072  0.49203310  0.82605576  1
  Cr  Cr33  1  0.16000686  0.82680251  0.49078418  1
  Cr  Cr34  1  0.99210275  0.65912841  0.65860069  1
  Cr  Cr35  1  0.16021316  0.82557801  0.82539522  1
  Cr  Cr36  1  0.49180636  0.15746329  0.49060218  1
  Cr  Cr37  1  0.32696584  0.99160801  0.65909673  1
  Cr  Cr38  1  0.49325990  0.15661902  0.82663883  1
  Cr  Cr39  1  0.49255953  0.49283001  0.49208709  1
  Cr  Cr40  1  0.32556114  0.32554587  0.65919199  1
  Cr  Cr41  1  0.49180351  0.49385349  0.82526020  1
  Cr  Cr42  1  0.49197920  0.82645504  0.49340696  1
  Cr  Cr43  1  0.32660901  0.65959512  0.66025948  1
  Fe  Fe44  1  0.49342215  0.82678351  0.82507651  1
  Cr  Cr45  1  0.82552311  0.15845819  0.49384908  1
  Ni  Ni46  1  0.65837872  0.99156115  0.66047486  1
  Cr  Cr47  1  0.82492135  0.15750854  0.82532124  1
  Cr  Cr48  1  0.82517901  0.49223975  0.49232323  1
  Cr  Cr49  1  0.65908580  0.32460426  0.65784125  1
  Cr  Cr50  1  0.82562392  0.49220442  0.82542873  1
  Cr  Cr51  1  0.82476300  0.82605018  0.49268724  1
  Cr  Cr52  1  0.65803681  0.66053491  0.65890788  1
  Cr  Cr53  1  0.82310439  0.82703390  0.82572148  1
" 