536,Ni6Fe23Cr70_12,-210.554553379066, 190.751575693314,Ni6Fe23Cr70,"# generated using pymatgen
 data_Cr13Fe4Ni
_symmetry_space_group_name_H-M   'P 1'
_cell_length_a   7.56867397
_cell_length_b   7.56867397
_cell_length_c   10.70372138
_cell_angle_alpha   90.00000000
_cell_angle_beta   90.00000000
_cell_angle_gamma   90.00000000
_symmetry_Int_Tables_number   1
_chemical_formula_structural   Cr13Fe4Ni
_chemical_formula_sum   'Cr39 Fe12 Ni3'
_cell_volume   613.16081419
_cell_formula_units_Z   3
loop_
 _symmetry_equiv_pos_site_id
 _symmetry_equiv_pos_as_xyz
  1  'x, y, z'
loop_
 _atom_site_type_symbol
 _atom_site_label
 _atom_site_symmetry_multiplicity
 _atom_site_fract_x
 _atom_site_fract_y
 _atom_site_fract_z
 _atom_site_occupancy
  Cr  Cr0  1  -0.00522831  -0.00479035  0.99205801  1
  Cr  Cr1  1  0.16096645  0.15713813  0.15952053  1
  Cr  Cr2  1  0.99323176  0.99120342  0.32792651  1
  Cr  Cr3  1  -0.00588138  0.32645288  0.99327096  1
  Cr  Cr4  1  0.16209268  0.49664634  0.15981155  1
  Cr  Cr5  1  -0.00624024  0.32833406  0.32408696  1
  Cr  Cr6  1  0.99214351  0.65844320  -0.00555273  1
  Cr  Cr7  1  0.16109522  0.82604872  0.15976396  1
  Fe  Fe8  1  0.99231299  0.66077253  0.32803892  1
  Ni  Ni9  1  0.32792502  0.99154871  0.99146617  1
  Cr  Cr10  1  0.49286726  0.15899887  0.16161802  1
  Fe  Fe11  1  0.32681397  0.99192823  0.32708959  1
  Cr  Cr12  1  0.32506821  0.32470688  0.99300540  1
  Cr  Cr13  1  0.49260634  0.49525513  0.15839169  1
  Cr  Cr14  1  0.32545865  0.32587688  0.32558366  1
  Ni  Ni15  1  0.32970756  0.66329585  0.99179444  1
  Cr  Cr16  1  0.49169976  0.82533774  0.15639749  1
  Cr  Cr17  1  0.32644327  0.66236766  0.32898321  1
  Cr  Cr18  1  0.65734832  0.99128229  -0.00626583  1
  Cr  Cr19  1  0.82592172  0.15841550  0.16063490  1
  Cr  Cr20  1  0.65847816  0.99059085  0.32643147  1
  Cr  Cr21  1  0.66085301  0.32706114  0.99275753  1
  Cr  Cr22  1  0.82503406  0.49515132  0.15913660  1
  Cr  Cr23  1  0.66077861  0.32708834  0.32692171  1
  Ni  Ni24  1  0.65712621  0.66062299  0.99116731  1
  Cr  Cr25  1  0.82690566  0.82624376  0.15861177  1
  Cr  Cr26  1  0.66118434  0.66212450  0.32826056  1
  Cr  Cr27  1  0.15932367  0.15759106  0.49414858  1
  Fe  Fe28  1  -0.00610390  0.99188344  0.65972805  1
  Fe  Fe29  1  0.16151174  0.15836062  0.82718083  1
  Cr  Cr30  1  0.16008876  0.49541220  0.49188388  1
  Cr  Cr31  1  0.99321545  0.32719487  0.66268819  1
  Cr  Cr32  1  0.16203945  0.49562719  0.82807411  1
  Fe  Fe33  1  0.15959520  0.82775450  0.49303978  1
  Cr  Cr34  1  0.99194462  0.66009962  0.65652496  1
  Cr  Cr35  1  0.16088199  0.82733580  0.82733811  1
  Cr  Cr36  1  0.49429798  0.16056127  0.49244270  1
  Cr  Cr37  1  0.32745298  0.99263065  0.66055985  1
  Fe  Fe38  1  0.49193065  0.15802211  0.82748839  1
  Cr  Cr39  1  0.49423207  0.49257258  0.49422209  1
  Cr  Cr40  1  0.32596539  0.32513546  0.66182766  1
  Cr  Cr41  1  0.49426335  0.49458353  0.82733578  1
  Fe  Fe42  1  0.49253442  0.82767844  0.49301280  1
  Cr  Cr43  1  0.32767652  0.66216627  0.65909752  1
  Fe  Fe44  1  0.49244181  0.82635530  0.82932978  1
  Cr  Cr45  1  0.82605965  0.15880673  0.49490806  1
  Cr  Cr46  1  0.65838390  0.99122374  0.65978216  1
  Cr  Cr47  1  0.82599796  0.15930014  0.82432018  1
  Fe  Fe48  1  0.82690670  0.49298496  0.49308081  1
  Fe  Fe49  1  0.65990627  0.32735397  0.66070548  1
  Fe  Fe50  1  0.82564960  0.49464724  0.82721663  1
  Fe  Fe51  1  0.82764604  0.82604292  0.49329213  1
  Cr  Cr52  1  0.66048941  0.66114588  0.65946077  1
  Cr  Cr53  1  0.82642012  0.82684857  0.82786502  1
" 