1244,Ni6Fe61Cr31_7,-221.179087413177, 167.357907798445,Ni6Fe61Cr31,"# generated using pymatgen
 data_Cr6Fe11Ni
_symmetry_space_group_name_H-M   'P 1'
_cell_length_a   7.48750804
_cell_length_b   7.48750804
_cell_length_c   10.58893543
_cell_angle_alpha   90.00000000
_cell_angle_beta   90.00000000
_cell_angle_gamma   90.00000000
_symmetry_Int_Tables_number   1
_chemical_formula_structural   Cr6Fe11Ni
_chemical_formula_sum   'Cr18 Fe33 Ni3'
_cell_volume   593.64512250
_cell_formula_units_Z   3
loop_
 _symmetry_equiv_pos_site_id
 _symmetry_equiv_pos_as_xyz
  1  'x, y, z'
loop_
 _atom_site_type_symbol
 _atom_site_label
 _atom_site_symmetry_multiplicity
 _atom_site_fract_x
 _atom_site_fract_y
 _atom_site_fract_z
 _atom_site_occupancy
  Fe  Fe0  1  -0.00107821  0.00191507  0.99839720  1
  Fe  Fe1  1  0.16420108  0.16444292  0.16595945  1
  Fe  Fe2  1  -0.00038541  0.99670096  0.33033120  1
  Fe  Fe3  1  0.99694478  0.33048653  0.99750558  1
  Fe  Fe4  1  0.16495869  0.49715349  0.16529727  1
  Fe  Fe5  1  0.99847850  0.33305564  0.33261238  1
  Cr  Cr6  1  0.99855417  0.66617882  -0.00055270  1
  Fe  Fe7  1  0.16517521  0.83442340  0.16476149  1
  Fe  Fe8  1  -0.00119113  0.66638348  0.33155317  1
  Fe  Fe9  1  0.33130934  0.99804595  -0.00041462  1
  Cr  Cr10  1  0.49842718  0.16439659  0.16697352  1
  Fe  Fe11  1  0.33344450  0.99626993  0.33212030  1
  Cr  Cr12  1  0.33007510  0.33055849  0.99662385  1
  Fe  Fe13  1  0.49839746  0.49702742  0.16495823  1
  Cr  Cr14  1  0.33043696  0.33126782  0.33324364  1
  Fe  Fe15  1  0.33200020  0.66417305  0.00140561  1
  Fe  Fe16  1  0.49940031  0.83307725  0.16606831  1
  Cr  Cr17  1  0.33229192  0.66514633  0.33082500  1
  Fe  Fe18  1  0.66574818  0.00138024  -0.00057437  1
  Cr  Cr19  1  0.83196107  0.16687285  0.16601254  1
  Ni  Ni20  1  0.66584719  0.99643867  0.33275003  1
  Ni  Ni21  1  0.66387742  0.33111557  0.99711392  1
  Cr  Cr22  1  0.83129753  0.49721514  0.16883916  1
  Fe  Fe23  1  0.66335997  0.33244511  0.33291930  1
  Cr  Cr24  1  0.66501698  0.66639705  0.00276314  1
  Fe  Fe25  1  0.83172297  0.83422060  0.16794425  1
  Fe  Fe26  1  0.66459519  0.66613601  0.33260993  1
  Cr  Cr27  1  0.16581842  0.16402910  0.49551092  1
  Fe  Fe28  1  0.99767290  0.00002790  0.66563851  1
  Fe  Fe29  1  0.16373392  0.16366143  0.83193806  1
  Fe  Fe30  1  0.16354368  0.50041585  0.49908357  1
  Cr  Cr31  1  -0.00033145  0.33137478  0.66695498  1
  Fe  Fe32  1  0.16689106  0.49824876  0.83129331  1
  Fe  Fe33  1  0.16555411  0.83026260  0.49872294  1
  Fe  Fe34  1  0.00106022  0.66478405  0.66425963  1
  Cr  Cr35  1  0.16706559  0.83028800  0.82934457  1
  Fe  Fe36  1  0.50092011  0.16493122  0.49670153  1
  Cr  Cr37  1  0.33355861  0.00125730  0.66176711  1
  Fe  Fe38  1  0.50087259  0.16535900  0.83206198  1
  Fe  Fe39  1  0.49975483  0.49705638  0.49897601  1
  Fe  Fe40  1  0.33420826  0.33398157  0.66517073  1
  Fe  Fe41  1  0.49822431  0.49715919  0.83174092  1
  Fe  Fe42  1  0.49888830  0.83349018  0.49728705  1
  Fe  Fe43  1  0.33173179  0.66253390  0.66274609  1
  Cr  Cr44  1  0.49687363  0.83121555  0.83386902  1
  Cr  Cr45  1  0.83055383  0.16663276  0.49691250  1
  Fe  Fe46  1  0.66582896  0.00211026  0.66512143  1
  Ni  Ni47  1  0.83051845  0.16635257  0.83330659  1
  Fe  Fe48  1  0.83263332  0.49806254  0.49699993  1
  Fe  Fe49  1  0.66283714  0.32956304  0.66647975  1
  Cr  Cr50  1  0.83116254  0.49717568  0.83181301  1
  Cr  Cr51  1  0.83394698  0.83192139  0.49930981  1
  Cr  Cr52  1  0.66555293  0.66584442  0.66370954  1
  Cr  Cr53  1  0.83227736  0.83555573  0.83145327  1
" 