1984,Ni6Fe20Cr72_3,-209.735460870445, 191.191824517774,Ni6Fe20Cr72,"# generated using pymatgen
 data_Cr40Fe11Ni3
_symmetry_space_group_name_H-M   'P 1'
_cell_length_a   7.56350053
_cell_length_b   7.56350053
_cell_length_c   10.69640502
_cell_angle_alpha   90.00000000
_cell_angle_beta   90.00000000
_cell_angle_gamma   90.00000000
_symmetry_Int_Tables_number   1
_chemical_formula_structural   Cr40Fe11Ni3
_chemical_formula_sum   'Cr40 Fe11 Ni3'
_cell_volume   611.90432394
_cell_formula_units_Z   1
loop_
 _symmetry_equiv_pos_site_id
 _symmetry_equiv_pos_as_xyz
  1  'x, y, z'
loop_
 _atom_site_type_symbol
 _atom_site_label
 _atom_site_symmetry_multiplicity
 _atom_site_fract_x
 _atom_site_fract_y
 _atom_site_fract_z
 _atom_site_occupancy
  Fe  Fe0  1  0.99353783  0.99280228  -0.00375285  1
  Fe  Fe1  1  0.16019432  0.15868492  0.16065447  1
  Fe  Fe2  1  -0.00582144  0.99271793  0.32417240  1
  Cr  Cr3  1  -0.00584066  0.32830538  -0.00367212  1
  Cr  Cr4  1  0.16176101  0.49634406  0.16121684  1
  Fe  Fe5  1  -0.00602671  0.32681318  0.32470737  1
  Fe  Fe6  1  -0.00489427  0.66169291  -0.00353815  1
  Ni  Ni7  1  0.15616614  0.82667210  0.15923916  1
  Cr  Cr8  1  0.99185048  0.66003374  0.32611044  1
  Cr  Cr9  1  0.32399054  0.99361375  -0.00600838  1
  Cr  Cr10  1  0.49667159  0.16106794  0.15943193  1
  Cr  Cr11  1  0.32465547  -0.00614516  0.32532939  1
  Cr  Cr12  1  0.32701476  0.32557852  -0.00519137  1
  Ni  Ni13  1  0.49376534  0.49497541  0.15884508  1
  Cr  Cr14  1  0.32605947  0.32544905  0.32554304  1
  Fe  Fe15  1  0.32686850  0.66010703  -0.00360869  1
  Cr  Cr16  1  0.49094103  0.82496318  0.16215451  1
  Fe  Fe17  1  0.32631219  0.65967481  0.32457903  1
  Cr  Cr18  1  0.65956135  0.99130361  -0.00634397  1
  Cr  Cr19  1  0.82854609  0.15907623  0.16138253  1
  Fe  Fe20  1  0.66076170  -0.00633528  0.32532243  1
  Fe  Fe21  1  0.66059416  0.32752077  -0.00394869  1
  Fe  Fe22  1  0.82693268  0.49479224  0.15964263  1
  Cr  Cr23  1  0.66050125  0.33027043  0.32335033  1
  Cr  Cr24  1  0.66309165  0.65828119  -0.00453467  1
  Fe  Fe25  1  0.82796123  0.82615007  0.16013828  1
  Cr  Cr26  1  0.66143761  0.66047342  0.32648333  1
  Cr  Cr27  1  0.15837298  0.16158254  0.49183053  1
  Cr  Cr28  1  -0.00504431  0.99295804  0.66124108  1
  Cr  Cr29  1  0.15873638  0.16132202  0.82753192  1
  Cr  Cr30  1  0.16121102  0.49377162  0.49417543  1
  Cr  Cr31  1  -0.00482936  0.32721945  0.65841273  1
  Cr  Cr32  1  0.16123992  0.49499187  0.82555273  1
  Cr  Cr33  1  0.16047384  0.82530296  0.49243139  1
  Cr  Cr34  1  0.99129288  0.66039284  0.66109354  1
  Cr  Cr35  1  0.15971252  0.82440828  0.83048979  1
  Cr  Cr36  1  0.49533061  0.16037605  0.49428046  1
  Cr  Cr37  1  0.32601617  -0.00358989  0.66128996  1
  Cr  Cr38  1  0.49506804  0.16150591  0.82699861  1
  Cr  Cr39  1  0.49104790  0.49375465  0.49321611  1
  Ni  Ni40  1  0.32678974  0.32692434  0.66030019  1
  Cr  Cr41  1  0.49191134  0.49349420  0.82889869  1
  Cr  Cr42  1  0.49315732  0.82721280  0.49114980  1
  Cr  Cr43  1  0.32726731  0.66104804  0.65915412  1
  Cr  Cr44  1  0.49275423  0.82558612  0.82660545  1
  Cr  Cr45  1  0.82675602  0.15965556  0.49073738  1
  Cr  Cr46  1  0.65989658  0.99188779  0.65953786  1
  Cr  Cr47  1  0.82656105  0.16009737  0.82818052  1
  Cr  Cr48  1  0.82877285  0.49146081  0.49307179  1
  Cr  Cr49  1  0.65988756  0.32867409  0.66227963  1
  Cr  Cr50  1  0.82850595  0.49270017  0.82952436  1
  Cr  Cr51  1  0.82719266  0.82999986  0.49190817  1
  Cr  Cr52  1  0.66222450  0.66020129  0.65907755  1
  Cr  Cr53  1  0.82878574  0.82786225  0.82901068  1
" 