7678,Ni6Fe23Cr70_0,-210.617420654556, 197.034048729442,Ni6Fe23Cr70,"# generated using pymatgen
 data_Cr13Fe4Ni
_symmetry_space_group_name_H-M   'P 1'
_cell_length_a   7.56080871
_cell_length_b   7.56080871
_cell_length_c   10.69259822
_cell_angle_alpha   90.00000000
_cell_angle_beta   90.00000000
_cell_angle_gamma   90.00000000
_symmetry_Int_Tables_number   1
_chemical_formula_structural   Cr13Fe4Ni
_chemical_formula_sum   'Cr39 Fe12 Ni3'
_cell_volume   611.25123405
_cell_formula_units_Z   3
loop_
 _symmetry_equiv_pos_site_id
 _symmetry_equiv_pos_as_xyz
  1  'x, y, z'
loop_
 _atom_site_type_symbol
 _atom_site_label
 _atom_site_symmetry_multiplicity
 _atom_site_fract_x
 _atom_site_fract_y
 _atom_site_fract_z
 _atom_site_occupancy
  Cr  Cr0  1  -0.00410739  0.99265384  0.99339860  1
  Cr  Cr1  1  0.16060937  0.16165354  0.16076615  1
  Cr  Cr2  1  -0.00400901  -0.00523998  0.32971700  1
  Cr  Cr3  1  0.99281459  0.32842293  -0.00612814  1
  Cr  Cr4  1  0.16121651  0.49467438  0.15972551  1
  Cr  Cr5  1  0.99112434  0.32719870  0.32907834  1
  Cr  Cr6  1  0.99231234  0.66036227  -0.00554095  1
  Cr  Cr7  1  0.16042694  0.82501763  0.16238678  1
  Cr  Cr8  1  0.99159971  0.65953053  0.32529392  1
  Cr  Cr9  1  0.32812824  -0.00570797  -0.00601942  1
  Fe  Fe10  1  0.49456165  0.16019472  0.16050127  1
  Cr  Cr11  1  0.32602611  -0.00500586  0.32601375  1
  Cr  Cr12  1  0.32851854  0.32444874  -0.00561222  1
  Cr  Cr13  1  0.49288190  0.49256782  0.16278982  1
  Cr  Cr14  1  0.32975366  0.32541628  0.32699541  1
  Cr  Cr15  1  0.32739918  0.66273830  0.99154550  1
  Cr  Cr16  1  0.49454781  0.82787086  0.16088553  1
  Fe  Fe17  1  0.32808268  0.65938880  0.32812626  1
  Fe  Fe18  1  0.65952670  0.99372320  0.99336848  1
  Cr  Cr19  1  0.82433944  0.15999020  0.15913462  1
  Cr  Cr20  1  0.65936223  -0.00436962  0.32741747  1
  Cr  Cr21  1  0.65998064  0.32786794  -0.00257542  1
  Fe  Fe22  1  0.82674976  0.49345064  0.16088061  1
  Fe  Fe23  1  0.66116524  0.32735800  0.32874994  1
  Cr  Cr24  1  0.66160966  0.65982851  0.99284991  1
  Cr  Cr25  1  0.82649638  0.82842936  0.15965967  1
  Cr  Cr26  1  0.66095564  0.65563195  0.32869979  1
  Fe  Fe27  1  0.15948535  0.16187860  0.49470668  1
  Cr  Cr28  1  -0.00523568  -0.00436078  0.65809634  1
  Cr  Cr29  1  0.15963317  0.16305707  0.82518192  1
  Cr  Cr30  1  0.16372184  0.49310187  0.49569888  1
  Fe  Fe31  1  0.99300120  0.32566938  0.65853452  1
  Cr  Cr32  1  0.16226133  0.49387373  0.82585981  1
  Cr  Cr33  1  0.16120626  0.82531643  0.49145588  1
  Cr  Cr34  1  0.99321480  0.65953213  0.66166536  1
  Fe  Fe35  1  0.16158539  0.82683642  0.82654530  1
  Cr  Cr36  1  0.49658734  0.16230180  0.49342094  1
  Cr  Cr37  1  0.32698694  -0.00598113  0.66138885  1
  Cr  Cr38  1  0.49597216  0.15880002  0.82873934  1
  Ni  Ni39  1  0.49233483  0.49297006  0.49366524  1
  Fe  Fe40  1  0.32758203  0.32778595  0.65899767  1
  Cr  Cr41  1  0.49031053  0.49476693  0.82476253  1
  Cr  Cr42  1  0.49409842  0.82459362  0.49462328  1
  Fe  Fe43  1  0.32856327  0.66030317  0.66032218  1
  Fe  Fe44  1  0.49394180  0.82817153  0.82604331  1
  Ni  Ni45  1  0.82733896  0.16216974  0.49532324  1
  Ni  Ni46  1  0.65968935  -0.00536510  0.66132284  1
  Cr  Cr47  1  0.82584602  0.15795053  0.82636974  1
  Fe  Fe48  1  0.82531590  0.49139483  0.49392013  1
  Cr  Cr49  1  0.66087726  0.32833422  0.65680247  1
  Cr  Cr50  1  0.82885060  0.49296672  0.82791698  1
  Cr  Cr51  1  0.82603492  0.83087621  0.49388400  1
  Cr  Cr52  1  0.65918119  0.65970426  0.65994649  1
  Cr  Cr53  1  0.82471667  0.83043086  0.82787264  1
" 