1158,Ni6Fe20Cr73_8,-210.268699995939, 197.842788193328,Ni6Fe20Cr73,"# generated using pymatgen
 data_Cr40Fe11Ni3
_symmetry_space_group_name_H-M   'P 1'
_cell_length_a   7.57124779
_cell_length_b   7.57124779
_cell_length_c   10.70736131
_cell_angle_alpha   90.00000000
_cell_angle_beta   90.00000000
_cell_angle_gamma   90.00000000
_symmetry_Int_Tables_number   1
_chemical_formula_structural   Cr40Fe11Ni3
_chemical_formula_sum   'Cr40 Fe11 Ni3'
_cell_volume   613.78656526
_cell_formula_units_Z   1
loop_
 _symmetry_equiv_pos_site_id
 _symmetry_equiv_pos_as_xyz
  1  'x, y, z'
loop_
 _atom_site_type_symbol
 _atom_site_label
 _atom_site_symmetry_multiplicity
 _atom_site_fract_x
 _atom_site_fract_y
 _atom_site_fract_z
 _atom_site_occupancy
  Fe  Fe0  1  -0.00586654  -0.00606608  0.99268202  1
  Ni  Ni1  1  0.15647999  0.15874756  0.15887672  1
  Fe  Fe2  1  -0.00642456  0.99308233  0.32600937  1
  Ni  Ni3  1  -0.00532237  0.32455870  -0.00571551  1
  Cr  Cr4  1  0.15919745  0.49277273  0.15940243  1
  Cr  Cr5  1  -0.00534314  0.32638260  0.32358649  1
  Cr  Cr6  1  0.99305772  0.66031695  0.99085193  1
  Cr  Cr7  1  0.15957835  0.82771446  0.16087448  1
  Fe  Fe8  1  0.99300021  0.66111707  0.32680677  1
  Cr  Cr9  1  0.32396515  0.99225186  -0.00597837  1
  Cr  Cr10  1  0.49408129  0.15832657  0.16010726  1
  Cr  Cr11  1  0.32444496  -0.00476639  0.32628129  1
  Cr  Cr12  1  0.32342046  0.32503520  -0.00518766  1
  Cr  Cr13  1  0.49231736  0.49518439  0.15850978  1
  Cr  Cr14  1  0.32543230  0.32369661  0.32650778  1
  Fe  Fe15  1  0.32417169  0.65987015  0.99217447  1
  Cr  Cr16  1  0.49264806  0.82585027  0.15749813  1
  Cr  Cr17  1  0.32585431  0.66046648  0.32370361  1
  Fe  Fe18  1  0.66149581  -0.00683914  0.99268447  1
  Cr  Cr19  1  0.82947409  0.15890481  0.15685905  1
  Cr  Cr20  1  0.65958736  0.99197321  0.32899830  1
  Cr  Cr21  1  0.66150292  0.32751788  -0.00627875  1
  Cr  Cr22  1  0.82771973  0.49169766  0.16057271  1
  Cr  Cr23  1  0.65928272  0.32727464  0.32739076  1
  Cr  Cr24  1  0.66033692  0.66122848  -0.00671933  1
  Cr  Cr25  1  0.82699569  0.82907691  0.16148160  1
  Cr  Cr26  1  0.66268849  0.66005231  0.32639875  1
  Cr  Cr27  1  0.15942548  0.15959649  0.49280488  1
  Cr  Cr28  1  -0.00603277  0.98940172  0.66137536  1
  Cr  Cr29  1  0.15741593  0.15920009  0.82757096  1
  Cr  Cr30  1  0.15986389  0.49515121  0.49559125  1
  Cr  Cr31  1  -0.00567729  0.32790989  0.66133553  1
  Cr  Cr32  1  0.16065595  0.49552502  0.82409997  1
  Cr  Cr33  1  0.15796155  0.82485938  0.49228211  1
  Fe  Fe34  1  -0.00607987  0.66191257  0.66100131  1
  Ni  Ni35  1  0.15892924  0.82479261  0.82600602  1
  Fe  Fe36  1  0.49239798  0.16019708  0.49368708  1
  Cr  Cr37  1  0.32553115  -0.00616424  0.65884947  1
  Cr  Cr38  1  0.49502986  0.15918513  0.82445355  1
  Cr  Cr39  1  0.49142314  0.49285301  0.49491429  1
  Fe  Fe40  1  0.32669585  0.32641994  0.65946706  1
  Cr  Cr41  1  0.49082692  0.49459846  0.82578720  1
  Cr  Cr42  1  0.49265942  0.82672766  0.49255158  1
  Fe  Fe43  1  0.32492156  0.66089221  0.66070051  1
  Cr  Cr44  1  0.49128160  0.82570976  0.82915453  1
  Cr  Cr45  1  0.82608213  0.15814723  0.49223004  1
  Cr  Cr46  1  0.65981893  0.99157293  0.65940688  1
  Cr  Cr47  1  0.82703252  0.15838519  0.83054661  1
  Cr  Cr48  1  0.82830488  0.49427614  0.49205234  1
  Cr  Cr49  1  0.65842057  0.32678418  0.65802657  1
  Cr  Cr50  1  0.82784498  0.49149472  0.82653655  1
  Fe  Fe51  1  0.82817047  0.82589052  0.49264412  1
  Cr  Cr52  1  0.66301091  0.66083927  0.65989834  1
  Fe  Fe53  1  0.82871790  0.82682297  0.82705665  1
" 