8984,Ni6Fe9Cr83_2,-205.572013283894, 198.510878436654,Ni6Fe9Cr83,"# generated using pymatgen
 data_Cr46Fe5Ni3
_symmetry_space_group_name_H-M   'P 1'
_cell_length_a   7.58499608
_cell_length_b   7.58499608
_cell_length_c   10.72680432
_cell_angle_alpha   90.00000000
_cell_angle_beta   90.00000000
_cell_angle_gamma   90.00000000
_symmetry_Int_Tables_number   1
_chemical_formula_structural   Cr46Fe5Ni3
_chemical_formula_sum   'Cr46 Fe5 Ni3'
_cell_volume   617.13628125
_cell_formula_units_Z   1
loop_
 _symmetry_equiv_pos_site_id
 _symmetry_equiv_pos_as_xyz
  1  'x, y, z'
loop_
 _atom_site_type_symbol
 _atom_site_label
 _atom_site_symmetry_multiplicity
 _atom_site_fract_x
 _atom_site_fract_y
 _atom_site_fract_z
 _atom_site_occupancy
  Cr  Cr0  1  -0.00750653  -0.00611942  0.99143149  1
  Cr  Cr1  1  0.15775589  0.15951553  0.15951496  1
  Cr  Cr2  1  0.99212171  0.99218116  0.32450458  1
  Ni  Ni3  1  -0.00671709  0.32429022  0.99193481  1
  Cr  Cr4  1  0.15914667  0.49168405  0.15779024  1
  Cr  Cr5  1  -0.00744055  0.32425679  0.32521536  1
  Cr  Cr6  1  -0.00579364  0.65942543  0.99116795  1
  Cr  Cr7  1  0.16027357  0.82547775  0.15929395  1
  Cr  Cr8  1  -0.00713606  0.66023867  0.32743588  1
  Cr  Cr9  1  0.32371564  0.99142945  0.99001057  1
  Cr  Cr10  1  0.49260159  0.15869445  0.16031887  1
  Fe  Fe11  1  0.32554083  -0.00776686  0.32551586  1
  Cr  Cr12  1  0.32483766  0.32740667  -0.00777002  1
  Ni  Ni13  1  0.49230312  0.49257584  0.15827385  1
  Cr  Cr14  1  0.32672214  0.32616599  0.32551762  1
  Fe  Fe15  1  0.32564498  0.65794891  -0.00724184  1
  Cr  Cr16  1  0.49141932  0.82496216  0.15907357  1
  Cr  Cr17  1  0.32613539  0.65804090  0.32378370  1
  Cr  Cr18  1  0.66046430  -0.00732191  -0.00670857  1
  Fe  Fe19  1  0.82596806  0.16017466  0.15804693  1
  Cr  Cr20  1  0.65958808  -0.00723148  0.32427106  1
  Cr  Cr21  1  0.65888224  0.32569724  -0.00596936  1
  Cr  Cr22  1  0.82580457  0.49049853  0.15792829  1
  Cr  Cr23  1  0.65739218  0.32542313  0.32445459  1
  Cr  Cr24  1  0.65643163  0.65829891  -0.00696388  1
  Cr  Cr25  1  0.82498325  0.82635330  0.15942205  1
  Cr  Cr26  1  0.65767685  0.65848393  0.32568538  1
  Cr  Cr27  1  0.16083611  0.15824881  0.49202564  1
  Cr  Cr28  1  -0.00580552  0.99171028  0.66074285  1
  Ni  Ni29  1  0.15858377  0.15786000  0.82551921  1
  Cr  Cr30  1  0.15737835  0.49181908  0.49146836  1
  Cr  Cr31  1  -0.00639463  0.32443651  0.65933091  1
  Cr  Cr32  1  0.15761742  0.49116649  0.82741510  1
  Cr  Cr33  1  0.16009219  0.82660671  0.49159366  1
  Cr  Cr34  1  -0.00725217  0.66053071  0.65807049  1
  Fe  Fe35  1  0.15958462  0.82724958  0.82555354  1
  Cr  Cr36  1  0.49052658  0.15690120  0.49297269  1
  Fe  Fe37  1  0.32435485  -0.00727116  0.66012814  1
  Cr  Cr38  1  0.49012959  0.15724435  0.82337885  1
  Cr  Cr39  1  0.49281057  0.49199506  0.49241328  1
  Cr  Cr40  1  0.32550954  0.32415370  0.65893276  1
  Cr  Cr41  1  0.49198897  0.49313417  0.82665600  1
  Cr  Cr42  1  0.49144791  0.82777656  0.49204661  1
  Cr  Cr43  1  0.32503112  0.65947544  0.66013949  1
  Cr  Cr44  1  0.49063893  0.82629472  0.82555020  1
  Cr  Cr45  1  0.82531226  0.15961498  0.49166964  1
  Cr  Cr46  1  0.65861583  0.99218802  0.65911522  1
  Cr  Cr47  1  0.82757404  0.16005434  0.82733531  1
  Cr  Cr48  1  0.82648593  0.49273745  0.49356925  1
  Cr  Cr49  1  0.65755798  0.32560156  0.65819298  1
  Cr  Cr50  1  0.82706692  0.49167751  0.82517710  1
  Cr  Cr51  1  0.82513616  0.82432227  0.49222450  1
  Cr  Cr52  1  0.65889400  0.65888580  0.65795602  1
  Cr  Cr53  1  0.82560653  0.82494551  0.82502797  1
" 