7501,Ni6Fe23Cr70_5,-211.03509559938, 198.861096377219,Ni6Fe23Cr70,"# generated using pymatgen
 data_Cr13Fe4Ni
_symmetry_space_group_name_H-M   'P 1'
_cell_length_a   7.56354797
_cell_length_b   7.56354797
_cell_length_c   10.69647212
_cell_angle_alpha   90.00000000
_cell_angle_beta   90.00000000
_cell_angle_gamma   90.00000000
_symmetry_Int_Tables_number   1
_chemical_formula_structural   Cr13Fe4Ni
_chemical_formula_sum   'Cr39 Fe12 Ni3'
_cell_volume   611.91583941
_cell_formula_units_Z   3
loop_
 _symmetry_equiv_pos_site_id
 _symmetry_equiv_pos_as_xyz
  1  'x, y, z'
loop_
 _atom_site_type_symbol
 _atom_site_label
 _atom_site_symmetry_multiplicity
 _atom_site_fract_x
 _atom_site_fract_y
 _atom_site_fract_z
 _atom_site_occupancy
  Cr  Cr0  1  0.99332417  0.99301096  0.99235518  1
  Cr  Cr1  1  0.16077462  0.16308636  0.15923244  1
  Cr  Cr2  1  -0.00469669  0.99247172  0.32732416  1
  Cr  Cr3  1  0.99083315  0.32798649  0.99213417  1
  Fe  Fe4  1  0.16179611  0.49497904  0.15917986  1
  Cr  Cr5  1  0.99329428  0.32850271  0.32663510  1
  Cr  Cr6  1  -0.00524629  0.66068271  -0.00017895  1
  Fe  Fe7  1  0.16337336  0.82677566  0.15905008  1
  Cr  Cr8  1  -0.00451453  0.66045353  0.32247814  1
  Cr  Cr9  1  0.32666163  0.99166829  0.99319131  1
  Fe  Fe10  1  0.49406971  0.15952259  0.16058259  1
  Cr  Cr11  1  0.32711049  0.99329766  0.32660562  1
  Cr  Cr12  1  0.32814792  0.32753534  -0.00448606  1
  Cr  Cr13  1  0.49292766  0.49499516  0.15886545  1
  Cr  Cr14  1  0.32823721  0.32766965  0.32767341  1
  Ni  Ni15  1  0.32747723  0.66025757  0.99348523  1
  Cr  Cr16  1  0.49531796  0.82536156  0.15857209  1
  Cr  Cr17  1  0.32591563  0.66033215  0.32815330  1
  Cr  Cr18  1  0.66038018  -0.00503222  -0.00600041  1
  Cr  Cr19  1  0.82558743  0.15969342  0.16074612  1
  Fe  Fe20  1  0.65939264  0.99318494  0.32615868  1
  Cr  Cr21  1  0.66123282  0.32736879  0.99121774  1
  Fe  Fe22  1  0.82448439  0.49331731  0.16007170  1
  Cr  Cr23  1  0.65900809  0.32625608  0.32611460  1
  Cr  Cr24  1  0.66077818  0.65879855  0.98749902  1
  Cr  Cr25  1  0.82396909  0.82612721  0.16326204  1
  Cr  Cr26  1  0.65990594  0.65772148  0.33134741  1
  Cr  Cr27  1  0.15901882  0.16049422  0.50029331  1
  Fe  Fe28  1  0.99143405  0.99234373  0.66173459  1
  Cr  Cr29  1  0.15880217  0.16151002  0.82119426  1
  Cr  Cr30  1  0.16120368  0.49203947  0.49267832  1
  Fe  Fe31  1  0.99068709  0.32961780  0.66199775  1
  Cr  Cr32  1  0.16190428  0.49315770  0.82905038  1
  Cr  Cr33  1  0.15995393  0.82844136  0.49545742  1
  Cr  Cr34  1  0.99244437  0.66086306  0.65847462  1
  Cr  Cr35  1  0.16141151  0.82601507  0.82764722  1
  Cr  Cr36  1  0.49402015  0.16011370  0.48864450  1
  Fe  Fe37  1  0.33002964  0.99234220  0.66120902  1
  Cr  Cr38  1  0.49163955  0.16043534  0.83024720  1
  Ni  Ni39  1  0.49560203  0.49430854  0.49647604  1
  Cr  Cr40  1  0.33014979  0.32705421  0.65723889  1
  Fe  Fe41  1  0.49254116  0.49620100  0.82598647  1
  Cr  Cr42  1  0.49598618  0.82512774  0.49564967  1
  Cr  Cr43  1  0.32897122  0.66018396  0.65995128  1
  Fe  Fe44  1  0.49236503  0.82488326  0.82651900  1
  Cr  Cr45  1  0.82813311  0.15961431  0.49480334  1
  Cr  Cr46  1  0.65918953  -0.00590181  0.66123481  1
  Fe  Fe47  1  0.82749638  0.16067961  0.82521940  1
  Cr  Cr48  1  0.82555362  0.49430768  0.49456992  1
  Cr  Cr49  1  0.65946203  0.32849982  0.66253988  1
  Fe  Fe50  1  0.82819404  0.49417076  0.82483799  1
  Cr  Cr51  1  0.82531394  0.82728306  0.49213790  1
  Ni  Ni52  1  0.65923860  0.65965835  0.66275846  1
  Cr  Cr53  1  0.82522921  0.82604866  0.82569588  1
" 