5843,Ni6Fe20Cr73_10,-210.211474195707, 196.854017284984,Ni6Fe20Cr73,"# generated using pymatgen
 data_Cr40Fe11Ni3
_symmetry_space_group_name_H-M   'P 1'
_cell_length_a   7.56569510
_cell_length_b   7.56569510
_cell_length_c   10.69950861
_cell_angle_alpha   90.00000000
_cell_angle_beta   90.00000000
_cell_angle_gamma   90.00000000
_symmetry_Int_Tables_number   1
_chemical_formula_structural   Cr40Fe11Ni3
_chemical_formula_sum   'Cr40 Fe11 Ni3'
_cell_volume   612.43711577
_cell_formula_units_Z   1
loop_
 _symmetry_equiv_pos_site_id
 _symmetry_equiv_pos_as_xyz
  1  'x, y, z'
loop_
 _atom_site_type_symbol
 _atom_site_label
 _atom_site_symmetry_multiplicity
 _atom_site_fract_x
 _atom_site_fract_y
 _atom_site_fract_z
 _atom_site_occupancy
  Fe  Fe0  1  -0.00471281  -0.00519388  0.99272324  1
  Cr  Cr1  1  0.16135537  0.15976082  0.16166226  1
  Cr  Cr2  1  -0.00492004  -0.00394787  0.32647656  1
  Cr  Cr3  1  -0.00532410  0.32586424  0.99111285  1
  Cr  Cr4  1  0.15952579  0.49485659  0.15804555  1
  Cr  Cr5  1  -0.00640515  0.32651112  0.33167880  1
  Fe  Fe6  1  -0.00573009  0.65685640  0.99162561  1
  Cr  Cr7  1  0.15755969  0.82513135  0.15956923  1
  Fe  Fe8  1  -0.00579028  0.65950987  0.32806831  1
  Cr  Cr9  1  0.32632306  -0.00603294  -0.00499001  1
  Cr  Cr10  1  0.49256917  0.16163097  0.15963022  1
  Fe  Fe11  1  0.32698440  0.99342288  0.32832844  1
  Ni  Ni12  1  0.32228620  0.32711392  0.99234331  1
  Cr  Cr13  1  0.49159143  0.49092729  0.15736364  1
  Cr  Cr14  1  0.32434442  0.32595183  0.32487659  1
  Cr  Cr15  1  0.32695600  0.65854613  0.98917416  1
  Cr  Cr16  1  0.49253486  0.82792528  0.16219356  1
  Cr  Cr17  1  0.32855719  0.66097795  0.32849723  1
  Cr  Cr18  1  0.66186874  0.99280145  0.99153921  1
  Cr  Cr19  1  0.82711727  0.15921174  0.15769996  1
  Cr  Cr20  1  0.66006451  0.99207292  0.32700627  1
  Cr  Cr21  1  0.66091195  0.32776780  -0.00571383  1
  Cr  Cr22  1  0.82973993  0.49522428  0.16393925  1
  Cr  Cr23  1  0.66208354  0.32808970  0.32583031  1
  Cr  Cr24  1  0.66020410  0.66063150  -0.00478456  1
  Cr  Cr25  1  0.83109077  0.82582881  0.15810600  1
  Cr  Cr26  1  0.66052191  0.65986233  0.32725548  1
  Fe  Fe27  1  0.16013157  0.16046544  0.49423189  1
  Cr  Cr28  1  0.99313796  -0.00262788  0.66281030  1
  Cr  Cr29  1  0.16113309  0.16050187  0.82690652  1
  Cr  Cr30  1  0.15929842  0.49436801  0.49532132  1
  Fe  Fe31  1  -0.00618098  0.32869802  0.66104442  1
  Ni  Ni32  1  0.15921510  0.49241513  0.82630135  1
  Cr  Cr33  1  0.16004835  0.82666637  0.49203843  1
  Cr  Cr34  1  -0.00534761  0.65933773  0.66036966  1
  Cr  Cr35  1  0.15893214  0.82388110  0.82812459  1
  Cr  Cr36  1  0.49322538  0.16016767  0.49259755  1
  Cr  Cr37  1  0.32598338  0.99119962  0.65587874  1
  Cr  Cr38  1  0.49552951  0.16160424  0.82704527  1
  Cr  Cr39  1  0.49329064  0.49122852  0.49526108  1
  Cr  Cr40  1  0.32280816  0.32753367  0.66213097  1
  Cr  Cr41  1  0.49102612  0.49120142  0.82714716  1
  Fe  Fe42  1  0.49314123  0.82589783  0.49456046  1
  Ni  Ni43  1  0.32626447  0.65837903  0.66084275  1
  Cr  Cr44  1  0.49325263  0.82753227  0.82174349  1
  Cr  Cr45  1  0.82547780  0.16170779  0.49864262  1
  Fe  Fe46  1  0.65990151  -0.00641002  0.66016805  1
  Fe  Fe47  1  0.82711943  0.16237184  0.82544808  1
  Fe  Fe48  1  0.82657370  0.49341481  0.49488675  1
  Fe  Fe49  1  0.66007946  0.32705175  0.66075770  1
  Cr  Cr50  1  0.82722448  0.49354600  0.82416087  1
  Cr  Cr51  1  0.82842282  0.82662309  0.49264068  1
  Cr  Cr52  1  0.65829294  0.66107697  0.65811240  1
  Cr  Cr53  1  0.82866322  0.82881798  0.82952203  1
" 