7551,Ni6Fe23Cr70_16,-210.558265320713, 192.592560008891,Ni6Fe23Cr70,"# generated using pymatgen
 data_Cr13Fe4Ni
_symmetry_space_group_name_H-M   'P 1'
_cell_length_a   7.55992255
_cell_length_b   7.55992255
_cell_length_c   10.69134500
_cell_angle_alpha   90.00000000
_cell_angle_beta   90.00000000
_cell_angle_gamma   90.00000000
_symmetry_Int_Tables_number   1
_chemical_formula_structural   Cr13Fe4Ni
_chemical_formula_sum   'Cr39 Fe12 Ni3'
_cell_volume   611.03633605
_cell_formula_units_Z   3
loop_
 _symmetry_equiv_pos_site_id
 _symmetry_equiv_pos_as_xyz
  1  'x, y, z'
loop_
 _atom_site_type_symbol
 _atom_site_label
 _atom_site_symmetry_multiplicity
 _atom_site_fract_x
 _atom_site_fract_y
 _atom_site_fract_z
 _atom_site_occupancy
  Ni  Ni0  1  -0.00304795  -0.00470740  -0.00461877  1
  Fe  Fe1  1  0.15944974  0.16131455  0.15915044  1
  Fe  Fe2  1  -0.00530796  -0.00477137  0.32684997  1
  Cr  Cr3  1  -0.00430873  0.32574072  0.99284756  1
  Ni  Ni4  1  0.16049683  0.49237563  0.16010151  1
  Cr  Cr5  1  -0.00562344  0.32567827  0.32690490  1
  Fe  Fe6  1  -0.00326755  0.65891299  -0.00550749  1
  Cr  Cr7  1  0.15718689  0.82642419  0.16219048  1
  Fe  Fe8  1  -0.00544057  0.65737259  0.32585750  1
  Cr  Cr9  1  0.32237228  -0.00481969  0.99235920  1
  Cr  Cr10  1  0.49263114  0.16283623  0.15890419  1
  Cr  Cr11  1  0.32484455  -0.00592956  0.32798862  1
  Ni  Ni12  1  0.32152054  0.32874920  -0.00433409  1
  Fe  Fe13  1  0.49177905  0.49318073  0.15934006  1
  Cr  Cr14  1  0.32469439  0.32821460  0.32372971  1
  Cr  Cr15  1  0.32661465  0.65922181  -0.00350339  1
  Cr  Cr16  1  0.49465832  0.82993521  0.15940515  1
  Cr  Cr17  1  0.32610882  0.65966436  0.32501067  1
  Cr  Cr18  1  0.66220072  0.99373570  0.99202846  1
  Cr  Cr19  1  0.82788568  0.15813673  0.16171363  1
  Cr  Cr20  1  0.66106502  -0.00452983  0.33135367  1
  Cr  Cr21  1  0.66179943  0.32968230  -0.00432636  1
  Cr  Cr22  1  0.83073602  0.49457790  0.15943523  1
  Cr  Cr23  1  0.66279151  0.32778671  0.32771018  1
  Cr  Cr24  1  0.66105617  0.65878548  0.99290092  1
  Cr  Cr25  1  0.82951137  0.82823440  0.16034018  1
  Cr  Cr26  1  0.65924309  0.65906560  0.32544643  1
  Cr  Cr27  1  0.16140901  0.16262387  0.49497573  1
  Cr  Cr28  1  -0.00548616  -0.00319221  0.66061452  1
  Fe  Fe29  1  0.16028859  0.16126673  0.82783523  1
  Cr  Cr30  1  0.15971312  0.49374214  0.49616390  1
  Fe  Fe31  1  -0.00509830  0.32706476  0.66160828  1
  Cr  Cr32  1  0.15940604  0.49209032  0.82340970  1
  Cr  Cr33  1  0.15752100  0.82538671  0.49194940  1
  Fe  Fe34  1  0.99227018  0.66125252  0.66125781  1
  Cr  Cr35  1  0.15791302  0.82555667  0.82758148  1
  Fe  Fe36  1  0.49274378  0.16203409  0.49414268  1
  Cr  Cr37  1  0.32525541  -0.00607580  0.66099059  1
  Cr  Cr38  1  0.49188016  0.16306253  0.82726490  1
  Cr  Cr39  1  0.49203318  0.49042827  0.49330498  1
  Fe  Fe40  1  0.32722622  0.32570573  0.66115035  1
  Cr  Cr41  1  0.49136217  0.49036297  0.82880173  1
  Cr  Cr42  1  0.49361208  0.82751087  0.49454447  1
  Cr  Cr43  1  0.32675717  0.66161466  0.65935962  1
  Cr  Cr44  1  0.49349126  0.82836497  0.82753979  1
  Fe  Fe45  1  0.82956131  0.16114748  0.49378136  1
  Cr  Cr46  1  0.66126183  -0.00570872  0.65832217  1
  Cr  Cr47  1  0.82804354  0.16086626  0.82813783  1
  Cr  Cr48  1  0.83009409  0.49445672  0.49584147  1
  Cr  Cr49  1  0.66501312  0.32719571  0.65863481  1
  Fe  Fe50  1  0.82886886  0.49360940  0.82693225  1
  Cr  Cr51  1  0.82985270  0.82670223  0.49083588  1
  Cr  Cr52  1  0.66111070  0.65968948  0.66336964  1
  Cr  Cr53  1  0.83054628  0.82667396  0.83067121  1
" 