9002,Ni6Fe9Cr83_6,-205.506460377808, 197.731703483328,Ni6Fe9Cr83,"# generated using pymatgen
 data_Cr46Fe5Ni3
_symmetry_space_group_name_H-M   'P 1'
_cell_length_a   7.58449426
_cell_length_b   7.58449426
_cell_length_c   10.72609465
_cell_angle_alpha   90.00000000
_cell_angle_beta   90.00000000
_cell_angle_gamma   90.00000000
_symmetry_Int_Tables_number   1
_chemical_formula_structural   Cr46Fe5Ni3
_chemical_formula_sum   'Cr46 Fe5 Ni3'
_cell_volume   617.01380240
_cell_formula_units_Z   1
loop_
 _symmetry_equiv_pos_site_id
 _symmetry_equiv_pos_as_xyz
  1  'x, y, z'
loop_
 _atom_site_type_symbol
 _atom_site_label
 _atom_site_symmetry_multiplicity
 _atom_site_fract_x
 _atom_site_fract_y
 _atom_site_fract_z
 _atom_site_occupancy
  Cr  Cr0  1  0.99204914  0.99191765  0.99177375  1
  Cr  Cr1  1  0.16018771  0.15805428  0.15806706  1
  Cr  Cr2  1  0.99122129  -0.00754523  0.32475363  1
  Cr  Cr3  1  -0.00656838  0.32568510  -0.00481299  1
  Ni  Ni4  1  0.15804848  0.49397652  0.16236849  1
  Cr  Cr5  1  -0.00631478  0.32751889  0.32490900  1
  Cr  Cr6  1  -0.00485749  0.65912026  -0.00760645  1
  Cr  Cr7  1  0.15891881  0.82438710  0.16115355  1
  Ni  Ni8  1  -0.00275047  0.65719230  0.32547875  1
  Cr  Cr9  1  0.32559506  0.98956026  0.98980908  1
  Cr  Cr10  1  0.49068095  0.15842600  0.15986665  1
  Fe  Fe11  1  0.32447479  0.99160448  0.32546249  1
  Cr  Cr12  1  0.32376832  0.32764458  -0.00693338  1
  Cr  Cr13  1  0.49081487  0.49279223  0.15840713  1
  Cr  Cr14  1  0.32368535  0.32804493  0.32601813  1
  Cr  Cr15  1  0.32441987  0.65939179  0.99131538  1
  Cr  Cr16  1  0.49014240  0.82557237  0.16064505  1
  Fe  Fe17  1  0.32240380  0.65758136  0.32490299  1
  Cr  Cr18  1  0.65925433  0.99153193  -0.00675007  1
  Fe  Fe19  1  0.82665389  0.15909722  0.15925154  1
  Cr  Cr20  1  0.65895061  -0.00711074  0.32500176  1
  Cr  Cr21  1  0.65967811  0.32434717  -0.00518751  1
  Cr  Cr22  1  0.82686948  0.49408842  0.15808770  1
  Cr  Cr23  1  0.65958300  0.32443125  0.32469315  1
  Cr  Cr24  1  0.65695263  0.66104711  0.99033906  1
  Cr  Cr25  1  0.82726802  0.82402985  0.16024511  1
  Cr  Cr26  1  0.65899482  0.65938481  0.32592314  1
  Cr  Cr27  1  0.16052166  0.15750284  0.49338459  1
  Cr  Cr28  1  -0.00708992  0.99115244  0.66037299  1
  Cr  Cr29  1  0.15952074  0.15699549  0.82511938  1
  Fe  Fe30  1  0.15863057  0.49442385  0.48993550  1
  Cr  Cr31  1  -0.00590868  0.32632320  0.65716945  1
  Cr  Cr32  1  0.15825414  0.49263188  0.82572002  1
  Cr  Cr33  1  0.15877644  0.82497279  0.48898461  1
  Cr  Cr34  1  -0.00507394  0.65933507  0.65844308  1
  Ni  Ni35  1  0.16024250  0.82549765  0.82563198  1
  Cr  Cr36  1  0.48993417  0.15852681  0.49179891  1
  Cr  Cr37  1  0.32556729  0.98967815  0.66079098  1
  Cr  Cr38  1  0.49126097  0.15987502  0.82501918  1
  Cr  Cr39  1  0.49156452  0.49264110  0.49200275  1
  Cr  Cr40  1  0.32409170  0.32751382  0.65785110  1
  Cr  Cr41  1  0.49364686  0.49158976  0.82617144  1
  Cr  Cr42  1  0.48997732  0.82562248  0.48998189  1
  Cr  Cr43  1  0.32485418  0.65958627  0.66021262  1
  Fe  Fe44  1  0.49043005  0.82578615  0.82565957  1
  Cr  Cr45  1  0.82615502  0.15901141  0.49302558  1
  Cr  Cr46  1  0.65829769  0.99057623  0.65875571  1
  Cr  Cr47  1  0.82597106  0.16010942  0.82594293  1
  Cr  Cr48  1  0.82666400  0.49446006  0.49329320  1
  Cr  Cr49  1  0.65860308  0.32535592  0.65749130  1
  Cr  Cr50  1  0.82483001  0.49247221  0.82514250  1
  Cr  Cr51  1  0.82759922  0.82335604  0.49144446  1
  Cr  Cr52  1  0.65685219  0.66092378  0.66035265  1
  Cr  Cr53  1  0.82760483  0.82421054  0.82502175  1
" 