1241,Ni6Fe61Cr31_4,-221.404828223655, 164.612756819779,Ni6Fe61Cr31,"# generated using pymatgen
 data_Cr6Fe11Ni
_symmetry_space_group_name_H-M   'P 1'
_cell_length_a   7.49269101
_cell_length_b   7.49269101
_cell_length_c   10.59626525
_cell_angle_alpha   90.00000000
_cell_angle_beta   90.00000000
_cell_angle_gamma   90.00000000
_symmetry_Int_Tables_number   1
_chemical_formula_structural   Cr6Fe11Ni
_chemical_formula_sum   'Cr18 Fe33 Ni3'
_cell_volume   594.87876643
_cell_formula_units_Z   3
loop_
 _symmetry_equiv_pos_site_id
 _symmetry_equiv_pos_as_xyz
  1  'x, y, z'
loop_
 _atom_site_type_symbol
 _atom_site_label
 _atom_site_symmetry_multiplicity
 _atom_site_fract_x
 _atom_site_fract_y
 _atom_site_fract_z
 _atom_site_occupancy
  Fe  Fe0  1  0.99797307  -0.00068241  -0.00002934  1
  Fe  Fe1  1  0.16704261  0.16442534  0.16644633  1
  Fe  Fe2  1  0.99735746  0.00119229  0.33033437  1
  Fe  Fe3  1  0.99653578  0.33023348  -0.00038492  1
  Cr  Cr4  1  0.16416893  0.49616292  0.16496499  1
  Fe  Fe5  1  0.99772386  0.33059618  0.33187979  1
  Fe  Fe6  1  -0.00118602  0.66505852  -0.00005973  1
  Fe  Fe7  1  0.16692615  0.83529680  0.16624324  1
  Cr  Cr8  1  0.99780034  0.66413282  0.33120352  1
  Fe  Fe9  1  0.33428017  -0.00133748  0.00025096  1
  Ni  Ni10  1  0.49824882  0.16446315  0.16622193  1
  Fe  Fe11  1  0.33254355  -0.00024846  0.32897108  1
  Cr  Cr12  1  0.33242218  0.33136440  0.99555663  1
  Cr  Cr13  1  0.50099328  0.49562449  0.16778203  1
  Ni  Ni14  1  0.33332917  0.33053305  0.33386314  1
  Cr  Cr15  1  0.33161080  0.66673297  0.00081447  1
  Fe  Fe16  1  0.49762917  0.83456184  0.16812850  1
  Fe  Fe17  1  0.33269678  0.66219790  0.33119456  1
  Fe  Fe18  1  0.66260302  0.00100073  -0.00122971  1
  Fe  Fe19  1  0.83002982  0.16702443  0.16520294  1
  Fe  Fe20  1  0.66460969  0.00119015  0.33040090  1
  Fe  Fe21  1  0.66464542  0.32838917  -0.00050576  1
  Fe  Fe22  1  0.83104212  0.49397672  0.16463462  1
  Fe  Fe23  1  0.66473365  0.33064634  0.33322471  1
  Cr  Cr24  1  0.66316250  0.66581571  0.00016325  1
  Cr  Cr25  1  0.83111318  0.83149009  0.16478348  1
  Fe  Fe26  1  0.66423494  0.66215413  0.33176565  1
  Cr  Cr27  1  0.16575669  0.16550489  0.49598721  1
  Cr  Cr28  1  0.99390684  0.99751499  0.66198708  1
  Cr  Cr29  1  0.16475963  0.16528395  0.83176809  1
  Fe  Fe30  1  0.16980660  0.49926772  0.49648147  1
  Cr  Cr31  1  -0.00108171  0.33353064  0.66169087  1
  Fe  Fe32  1  0.16474088  0.49946514  0.83101988  1
  Cr  Cr33  1  0.16482039  0.83269773  0.49705038  1
  Fe  Fe34  1  0.99612116  0.66440412  0.66361062  1
  Cr  Cr35  1  0.16379770  0.83171126  0.83179459  1
  Fe  Fe36  1  0.49897149  0.16595552  0.49486721  1
  Cr  Cr37  1  0.33495488  0.00052163  0.66565865  1
  Fe  Fe38  1  0.50094672  0.16449872  0.83417489  1
  Ni  Ni39  1  0.50061317  0.49733428  0.49860277  1
  Fe  Fe40  1  0.33295238  0.33387292  0.66351386  1
  Fe  Fe41  1  0.49622674  0.49945079  0.82950981  1
  Cr  Cr42  1  0.49906559  0.82994798  0.49505241  1
  Fe  Fe43  1  0.33294526  0.66223702  0.66462339  1
  Fe  Fe44  1  0.49942064  0.83090367  0.83189664  1
  Fe  Fe45  1  0.82855638  0.16542703  0.49475353  1
  Cr  Cr46  1  0.66580089  0.99744795  0.66542410  1
  Fe  Fe47  1  0.83158897  0.16412878  0.83409624  1
  Fe  Fe48  1  0.82956755  0.49934487  0.49741676  1
  Cr  Cr49  1  0.66335367  0.32938958  0.66477252  1
  Cr  Cr50  1  0.83022707  0.49863228  0.83551217  1
  Fe  Fe51  1  0.82923514  0.82996650  0.49568435  1
  Fe  Fe52  1  0.66537469  0.66417323  0.66491856  1
  Fe  Fe53  1  0.83089387  0.83298526  0.83390407  1
" 