3444,Ni6Fe20Cr73_9,-210.124514092027, 194.292387258906,Ni6Fe20Cr73,"# generated using pymatgen
 data_Cr40Fe11Ni3
_symmetry_space_group_name_H-M   'P 1'
_cell_length_a   7.56709758
_cell_length_b   7.56709758
_cell_length_c   10.70149203
_cell_angle_alpha   90.00000000
_cell_angle_beta   90.00000000
_cell_angle_gamma   90.00000000
_symmetry_Int_Tables_number   1
_chemical_formula_structural   Cr40Fe11Ni3
_chemical_formula_sum   'Cr40 Fe11 Ni3'
_cell_volume   612.77776894
_cell_formula_units_Z   1
loop_
 _symmetry_equiv_pos_site_id
 _symmetry_equiv_pos_as_xyz
  1  'x, y, z'
loop_
 _atom_site_type_symbol
 _atom_site_label
 _atom_site_symmetry_multiplicity
 _atom_site_fract_x
 _atom_site_fract_y
 _atom_site_fract_z
 _atom_site_occupancy
  Cr  Cr0  1  -0.00515338  0.99216023  0.98928533  1
  Cr  Cr1  1  0.16098419  0.15958203  0.15657269  1
  Cr  Cr2  1  0.99285685  0.99194425  0.32604166  1
  Cr  Cr3  1  -0.00608332  0.32526467  -0.00649682  1
  Cr  Cr4  1  0.15922803  0.49232387  0.16279134  1
  Fe  Fe5  1  -0.00633870  0.32648559  0.32836829  1
  Cr  Cr6  1  0.99113489  0.66306275  -0.00595062  1
  Cr  Cr7  1  0.16010735  0.82782812  0.15945353  1
  Cr  Cr8  1  -0.00593791  0.66142404  0.32506923  1
  Fe  Fe9  1  0.32691551  0.99170764  0.99192658  1
  Cr  Cr10  1  0.49179932  0.15791828  0.15796537  1
  Cr  Cr11  1  0.32716925  0.99222647  0.32696556  1
  Fe  Fe12  1  0.32541076  0.32670011  0.99215707  1
  Cr  Cr13  1  0.49292838  0.49434152  0.15553320  1
  Cr  Cr14  1  0.32745829  0.32778463  0.32520647  1
  Cr  Cr15  1  0.32600239  0.66047357  -0.00585193  1
  Cr  Cr16  1  0.49443143  0.82745606  0.16161435  1
  Cr  Cr17  1  0.32599532  0.66031732  0.33244293  1
  Cr  Cr18  1  0.66280279  0.99243018  -0.00476761  1
  Cr  Cr19  1  0.82790979  0.15855836  0.16543806  1
  Fe  Fe20  1  0.66111520  0.99173124  0.32727078  1
  Cr  Cr21  1  0.65926022  0.32772165  0.99226609  1
  Cr  Cr22  1  0.82719818  0.49514020  0.15880004  1
  Cr  Cr23  1  0.65948473  0.32560271  0.32843825  1
  Ni  Ni24  1  0.65954056  0.66400538  -0.00653229  1
  Ni  Ni25  1  0.82569801  0.82746603  0.15782508  1
  Cr  Cr26  1  0.65964790  0.66065055  0.32326613  1
  Cr  Cr27  1  0.15817950  0.15986952  0.49253131  1
  Cr  Cr28  1  -0.00558390  0.99169861  0.66396484  1
  Fe  Fe29  1  0.16158550  0.15988402  0.82772689  1
  Fe  Fe30  1  0.15890829  0.49332673  0.49392024  1
  Cr  Cr31  1  0.99310196  0.32556050  0.65755641  1
  Cr  Cr32  1  0.15967487  0.49356569  0.82554759  1
  Fe  Fe33  1  0.15928453  0.82708146  0.49433300  1
  Cr  Cr34  1  -0.00391650  0.66309907  0.66137899  1
  Fe  Fe35  1  0.16164681  0.82640106  0.82776927  1
  Cr  Cr36  1  0.49462776  0.15715780  0.49239855  1
  Cr  Cr37  1  0.32449422  0.99133150  0.66044312  1
  Cr  Cr38  1  0.49092096  0.15787638  0.82921267  1
  Cr  Cr39  1  0.49213556  0.49654633  0.49738233  1
  Cr  Cr40  1  0.32719624  0.32680113  0.66153669  1
  Cr  Cr41  1  0.49314676  0.49526927  0.82815722  1
  Fe  Fe42  1  0.49395819  0.82719800  0.49390914  1
  Fe  Fe43  1  0.32514817  0.66179902  0.65911423  1
  Cr  Cr44  1  0.49319794  0.82692454  0.82584784  1
  Ni  Ni45  1  0.82936112  0.15719087  0.49115519  1
  Cr  Cr46  1  0.66083840  -0.00565075  0.65677575  1
  Cr  Cr47  1  0.82742730  0.15940587  0.82284430  1
  Cr  Cr48  1  0.82889352  0.49258006  0.49345223  1
  Cr  Cr49  1  0.65965570  0.32549775  0.65973368  1
  Cr  Cr50  1  0.82698876  0.49604650  0.82763301  1
  Cr  Cr51  1  0.82608546  0.82746117  0.49295064  1
  Cr  Cr52  1  0.65986924  0.66071879  0.66254769  1
  Fe  Fe53  1  0.82462147  0.82606550  0.82809225  1
" 