1321,Ni6Fe17Cr75_17,-208.338408633546, 195.15206371111,Ni6Fe17Cr75,"# generated using pymatgen
 data_Cr14Fe3Ni
_symmetry_space_group_name_H-M   'P 1'
_cell_length_a   7.57018546
_cell_length_b   7.57018546
_cell_length_c   10.70585895
_cell_angle_alpha   90.00000000
_cell_angle_beta   90.00000000
_cell_angle_gamma   90.00000000
_symmetry_Int_Tables_number   1
_chemical_formula_structural   Cr14Fe3Ni
_chemical_formula_sum   'Cr42 Fe9 Ni3'
_cell_volume   613.52823833
_cell_formula_units_Z   3
loop_
 _symmetry_equiv_pos_site_id
 _symmetry_equiv_pos_as_xyz
  1  'x, y, z'
loop_
 _atom_site_type_symbol
 _atom_site_label
 _atom_site_symmetry_multiplicity
 _atom_site_fract_x
 _atom_site_fract_y
 _atom_site_fract_z
 _atom_site_occupancy
  Cr  Cr0  1  0.99091965  -0.00648196  -0.00589866  1
  Cr  Cr1  1  0.16061016  0.15993055  0.16026454  1
  Cr  Cr2  1  0.99067778  0.99122284  0.32640511  1
  Cr  Cr3  1  0.99206338  0.32712056  0.99081930  1
  Cr  Cr4  1  0.16034528  0.49391449  0.16305377  1
  Cr  Cr5  1  -0.00485483  0.32741948  0.32578340  1
  Cr  Cr6  1  0.99156228  0.65896864  0.99225507  1
  Cr  Cr7  1  0.15819350  0.82580631  0.15957792  1
  Fe  Fe8  1  0.98984823  0.66186377  0.32595581  1
  Cr  Cr9  1  0.32832103  0.99165186  0.99313765  1
  Cr  Cr10  1  0.49263845  0.16012322  0.16101817  1
  Cr  Cr11  1  0.32800642  0.99257454  0.32610814  1
  Cr  Cr12  1  0.32597090  0.32788773  -0.00467086  1
  Cr  Cr13  1  0.49433299  0.49511646  0.16157470  1
  Fe  Fe14  1  0.32757634  0.32777611  0.32663146  1
  Cr  Cr15  1  0.32898691  0.66004916  0.99309364  1
  Fe  Fe16  1  0.49615014  0.82417305  0.16095326  1
  Fe  Fe17  1  0.32851753  0.66007738  0.32618785  1
  Cr  Cr18  1  0.66031571  0.99059494  -0.00305412  1
  Cr  Cr19  1  0.82641608  0.15835362  0.15849996  1
  Cr  Cr20  1  0.66086396  0.98904031  0.32514453  1
  Cr  Cr21  1  0.66156785  0.32725799  0.98950244  1
  Cr  Cr22  1  0.82507767  0.49708772  0.15963693  1
  Cr  Cr23  1  0.65882673  0.32728099  0.32829148  1
  Fe  Fe24  1  0.66156137  0.66033643  -0.00567385  1
  Ni  Ni25  1  0.82388543  0.82327451  0.16216217  1
  Ni  Ni26  1  0.65971362  0.66216882  0.32457408  1
  Cr  Cr27  1  0.16120753  0.15862311  0.49265280  1
  Cr  Cr28  1  0.99192930  -0.00666683  0.65914682  1
  Cr  Cr29  1  0.15993373  0.15724861  0.82667835  1
  Cr  Cr30  1  0.15980914  0.49488471  0.48898180  1
  Cr  Cr31  1  0.99096788  0.32729343  0.66289392  1
  Cr  Cr32  1  0.15767506  0.49413122  0.82740225  1
  Cr  Cr33  1  0.15842664  0.82626795  0.49504641  1
  Cr  Cr34  1  0.99251519  0.65893546  0.65900213  1
  Cr  Cr35  1  0.16039917  0.82826164  0.82457319  1
  Cr  Cr36  1  0.49308514  0.16058858  0.49494197  1
  Fe  Fe37  1  0.32655647  0.99307358  0.65969695  1
  Cr  Cr38  1  0.49424038  0.15942404  0.82359223  1
  Cr  Cr39  1  0.49473872  0.49300702  0.49163452  1
  Cr  Cr40  1  0.32713277  0.32731730  0.65860631  1
  Cr  Cr41  1  0.49770310  0.49312281  0.82641421  1
  Cr  Cr42  1  0.49358721  0.82598471  0.49348108  1
  Cr  Cr43  1  0.32669125  0.66014617  0.66060573  1
  Cr  Cr44  1  0.49275023  0.82708103  0.82753345  1
  Cr  Cr45  1  0.82533382  0.15986315  0.49479377  1
  Cr  Cr46  1  0.66006396  -0.00605500  0.65799691  1
  Fe  Fe47  1  0.82564873  0.16160692  0.82593502  1
  Cr  Cr48  1  0.82514152  0.49564638  0.49256523  1
  Fe  Fe49  1  0.66170859  0.32753086  0.66133719  1
  Ni  Ni50  1  0.82432218  0.49178996  0.82641593  1
  Fe  Fe51  1  0.82561484  0.82468566  0.49090339  1
  Cr  Cr52  1  0.66034248  0.65915931  0.66052276  1
  Cr  Cr53  1  0.82652652  0.82460478  0.82745792  1
" 