82,Ni6Fe9Cr83_16,-205.412031788202, 196.075900759991,Ni6Fe9Cr83,"# generated using pymatgen
 data_Cr46Fe5Ni3
_symmetry_space_group_name_H-M   'P 1'
_cell_length_a   7.58757446
_cell_length_b   7.58757446
_cell_length_c   10.73045071
_cell_angle_alpha   90.00000000
_cell_angle_beta   90.00000000
_cell_angle_gamma   90.00000000
_symmetry_Int_Tables_number   1
_chemical_formula_structural   Cr46Fe5Ni3
_chemical_formula_sum   'Cr46 Fe5 Ni3'
_cell_volume   617.76584977
_cell_formula_units_Z   1
loop_
 _symmetry_equiv_pos_site_id
 _symmetry_equiv_pos_as_xyz
  1  'x, y, z'
loop_
 _atom_site_type_symbol
 _atom_site_label
 _atom_site_symmetry_multiplicity
 _atom_site_fract_x
 _atom_site_fract_y
 _atom_site_fract_z
 _atom_site_occupancy
  Cr  Cr0  1  -0.00628188  -0.00755045  -0.00643061  1
  Fe  Fe1  1  0.15872341  0.15808740  0.15872205  1
  Cr  Cr2  1  -0.00669875  0.99151300  0.32311293  1
  Cr  Cr3  1  0.99177861  0.32478669  -0.00767422  1
  Cr  Cr4  1  0.15872817  0.49373222  0.16045747  1
  Cr  Cr5  1  -0.00642482  0.32656252  0.32627323  1
  Cr  Cr6  1  0.99132345  0.65893921  -0.00771325  1
  Fe  Fe7  1  0.15872316  0.82539339  0.15937088  1
  Fe  Fe8  1  -0.00610739  0.65819794  0.32588930  1
  Cr  Cr9  1  0.32408200  -0.00755048  -0.00602549  1
  Cr  Cr10  1  0.49197682  0.15930986  0.15790103  1
  Cr  Cr11  1  0.32449900  0.99151042  0.32270681  1
  Cr  Cr12  1  0.32542985  0.32419713  0.99173428  1
  Cr  Cr13  1  0.49180986  0.49162827  0.15793640  1
  Cr  Cr14  1  0.32363526  0.32597061  0.32686536  1
  Cr  Cr15  1  0.32588729  0.65952897  0.99169527  1
  Cr  Cr16  1  0.48988066  0.82523052  0.15959683  1
  Fe  Fe17  1  0.32355080  0.65821178  0.32590500  1
  Cr  Cr18  1  0.65837306  0.99198570  -0.00779199  1
  Cr  Cr19  1  0.82547220  0.15930392  0.15790054  1
  Cr  Cr20  1  0.65837343  0.99103320  0.32633603  1
  Fe  Fe21  1  0.65872999  0.32538635  -0.00791362  1
  Cr  Cr22  1  0.82563474  0.49162964  0.15793779  1
  Cr  Cr23  1  0.65896206  0.32617399  0.32502244  1
  Cr  Cr24  1  0.65896208  0.65758607  0.99093320  1
  Cr  Cr25  1  0.82756947  0.82523594  0.15959752  1
  Cr  Cr26  1  0.65896350  0.65896586  0.32574708  1
  Cr  Cr27  1  0.15791148  0.15981063  0.49345320  1
  Ni  Ni28  1  0.98989986  -0.00787028  0.65895180  1
  Cr  Cr29  1  0.15790880  0.15791440  0.82476410  1
  Ni  Ni30  1  0.15887893  0.49342264  0.49068416  1
  Cr  Cr31  1  -0.00642958  0.32493292  0.65757593  1
  Cr  Cr32  1  0.15907624  0.49247401  0.82444834  1
  Cr  Cr33  1  0.15791564  0.82302749  0.49134969  1
  Cr  Cr34  1  -0.00793964  0.65876352  0.65836306  1
  Cr  Cr35  1  0.15790949  0.82578331  0.82518593  1
  Cr  Cr36  1  0.49331487  0.15797376  0.49300236  1
  Cr  Cr37  1  0.32573991  -0.00752732  0.65949386  1
  Cr  Cr38  1  0.49335994  0.15881264  0.82527150  1
  Cr  Cr39  1  0.48925342  0.49228006  0.49080504  1
  Cr  Cr40  1  0.32382935  0.32602723  0.65757473  1
  Cr  Cr41  1  0.49202600  0.49140319  0.82743007  1
  Cr  Cr42  1  0.49225996  0.82592099  0.49237264  1
  Cr  Cr43  1  0.32533912  0.65767255  0.65836223  1
  Cr  Cr44  1  0.49229453  0.82595594  0.82420556  1
  Cr  Cr45  1  0.82494803  0.15681344  0.49416478  1
  Ni  Ni46  1  0.66073183  0.99177040  0.65843602  1
  Cr  Cr47  1  0.82490501  0.15764983  0.82410704  1
  Cr  Cr48  1  0.82784120  0.49227980  0.49044966  1
  Cr  Cr49  1  0.65877204  0.32453824  0.65870833  1
  Cr  Cr50  1  0.82506942  0.49140201  0.82778688  1
  Cr  Cr51  1  0.82599817  0.82708281  0.49353627  1
  Cr  Cr52  1  0.65877214  0.66067934  0.65949399  1
  Cr  Cr53  1  0.82596911  0.82711805  0.82304184  1
" 