6346,Ni6Fe17Cr75_13,-208.442276035122, 194.77268034278,Ni6Fe17Cr75,"# generated using pymatgen
 data_Cr14Fe3Ni
_symmetry_space_group_name_H-M   'P 1'
_cell_length_a   7.57581923
_cell_length_b   7.57581923
_cell_length_c   10.71382630
_cell_angle_alpha   90.00000000
_cell_angle_beta   90.00000000
_cell_angle_gamma   90.00000000
_symmetry_Int_Tables_number   1
_chemical_formula_structural   Cr14Fe3Ni
_chemical_formula_sum   'Cr42 Fe9 Ni3'
_cell_volume   614.89902870
_cell_formula_units_Z   3
loop_
 _symmetry_equiv_pos_site_id
 _symmetry_equiv_pos_as_xyz
  1  'x, y, z'
loop_
 _atom_site_type_symbol
 _atom_site_label
 _atom_site_symmetry_multiplicity
 _atom_site_fract_x
 _atom_site_fract_y
 _atom_site_fract_z
 _atom_site_occupancy
  Cr  Cr0  1  -0.00615162  -0.00610703  0.99157200  1
  Fe  Fe1  1  0.15816351  0.16156789  0.16002325  1
  Cr  Cr2  1  -0.00647064  -0.00484861  0.32733504  1
  Fe  Fe3  1  -0.00601594  0.32653723  -0.00710119  1
  Fe  Fe4  1  0.15817801  0.49073492  0.16005899  1
  Ni  Ni5  1  -0.00569241  0.32627016  0.32542136  1
  Cr  Cr6  1  -0.00668621  0.65746504  0.99104838  1
  Cr  Cr7  1  0.15968385  0.82506674  0.15957968  1
  Cr  Cr8  1  0.99172236  0.65672531  0.32679736  1
  Cr  Cr9  1  0.32500208  -0.00578059  0.99173836  1
  Cr  Cr10  1  0.49263801  0.15962315  0.15870835  1
  Cr  Cr11  1  0.32540505  -0.00522980  0.32688234  1
  Cr  Cr12  1  0.32334584  0.32594973  -0.00642758  1
  Cr  Cr13  1  0.49034520  0.49294333  0.15973728  1
  Cr  Cr14  1  0.32303932  0.32532243  0.32534187  1
  Cr  Cr15  1  0.32437703  0.65829261  -0.00716445  1
  Cr  Cr16  1  0.49212673  0.82589725  0.15945081  1
  Cr  Cr17  1  0.32593982  0.65837092  0.32470119  1
  Cr  Cr18  1  0.65961446  -0.00713752  -0.00517338  1
  Cr  Cr19  1  0.82854947  0.16056529  0.15901755  1
  Cr  Cr20  1  0.65952916  0.99224896  0.32456983  1
  Cr  Cr21  1  0.66044124  0.32648535  0.99178608  1
  Cr  Cr22  1  0.82937191  0.49053934  0.15948183  1
  Cr  Cr23  1  0.66117575  0.32712811  0.32791686  1
  Cr  Cr24  1  0.66076805  0.65911938  -0.00675041  1
  Cr  Cr25  1  0.82665250  0.82735838  0.15973664  1
  Cr  Cr26  1  0.66079826  0.65908924  0.32671890  1
  Fe  Fe27  1  0.15806696  0.16093002  0.49191355  1
  Cr  Cr28  1  -0.00506845  -0.00701958  0.65955978  1
  Fe  Fe29  1  0.15915533  0.15982440  0.82652565  1
  Cr  Cr30  1  0.15779700  0.49180408  0.49018824  1
  Cr  Cr31  1  0.99219228  0.32706776  0.65980787  1
  Fe  Fe32  1  0.15837044  0.49240917  0.82650549  1
  Cr  Cr33  1  0.15944430  0.82678067  0.49353152  1
  Cr  Cr34  1  0.99013850  0.65842007  0.66061449  1
  Fe  Fe35  1  0.15952487  0.82622770  0.82617761  1
  Cr  Cr36  1  0.49269706  0.16060659  0.49427043  1
  Cr  Cr37  1  0.32424184  -0.00556180  0.65984566  1
  Cr  Cr38  1  0.49297201  0.16068943  0.82548663  1
  Cr  Cr39  1  0.49467992  0.49268276  0.49470374  1
  Cr  Cr40  1  0.32603290  0.32465974  0.65954363  1
  Cr  Cr41  1  0.49308859  0.49271981  0.82402582  1
  Cr  Cr42  1  0.49231274  0.82517630  0.49316573  1
  Cr  Cr43  1  0.32661862  0.65936771  0.66092157  1
  Cr  Cr44  1  0.49140175  0.82505644  0.82584967  1
  Cr  Cr45  1  0.82758805  0.16225224  0.49217705  1
  Cr  Cr46  1  0.65929145  0.99238280  0.65906558  1
  Cr  Cr47  1  0.82728836  0.16152657  0.82726744  1
  Ni  Ni48  1  0.82634026  0.49118087  0.49446325  1
  Fe  Fe49  1  0.66080498  0.32932069  0.65897195  1
  Fe  Fe50  1  0.82587152  0.49298394  0.82473980  1
  Cr  Cr51  1  0.82670491  0.82479409  0.49271263  1
  Ni  Ni52  1  0.66123224  0.65648474  0.65928402  1
  Cr  Cr53  1  0.82770185  0.82537670  0.82601539  1
" 