6358,Ni6Fe20Cr73_1,-209.980348709238, 198.080856162795,Ni6Fe20Cr73,"# generated using pymatgen
 data_Cr40Fe11Ni3
_symmetry_space_group_name_H-M   'P 1'
_cell_length_a   7.56182676
_cell_length_b   7.56182676
_cell_length_c   10.69403796
_cell_angle_alpha   90.00000000
_cell_angle_beta   90.00000000
_cell_angle_gamma   90.00000000
_symmetry_Int_Tables_number   1
_chemical_formula_structural   Cr40Fe11Ni3
_chemical_formula_sum   'Cr40 Fe11 Ni3'
_cell_volume   611.49817890
_cell_formula_units_Z   1
loop_
 _symmetry_equiv_pos_site_id
 _symmetry_equiv_pos_as_xyz
  1  'x, y, z'
loop_
 _atom_site_type_symbol
 _atom_site_label
 _atom_site_symmetry_multiplicity
 _atom_site_fract_x
 _atom_site_fract_y
 _atom_site_fract_z
 _atom_site_occupancy
  Cr  Cr0  1  -0.00549254  -0.00569928  -0.00519380  1
  Cr  Cr1  1  0.16261895  0.16015829  0.16164761  1
  Cr  Cr2  1  -0.00615233  -0.00389614  0.32725082  1
  Cr  Cr3  1  0.99276643  0.32441017  -0.00275715  1
  Cr  Cr4  1  0.15907308  0.49292663  0.15996728  1
  Ni  Ni5  1  -0.00533167  0.32381176  0.32636501  1
  Cr  Cr6  1  -0.00456809  0.66241783  -0.00473401  1
  Fe  Fe7  1  0.16162945  0.82857793  0.16061944  1
  Cr  Cr8  1  -0.00431102  0.66072813  0.32570232  1
  Fe  Fe9  1  0.32747035  0.99364448  0.99287322  1
  Cr  Cr10  1  0.49352178  0.15741733  0.16063476  1
  Fe  Fe11  1  0.32689876  -0.00533252  0.32731558  1
  Cr  Cr12  1  0.32852725  0.32718744  0.98994559  1
  Cr  Cr13  1  0.49366151  0.49301313  0.16123641  1
  Cr  Cr14  1  0.32540560  0.32781507  0.33127086  1
  Cr  Cr15  1  0.32761175  0.66235715  -0.00560132  1
  Cr  Cr16  1  0.49237379  0.83105810  0.16203299  1
  Cr  Cr17  1  0.32697432  0.66129747  0.32665032  1
  Cr  Cr18  1  0.66028817  -0.00525091  0.99211974  1
  Fe  Fe19  1  0.82658046  0.15989204  0.16263628  1
  Ni  Ni20  1  0.66106975  -0.00523419  0.32612104  1
  Cr  Cr21  1  0.65993143  0.32582105  0.99269350  1
  Cr  Cr22  1  0.82854916  0.49220442  0.16070008  1
  Cr  Cr23  1  0.66202394  0.32554997  0.32656680  1
  Cr  Cr24  1  0.65794091  0.66045343  0.99171142  1
  Cr  Cr25  1  0.82517710  0.82762215  0.16156133  1
  Cr  Cr26  1  0.65845886  0.66099197  0.32892809  1
  Fe  Fe27  1  0.16010250  0.16084995  0.49390381  1
  Fe  Fe28  1  -0.00493534  -0.00584725  0.65993535  1
  Cr  Cr29  1  0.16368484  0.16089586  0.82486112  1
  Cr  Cr30  1  0.15997853  0.49132753  0.49502332  1
  Cr  Cr31  1  -0.00452724  0.32375652  0.65870431  1
  Cr  Cr32  1  0.16030290  0.49305969  0.82646880  1
  Cr  Cr33  1  0.16009137  0.82822759  0.49451163  1
  Fe  Fe34  1  -0.00499799  0.66018995  0.66033997  1
  Cr  Cr35  1  0.16055843  0.82724632  0.82751489  1
  Cr  Cr36  1  0.49141097  0.15974206  0.49259605  1
  Cr  Cr37  1  0.32569921  -0.00478962  0.66079605  1
  Fe  Fe38  1  0.49222784  0.16067487  0.82607817  1
  Fe  Fe39  1  0.49307500  0.49277242  0.49480575  1
  Ni  Ni40  1  0.32713216  0.32721502  0.66027436  1
  Fe  Fe41  1  0.49241441  0.49271746  0.82601301  1
  Cr  Cr42  1  0.49470116  0.82986260  0.49004342  1
  Cr  Cr43  1  0.32867382  0.65822794  0.66017140  1
  Fe  Fe44  1  0.49272790  0.82795278  0.82728753  1
  Cr  Cr45  1  0.82687925  0.15968809  0.49188678  1
  Cr  Cr46  1  0.66140448  -0.00608300  0.66182958  1
  Cr  Cr47  1  0.82640484  0.16012229  0.82754460  1
  Cr  Cr48  1  0.82870369  0.49426479  0.49340327  1
  Cr  Cr49  1  0.65677053  0.32760396  0.66185966  1
  Cr  Cr50  1  0.82824371  0.49500003  0.82730934  1
  Cr  Cr51  1  0.82672567  0.82716907  0.49694941  1
  Cr  Cr52  1  0.65811040  0.65983854  0.66040082  1
  Cr  Cr53  1  0.82732464  0.82595640  0.82280817  1
" 