8872,Ni6Fe20Cr72_17,-210.045275346781, 195.912279587221,Ni6Fe20Cr72,"# generated using pymatgen
 data_Cr40Fe11Ni3
_symmetry_space_group_name_H-M   'P 1'
_cell_length_a   7.57373222
_cell_length_b   7.57373222
_cell_length_c   10.71087483
_cell_angle_alpha   90.00000000
_cell_angle_beta   90.00000000
_cell_angle_gamma   90.00000000
_symmetry_Int_Tables_number   1
_chemical_formula_structural   Cr40Fe11Ni3
_chemical_formula_sum   'Cr40 Fe11 Ni3'
_cell_volume   614.39098755
_cell_formula_units_Z   1
loop_
 _symmetry_equiv_pos_site_id
 _symmetry_equiv_pos_as_xyz
  1  'x, y, z'
loop_
 _atom_site_type_symbol
 _atom_site_label
 _atom_site_symmetry_multiplicity
 _atom_site_fract_x
 _atom_site_fract_y
 _atom_site_fract_z
 _atom_site_occupancy
  Cr  Cr0  1  0.99085751  0.99131427  -0.00679338  1
  Cr  Cr1  1  0.15869798  0.16257168  0.16089321  1
  Cr  Cr2  1  0.99179855  0.99266450  0.32798775  1
  Fe  Fe3  1  -0.00663789  0.32750922  -0.00664573  1
  Fe  Fe4  1  0.16171186  0.49306252  0.16057913  1
  Fe  Fe5  1  -0.00540479  0.32709973  0.32589816  1
  Fe  Fe6  1  -0.00702874  0.65877438  -0.00629713  1
  Cr  Cr7  1  0.15965735  0.82401242  0.15934184  1
  Cr  Cr8  1  -0.00614062  0.65968307  0.32471814  1
  Cr  Cr9  1  0.32676607  -0.00666770  0.99080358  1
  Cr  Cr10  1  0.49288332  0.15995943  0.15876183  1
  Cr  Cr11  1  0.32553264  0.99279486  0.32806456  1
  Cr  Cr12  1  0.32704764  0.32827025  -0.00506649  1
  Ni  Ni13  1  0.49140238  0.49482232  0.16234950  1
  Fe  Fe14  1  0.32601663  0.32945748  0.32544026  1
  Cr  Cr15  1  0.32452009  0.65727406  -0.00633499  1
  Cr  Cr16  1  0.49427858  0.82426165  0.16050686  1
  Ni  Ni17  1  0.32703014  0.65566601  0.32446566  1
  Fe  Fe18  1  0.65991865  0.99256918  -0.00665892  1
  Cr  Cr19  1  0.82728649  0.15958610  0.15843215  1
  Cr  Cr20  1  0.66154201  0.99284741  0.32456442  1
  Cr  Cr21  1  0.65892109  0.32570381  0.99275711  1
  Cr  Cr22  1  0.82754580  0.49369288  0.15924426  1
  Cr  Cr23  1  0.65805472  0.32781534  0.32590404  1
  Cr  Cr24  1  0.66092706  0.65931215  -0.00569215  1
  Fe  Fe25  1  0.82537199  0.82549285  0.15920135  1
  Fe  Fe26  1  0.65720607  0.65914773  0.32488087  1
  Cr  Cr27  1  0.15930434  0.16162820  0.49289223  1
  Cr  Cr28  1  -0.00694852  0.99294812  0.65767925  1
  Cr  Cr29  1  0.15943352  0.16138037  0.82508909  1
  Cr  Cr30  1  0.15993804  0.49074031  0.49145094  1
  Fe  Fe31  1  -0.00586479  0.32624899  0.65961826  1
  Cr  Cr32  1  0.15762895  0.49170418  0.82737490  1
  Cr  Cr33  1  0.16133712  0.82650675  0.49281959  1
  Cr  Cr34  1  0.99207087  0.65950440  0.66080057  1
  Cr  Cr35  1  0.16018030  0.82578466  0.82670979  1
  Cr  Cr36  1  0.49151829  0.16064280  0.49386177  1
  Cr  Cr37  1  0.32540279  -0.00550863  0.66000224  1
  Cr  Cr38  1  0.49302409  0.15922166  0.82624491  1
  Cr  Cr39  1  0.49344072  0.49427561  0.49301719  1
  Ni  Ni40  1  0.32739264  0.32701060  0.65915996  1
  Cr  Cr41  1  0.49387133  0.49290350  0.82298012  1
  Cr  Cr42  1  0.49302561  0.82395616  0.49215241  1
  Cr  Cr43  1  0.32658888  0.65775052  0.66041849  1
  Cr  Cr44  1  0.49347376  0.82674399  0.82620585  1
  Cr  Cr45  1  0.82805029  0.16204152  0.49358391  1
  Cr  Cr46  1  0.66041661  -0.00571842  0.66016506  1
  Cr  Cr47  1  0.82641433  0.16177383  0.82684980  1
  Cr  Cr48  1  0.82549018  0.49224507  0.49546133  1
  Fe  Fe49  1  0.65852266  0.32709862  0.65961369  1
  Cr  Cr50  1  0.82737005  0.49215103  0.82416494  1
  Cr  Cr51  1  0.82450186  0.82458697  0.49190255  1
  Fe  Fe52  1  0.65911509  0.65841310  0.65970469  1
  Cr  Cr53  1  0.82521276  0.82494291  0.82844494  1
" 