3033,Ni6Fe17Cr75_15,-208.787666768592, 195.913674964977,Ni6Fe17Cr75,"# generated using pymatgen
 data_Cr14Fe3Ni
_symmetry_space_group_name_H-M   'P 1'
_cell_length_a   7.57626894
_cell_length_b   7.57626894
_cell_length_c   10.71446229
_cell_angle_alpha   90.00000000
_cell_angle_beta   90.00000000
_cell_angle_gamma   90.00000000
_symmetry_Int_Tables_number   1
_chemical_formula_structural   Cr14Fe3Ni
_chemical_formula_sum   'Cr42 Fe9 Ni3'
_cell_volume   615.00854051
_cell_formula_units_Z   3
loop_
 _symmetry_equiv_pos_site_id
 _symmetry_equiv_pos_as_xyz
  1  'x, y, z'
loop_
 _atom_site_type_symbol
 _atom_site_label
 _atom_site_symmetry_multiplicity
 _atom_site_fract_x
 _atom_site_fract_y
 _atom_site_fract_z
 _atom_site_occupancy
  Cr  Cr0  1  -0.00705910  0.99130433  -0.00664981  1
  Cr  Cr1  1  0.15971008  0.16001947  0.15870737  1
  Cr  Cr2  1  -0.00613889  0.99049795  0.32857982  1
  Cr  Cr3  1  0.99117392  0.32756720  -0.00604990  1
  Cr  Cr4  1  0.15831329  0.49479548  0.15894384  1
  Cr  Cr5  1  0.99082510  0.32639053  0.32475214  1
  Fe  Fe6  1  0.99108857  0.65864693  -0.00524782  1
  Cr  Cr7  1  0.15775247  0.82331367  0.16107273  1
  Fe  Fe8  1  0.98938302  0.65951503  0.32550874  1
  Cr  Cr9  1  0.32540029  0.99195912  -0.00710168  1
  Cr  Cr10  1  0.49323180  0.15885914  0.15811985  1
  Cr  Cr11  1  0.32390863  0.99023931  0.32733391  1
  Fe  Fe12  1  0.32790954  0.32823635  -0.00550836  1
  Ni  Ni13  1  0.49529533  0.49640247  0.16136186  1
  Cr  Cr14  1  0.32754879  0.32745922  0.32361245  1
  Cr  Cr15  1  0.32778327  0.65846422  -0.00695437  1
  Cr  Cr16  1  0.49452450  0.82518452  0.15982050  1
  Fe  Fe17  1  0.32862876  0.65845494  0.32504380  1
  Fe  Fe18  1  0.65996538  0.99236673  -0.00626903  1
  Cr  Cr19  1  0.82545362  0.15806548  0.15910225  1
  Cr  Cr20  1  0.66068125  0.99025795  0.32529473  1
  Cr  Cr21  1  0.65932616  0.32977698  -0.00463397  1
  Ni  Ni22  1  0.82523311  0.49835217  0.16081202  1
  Cr  Cr23  1  0.66001130  0.33097360  0.32417823  1
  Cr  Cr24  1  0.65968164  0.65731522  -0.00638124  1
  Fe  Fe25  1  0.82571525  0.82177681  0.16018965  1
  Ni  Ni26  1  0.66101187  0.65881753  0.32390915  1
  Cr  Cr27  1  0.15985168  0.16126219  0.49293410  1
  Cr  Cr28  1  -0.00576818  0.99132573  0.65701601  1
  Cr  Cr29  1  0.16064269  0.16194167  0.82645771  1
  Cr  Cr30  1  0.15917079  0.49500133  0.49232217  1
  Cr  Cr31  1  0.99244515  0.32569925  0.65955025  1
  Cr  Cr32  1  0.15931408  0.49244720  0.82686262  1
  Fe  Fe33  1  0.15856947  0.82362834  0.49151944  1
  Cr  Cr34  1  -0.00708362  0.66132566  0.65984628  1
  Cr  Cr35  1  0.15841021  0.82401959  0.82697634  1
  Cr  Cr36  1  0.49323972  0.15925421  0.49360461  1
  Cr  Cr37  1  0.32407656  0.99103330  0.65840519  1
  Cr  Cr38  1  0.49293143  0.15919086  0.82659338  1
  Cr  Cr39  1  0.49228361  0.49465235  0.49165233  1
  Fe  Fe40  1  0.32587223  0.32630095  0.65893841  1
  Cr  Cr41  1  0.49071249  0.49174983  0.82407596  1
  Cr  Cr42  1  0.49395144  0.82439197  0.49114206  1
  Cr  Cr43  1  0.32624210  0.66075404  0.65920909  1
  Cr  Cr44  1  0.49444095  0.82743161  0.82709565  1
  Cr  Cr45  1  0.82520286  0.15870734  0.49343572  1
  Cr  Cr46  1  0.66004572  0.99134484  0.66004073  1
  Cr  Cr47  1  0.82491676  0.15824046  0.82595675  1
  Cr  Cr48  1  0.82681662  0.49548251  0.49179027  1
  Cr  Cr49  1  0.65938945  0.32808224  0.65860473  1
  Cr  Cr50  1  0.82824123  0.49396180  0.82570813  1
  Fe  Fe51  1  0.82581506  0.82358468  0.49114683  1
  Cr  Cr52  1  0.65916457  0.65889665  0.65970787  1
  Cr  Cr53  1  0.82550740  0.82603847  0.82862195  1
" 