6111,Ni6Fe20Cr72_6,-209.930676371792, 195.062722165,Ni6Fe20Cr72,"# generated using pymatgen
 data_Cr40Fe11Ni3
_symmetry_space_group_name_H-M   'P 1'
_cell_length_a   7.56675246
_cell_length_b   7.56675246
_cell_length_c   10.70100395
_cell_angle_alpha   90.00000000
_cell_angle_beta   90.00000000
_cell_angle_gamma   90.00000000
_symmetry_Int_Tables_number   1
_chemical_formula_structural   Cr40Fe11Ni3
_chemical_formula_sum   'Cr40 Fe11 Ni3'
_cell_volume   612.69392930
_cell_formula_units_Z   1
loop_
 _symmetry_equiv_pos_site_id
 _symmetry_equiv_pos_as_xyz
  1  'x, y, z'
loop_
 _atom_site_type_symbol
 _atom_site_label
 _atom_site_symmetry_multiplicity
 _atom_site_fract_x
 _atom_site_fract_y
 _atom_site_fract_z
 _atom_site_occupancy
  Fe  Fe0  1  0.99102547  0.99299673  -0.00643240  1
  Cr  Cr1  1  0.15887826  0.15812377  0.15848368  1
  Cr  Cr2  1  0.99178123  -0.00537604  0.32521956  1
  Cr  Cr3  1  0.99211242  0.32671209  -0.00443285  1
  Cr  Cr4  1  0.15983761  0.49444376  0.15963282  1
  Cr  Cr5  1  0.99161117  0.32914299  0.32595895  1
  Cr  Cr6  1  -0.00543974  0.65887674  0.99134612  1
  Cr  Cr7  1  0.15708195  0.82748600  0.16187750  1
  Fe  Fe8  1  0.99228957  0.65798414  0.32847884  1
  Cr  Cr9  1  0.32949276  0.99034621  -0.00543026  1
  Cr  Cr10  1  0.49363550  0.16116045  0.16013420  1
  Cr  Cr11  1  0.32784378  0.99132001  0.32675992  1
  Cr  Cr12  1  0.32440772  0.32868023  0.99194516  1
  Cr  Cr13  1  0.49599831  0.49422771  0.15962924  1
  Cr  Cr14  1  0.32428345  0.32822395  0.32801659  1
  Cr  Cr15  1  0.32660528  0.66154186  0.99177112  1
  Cr  Cr16  1  0.49606642  0.82474674  0.15968713  1
  Cr  Cr17  1  0.32463789  0.66053415  0.32635027  1
  Ni  Ni18  1  0.66289809  0.99014108  0.99223892  1
  Fe  Fe19  1  0.82589202  0.15773270  0.15850668  1
  Cr  Cr20  1  0.66035933  -0.00646514  0.32727092  1
  Cr  Cr21  1  0.66324988  0.32392683  -0.00475305  1
  Cr  Cr22  1  0.82455259  0.49649494  0.16188845  1
  Cr  Cr23  1  0.66449074  0.32634842  0.32783119  1
  Fe  Fe24  1  0.66036678  0.66289443  0.99202480  1
  Cr  Cr25  1  0.82720557  0.82573108  0.15857733  1
  Fe  Fe26  1  0.66238995  0.65941987  0.32806519  1
  Cr  Cr27  1  0.16082678  0.15980930  0.49576220  1
  Fe  Fe28  1  0.99251311  0.99198536  0.66045878  1
  Cr  Cr29  1  0.15987883  0.15931349  0.82540515  1
  Ni  Ni30  1  0.15651205  0.49504254  0.49578703  1
  Cr  Cr31  1  -0.00651785  0.33028490  0.65927208  1
  Fe  Fe32  1  0.15927676  0.49285778  0.82503731  1
  Cr  Cr33  1  0.15657466  0.82614158  0.49191870  1
  Fe  Fe34  1  0.99300071  0.65925505  0.65941242  1
  Cr  Cr35  1  0.15533471  0.82820378  0.82591844  1
  Cr  Cr36  1  0.49169411  0.16190628  0.49509218  1
  Cr  Cr37  1  0.32823507  0.99036326  0.65858104  1
  Cr  Cr38  1  0.49268198  0.16157142  0.82498963  1
  Cr  Cr39  1  0.49494937  0.49283767  0.49244514  1
  Fe  Fe40  1  0.32575773  0.32917438  0.65974523  1
  Cr  Cr41  1  0.49405400  0.49318657  0.82832590  1
  Cr  Cr42  1  0.49441602  0.82553867  0.49150956  1
  Cr  Cr43  1  0.32417925  0.65980805  0.66188221  1
  Fe  Fe44  1  0.49582987  0.82761324  0.82833892  1
  Cr  Cr45  1  0.82788314  0.15969123  0.49423386  1
  Cr  Cr46  1  0.66065575  0.99193976  0.66092132  1
  Cr  Cr47  1  0.82804566  0.15709330  0.82859437  1
  Ni  Ni48  1  0.83013853  0.49689916  0.49208357  1
  Cr  Cr49  1  0.66346224  0.32695680  0.65755107  1
  Cr  Cr50  1  0.82572851  0.49665323  0.82669400  1
  Cr  Cr51  1  0.82920753  0.82322158  0.49433371  1
  Cr  Cr52  1  0.66096583  0.66164078  0.66120759  1
  Fe  Fe53  1  0.82539067  0.82784416  0.82808161  1
" 