3269,Ni6Fe17Cr75_2,-208.595299346093, 196.875301769458,Ni6Fe17Cr75,"# generated using pymatgen
 data_Cr14Fe3Ni
_symmetry_space_group_name_H-M   'P 1'
_cell_length_a   7.57303393
_cell_length_b   7.57303393
_cell_length_c   10.70988729
_cell_angle_alpha   90.00000000
_cell_angle_beta   90.00000000
_cell_angle_gamma   90.00000000
_symmetry_Int_Tables_number   1
_chemical_formula_structural   Cr14Fe3Ni
_chemical_formula_sum   'Cr42 Fe9 Ni3'
_cell_volume   614.22106410
_cell_formula_units_Z   3
loop_
 _symmetry_equiv_pos_site_id
 _symmetry_equiv_pos_as_xyz
  1  'x, y, z'
loop_
 _atom_site_type_symbol
 _atom_site_label
 _atom_site_symmetry_multiplicity
 _atom_site_fract_x
 _atom_site_fract_y
 _atom_site_fract_z
 _atom_site_occupancy
  Cr  Cr0  1  -0.00648336  -0.00490473  0.99155562  1
  Fe  Fe1  1  0.15964777  0.15952030  0.15682622  1
  Cr  Cr2  1  0.99287375  -0.00483093  0.32736119  1
  Fe  Fe3  1  -0.00513739  0.32421138  0.99252204  1
  Cr  Cr4  1  0.15948137  0.48932609  0.15868080  1
  Cr  Cr5  1  0.99255652  0.32362749  0.32487995  1
  Cr  Cr6  1  -0.00641864  0.66139852  0.99184156  1
  Cr  Cr7  1  0.15898077  0.82765954  0.15825819  1
  Cr  Cr8  1  -0.00551923  0.66015353  0.32658536  1
  Ni  Ni9  1  0.32396920  -0.00458852  -0.00536276  1
  Cr  Cr10  1  0.49070246  0.15850920  0.15837726  1
  Cr  Cr11  1  0.32444720  0.99189380  0.32389870  1
  Ni  Ni12  1  0.32471089  0.32457521  -0.00427246  1
  Fe  Fe13  1  0.49235763  0.48967866  0.15795206  1
  Cr  Cr14  1  0.32620827  0.32653523  0.32641007  1
  Cr  Cr15  1  0.32694000  0.66090583  -0.00622270  1
  Fe  Fe16  1  0.49160137  0.82827096  0.15794485  1
  Cr  Cr17  1  0.32728858  0.66007861  0.32529239  1
  Cr  Cr18  1  0.66083792  -0.00680948  0.99248319  1
  Cr  Cr19  1  0.82558493  0.15956665  0.15949592  1
  Fe  Fe20  1  0.65910570  -0.00557729  0.32557017  1
  Cr  Cr21  1  0.66174306  0.32563564  0.98919501  1
  Cr  Cr22  1  0.82857558  0.49267595  0.15722889  1
  Cr  Cr23  1  0.66099119  0.32586820  0.32933939  1
  Cr  Cr24  1  0.65806942  0.65926301  -0.00488506  1
  Cr  Cr25  1  0.82486386  0.82694264  0.16192844  1
  Cr  Cr26  1  0.65685660  0.65885269  0.32160376  1
  Cr  Cr27  1  0.16110023  0.15924359  0.49126049  1
  Fe  Fe28  1  -0.00688077  -0.00581741  0.66151215  1
  Cr  Cr29  1  0.16263402  0.16080008  0.83083377  1
  Cr  Cr30  1  0.15780161  0.49336584  0.49362564  1
  Cr  Cr31  1  0.99150052  0.32209255  0.65936847  1
  Cr  Cr32  1  0.15927821  0.49260311  0.82595619  1
  Cr  Cr33  1  0.15725017  0.82627970  0.49690345  1
  Fe  Fe34  1  0.99260738  0.66045497  0.66117846  1
  Fe  Fe35  1  0.15962034  0.82809928  0.82738405  1
  Cr  Cr36  1  0.49369660  0.15754507  0.49381422  1
  Cr  Cr37  1  0.32295792  0.99192354  0.66198594  1
  Cr  Cr38  1  0.49203506  0.15922977  0.82693766  1
  Cr  Cr39  1  0.49286277  0.49245728  0.49391723  1
  Cr  Cr40  1  0.32589373  0.32608933  0.65773710  1
  Cr  Cr41  1  0.49067520  0.49024765  0.82706324  1
  Cr  Cr42  1  0.49463893  0.82907972  0.49050952  1
  Cr  Cr43  1  0.32524242  0.66159008  0.66005432  1
  Cr  Cr44  1  0.49228030  0.82976581  0.82878344  1
  Fe  Fe45  1  0.82733865  0.15863920  0.49350595  1
  Cr  Cr46  1  0.66272434  -0.00473977  0.65964990  1
  Ni  Ni47  1  0.83021957  0.15826140  0.82516350  1
  Cr  Cr48  1  0.82798751  0.49572452  0.49342314  1
  Cr  Cr49  1  0.66232437  0.32502921  0.66044141  1
  Cr  Cr50  1  0.82913197  0.49300372  0.82777204  1
  Cr  Cr51  1  0.82602220  0.82724845  0.49209311  1
  Cr  Cr52  1  0.65804450  0.65914174  0.66179396  1
  Cr  Cr53  1  0.82830569  0.82633226  0.82497250  1
" 