6232,Ni6Fe10Cr82_18,-205.452933698319, 196.140428554434,Ni6Fe10Cr82,"# generated using pymatgen
 data_Cr46Fe5Ni3
_symmetry_space_group_name_H-M   'P 1'
_cell_length_a   7.58426956
_cell_length_b   7.58426956
_cell_length_c   10.72577688
_cell_angle_alpha   90.00000000
_cell_angle_beta   90.00000000
_cell_angle_gamma   90.00000000
_symmetry_Int_Tables_number   1
_chemical_formula_structural   Cr46Fe5Ni3
_chemical_formula_sum   'Cr46 Fe5 Ni3'
_cell_volume   616.95896508
_cell_formula_units_Z   1
loop_
 _symmetry_equiv_pos_site_id
 _symmetry_equiv_pos_as_xyz
  1  'x, y, z'
loop_
 _atom_site_type_symbol
 _atom_site_label
 _atom_site_symmetry_multiplicity
 _atom_site_fract_x
 _atom_site_fract_y
 _atom_site_fract_z
 _atom_site_occupancy
  Cr  Cr0  1  0.99095345  0.99211229  0.99120037  1
  Cr  Cr1  1  0.15886681  0.15886655  0.15845509  1
  Cr  Cr2  1  -0.00769773  0.99198690  0.32604798  1
  Cr  Cr3  1  -0.00715290  0.32531776  -0.00768681  1
  Cr  Cr4  1  0.15988960  0.49271430  0.15879071  1
  Cr  Cr5  1  -0.00640953  0.32566393  0.32622575  1
  Cr  Cr6  1  0.99122894  0.65938296  0.99149563  1
  Cr  Cr7  1  0.15989942  0.82523519  0.15949799  1
  Cr  Cr8  1  0.99158620  0.65916344  0.32543543  1
  Cr  Cr9  1  0.32589710  -0.00599139  -0.00739075  1
  Cr  Cr10  1  0.49296607  0.15988098  0.15743417  1
  Cr  Cr11  1  0.32593485  -0.00673547  0.32652020  1
  Ni  Ni12  1  0.32671686  0.32559733  -0.00772771  1
  Cr  Cr13  1  0.49194385  0.49169986  0.15776907  1
  Cr  Cr14  1  0.32520824  0.32495543  0.32720441  1
  Cr  Cr15  1  0.32589737  0.65721153  -0.00710393  1
  Cr  Cr16  1  0.49091544  0.82523370  0.15990766  1
  Fe  Fe17  1  0.32561149  0.65892321  0.32561724  1
  Cr  Cr18  1  0.65996413  -0.00760697  0.99120151  1
  Cr  Cr19  1  0.82498025  0.15989157  0.15756332  1
  Cr  Cr20  1  0.65858060  0.99126085  0.32677605  1
  Fe  Fe21  1  0.65763049  0.32528502  0.99195249  1
  Cr  Cr22  1  0.82498094  0.49066354  0.15930809  1
  Cr  Cr23  1  0.65801651  0.32566395  0.32552975  1
  Cr  Cr24  1  0.65968819  0.65910299  0.99149753  1
  Cr  Cr25  1  0.82599915  0.82626021  0.15999200  1
  Cr  Cr26  1  0.65929109  0.65988991  0.32616357  1
  Fe  Fe27  1  0.15915739  0.15849688  0.49227917  1
  Cr  Cr28  1  0.99094727  0.99177917  0.65956469  1
  Cr  Cr29  1  0.15847098  0.15905267  0.82585928  1
  Cr  Cr30  1  0.15925032  0.49198222  0.49220729  1
  Cr  Cr31  1  -0.00666223  0.32508445  0.65826764  1
  Cr  Cr32  1  0.15948605  0.49193773  0.82582697  1
  Cr  Cr33  1  0.15875021  0.82618056  0.49164534  1
  Cr  Cr34  1  0.99020886  0.65994634  0.65988982  1
  Cr  Cr35  1  0.15788143  0.82582621  0.82568228  1
  Fe  Fe36  1  0.49205631  0.15851123  0.49227924  1
  Cr  Cr37  1  0.32593498  -0.00581596  0.65768173  1
  Cr  Cr38  1  0.49336507  0.16006403  0.82687785  1
  Cr  Cr39  1  0.49196269  0.49196851  0.49220615  1
  Cr  Cr40  1  0.32520805  0.32435236  0.65733515  1
  Cr  Cr41  1  0.49234486  0.49092638  0.82684662  1
  Cr  Cr42  1  0.49244788  0.82617922  0.49164436  1
  Cr  Cr43  1  0.32593565  0.65827762  0.65944544  1
  Cr  Cr44  1  0.49292975  0.82582603  0.82527429  1
  Cr  Cr45  1  0.82560224  0.15817254  0.49222772  1
  Cr  Cr46  1  0.65993371  0.99105437  0.65883500  1
  Fe  Fe47  1  0.82527511  0.15764582  0.82591382  1
  Cr  Cr48  1  0.82560233  0.49246613  0.49193893  1
  Cr  Cr49  1  0.65827099  0.32508279  0.65896629  1
  Cr  Cr50  1  0.82498385  0.49149964  0.82556762  1
  Ni  Ni51  1  0.82561400  0.82695714  0.49244696  1
  Cr  Cr52  1  0.66067246  0.66067134  0.65916000  1
  Ni  Ni53  1  0.82567277  0.82693484  0.82514336  1
" 