614,Ni6Fe20Cr72_5,-209.630389183737, 192.167917131114,Ni6Fe20Cr72,"# generated using pymatgen
 data_Cr40Fe11Ni3
_symmetry_space_group_name_H-M   'P 1'
_cell_length_a   7.56693389
_cell_length_b   7.56693389
_cell_length_c   10.70126054
_cell_angle_alpha   90.00000000
_cell_angle_beta   90.00000000
_cell_angle_gamma   90.00000000
_symmetry_Int_Tables_number   1
_chemical_formula_structural   Cr40Fe11Ni3
_chemical_formula_sum   'Cr40 Fe11 Ni3'
_cell_volume   612.73800368
_cell_formula_units_Z   1
loop_
 _symmetry_equiv_pos_site_id
 _symmetry_equiv_pos_as_xyz
  1  'x, y, z'
loop_
 _atom_site_type_symbol
 _atom_site_label
 _atom_site_symmetry_multiplicity
 _atom_site_fract_x
 _atom_site_fract_y
 _atom_site_fract_z
 _atom_site_occupancy
  Cr  Cr0  1  -0.00461273  0.99228625  -0.00619634  1
  Cr  Cr1  1  0.16011707  0.15970720  0.15798135  1
  Cr  Cr2  1  -0.00446735  0.98929095  0.32669237  1
  Cr  Cr3  1  -0.00602345  0.32654083  0.99205097  1
  Cr  Cr4  1  0.16053663  0.49472356  0.16136057  1
  Cr  Cr5  1  0.99240405  0.32909678  0.32694927  1
  Cr  Cr6  1  0.99316604  0.66137060  -0.00493104  1
  Fe  Fe7  1  0.16100240  0.82687064  0.16040534  1
  Fe  Fe8  1  -0.00567141  0.66100879  0.32767675  1
  Ni  Ni9  1  0.32649448  -0.00650551  -0.00654593  1
  Cr  Cr10  1  0.49348264  0.15827926  0.15897209  1
  Cr  Cr11  1  0.32549752  0.99207277  0.32753090  1
  Cr  Cr12  1  0.32690128  0.32428103  -0.00656999  1
  Cr  Cr13  1  0.49192576  0.49499934  0.16078744  1
  Cr  Cr14  1  0.32868529  0.32637484  0.32618227  1
  Cr  Cr15  1  0.32606226  0.66198483  0.99326596  1
  Cr  Cr16  1  0.49292926  0.82692366  0.15860751  1
  Fe  Fe17  1  0.32542187  0.66135959  0.32720546  1
  Fe  Fe18  1  0.65825044  0.99338679  -0.00658414  1
  Cr  Cr19  1  0.82659927  0.15869719  0.15861319  1
  Cr  Cr20  1  0.65916717  -0.00638411  0.32704722  1
  Cr  Cr21  1  0.65932487  0.32650431  -0.00639174  1
  Cr  Cr22  1  0.82773724  0.49416585  0.16202332  1
  Cr  Cr23  1  0.65910802  0.32797489  0.32887113  1
  Cr  Cr24  1  0.66097114  0.66057470  0.99182993  1
  Cr  Cr25  1  0.82631552  0.82733849  0.15984285  1
  Fe  Fe26  1  0.66044781  0.65968486  0.32713119  1
  Cr  Cr27  1  0.15944825  0.15873594  0.49687229  1
  Fe  Fe28  1  -0.00355311  -0.00627981  0.65950401  1
  Fe  Fe29  1  0.16112489  0.15822599  0.82594561  1
  Cr  Cr30  1  0.15984200  0.49524236  0.49306205  1
  Fe  Fe31  1  -0.00621882  0.32542715  0.66006737  1
  Cr  Cr32  1  0.16062657  0.49157852  0.82577742  1
  Ni  Ni33  1  0.16114591  0.82620047  0.49350882  1
  Cr  Cr34  1  -0.00628810  0.66089448  0.65924301  1
  Cr  Cr35  1  0.16226609  0.82865806  0.82489080  1
  Fe  Fe36  1  0.49192411  0.15860798  0.49432868  1
  Ni  Ni37  1  0.32369071  0.99329246  0.65903762  1
  Cr  Cr38  1  0.49192251  0.15736683  0.82822613  1
  Cr  Cr39  1  0.49293665  0.49485854  0.49235969  1
  Cr  Cr40  1  0.32650038  0.32425430  0.66059507  1
  Cr  Cr41  1  0.49157230  0.49529636  0.82704733  1
  Cr  Cr42  1  0.49100412  0.82624099  0.49441026  1
  Fe  Fe43  1  0.32594655  0.66279267  0.65917264  1
  Cr  Cr44  1  0.49251241  0.82754039  0.82717590  1
  Cr  Cr45  1  0.82740604  0.16067176  0.49451207  1
  Cr  Cr46  1  0.65865853  -0.00627225  0.65940279  1
  Cr  Cr47  1  0.82913598  0.15900959  0.82706584  1
  Fe  Fe48  1  0.82767580  0.49434789  0.49301219  1
  Cr  Cr49  1  0.66042171  0.32761918  0.65772848  1
  Cr  Cr50  1  0.82800118  0.49218215  0.82591282  1
  Cr  Cr51  1  0.82779464  0.82662658  0.49271844  1
  Cr  Cr52  1  0.66090199  0.65885440  0.66056311  1
  Cr  Cr53  1  0.82541780  0.82900880  0.82764181  1
" 