8494,Ni6Fe61Cr31_0,-221.788360310372, 166.459950267332,Ni6Fe61Cr31,"# generated using pymatgen
 data_Cr6Fe11Ni
_symmetry_space_group_name_H-M   'P 1'
_cell_length_a   7.49408360
_cell_length_b   7.49408360
_cell_length_c   10.59823466
_cell_angle_alpha   90.00000000
_cell_angle_beta   90.00000000
_cell_angle_gamma   90.00000000
_symmetry_Int_Tables_number   1
_chemical_formula_structural   Cr6Fe11Ni
_chemical_formula_sum   'Cr18 Fe33 Ni3'
_cell_volume   595.21051983
_cell_formula_units_Z   3
loop_
 _symmetry_equiv_pos_site_id
 _symmetry_equiv_pos_as_xyz
  1  'x, y, z'
loop_
 _atom_site_type_symbol
 _atom_site_label
 _atom_site_symmetry_multiplicity
 _atom_site_fract_x
 _atom_site_fract_y
 _atom_site_fract_z
 _atom_site_occupancy
  Fe  Fe0  1  0.99657427  -0.00049202  -0.00023141  1
  Fe  Fe1  1  0.16728464  0.16571276  0.16571414  1
  Cr  Cr2  1  -0.00103584  0.00140559  0.32988672  1
  Cr  Cr3  1  0.99665190  0.32953561  0.00274595  1
  Fe  Fe4  1  0.16777630  0.49559794  0.16672896  1
  Fe  Fe5  1  -0.00140507  0.33136327  0.33151480  1
  Cr  Cr6  1  0.99676367  0.66190095  -0.00135891  1
  Cr  Cr7  1  0.16206326  0.82920648  0.16419791  1
  Cr  Cr8  1  0.99719862  0.66000188  0.33302707  1
  Cr  Cr9  1  0.33402551  -0.00086616  -0.00141776  1
  Ni  Ni10  1  0.49912840  0.16804595  0.16709800  1
  Fe  Fe11  1  0.33434861  -0.00063699  0.33090518  1
  Fe  Fe12  1  0.33378524  0.33250552  0.00133456  1
  Fe  Fe13  1  0.49886441  0.49875915  0.16552243  1
  Fe  Fe14  1  0.33013966  0.33056342  0.33010106  1
  Fe  Fe15  1  0.33470167  0.66282464  -0.00127605  1
  Fe  Fe16  1  0.50035038  0.83276075  0.16576257  1
  Fe  Fe17  1  0.33249953  0.66441136  0.33198493  1
  Fe  Fe18  1  0.66560079  0.00014741  0.00101590  1
  Fe  Fe19  1  0.82819284  0.16319932  0.16534868  1
  Fe  Fe20  1  0.66295285  -0.00106879  0.32954520  1
  Fe  Fe21  1  0.66266378  0.33170961  0.00041382  1
  Fe  Fe22  1  0.82757952  0.49818606  0.16609722  1
  Fe  Fe23  1  0.66585743  0.33054158  0.33007188  1
  Fe  Fe24  1  0.66234952  0.66435131  -0.00025771  1
  Ni  Ni25  1  0.82877856  0.83198213  0.16387780  1
  Fe  Fe26  1  0.66338870  0.66523557  0.32962847  1
  Fe  Fe27  1  0.16677535  0.16775285  0.49599761  1
  Cr  Cr28  1  0.00099583  0.00063347  0.66708027  1
  Fe  Fe29  1  0.16413270  0.16500702  0.83302007  1
  Ni  Ni30  1  0.16714699  0.49499476  0.49570516  1
  Cr  Cr31  1  0.99594023  0.33228481  0.66214797  1
  Cr  Cr32  1  0.16886610  0.49660775  0.83205647  1
  Fe  Fe33  1  0.16761951  0.83008168  0.49533901  1
  Cr  Cr34  1  -0.00109044  0.66211672  0.66236316  1
  Fe  Fe35  1  0.16684464  0.83279792  0.83380327  1
  Fe  Fe36  1  0.49750128  0.16546215  0.49434849  1
  Cr  Cr37  1  0.33204089  -0.00142784  0.66161132  1
  Cr  Cr38  1  0.49859337  0.17006507  0.82962042  1
  Cr  Cr39  1  0.49664116  0.49412499  0.49888737  1
  Fe  Fe40  1  0.33042221  0.33126162  0.66316475  1
  Fe  Fe41  1  0.50076704  0.49893987  0.83367643  1
  Fe  Fe42  1  0.49638219  0.83049765  0.49416383  1
  Cr  Cr43  1  0.33224586  0.66750008  0.66580657  1
  Fe  Fe44  1  0.49809346  0.83044303  0.83393585  1
  Fe  Fe45  1  0.83018166  0.16892395  0.49606419  1
  Cr  Cr46  1  0.66194601  -0.00019990  0.66240146  1
  Fe  Fe47  1  0.83135328  0.16754275  0.83322650  1
  Fe  Fe48  1  0.83046779  0.49473995  0.49584628  1
  Fe  Fe49  1  0.66495552  0.33141050  0.66437260  1
  Fe  Fe50  1  0.82846257  0.49472634  0.83300786  1
  Cr  Cr51  1  0.83128728  0.83340522  0.49690128  1
  Cr  Cr52  1  0.66426938  0.66236046  0.66600707  1
  Cr  Cr53  1  0.83267258  0.83365639  0.83405694  1
" 