8556,Ni6Fe20Cr73_4,-210.000695170132, 203.209594453333,Ni6Fe20Cr73,"# generated using pymatgen
 data_Cr40Fe11Ni3
_symmetry_space_group_name_H-M   'P 1'
_cell_length_a   7.56223411
_cell_length_b   7.56223411
_cell_length_c   10.69461404
_cell_angle_alpha   90.00000000
_cell_angle_beta   90.00000000
_cell_angle_gamma   90.00000000
_symmetry_Int_Tables_number   1
_chemical_formula_structural   Cr40Fe11Ni3
_chemical_formula_sum   'Cr40 Fe11 Ni3'
_cell_volume   611.59700704
_cell_formula_units_Z   1
loop_
 _symmetry_equiv_pos_site_id
 _symmetry_equiv_pos_as_xyz
  1  'x, y, z'
loop_
 _atom_site_type_symbol
 _atom_site_label
 _atom_site_symmetry_multiplicity
 _atom_site_fract_x
 _atom_site_fract_y
 _atom_site_fract_z
 _atom_site_occupancy
  Cr  Cr0  1  0.99357938  -0.00356306  -0.00553863  1
  Cr  Cr1  1  0.16315548  0.15848262  0.16184949  1
  Cr  Cr2  1  -0.00602881  -0.00507074  0.32743894  1
  Cr  Cr3  1  -0.00587695  0.32429897  0.99115124  1
  Cr  Cr4  1  0.15666305  0.49568333  0.15989890  1
  Cr  Cr5  1  0.99252693  0.32438823  0.32953886  1
  Fe  Fe6  1  -0.00564014  0.66109841  0.99321337  1
  Fe  Fe7  1  0.16014545  0.82632881  0.16197209  1
  Fe  Fe8  1  0.99307108  0.66204521  0.32848099  1
  Cr  Cr9  1  0.32633698  0.99077046  -0.00399135  1
  Cr  Cr10  1  0.49331983  0.16013312  0.16306321  1
  Fe  Fe11  1  0.32804013  0.99284522  0.32867331  1
  Cr  Cr12  1  0.32543136  0.32864861  0.99278848  1
  Cr  Cr13  1  0.49541694  0.49141596  0.16166825  1
  Cr  Cr14  1  0.32381898  0.33061905  0.32760327  1
  Cr  Cr15  1  0.32748058  0.66050947  -0.00617488  1
  Cr  Cr16  1  0.49561129  0.83051875  0.16115305  1
  Cr  Cr17  1  0.32734591  0.66234026  0.32704458  1
  Cr  Cr18  1  0.66128571  0.99318198  0.98992991  1
  Cr  Cr19  1  0.82412514  0.15983206  0.16088460  1
  Cr  Cr20  1  0.66352237  0.99161703  0.33062763  1
  Cr  Cr21  1  0.66233397  0.32656361  -0.00541089  1
  Cr  Cr22  1  0.82707539  0.49607473  0.16144092  1
  Fe  Fe23  1  0.66133479  0.32599466  0.32865361  1
  Cr  Cr24  1  0.65554557  0.66164213  0.99225506  1
  Cr  Cr25  1  0.82969195  0.82472910  0.15909070  1
  Cr  Cr26  1  0.65739143  0.66188585  0.32960906  1
  Cr  Cr27  1  0.16612252  0.15904667  0.49613830  1
  Cr  Cr28  1  0.99071874  -0.00312129  0.65935485  1
  Cr  Cr29  1  0.16627708  0.15815613  0.82347356  1
  Cr  Cr30  1  0.15938721  0.49519135  0.49842697  1
  Cr  Cr31  1  -0.00552960  0.32617478  0.66037979  1
  Cr  Cr32  1  0.15936826  0.49524484  0.82243676  1
  Cr  Cr33  1  0.15676189  0.82757067  0.49283441  1
  Fe  Fe34  1  0.99104991  0.66464171  0.65919431  1
  Cr  Cr35  1  0.15751451  0.82774542  0.82712232  1
  Cr  Cr36  1  0.49470452  0.15788981  0.49258186  1
  Ni  Ni37  1  0.32880740  0.98791932  0.65809750  1
  Cr  Cr38  1  0.49437975  0.15718693  0.82561631  1
  Cr  Cr39  1  0.49401498  0.48915832  0.49358606  1
  Fe  Fe40  1  0.33095092  0.32346754  0.66000374  1
  Cr  Cr41  1  0.49450107  0.48946655  0.82589898  1
  Fe  Fe42  1  0.49255020  0.82740926  0.49468499  1
  Cr  Cr43  1  0.32863997  0.66016461  0.66024898  1
  Fe  Fe44  1  0.49109371  0.82785932  0.82474169  1
  Fe  Fe45  1  0.82723801  0.15957826  0.49442611  1
  Ni  Ni46  1  0.65816621  0.99227130  0.65899247  1
  Fe  Fe47  1  0.82694064  0.16045864  0.82519309  1
  Cr  Cr48  1  0.82791672  0.49934153  0.49192183  1
  Cr  Cr49  1  0.66559276  0.32596079  0.65905479  1
  Cr  Cr50  1  0.82790984  0.49836489  0.82822575  1
  Ni  Ni51  1  0.82538498  0.82944011  0.49524113  1
  Cr  Cr52  1  0.65706445  0.66279967  0.65920365  1
  Cr  Cr53  1  0.82591820  0.82774772  0.82615464  1
" 