6994,Ni6Fe10Cr82_14,-205.526897985138, 197.991834259981,Ni6Fe10Cr82,"# generated using pymatgen
 data_Cr46Fe5Ni3
_symmetry_space_group_name_H-M   'P 1'
_cell_length_a   7.58085663
_cell_length_b   7.58085663
_cell_length_c   10.72095026
_cell_angle_alpha   90.00000000
_cell_angle_beta   90.00000000
_cell_angle_gamma   90.00000000
_symmetry_Int_Tables_number   1
_chemical_formula_structural   Cr46Fe5Ni3
_chemical_formula_sum   'Cr46 Fe5 Ni3'
_cell_volume   616.12644285
_cell_formula_units_Z   1
loop_
 _symmetry_equiv_pos_site_id
 _symmetry_equiv_pos_as_xyz
  1  'x, y, z'
loop_
 _atom_site_type_symbol
 _atom_site_label
 _atom_site_symmetry_multiplicity
 _atom_site_fract_x
 _atom_site_fract_y
 _atom_site_fract_z
 _atom_site_occupancy
  Cr  Cr0  1  -0.00687753  0.99223027  0.99232797  1
  Cr  Cr1  1  0.15810650  0.15940120  0.15845859  1
  Cr  Cr2  1  0.99218371  0.99240187  0.32657737  1
  Fe  Fe3  1  -0.00709588  0.32359966  0.99222171  1
  Cr  Cr4  1  0.15868422  0.49103086  0.15949505  1
  Cr  Cr5  1  0.99113077  0.32463707  0.32715549  1
  Cr  Cr6  1  -0.00671696  0.65953885  -0.00577090  1
  Ni  Ni7  1  0.15956828  0.82813171  0.15927797  1
  Cr  Cr8  1  0.99202740  0.66044036  0.32309246  1
  Cr  Cr9  1  0.32672210  -0.00604160  0.99231006  1
  Fe  Fe10  1  0.49351676  0.15867923  0.15671811  1
  Cr  Cr11  1  0.32558012  -0.00653322  0.32215379  1
  Cr  Cr12  1  0.32695521  0.32404104  0.99123766  1
  Cr  Cr13  1  0.49343711  0.49006696  0.15913381  1
  Cr  Cr14  1  0.32711131  0.32426136  0.32517470  1
  Cr  Cr15  1  0.32495722  0.65933170  -0.00623216  1
  Cr  Cr16  1  0.49324765  0.82786454  0.15842033  1
  Cr  Cr17  1  0.32530713  0.65969800  0.32329272  1
  Ni  Ni18  1  0.65822798  -0.00153808  0.99226114  1
  Cr  Cr19  1  0.82431229  0.15947288  0.15790922  1
  Cr  Cr20  1  0.65958010  -0.00580086  0.32602317  1
  Fe  Fe21  1  0.65740666  0.32303733  0.99196384  1
  Cr  Cr22  1  0.82546276  0.48904581  0.15581016  1
  Cr  Cr23  1  0.65877898  0.32451985  0.32613859  1
  Cr  Cr24  1  0.65902167  0.65982609  0.99162667  1
  Cr  Cr25  1  0.82471482  0.82808899  0.15726218  1
  Cr  Cr26  1  0.66013266  0.65844158  0.32644484  1
  Cr  Cr27  1  0.15860044  0.15915600  0.49328515  1
  Cr  Cr28  1  0.99230038  -0.00623122  0.65870589  1
  Fe  Fe29  1  0.15997173  0.15925574  0.82701703  1
  Cr  Cr30  1  0.15971008  0.49158968  0.49221711  1
  Cr  Cr31  1  0.99206900  0.32422984  0.65955978  1
  Cr  Cr32  1  0.15814401  0.48996106  0.82609935  1
  Cr  Cr33  1  0.16058578  0.82673194  0.49197117  1
  Cr  Cr34  1  0.99142805  0.65928747  0.65988602  1
  Cr  Cr35  1  0.15947032  0.82636150  0.82522391  1
  Cr  Cr36  1  0.49179980  0.15809358  0.49114316  1
  Cr  Cr37  1  0.32619057  -0.00434636  0.66289376  1
  Ni  Ni38  1  0.49458410  0.15942318  0.82930280  1
  Cr  Cr39  1  0.49141435  0.49273019  0.49259526  1
  Cr  Cr40  1  0.32688517  0.32349688  0.66119788  1
  Cr  Cr41  1  0.49288015  0.49119707  0.82519819  1
  Cr  Cr42  1  0.49177275  0.82660813  0.49361772  1
  Cr  Cr43  1  0.32574194  0.65852891  0.66001908  1
  Cr  Cr44  1  0.49379156  0.82837611  0.82511953  1
  Fe  Fe45  1  0.82543921  0.15928833  0.49255532  1
  Cr  Cr46  1  0.65925561  -0.00494747  0.65913733  1
  Cr  Cr47  1  0.82597542  0.15924488  0.82763687  1
  Cr  Cr48  1  0.82639087  0.49119098  0.49250287  1
  Cr  Cr49  1  0.65858345  0.32435291  0.65857218  1
  Cr  Cr50  1  0.82629609  0.48988267  0.82924949  1
  Cr  Cr51  1  0.82517650  0.82768596  0.49343126  1
  Cr  Cr52  1  0.66031844  0.65808522  0.65927275  1
  Cr  Cr53  1  0.82439868  0.82755083  0.82676206  1
" 