421,Ni6Fe61Cr31_16,-221.105371824628, 163.272979342222,Ni6Fe61Cr31,"# generated using pymatgen
 data_Cr6Fe11Ni
_symmetry_space_group_name_H-M   'P 1'
_cell_length_a   7.49117622
_cell_length_b   7.49117622
_cell_length_c   10.59412300
_cell_angle_alpha   90.00000000
_cell_angle_beta   90.00000000
_cell_angle_gamma   90.00000000
_symmetry_Int_Tables_number   1
_chemical_formula_structural   Cr6Fe11Ni
_chemical_formula_sum   'Cr18 Fe33 Ni3'
_cell_volume   594.51804026
_cell_formula_units_Z   3
loop_
 _symmetry_equiv_pos_site_id
 _symmetry_equiv_pos_as_xyz
  1  'x, y, z'
loop_
 _atom_site_type_symbol
 _atom_site_label
 _atom_site_symmetry_multiplicity
 _atom_site_fract_x
 _atom_site_fract_y
 _atom_site_fract_z
 _atom_site_occupancy
  Fe  Fe0  1  -0.00088373  0.00114267  0.99585657  1
  Ni  Ni1  1  0.16622460  0.16285226  0.16537016  1
  Fe  Fe2  1  0.00289128  -0.00112300  0.33336351  1
  Cr  Cr3  1  -0.00058955  0.32912127  -0.00068845  1
  Cr  Cr4  1  0.16836549  0.49731216  0.16389292  1
  Cr  Cr5  1  0.00126926  0.33038678  0.33172907  1
  Cr  Cr6  1  -0.00155828  0.66428864  0.99443096  1
  Cr  Cr7  1  0.16455974  0.83496770  0.16020701  1
  Cr  Cr8  1  0.99774047  0.66456052  0.33644808  1
  Fe  Fe9  1  0.32994855  0.00202201  0.99773357  1
  Fe  Fe10  1  0.49470493  0.16290733  0.16739506  1
  Fe  Fe11  1  0.32909271  0.00023783  0.33243188  1
  Fe  Fe12  1  0.33201720  0.32844491  0.99782411  1
  Cr  Cr13  1  0.49823724  0.49723685  0.16474842  1
  Ni  Ni14  1  0.33187552  0.32701875  0.33146345  1
  Fe  Fe15  1  0.33225164  0.66439726  0.99609389  1
  Fe  Fe16  1  0.49614656  0.83532778  0.16554025  1
  Cr  Cr17  1  0.33250436  0.66782366  0.33392983  1
  Cr  Cr18  1  0.66335785  0.00030260  0.99641331  1
  Fe  Fe19  1  0.83298183  0.16483618  0.16720783  1
  Fe  Fe20  1  0.66266511  -0.00160960  0.33094743  1
  Cr  Cr21  1  0.66476932  0.33011872  0.99790582  1
  Fe  Fe22  1  0.83266522  0.49680634  0.16686130  1
  Fe  Fe23  1  0.66415076  0.33202478  0.32999131  1
  Cr  Cr24  1  0.66425787  0.66487773  0.00033220  1
  Cr  Cr25  1  0.83276693  0.83415438  0.16634517  1
  Fe  Fe26  1  0.66475552  0.66459274  0.33272591  1
  Fe  Fe27  1  0.16735789  0.16425425  0.49757369  1
  Cr  Cr28  1  -0.00010452  -0.00125067  0.66574626  1
  Fe  Fe29  1  0.16767877  0.16480764  0.83262406  1
  Fe  Fe30  1  0.16558388  0.49637109  0.50043723  1
  Fe  Fe31  1  -0.00080605  0.33427298  0.66600336  1
  Fe  Fe32  1  0.16763445  0.49809035  0.83010610  1
  Ni  Ni33  1  0.16434745  0.83207587  0.50101372  1
  Fe  Fe34  1  0.00083652  0.66391184  0.66434869  1
  Fe  Fe35  1  0.16527715  0.83195239  0.83080692  1
  Cr  Cr36  1  0.49876449  0.16574724  0.50018093  1
  Fe  Fe37  1  0.33135392  0.99747006  0.66443646  1
  Fe  Fe38  1  0.49593234  0.16684091  0.82883102  1
  Cr  Cr39  1  0.49787864  0.49603696  0.49914936  1
  Fe  Fe40  1  0.32920112  0.33134442  0.66596858  1
  Fe  Fe41  1  0.49567803  0.49610243  0.83039441  1
  Fe  Fe42  1  0.49750261  0.83431581  0.49920202  1
  Fe  Fe43  1  0.32759494  0.66599353  0.66387985  1
  Cr  Cr44  1  0.49580756  0.83131172  0.83124068  1
  Cr  Cr45  1  0.83098860  0.16509969  0.49841325  1
  Fe  Fe46  1  0.66432249  -0.00054247  0.66675079  1
  Fe  Fe47  1  0.83170590  0.16512946  0.82933713  1
  Fe  Fe48  1  0.83278506  0.49849284  0.50010522  1
  Fe  Fe49  1  0.66633475  0.33084650  0.66835258  1
  Fe  Fe50  1  0.83217501  0.49757589  0.82919692  1
  Fe  Fe51  1  0.83091533  0.83240563  0.49765138  1
  Cr  Cr52  1  0.66572415  0.66680149  0.66371009  1
  Fe  Fe53  1  0.83339583  0.83254759  0.83107343  1
" 