6335,Ni6Fe20Cr72_15,-210.031688462172, 191.574975247227,Ni6Fe20Cr72,"# generated using pymatgen
 data_Cr40Fe11Ni3
_symmetry_space_group_name_H-M   'P 1'
_cell_length_a   7.57054471
_cell_length_b   7.57054471
_cell_length_c   10.70636701
_cell_angle_alpha   90.00000000
_cell_angle_beta   90.00000000
_cell_angle_gamma   90.00000000
_symmetry_Int_Tables_number   1
_chemical_formula_structural   Cr40Fe11Ni3
_chemical_formula_sum   'Cr40 Fe11 Ni3'
_cell_volume   613.61558895
_cell_formula_units_Z   1
loop_
 _symmetry_equiv_pos_site_id
 _symmetry_equiv_pos_as_xyz
  1  'x, y, z'
loop_
 _atom_site_type_symbol
 _atom_site_label
 _atom_site_symmetry_multiplicity
 _atom_site_fract_x
 _atom_site_fract_y
 _atom_site_fract_z
 _atom_site_occupancy
  Ni  Ni0  1  -0.00363952  -0.00133387  0.99229772  1
  Fe  Fe1  1  0.15864381  0.15939976  0.15833655  1
  Cr  Cr2  1  -0.00444720  -0.00493463  0.32809157  1
  Fe  Fe3  1  -0.00495115  0.32302583  -0.00678155  1
  Cr  Cr4  1  0.16046888  0.49047316  0.15715259  1
  Fe  Fe5  1  -0.00567916  0.32515094  0.32652482  1
  Cr  Cr6  1  0.99219741  0.65973713  0.99260158  1
  Cr  Cr7  1  0.15990611  0.82676676  0.15975035  1
  Cr  Cr8  1  0.99282464  0.65910220  0.32809266  1
  Cr  Cr9  1  0.32605953  -0.00581033  -0.00512915  1
  Cr  Cr10  1  0.49260255  0.16039428  0.16046117  1
  Cr  Cr11  1  0.32515271  -0.00639228  0.32685679  1
  Fe  Fe12  1  0.32476419  0.32456221  -0.00624090  1
  Fe  Fe13  1  0.49398637  0.49471510  0.16061723  1
  Cr  Cr14  1  0.32517091  0.32518158  0.32549344  1
  Cr  Cr15  1  0.32909853  0.66018144  -0.00605518  1
  Ni  Ni16  1  0.49251514  0.82545038  0.16072426  1
  Cr  Cr17  1  0.32722957  0.66071644  0.32533501  1
  Cr  Cr18  1  0.65915415  0.99169751  0.99262914  1
  Cr  Cr19  1  0.82835414  0.16010535  0.15958010  1
  Cr  Cr20  1  0.65886964  0.99288086  0.32418428  1
  Cr  Cr21  1  0.65972801  0.32750464  0.99271517  1
  Cr  Cr22  1  0.82728577  0.49136947  0.16296138  1
  Fe  Fe23  1  0.65999484  0.32749830  0.32570624  1
  Cr  Cr24  1  0.65823830  0.66048473  -0.00634758  1
  Cr  Cr25  1  0.82663023  0.82792706  0.15871826  1
  Fe  Fe26  1  0.65804947  0.66023126  0.32471922  1
  Fe  Fe27  1  0.15894447  0.15933064  0.49320140  1
  Fe  Fe28  1  -0.00530249  -0.00574485  0.65971462  1
  Fe  Fe29  1  0.15916157  0.15829039  0.82818517  1
  Cr  Cr30  1  0.16034832  0.49410163  0.49347793  1
  Cr  Cr31  1  -0.00593988  0.32470134  0.65949329  1
  Cr  Cr32  1  0.16055335  0.49130400  0.82900202  1
  Fe  Fe33  1  0.15938373  0.82814594  0.49348157  1
  Cr  Cr34  1  -0.00651304  0.66017695  0.65856021  1
  Cr  Cr35  1  0.15955356  0.82735802  0.82535654  1
  Cr  Cr36  1  0.49381474  0.16037504  0.49337369  1
  Cr  Cr37  1  0.32416153  -0.00628143  0.65760266  1
  Cr  Cr38  1  0.49166625  0.15898872  0.82556426  1
  Cr  Cr39  1  0.49299047  0.49207089  0.49163616  1
  Cr  Cr40  1  0.32458907  0.32441199  0.66081141  1
  Cr  Cr41  1  0.49019972  0.49268980  0.82627501  1
  Cr  Cr42  1  0.49226118  0.82708308  0.49300415  1
  Cr  Cr43  1  0.32600040  0.66128460  0.65979936  1
  Ni  Ni44  1  0.49095225  0.82810418  0.82690751  1
  Cr  Cr45  1  0.82608749  0.15956219  0.49230030  1
  Cr  Cr46  1  0.65947485  0.99295140  0.66273739  1
  Cr  Cr47  1  0.82861837  0.15817866  0.82748515  1
  Cr  Cr48  1  0.82611483  0.49211933  0.49038383  1
  Cr  Cr49  1  0.66085251  0.32647341  0.65930643  1
  Cr  Cr50  1  0.82868725  0.49196586  0.82628878  1
  Cr  Cr51  1  0.82807053  0.82788171  0.49413846  1
  Cr  Cr52  1  0.66001451  0.66005941  0.66254876  1
  Cr  Cr53  1  0.82792895  0.82921415  0.82725110  1
" 