3933,Ni6Fe17Cr75_7,-208.516283070711, 194.592190996129,Ni6Fe17Cr75,"# generated using pymatgen
 data_Cr14Fe3Ni
_symmetry_space_group_name_H-M   'P 1'
_cell_length_a   7.56916257
_cell_length_b   7.56916257
_cell_length_c   10.70441237
_cell_angle_alpha   90.00000000
_cell_angle_beta   90.00000000
_cell_angle_gamma   90.00000000
_symmetry_Int_Tables_number   1
_chemical_formula_structural   Cr14Fe3Ni
_chemical_formula_sum   'Cr42 Fe9 Ni3'
_cell_volume   613.27957073
_cell_formula_units_Z   3
loop_
 _symmetry_equiv_pos_site_id
 _symmetry_equiv_pos_as_xyz
  1  'x, y, z'
loop_
 _atom_site_type_symbol
 _atom_site_label
 _atom_site_symmetry_multiplicity
 _atom_site_fract_x
 _atom_site_fract_y
 _atom_site_fract_z
 _atom_site_occupancy
  Fe  Fe0  1  0.99291797  -0.00639634  0.99290668  1
  Cr  Cr1  1  0.16168596  0.15832868  0.15926946  1
  Cr  Cr2  1  -0.00622425  0.99158680  0.32565948  1
  Cr  Cr3  1  -0.00660953  0.32478112  0.99123858  1
  Cr  Cr4  1  0.15938878  0.49337792  0.15975138  1
  Cr  Cr5  1  -0.00522259  0.32820129  0.32835609  1
  Cr  Cr6  1  -0.00631019  0.66101692  -0.00544743  1
  Cr  Cr7  1  0.15939368  0.82805528  0.16086856  1
  Fe  Fe8  1  -0.00595249  0.65903263  0.32743838  1
  Cr  Cr9  1  0.32659435  0.99293669  -0.00526150  1
  Fe  Fe10  1  0.49289315  0.15954745  0.16070140  1
  Fe  Fe11  1  0.32785379  -0.00549747  0.32697440  1
  Cr  Cr12  1  0.32642581  0.32658057  -0.00477270  1
  Cr  Cr13  1  0.49431325  0.49182276  0.15881632  1
  Cr  Cr14  1  0.32745109  0.32571219  0.32723156  1
  Cr  Cr15  1  0.32715377  0.66024754  0.99128684  1
  Cr  Cr16  1  0.49272318  0.82802418  0.15942495  1
  Cr  Cr17  1  0.32498126  0.65925021  0.32786791  1
  Cr  Cr18  1  0.66072123  0.99323233  0.99258970  1
  Cr  Cr19  1  0.82609900  0.15991791  0.15807244  1
  Cr  Cr20  1  0.65825522  -0.00593817  0.32670396  1
  Cr  Cr21  1  0.65994699  0.32534510  -0.00600952  1
  Cr  Cr22  1  0.82606151  0.49411260  0.16054170  1
  Cr  Cr23  1  0.65753360  0.32544947  0.32705246  1
  Cr  Cr24  1  0.65892003  0.66118574  0.99294924  1
  Cr  Cr25  1  0.82764765  0.82573085  0.16111336  1
  Cr  Cr26  1  0.66074187  0.66025240  0.32624460  1
  Cr  Cr27  1  0.16292730  0.16007238  0.49325494  1
  Cr  Cr28  1  0.99162334  -0.00591357  0.66189978  1
  Cr  Cr29  1  0.15879538  0.15870020  0.82724712  1
  Ni  Ni30  1  0.16112256  0.49432481  0.49335594  1
  Cr  Cr31  1  -0.00571133  0.32629838  0.66016848  1
  Cr  Cr32  1  0.16069338  0.49332664  0.82643259  1
  Cr  Cr33  1  0.16108004  0.82554464  0.49249931  1
  Cr  Cr34  1  -0.00437753  0.65937776  0.65768241  1
  Cr  Cr35  1  0.16172936  0.82773797  0.82639613  1
  Ni  Ni36  1  0.49260139  0.15909723  0.49313644  1
  Fe  Fe37  1  0.32945294  0.99303436  0.65952217  1
  Cr  Cr38  1  0.49419852  0.15814023  0.82561290  1
  Fe  Fe39  1  0.49121211  0.49196207  0.49359532  1
  Cr  Cr40  1  0.32618244  0.32800392  0.65730061  1
  Cr  Cr41  1  0.49332535  0.49491399  0.82664520  1
  Cr  Cr42  1  0.49246185  0.82884046  0.49610321  1
  Fe  Fe43  1  0.32686497  0.66021886  0.65909519  1
  Fe  Fe44  1  0.49331090  0.82736225  0.82505428  1
  Cr  Cr45  1  0.82408924  0.15993109  0.49549380  1
  Ni  Ni46  1  0.65747156  -0.00666033  0.66039491  1
  Fe  Fe47  1  0.82617918  0.15877675  0.82612467  1
  Cr  Cr48  1  0.82738678  0.49385914  0.49147407  1
  Cr  Cr49  1  0.65929009  0.32400862  0.65871824  1
  Cr  Cr50  1  0.82574481  0.49197965  0.82774815  1
  Cr  Cr51  1  0.82622484  0.82597031  0.49184781  1
  Cr  Cr52  1  0.65729858  0.66232885  0.66057026  1
  Cr  Cr53  1  0.82518298  0.82861187  0.82680293  1
" 