259,Ni6Fe23Cr70_4,-210.673814475793, 194.462592173902,Ni6Fe23Cr70,"# generated using pymatgen
 data_Cr13Fe4Ni
_symmetry_space_group_name_H-M   'P 1'
_cell_length_a   7.56340843
_cell_length_b   7.56340843
_cell_length_c   10.69627478
_cell_angle_alpha   90.00000000
_cell_angle_beta   90.00000000
_cell_angle_gamma   90.00000000
_symmetry_Int_Tables_number   1
_chemical_formula_structural   Cr13Fe4Ni
_chemical_formula_sum   'Cr39 Fe12 Ni3'
_cell_volume   611.88197203
_cell_formula_units_Z   3
loop_
 _symmetry_equiv_pos_site_id
 _symmetry_equiv_pos_as_xyz
  1  'x, y, z'
loop_
 _atom_site_type_symbol
 _atom_site_label
 _atom_site_symmetry_multiplicity
 _atom_site_fract_x
 _atom_site_fract_y
 _atom_site_fract_z
 _atom_site_occupancy
  Cr  Cr0  1  -0.00523868  -0.00502007  -0.00279661  1
  Ni  Ni1  1  0.16332495  0.16184463  0.15808956  1
  Cr  Cr2  1  -0.00378402  0.99340608  0.32629731  1
  Cr  Cr3  1  0.99354752  0.32803776  0.99353786  1
  Cr  Cr4  1  0.16335052  0.49164401  0.15762000  1
  Cr  Cr5  1  0.99281613  0.32652765  0.32454213  1
  Cr  Cr6  1  -0.00539902  0.65789876  0.99037548  1
  Cr  Cr7  1  0.16213946  0.82852386  0.15839802  1
  Cr  Cr8  1  -0.00485787  0.66096661  0.32947781  1
  Fe  Fe9  1  0.32616746  -0.00579771  -0.00590535  1
  Cr  Cr10  1  0.49056612  0.16222535  0.15849135  1
  Cr  Cr11  1  0.32608712  0.99255755  0.32588311  1
  Fe  Fe12  1  0.32637452  0.32749231  -0.00585918  1
  Fe  Fe13  1  0.49250516  0.49430112  0.15900520  1
  Cr  Cr14  1  0.32848037  0.32651289  0.32607018  1
  Ni  Ni15  1  0.32888967  0.65850969  0.99346431  1
  Cr  Cr16  1  0.49393267  0.82255914  0.15716468  1
  Cr  Cr17  1  0.32721492  0.66188924  0.32956458  1
  Cr  Cr18  1  0.65734237  -0.00495525  0.99092836  1
  Cr  Cr19  1  0.82908567  0.16088048  0.16327288  1
  Cr  Cr20  1  0.65859944  -0.00500982  0.32814203  1
  Cr  Cr21  1  0.65974875  0.32722127  0.99339114  1
  Cr  Cr22  1  0.82269486  0.49501383  0.16213789  1
  Fe  Fe23  1  0.65909437  0.32801789  0.32617926  1
  Fe  Fe24  1  0.65862892  0.65871987  0.99329329  1
  Cr  Cr25  1  0.82475345  0.82509657  0.15966782  1
  Fe  Fe26  1  0.65956229  0.65942933  0.32637478  1
  Cr  Cr27  1  0.15955561  0.15976513  0.49410377  1
  Fe  Fe28  1  -0.00551072  0.99238110  0.65948012  1
  Cr  Cr29  1  0.16270726  0.16291974  0.82825269  1
  Cr  Cr30  1  0.16181506  0.49311656  0.49647880  1
  Cr  Cr31  1  0.99323844  0.32939917  0.66285556  1
  Fe  Fe32  1  0.16210938  0.49404884  0.82818205  1
  Ni  Ni33  1  0.15906350  0.82821918  0.49493453  1
  Cr  Cr34  1  -0.00445372  0.65981267  0.66122243  1
  Cr  Cr35  1  0.16120489  0.82670948  0.82812435  1
  Cr  Cr36  1  0.49419593  0.16224404  0.49712125  1
  Cr  Cr37  1  0.32906495  0.99328535  0.65878649  1
  Fe  Fe38  1  0.49217716  0.16007660  0.82678083  1
  Cr  Cr39  1  0.49409027  0.49277205  0.48978192  1
  Fe  Fe40  1  0.32713802  0.32757353  0.66159179  1
  Cr  Cr41  1  0.49040989  0.49312108  0.82913472  1
  Cr  Cr42  1  0.49413122  0.82591859  0.49374376  1
  Cr  Cr43  1  0.32467171  0.66078076  0.65748373  1
  Cr  Cr44  1  0.49378626  0.82665543  0.82953053  1
  Cr  Cr45  1  0.82716180  0.15958548  0.49391765  1
  Fe  Fe46  1  0.66069606  0.99334763  0.66100486  1
  Cr  Cr47  1  0.82723265  0.15881143  0.82382731  1
  Cr  Cr48  1  0.82506261  0.49309361  0.49083669  1
  Cr  Cr49  1  0.65933726  0.32469641  0.66142348  1
  Fe  Fe50  1  0.82692966  0.49399261  0.82751736  1
  Cr  Cr51  1  0.82794499  0.82822370  0.49491372  1
  Cr  Cr52  1  0.66068103  0.65993283  0.66162140  1
  Cr  Cr53  1  0.82594097  0.82703327  0.82654960  1
" 