4725,Ni6Fe10Cr82_11,-205.589735790693, 197.819602469961,Ni6Fe10Cr82,"# generated using pymatgen
 data_Cr46Fe5Ni3
_symmetry_space_group_name_H-M   'P 1'
_cell_length_a   7.58426363
_cell_length_b   7.58426363
_cell_length_c   10.72576849
_cell_angle_alpha   90.00000000
_cell_angle_beta   90.00000000
_cell_angle_gamma   90.00000000
_symmetry_Int_Tables_number   1
_chemical_formula_structural   Cr46Fe5Ni3
_chemical_formula_sum   'Cr46 Fe5 Ni3'
_cell_volume   616.95751686
_cell_formula_units_Z   1
loop_
 _symmetry_equiv_pos_site_id
 _symmetry_equiv_pos_as_xyz
  1  'x, y, z'
loop_
 _atom_site_type_symbol
 _atom_site_label
 _atom_site_symmetry_multiplicity
 _atom_site_fract_x
 _atom_site_fract_y
 _atom_site_fract_z
 _atom_site_occupancy
  Cr  Cr0  1  -0.00762495  0.99145467  0.99174584  1
  Cr  Cr1  1  0.15956334  0.15963050  0.15824718  1
  Cr  Cr2  1  -0.00627141  0.99122109  0.32791572  1
  Cr  Cr3  1  -0.00763518  0.32642462  0.99203440  1
  Cr  Cr4  1  0.15874167  0.49421890  0.15896814  1
  Cr  Cr5  1  -0.00728031  0.32604709  0.32661329  1
  Fe  Fe6  1  -0.00771395  0.65893774  -0.00728433  1
  Cr  Cr7  1  0.15843829  0.82296550  0.15966614  1
  Ni  Ni8  1  -0.00596764  0.65959415  0.32527843  1
  Cr  Cr9  1  0.32531301  0.99191983  0.99186972  1
  Cr  Cr10  1  0.49266844  0.15920470  0.15852445  1
  Cr  Cr11  1  0.32407379  0.99126904  0.32689888  1
  Cr  Cr12  1  0.32561405  0.32625136  0.99216708  1
  Fe  Fe13  1  0.49193414  0.49260547  0.15925851  1
  Cr  Cr14  1  0.32537752  0.32629114  0.32558336  1
  Cr  Cr15  1  0.32531255  0.65864709  -0.00713675  1
  Cr  Cr16  1  0.49182650  0.82535731  0.15944912  1
  Fe  Fe17  1  0.32397424  0.65893372  0.32557017  1
  Cr  Cr18  1  0.65912971  0.99175591  -0.00683647  1
  Cr  Cr19  1  0.82458504  0.15890103  0.15900147  1
  Cr  Cr20  1  0.65901652  0.99200405  0.32420228  1
  Cr  Cr21  1  0.65883904  0.32642324  -0.00653967  1
  Cr  Cr22  1  0.82698490  0.49338350  0.15924746  1
  Cr  Cr23  1  0.65872123  0.32657012  0.32430921  1
  Cr  Cr24  1  0.65930503  0.65863990  0.99178189  1
  Cr  Cr25  1  0.82654954  0.82453128  0.15851704  1
  Cr  Cr26  1  0.65877173  0.65824571  0.32535502  1
  Ni  Ni27  1  0.15846135  0.15728161  0.49306724  1
  Fe  Fe28  1  -0.00700049  -0.00765927  0.65780789  1
  Cr  Cr29  1  0.15904301  0.15904768  0.82526508  1
  Cr  Cr30  1  0.15876627  0.49279671  0.49053990  1
  Cr  Cr31  1  -0.00705714  0.32387469  0.65816718  1
  Cr  Cr32  1  0.15830616  0.49250503  0.82731169  1
  Fe  Fe33  1  0.15811376  0.82641524  0.49144206  1
  Cr  Cr34  1  0.99104631  0.66013257  0.65931739  1
  Cr  Cr35  1  0.15802047  0.82526451  0.82632151  1
  Cr  Cr36  1  0.49094394  0.15864262  0.49233463  1
  Cr  Cr37  1  0.32311121  0.99224297  0.65804953  1
  Cr  Cr38  1  0.49195153  0.15860606  0.82595805  1
  Cr  Cr39  1  0.49210248  0.49357960  0.49248565  1
  Cr  Cr40  1  0.32441618  0.32473412  0.65906051  1
  Cr  Cr41  1  0.49249981  0.49275896  0.82415170  1
  Cr  Cr42  1  0.49183282  0.82459579  0.49277178  1
  Cr  Cr43  1  0.32687897  0.65984256  0.65830547  1
  Cr  Cr44  1  0.49322755  0.82545278  0.82459344  1
  Cr  Cr45  1  0.82728360  0.15835129  0.49256081  1
  Cr  Cr46  1  0.65974830  0.99034729  0.65945023  1
  Cr  Cr47  1  0.82582179  0.15831977  0.82525721  1
  Cr  Cr48  1  0.82594598  0.49368997  0.49267515  1
  Cr  Cr49  1  0.65945992  0.32764493  0.65904284  1
  Cr  Cr50  1  0.82601030  0.49377958  0.82489522  1
  Cr  Cr51  1  0.82650003  0.82477424  0.49296633  1
  Ni  Ni52  1  0.65946287  0.65954407  0.65916806  1
  Cr  Cr53  1  0.82556682  0.82471665  0.82533650  1
" 