586,Ni6Fe10Cr82_2,-205.602008294901, 197.160660532771,Ni6Fe10Cr82,"# generated using pymatgen
 data_Cr46Fe5Ni3
_symmetry_space_group_name_H-M   'P 1'
_cell_length_a   7.58720164
_cell_length_b   7.58720164
_cell_length_c   10.72992346
_cell_angle_alpha   90.00000000
_cell_angle_beta   90.00000000
_cell_angle_gamma   90.00000000
_symmetry_Int_Tables_number   1
_chemical_formula_structural   Cr46Fe5Ni3
_chemical_formula_sum   'Cr46 Fe5 Ni3'
_cell_volume   617.67479070
_cell_formula_units_Z   1
loop_
 _symmetry_equiv_pos_site_id
 _symmetry_equiv_pos_as_xyz
  1  'x, y, z'
loop_
 _atom_site_type_symbol
 _atom_site_label
 _atom_site_symmetry_multiplicity
 _atom_site_fract_x
 _atom_site_fract_y
 _atom_site_fract_z
 _atom_site_occupancy
  Fe  Fe0  1  0.99090945  -0.00741038  0.99158699  1
  Cr  Cr1  1  0.15866953  0.15803376  0.15781103  1
  Cr  Cr2  1  0.99014220  -0.00758654  0.32510067  1
  Cr  Cr3  1  0.99130703  0.32482296  0.99049649  1
  Cr  Cr4  1  0.15822205  0.49182075  0.15924669  1
  Cr  Cr5  1  -0.00694270  0.32558437  0.32684253  1
  Cr  Cr6  1  0.99067196  0.65884247  0.99193542  1
  Cr  Cr7  1  0.15705394  0.82639048  0.15797184  1
  Cr  Cr8  1  -0.00768074  0.65824791  0.32549894  1
  Cr  Cr9  1  0.32516365  -0.00753173  0.99168425  1
  Cr  Cr10  1  0.49163155  0.15891394  0.15869062  1
  Cr  Cr11  1  0.32609714  -0.00758958  0.32539959  1
  Cr  Cr12  1  0.32470854  0.32512494  -0.00681073  1
  Cr  Cr13  1  0.49295138  0.49181189  0.15914719  1
  Cr  Cr14  1  0.32450636  0.32691004  0.32568332  1
  Cr  Cr15  1  0.32545122  0.65865248  0.99168440  1
  Cr  Cr16  1  0.49323680  0.82551889  0.15885134  1
  Cr  Cr17  1  0.32524619  0.65692399  0.32725462  1
  Cr  Cr18  1  0.66042316  0.99183696  -0.00732119  1
  Cr  Cr19  1  0.82594369  0.15775121  0.15928626  1
  Cr  Cr20  1  0.66000607  0.99167333  0.32500646  1
  Cr  Cr21  1  0.66023152  0.32511192  0.98978582  1
  Cr  Cr22  1  0.82507185  0.49342989  0.15829545  1
  Cr  Cr23  1  0.65868201  0.32473430  0.32671086  1
  Cr  Cr24  1  0.66012301  0.65929701  -0.00732333  1
  Fe  Fe25  1  0.82575332  0.82574487  0.15845669  1
  Cr  Cr26  1  0.65867985  0.65984074  0.32391033  1
  Cr  Cr27  1  0.15823670  0.15965816  0.49122397  1
  Cr  Cr28  1  0.99035452  -0.00619071  0.65920875  1
  Cr  Cr29  1  0.15736603  0.15741574  0.82721017  1
  Ni  Ni30  1  0.15933097  0.49166098  0.49165091  1
  Cr  Cr31  1  0.99009753  0.32557961  0.65891080  1
  Cr  Cr32  1  0.15691585  0.49243967  0.82577427  1
  Cr  Cr33  1  0.15868569  0.82429578  0.49295985  1
  Cr  Cr34  1  -0.00746862  0.65685564  0.65881056  1
  Cr  Cr35  1  0.15843309  0.82638915  0.82531201  1
  Cr  Cr36  1  0.49347378  0.15990827  0.49225415  1
  Cr  Cr37  1  0.32606307  0.99163767  0.65916183  1
  Cr  Cr38  1  0.49355305  0.15931125  0.82530113  1
  Fe  Fe39  1  0.49071754  0.49179136  0.49239033  1
  Cr  Cr40  1  0.32547970  0.32690796  0.65737586  1
  Cr  Cr41  1  0.49487749  0.49141575  0.82484524  1
  Cr  Cr42  1  0.49199079  0.82507958  0.49254550  1
  Cr  Cr43  1  0.32521298  0.65769908  0.65730904  1
  Cr  Cr44  1  0.49146334  0.82551918  0.82484859  1
  Fe  Fe45  1  0.82555811  0.15945709  0.49281978  1
  Cr  Cr46  1  0.65982905  -0.00592077  0.65856074  1
  Ni  Ni47  1  0.82521773  0.16078638  0.82464945  1
  Cr  Cr48  1  0.82532090  0.49080595  0.49280957  1
  Fe  Fe49  1  0.66042702  0.32539551  0.65977059  1
  Ni  Ni50  1  0.82460226  0.48945348  0.82490317  1
  Cr  Cr51  1  0.82556852  0.82566064  0.49067383  1
  Cr  Cr52  1  0.65850096  0.65744034  0.65965656  1
  Cr  Cr53  1  0.82634883  0.82506334  0.82659775  1
" 