1254,Ni6Fe9Cr83_14,-205.470534246181, 197.474228216156,Ni6Fe9Cr83,"# generated using pymatgen
 data_Cr46Fe5Ni3
_symmetry_space_group_name_H-M   'P 1'
_cell_length_a   7.58581363
_cell_length_b   7.58581363
_cell_length_c   10.72796052
_cell_angle_alpha   90.00000000
_cell_angle_beta   90.00000000
_cell_angle_gamma   90.00000000
_symmetry_Int_Tables_number   1
_chemical_formula_structural   Cr46Fe5Ni3
_chemical_formula_sum   'Cr46 Fe5 Ni3'
_cell_volume   617.33585818
_cell_formula_units_Z   1
loop_
 _symmetry_equiv_pos_site_id
 _symmetry_equiv_pos_as_xyz
  1  'x, y, z'
loop_
 _atom_site_type_symbol
 _atom_site_label
 _atom_site_symmetry_multiplicity
 _atom_site_fract_x
 _atom_site_fract_y
 _atom_site_fract_z
 _atom_site_occupancy
  Cr  Cr0  1  0.99183786  0.99213144  0.98989807  1
  Cr  Cr1  1  0.15938388  0.15970671  0.15961475  1
  Cr  Cr2  1  0.99108657  -0.00737402  0.32541416  1
  Cr  Cr3  1  0.98970567  0.32686394  -0.00674360  1
  Ni  Ni4  1  0.16029997  0.49259620  0.15865164  1
  Cr  Cr5  1  0.99157664  0.32787934  0.32384227  1
  Cr  Cr6  1  -0.00665340  0.65735032  -0.00584641  1
  Cr  Cr7  1  0.15760389  0.82537780  0.15886932  1
  Cr  Cr8  1  -0.00717574  0.65593290  0.32403246  1
  Cr  Cr9  1  0.32595981  0.98943908  0.99030671  1
  Cr  Cr10  1  0.49250192  0.16099340  0.15885060  1
  Cr  Cr11  1  0.32666921  0.99136914  0.32511342  1
  Cr  Cr12  1  0.32659995  0.32813106  -0.00457994  1
  Ni  Ni13  1  0.49392858  0.49220225  0.15587613  1
  Cr  Cr14  1  0.32588292  0.32874992  0.32362985  1
  Cr  Cr15  1  0.32601748  0.65876772  0.99172885  1
  Cr  Cr16  1  0.49430788  0.82369481  0.15770543  1
  Cr  Cr17  1  0.32560655  0.65655383  0.32410299  1
  Cr  Cr18  1  0.65865467  -0.00659559  0.99005544  1
  Cr  Cr19  1  0.82457125  0.15858864  0.15662722  1
  Cr  Cr20  1  0.65877075  -0.00719194  0.32746228  1
  Ni  Ni21  1  0.65940517  0.32873072  -0.00640874  1
  Fe  Fe22  1  0.82338733  0.49145319  0.15693643  1
  Cr  Cr23  1  0.65901986  0.32684553  0.32461338  1
  Fe  Fe24  1  0.65824747  0.65546365  -0.00632392  1
  Cr  Cr25  1  0.82473387  0.82333701  0.15996060  1
  Cr  Cr26  1  0.65803878  0.65657230  0.32379780  1
  Cr  Cr27  1  0.15967231  0.15912140  0.49100263  1
  Cr  Cr28  1  0.99109374  -0.00756166  0.66130518  1
  Cr  Cr29  1  0.15887554  0.15886339  0.82582095  1
  Cr  Cr30  1  0.15886521  0.49173813  0.49363638  1
  Cr  Cr31  1  0.99034040  0.32482693  0.65953642  1
  Cr  Cr32  1  0.15890471  0.49207945  0.82368340  1
  Cr  Cr33  1  0.15782399  0.82568072  0.49206579  1
  Cr  Cr34  1  -0.00689205  0.65931265  0.65855953  1
  Fe  Fe35  1  0.15923117  0.82458198  0.82587961  1
  Cr  Cr36  1  0.49080790  0.15950067  0.49105770  1
  Cr  Cr37  1  0.32656497  0.98986683  0.66107633  1
  Cr  Cr38  1  0.49274159  0.16058769  0.82665736  1
  Cr  Cr39  1  0.49217903  0.49193748  0.49355954  1
  Cr  Cr40  1  0.32589447  0.32588751  0.65729788  1
  Cr  Cr41  1  0.49390990  0.49221753  0.82636761  1
  Cr  Cr42  1  0.49287149  0.82509299  0.49211575  1
  Cr  Cr43  1  0.32573937  0.66064703  0.66062287  1
  Fe  Fe44  1  0.49243944  0.82447596  0.82617366  1
  Cr  Cr45  1  0.82604302  0.15836674  0.49335704  1
  Cr  Cr46  1  0.65881237  -0.00735524  0.65909509  1
  Fe  Fe47  1  0.82396098  0.16096375  0.82710849  1
  Cr  Cr48  1  0.82542501  0.49385109  0.49311004  1
  Cr  Cr49  1  0.66016279  0.32395739  0.65888650  1
  Cr  Cr50  1  0.82352977  0.49268717  0.82701324  1
  Cr  Cr51  1  0.82582960  0.82432740  0.49017306  1
  Cr  Cr52  1  0.65763772  0.65999985  0.65873589  1
  Cr  Cr53  1  0.82484582  0.82405484  0.82619390  1
" 