3567,Ni6Fe17Cr75_4,-208.463768170698, 195.601464580016,Ni6Fe17Cr75,"# generated using pymatgen
 data_Cr14Fe3Ni
_symmetry_space_group_name_H-M   'P 1'
_cell_length_a   7.57054919
_cell_length_b   7.57054919
_cell_length_c   10.70637334
_cell_angle_alpha   90.00000000
_cell_angle_beta   90.00000000
_cell_angle_gamma   90.00000000
_symmetry_Int_Tables_number   1
_chemical_formula_structural   Cr14Fe3Ni
_chemical_formula_sum   'Cr42 Fe9 Ni3'
_cell_volume   613.61667684
_cell_formula_units_Z   3
loop_
 _symmetry_equiv_pos_site_id
 _symmetry_equiv_pos_as_xyz
  1  'x, y, z'
loop_
 _atom_site_type_symbol
 _atom_site_label
 _atom_site_symmetry_multiplicity
 _atom_site_fract_x
 _atom_site_fract_y
 _atom_site_fract_z
 _atom_site_occupancy
  Fe  Fe0  1  -0.00663345  0.99228737  0.99282579  1
  Cr  Cr1  1  0.15840239  0.15675204  0.15843213  1
  Ni  Ni2  1  0.99094478  -0.00501479  0.32668800  1
  Cr  Cr3  1  -0.00537087  0.32477644  0.99214948  1
  Cr  Cr4  1  0.15998179  0.49526808  0.15833930  1
  Cr  Cr5  1  -0.00543041  0.32541949  0.32829331  1
  Cr  Cr6  1  -0.00677377  0.66067260  0.99148073  1
  Cr  Cr7  1  0.15999062  0.82729920  0.16067229  1
  Cr  Cr8  1  -0.00666259  0.65967942  0.32824493  1
  Cr  Cr9  1  0.32811342  0.99265981  -0.00623909  1
  Cr  Cr10  1  0.49408213  0.16086051  0.16035227  1
  Cr  Cr11  1  0.32734106  0.99295401  0.32529493  1
  Cr  Cr12  1  0.32477200  0.32709403  0.99258107  1
  Cr  Cr13  1  0.49504775  0.49427280  0.15953157  1
  Cr  Cr14  1  0.32566179  0.32776475  0.32728237  1
  Ni  Ni15  1  0.32690619  0.66219601  -0.00548442  1
  Fe  Fe16  1  0.49360718  0.82436589  0.16000882  1
  Cr  Cr17  1  0.32829231  0.65882919  0.32615650  1
  Cr  Cr18  1  0.66103102  0.99132618  0.99309862  1
  Cr  Cr19  1  0.82713157  0.16041469  0.16298447  1
  Cr  Cr20  1  0.66047758  0.99145537  0.32601527  1
  Cr  Cr21  1  0.66002743  0.32464139  -0.00628781  1
  Cr  Cr22  1  0.82445548  0.49301485  0.16044873  1
  Fe  Fe23  1  0.65954413  0.32781103  0.32785159  1
  Cr  Cr24  1  0.65864008  0.66362975  0.99244132  1
  Cr  Cr25  1  0.82861493  0.82597920  0.16051956  1
  Ni  Ni26  1  0.65809693  0.65945109  0.32661389  1
  Cr  Cr27  1  0.15975265  0.15641515  0.49394860  1
  Cr  Cr28  1  0.99138868  -0.00635169  0.66128150  1
  Fe  Fe29  1  0.16019850  0.15872643  0.82639357  1
  Fe  Fe30  1  0.16053234  0.49318562  0.49298133  1
  Cr  Cr31  1  -0.00507044  0.32684637  0.65929350  1
  Cr  Cr32  1  0.16064120  0.49505061  0.82739358  1
  Cr  Cr33  1  0.15949755  0.82798104  0.49247798  1
  Cr  Cr34  1  0.99293310  0.65892840  0.65966808  1
  Cr  Cr35  1  0.15990605  0.82855545  0.82611960  1
  Cr  Cr36  1  0.49438379  0.16106342  0.49426615  1
  Fe  Fe37  1  0.32557578  -0.00670426  0.66010767  1
  Cr  Cr38  1  0.49119980  0.15964234  0.82461378  1
  Fe  Fe39  1  0.49420688  0.49410292  0.49161847  1
  Cr  Cr40  1  0.32444893  0.32672090  0.65942035  1
  Cr  Cr41  1  0.49342462  0.49315692  0.82710257  1
  Cr  Cr42  1  0.49232396  0.82657165  0.49339287  1
  Cr  Cr43  1  0.32614908  0.65807780  0.65694263  1
  Cr  Cr44  1  0.49010654  0.82650024  0.82576726  1
  Fe  Fe45  1  0.82698693  0.15818741  0.49169682  1
  Cr  Cr46  1  0.66018451  0.99192346  0.66102377  1
  Cr  Cr47  1  0.82727875  0.15974769  0.82706151  1
  Cr  Cr48  1  0.82362041  0.49196893  0.49149584  1
  Cr  Cr49  1  0.66016932  0.32581039  0.65795691  1
  Cr  Cr50  1  0.82547812  0.49363195  0.82752706  1
  Cr  Cr51  1  0.82765706  0.82624770  0.49272832  1
  Cr  Cr52  1  0.66045017  0.66192411  0.66125827  1
  Fe  Fe53  1  0.82715086  0.82709525  0.82703299  1
" 