3057,Ni6Fe17Cr75_1,-208.730532985201, 196.438487680558,Ni6Fe17Cr75,"# generated using pymatgen
 data_Cr14Fe3Ni
_symmetry_space_group_name_H-M   'P 1'
_cell_length_a   7.57929968
_cell_length_b   7.57929968
_cell_length_c   10.71874840
_cell_angle_alpha   90.00000000
_cell_angle_beta   90.00000000
_cell_angle_gamma   90.00000000
_symmetry_Int_Tables_number   1
_chemical_formula_structural   Cr14Fe3Ni
_chemical_formula_sum   'Cr42 Fe9 Ni3'
_cell_volume   615.74690177
_cell_formula_units_Z   3
loop_
 _symmetry_equiv_pos_site_id
 _symmetry_equiv_pos_as_xyz
  1  'x, y, z'
loop_
 _atom_site_type_symbol
 _atom_site_label
 _atom_site_symmetry_multiplicity
 _atom_site_fract_x
 _atom_site_fract_y
 _atom_site_fract_z
 _atom_site_occupancy
  Cr  Cr0  1  0.99207570  -0.00616564  0.99256119  1
  Cr  Cr1  1  0.16014380  0.16049283  0.15737499  1
  Cr  Cr2  1  0.99092507  -0.00677964  0.32736412  1
  Fe  Fe3  1  -0.00652632  0.32689248  -0.00649951  1
  Ni  Ni4  1  0.15873756  0.49215937  0.15840722  1
  Cr  Cr5  1  0.99089035  0.32593571  0.32543910  1
  Cr  Cr6  1  0.99249381  0.65816986  -0.00545371  1
  Cr  Cr7  1  0.15889746  0.82465117  0.15963002  1
  Cr  Cr8  1  0.99231878  0.65863245  0.32470031  1
  Fe  Fe9  1  0.32707494  0.99219559  0.99221918  1
  Cr  Cr10  1  0.49386436  0.15883173  0.15967519  1
  Cr  Cr11  1  0.32683078  -0.00740428  0.32699665  1
  Cr  Cr12  1  0.32432980  0.32547730  -0.00527333  1
  Cr  Cr13  1  0.49181807  0.49096994  0.16096397  1
  Cr  Cr14  1  0.32693569  0.32660947  0.32350772  1
  Cr  Cr15  1  0.32635331  0.65911581  -0.00734103  1
  Cr  Cr16  1  0.49345002  0.82798634  0.15882605  1
  Cr  Cr17  1  0.32611910  0.65857734  0.32583546  1
  Fe  Fe18  1  0.65814057  0.99219251  0.99216151  1
  Cr  Cr19  1  0.82377204  0.15885860  0.15981480  1
  Fe  Fe20  1  0.65923636  -0.00565214  0.32667407  1
  Cr  Cr21  1  0.65958333  0.32506862  0.99240219  1
  Cr  Cr22  1  0.82710026  0.49221953  0.15903865  1
  Ni  Ni23  1  0.66069217  0.32477077  0.32833396  1
  Cr  Cr24  1  0.65893844  0.66091658  0.99085499  1
  Cr  Cr25  1  0.82543430  0.82671180  0.15897568  1
  Cr  Cr26  1  0.65935042  0.65852967  0.32700398  1
  Cr  Cr27  1  0.15862697  0.15859916  0.49432861  1
  Cr  Cr28  1  0.99216456  -0.00514369  0.65785842  1
  Cr  Cr29  1  0.15944994  0.15915167  0.82608476  1
  Cr  Cr30  1  0.15776227  0.49306929  0.49348099  1
  Fe  Fe31  1  0.99065959  0.32644475  0.65800450  1
  Cr  Cr32  1  0.15816791  0.49200709  0.82563903  1
  Cr  Cr33  1  0.15954271  0.82611776  0.49252492  1
  Cr  Cr34  1  0.99127328  0.65788955  0.65853407  1
  Cr  Cr35  1  0.16038234  0.82662746  0.82563696  1
  Cr  Cr36  1  0.49514938  0.15974749  0.49064613  1
  Cr  Cr37  1  0.32630099  0.99205035  0.66011429  1
  Cr  Cr38  1  0.49281758  0.15801784  0.82747331  1
  Cr  Cr39  1  0.49551113  0.49141211  0.49234422  1
  Cr  Cr40  1  0.32584805  0.32572853  0.65954680  1
  Cr  Cr41  1  0.49360355  0.49262494  0.82447762  1
  Fe  Fe42  1  0.49335993  0.82578662  0.49221641  1
  Cr  Cr43  1  0.32786582  0.66000513  0.65928813  1
  Fe  Fe44  1  0.49260825  0.82665724  0.82668630  1
  Fe  Fe45  1  0.82472863  0.16230590  0.49207464  1
  Cr  Cr46  1  0.65932271  -0.00716809  0.65923879  1
  Cr  Cr47  1  0.82551417  0.16024114  0.82543953  1
  Ni  Ni48  1  0.82408000  0.48991389  0.49345846  1
  Fe  Fe49  1  0.66118916  0.32642834  0.65758332  1
  Cr  Cr50  1  0.82601280  0.49169911  0.82451901  1
  Cr  Cr51  1  0.82566029  0.82575810  0.49074613  1
  Cr  Cr52  1  0.65865123  0.65833328  0.65991884  1
  Cr  Cr53  1  0.82488715  0.82585184  0.82806294  1
" 