1281,Ni6Fe10Cr82_13,-205.551346978698, 194.70304627719,Ni6Fe10Cr82,"# generated using pymatgen
 data_Cr46Fe5Ni3
_symmetry_space_group_name_H-M   'P 1'
_cell_length_a   7.58497929
_cell_length_b   7.58497929
_cell_length_c   10.72678059
_cell_angle_alpha   90.00000000
_cell_angle_beta   90.00000000
_cell_angle_gamma   90.00000000
_symmetry_Int_Tables_number   1
_chemical_formula_structural   Cr46Fe5Ni3
_chemical_formula_sum   'Cr46 Fe5 Ni3'
_cell_volume   617.13218459
_cell_formula_units_Z   1
loop_
 _symmetry_equiv_pos_site_id
 _symmetry_equiv_pos_as_xyz
  1  'x, y, z'
loop_
 _atom_site_type_symbol
 _atom_site_label
 _atom_site_symmetry_multiplicity
 _atom_site_fract_x
 _atom_site_fract_y
 _atom_site_fract_z
 _atom_site_occupancy
  Cr  Cr0  1  0.99209788  -0.00751924  -0.00714251  1
  Cr  Cr1  1  0.15811977  0.15852693  0.15941239  1
  Cr  Cr2  1  0.99189031  0.99184177  0.32516801  1
  Cr  Cr3  1  0.99173642  0.32612371  0.99143639  1
  Cr  Cr4  1  0.16023206  0.49380850  0.15852959  1
  Cr  Cr5  1  0.99083544  0.32647312  0.32564864  1
  Cr  Cr6  1  -0.00731354  0.65807331  0.99198575  1
  Cr  Cr7  1  0.15907736  0.82433895  0.15738131  1
  Cr  Cr8  1  0.99098900  0.65835481  0.32664973  1
  Cr  Cr9  1  0.32579550  0.99095207  0.99182453  1
  Cr  Cr10  1  0.49402130  0.16018384  0.15976703  1
  Cr  Cr11  1  0.32615618  0.99170851  0.32665791  1
  Cr  Cr12  1  0.32522619  0.32672612  0.99168088  1
  Cr  Cr13  1  0.49192357  0.49216299  0.15888737  1
  Cr  Cr14  1  0.32615869  0.32556557  0.32582186  1
  Ni  Ni15  1  0.32548910  0.65899536  -0.00769948  1
  Cr  Cr16  1  0.49141874  0.82432476  0.15770100  1
  Cr  Cr17  1  0.32615842  0.65939949  0.32469215  1
  Cr  Cr18  1  0.65878708  0.99191695  -0.00766102  1
  Cr  Cr19  1  0.82453127  0.15902546  0.15959954  1
  Cr  Cr20  1  0.65863770  0.99182742  0.32606925  1
  Cr  Cr21  1  0.65971747  0.32612957  0.99177252  1
  Cr  Cr22  1  0.82452168  0.49121118  0.15961922  1
  Ni  Ni23  1  0.65990487  0.32635062  0.32637117  1
  Cr  Cr24  1  0.65818059  0.65863356  0.99146250  1
  Cr  Cr25  1  0.82618070  0.82643605  0.15886436  1
  Cr  Cr26  1  0.65953722  0.65835491  0.32754551  1
  Cr  Cr27  1  0.15883398  0.15844111  0.49248623  1
  Cr  Cr28  1  0.99201639  0.99130243  0.65863096  1
  Cr  Cr29  1  0.15846056  0.15871849  0.82477824  1
  Cr  Cr30  1  0.15775150  0.49324211  0.49234946  1
  Cr  Cr31  1  0.99152470  0.32777668  0.65960911  1
  Cr  Cr32  1  0.15886694  0.49377722  0.82574899  1
  Cr  Cr33  1  0.15799957  0.82500048  0.49270170  1
  Fe  Fe34  1  0.99030721  0.65816999  0.65813401  1
  Cr  Cr35  1  0.15856493  0.82418863  0.82657009  1
  Cr  Cr36  1  0.49322841  0.15921678  0.49150837  1
  Cr  Cr37  1  0.32635016  0.99196682  0.65818806  1
  Cr  Cr38  1  0.49296610  0.15940966  0.82543998  1
  Cr  Cr39  1  0.49428207  0.49245505  0.49136117  1
  Cr  Cr40  1  0.32495374  0.32519169  0.65917144  1
  Cr  Cr41  1  0.49256442  0.49308328  0.82642564  1
  Fe  Fe42  1  0.49345597  0.82482642  0.49253462  1
  Cr  Cr43  1  0.32638119  0.65951200  0.65845633  1
  Cr  Cr44  1  0.49218058  0.82417900  0.82593810  1
  Cr  Cr45  1  0.82460910  0.15947834  0.49046851  1
  Cr  Cr46  1  0.65830782  0.98985170  0.65822117  1
  Cr  Cr47  1  0.82524944  0.15908723  0.82663759  1
  Ni  Ni48  1  0.82413555  0.49428613  0.49331868  1
  Cr  Cr49  1  0.66019855  0.32772630  0.65965454  1
  Fe  Fe50  1  0.82556409  0.49288431  0.82456664  1
  Fe  Fe51  1  0.82499528  0.82353530  0.49285412  1
  Fe  Fe52  1  0.66050252  0.65844177  0.65786093  1
  Cr  Cr53  1  0.82594075  0.82452727  0.82454222  1
" 