7028,Ni6Fe23Cr70_10,-210.572268045815, 196.095429070556,Ni6Fe23Cr70,"# generated using pymatgen
 data_Cr13Fe4Ni
_symmetry_space_group_name_H-M   'P 1'
_cell_length_a   7.55591046
_cell_length_b   7.55591046
_cell_length_c   10.68567105
_cell_angle_alpha   90.00000000
_cell_angle_beta   90.00000000
_cell_angle_gamma   90.00000000
_symmetry_Int_Tables_number   1
_chemical_formula_structural   Cr13Fe4Ni
_chemical_formula_sum   'Cr39 Fe12 Ni3'
_cell_volume   610.06401167
_cell_formula_units_Z   3
loop_
 _symmetry_equiv_pos_site_id
 _symmetry_equiv_pos_as_xyz
  1  'x, y, z'
loop_
 _atom_site_type_symbol
 _atom_site_label
 _atom_site_symmetry_multiplicity
 _atom_site_fract_x
 _atom_site_fract_y
 _atom_site_fract_z
 _atom_site_occupancy
  Fe  Fe0  1  0.99364940  0.99178862  -0.00484231  1
  Cr  Cr1  1  0.16187973  0.15882441  0.16045712  1
  Cr  Cr2  1  0.99276224  0.99059900  0.32503490  1
  Cr  Cr3  1  0.99271029  0.32892480  0.99128191  1
  Cr  Cr4  1  0.16180846  0.49462168  0.16319325  1
  Cr  Cr5  1  0.99241696  0.33015548  0.33000155  1
  Cr  Cr6  1  -0.00544948  0.66357375  -0.00411322  1
  Fe  Fe7  1  0.15773952  0.82677233  0.16077687  1
  Fe  Fe8  1  0.99351064  0.66279334  0.32604797  1
  Cr  Cr9  1  0.32859294  0.99082341  -0.00464770  1
  Fe  Fe10  1  0.49529270  0.15917786  0.16000540  1
  Cr  Cr11  1  0.32995280  0.99169795  0.32624578  1
  Cr  Cr12  1  0.32793753  0.32715990  0.99347236  1
  Cr  Cr13  1  0.49391743  0.49484013  0.15928303  1
  Cr  Cr14  1  0.32849507  0.32670441  0.32763176  1
  Cr  Cr15  1  0.32547328  0.66428432  0.99021764  1
  Cr  Cr16  1  0.49608168  0.82595239  0.15973482  1
  Cr  Cr17  1  0.32485423  0.66380390  0.32938280  1
  Fe  Fe18  1  0.66138753  0.99051153  -0.00579890  1
  Cr  Cr19  1  0.82901215  0.15721804  0.15845694  1
  Cr  Cr20  1  0.65973033  0.99388189  0.32745175  1
  Cr  Cr21  1  0.66187372  0.32494519  -0.00339199  1
  Cr  Cr22  1  0.82637437  0.49877805  0.16136853  1
  Cr  Cr23  1  0.66176606  0.32484237  0.32584955  1
  Fe  Fe24  1  0.66063804  0.66466389  -0.00580048  1
  Ni  Ni25  1  0.82840244  0.82818588  0.15873144  1
  Cr  Cr26  1  0.66245887  0.66358846  0.32788124  1
  Cr  Cr27  1  0.16002487  0.16054580  0.49495949  1
  Fe  Fe28  1  -0.00523153  0.99237923  0.66117410  1
  Cr  Cr29  1  0.15916829  0.15845292  0.82678941  1
  Fe  Fe30  1  0.16108967  0.49585577  0.49383555  1
  Cr  Cr31  1  0.99361930  0.32967428  0.66150311  1
  Fe  Fe32  1  0.16086146  0.49607603  0.82762502  1
  Cr  Cr33  1  0.16031296  0.82842405  0.49185830  1
  Cr  Cr34  1  -0.00428418  0.66049315  0.66052308  1
  Fe  Fe35  1  0.16117212  0.82820820  0.82723015  1
  Cr  Cr36  1  0.49285291  0.15894512  0.49326809  1
  Cr  Cr37  1  0.33029096  0.98994609  0.66045702  1
  Cr  Cr38  1  0.49374627  0.15872100  0.82872283  1
  Cr  Cr39  1  0.49366957  0.49756497  0.49428473  1
  Cr  Cr40  1  0.32625744  0.32924554  0.66152474  1
  Cr  Cr41  1  0.49482666  0.49830752  0.82878171  1
  Ni  Ni42  1  0.49503167  0.82595045  0.49710973  1
  Cr  Cr43  1  0.32715106  0.66378718  0.66278796  1
  Ni  Ni44  1  0.49566164  0.82634095  0.82653632  1
  Cr  Cr45  1  0.82963593  0.15810280  0.49787645  1
  Fe  Fe46  1  0.65906564  0.99029309  0.66099289  1
  Cr  Cr47  1  0.82974504  0.15688303  0.82599793  1
  Cr  Cr48  1  0.82736013  0.49682183  0.49268840  1
  Cr  Cr49  1  0.66224073  0.32595218  0.65982413  1
  Cr  Cr50  1  0.82500337  0.49684415  0.82845214  1
  Cr  Cr51  1  0.82579362  0.82729102  0.49569086  1
  Fe  Fe52  1  0.65862500  0.66383164  0.66087249  1
  Cr  Cr53  1  0.82550137  0.82840993  0.82718226  1
" 