5698,Ni6Fe20Cr72_13,-210.044135982524, 193.548681066672,Ni6Fe20Cr72,"# generated using pymatgen
 data_Cr40Fe11Ni3
_symmetry_space_group_name_H-M   'P 1'
_cell_length_a   7.56709224
_cell_length_b   7.56709224
_cell_length_c   10.70148447
_cell_angle_alpha   90.00000000
_cell_angle_beta   90.00000000
_cell_angle_gamma   90.00000000
_symmetry_Int_Tables_number   1
_chemical_formula_structural   Cr40Fe11Ni3
_chemical_formula_sum   'Cr40 Fe11 Ni3'
_cell_volume   612.77647131
_cell_formula_units_Z   1
loop_
 _symmetry_equiv_pos_site_id
 _symmetry_equiv_pos_as_xyz
  1  'x, y, z'
loop_
 _atom_site_type_symbol
 _atom_site_label
 _atom_site_symmetry_multiplicity
 _atom_site_fract_x
 _atom_site_fract_y
 _atom_site_fract_z
 _atom_site_occupancy
  Cr  Cr0  1  0.99180139  -0.00649072  -0.00571491  1
  Cr  Cr1  1  0.16088671  0.16095182  0.15868006  1
  Cr  Cr2  1  0.99128221  -0.00345545  0.32601475  1
  Cr  Cr3  1  0.99221395  0.32845456  0.99155149  1
  Cr  Cr4  1  0.15865170  0.49296261  0.15799873  1
  Cr  Cr5  1  0.99040740  0.32522186  0.32804384  1
  Fe  Fe6  1  0.99124771  0.65780225  0.99116619  1
  Cr  Cr7  1  0.15869867  0.82621855  0.16100475  1
  Cr  Cr8  1  0.99270100  0.65820103  0.32441403  1
  Cr  Cr9  1  0.32687113  -0.00600139  -0.00600111  1
  Fe  Fe10  1  0.49580983  0.16288020  0.15883294  1
  Cr  Cr11  1  0.32668060  -0.00597657  0.32709681  1
  Fe  Fe12  1  0.32947084  0.32741585  -0.00568600  1
  Fe  Fe13  1  0.49531762  0.49068123  0.15864300  1
  Cr  Cr14  1  0.32730910  0.32807069  0.32478948  1
  Cr  Cr15  1  0.32607279  0.65754446  -0.00656961  1
  Cr  Cr16  1  0.49421358  0.82693521  0.16090013  1
  Cr  Cr17  1  0.32778717  0.65813682  0.32766509  1
  Cr  Cr18  1  0.66162284  -0.00536833  0.99166668  1
  Fe  Fe19  1  0.82446600  0.16281544  0.15907953  1
  Cr  Cr20  1  0.66231596  -0.00409952  0.32717817  1
  Ni  Ni21  1  0.66111450  0.32885573  -0.00218054  1
  Fe  Fe22  1  0.82509013  0.49103906  0.15847891  1
  Fe  Fe23  1  0.66067742  0.32610007  0.32386847  1
  Cr  Cr24  1  0.66180158  0.65781298  0.99148930  1
  Cr  Cr25  1  0.82723201  0.82461372  0.15772986  1
  Cr  Cr26  1  0.65956009  0.65734548  0.32555179  1
  Cr  Cr27  1  0.15851714  0.16159891  0.49500412  1
  Cr  Cr28  1  0.99176330  -0.00535002  0.65916666  1
  Cr  Cr29  1  0.16037684  0.16236356  0.82680834  1
  Cr  Cr30  1  0.15707400  0.49315581  0.49644432  1
  Fe  Fe31  1  0.99183363  0.33036206  0.66200360  1
  Fe  Fe32  1  0.15674548  0.49399768  0.82641223  1
  Cr  Cr33  1  0.15816798  0.82587704  0.49095580  1
  Ni  Ni34  1  0.99212737  0.65709370  0.66486785  1
  Cr  Cr35  1  0.15738625  0.82547352  0.82811710  1
  Cr  Cr36  1  0.49485568  0.16142491  0.49377845  1
  Cr  Cr37  1  0.32665926  -0.00651982  0.65953873  1
  Cr  Cr38  1  0.49380627  0.16211601  0.82944802  1
  Cr  Cr39  1  0.49544220  0.49200520  0.49163030  1
  Cr  Cr40  1  0.32440133  0.32842303  0.66233249  1
  Cr  Cr41  1  0.49586506  0.49071778  0.82814588  1
  Cr  Cr42  1  0.49453383  0.82670167  0.49409680  1
  Cr  Cr43  1  0.32563829  0.65840154  0.65876945  1
  Cr  Cr44  1  0.49449962  0.82720241  0.82499377  1
  Fe  Fe45  1  0.82635071  0.16094140  0.49383438  1
  Cr  Cr46  1  0.66174504  0.99333527  0.66105846  1
  Cr  Cr47  1  0.82610442  0.16328678  0.82578019  1
  Cr  Cr48  1  0.82728227  0.49227692  0.49349793  1
  Cr  Cr49  1  0.66246023  0.32727428  0.65899533  1
  Ni  Ni50  1  0.82992719  0.49437820  0.82813311  1
  Cr  Cr51  1  0.82759798  0.82486002  0.49489657  1
  Cr  Cr52  1  0.66196969  0.65917063  0.66209537  1
  Fe  Fe53  1  0.82859762  0.82379648  0.82653554  1
" 