228,Ni6Fe17Cr75_11,-208.630513544258, 201.422668050512,Ni6Fe17Cr75,"# generated using pymatgen
 data_Cr14Fe3Ni
_symmetry_space_group_name_H-M   'P 1'
_cell_length_a   7.57582158
_cell_length_b   7.57582158
_cell_length_c   10.71382963
_cell_angle_alpha   90.00000000
_cell_angle_beta   90.00000000
_cell_angle_gamma   90.00000000
_symmetry_Int_Tables_number   1
_chemical_formula_structural   Cr14Fe3Ni
_chemical_formula_sum   'Cr42 Fe9 Ni3'
_cell_volume   614.89960209
_cell_formula_units_Z   3
loop_
 _symmetry_equiv_pos_site_id
 _symmetry_equiv_pos_as_xyz
  1  'x, y, z'
loop_
 _atom_site_type_symbol
 _atom_site_label
 _atom_site_symmetry_multiplicity
 _atom_site_fract_x
 _atom_site_fract_y
 _atom_site_fract_z
 _atom_site_occupancy
  Fe  Fe0  1  0.99281055  0.99281474  0.99275967  1
  Cr  Cr1  1  0.15768440  0.15795499  0.16047068  1
  Fe  Fe2  1  0.99212075  -0.00717285  0.32621305  1
  Cr  Cr3  1  0.99250842  0.32583721  -0.00714507  1
  Cr  Cr4  1  0.16141323  0.49388213  0.15925380  1
  Cr  Cr5  1  -0.00639164  0.32558859  0.32686832  1
  Cr  Cr6  1  -0.00667822  0.66024283  0.99270057  1
  Cr  Cr7  1  0.15874570  0.82662645  0.15784574  1
  Cr  Cr8  1  0.99229107  0.65982744  0.32634847  1
  Cr  Cr9  1  0.32653981  -0.00679815  0.98965139  1
  Cr  Cr10  1  0.49450695  0.16064004  0.15951698  1
  Cr  Cr11  1  0.32760075  0.99266272  0.32898840  1
  Cr  Cr12  1  0.32733989  0.32608263  -0.00681961  1
  Cr  Cr13  1  0.49241265  0.49282802  0.15777488  1
  Cr  Cr14  1  0.32514773  0.32589404  0.32581788  1
  Fe  Fe15  1  0.32614410  0.65949693  0.99280697  1
  Cr  Cr16  1  0.49239644  0.82499524  0.16027153  1
  Cr  Cr17  1  0.32684668  0.65990463  0.32531370  1
  Cr  Cr18  1  0.65967587  -0.00598819  0.99239266  1
  Cr  Cr19  1  0.82627291  0.15797067  0.16004707  1
  Fe  Fe20  1  0.65935256  0.99195895  0.32699295  1
  Fe  Fe21  1  0.65865956  0.32530280  0.99152966  1
  Cr  Cr22  1  0.82463766  0.49176845  0.15884271  1
  Cr  Cr23  1  0.65970551  0.32484171  0.32473566  1
  Cr  Cr24  1  0.65942910  0.65943849  -0.00714438  1
  Cr  Cr25  1  0.82732290  0.82872514  0.16038965  1
  Cr  Cr26  1  0.65932312  0.66227966  0.32766967  1
  Cr  Cr27  1  0.15895365  0.15887721  0.49278992  1
  Cr  Cr28  1  -0.00651007  0.99256262  0.66057537  1
  Cr  Cr29  1  0.16020972  0.15787121  0.82520819  1
  Cr  Cr30  1  0.15848520  0.49256054  0.49357954  1
  Fe  Fe31  1  0.99113950  0.32684388  0.65948271  1
  Cr  Cr32  1  0.15913258  0.49398987  0.82562585  1
  Cr  Cr33  1  0.16062555  0.82702338  0.49327558  1
  Fe  Fe34  1  0.99165043  0.65831636  0.65951139  1
  Cr  Cr35  1  0.15960181  0.82660237  0.82733787  1
  Cr  Cr36  1  0.49322162  0.15788526  0.49325209  1
  Fe  Fe37  1  0.32831648  -0.00670387  0.65949280  1
  Ni  Ni38  1  0.49371265  0.16054218  0.82543323  1
  Cr  Cr39  1  0.49425448  0.49412400  0.49308471  1
  Cr  Cr40  1  0.32640694  0.32392595  0.65946265  1
  Cr  Cr41  1  0.49465378  0.49118043  0.82759555  1
  Ni  Ni42  1  0.49333487  0.82667536  0.49317394  1
  Cr  Cr43  1  0.32635376  0.66122103  0.65865143  1
  Cr  Cr44  1  0.49143069  0.82664773  0.82540146  1
  Cr  Cr45  1  0.82628584  0.16001349  0.49139776  1
  Cr  Cr46  1  0.65672336  0.99261460  0.65911208  1
  Cr  Cr47  1  0.82462254  0.16109568  0.82702185  1
  Cr  Cr48  1  0.82571727  0.49245694  0.49660539  1
  Ni  Ni49  1  0.66001558  0.32637507  0.66143172  1
  Cr  Cr50  1  0.82467274  0.49179351  0.82301758  1
  Cr  Cr51  1  0.82472120  0.82598980  0.49188096  1
  Fe  Fe52  1  0.65935153  0.65867073  0.65863919  1
  Cr  Cr53  1  0.82743069  0.82557220  0.82619901  1
" 