4472,Ni6Fe20Cr73_17,-210.007315379515, 196.562685489444,Ni6Fe20Cr73,"# generated using pymatgen
 data_Cr40Fe11Ni3
_symmetry_space_group_name_H-M   'P 1'
_cell_length_a   7.56828054
_cell_length_b   7.56828054
_cell_length_c   10.70316499
_cell_angle_alpha   90.00000000
_cell_angle_beta   90.00000000
_cell_angle_gamma   90.00000000
_symmetry_Int_Tables_number   1
_chemical_formula_structural   Cr40Fe11Ni3
_chemical_formula_sum   'Cr40 Fe11 Ni3'
_cell_volume   613.06519989
_cell_formula_units_Z   1
loop_
 _symmetry_equiv_pos_site_id
 _symmetry_equiv_pos_as_xyz
  1  'x, y, z'
loop_
 _atom_site_type_symbol
 _atom_site_label
 _atom_site_symmetry_multiplicity
 _atom_site_fract_x
 _atom_site_fract_y
 _atom_site_fract_z
 _atom_site_occupancy
  Cr  Cr0  1  -0.00567589  -0.00631042  0.99295615  1
  Cr  Cr1  1  0.16117822  0.16055392  0.16010478  1
  Cr  Cr2  1  -0.00485053  0.99236582  0.32599419  1
  Fe  Fe3  1  0.99158161  0.32742326  -0.00663503  1
  Cr  Cr4  1  0.15846438  0.49331464  0.16035918  1
  Cr  Cr5  1  -0.00585813  0.32862746  0.32892535  1
  Fe  Fe6  1  0.99288696  0.65876452  0.99323119  1
  Cr  Cr7  1  0.15977065  0.82606703  0.16053832  1
  Fe  Fe8  1  0.99319206  0.65820116  0.32848253  1
  Cr  Cr9  1  0.32451863  0.99292271  -0.00508847  1
  Cr  Cr10  1  0.49281875  0.16042438  0.16212299  1
  Fe  Fe11  1  0.32708732  -0.00549321  0.32702706  1
  Cr  Cr12  1  0.32800296  0.32761006  0.99307955  1
  Cr  Cr13  1  0.49390802  0.49181732  0.15837859  1
  Fe  Fe14  1  0.32617688  0.32632630  0.32784949  1
  Cr  Cr15  1  0.32682709  0.65940198  0.99077783  1
  Cr  Cr16  1  0.49273107  0.82769377  0.16103299  1
  Cr  Cr17  1  0.32507511  0.65933733  0.32712528  1
  Cr  Cr18  1  0.66109342  -0.00513972  0.99265329  1
  Cr  Cr19  1  0.82593907  0.16173191  0.15671969  1
  Cr  Cr20  1  0.65870139  -0.00601494  0.32797174  1
  Ni  Ni21  1  0.66116010  0.32828809  0.99292687  1
  Cr  Cr22  1  0.82756093  0.49322271  0.15851921  1
  Cr  Cr23  1  0.65909932  0.32761754  0.32689807  1
  Cr  Cr24  1  0.65956346  0.65668218  0.99307863  1
  Cr  Cr25  1  0.82743500  0.82497801  0.16021452  1
  Cr  Cr26  1  0.66161163  0.65833548  0.32697275  1
  Cr  Cr27  1  0.16222376  0.16328367  0.49321481  1
  Cr  Cr28  1  0.99296417  -0.00547352  0.66098501  1
  Cr  Cr29  1  0.15894198  0.16225435  0.82662483  1
  Ni  Ni30  1  0.15915286  0.49190314  0.49400934  1
  Fe  Fe31  1  -0.00593853  0.32841166  0.65813381  1
  Cr  Cr32  1  0.16060619  0.49265630  0.82560756  1
  Cr  Cr33  1  0.16082514  0.82429078  0.49212121  1
  Cr  Cr34  1  -0.00561381  0.65832175  0.65698222  1
  Cr  Cr35  1  0.16081259  0.82502854  0.82727101  1
  Fe  Fe36  1  0.49255369  0.16086517  0.49332617  1
  Cr  Cr37  1  0.32673070  -0.00628316  0.65993796  1
  Cr  Cr38  1  0.49459014  0.16103311  0.82580874  1
  Cr  Cr39  1  0.49134405  0.49204939  0.49426993  1
  Fe  Fe40  1  0.32568597  0.32832388  0.65916407  1
  Fe  Fe41  1  0.49345703  0.49241484  0.82679604  1
  Cr  Cr42  1  0.49351319  0.82872291  0.49398345  1
  Fe  Fe43  1  0.32614538  0.65799512  0.65948046  1
  Cr  Cr44  1  0.49340637  0.82555349  0.82491890  1
  Cr  Cr45  1  0.82528205  0.16111836  0.49586713  1
  Fe  Fe46  1  0.65964291  -0.00638789  0.65960092  1
  Cr  Cr47  1  0.82640055  0.16125159  0.82734726  1
  Ni  Ni48  1  0.82958030  0.49270895  0.49298749  1
  Cr  Cr49  1  0.65955529  0.32716247  0.65918279  1
  Cr  Cr50  1  0.82692916  0.49147348  0.82940525  1
  Cr  Cr51  1  0.82559834  0.82537139  0.49323582  1
  Cr  Cr52  1  0.65874741  0.65883670  0.65988819  1
  Cr  Cr53  1  0.82571304  0.82721360  0.82648222  1
" 