706,Ni6Fe20Cr72_1,-209.912918291161, 191.807950822221,Ni6Fe20Cr72,"# generated using pymatgen
 data_Cr40Fe11Ni3
_symmetry_space_group_name_H-M   'P 1'
_cell_length_a   7.56439364
_cell_length_b   7.56439364
_cell_length_c   10.69766807
_cell_angle_alpha   90.00000000
_cell_angle_beta   90.00000000
_cell_angle_gamma   90.00000000
_symmetry_Int_Tables_number   1
_chemical_formula_structural   Cr40Fe11Ni3
_chemical_formula_sum   'Cr40 Fe11 Ni3'
_cell_volume   612.12111399
_cell_formula_units_Z   1
loop_
 _symmetry_equiv_pos_site_id
 _symmetry_equiv_pos_as_xyz
  1  'x, y, z'
loop_
 _atom_site_type_symbol
 _atom_site_label
 _atom_site_symmetry_multiplicity
 _atom_site_fract_x
 _atom_site_fract_y
 _atom_site_fract_z
 _atom_site_occupancy
  Fe  Fe0  1  -0.00505474  -0.00451925  -0.00533346  1
  Fe  Fe1  1  0.16006255  0.15963884  0.16043972  1
  Cr  Cr2  1  -0.00514986  -0.00617943  0.32734181  1
  Ni  Ni3  1  0.99286209  0.32375210  -0.00478886  1
  Cr  Cr4  1  0.16029512  0.49283852  0.15970197  1
  Cr  Cr5  1  0.99245489  0.32795519  0.32601565  1
  Cr  Cr6  1  -0.00607542  0.65963186  -0.00490863  1
  Cr  Cr7  1  0.15983418  0.82642571  0.16264469  1
  Ni  Ni8  1  -0.00528538  0.66078958  0.32932209  1
  Cr  Cr9  1  0.32688630  0.99351405  0.99333245  1
  Fe  Fe10  1  0.49217434  0.15944361  0.16296825  1
  Fe  Fe11  1  0.32653986  -0.00588354  0.32658112  1
  Cr  Cr12  1  0.32591941  0.32498273  -0.00287546  1
  Cr  Cr13  1  0.49205987  0.49310743  0.16019492  1
  Fe  Fe14  1  0.32577709  0.32627243  0.32584812  1
  Cr  Cr15  1  0.32952422  0.66208964  0.98999290  1
  Cr  Cr16  1  0.49448494  0.82767112  0.16017047  1
  Cr  Cr17  1  0.32632163  0.66074485  0.32884532  1
  Cr  Cr18  1  0.65879247  0.99292468  -0.00592484  1
  Cr  Cr19  1  0.82668086  0.15866342  0.15855804  1
  Fe  Fe20  1  0.66021434  -0.00618539  0.32602323  1
  Cr  Cr21  1  0.66089845  0.32628944  0.99353444  1
  Cr  Cr22  1  0.82800870  0.49458147  0.15901531  1
  Cr  Cr23  1  0.65939099  0.32611071  0.32851991  1
  Fe  Fe24  1  0.65996781  0.65938770  -0.00632808  1
  Cr  Cr25  1  0.82704658  0.82705493  0.16068584  1
  Cr  Cr26  1  0.66179156  0.65866786  0.32607173  1
  Cr  Cr27  1  0.16163544  0.15914134  0.49322322  1
  Cr  Cr28  1  -0.00532120  0.99237210  0.66032814  1
  Cr  Cr29  1  0.15890773  0.16173473  0.82879209  1
  Cr  Cr30  1  0.16131753  0.49432352  0.49226180  1
  Cr  Cr31  1  0.99144106  0.32812521  0.66007700  1
  Cr  Cr32  1  0.15973857  0.49219960  0.82890991  1
  Ni  Ni33  1  0.16113691  0.82548288  0.49106345  1
  Cr  Cr34  1  0.99354720  0.66093381  0.65503103  1
  Cr  Cr35  1  0.15905908  0.82675464  0.82556320  1
  Cr  Cr36  1  0.49359720  0.16140197  0.49166556  1
  Cr  Cr37  1  0.32622346  0.99172179  0.66085870  1
  Cr  Cr38  1  0.49411382  0.16113706  0.82426731  1
  Fe  Fe39  1  0.49400578  0.49439545  0.49359919  1
  Cr  Cr40  1  0.32770085  0.32797490  0.65915568  1
  Cr  Cr41  1  0.49366473  0.49372657  0.82669910  1
  Cr  Cr42  1  0.49301016  0.82843003  0.49280803  1
  Cr  Cr43  1  0.32712716  0.66172868  0.66114257  1
  Fe  Fe44  1  0.49507201  0.82732345  0.82724706  1
  Cr  Cr45  1  0.82486611  0.16036464  0.49709999  1
  Cr  Cr46  1  0.65985690  0.99300995  0.66082939  1
  Cr  Cr47  1  0.82743605  0.16019461  0.82589064  1
  Fe  Fe48  1  0.82676333  0.49441240  0.49222408  1
  Fe  Fe49  1  0.65963598  0.32912121  0.65876241  1
  Cr  Cr50  1  0.82738307  0.49305963  0.82812196  1
  Cr  Cr51  1  0.82767316  0.82729892  0.48977616  1
  Cr  Cr52  1  0.66020931  0.65902831  0.66083290  1
  Cr  Cr53  1  0.82631329  0.82736988  0.83065831  1
" 