2245,Ni6Fe61Cr31_14,-221.121547833363, 167.710611014727,Ni6Fe61Cr31,"# generated using pymatgen
 data_Cr6Fe11Ni
_symmetry_space_group_name_H-M   'P 1'
_cell_length_a   7.49099350
_cell_length_b   7.49099350
_cell_length_c   10.59386461
_cell_angle_alpha   90.00000000
_cell_angle_beta   90.00000000
_cell_angle_gamma   90.00000000
_symmetry_Int_Tables_number   1
_chemical_formula_structural   Cr6Fe11Ni
_chemical_formula_sum   'Cr18 Fe33 Ni3'
_cell_volume   594.47453937
_cell_formula_units_Z   3
loop_
 _symmetry_equiv_pos_site_id
 _symmetry_equiv_pos_as_xyz
  1  'x, y, z'
loop_
 _atom_site_type_symbol
 _atom_site_label
 _atom_site_symmetry_multiplicity
 _atom_site_fract_x
 _atom_site_fract_y
 _atom_site_fract_z
 _atom_site_occupancy
  Fe  Fe0  1  -0.00100787  0.99787839  0.99781574  1
  Fe  Fe1  1  0.16397211  0.16618358  0.16515549  1
  Fe  Fe2  1  0.99579530  -0.00050936  0.33171098  1
  Cr  Cr3  1  -0.00148723  0.33253578  0.00009286  1
  Fe  Fe4  1  0.16325648  0.49801862  0.16443140  1
  Fe  Fe5  1  0.99710814  0.33123218  0.33049666  1
  Fe  Fe6  1  0.99780369  0.66594737  0.99793470  1
  Cr  Cr7  1  0.16362811  0.83245742  0.16365927  1
  Fe  Fe8  1  0.99705119  0.66448305  0.33170379  1
  Cr  Cr9  1  0.33169666  -0.00090756  -0.00156294  1
  Fe  Fe10  1  0.49986557  0.16435450  0.16547680  1
  Cr  Cr11  1  0.33542070  -0.00145361  0.33070486  1
  Fe  Fe12  1  0.33333189  0.33189043  0.99807860  1
  Cr  Cr13  1  0.49983473  0.49778737  0.16267229  1
  Cr  Cr14  1  0.32918644  0.33151191  0.33097705  1
  Fe  Fe15  1  0.33265670  0.66415542  0.99713496  1
  Fe  Fe16  1  0.49986926  0.83213402  0.16549793  1
  Cr  Cr17  1  0.33110497  0.66514631  0.33269349  1
  Cr  Cr18  1  0.66422740  0.99749544  0.99819707  1
  Fe  Fe19  1  0.83136883  0.16576756  0.16638982  1
  Ni  Ni20  1  0.66656336  -0.00118244  0.33357943  1
  Fe  Fe21  1  0.66345866  0.33307343  0.99781083  1
  Fe  Fe22  1  0.83250437  0.49802337  0.16577127  1
  Fe  Fe23  1  0.66638796  0.32934493  0.33133844  1
  Fe  Fe24  1  0.66474997  0.66357468  0.99678618  1
  Cr  Cr25  1  0.83252008  0.83245363  0.16617074  1
  Fe  Fe26  1  0.66589314  0.66693483  0.33183458  1
  Cr  Cr27  1  0.16307827  0.16464666  0.50007705  1
  Fe  Fe28  1  0.99826812  0.99750037  0.66568117  1
  Fe  Fe29  1  0.16608325  0.16396571  0.83108727  1
  Fe  Fe30  1  0.16375651  0.49932743  0.49943943  1
  Fe  Fe31  1  -0.00121015  0.33240745  0.66516896  1
  Cr  Cr32  1  0.16739231  0.50026594  0.82986649  1
  Cr  Cr33  1  0.16419126  0.83084892  0.50030427  1
  Fe  Fe34  1  -0.00031672  0.66529416  0.66556027  1
  Fe  Fe35  1  0.16524998  0.83155514  0.83082904  1
  Fe  Fe36  1  0.50100015  0.16248283  0.49795568  1
  Fe  Fe37  1  0.33308170  0.99658795  0.66615539  1
  Fe  Fe38  1  0.49719803  0.16599575  0.83177927  1
  Cr  Cr39  1  0.49770554  0.49890877  0.49806677  1
  Cr  Cr40  1  0.33027299  0.33168783  0.66553954  1
  Ni  Ni41  1  0.49858254  0.49937836  0.83426409  1
  Fe  Fe42  1  0.50003291  0.83341072  0.49889584  1
  Ni  Ni43  1  0.33033628  0.66724496  0.66580812  1
  Fe  Fe44  1  0.49747610  0.83006857  0.83082060  1
  Fe  Fe45  1  0.83080680  0.16306466  0.49763582  1
  Fe  Fe46  1  0.66385425  0.99748569  0.66407646  1
  Cr  Cr47  1  0.83244031  0.16386651  0.83018103  1
  Cr  Cr48  1  0.83252105  0.49779699  0.49714053  1
  Cr  Cr49  1  0.66619433  0.33003078  0.66654789  1
  Fe  Fe50  1  0.83044742  0.49997578  0.83217886  1
  Fe  Fe51  1  0.83081949  0.83377839  0.49727475  1
  Cr  Cr52  1  0.66519111  0.66777535  0.66686214  1
  Fe  Fe53  1  0.83247671  0.83000824  0.83194208  1
" 