1201,Ni6Fe20Cr72_0,-209.756496738539, 195.794714941095,Ni6Fe20Cr72,"# generated using pymatgen
 data_Cr40Fe11Ni3
_symmetry_space_group_name_H-M   'P 1'
_cell_length_a   7.56229746
_cell_length_b   7.56229746
_cell_length_c   10.69470363
_cell_angle_alpha   90.00000000
_cell_angle_beta   90.00000000
_cell_angle_gamma   90.00000000
_symmetry_Int_Tables_number   1
_chemical_formula_structural   Cr40Fe11Ni3
_chemical_formula_sum   'Cr40 Fe11 Ni3'
_cell_volume   611.61237825
_cell_formula_units_Z   1
loop_
 _symmetry_equiv_pos_site_id
 _symmetry_equiv_pos_as_xyz
  1  'x, y, z'
loop_
 _atom_site_type_symbol
 _atom_site_label
 _atom_site_symmetry_multiplicity
 _atom_site_fract_x
 _atom_site_fract_y
 _atom_site_fract_z
 _atom_site_occupancy
  Cr  Cr0  1  -0.00606831  -0.00609500  -0.00535571  1
  Cr  Cr1  1  0.16157644  0.16167762  0.15930539  1
  Cr  Cr2  1  0.99322879  -0.00605829  0.32739585  1
  Fe  Fe3  1  -0.00586555  0.32839932  0.99329090  1
  Fe  Fe4  1  0.16176566  0.49231976  0.15990670  1
  Cr  Cr5  1  -0.00545357  0.32717899  0.32830858  1
  Cr  Cr6  1  0.99350569  0.65895538  -0.00543177  1
  Cr  Cr7  1  0.16058038  0.82674057  0.16173459  1
  Cr  Cr8  1  -0.00480852  0.65998489  0.32542098  1
  Fe  Fe9  1  0.32701859  -0.00467095  0.99364842  1
  Cr  Cr10  1  0.49218866  0.16135971  0.15929947  1
  Fe  Fe11  1  0.32701845  0.99368428  0.32709652  1
  Ni  Ni12  1  0.32643997  0.32635314  -0.00550960  1
  Cr  Cr13  1  0.49219547  0.49268820  0.16077712  1
  Fe  Fe14  1  0.32662913  0.32744549  0.32609277  1
  Cr  Cr15  1  0.32601033  0.65850758  -0.00621301  1
  Cr  Cr16  1  0.49318777  0.82706022  0.16173378  1
  Fe  Fe17  1  0.32663183  0.65997795  0.32665023  1
  Cr  Cr18  1  0.66006060  -0.00528995  -0.00570568  1
  Cr  Cr19  1  0.82734001  0.16069253  0.15886078  1
  Cr  Cr20  1  0.66076360  -0.00526469  0.32774592  1
  Fe  Fe21  1  0.66033384  0.32801531  0.99282286  1
  Cr  Cr22  1  0.82766054  0.49368574  0.15841879  1
  Cr  Cr23  1  0.65975861  0.32607578  0.32867475  1
  Cr  Cr24  1  0.66159151  0.65925774  0.99266541  1
  Fe  Fe25  1  0.82695943  0.82711086  0.16037351  1
  Cr  Cr26  1  0.65991448  0.66029538  0.32732644  1
  Cr  Cr27  1  0.15918171  0.16147200  0.49446351  1
  Cr  Cr28  1  0.99363723  -0.00434761  0.65906461  1
  Cr  Cr29  1  0.16082558  0.16172180  0.82734620  1
  Cr  Cr30  1  0.16059426  0.49266535  0.49314536  1
  Fe  Fe31  1  0.99230675  0.32743918  0.65986432  1
  Cr  Cr32  1  0.15874921  0.49137994  0.82718529  1
  Cr  Cr33  1  0.16115068  0.82697036  0.49301700  1
  Cr  Cr34  1  0.99332453  0.65809255  0.66110942  1
  Cr  Cr35  1  0.16095831  0.82800646  0.82636193  1
  Cr  Cr36  1  0.49385468  0.16115796  0.49255606  1
  Cr  Cr37  1  0.32673449  -0.00528875  0.66195010  1
  Cr  Cr38  1  0.49221923  0.16141569  0.82925806  1
  Cr  Cr39  1  0.49324140  0.49377051  0.49277704  1
  Fe  Fe40  1  0.32625159  0.32704169  0.66088357  1
  Cr  Cr41  1  0.49509196  0.49248028  0.82755523  1
  Cr  Cr42  1  0.49299841  0.82617869  0.49266816  1
  Cr  Cr43  1  0.32672678  0.65935404  0.66097188  1
  Cr  Cr44  1  0.49318996  0.82721355  0.82671135  1
  Ni  Ni45  1  0.82788178  0.16225297  0.49434968  1
  Cr  Cr46  1  0.66073429  -0.00467451  0.65906477  1
  Cr  Cr47  1  0.82806055  0.16362551  0.82769315  1
  Fe  Fe48  1  0.82744564  0.49151686  0.49452151  1
  Cr  Cr49  1  0.66199217  0.32735497  0.65930021  1
  Ni  Ni50  1  0.82763702  0.49189652  0.82692950  1
  Cr  Cr51  1  0.82695846  0.82758630  0.49313750  1
  Cr  Cr52  1  0.66105621  0.65842454  0.66110998  1
  Cr  Cr53  1  0.82695865  0.82513088  0.82759593  1
" 