3714,Ni6Fe61Cr31_9,-221.528190193694, 160.81420805595,Ni6Fe61Cr31,"# generated using pymatgen
 data_Cr6Fe11Ni
_symmetry_space_group_name_H-M   'P 1'
_cell_length_a   7.50279901
_cell_length_b   7.50279901
_cell_length_c   10.61056012
_cell_angle_alpha   90.00000000
_cell_angle_beta   90.00000000
_cell_angle_gamma   90.00000000
_symmetry_Int_Tables_number   1
_chemical_formula_structural   Cr6Fe11Ni
_chemical_formula_sum   'Cr18 Fe33 Ni3'
_cell_volume   597.28957592
_cell_formula_units_Z   3
loop_
 _symmetry_equiv_pos_site_id
 _symmetry_equiv_pos_as_xyz
  1  'x, y, z'
loop_
 _atom_site_type_symbol
 _atom_site_label
 _atom_site_symmetry_multiplicity
 _atom_site_fract_x
 _atom_site_fract_y
 _atom_site_fract_z
 _atom_site_occupancy
  Fe  Fe0  1  0.99260927  -0.00054424  -0.00062923  1
  Fe  Fe1  1  0.16057760  0.16416119  0.16278562  1
  Fe  Fe2  1  0.99462875  -0.00099286  0.32952449  1
  Ni  Ni3  1  0.99725238  0.32700876  -0.00208619  1
  Cr  Cr4  1  0.16217768  0.49848847  0.16251619  1
  Fe  Fe5  1  0.99582025  0.32835113  0.32903475  1
  Fe  Fe6  1  0.99492653  0.66302270  0.99671166  1
  Cr  Cr7  1  0.16407427  0.83383282  0.16298676  1
  Fe  Fe8  1  0.99612591  0.66570068  0.33036109  1
  Fe  Fe9  1  0.33437807  0.00112595  -0.00122135  1
  Fe  Fe10  1  0.49900296  0.15997685  0.16514088  1
  Fe  Fe11  1  0.33335581  0.99761563  0.32986744  1
  Fe  Fe12  1  0.33095927  0.32944174  -0.00144249  1
  Cr  Cr13  1  0.50003976  0.49674133  0.16695576  1
  Cr  Cr14  1  0.33012817  0.33060747  0.32925865  1
  Cr  Cr15  1  0.33311211  0.66438312  0.99735269  1
  Fe  Fe16  1  0.50111694  0.83349716  0.16538565  1
  Fe  Fe17  1  0.33238602  0.66564229  0.33119215  1
  Fe  Fe18  1  0.66611320  -0.00152937  -0.00093071  1
  Ni  Ni19  1  0.83012867  0.16260222  0.16577187  1
  Fe  Fe20  1  0.66538515  -0.00224063  0.32954750  1
  Cr  Cr21  1  0.66502485  0.32829368  0.00016819  1
  Cr  Cr22  1  0.83072932  0.49824414  0.16480274  1
  Fe  Fe23  1  0.66574538  0.32716340  0.33007763  1
  Cr  Cr24  1  0.66485722  0.66671062  0.99670519  1
  Ni  Ni25  1  0.83124814  0.83362398  0.16440556  1
  Fe  Fe26  1  0.66435663  0.66788011  0.33031423  1
  Cr  Cr27  1  0.16347796  0.16416555  0.49750345  1
  Cr  Cr28  1  0.99282219  -0.00084690  0.66244580  1
  Cr  Cr29  1  0.16571995  0.16380591  0.83220526  1
  Fe  Fe30  1  0.16323046  0.49656517  0.49601451  1
  Fe  Fe31  1  0.99686926  0.33194023  0.66581257  1
  Fe  Fe32  1  0.16336217  0.49557702  0.83327578  1
  Cr  Cr33  1  0.16397458  0.83130520  0.49432020  1
  Cr  Cr34  1  0.99725907  0.66457999  0.66621897  1
  Cr  Cr35  1  0.16289696  0.83243713  0.83485288  1
  Cr  Cr36  1  0.50020302  0.16477483  0.49975954  1
  Cr  Cr37  1  0.33199684  0.99582008  0.66377823  1
  Fe  Fe38  1  0.50000634  0.16386160  0.83060137  1
  Fe  Fe39  1  0.49773017  0.49827681  0.49592251  1
  Fe  Fe40  1  0.33083650  0.33202019  0.66482209  1
  Fe  Fe41  1  0.49797311  0.49522554  0.83037497  1
  Fe  Fe42  1  0.50141960  0.82986272  0.49572732  1
  Cr  Cr43  1  0.33224122  0.66201792  0.66226505  1
  Fe  Fe44  1  0.49943859  0.83312114  0.83068381  1
  Fe  Fe45  1  0.83006807  0.16377254  0.49519992  1
  Fe  Fe46  1  0.66484510  0.99590777  0.66538902  1
  Fe  Fe47  1  0.83057723  0.16416349  0.83258010  1
  Cr  Cr48  1  0.82838520  0.49670591  0.49550766  1
  Fe  Fe49  1  0.66538718  0.33133112  0.66646050  1
  Fe  Fe50  1  0.83228875  0.49503079  0.83208572  1
  Fe  Fe51  1  0.82809179  0.83219797  0.49498593  1
  Fe  Fe52  1  0.66476565  0.66563420  0.66554686  1
  Fe  Fe53  1  0.82921572  0.83328070  0.83244620  1
" 