8580,Ni6Fe10Cr82_4,-205.450052412123, 197.080527089448,Ni6Fe10Cr82,"# generated using pymatgen
 data_Cr46Fe5Ni3
_symmetry_space_group_name_H-M   'P 1'
_cell_length_a   7.58521016
_cell_length_b   7.58521016
_cell_length_c   10.72710708
_cell_angle_alpha   90.00000000
_cell_angle_beta   90.00000000
_cell_angle_gamma   90.00000000
_symmetry_Int_Tables_number   1
_chemical_formula_structural   Cr46Fe5Ni3
_chemical_formula_sum   'Cr46 Fe5 Ni3'
_cell_volume   617.18853713
_cell_formula_units_Z   1
loop_
 _symmetry_equiv_pos_site_id
 _symmetry_equiv_pos_as_xyz
  1  'x, y, z'
loop_
 _atom_site_type_symbol
 _atom_site_label
 _atom_site_symmetry_multiplicity
 _atom_site_fract_x
 _atom_site_fract_y
 _atom_site_fract_z
 _atom_site_occupancy
  Cr  Cr0  1  0.98967361  -0.00676811  -0.00712790  1
  Cr  Cr1  1  0.15717451  0.15926409  0.16006765  1
  Cr  Cr2  1  0.99158267  -0.00659033  0.32414877  1
  Cr  Cr3  1  0.98966290  0.32500291  -0.00630144  1
  Cr  Cr4  1  0.15930560  0.49209174  0.15928127  1
  Cr  Cr5  1  0.99037421  0.32556102  0.32453785  1
  Cr  Cr6  1  0.99103853  0.65839837  0.99150501  1
  Cr  Cr7  1  0.15843176  0.82527681  0.16014594  1
  Cr  Cr8  1  0.99102899  0.65766092  0.32692490  1
  Cr  Cr9  1  0.32764206  0.99190414  -0.00763013  1
  Cr  Cr10  1  0.49528922  0.15927078  0.15789433  1
  Cr  Cr11  1  0.32619411  0.99208137  0.32513471  1
  Cr  Cr12  1  0.32677411  0.32545671  0.99150499  1
  Cr  Cr13  1  0.49304491  0.49196162  0.15714486  1
  Cr  Cr14  1  0.32532793  0.32481293  0.32551648  1
  Cr  Cr15  1  0.32672595  0.65927212  0.99104533  1
  Cr  Cr16  1  0.49391229  0.82539996  0.15800710  1
  Cr  Cr17  1  0.32599927  0.65973858  0.32616638  1
  Ni  Ni18  1  0.65982162  -0.00587214  -0.00739104  1
  Ni  Ni19  1  0.82355770  0.15879095  0.15681606  1
  Cr  Cr20  1  0.65885616  -0.00726193  0.32436501  1
  Ni  Ni21  1  0.66003772  0.32350416  -0.00760188  1
  Cr  Cr22  1  0.82428212  0.49070988  0.15797264  1
  Cr  Cr23  1  0.66093124  0.32536935  0.32644712  1
  Fe  Fe24  1  0.65887588  0.65888222  0.99216982  1
  Cr  Cr25  1  0.82428845  0.82752773  0.15714368  1
  Cr  Cr26  1  0.65960509  0.65852680  0.32658139  1
  Cr  Cr27  1  0.15819268  0.15848954  0.49239719  1
  Fe  Fe28  1  0.99147610  0.99217432  0.65886827  1
  Cr  Cr29  1  0.15814677  0.15852618  0.82416549  1
  Cr  Cr30  1  0.15838614  0.49241119  0.49099036  1
  Cr  Cr31  1  0.99017789  0.32535572  0.65839726  1
  Cr  Cr32  1  0.15955454  0.49234031  0.82636119  1
  Cr  Cr33  1  0.15752032  0.82573185  0.49220531  1
  Cr  Cr34  1  0.99071534  0.65883220  0.65820588  1
  Cr  Cr35  1  0.15747623  0.82576558  0.82427863  1
  Cr  Cr36  1  0.49362592  0.15970016  0.49360825  1
  Cr  Cr37  1  0.32614476  -0.00756279  0.65912930  1
  Cr  Cr38  1  0.49503225  0.15973803  0.82513470  1
  Cr  Cr39  1  0.49343890  0.49120599  0.49220374  1
  Cr  Cr40  1  0.32648454  0.32449735  0.65961207  1
  Cr  Cr41  1  0.49351906  0.49101815  0.82728704  1
  Cr  Cr42  1  0.49309178  0.82572753  0.49172008  1
  Cr  Cr43  1  0.32595827  0.65969857  0.65942115  1
  Cr  Cr44  1  0.49438601  0.82587695  0.82690354  1
  Cr  Cr45  1  0.82481501  0.15883557  0.49436307  1
  Fe  Fe46  1  0.65966129  -0.00704938  0.65937304  1
  Cr  Cr47  1  0.82345268  0.15766488  0.82523900  1
  Fe  Fe48  1  0.82515546  0.49183182  0.49263234  1
  Fe  Fe49  1  0.65923358  0.32523554  0.65898955  1
  Cr  Cr50  1  0.82355738  0.49168738  0.82626835  1
  Cr  Cr51  1  0.82602169  0.82591973  0.49360758  1
  Cr  Cr52  1  0.65995959  0.65848734  0.65768415  1
  Cr  Cr53  1  0.82477072  0.82728115  0.82587806  1
" 