3186,Ni6Fe61Cr31_12,-221.138730690964, 156.010904721164,Ni6Fe61Cr31,"# generated using pymatgen
 data_Cr6Fe11Ni
_symmetry_space_group_name_H-M   'P 1'
_cell_length_a   7.50633258
_cell_length_b   7.50633258
_cell_length_c   10.61555734
_cell_angle_alpha   90.00000000
_cell_angle_beta   90.00000000
_cell_angle_gamma   90.00000000
_symmetry_Int_Tables_number   1
_chemical_formula_structural   Cr6Fe11Ni
_chemical_formula_sum   'Cr18 Fe33 Ni3'
_cell_volume   598.13388443
_cell_formula_units_Z   3
loop_
 _symmetry_equiv_pos_site_id
 _symmetry_equiv_pos_as_xyz
  1  'x, y, z'
loop_
 _atom_site_type_symbol
 _atom_site_label
 _atom_site_symmetry_multiplicity
 _atom_site_fract_x
 _atom_site_fract_y
 _atom_site_fract_z
 _atom_site_occupancy
  Cr  Cr0  1  0.99619980  -0.00176044  0.99676040  1
  Fe  Fe1  1  0.16406433  0.16514884  0.16449303  1
  Cr  Cr2  1  -0.00112090  -0.00208020  0.33216155  1
  Fe  Fe3  1  0.99685489  0.33130627  -0.00225548  1
  Fe  Fe4  1  0.16151168  0.49604396  0.16344684  1
  Fe  Fe5  1  0.99704357  0.33111270  0.32982306  1
  Cr  Cr6  1  -0.00200526  0.66266030  0.99692399  1
  Cr  Cr7  1  0.16737411  0.83145298  0.16275429  1
  Cr  Cr8  1  0.99501676  0.66268815  0.33151671  1
  Fe  Fe9  1  0.33195650  0.99727681  0.99690382  1
  Fe  Fe10  1  0.49751989  0.16281810  0.16462930  1
  Ni  Ni11  1  0.33040384  -0.00087674  0.33112425  1
  Cr  Cr12  1  0.32967282  0.33057649  0.99669454  1
  Cr  Cr13  1  0.49870676  0.49766077  0.16552972  1
  Cr  Cr14  1  0.33011305  0.32893993  0.33136736  1
  Fe  Fe15  1  0.33016160  0.66453416  0.99584065  1
  Cr  Cr16  1  0.49530775  0.83272968  0.16313319  1
  Cr  Cr17  1  0.33137783  0.66396221  0.33196826  1
  Fe  Fe18  1  0.66297530  -0.00154147  0.99643799  1
  Fe  Fe19  1  0.83056254  0.16700009  0.16415498  1
  Cr  Cr20  1  0.66314083  0.99664771  0.32831084  1
  Cr  Cr21  1  0.66434472  0.32878592  0.99684705  1
  Ni  Ni22  1  0.83236593  0.49279982  0.16613592  1
  Fe  Fe23  1  0.66567964  0.33235171  0.33015594  1
  Cr  Cr24  1  0.66443347  0.66517707  0.99701481  1
  Cr  Cr25  1  0.82946368  0.83011339  0.16432598  1
  Fe  Fe26  1  0.66446341  0.66258392  0.33172450  1
  Fe  Fe27  1  0.16448686  0.16252939  0.49690375  1
  Fe  Fe28  1  -0.00253774  0.99653025  0.66460305  1
  Fe  Fe29  1  0.16404602  0.16296891  0.83076077  1
  Fe  Fe30  1  0.16350763  0.49760027  0.49795044  1
  Cr  Cr31  1  -0.00253565  0.33071300  0.66528673  1
  Fe  Fe32  1  0.16410020  0.49846707  0.83075834  1
  Fe  Fe33  1  0.16503083  0.83202170  0.49838741  1
  Fe  Fe34  1  0.99696448  0.66437802  0.66403573  1
  Fe  Fe35  1  0.16513154  0.83071321  0.82983862  1
  Cr  Cr36  1  0.49678495  0.16397510  0.49755587  1
  Fe  Fe37  1  0.33057751  0.99656414  0.66397832  1
  Fe  Fe38  1  0.49836575  0.16290585  0.82960199  1
  Fe  Fe39  1  0.49960489  0.49837071  0.49826275  1
  Cr  Cr40  1  0.33259197  0.33124250  0.66408762  1
  Fe  Fe41  1  0.49776662  0.49798437  0.82933376  1
  Fe  Fe42  1  0.49706000  0.83023303  0.49777377  1
  Fe  Fe43  1  0.33112474  0.66429845  0.66392186  1
  Fe  Fe44  1  0.49679106  0.83126189  0.83043957  1
  Cr  Cr45  1  0.83135005  0.16586258  0.49810211  1
  Fe  Fe46  1  0.66410905  -0.00246475  0.66501590  1
  Fe  Fe47  1  0.82973727  0.16394100  0.82956027  1
  Fe  Fe48  1  0.82903524  0.49782911  0.49720698  1
  Ni  Ni49  1  0.66338199  0.33235454  0.66528929  1
  Fe  Fe50  1  0.83028534  0.49689430  0.82979661  1
  Fe  Fe51  1  0.83005798  0.82925908  0.49885338  1
  Fe  Fe52  1  0.66405986  0.66283378  0.66417834  1
  Fe  Fe53  1  0.83022643  0.83131378  0.82928669  1
" 