4442,Ni6Fe20Cr73_7,-209.885357102973, 191.435092127784,Ni6Fe20Cr73,"# generated using pymatgen
 data_Cr40Fe11Ni3
_symmetry_space_group_name_H-M   'P 1'
_cell_length_a   7.57207450
_cell_length_b   7.57207450
_cell_length_c   10.70853046
_cell_angle_alpha   90.00000000
_cell_angle_beta   90.00000000
_cell_angle_gamma   90.00000000
_symmetry_Int_Tables_number   1
_chemical_formula_structural   Cr40Fe11Ni3
_chemical_formula_sum   'Cr40 Fe11 Ni3'
_cell_volume   613.98764636
_cell_formula_units_Z   1
loop_
 _symmetry_equiv_pos_site_id
 _symmetry_equiv_pos_as_xyz
  1  'x, y, z'
loop_
 _atom_site_type_symbol
 _atom_site_label
 _atom_site_symmetry_multiplicity
 _atom_site_fract_x
 _atom_site_fract_y
 _atom_site_fract_z
 _atom_site_occupancy
  Cr  Cr0  1  0.99140695  0.99174201  -0.00667698  1
  Cr  Cr1  1  0.16018295  0.15952517  0.16116209  1
  Cr  Cr2  1  0.99113270  0.99117373  0.32624649  1
  Cr  Cr3  1  -0.00661480  0.32869049  -0.00679385  1
  Cr  Cr4  1  0.16145083  0.49272475  0.15761600  1
  Cr  Cr5  1  -0.00690414  0.33093636  0.32896664  1
  Cr  Cr6  1  -0.00650706  0.65920434  -0.00672782  1
  Cr  Cr7  1  0.15933382  0.82625578  0.16157630  1
  Ni  Ni8  1  -0.00657442  0.65866562  0.32617661  1
  Cr  Cr9  1  0.32931247  0.99304580  -0.00434205  1
  Fe  Fe10  1  0.49230046  0.16035518  0.16089102  1
  Fe  Fe11  1  0.32681904  0.99105058  0.32499810  1
  Fe  Fe12  1  0.32731391  0.32551363  -0.00686977  1
  Cr  Cr13  1  0.49529279  0.49413702  0.15979415  1
  Cr  Cr14  1  0.32638819  0.32710318  0.32668617  1
  Cr  Cr15  1  0.32537631  0.65929817  0.99014404  1
  Fe  Fe16  1  0.49175409  0.82542906  0.16177591  1
  Fe  Fe17  1  0.32391601  0.65827778  0.32634402  1
  Cr  Cr18  1  0.65832561  -0.00689250  -0.00656842  1
  Cr  Cr19  1  0.82815058  0.16075431  0.15882840  1
  Cr  Cr20  1  0.65702082  0.99208603  0.32368388  1
  Cr  Cr21  1  0.65852983  0.32435252  -0.00560294  1
  Fe  Fe22  1  0.82824856  0.49515571  0.16250595  1
  Cr  Cr23  1  0.66118763  0.32639674  0.32726980  1
  Cr  Cr24  1  0.66067456  0.66154977  -0.00241977  1
  Fe  Fe25  1  0.82671416  0.82350503  0.16201703  1
  Fe  Fe26  1  0.66350953  0.65899615  0.32528935  1
  Cr  Cr27  1  0.15948235  0.15911352  0.48991291  1
  Cr  Cr28  1  0.99270570  -0.00654739  0.66099733  1
  Cr  Cr29  1  0.15895377  0.16070174  0.82853083  1
  Ni  Ni30  1  0.15879336  0.49621752  0.49127187  1
  Cr  Cr31  1  -0.00634861  0.32976627  0.65624375  1
  Fe  Fe32  1  0.15869114  0.49240101  0.82646082  1
  Cr  Cr33  1  0.15967065  0.82646787  0.49131824  1
  Cr  Cr34  1  -0.00539404  0.65716484  0.65919011  1
  Cr  Cr35  1  0.15938689  0.82799954  0.82572380  1
  Cr  Cr36  1  0.49235133  0.15971086  0.49243475  1
  Cr  Cr37  1  0.32754590  0.99281927  0.65793820  1
  Fe  Fe38  1  0.49228496  0.15987075  0.82683806  1
  Cr  Cr39  1  0.49463929  0.49456725  0.49269026  1
  Cr  Cr40  1  0.32452254  0.32780475  0.66023256  1
  Cr  Cr41  1  0.49293111  0.49125598  0.82731908  1
  Cr  Cr42  1  0.49277093  0.82423142  0.49092357  1
  Cr  Cr43  1  0.32349139  0.65808855  0.65959436  1
  Cr  Cr44  1  0.49369369  0.82346036  0.82479069  1
  Cr  Cr45  1  0.82679576  0.16007331  0.49559249  1
  Cr  Cr46  1  0.65855070  -0.00571969  0.66276240  1
  Fe  Fe47  1  0.82592103  0.16139167  0.82672314  1
  Ni  Ni48  1  0.82860103  0.49627302  0.48915555  1
  Cr  Cr49  1  0.66064987  0.32597203  0.65832091  1
  Cr  Cr50  1  0.82359407  0.49265258  0.82734809  1
  Cr  Cr51  1  0.82628126  0.82536851  0.49327945  1
  Cr  Cr52  1  0.66083071  0.65887514  0.65745141  1
  Cr  Cr53  1  0.82636390  0.82648904  0.82648713  1
" 