801,Ni6Fe10Cr82_19,-205.561401371594, 198.969277217236,Ni6Fe10Cr82,"# generated using pymatgen
 data_Cr46Fe5Ni3
_symmetry_space_group_name_H-M   'P 1'
_cell_length_a   7.58436791
_cell_length_b   7.58436791
_cell_length_c   10.72591595
_cell_angle_alpha   90.00000000
_cell_angle_beta   90.00000000
_cell_angle_gamma   90.00000000
_symmetry_Int_Tables_number   1
_chemical_formula_structural   Cr46Fe5Ni3
_chemical_formula_sum   'Cr46 Fe5 Ni3'
_cell_volume   616.98296484
_cell_formula_units_Z   1
loop_
 _symmetry_equiv_pos_site_id
 _symmetry_equiv_pos_as_xyz
  1  'x, y, z'
loop_
 _atom_site_type_symbol
 _atom_site_label
 _atom_site_symmetry_multiplicity
 _atom_site_fract_x
 _atom_site_fract_y
 _atom_site_fract_z
 _atom_site_occupancy
  Cr  Cr0  1  0.99187840  -0.00768752  0.99124476  1
  Cr  Cr1  1  0.15776942  0.16031941  0.15815548  1
  Cr  Cr2  1  0.99119011  -0.00600035  0.32445861  1
  Cr  Cr3  1  0.99133993  0.32525949  -0.00507131  1
  Cr  Cr4  1  0.15701369  0.49128252  0.15821881  1
  Fe  Fe5  1  0.99146573  0.32649301  0.32474977  1
  Cr  Cr6  1  0.99112597  0.65922496  0.99200022  1
  Cr  Cr7  1  0.15959240  0.82519721  0.15891986  1
  Cr  Cr8  1  -0.00735533  0.65711460  0.32519435  1
  Cr  Cr9  1  0.32484609  -0.00671636  0.99225879  1
  Cr  Cr10  1  0.49354121  0.15805567  0.15799745  1
  Cr  Cr11  1  0.32583654  0.99181341  0.32559480  1
  Fe  Fe12  1  0.32559714  0.32559630  0.99225427  1
  Cr  Cr13  1  0.49307030  0.49232132  0.15707366  1
  Cr  Cr14  1  0.32515519  0.32674017  0.32743283  1
  Cr  Cr15  1  0.32560004  0.65825224  -0.00698966  1
  Cr  Cr16  1  0.49276162  0.82642007  0.16023014  1
  Cr  Cr17  1  0.32543420  0.65824247  0.32780450  1
  Cr  Cr18  1  0.66007342  -0.00693430  -0.00728418  1
  Ni  Ni19  1  0.82538459  0.16092245  0.16046478  1
  Fe  Fe20  1  0.65972087  -0.00691743  0.32476573  1
  Cr  Cr21  1  0.65909497  0.32601328  -0.00654284  1
  Ni  Ni22  1  0.82627137  0.48960151  0.15945221  1
  Cr  Cr23  1  0.66089826  0.32528317  0.32469440  1
  Cr  Cr24  1  0.66007050  0.65771868  0.99199956  1
  Cr  Cr25  1  0.82444410  0.82566415  0.15942181  1
  Cr  Cr26  1  0.65871634  0.65779268  0.32509672  1
  Cr  Cr27  1  0.15837748  0.16131444  0.49249951  1
  Cr  Cr28  1  0.99202380  0.99153954  0.66109231  1
  Cr  Cr29  1  0.15972513  0.15951337  0.82614489  1
  Ni  Ni30  1  0.15955398  0.49179302  0.49195078  1
  Cr  Cr31  1  -0.00727081  0.32565824  0.65707011  1
  Cr  Cr32  1  0.15897187  0.49168250  0.82650040  1
  Cr  Cr33  1  0.15958190  0.82375023  0.49221282  1
  Cr  Cr34  1  -0.00757545  0.65960023  0.65960662  1
  Cr  Cr35  1  0.15777836  0.82560141  0.82566414  1
  Cr  Cr36  1  0.49308666  0.15842590  0.49249038  1
  Cr  Cr37  1  0.32478341  -0.00740474  0.65894243  1
  Cr  Cr38  1  0.49157432  0.15932900  0.82631459  1
  Fe  Fe39  1  0.49059914  0.49225085  0.49226176  1
  Cr  Cr40  1  0.32618959  0.32671084  0.65786847  1
  Cr  Cr41  1  0.49214894  0.49168869  0.82617953  1
  Cr  Cr42  1  0.49292326  0.82558941  0.49073697  1
  Cr  Cr43  1  0.32543832  0.65748940  0.65597668  1
  Cr  Cr44  1  0.49353097  0.82577955  0.82583204  1
  Cr  Cr45  1  0.82533316  0.15933635  0.49087661  1
  Cr  Cr46  1  0.65998902  -0.00770829  0.65969114  1
  Cr  Cr47  1  0.82549650  0.15813582  0.82430969  1
  Cr  Cr48  1  0.82717949  0.49157053  0.49193575  1
  Cr  Cr49  1  0.65787785  0.32631124  0.65863404  1
  Cr  Cr50  1  0.82567450  0.49363884  0.82564392  1
  Cr  Cr51  1  0.82429125  0.82589146  0.49304273  1
  Cr  Cr52  1  0.65893379  0.65819458  0.65970057  1
  Fe  Fe53  1  0.82559164  0.82558994  0.82557076  1
" 