5397,Ni6Fe20Cr72_4,-209.999661340119, 194.526279928333,Ni6Fe20Cr72,"# generated using pymatgen
 data_Cr40Fe11Ni3
_symmetry_space_group_name_H-M   'P 1'
_cell_length_a   7.56872243
_cell_length_b   7.56872243
_cell_length_c   10.70378991
_cell_angle_alpha   90.00000000
_cell_angle_beta   90.00000000
_cell_angle_gamma   90.00000000
_symmetry_Int_Tables_number   1
_chemical_formula_structural   Cr40Fe11Ni3
_chemical_formula_sum   'Cr40 Fe11 Ni3'
_cell_volume   613.17259096
_cell_formula_units_Z   1
loop_
 _symmetry_equiv_pos_site_id
 _symmetry_equiv_pos_as_xyz
  1  'x, y, z'
loop_
 _atom_site_type_symbol
 _atom_site_label
 _atom_site_symmetry_multiplicity
 _atom_site_fract_x
 _atom_site_fract_y
 _atom_site_fract_z
 _atom_site_occupancy
  Cr  Cr0  1  -0.00635592  0.99270077  -0.00655628  1
  Cr  Cr1  1  0.15941438  0.16092409  0.16064933  1
  Fe  Fe2  1  -0.00633612  0.99304465  0.32696417  1
  Cr  Cr3  1  -0.00663017  0.32698509  0.99252373  1
  Cr  Cr4  1  0.16017661  0.49274422  0.16038134  1
  Fe  Fe5  1  0.99327984  0.32647933  0.32661779  1
  Cr  Cr6  1  0.99112536  0.66016021  0.99241243  1
  Cr  Cr7  1  0.16038001  0.82617979  0.16290377  1
  Fe  Fe8  1  -0.00634165  0.66032628  0.32701514  1
  Cr  Cr9  1  0.32849351  -0.00551459  0.99232945  1
  Fe  Fe10  1  0.49363360  0.15958880  0.15969926  1
  Cr  Cr11  1  0.32474152  0.99213901  0.32603648  1
  Cr  Cr12  1  0.32760151  0.32403908  0.99291868  1
  Cr  Cr13  1  0.49299289  0.49488905  0.16107847  1
  Cr  Cr14  1  0.32826360  0.32717283  0.32583875  1
  Cr  Cr15  1  0.32805015  0.66132051  0.99279640  1
  Cr  Cr16  1  0.49485279  0.82611727  0.15809903  1
  Fe  Fe17  1  0.32675837  0.65995757  0.32739071  1
  Fe  Fe18  1  0.65832620  0.99143341  0.99200179  1
  Cr  Cr19  1  0.82675312  0.15906240  0.16141675  1
  Cr  Cr20  1  0.66062544  -0.00620604  0.32516737  1
  Cr  Cr21  1  0.65888113  0.32655205  -0.00540530  1
  Cr  Cr22  1  0.82667980  0.49391727  0.15964963  1
  Cr  Cr23  1  0.65955915  0.32796960  0.32704694  1
  Ni  Ni24  1  0.65947153  0.66184831  0.99328305  1
  Cr  Cr25  1  0.82461224  0.82687054  0.15913223  1
  Fe  Fe26  1  0.65943419  0.65957385  0.32653409  1
  Cr  Cr27  1  0.15831413  0.15974513  0.49302020  1
  Cr  Cr28  1  -0.00638594  0.99226926  0.65884784  1
  Fe  Fe29  1  0.16113648  0.15950964  0.82663465  1
  Cr  Cr30  1  0.16128394  0.49408588  0.49198496  1
  Cr  Cr31  1  0.99290701  0.32649473  0.66148904  1
  Cr  Cr32  1  0.16021710  0.49125508  0.82748307  1
  Fe  Fe33  1  0.15949893  0.82629956  0.49211302  1
  Cr  Cr34  1  -0.00653555  0.66108208  0.66037000  1
  Cr  Cr35  1  0.16213833  0.82713035  0.82588009  1
  Cr  Cr36  1  0.49423826  0.15976792  0.49506068  1
  Cr  Cr37  1  0.32742643  0.99296910  0.66149064  1
  Fe  Fe38  1  0.49376031  0.15696327  0.82602797  1
  Fe  Fe39  1  0.49332320  0.49394577  0.49248498  1
  Cr  Cr40  1  0.32805809  0.32571635  0.66109773  1
  Cr  Cr41  1  0.49270078  0.49517057  0.82627493  1
  Cr  Cr42  1  0.49315123  0.82499922  0.49404341  1
  Cr  Cr43  1  0.32680015  0.66115971  0.65845434  1
  Ni  Ni44  1  0.49520686  0.82919981  0.82742122  1
  Cr  Cr45  1  0.82729765  0.15888235  0.49345670  1
  Ni  Ni46  1  0.65844734  0.99323902  0.66205523  1
  Cr  Cr47  1  0.82588907  0.15842353  0.82497363  1
  Cr  Cr48  1  0.82628295  0.49300332  0.49241281  1
  Cr  Cr49  1  0.65888792  0.32586703  0.65820967  1
  Cr  Cr50  1  0.82693033  0.49354615  0.82778868  1
  Cr  Cr51  1  0.82630731  0.82796643  0.49301081  1
  Cr  Cr52  1  0.65958298  0.66044803  0.65958321  1
  Cr  Cr53  1  0.82198574  0.82787947  0.82769939  1
" 