6510,Ni6Fe23Cr70_14,-210.561061274875, 194.976217433305,Ni6Fe23Cr70,"# generated using pymatgen
 data_Cr13Fe4Ni
_symmetry_space_group_name_H-M   'P 1'
_cell_length_a   7.56251394
_cell_length_b   7.56251394
_cell_length_c   10.69500978
_cell_angle_alpha   90.00000000
_cell_angle_beta   90.00000000
_cell_angle_gamma   90.00000000
_symmetry_Int_Tables_number   1
_chemical_formula_structural   Cr13Fe4Ni
_chemical_formula_sum   'Cr39 Fe12 Ni3'
_cell_volume   611.66490372
_cell_formula_units_Z   3
loop_
 _symmetry_equiv_pos_site_id
 _symmetry_equiv_pos_as_xyz
  1  'x, y, z'
loop_
 _atom_site_type_symbol
 _atom_site_label
 _atom_site_symmetry_multiplicity
 _atom_site_fract_x
 _atom_site_fract_y
 _atom_site_fract_z
 _atom_site_occupancy
  Cr  Cr0  1  -0.00393208  -0.00625819  0.99278996  1
  Cr  Cr1  1  0.16146194  0.16401438  0.16066363  1
  Cr  Cr2  1  -0.00441029  0.99361312  0.32860249  1
  Cr  Cr3  1  0.99034820  0.32671868  -0.00432321  1
  Cr  Cr4  1  0.15934997  0.49391233  0.16089645  1
  Cr  Cr5  1  0.99016514  0.32822930  0.32810098  1
  Fe  Fe6  1  0.99350342  0.65967124  -0.00448551  1
  Fe  Fe7  1  0.16043743  0.82558755  0.15971972  1
  Cr  Cr8  1  -0.00492305  0.66006641  0.32745598  1
  Cr  Cr9  1  0.32586502  0.99169132  -0.00502177  1
  Cr  Cr10  1  0.49259479  0.16263662  0.16440345  1
  Cr  Cr11  1  0.32557590  0.99090116  0.32309551  1
  Cr  Cr12  1  0.32872923  0.32807566  -0.00617630  1
  Ni  Ni13  1  0.49241837  0.49550542  0.16141497  1
  Fe  Fe14  1  0.32658592  0.33073690  0.32766577  1
  Cr  Cr15  1  0.32845331  0.66142494  -0.00580854  1
  Cr  Cr16  1  0.49845971  0.82640009  0.16195267  1
  Cr  Cr17  1  0.32650164  0.66138792  0.32925292  1
  Cr  Cr18  1  0.65969093  -0.00478495  -0.00606561  1
  Cr  Cr19  1  0.82648330  0.15749409  0.16320406  1
  Fe  Fe20  1  0.66256823  0.99232013  0.32785592  1
  Cr  Cr21  1  0.66050813  0.32938397  -0.00598368  1
  Fe  Fe22  1  0.82377352  0.49371068  0.15953211  1
  Cr  Cr23  1  0.66090477  0.32762096  0.32713229  1
  Ni  Ni24  1  0.65994976  0.65656325  -0.00404070  1
  Cr  Cr25  1  0.82752258  0.82347178  0.15854490  1
  Cr  Cr26  1  0.66006602  0.65582435  0.32773510  1
  Cr  Cr27  1  0.16193360  0.16495902  0.49477753  1
  Fe  Fe28  1  -0.00530354  -0.00592158  0.65860673  1
  Cr  Cr29  1  0.16149965  0.16389648  0.82514350  1
  Fe  Fe30  1  0.16152288  0.49390139  0.49335927  1
  Cr  Cr31  1  0.99076618  0.32714682  0.65777611  1
  Cr  Cr32  1  0.16157610  0.49157674  0.82559117  1
  Fe  Fe33  1  0.16135958  0.82938657  0.49407064  1
  Cr  Cr34  1  -0.00468217  0.66041402  0.65645028  1
  Cr  Cr35  1  0.15750202  0.82427662  0.82662511  1
  Cr  Cr36  1  0.49214913  0.16039704  0.48999071  1
  Cr  Cr37  1  0.32580482  0.99212973  0.66276644  1
  Cr  Cr38  1  0.49116849  0.16252864  0.82595740  1
  Fe  Fe39  1  0.49201357  0.49141062  0.49290176  1
  Ni  Ni40  1  0.32753332  0.32976908  0.65710417  1
  Fe  Fe41  1  0.49333736  0.49402347  0.82755633  1
  Cr  Cr42  1  0.49659359  0.82700902  0.49208225  1
  Cr  Cr43  1  0.32803526  0.66000680  0.65757427  1
  Cr  Cr44  1  0.49716946  0.82479897  0.82799388  1
  Fe  Fe45  1  0.82606379  0.15979239  0.49321305  1
  Cr  Cr46  1  0.66102771  -0.00441713  0.65912413  1
  Cr  Cr47  1  0.82796741  0.15942984  0.82433525  1
  Fe  Fe48  1  0.82605208  0.49273696  0.49358753  1
  Cr  Cr49  1  0.65927005  0.32857606  0.66060041  1
  Cr  Cr50  1  0.82857666  0.49740950  0.83098101  1
  Cr  Cr51  1  0.82683861  0.82612251  0.49479626  1
  Cr  Cr52  1  0.65901562  0.65680616  0.66040185  1
  Cr  Cr53  1  0.82571913  0.82507731  0.82768159  1
" 