1716,Ni6Fe20Cr72_2,-210.016410812497, 197.080022034444,Ni6Fe20Cr72,"# generated using pymatgen
 data_Cr40Fe11Ni3
_symmetry_space_group_name_H-M   'P 1'
_cell_length_a   7.56710761
_cell_length_b   7.56710761
_cell_length_c   10.70150620
_cell_angle_alpha   90.00000000
_cell_angle_beta   90.00000000
_cell_angle_gamma   90.00000000
_symmetry_Int_Tables_number   1
_chemical_formula_structural   Cr40Fe11Ni3
_chemical_formula_sum   'Cr40 Fe11 Ni3'
_cell_volume   612.78020422
_cell_formula_units_Z   1
loop_
 _symmetry_equiv_pos_site_id
 _symmetry_equiv_pos_as_xyz
  1  'x, y, z'
loop_
 _atom_site_type_symbol
 _atom_site_label
 _atom_site_symmetry_multiplicity
 _atom_site_fract_x
 _atom_site_fract_y
 _atom_site_fract_z
 _atom_site_occupancy
  Cr  Cr0  1  0.99253832  0.99248736  0.99210210  1
  Cr  Cr1  1  0.16028215  0.16234691  0.15889660  1
  Cr  Cr2  1  -0.00531936  0.99121034  0.32762258  1
  Cr  Cr3  1  -0.00595202  0.32595797  0.99194975  1
  Cr  Cr4  1  0.15989246  0.49276440  0.16076969  1
  Fe  Fe5  1  -0.00572953  0.32754254  0.32758827  1
  Cr  Cr6  1  0.99219070  0.66171853  -0.00579820  1
  Cr  Cr7  1  0.15958493  0.82505515  0.16150919  1
  Ni  Ni8  1  -0.00652124  0.66088401  0.32609815  1
  Cr  Cr9  1  0.32698834  -0.00435220  -0.00583604  1
  Fe  Fe10  1  0.49371135  0.15974648  0.15959922  1
  Cr  Cr11  1  0.32641454  -0.00505884  0.32907895  1
  Fe  Fe12  1  0.32703738  0.32641981  -0.00620136  1
  Cr  Cr13  1  0.49128719  0.49335244  0.15909146  1
  Cr  Cr14  1  0.32762281  0.32450833  0.32570167  1
  Cr  Cr15  1  0.32693166  0.65897290  0.99322582  1
  Cr  Cr16  1  0.49563095  0.82849179  0.15984375  1
  Fe  Fe17  1  0.32466756  0.66042325  0.32698154  1
  Fe  Fe18  1  0.66051585  -0.00629297  -0.00626991  1
  Cr  Cr19  1  0.82554967  0.15800605  0.16008674  1
  Fe  Fe20  1  0.66011751  0.99330736  0.32637561  1
  Cr  Cr21  1  0.65788366  0.32590502  0.99210338  1
  Cr  Cr22  1  0.82898345  0.49404838  0.16289346  1
  Cr  Cr23  1  0.65851932  0.32600435  0.32825197  1
  Cr  Cr24  1  0.66104598  0.66048554  -0.00660021  1
  Fe  Fe25  1  0.82691187  0.82656011  0.16094623  1
  Cr  Cr26  1  0.66225614  0.66005866  0.32552763  1
  Ni  Ni27  1  0.16127089  0.15869851  0.49375313  1
  Cr  Cr28  1  -0.00278174  -0.00658966  0.66043713  1
  Cr  Cr29  1  0.15928309  0.16040368  0.82729546  1
  Cr  Cr30  1  0.15951711  0.49364140  0.49122172  1
  Cr  Cr31  1  0.99269887  0.32523879  0.66001093  1
  Cr  Cr32  1  0.16108954  0.49264505  0.82817165  1
  Fe  Fe33  1  0.16074124  0.82763319  0.49337204  1
  Cr  Cr34  1  -0.00598629  0.66151739  0.66046751  1
  Cr  Cr35  1  0.16194641  0.82711879  0.82398748  1
  Fe  Fe36  1  0.49122544  0.15887664  0.49393596  1
  Ni  Ni37  1  0.32558971  0.99323191  0.65762488  1
  Cr  Cr38  1  0.49395103  0.15854214  0.82798495  1
  Cr  Cr39  1  0.49232428  0.49488237  0.49467124  1
  Cr  Cr40  1  0.32785664  0.32422643  0.65950119  1
  Cr  Cr41  1  0.49203328  0.49439713  0.82639826  1
  Cr  Cr42  1  0.49118249  0.82778632  0.49509292  1
  Fe  Fe43  1  0.32638556  0.66214858  0.65976997  1
  Cr  Cr44  1  0.49304834  0.82722692  0.82523230  1
  Cr  Cr45  1  0.82768694  0.16051182  0.49323043  1
  Cr  Cr46  1  0.65848032  -0.00538993  0.66024590  1
  Fe  Fe47  1  0.82631377  0.15968739  0.82713858  1
  Cr  Cr48  1  0.82832367  0.49232932  0.49198460  1
  Cr  Cr49  1  0.65960687  0.32743005  0.65981719  1
  Cr  Cr50  1  0.82704059  0.49173874  0.82528716  1
  Cr  Cr51  1  0.82644700  0.82732146  0.49092755  1
  Cr  Cr52  1  0.65948932  0.65812919  0.66124025  1
  Cr  Cr53  1  0.82517254  0.82904122  0.82864013  1
" 