8304,Ni6Fe10Cr82_10,-205.422549920747, 196.739019782806,Ni6Fe10Cr82,"# generated using pymatgen
 data_Cr46Fe5Ni3
_symmetry_space_group_name_H-M   'P 1'
_cell_length_a   7.58013959
_cell_length_b   7.58013959
_cell_length_c   10.71993621
_cell_angle_alpha   90.00000000
_cell_angle_beta   90.00000000
_cell_angle_gamma   90.00000000
_symmetry_Int_Tables_number   1
_chemical_formula_structural   Cr46Fe5Ni3
_chemical_formula_sum   'Cr46 Fe5 Ni3'
_cell_volume   615.95162751
_cell_formula_units_Z   1
loop_
 _symmetry_equiv_pos_site_id
 _symmetry_equiv_pos_as_xyz
  1  'x, y, z'
loop_
 _atom_site_type_symbol
 _atom_site_label
 _atom_site_symmetry_multiplicity
 _atom_site_fract_x
 _atom_site_fract_y
 _atom_site_fract_z
 _atom_site_occupancy
  Cr  Cr0  1  0.99116836  0.99153247  0.99228454  1
  Cr  Cr1  1  0.15999564  0.15867680  0.15946421  1
  Cr  Cr2  1  0.99062761  0.99218815  0.32631227  1
  Cr  Cr3  1  0.99140982  0.32548915  0.99162491  1
  Cr  Cr4  1  0.15874853  0.49169436  0.15981830  1
  Cr  Cr5  1  0.99020312  0.32497744  0.32772847  1
  Cr  Cr6  1  -0.00701528  0.66082113  -0.00689506  1
  Cr  Cr7  1  0.15925149  0.82753134  0.16147992  1
  Cr  Cr8  1  -0.00723745  0.66017438  0.32624583  1
  Cr  Cr9  1  0.32633794  0.99112085  0.99243508  1
  Cr  Cr10  1  0.49121236  0.15899911  0.16011729  1
  Fe  Fe11  1  0.32676698  -0.00713261  0.32598900  1
  Cr  Cr12  1  0.32805273  0.32789724  0.99187277  1
  Ni  Ni13  1  0.49475692  0.49489709  0.15799624  1
  Cr  Cr14  1  0.32835536  0.32835332  0.32502386  1
  Cr  Cr15  1  0.32728186  0.65848818  -0.00732184  1
  Cr  Cr16  1  0.49373247  0.82615481  0.15983415  1
  Cr  Cr17  1  0.32683759  0.65929911  0.32574623  1
  Cr  Cr18  1  0.66000660  0.99229061  0.99229545  1
  Cr  Cr19  1  0.82635308  0.15928023  0.15965924  1
  Cr  Cr20  1  0.66015639  -0.00652646  0.32724416  1
  Cr  Cr21  1  0.65772204  0.32631124  -0.00509162  1
  Cr  Cr22  1  0.82472188  0.49461607  0.15797448  1
  Cr  Cr23  1  0.65865848  0.32543011  0.32546881  1
  Fe  Fe24  1  0.65827786  0.65931306  -0.00666534  1
  Fe  Fe25  1  0.82469660  0.82553263  0.15890793  1
  Cr  Cr26  1  0.65786792  0.65866686  0.32363558  1
  Cr  Cr27  1  0.16046180  0.15924553  0.49093981  1
  Cr  Cr28  1  0.99036509  -0.00705439  0.65943072  1
  Cr  Cr29  1  0.16041448  0.15998853  0.82711378  1
  Cr  Cr30  1  0.15870018  0.49136914  0.49332990  1
  Cr  Cr31  1  0.99223819  0.32466064  0.65820553  1
  Cr  Cr32  1  0.15860399  0.49106866  0.82413195  1
  Cr  Cr33  1  0.16029409  0.82705115  0.49045179  1
  Cr  Cr34  1  -0.00678670  0.65994847  0.65858093  1
  Cr  Cr35  1  0.15924866  0.82614096  0.82598878  1
  Cr  Cr36  1  0.49218673  0.15727135  0.49290045  1
  Cr  Cr37  1  0.32621533  0.99172774  0.65977051  1
  Cr  Cr38  1  0.49246374  0.15812936  0.82449535  1
  Cr  Cr39  1  0.49412578  0.49319682  0.49399883  1
  Fe  Fe40  1  0.32723095  0.32507556  0.65896160  1
  Cr  Cr41  1  0.49464411  0.49309103  0.82487240  1
  Cr  Cr42  1  0.49403852  0.82669780  0.49410897  1
  Cr  Cr43  1  0.32640636  0.65801188  0.65896020  1
  Cr  Cr44  1  0.49522929  0.82592130  0.82377082  1
  Fe  Fe45  1  0.82477515  0.15775489  0.49370326  1
  Ni  Ni46  1  0.65901922  0.99165210  0.65817022  1
  Cr  Cr47  1  0.82461982  0.15890977  0.82468419  1
  Cr  Cr48  1  0.82498989  0.49349604  0.49362049  1
  Cr  Cr49  1  0.65912701  0.32401130  0.65725318  1
  Cr  Cr50  1  0.82471366  0.49433981  0.82616443  1
  Cr  Cr51  1  0.82353319  0.82471586  0.49430937  1
  Ni  Ni52  1  0.65817332  0.66046698  0.66024972  1
  Cr  Cr53  1  0.82319442  0.82420827  0.82582115  1
" 