1319,Ni6Fe23Cr70_1,-210.699645763473, 192.123442410555,Ni6Fe23Cr70,"# generated using pymatgen
 data_Cr13Fe4Ni
_symmetry_space_group_name_H-M   'P 1'
_cell_length_a   7.56870722
_cell_length_b   7.56870722
_cell_length_c   10.70376841
_cell_angle_alpha   90.00000000
_cell_angle_beta   90.00000000
_cell_angle_gamma   90.00000000
_symmetry_Int_Tables_number   1
_chemical_formula_structural   Cr13Fe4Ni
_chemical_formula_sum   'Cr39 Fe12 Ni3'
_cell_volume   613.16889529
_cell_formula_units_Z   3
loop_
 _symmetry_equiv_pos_site_id
 _symmetry_equiv_pos_as_xyz
  1  'x, y, z'
loop_
 _atom_site_type_symbol
 _atom_site_label
 _atom_site_symmetry_multiplicity
 _atom_site_fract_x
 _atom_site_fract_y
 _atom_site_fract_z
 _atom_site_occupancy
  Cr  Cr0  1  0.99289691  0.99234477  0.99312905  1
  Cr  Cr1  1  0.15731038  0.15935016  0.15985929  1
  Cr  Cr2  1  0.99181361  -0.00664420  0.32667564  1
  Cr  Cr3  1  -0.00645746  0.32616838  -0.00524937  1
  Cr  Cr4  1  0.15878721  0.49526407  0.15937643  1
  Cr  Cr5  1  -0.00641030  0.32520895  0.32586583  1
  Fe  Fe6  1  0.99252066  0.66074344  0.99277217  1
  Cr  Cr7  1  0.16006758  0.82523899  0.15892365  1
  Cr  Cr8  1  0.99141035  0.66128352  0.32527110  1
  Cr  Cr9  1  0.32587969  -0.00482229  0.99166155  1
  Cr  Cr10  1  0.49715089  0.15822408  0.16090689  1
  Cr  Cr11  1  0.32673158  -0.00505229  0.32724891  1
  Cr  Cr12  1  0.32669106  0.32480579  0.99170877  1
  Cr  Cr13  1  0.49319520  0.49391709  0.15985889  1
  Cr  Cr14  1  0.32641268  0.32508274  0.32801103  1
  Cr  Cr15  1  0.32604649  0.65987134  -0.00579918  1
  Cr  Cr16  1  0.49304085  0.82771289  0.16099236  1
  Cr  Cr17  1  0.32700304  0.65982285  0.32641521  1
  Cr  Cr18  1  0.66107728  0.99299725  0.99315818  1
  Ni  Ni19  1  0.82585179  0.15819393  0.16086996  1
  Fe  Fe20  1  0.66128024  -0.00619719  0.32612982  1
  Cr  Cr21  1  0.65962091  0.32633388  0.99319979  1
  Cr  Cr22  1  0.82787004  0.49114775  0.15892286  1
  Cr  Cr23  1  0.65985199  0.32548593  0.32571075  1
  Cr  Cr24  1  0.66245516  0.66052062  0.99254305  1
  Fe  Fe25  1  0.82662409  0.82845067  0.15994119  1
  Cr  Cr26  1  0.66143929  0.66160721  0.32726297  1
  Fe  Fe27  1  0.16041597  0.16038299  0.49436175  1
  Fe  Fe28  1  0.99313661  0.99220535  0.65992744  1
  Fe  Fe29  1  0.16146749  0.16039936  0.82551754  1
  Cr  Cr30  1  0.15948495  0.49354104  0.49528558  1
  Fe  Fe31  1  -0.00526635  0.32682977  0.65992999  1
  Cr  Cr32  1  0.15864339  0.49438678  0.82519140  1
  Cr  Cr33  1  0.15967782  0.82628745  0.49461105  1
  Ni  Ni34  1  -0.00655929  0.66080730  0.66056926  1
  Cr  Cr35  1  0.15882654  0.82588520  0.82631448  1
  Fe  Fe36  1  0.49244595  0.15999606  0.49378975  1
  Cr  Cr37  1  0.32502205  -0.00303021  0.66094214  1
  Ni  Ni38  1  0.49237355  0.15969024  0.82540940  1
  Cr  Cr39  1  0.49209008  0.49322066  0.49406616  1
  Fe  Fe40  1  0.32598186  0.32583874  0.66047445  1
  Cr  Cr41  1  0.49252929  0.49227848  0.82593285  1
  Cr  Cr42  1  0.49303543  0.82774990  0.49180805  1
  Fe  Fe43  1  0.32492033  0.65923582  0.65993157  1
  Cr  Cr44  1  0.49234859  0.82800041  0.82705412  1
  Cr  Cr45  1  0.82681424  0.15907814  0.49230685  1
  Cr  Cr46  1  0.66046701  0.99248338  0.66017365  1
  Cr  Cr47  1  0.82655969  0.15976147  0.82655766  1
  Cr  Cr48  1  0.82827568  0.49231936  0.49489268  1
  Cr  Cr49  1  0.65791156  0.32680492  0.66094260  1
  Cr  Cr50  1  0.82868029  0.49317229  0.82603473  1
  Fe  Fe51  1  0.82753428  0.82633229  0.49423048  1
  Cr  Cr52  1  0.66257136  0.66056021  0.66004618  1
  Fe  Fe53  1  0.82779800  0.82606989  0.82567905  1
" 