874,Ni6Fe10Cr82_8,-205.656666196947, 198.416566036082,Ni6Fe10Cr82,"# generated using pymatgen
 data_Cr46Fe5Ni3
_symmetry_space_group_name_H-M   'P 1'
_cell_length_a   7.57984138
_cell_length_b   7.57984138
_cell_length_c   10.71951448
_cell_angle_alpha   90.00000000
_cell_angle_beta   90.00000000
_cell_angle_gamma   90.00000000
_symmetry_Int_Tables_number   1
_chemical_formula_structural   Cr46Fe5Ni3
_chemical_formula_sum   'Cr46 Fe5 Ni3'
_cell_volume   615.87893517
_cell_formula_units_Z   1
loop_
 _symmetry_equiv_pos_site_id
 _symmetry_equiv_pos_as_xyz
  1  'x, y, z'
loop_
 _atom_site_type_symbol
 _atom_site_label
 _atom_site_symmetry_multiplicity
 _atom_site_fract_x
 _atom_site_fract_y
 _atom_site_fract_z
 _atom_site_occupancy
  Cr  Cr0  1  -0.00550651  -0.00720764  -0.00586502  1
  Ni  Ni1  1  0.15875408  0.15930828  0.16022333  1
  Cr  Cr2  1  -0.00680617  -0.00654299  0.32651979  1
  Cr  Cr3  1  -0.00670954  0.32482840  -0.00451656  1
  Cr  Cr4  1  0.15958999  0.49104556  0.16136387  1
  Fe  Fe5  1  -0.00704725  0.32415594  0.32650130  1
  Cr  Cr6  1  0.99213806  0.65975308  0.99233509  1
  Cr  Cr7  1  0.16005849  0.82603343  0.16115601  1
  Cr  Cr8  1  -0.00687198  0.66017981  0.32686588  1
  Cr  Cr9  1  0.32473165  -0.00682465  -0.00742156  1
  Cr  Cr10  1  0.49261808  0.15796715  0.16006837  1
  Cr  Cr11  1  0.32516442  -0.00657385  0.32648201  1
  Cr  Cr12  1  0.32571050  0.32417170  -0.00582373  1
  Cr  Cr13  1  0.49152420  0.49352502  0.16034315  1
  Cr  Cr14  1  0.32664728  0.32400126  0.32537355  1
  Cr  Cr15  1  0.32631551  0.66018716  -0.00706268  1
  Cr  Cr16  1  0.49321078  0.82635712  0.16048466  1
  Fe  Fe17  1  0.32558183  0.65980938  0.32644518  1
  Cr  Cr18  1  0.65826351  0.99210742  -0.00712982  1
  Cr  Cr19  1  0.82651565  0.15834702  0.16116449  1
  Fe  Fe20  1  0.65892630  -0.00612824  0.32768602  1
  Cr  Cr21  1  0.65881851  0.32666003  0.99234256  1
  Cr  Cr22  1  0.82662697  0.49214453  0.15950005  1
  Cr  Cr23  1  0.65958558  0.32468580  0.32835731  1
  Cr  Cr24  1  0.65904662  0.65895384  0.99112995  1
  Cr  Cr25  1  0.82453945  0.82723273  0.15927003  1
  Cr  Cr26  1  0.65963450  0.65878468  0.32477988  1
  Cr  Cr27  1  0.15890968  0.16038134  0.49333054  1
  Cr  Cr28  1  -0.00703938  0.99234576  0.65743701  1
  Cr  Cr29  1  0.15900574  0.15972548  0.82713131  1
  Cr  Cr30  1  0.15993915  0.49402185  0.49166967  1
  Cr  Cr31  1  0.99106634  0.32497978  0.65726454  1
  Cr  Cr32  1  0.15963450  0.49184062  0.82476946  1
  Fe  Fe33  1  0.15964701  0.82759448  0.49164846  1
  Cr  Cr34  1  0.99246112  0.66098434  0.65836788  1
  Cr  Cr35  1  0.15966636  0.82614661  0.82400275  1
  Ni  Ni36  1  0.49424963  0.15674558  0.49123064  1
  Cr  Cr37  1  0.32608056  -0.00702487  0.65873182  1
  Cr  Cr38  1  0.49269712  0.15790939  0.82527593  1
  Cr  Cr39  1  0.49108097  0.49238107  0.49162665  1
  Cr  Cr40  1  0.32793128  0.32432089  0.65868717  1
  Cr  Cr41  1  0.49123818  0.49272499  0.82557497  1
  Cr  Cr42  1  0.49203766  0.82648352  0.49052259  1
  Cr  Cr43  1  0.32565761  0.66118430  0.65743979  1
  Fe  Fe44  1  0.49203126  0.82647366  0.82554902  1
  Ni  Ni45  1  0.82446619  0.15734725  0.49023219  1
  Cr  Cr46  1  0.65857005  -0.00621438  0.65656114  1
  Cr  Cr47  1  0.82601452  0.15840343  0.82528743  1
  Cr  Cr48  1  0.82704507  0.49136037  0.49285906  1
  Cr  Cr49  1  0.65861351  0.32492851  0.65651183  1
  Cr  Cr50  1  0.82678370  0.49197543  0.82564761  1
  Cr  Cr51  1  0.82525650  0.82762980  0.49168913  1
  Cr  Cr52  1  0.65918106  0.65918763  0.66182622  1
  Cr  Cr53  1  0.82493367  0.82742075  0.82677169  1
" 