88,Ni6Fe20Cr72_12,-209.748342344884, 189.542746632226,Ni6Fe20Cr72,"# generated using pymatgen
 data_Cr40Fe11Ni3
_symmetry_space_group_name_H-M   'P 1'
_cell_length_a   7.57554884
_cell_length_b   7.57554884
_cell_length_c   10.71344391
_cell_angle_alpha   90.00000000
_cell_angle_beta   90.00000000
_cell_angle_gamma   90.00000000
_symmetry_Int_Tables_number   1
_chemical_formula_structural   Cr40Fe11Ni3
_chemical_formula_sum   'Cr40 Fe11 Ni3'
_cell_volume   614.83319163
_cell_formula_units_Z   1
loop_
 _symmetry_equiv_pos_site_id
 _symmetry_equiv_pos_as_xyz
  1  'x, y, z'
loop_
 _atom_site_type_symbol
 _atom_site_label
 _atom_site_symmetry_multiplicity
 _atom_site_fract_x
 _atom_site_fract_y
 _atom_site_fract_z
 _atom_site_occupancy
  Cr  Cr0  1  -0.00585736  0.99202710  -0.00692473  1
  Cr  Cr1  1  0.16006500  0.16011950  0.15991548  1
  Cr  Cr2  1  0.99279097  -0.00588408  0.32686450  1
  Cr  Cr3  1  0.98977764  0.32798971  0.99282157  1
  Cr  Cr4  1  0.15852240  0.49313583  0.15981276  1
  Cr  Cr5  1  0.99230161  0.32509700  0.32675249  1
  Fe  Fe6  1  0.98984564  0.65823819  0.99196766  1
  Cr  Cr7  1  0.15825277  0.82526026  0.15969302  1
  Cr  Cr8  1  0.99230148  0.65930151  0.32434564  1
  Cr  Cr9  1  0.32595161  0.99126798  0.99210275  1
  Cr  Cr10  1  0.49350693  0.16051583  0.15792340  1
  Cr  Cr11  1  0.32588137  -0.00665426  0.32525555  1
  Cr  Cr12  1  0.32706752  0.32550122  -0.00666630  1
  Cr  Cr13  1  0.49437613  0.49208172  0.15929066  1
  Cr  Cr14  1  0.32637181  0.32586276  0.32812560  1
  Cr  Cr15  1  0.32677108  0.66174372  0.99122627  1
  Cr  Cr16  1  0.49426171  0.82591995  0.15918563  1
  Cr  Cr17  1  0.32713518  0.65930546  0.32719802  1
  Cr  Cr18  1  0.65842358  0.99232389  -0.00692358  1
  Cr  Cr19  1  0.82494356  0.16023880  0.15892101  1
  Cr  Cr20  1  0.65984407  -0.00664672  0.32683076  1
  Ni  Ni21  1  0.66187336  0.33029736  0.99258447  1
  Fe  Fe22  1  0.82480792  0.49318059  0.15702938  1
  Cr  Cr23  1  0.65984271  0.32634960  0.32724995  1
  Ni  Ni24  1  0.66154755  0.65666563  0.99191111  1
  Cr  Cr25  1  0.82599876  0.82438094  0.16018095  1
  Cr  Cr26  1  0.65907806  0.65881342  0.32632463  1
  Fe  Fe27  1  0.15944035  0.15875643  0.49354534  1
  Fe  Fe28  1  -0.00681412  -0.00681696  0.65915540  1
  Cr  Cr29  1  0.16017386  0.15816033  0.82510645  1
  Cr  Cr30  1  0.16121704  0.49157332  0.49200317  1
  Cr  Cr31  1  0.99171825  0.32435208  0.65894044  1
  Cr  Cr32  1  0.15801661  0.49409949  0.82669734  1
  Cr  Cr33  1  0.15880417  0.82731987  0.49345234  1
  Cr  Cr34  1  0.99276793  0.66026660  0.66198043  1
  Fe  Fe35  1  0.15940044  0.82610381  0.82579588  1
  Fe  Fe36  1  0.49284922  0.15951896  0.49354262  1
  Fe  Fe37  1  0.32618076  -0.00715962  0.65951223  1
  Cr  Cr38  1  0.49339454  0.15855739  0.82710093  1
  Fe  Fe39  1  0.49283138  0.49226639  0.49284955  1
  Cr  Cr40  1  0.32636949  0.32503774  0.65706033  1
  Cr  Cr41  1  0.49488190  0.49303728  0.82721659  1
  Cr  Cr42  1  0.49383529  0.82700573  0.49344979  1
  Cr  Cr43  1  0.32713027  0.66140377  0.66009800  1
  Fe  Fe44  1  0.49343876  0.82557371  0.82630209  1
  Fe  Fe45  1  0.82622635  0.15874288  0.49352712  1
  Fe  Fe46  1  0.65914960  -0.00681618  0.65911438  1
  Cr  Cr47  1  0.82494694  0.15994566  0.82515831  1
  Cr  Cr48  1  0.82556505  0.49234005  0.49242745  1
  Cr  Cr49  1  0.66042980  0.32560795  0.65844738  1
  Ni  Ni50  1  0.82515562  0.49477589  0.82947236  1
  Cr  Cr51  1  0.82587624  0.82866158  0.49292133  1
  Cr  Cr52  1  0.65861952  0.65977793  0.66000096  1
  Cr  Cr53  1  0.82600267  0.82476597  0.82541412  1
" 