6739,Ni6Fe20Cr72_8,-210.177653689611, 194.391709494998,Ni6Fe20Cr72,"# generated using pymatgen
 data_Cr40Fe11Ni3
_symmetry_space_group_name_H-M   'P 1'
_cell_length_a   7.56742414
_cell_length_b   7.56742414
_cell_length_c   10.70195385
_cell_angle_alpha   90.00000000
_cell_angle_beta   90.00000000
_cell_angle_gamma   90.00000000
_symmetry_Int_Tables_number   1
_chemical_formula_structural   Cr40Fe11Ni3
_chemical_formula_sum   'Cr40 Fe11 Ni3'
_cell_volume   612.85710545
_cell_formula_units_Z   1
loop_
 _symmetry_equiv_pos_site_id
 _symmetry_equiv_pos_as_xyz
  1  'x, y, z'
loop_
 _atom_site_type_symbol
 _atom_site_label
 _atom_site_symmetry_multiplicity
 _atom_site_fract_x
 _atom_site_fract_y
 _atom_site_fract_z
 _atom_site_occupancy
  Cr  Cr0  1  -0.00644813  0.99118432  -0.00560602  1
  Cr  Cr1  1  0.16034326  0.16037306  0.15952794  1
  Cr  Cr2  1  -0.00589845  0.99283781  0.32466369  1
  Cr  Cr3  1  -0.00618196  0.32713738  0.99249159  1
  Cr  Cr4  1  0.16276249  0.49369382  0.16026881  1
  Fe  Fe5  1  -0.00530023  0.32793598  0.32752594  1
  Cr  Cr6  1  -0.00517177  0.66178315  0.99308611  1
  Ni  Ni7  1  0.16154297  0.82506412  0.16102509  1
  Cr  Cr8  1  -0.00395626  0.65898952  0.32684692  1
  Cr  Cr9  1  0.32642973  0.99279221  0.99314697  1
  Cr  Cr10  1  0.49216965  0.16246604  0.15956555  1
  Cr  Cr11  1  0.32618082  0.99137207  0.32661176  1
  Fe  Fe12  1  0.32713588  0.32707853  -0.00631836  1
  Fe  Fe13  1  0.49154320  0.49437098  0.16138955  1
  Fe  Fe14  1  0.32585320  0.32930291  0.32678258  1
  Cr  Cr15  1  0.32591048  0.65940681  -0.00489168  1
  Cr  Cr16  1  0.49235770  0.82368574  0.16252919  1
  Ni  Ni17  1  0.32611841  0.65759293  0.32567798  1
  Cr  Cr18  1  0.66012394  -0.00619994  0.99232808  1
  Cr  Cr19  1  0.82758901  0.16011891  0.16028321  1
  Cr  Cr20  1  0.65982188  -0.00574074  0.32602721  1
  Cr  Cr21  1  0.65774646  0.32661761  -0.00629193  1
  Cr  Cr22  1  0.82524016  0.49387979  0.16104689  1
  Cr  Cr23  1  0.65983591  0.32778351  0.32686900  1
  Cr  Cr24  1  0.65936220  0.65968808  0.99266224  1
  Cr  Cr25  1  0.82732800  0.82610801  0.15996472  1
  Fe  Fe26  1  0.65817196  0.65933318  0.32664549  1
  Cr  Cr27  1  0.16006321  0.16170344  0.49340458  1
  Cr  Cr28  1  -0.00633143  0.99239738  0.66104475  1
  Cr  Cr29  1  0.16110086  0.16003988  0.82716139  1
  Fe  Fe30  1  0.16114055  0.49445403  0.49257672  1
  Cr  Cr31  1  0.99281269  0.32877973  0.65720344  1
  Cr  Cr32  1  0.16119355  0.49336913  0.82675954  1
  Cr  Cr33  1  0.16257899  0.82520473  0.49366997  1
  Cr  Cr34  1  -0.00555466  0.65893142  0.66016724  1
  Cr  Cr35  1  0.16116988  0.82669304  0.82559471  1
  Cr  Cr36  1  0.49187425  0.15958949  0.49396504  1
  Fe  Fe37  1  0.32702758  0.99116832  0.66044653  1
  Cr  Cr38  1  0.49190376  0.15908215  0.82657320  1
  Cr  Cr39  1  0.49289360  0.49648273  0.49198851  1
  Cr  Cr40  1  0.32671627  0.32789070  0.65978810  1
  Cr  Cr41  1  0.49298859  0.49549635  0.82779197  1
  Cr  Cr42  1  0.49264625  0.82402788  0.49523577  1
  Ni  Ni43  1  0.32773176  0.66142509  0.65984075  1
  Fe  Fe44  1  0.49324170  0.82574187  0.82491980  1
  Cr  Cr45  1  0.82816425  0.16193699  0.49193254  1
  Cr  Cr46  1  0.65823310  0.99257795  0.66175412  1
  Cr  Cr47  1  0.82709581  0.15906070  0.82787821  1
  Fe  Fe48  1  0.82707655  0.49375045  0.49294110  1
  Cr  Cr49  1  0.66057653  0.32711811  0.65953002  1
  Cr  Cr50  1  0.82591945  0.49543964  0.82581366  1
  Cr  Cr51  1  0.82487226  0.82418765  0.49321741  1
  Fe  Fe52  1  0.65864622  0.66035622  0.66052578  1
  Fe  Fe53  1  0.82547199  0.82630323  0.82628073  1
" 