6067,Ni6Fe9Cr83_15,-205.369754032649, 195.302233328907,Ni6Fe9Cr83,"# generated using pymatgen
 data_Cr46Fe5Ni3
_symmetry_space_group_name_H-M   'P 1'
_cell_length_a   7.58542699
_cell_length_b   7.58542699
_cell_length_c   10.72741373
_cell_angle_alpha   90.00000000
_cell_angle_beta   90.00000000
_cell_angle_gamma   90.00000000
_symmetry_Int_Tables_number   1
_chemical_formula_structural   Cr46Fe5Ni3
_chemical_formula_sum   'Cr46 Fe5 Ni3'
_cell_volume   617.24146940
_cell_formula_units_Z   1
loop_
 _symmetry_equiv_pos_site_id
 _symmetry_equiv_pos_as_xyz
  1  'x, y, z'
loop_
 _atom_site_type_symbol
 _atom_site_label
 _atom_site_symmetry_multiplicity
 _atom_site_fract_x
 _atom_site_fract_y
 _atom_site_fract_z
 _atom_site_occupancy
  Cr  Cr0  1  -0.00715010  -0.00715088  0.99170475  1
  Cr  Cr1  1  0.15818784  0.15874529  0.15786866  1
  Cr  Cr2  1  0.99109878  -0.00753810  0.32574957  1
  Cr  Cr3  1  0.99157028  0.32693364  0.99198868  1
  Cr  Cr4  1  0.15963612  0.49191520  0.15933837  1
  Cr  Cr5  1  -0.00747058  0.32705420  0.32511221  1
  Cr  Cr6  1  -0.00771025  0.65680666  0.99093053  1
  Cr  Cr7  1  0.15995224  0.82593009  0.15858878  1
  Cr  Cr8  1  -0.00674756  0.65707365  0.32657391  1
  Cr  Cr9  1  0.32676962  0.99102716  -0.00617764  1
  Cr  Cr10  1  0.49274251  0.15788228  0.15950626  1
  Cr  Cr11  1  0.32873804  0.99163583  0.32423915  1
  Cr  Cr12  1  0.32448586  0.32519869  0.99125380  1
  Cr  Cr13  1  0.49219521  0.49369013  0.15858942  1
  Cr  Cr14  1  0.32475006  0.32532306  0.32786884  1
  Cr  Cr15  1  0.32559073  0.66036692  -0.00694518  1
  Ni  Ni16  1  0.49315675  0.82620321  0.15935051  1
  Cr  Cr17  1  0.32485360  0.65963016  0.32506200  1
  Cr  Cr18  1  0.65697316  0.99174834  -0.00651899  1
  Cr  Cr19  1  0.82566184  0.15819195  0.15953678  1
  Ni  Ni20  1  0.65716997  0.99209232  0.32535625  1
  Cr  Cr21  1  0.66053435  0.32575763  0.99137719  1
  Cr  Cr22  1  0.82475934  0.49192220  0.15862050  1
  Cr  Cr23  1  0.65930813  0.32316592  0.32607007  1
  Cr  Cr24  1  0.65871166  0.65908552  0.99176762  1
  Cr  Cr25  1  0.82389396  0.82647608  0.16025704  1
  Cr  Cr26  1  0.65848354  0.66106313  0.32467129  1
  Cr  Cr27  1  0.15932662  0.15997616  0.49346083  1
  Fe  Fe28  1  0.99216465  0.99218042  0.65889216  1
  Cr  Cr29  1  0.15838931  0.15915976  0.82526129  1
  Ni  Ni30  1  0.16023133  0.49078312  0.49346820  1
  Cr  Cr31  1  -0.00670241  0.32710736  0.65948841  1
  Fe  Fe32  1  0.15854411  0.49187808  0.82478192  1
  Cr  Cr33  1  0.15748593  0.82508677  0.49301560  1
  Cr  Cr34  1  -0.00697157  0.65738454  0.65908518  1
  Cr  Cr35  1  0.15755139  0.82594212  0.82498424  1
  Fe  Fe36  1  0.49226924  0.15879859  0.49173361  1
  Cr  Cr37  1  0.32595324  -0.00662757  0.65852762  1
  Cr  Cr38  1  0.49136596  0.16100249  0.82446792  1
  Cr  Cr39  1  0.49016485  0.49068122  0.49268674  1
  Fe  Fe40  1  0.32475018  0.32637964  0.65805383  1
  Cr  Cr41  1  0.49192756  0.49165687  0.82531658  1
  Cr  Cr42  1  0.49331853  0.82578274  0.49123180  1
  Cr  Cr43  1  0.32368975  0.65783513  0.65847838  1
  Cr  Cr44  1  0.49236533  0.82393481  0.82654184  1
  Cr  Cr45  1  0.82494802  0.15682842  0.49134762  1
  Cr  Cr46  1  0.65814835  -0.00690224  0.65781085  1
  Cr  Cr47  1  0.82683407  0.15871808  0.82570655  1
  Cr  Cr48  1  0.82564504  0.49252620  0.49140850  1
  Cr  Cr49  1  0.65859979  0.32484594  0.65913524  1
  Fe  Fe50  1  0.82615709  0.49218529  0.82552521  1
  Cr  Cr51  1  0.82578668  0.82723748  0.49231101  1
  Cr  Cr52  1  0.65987217  0.65864367  0.66014973  1
  Cr  Cr53  1  0.82667341  0.82537832  0.82402244  1
" 