1218,Ni6Fe9Cr83_19,-205.570162698701, 198.571404623868,Ni6Fe9Cr83,"# generated using pymatgen
 data_Cr46Fe5Ni3
_symmetry_space_group_name_H-M   'P 1'
_cell_length_a   7.58383963
_cell_length_b   7.58383963
_cell_length_c   10.72516887
_cell_angle_alpha   90.00000000
_cell_angle_beta   90.00000000
_cell_angle_gamma   90.00000000
_symmetry_Int_Tables_number   1
_chemical_formula_structural   Cr46Fe5Ni3
_chemical_formula_sum   'Cr46 Fe5 Ni3'
_cell_volume   616.85405049
_cell_formula_units_Z   1
loop_
 _symmetry_equiv_pos_site_id
 _symmetry_equiv_pos_as_xyz
  1  'x, y, z'
loop_
 _atom_site_type_symbol
 _atom_site_label
 _atom_site_symmetry_multiplicity
 _atom_site_fract_x
 _atom_site_fract_y
 _atom_site_fract_z
 _atom_site_occupancy
  Ni  Ni0  1  0.99224647  0.99198885  0.99227180  1
  Cr  Cr1  1  0.15804274  0.15932452  0.15742436  1
  Cr  Cr2  1  0.99091705  0.99140626  0.32630196  1
  Cr  Cr3  1  -0.00690288  0.32283102  0.99181956  1
  Cr  Cr4  1  0.15815135  0.49165244  0.16047909  1
  Fe  Fe5  1  0.99185554  0.32515898  0.32565323  1
  Cr  Cr6  1  0.99074668  0.66238989  -0.00658310  1
  Cr  Cr7  1  0.15801360  0.82591973  0.15782750  1
  Cr  Cr8  1  0.99207666  0.66027177  0.32511251  1
  Fe  Fe9  1  0.32414566  -0.00731788  0.99191309  1
  Cr  Cr10  1  0.49329489  0.15626048  0.15920301  1
  Cr  Cr11  1  0.32575849  -0.00769600  0.32718909  1
  Cr  Cr12  1  0.32592403  0.32368450  0.99142311  1
  Cr  Cr13  1  0.49125223  0.49278873  0.15903784  1
  Cr  Cr14  1  0.32557183  0.32540892  0.32501405  1
  Cr  Cr15  1  0.32623579  0.65948719  -0.00701195  1
  Cr  Cr16  1  0.49446354  0.82784982  0.15804193  1
  Cr  Cr17  1  0.32477886  0.65918853  0.32653040  1
  Fe  Fe18  1  0.66098286  0.99141614  -0.00632238  1
  Cr  Cr19  1  0.82556105  0.15612435  0.16023868  1
  Ni  Ni20  1  0.66059215  0.99216092  0.32409201  1
  Cr  Cr21  1  0.65787877  0.32544071  0.99155754  1
  Cr  Cr22  1  0.82749466  0.49281720  0.16010323  1
  Cr  Cr23  1  0.65914180  0.32424562  0.32583955  1
  Cr  Cr24  1  0.65991871  0.66009370  -0.00684974  1
  Ni  Ni25  1  0.82485551  0.82832532  0.15803900  1
  Cr  Cr26  1  0.66004345  0.66045551  0.32415551  1
  Cr  Cr27  1  0.15801926  0.15912884  0.49205395  1
  Cr  Cr28  1  -0.00595292  0.99184419  0.65893471  1
  Fe  Fe29  1  0.15841702  0.15766766  0.82691281  1
  Cr  Cr30  1  0.15801876  0.49296244  0.49090856  1
  Cr  Cr31  1  0.99229870  0.32433792  0.65987119  1
  Cr  Cr32  1  0.15864122  0.49146672  0.82551591  1
  Fe  Fe33  1  0.15896384  0.82563031  0.49232530  1
  Cr  Cr34  1  -0.00769620  0.66071694  0.65836901  1
  Cr  Cr35  1  0.15916276  0.82737019  0.82603230  1
  Cr  Cr36  1  0.49353887  0.15708247  0.49118354  1
  Cr  Cr37  1  0.32344524  -0.00734360  0.65847509  1
  Cr  Cr38  1  0.49154745  0.15735033  0.82651199  1
  Cr  Cr39  1  0.49149487  0.49295429  0.49322966  1
  Cr  Cr40  1  0.32619435  0.32452333  0.66045941  1
  Cr  Cr41  1  0.49185977  0.49259952  0.82463296  1
  Cr  Cr42  1  0.49177387  0.82686173  0.49216477  1
  Cr  Cr43  1  0.32537341  0.65972092  0.65737852  1
  Cr  Cr44  1  0.49204895  0.82694945  0.82669344  1
  Cr  Cr45  1  0.82534059  0.15884018  0.49066889  1
  Cr  Cr46  1  0.65940452  -0.00733741  0.65806365  1
  Cr  Cr47  1  0.82681845  0.15787314  0.82599243  1
  Cr  Cr48  1  0.82738649  0.49119623  0.49271601  1
  Cr  Cr49  1  0.65840679  0.32627071  0.65950464  1
  Cr  Cr50  1  0.82639843  0.49196596  0.82408319  1
  Cr  Cr51  1  0.82534083  0.82685897  0.49219250  1
  Cr  Cr52  1  0.65922069  0.65796677  0.65959957  1
  Cr  Cr53  1  0.82568935  0.82706138  0.82722197  1
" 