790,Ni6Fe23Cr70_3,-210.704691691792, 197.002296302774,Ni6Fe23Cr70,"# generated using pymatgen
 data_Cr13Fe4Ni
_symmetry_space_group_name_H-M   'P 1'
_cell_length_a   7.56197760
_cell_length_b   7.56197760
_cell_length_c   10.69425128
_cell_angle_alpha   90.00000000
_cell_angle_beta   90.00000000
_cell_angle_gamma   90.00000000
_symmetry_Int_Tables_number   1
_chemical_formula_structural   Cr13Fe4Ni
_chemical_formula_sum   'Cr39 Fe12 Ni3'
_cell_volume   611.53477356
_cell_formula_units_Z   3
loop_
 _symmetry_equiv_pos_site_id
 _symmetry_equiv_pos_as_xyz
  1  'x, y, z'
loop_
 _atom_site_type_symbol
 _atom_site_label
 _atom_site_symmetry_multiplicity
 _atom_site_fract_x
 _atom_site_fract_y
 _atom_site_fract_z
 _atom_site_occupancy
  Cr  Cr0  1  -0.00413370  0.99252209  -0.00609842  1
  Cr  Cr1  1  0.16214660  0.16132246  0.15903144  1
  Cr  Cr2  1  -0.00541870  -0.00580107  0.32638748  1
  Cr  Cr3  1  0.99165108  0.32598463  -0.00586231  1
  Cr  Cr4  1  0.16008369  0.49481300  0.16273602  1
  Cr  Cr5  1  0.99160062  0.32550204  0.32986605  1
  Cr  Cr6  1  -0.00436018  0.66301957  0.99342375  1
  Fe  Fe7  1  0.16141396  0.82605714  0.16149291  1
  Fe  Fe8  1  0.99348004  0.66134650  0.32730100  1
  Fe  Fe9  1  0.32719610  0.99224503  -0.00612446  1
  Cr  Cr10  1  0.49234646  0.15846816  0.15925022  1
  Cr  Cr11  1  0.32598928  0.99088921  0.32703588  1
  Fe  Fe12  1  0.32740402  0.32772576  -0.00618045  1
  Cr  Cr13  1  0.49101566  0.49364062  0.15990082  1
  Cr  Cr14  1  0.32753789  0.32710387  0.33054428  1
  Cr  Cr15  1  0.32751676  0.66310444  0.99285557  1
  Fe  Fe16  1  0.49167844  0.82560096  0.16088224  1
  Ni  Ni17  1  0.32613524  0.66245964  0.32523233  1
  Cr  Cr18  1  0.66099944  0.99321665  -0.00268555  1
  Fe  Fe19  1  0.82825033  0.16028248  0.16048568  1
  Cr  Cr20  1  0.66076189  -0.00613454  0.32448902  1
  Cr  Cr21  1  0.66007967  0.32787812  -0.00462119  1
  Cr  Cr22  1  0.82957907  0.49668398  0.16163693  1
  Cr  Cr23  1  0.66201438  0.32733307  0.32628423  1
  Cr  Cr24  1  0.65827465  0.65961172  0.99259415  1
  Fe  Fe25  1  0.82795276  0.82695256  0.16080878  1
  Cr  Cr26  1  0.65815796  0.65961345  0.32672746  1
  Ni  Ni27  1  0.16097903  0.16076983  0.49464764  1
  Cr  Cr28  1  -0.00382381  -0.00543658  0.66076938  1
  Cr  Cr29  1  0.16286345  0.16168962  0.82792377  1
  Cr  Cr30  1  0.15921297  0.49396201  0.49038922  1
  Cr  Cr31  1  0.99318315  0.32639511  0.65760104  1
  Cr  Cr32  1  0.16182629  0.49206603  0.82891773  1
  Cr  Cr33  1  0.15991888  0.82574974  0.49157604  1
  Cr  Cr34  1  -0.00443363  0.65989434  0.66089559  1
  Fe  Fe35  1  0.16133907  0.82798630  0.82725163  1
  Cr  Cr36  1  0.49208266  0.15858316  0.49509594  1
  Cr  Cr37  1  0.32499113  0.99267846  0.65916576  1
  Cr  Cr38  1  0.49198684  0.16055825  0.82755971  1
  Cr  Cr39  1  0.49307386  0.49517344  0.49424506  1
  Fe  Fe40  1  0.32546570  0.32712260  0.65932249  1
  Fe  Fe41  1  0.49345825  0.49264781  0.82661911  1
  Cr  Cr42  1  0.49560932  0.82750791  0.49330550  1
  Cr  Cr43  1  0.32858394  0.66010004  0.66181764  1
  Cr  Cr44  1  0.49607344  0.82872135  0.82524835  1
  Cr  Cr45  1  0.82615987  0.15838975  0.49419640  1
  Fe  Fe46  1  0.66008773  -0.00592268  0.66030579  1
  Cr  Cr47  1  0.82588456  0.15842661  0.82794517  1
  Ni  Ni48  1  0.82715569  0.49618146  0.49335752  1
  Cr  Cr49  1  0.65991738  0.32949166  0.65977410  1
  Cr  Cr50  1  0.82752761  0.49577397  0.82631333  1
  Cr  Cr51  1  0.82575162  0.82491486  0.49595800  1
  Fe  Fe52  1  0.66068509  0.65934352  0.65961054  1
  Cr  Cr53  1  0.82613949  0.82684287  0.82384669  1
" 