312,Ni6Fe9Cr83_13,-205.627297822422, 198.193369276706,Ni6Fe9Cr83,"# generated using pymatgen
 data_Cr46Fe5Ni3
_symmetry_space_group_name_H-M   'P 1'
_cell_length_a   7.58410794
_cell_length_b   7.58410794
_cell_length_c   10.72554830
_cell_angle_alpha   90.00000000
_cell_angle_beta   90.00000000
_cell_angle_gamma   90.00000000
_symmetry_Int_Tables_number   1
_chemical_formula_structural   Cr46Fe5Ni3
_chemical_formula_sum   'Cr46 Fe5 Ni3'
_cell_volume   616.91952214
_cell_formula_units_Z   1
loop_
 _symmetry_equiv_pos_site_id
 _symmetry_equiv_pos_as_xyz
  1  'x, y, z'
loop_
 _atom_site_type_symbol
 _atom_site_label
 _atom_site_symmetry_multiplicity
 _atom_site_fract_x
 _atom_site_fract_y
 _atom_site_fract_z
 _atom_site_occupancy
  Cr  Cr0  1  0.99132167  -0.00750977  -0.00729724  1
  Cr  Cr1  1  0.15972563  0.15992070  0.15742790  1
  Cr  Cr2  1  0.99216515  0.99162197  0.32426036  1
  Cr  Cr3  1  -0.00734219  0.32498576  0.99170995  1
  Cr  Cr4  1  0.15870562  0.49128264  0.15816297  1
  Cr  Cr5  1  0.99083964  0.32640688  0.32549174  1
  Cr  Cr6  1  0.99076047  0.65937156  -0.00539968  1
  Cr  Cr7  1  0.15753613  0.82564531  0.15896329  1
  Cr  Cr8  1  0.99057914  0.65882070  0.32420703  1
  Cr  Cr9  1  0.32521044  -0.00633651  -0.00657278  1
  Cr  Cr10  1  0.49205765  0.16020340  0.15989043  1
  Cr  Cr11  1  0.32619607  -0.00680132  0.32657873  1
  Ni  Ni12  1  0.32611845  0.32638225  0.99163252  1
  Cr  Cr13  1  0.49307211  0.49099299  0.15775805  1
  Cr  Cr14  1  0.32705822  0.32436755  0.32682809  1
  Cr  Cr15  1  0.32679950  0.65717339  0.99100505  1
  Cr  Cr16  1  0.49395719  0.82565129  0.15855359  1
  Cr  Cr17  1  0.32574253  0.65928198  0.32652391  1
  Cr  Cr18  1  0.66031513  0.99176461  0.99199452  1
  Cr  Cr19  1  0.82506556  0.15903580  0.15888052  1
  Cr  Cr20  1  0.65848712  -0.00706383  0.32567854  1
  Cr  Cr21  1  0.65811768  0.32657366  0.99194737  1
  Fe  Fe22  1  0.82527401  0.49358594  0.15927979  1
  Fe  Fe23  1  0.65894960  0.32562496  0.32562671  1
  Cr  Cr24  1  0.65928899  0.65851093  -0.00659704  1
  Ni  Ni25  1  0.82547405  0.82442346  0.15894578  1
  Cr  Cr26  1  0.66052594  0.65795555  0.32322816  1
  Cr  Cr27  1  0.15970452  0.15931700  0.49171602  1
  Cr  Cr28  1  0.99045111  -0.00692984  0.65988661  1
  Cr  Cr29  1  0.15848122  0.16046536  0.82770512  1
  Cr  Cr30  1  0.15868569  0.49228656  0.49279064  1
  Cr  Cr31  1  0.99167917  0.32494495  0.65964184  1
  Cr  Cr32  1  0.16053638  0.49110444  0.82589779  1
  Cr  Cr33  1  0.15924635  0.82524356  0.49260810  1
  Cr  Cr34  1  -0.00746575  0.65883261  0.65803381  1
  Cr  Cr35  1  0.15894889  0.82527787  0.82527647  1
  Fe  Fe36  1  0.49346148  0.15846486  0.49278368  1
  Cr  Cr37  1  0.32727358  -0.00750021  0.65684892  1
  Cr  Cr38  1  0.49342993  0.15964039  0.82587870  1
  Cr  Cr39  1  0.49272546  0.49097240  0.49212009  1
  Cr  Cr40  1  0.32650154  0.32597234  0.65899918  1
  Fe  Fe41  1  0.49142658  0.49148157  0.82646032  1
  Cr  Cr42  1  0.49299567  0.82738787  0.49340894  1
  Cr  Cr43  1  0.32621714  0.65837466  0.65931690  1
  Cr  Cr44  1  0.49368830  0.82537383  0.82488461  1
  Cr  Cr45  1  0.82329236  0.15904659  0.49381314  1
  Ni  Ni46  1  0.65911894  -0.00655140  0.65885912  1
  Fe  Fe47  1  0.82481075  0.15809840  0.82476662  1
  Cr  Cr48  1  0.82543602  0.49143268  0.49055391  1
  Cr  Cr49  1  0.65866659  0.32388835  0.65894486  1
  Cr  Cr50  1  0.82503169  0.49136013  0.82524462  1
  Cr  Cr51  1  0.82460572  0.82636624  0.49375627  1
  Cr  Cr52  1  0.65809636  0.65960201  0.66020718  1
  Cr  Cr53  1  0.82420918  0.82743128  0.82414461  1
" 