4217,Ni6Fe23Cr70_9,-210.689143104476, 189.988295630003,Ni6Fe23Cr70,"# generated using pymatgen
 data_Cr13Fe4Ni
_symmetry_space_group_name_H-M   'P 1'
_cell_length_a   7.56384436
_cell_length_b   7.56384436
_cell_length_c   10.69689128
_cell_angle_alpha   90.00000000
_cell_angle_beta   90.00000000
_cell_angle_gamma   90.00000000
_symmetry_Int_Tables_number   1
_chemical_formula_structural   Cr13Fe4Ni
_chemical_formula_sum   'Cr39 Fe12 Ni3'
_cell_volume   611.98777953
_cell_formula_units_Z   3
loop_
 _symmetry_equiv_pos_site_id
 _symmetry_equiv_pos_as_xyz
  1  'x, y, z'
loop_
 _atom_site_type_symbol
 _atom_site_label
 _atom_site_symmetry_multiplicity
 _atom_site_fract_x
 _atom_site_fract_y
 _atom_site_fract_z
 _atom_site_occupancy
  Cr  Cr0  1  -0.00340389  0.99330214  0.99083531  1
  Cr  Cr1  1  0.16089287  0.16173966  0.15882672  1
  Fe  Fe2  1  -0.00600737  -0.00630456  0.32833555  1
  Cr  Cr3  1  0.99336135  0.32782187  0.99134369  1
  Cr  Cr4  1  0.16185337  0.49089424  0.16060774  1
  Cr  Cr5  1  0.99230667  0.32659120  0.32970083  1
  Cr  Cr6  1  -0.00517196  0.65871083  0.99137720  1
  Cr  Cr7  1  0.15904971  0.82875340  0.16027399  1
  Cr  Cr8  1  -0.00500961  0.65972832  0.32582577  1
  Cr  Cr9  1  0.32785693  -0.00472897  0.99095597  1
  Fe  Fe10  1  0.49320600  0.16166416  0.15957240  1
  Cr  Cr11  1  0.32689501  0.99282372  0.32654802  1
  Fe  Fe12  1  0.32880521  0.32699722  0.99084401  1
  Cr  Cr13  1  0.49271508  0.49160253  0.15990039  1
  Cr  Cr14  1  0.32716930  0.32592536  0.32675217  1
  Cr  Cr15  1  0.32625870  0.66194978  -0.00573530  1
  Cr  Cr16  1  0.49497551  0.82717961  0.16112047  1
  Cr  Cr17  1  0.32578471  0.66193472  0.32721093  1
  Cr  Cr18  1  0.65736315  -0.00362351  -0.00574405  1
  Cr  Cr19  1  0.82810790  0.15909293  0.16213796  1
  Cr  Cr20  1  0.65909589  -0.00434294  0.32742112  1
  Cr  Cr21  1  0.65971165  0.32669134  0.99023385  1
  Cr  Cr22  1  0.82636705  0.49299745  0.15822368  1
  Cr  Cr23  1  0.66141746  0.32566430  0.32974312  1
  Cr  Cr24  1  0.65967830  0.65830825  0.99101308  1
  Cr  Cr25  1  0.82656835  0.82835280  0.15900426  1
  Cr  Cr26  1  0.66012691  0.66000892  0.32699108  1
  Cr  Cr27  1  0.15898421  0.15947733  0.49563596  1
  Fe  Fe28  1  -0.00626845  0.99236913  0.66222951  1
  Fe  Fe29  1  0.16302702  0.16057160  0.82456893  1
  Cr  Cr30  1  0.16290462  0.49298785  0.49409308  1
  Cr  Cr31  1  -0.00604478  0.32716877  0.65961849  1
  Cr  Cr32  1  0.16228303  0.49143476  0.82655144  1
  Cr  Cr33  1  0.15962861  0.82738244  0.49734344  1
  Fe  Fe34  1  0.99145547  0.65972791  0.66228096  1
  Fe  Fe35  1  0.16084987  0.82531969  0.82342907  1
  Cr  Cr36  1  0.49131165  0.16103001  0.49516979  1
  Fe  Fe37  1  0.32564666  -0.00583010  0.66255475  1
  Fe  Fe38  1  0.49206671  0.16352131  0.82496074  1
  Cr  Cr39  1  0.49262727  0.49469330  0.49637519  1
  Fe  Fe40  1  0.32853237  0.32670464  0.66204259  1
  Ni  Ni41  1  0.49228124  0.49209066  0.82455351  1
  Cr  Cr42  1  0.49388470  0.82527919  0.49616008  1
  Fe  Fe43  1  0.32761161  0.65895547  0.66225219  1
  Cr  Cr44  1  0.49375407  0.82634082  0.82459894  1
  Fe  Fe45  1  0.82751668  0.15904313  0.49506713  1
  Cr  Cr46  1  0.65840096  -0.00499764  0.65979400  1
  Cr  Cr47  1  0.82869772  0.15923999  0.82619755  1
  Cr  Cr48  1  0.82619380  0.49602891  0.49586216  1
  Cr  Cr49  1  0.66146809  0.32805418  0.66031487  1
  Ni  Ni50  1  0.82536813  0.49368448  0.82453109  1
  Cr  Cr51  1  0.82679946  0.82859724  0.49459155  1
  Ni  Ni52  1  0.65893298  0.65957653  0.66317495  1
  Cr  Cr53  1  0.82658506  0.82628666  0.82720111  1
" 