383,Ni6Fe9Cr83_3,-205.660850728378, 196.881159243335,Ni6Fe9Cr83,"# generated using pymatgen
 data_Cr46Fe5Ni3
_symmetry_space_group_name_H-M   'P 1'
_cell_length_a   7.58477640
_cell_length_b   7.58477640
_cell_length_c   10.72649365
_cell_angle_alpha   90.00000000
_cell_angle_beta   90.00000000
_cell_angle_gamma   90.00000000
_symmetry_Int_Tables_number   1
_chemical_formula_structural   Cr46Fe5Ni3
_chemical_formula_sum   'Cr46 Fe5 Ni3'
_cell_volume   617.08266123
_cell_formula_units_Z   1
loop_
 _symmetry_equiv_pos_site_id
 _symmetry_equiv_pos_as_xyz
  1  'x, y, z'
loop_
 _atom_site_type_symbol
 _atom_site_label
 _atom_site_symmetry_multiplicity
 _atom_site_fract_x
 _atom_site_fract_y
 _atom_site_fract_z
 _atom_site_occupancy
  Cr  Cr0  1  0.99031582  0.99121171  0.99034693  1
  Cr  Cr1  1  0.15811908  0.15845353  0.15819731  1
  Cr  Cr2  1  0.99156410  0.99144042  0.32536714  1
  Cr  Cr3  1  0.99149807  0.32670429  -0.00576714  1
  Cr  Cr4  1  0.15902842  0.49436289  0.15840247  1
  Cr  Cr5  1  0.99179153  0.32734493  0.32313897  1
  Cr  Cr6  1  0.98984640  0.65886690  0.99210414  1
  Cr  Cr7  1  0.15984857  0.82392789  0.15839286  1
  Cr  Cr8  1  0.99043574  0.65803240  0.32587099  1
  Cr  Cr9  1  0.32644572  0.99196963  -0.00741652  1
  Cr  Cr10  1  0.49338839  0.15844852  0.15972285  1
  Cr  Cr11  1  0.32631038  -0.00713545  0.32579584  1
  Cr  Cr12  1  0.32671430  0.32743015  0.99098242  1
  Cr  Cr13  1  0.49308403  0.49486469  0.15663921  1
  Cr  Cr14  1  0.32590648  0.32578839  0.32570182  1
  Ni  Ni15  1  0.32830970  0.65694058  0.99079014  1
  Cr  Cr16  1  0.49270290  0.82336453  0.15772947  1
  Cr  Cr17  1  0.32594480  0.65807824  0.32698318  1
  Cr  Cr18  1  0.66009123  0.99041451  0.99197284  1
  Cr  Cr19  1  0.82516372  0.15932073  0.15929089  1
  Cr  Cr20  1  0.65889872  0.99139694  0.32532846  1
  Cr  Cr21  1  0.65858332  0.32759658  0.99191855  1
  Fe  Fe22  1  0.82461463  0.49433279  0.15799762  1
  Cr  Cr23  1  0.65895613  0.32687979  0.32515644  1
  Fe  Fe24  1  0.65795261  0.65846382  0.99070937  1
  Fe  Fe25  1  0.82535896  0.82416287  0.15749164  1
  Cr  Cr26  1  0.66039907  0.65854134  0.32366999  1
  Cr  Cr27  1  0.15805345  0.15949683  0.49235237  1
  Cr  Cr28  1  0.99140689  0.99045437  0.66109994  1
  Cr  Cr29  1  0.15839416  0.15960196  0.82620895  1
  Cr  Cr30  1  0.15870030  0.49223333  0.49257945  1
  Cr  Cr31  1  -0.00706174  0.32673281  0.65915261  1
  Cr  Cr32  1  0.16115758  0.49320690  0.82586287  1
  Cr  Cr33  1  0.15899818  0.82500197  0.49194168  1
  Cr  Cr34  1  0.99100373  0.65943645  0.65867631  1
  Cr  Cr35  1  0.15874957  0.82405303  0.82641853  1
  Cr  Cr36  1  0.49401308  0.16022888  0.49308796  1
  Cr  Cr37  1  0.32639595  -0.00701301  0.65826610  1
  Cr  Cr38  1  0.49334255  0.16152398  0.82408667  1
  Cr  Cr39  1  0.49332375  0.49149238  0.49451508  1
  Fe  Fe40  1  0.32755674  0.32663557  0.66023576  1
  Ni  Ni41  1  0.49265392  0.49306877  0.82590050  1
  Cr  Cr42  1  0.49251807  0.82502943  0.49038909  1
  Cr  Cr43  1  0.32685560  0.65718814  0.65909614  1
  Cr  Cr44  1  0.49268403  0.82244637  0.82827531  1
  Cr  Cr45  1  0.82467251  0.16027437  0.49366640  1
  Cr  Cr46  1  0.65882039  0.99108537  0.65953419  1
  Cr  Cr47  1  0.82496788  0.15872977  0.82389800  1
  Cr  Cr48  1  0.82472489  0.49082090  0.49184475  1
  Fe  Fe49  1  0.65682321  0.32735126  0.66034585  1
  Cr  Cr50  1  0.82315905  0.49259453  0.82580310  1
  Cr  Cr51  1  0.82518826  0.82564762  0.49250670  1
  Cr  Cr52  1  0.65874115  0.65856417  0.66105078  1
  Ni  Ni53  1  0.82379756  0.82382375  0.82760057  1
" 