7007,Ni6Fe10Cr82_6,-205.576614660317, 198.127055474455,Ni6Fe10Cr82,"# generated using pymatgen
 data_Cr46Fe5Ni3
_symmetry_space_group_name_H-M   'P 1'
_cell_length_a   7.58344941
_cell_length_b   7.58344941
_cell_length_c   10.72461701
_cell_angle_alpha   90.00000000
_cell_angle_beta   90.00000000
_cell_angle_gamma   90.00000000
_symmetry_Int_Tables_number   1
_chemical_formula_structural   Cr46Fe5Ni3
_chemical_formula_sum   'Cr46 Fe5 Ni3'
_cell_volume   616.75883558
_cell_formula_units_Z   1
loop_
 _symmetry_equiv_pos_site_id
 _symmetry_equiv_pos_as_xyz
  1  'x, y, z'
loop_
 _atom_site_type_symbol
 _atom_site_label
 _atom_site_symmetry_multiplicity
 _atom_site_fract_x
 _atom_site_fract_y
 _atom_site_fract_z
 _atom_site_occupancy
  Cr  Cr0  1  0.99003854  -0.00703150  -0.00762941  1
  Cr  Cr1  1  0.15872243  0.15910044  0.16160445  1
  Ni  Ni2  1  -0.00681955  -0.00690714  0.32576360  1
  Cr  Cr3  1  0.99206561  0.32533492  0.99099310  1
  Cr  Cr4  1  0.15965284  0.49207634  0.15822895  1
  Cr  Cr5  1  -0.00669692  0.32451150  0.32680798  1
  Cr  Cr6  1  0.99205891  0.65867206  -0.00700241  1
  Cr  Cr7  1  0.15671917  0.82579943  0.15920064  1
  Cr  Cr8  1  0.99031022  0.65952884  0.32551871  1
  Cr  Cr9  1  0.32738775  0.99225473  0.99128113  1
  Cr  Cr10  1  0.49299120  0.15910459  0.15873205  1
  Cr  Cr11  1  0.32396174  -0.00577958  0.32731766  1
  Cr  Cr12  1  0.32508311  0.32577519  -0.00637182  1
  Cr  Cr13  1  0.49134500  0.49135441  0.15960709  1
  Fe  Fe14  1  0.32492913  0.32490674  0.32597588  1
  Cr  Cr15  1  0.32580464  0.65894552  0.99143549  1
  Cr  Cr16  1  0.49427026  0.82651637  0.15772366  1
  Cr  Cr17  1  0.32654991  0.65830061  0.32542705  1
  Ni  Ni18  1  0.66003822  -0.00764761  -0.00764947  1
  Cr  Cr19  1  0.82526141  0.15617440  0.15758385  1
  Cr  Cr20  1  0.66006817  0.99122306  0.32388884  1
  Cr  Cr21  1  0.65982850  0.32375209  0.99086340  1
  Cr  Cr22  1  0.82597769  0.49335455  0.15935630  1
  Cr  Cr23  1  0.65883809  0.32709710  0.32704332  1
  Cr  Cr24  1  0.65911215  0.66097473  -0.00573659  1
  Fe  Fe25  1  0.82566787  0.82729267  0.15898037  1
  Cr  Cr26  1  0.66011693  0.65865484  0.32575805  1
  Fe  Fe27  1  0.15808624  0.15894126  0.49120076  1
  Cr  Cr28  1  -0.00698890  -0.00585656  0.65862814  1
  Cr  Cr29  1  0.15788183  0.15883365  0.82553229  1
  Cr  Cr30  1  0.15820883  0.49154191  0.49164989  1
  Cr  Cr31  1  0.99037245  0.32532134  0.65917676  1
  Cr  Cr32  1  0.15871876  0.49314020  0.82709825  1
  Cr  Cr33  1  0.15786556  0.82726651  0.49267246  1
  Cr  Cr34  1  0.99136670  0.65751388  0.65845597  1
  Cr  Cr35  1  0.15886844  0.82500151  0.82510139  1
  Cr  Cr36  1  0.49172194  0.16025576  0.49193425  1
  Cr  Cr37  1  0.32533954  -0.00756099  0.65838178  1
  Cr  Cr38  1  0.49520408  0.15874165  0.82630771  1
  Cr  Cr39  1  0.49375459  0.49082387  0.49231934  1
  Cr  Cr40  1  0.32561713  0.32467056  0.65803320  1
  Cr  Cr41  1  0.49256174  0.49142828  0.82505006  1
  Cr  Cr42  1  0.49200949  0.82589533  0.49336915  1
  Cr  Cr43  1  0.32633556  0.65986795  0.66011291  1
  Cr  Cr44  1  0.49250165  0.82680407  0.82588170  1
  Cr  Cr45  1  0.82637877  0.15991393  0.49324331  1
  Cr  Cr46  1  0.65862462  -0.00656963  0.66037762  1
  Fe  Fe47  1  0.82453677  0.15848954  0.82614833  1
  Ni  Ni48  1  0.82552300  0.49108513  0.49320117  1
  Fe  Fe49  1  0.66011775  0.32613323  0.65847895  1
  Cr  Cr50  1  0.82569415  0.49043491  0.82396170  1
  Cr  Cr51  1  0.82710082  0.82523640  0.49047941  1
  Cr  Cr52  1  0.65927547  0.65723054  0.65695006  1
  Cr  Cr53  1  0.82560477  0.82764126  0.82711636  1
" 