4779,Ni6Fe61Cr31_10,-221.204429494483, 165.905115923825,Ni6Fe61Cr31,"# generated using pymatgen
 data_Cr6Fe11Ni
_symmetry_space_group_name_H-M   'P 1'
_cell_length_a   7.49262176
_cell_length_b   7.49262176
_cell_length_c   10.59616731
_cell_angle_alpha   90.00000000
_cell_angle_beta   90.00000000
_cell_angle_gamma   90.00000000
_symmetry_Int_Tables_number   1
_chemical_formula_structural   Cr6Fe11Ni
_chemical_formula_sum   'Cr18 Fe33 Ni3'
_cell_volume   594.86227133
_cell_formula_units_Z   3
loop_
 _symmetry_equiv_pos_site_id
 _symmetry_equiv_pos_as_xyz
  1  'x, y, z'
loop_
 _atom_site_type_symbol
 _atom_site_label
 _atom_site_symmetry_multiplicity
 _atom_site_fract_x
 _atom_site_fract_y
 _atom_site_fract_z
 _atom_site_occupancy
  Fe  Fe0  1  0.99650647  0.99755115  0.00056176  1
  Fe  Fe1  1  0.16283586  0.16483685  0.16537262  1
  Fe  Fe2  1  0.99521111  0.99531941  0.33001274  1
  Fe  Fe3  1  -0.00125638  0.33124170  -0.00014766  1
  Cr  Cr4  1  0.16635570  0.49757470  0.16695826  1
  Fe  Fe5  1  0.99743132  0.33199719  0.33098280  1
  Cr  Cr6  1  0.99713061  0.66681173  0.99657102  1
  Fe  Fe7  1  0.16269334  0.83184654  0.16695581  1
  Ni  Ni8  1  0.99638721  0.66709816  0.33268377  1
  Cr  Cr9  1  0.33068300  0.00002405  -0.00157676  1
  Fe  Fe10  1  0.49912556  0.16638352  0.16456325  1
  Cr  Cr11  1  0.33166556  0.00008744  0.33295112  1
  Fe  Fe12  1  0.33341780  0.33284247  0.99806857  1
  Fe  Fe13  1  0.49834982  0.49866900  0.16672794  1
  Fe  Fe14  1  0.33233628  0.33304265  0.33077367  1
  Cr  Cr15  1  0.33033972  0.66513454  0.99677043  1
  Fe  Fe16  1  0.49988612  0.83048776  0.16661852  1
  Fe  Fe17  1  0.33288645  0.66683005  0.33030082  1
  Fe  Fe18  1  0.66607924  0.99812773  0.00007137  1
  Fe  Fe19  1  0.83252964  0.16297225  0.16426037  1
  Fe  Fe20  1  0.66685680  0.99474715  0.33110110  1
  Fe  Fe21  1  0.66273048  0.32992832  -0.00048944  1
  Cr  Cr22  1  0.83240434  0.49784358  0.16777265  1
  Cr  Cr23  1  0.66460986  0.33145539  0.33312833  1
  Cr  Cr24  1  0.66752460  0.66321440  -0.00024773  1
  Fe  Fe25  1  0.83208630  0.83305251  0.16743791  1
  Ni  Ni26  1  0.66784578  0.66635247  0.33218807  1
  Cr  Cr27  1  0.16165949  0.16561591  0.49581312  1
  Fe  Fe28  1  0.99753216  0.99457101  0.66487300  1
  Cr  Cr29  1  0.16190077  0.16546485  0.83293869  1
  Cr  Cr30  1  0.16377342  0.49952112  0.49683084  1
  Fe  Fe31  1  0.99819692  0.33382417  0.66450081  1
  Fe  Fe32  1  0.16493845  0.49957653  0.82967552  1
  Fe  Fe33  1  0.16228319  0.82954177  0.49828983  1
  Ni  Ni34  1  0.99591653  0.66664228  0.66516913  1
  Fe  Fe35  1  0.16178596  0.83110968  0.82908177  1
  Fe  Fe36  1  0.49984252  0.16465792  0.49818446  1
  Cr  Cr37  1  0.33158189  -0.00118493  0.66315914  1
  Fe  Fe38  1  0.50096959  0.16629748  0.83278019  1
  Cr  Cr39  1  0.49828959  0.50360819  0.49726975  1
  Cr  Cr40  1  0.33440939  0.32931938  0.66604712  1
  Fe  Fe41  1  0.49853295  0.49588213  0.83112144  1
  Fe  Fe42  1  0.50049786  0.83216151  0.49783900  1
  Fe  Fe43  1  0.32873352  0.66492727  0.66578828  1
  Cr  Cr44  1  0.50013755  0.83038206  0.82990243  1
  Cr  Cr45  1  0.83254084  0.16327609  0.49942284  1
  Fe  Fe46  1  0.66668380  0.99683271  0.66401853  1
  Cr  Cr47  1  0.83135225  0.16269230  0.83281064  1
  Fe  Fe48  1  0.83282831  0.50162263  0.49857149  1
  Fe  Fe49  1  0.66594330  0.33211713  0.66392143  1
  Cr  Cr50  1  0.83128893  0.49686581  0.82887138  1
  Fe  Fe51  1  0.83229462  0.82835860  0.49803782  1
  Fe  Fe52  1  0.66624638  0.66591387  0.66310854  1
  Fe  Fe53  1  0.83302967  0.83277224  0.82944393  1
" 