5845,Ni6Fe23Cr70_6,-211.00070971962, 197.999121437779,Ni6Fe23Cr70,"# generated using pymatgen
 data_Cr13Fe4Ni
_symmetry_space_group_name_H-M   'P 1'
_cell_length_a   7.56236841
_cell_length_b   7.56236841
_cell_length_c   10.69480397
_cell_angle_alpha   90.00000000
_cell_angle_beta   90.00000000
_cell_angle_gamma   90.00000000
_symmetry_Int_Tables_number   1
_chemical_formula_structural   Cr13Fe4Ni
_chemical_formula_sum   'Cr39 Fe12 Ni3'
_cell_volume   611.62959291
_cell_formula_units_Z   3
loop_
 _symmetry_equiv_pos_site_id
 _symmetry_equiv_pos_as_xyz
  1  'x, y, z'
loop_
 _atom_site_type_symbol
 _atom_site_label
 _atom_site_symmetry_multiplicity
 _atom_site_fract_x
 _atom_site_fract_y
 _atom_site_fract_z
 _atom_site_occupancy
  Cr  Cr0  1  0.99262359  0.99335213  0.99275820  1
  Cr  Cr1  1  0.15986386  0.16007082  0.15838698  1
  Cr  Cr2  1  -0.00587754  -0.00597961  0.32479697  1
  Cr  Cr3  1  0.99305231  0.32848078  0.99219251  1
  Fe  Fe4  1  0.16060601  0.49520985  0.15875683  1
  Cr  Cr5  1  -0.00510899  0.32858965  0.32777061  1
  Cr  Cr6  1  -0.00607719  0.65981035  0.99175553  1
  Fe  Fe7  1  0.16084909  0.82596556  0.15875589  1
  Cr  Cr8  1  -0.00382086  0.65770460  0.33016041  1
  Cr  Cr9  1  0.32835968  0.99255144  0.98979057  1
  Cr  Cr10  1  0.49323406  0.16159411  0.16199452  1
  Cr  Cr11  1  0.32765270  0.99308752  0.32906425  1
  Cr  Cr12  1  0.32684227  0.32870431  -0.00561292  1
  Fe  Fe13  1  0.49331162  0.49524120  0.15892700  1
  Cr  Cr14  1  0.32600626  0.32954510  0.32775981  1
  Fe  Fe15  1  0.32692960  0.66013925  -0.00572040  1
  Cr  Cr16  1  0.49274061  0.82475536  0.15875303  1
  Cr  Cr17  1  0.32615196  0.65895786  0.32326140  1
  Cr  Cr18  1  0.66032951  0.99287080  0.99362471  1
  Fe  Fe19  1  0.82780418  0.16068168  0.15973445  1
  Cr  Cr20  1  0.65987547  -0.00623307  0.32499347  1
  Cr  Cr21  1  0.66037871  0.32764814  -0.00379634  1
  Cr  Cr22  1  0.82701385  0.49475769  0.16006209  1
  Cr  Cr23  1  0.66032294  0.32722633  0.32436821  1
  Cr  Cr24  1  0.65959342  0.66071655  0.98829200  1
  Cr  Cr25  1  0.82877128  0.82588625  0.16134059  1
  Cr  Cr26  1  0.65924507  0.65928509  0.33041835  1
  Cr  Cr27  1  0.16159475  0.16100247  0.49897602  1
  Cr  Cr28  1  0.99308407  0.99341855  0.66358059  1
  Fe  Fe29  1  0.15958893  0.16136947  0.82609683  1
  Fe  Fe30  1  0.16194615  0.49340740  0.49540984  1
  Cr  Cr31  1  0.99250171  0.32860702  0.66139644  1
  Cr  Cr32  1  0.16042322  0.49308669  0.82797677  1
  Cr  Cr33  1  0.16020964  0.82754742  0.49177068  1
  Cr  Cr34  1  0.99294585  0.65908476  0.65871446  1
  Cr  Cr35  1  0.16037746  0.82751776  0.82872069  1
  Cr  Cr36  1  0.49342366  0.16209046  0.49620677  1
  Fe  Fe37  1  0.32659273  -0.00612799  0.66220077  1
  Cr  Cr38  1  0.49138366  0.16208718  0.82337670  1
  Cr  Cr39  1  0.49488639  0.49234324  0.49531331  1
  Fe  Fe40  1  0.32759018  0.32852044  0.66126785  1
  Cr  Cr41  1  0.49512862  0.49300382  0.82791500  1
  Cr  Cr42  1  0.49364912  0.82656327  0.49625835  1
  Cr  Cr43  1  0.32801835  0.66123148  0.66097667  1
  Fe  Fe44  1  0.49571071  0.82593886  0.82539673  1
  Cr  Cr45  1  0.82648068  0.16077410  0.49022192  1
  Cr  Cr46  1  0.65999421  0.99237177  0.66238825  1
  Cr  Cr47  1  0.82563821  0.16225332  0.83018989  1
  Fe  Fe48  1  0.82571660  0.49145603  0.49619815  1
  Ni  Ni49  1  0.66058456  0.32876397  0.66061028  1
  Ni  Ni50  1  0.82545016  0.49596515  0.82353486  1
  Cr  Cr51  1  0.82732517  0.82462887  0.49372063  1
  Fe  Fe52  1  0.66207635  0.65821442  0.66250638  1
  Ni  Ni53  1  0.82668059  0.82393549  0.82616169  1
" 