8480,Ni6Fe10Cr82_5,-205.569606558407, 198.157128429489,Ni6Fe10Cr82,"# generated using pymatgen
 data_Cr46Fe5Ni3
_symmetry_space_group_name_H-M   'P 1'
_cell_length_a   7.58457254
_cell_length_b   7.58457254
_cell_length_c   10.72620535
_cell_angle_alpha   90.00000000
_cell_angle_beta   90.00000000
_cell_angle_gamma   90.00000000
_symmetry_Int_Tables_number   1
_chemical_formula_structural   Cr46Fe5Ni3
_chemical_formula_sum   'Cr46 Fe5 Ni3'
_cell_volume   617.03290689
_cell_formula_units_Z   1
loop_
 _symmetry_equiv_pos_site_id
 _symmetry_equiv_pos_as_xyz
  1  'x, y, z'
loop_
 _atom_site_type_symbol
 _atom_site_label
 _atom_site_symmetry_multiplicity
 _atom_site_fract_x
 _atom_site_fract_y
 _atom_site_fract_z
 _atom_site_occupancy
  Cr  Cr0  1  0.99159027  -0.00622935  0.98913596  1
  Cr  Cr1  1  0.16045515  0.15887362  0.16039129  1
  Cr  Cr2  1  -0.00533364  -0.00738993  0.32688283  1
  Cr  Cr3  1  0.99146333  0.32349229  0.99148013  1
  Cr  Cr4  1  0.15771557  0.49306124  0.15938681  1
  Cr  Cr5  1  -0.00771967  0.32528464  0.32557463  1
  Cr  Cr6  1  -0.00666633  0.65949782  -0.00743404  1
  Cr  Cr7  1  0.15883868  0.82482288  0.16015671  1
  Fe  Fe8  1  -0.00730504  0.65935054  0.32559400  1
  Cr  Cr9  1  0.32511457  0.99116877  0.99212682  1
  Cr  Cr10  1  0.49239145  0.15700634  0.15893286  1
  Ni  Ni11  1  0.32407540  0.99215905  0.32633592  1
  Cr  Cr12  1  0.32507617  0.32592619  0.99206954  1
  Cr  Cr13  1  0.49148659  0.49128372  0.15795001  1
  Cr  Cr14  1  0.32489624  0.32391149  0.32628103  1
  Cr  Cr15  1  0.32581181  0.65966304  0.99168363  1
  Cr  Cr16  1  0.49223173  0.82846541  0.15868720  1
  Cr  Cr17  1  0.32562425  0.66067421  0.32454354  1
  Ni  Ni18  1  0.65995065  -0.00686838  0.99136938  1
  Cr  Cr19  1  0.82391103  0.15812769  0.15700169  1
  Cr  Cr20  1  0.65776882  0.99188554  0.32546466  1
  Cr  Cr21  1  0.66021649  0.32418623  -0.00716950  1
  Cr  Cr22  1  0.82755691  0.49290320  0.15990997  1
  Cr  Cr23  1  0.65957736  0.32658306  0.32511512  1
  Cr  Cr24  1  0.65761207  0.65953419  -0.00751034  1
  Cr  Cr25  1  0.82568743  0.82572751  0.15916829  1
  Cr  Cr26  1  0.65914119  0.65828754  0.32626414  1
  Fe  Fe27  1  0.16008368  0.15841722  0.49171345  1
  Cr  Cr28  1  -0.00636612  -0.00564118  0.66073745  1
  Fe  Fe29  1  0.15761547  0.15860430  0.82527416  1
  Cr  Cr30  1  0.15834312  0.49144371  0.49200684  1
  Cr  Cr31  1  -0.00710420  0.32268465  0.65970124  1
  Cr  Cr32  1  0.15949126  0.49200686  0.82536701  1
  Cr  Cr33  1  0.15844463  0.82614176  0.49054701  1
  Cr  Cr34  1  -0.00728611  0.65971641  0.65890807  1
  Fe  Fe35  1  0.15850123  0.82665698  0.82555750  1
  Cr  Cr36  1  0.48998335  0.15842174  0.49166792  1
  Cr  Cr37  1  0.32303663  -0.00721378  0.65848309  1
  Cr  Cr38  1  0.49306570  0.15845498  0.82615573  1
  Cr  Cr39  1  0.49123028  0.49069436  0.49452306  1
  Fe  Fe40  1  0.32490516  0.32493456  0.65892372  1
  Cr  Cr41  1  0.49041344  0.49124358  0.82428598  1
  Cr  Cr42  1  0.49187200  0.82763852  0.49161841  1
  Cr  Cr43  1  0.32639620  0.65885780  0.66052711  1
  Cr  Cr44  1  0.49227073  0.82705398  0.82645019  1
  Cr  Cr45  1  0.82568692  0.15852361  0.49256613  1
  Cr  Cr46  1  0.66008234  -0.00739533  0.65935679  1
  Ni  Ni47  1  0.82642409  0.15728610  0.82661657  1
  Cr  Cr48  1  0.82718566  0.49333354  0.49152898  1
  Cr  Cr49  1  0.65922724  0.32603971  0.65880901  1
  Cr  Cr50  1  0.82685016  0.49121159  0.82531985  1
  Cr  Cr51  1  0.82644400  0.82490174  0.49154800  1
  Cr  Cr52  1  0.65764692  0.65811374  0.65800351  1
  Cr  Cr53  1  0.82601567  0.82810828  0.82603890  1
" 