5972,Ni6Fe10Cr82_17,-205.525928025631, 198.101128768366,Ni6Fe10Cr82,"# generated using pymatgen
 data_Cr46Fe5Ni3
_symmetry_space_group_name_H-M   'P 1'
_cell_length_a   7.58428549
_cell_length_b   7.58428549
_cell_length_c   10.72579940
_cell_angle_alpha   90.00000000
_cell_angle_beta   90.00000000
_cell_angle_gamma   90.00000000
_symmetry_Int_Tables_number   1
_chemical_formula_structural   Cr46Fe5Ni3
_chemical_formula_sum   'Cr46 Fe5 Ni3'
_cell_volume   616.96285088
_cell_formula_units_Z   1
loop_
 _symmetry_equiv_pos_site_id
 _symmetry_equiv_pos_as_xyz
  1  'x, y, z'
loop_
 _atom_site_type_symbol
 _atom_site_label
 _atom_site_symmetry_multiplicity
 _atom_site_fract_x
 _atom_site_fract_y
 _atom_site_fract_z
 _atom_site_occupancy
  Cr  Cr0  1  0.99082410  -0.00759821  -0.00709438  1
  Cr  Cr1  1  0.15909051  0.15942479  0.15961346  1
  Cr  Cr2  1  -0.00754887  0.99114196  0.32496714  1
  Cr  Cr3  1  0.99184474  0.32449344  0.99152191  1
  Cr  Cr4  1  0.15980977  0.49228653  0.15666032  1
  Cr  Cr5  1  -0.00754477  0.32473025  0.32490206  1
  Cr  Cr6  1  -0.00649757  0.65991456  -0.00767418  1
  Cr  Cr7  1  0.15918279  0.82510412  0.15810580  1
  Cr  Cr8  1  0.99082266  0.66094067  0.32617579  1
  Cr  Cr9  1  0.32515549  0.99058415  0.99182743  1
  Cr  Cr10  1  0.49182977  0.15901907  0.15926982  1
  Cr  Cr11  1  0.32394411  0.99199678  0.32725143  1
  Cr  Cr12  1  0.32630486  0.32848600  -0.00662619  1
  Ni  Ni13  1  0.49295389  0.49471868  0.15962364  1
  Cr  Cr14  1  0.32714131  0.32707072  0.32570590  1
  Ni  Ni15  1  0.32640727  0.65798248  -0.00700972  1
  Cr  Cr16  1  0.49360123  0.82365496  0.15779224  1
  Cr  Cr17  1  0.32791341  0.65774344  0.32603031  1
  Cr  Cr18  1  0.66083562  0.99224131  0.99125026  1
  Cr  Cr19  1  0.82589214  0.15839006  0.15895909  1
  Cr  Cr20  1  0.66041564  0.99036445  0.32459804  1
  Cr  Cr21  1  0.65866514  0.32579980  0.99134372  1
  Cr  Cr22  1  0.82444030  0.49405803  0.16040115  1
  Cr  Cr23  1  0.65721612  0.32870073  0.32596078  1
  Cr  Cr24  1  0.65684757  0.65876836  -0.00544956  1
  Fe  Fe25  1  0.82434773  0.82435206  0.15978578  1
  Ni  Ni26  1  0.65813351  0.65798760  0.32472749  1
  Cr  Cr27  1  0.15993718  0.15854153  0.49089322  1
  Cr  Cr28  1  0.99226744  0.99121236  0.65893420  1
  Cr  Cr29  1  0.15863327  0.15957677  0.82630681  1
  Cr  Cr30  1  0.15789093  0.49315872  0.49358632  1
  Cr  Cr31  1  0.99123806  0.32561071  0.66038985  1
  Cr  Cr32  1  0.15772591  0.49331730  0.82656857  1
  Fe  Fe33  1  0.15855478  0.82530500  0.49261403  1
  Fe  Fe34  1  -0.00740164  0.65927445  0.65859589  1
  Cr  Cr35  1  0.15976998  0.82391948  0.82495718  1
  Cr  Cr36  1  0.49156606  0.15856120  0.49222079  1
  Cr  Cr37  1  0.32449623  0.99105091  0.65772974  1
  Cr  Cr38  1  0.49320992  0.15752685  0.82532081  1
  Fe  Fe39  1  0.49314696  0.49308210  0.49101741  1
  Cr  Cr40  1  0.32657290  0.32682766  0.65773402  1
  Cr  Cr41  1  0.49177540  0.49303094  0.82655110  1
  Cr  Cr42  1  0.49239024  0.82529754  0.49215510  1
  Cr  Cr43  1  0.32466677  0.65893606  0.65806501  1
  Cr  Cr44  1  0.49177654  0.82625463  0.82686916  1
  Cr  Cr45  1  0.82531016  0.15957639  0.49268008  1
  Cr  Cr46  1  0.66005051  -0.00687973  0.66096384  1
  Fe  Fe47  1  0.82561631  0.15893473  0.82560170  1
  Cr  Cr48  1  0.82548938  0.49398074  0.49245452  1
  Cr  Cr49  1  0.65900424  0.32578775  0.65951236  1
  Cr  Cr50  1  0.82731220  0.49188436  0.82395820  1
  Cr  Cr51  1  0.82550992  0.82325612  0.49117990  1
  Cr  Cr52  1  0.65883291  0.65790579  0.65791842  1
  Cr  Cr53  1  0.82526296  0.82534687  0.82523627  1
" 