5782,Ni6Fe61Cr31_5,-221.753319764181, 167.908907051449,Ni6Fe61Cr31,"# generated using pymatgen
 data_Cr6Fe11Ni
_symmetry_space_group_name_H-M   'P 1'
_cell_length_a   7.49347539
_cell_length_b   7.49347539
_cell_length_c   10.59737453
_cell_angle_alpha   90.00000000
_cell_angle_beta   90.00000000
_cell_angle_gamma   90.00000000
_symmetry_Int_Tables_number   1
_chemical_formula_structural   Cr6Fe11Ni
_chemical_formula_sum   'Cr18 Fe33 Ni3'
_cell_volume   595.06561210
_cell_formula_units_Z   3
loop_
 _symmetry_equiv_pos_site_id
 _symmetry_equiv_pos_as_xyz
  1  'x, y, z'
loop_
 _atom_site_type_symbol
 _atom_site_label
 _atom_site_symmetry_multiplicity
 _atom_site_fract_x
 _atom_site_fract_y
 _atom_site_fract_z
 _atom_site_occupancy
  Cr  Cr0  1  0.99797153  0.99459466  0.99728013  1
  Cr  Cr1  1  0.16556240  0.16555340  0.16338324  1
  Fe  Fe2  1  0.99532537  0.99700724  0.33125859  1
  Cr  Cr3  1  -0.00013240  0.33450899  0.99589384  1
  Fe  Fe4  1  0.16550660  0.50121705  0.16507536  1
  Fe  Fe5  1  -0.00073691  0.33196212  0.33138164  1
  Ni  Ni6  1  0.00021250  0.66511787  -0.00163084  1
  Fe  Fe7  1  0.16320603  0.82765006  0.16471710  1
  Fe  Fe8  1  0.00069856  0.66600391  0.33169235  1
  Fe  Fe9  1  0.32923603  0.99647382  0.99771692  1
  Fe  Fe10  1  0.49848931  0.16623475  0.16415086  1
  Cr  Cr11  1  0.33156135  0.99756928  0.33073652  1
  Fe  Fe12  1  0.33115983  0.33321916  0.99714126  1
  Cr  Cr13  1  0.49709326  0.49856588  0.16380346  1
  Fe  Fe14  1  0.32940528  0.33452714  0.33207792  1
  Fe  Fe15  1  0.32873731  0.66507627  0.99658182  1
  Cr  Cr16  1  0.49730217  0.83137201  0.16297689  1
  Fe  Fe17  1  0.32872732  0.66286457  0.33221426  1
  Cr  Cr18  1  0.66512409  0.99791650  0.00238210  1
  Fe  Fe19  1  0.83081710  0.16418224  0.16598486  1
  Fe  Fe20  1  0.66831417  0.99786020  0.33083578  1
  Fe  Fe21  1  0.66484893  0.33309295  0.99787175  1
  Cr  Cr22  1  0.83390928  0.50012168  0.16100584  1
  Cr  Cr23  1  0.66408784  0.32905397  0.33193527  1
  Fe  Fe24  1  0.66751252  0.66482874  0.99560906  1
  Fe  Fe25  1  0.83446306  0.83113611  0.16483184  1
  Cr  Cr26  1  0.66607255  0.66704256  0.33343591  1
  Cr  Cr27  1  0.16180693  0.16424943  0.50130592  1
  Fe  Fe28  1  -0.00057142  0.99485053  0.66603521  1
  Fe  Fe29  1  0.16481398  0.16332945  0.83059573  1
  Fe  Fe30  1  0.16539280  0.50116089  0.49809923  1
  Fe  Fe31  1  0.99807099  0.33368312  0.66605023  1
  Fe  Fe32  1  0.16325189  0.50132959  0.83114753  1
  Fe  Fe33  1  0.16223922  0.82902916  0.49922990  1
  Ni  Ni34  1  -0.00068565  0.66583320  0.66557570  1
  Fe  Fe35  1  0.16371256  0.83000180  0.83078958  1
  Cr  Cr36  1  0.49772735  0.16443158  0.49672099  1
  Fe  Fe37  1  0.32839951  0.99499231  0.66633913  1
  Cr  Cr38  1  0.49525885  0.16398810  0.83420421  1
  Fe  Fe39  1  0.49628355  0.49868381  0.49856459  1
  Cr  Cr40  1  0.33144323  0.33377129  0.66438931  1
  Fe  Fe41  1  0.49992482  0.50074469  0.83253058  1
  Cr  Cr42  1  0.49671355  0.82907745  0.50047020  1
  Fe  Fe43  1  0.32983585  0.66568889  0.66592796  1
  Fe  Fe44  1  0.49877508  0.82948220  0.83166919  1
  Fe  Fe45  1  0.83293093  0.16352197  0.49842657  1
  Cr  Cr46  1  0.66617645  0.99715448  0.66236484  1
  Cr  Cr47  1  0.83358020  0.16701650  0.82853143  1
  Cr  Cr48  1  0.83334477  0.49865308  0.50215240  1
  Fe  Fe49  1  0.66580005  0.33444483  0.66501689  1
  Fe  Fe50  1  0.83188179  0.50216109  0.83079683  1
  Fe  Fe51  1  0.83552379  0.83265447  0.49954401  1
  Fe  Fe52  1  0.66594053  0.66364184  0.66680100  1
  Ni  Ni53  1  0.83273045  0.82644827  0.83115427  1
" 