8710,Ni6Fe23Cr70_8,-210.864578862467, 195.579634901108,Ni6Fe23Cr70,"# generated using pymatgen
 data_Cr13Fe4Ni
_symmetry_space_group_name_H-M   'P 1'
_cell_length_a   7.56132078
_cell_length_b   7.56132078
_cell_length_c   10.69332239
_cell_angle_alpha   90.00000000
_cell_angle_beta   90.00000000
_cell_angle_gamma   90.00000000
_symmetry_Int_Tables_number   1
_chemical_formula_structural   Cr13Fe4Ni
_chemical_formula_sum   'Cr39 Fe12 Ni3'
_cell_volume   611.37543641
_cell_formula_units_Z   3
loop_
 _symmetry_equiv_pos_site_id
 _symmetry_equiv_pos_as_xyz
  1  'x, y, z'
loop_
 _atom_site_type_symbol
 _atom_site_label
 _atom_site_symmetry_multiplicity
 _atom_site_fract_x
 _atom_site_fract_y
 _atom_site_fract_z
 _atom_site_occupancy
  Cr  Cr0  1  -0.00570990  0.99161536  0.99303374  1
  Cr  Cr1  1  0.15735650  0.16043484  0.16107797  1
  Fe  Fe2  1  0.99023997  -0.00615758  0.32818195  1
  Fe  Fe3  1  -0.00618491  0.32787986  0.99280653  1
  Cr  Cr4  1  0.16038233  0.49514187  0.15984871  1
  Cr  Cr5  1  0.99059595  0.32773357  0.32814028  1
  Cr  Cr6  1  0.99229054  0.66173501  0.99108135  1
  Cr  Cr7  1  0.15865993  0.82486120  0.16564820  1
  Fe  Fe8  1  0.99208341  0.65989891  0.32817800  1
  Cr  Cr9  1  0.32639682  0.99290185  -0.00598171  1
  Cr  Cr10  1  0.49674054  0.15970603  0.15931202  1
  Cr  Cr11  1  0.32740991  0.99232882  0.32787199  1
  Cr  Cr12  1  0.32605476  0.32558337  0.99197043  1
  Cr  Cr13  1  0.49293561  0.49453458  0.16064766  1
  Cr  Cr14  1  0.32920605  0.32380326  0.32783181  1
  Cr  Cr15  1  0.32582497  0.66320543  0.99310194  1
  Cr  Cr16  1  0.49498079  0.82636159  0.16190763  1
  Fe  Fe17  1  0.32896253  0.65869501  0.32815128  1
  Fe  Fe18  1  0.66094862  0.99206025  0.99293658  1
  Cr  Cr19  1  0.82663806  0.15874350  0.16023640  1
  Fe  Fe20  1  0.66075776  -0.00437900  0.32791501  1
  Cr  Cr21  1  0.66247733  0.32781712  -0.00367537  1
  Cr  Cr22  1  0.82826004  0.49397594  0.16198396  1
  Ni  Ni23  1  0.66279907  0.32751717  0.32839393  1
  Cr  Cr24  1  0.66295354  0.66212054  0.99252874  1
  Cr  Cr25  1  0.82729765  0.82913223  0.16054864  1
  Cr  Cr26  1  0.66286733  0.66000392  0.32898898  1
  Cr  Cr27  1  0.15710224  0.15856187  0.49519366  1
  Ni  Ni28  1  0.99196946  0.99034721  0.66128578  1
  Cr  Cr29  1  0.15773076  0.16047348  0.82527939  1
  Cr  Cr30  1  0.16025715  0.49577892  0.49332670  1
  Cr  Cr31  1  0.99242038  0.32682662  0.66017196  1
  Fe  Fe32  1  0.15992998  0.49474347  0.82690553  1
  Cr  Cr33  1  0.15847194  0.82603299  0.49068271  1
  Cr  Cr34  1  0.99086770  0.66167883  0.66191972  1
  Fe  Fe35  1  0.15873956  0.82793760  0.82542924  1
  Cr  Cr36  1  0.49679523  0.15922676  0.49529794  1
  Cr  Cr37  1  0.32541764  0.99294786  0.65956513  1
  Cr  Cr38  1  0.49693794  0.15924648  0.82671708  1
  Cr  Cr39  1  0.49439756  0.49641458  0.49435166  1
  Cr  Cr40  1  0.32698584  0.32585888  0.66106697  1
  Cr  Cr41  1  0.49351822  0.49511309  0.82642715  1
  Fe  Fe42  1  0.49543045  0.82747986  0.49454316  1
  Cr  Cr43  1  0.32771461  0.66290141  0.66055604  1
  Cr  Cr44  1  0.49744499  0.82705847  0.82506070  1
  Cr  Cr45  1  0.82703749  0.15777361  0.49425549  1
  Fe  Fe46  1  0.66285917  0.99133972  0.66051753  1
  Cr  Cr47  1  0.82686114  0.15701819  0.82709252  1
  Fe  Fe48  1  0.82693184  0.49502605  0.49360876  1
  Cr  Cr49  1  0.66198186  0.33075309  0.65691336  1
  Cr  Cr50  1  0.82641300  0.49413920  0.82578199  1
  Cr  Cr51  1  0.82706615  0.82806753  0.49540844  1
  Ni  Ni52  1  0.66220896  0.66464540  0.65910497  1
  Fe  Fe53  1  0.82665251  0.82872315  0.82423867  1
" 