3468,Ni6Fe20Cr72_19,-210.040752825569, 192.475165648889,Ni6Fe20Cr72,"# generated using pymatgen
 data_Cr40Fe11Ni3
_symmetry_space_group_name_H-M   'P 1'
_cell_length_a   7.56824195
_cell_length_b   7.56824195
_cell_length_c   10.70311041
_cell_angle_alpha   90.00000000
_cell_angle_beta   90.00000000
_cell_angle_gamma   90.00000000
_symmetry_Int_Tables_number   1
_chemical_formula_structural   Cr40Fe11Ni3
_chemical_formula_sum   'Cr40 Fe11 Ni3'
_cell_volume   613.05582232
_cell_formula_units_Z   1
loop_
 _symmetry_equiv_pos_site_id
 _symmetry_equiv_pos_as_xyz
  1  'x, y, z'
loop_
 _atom_site_type_symbol
 _atom_site_label
 _atom_site_symmetry_multiplicity
 _atom_site_fract_x
 _atom_site_fract_y
 _atom_site_fract_z
 _atom_site_occupancy
  Cr  Cr0  1  0.99049375  -0.00547928  -0.00287702  1
  Cr  Cr1  1  0.16025358  0.15823870  0.16221526  1
  Fe  Fe2  1  0.99257104  0.99223498  0.32562913  1
  Cr  Cr3  1  0.99211279  0.32781470  -0.00591578  1
  Cr  Cr4  1  0.16004669  0.49395204  0.15726846  1
  Cr  Cr5  1  0.99170990  0.32673148  0.32424274  1
  Cr  Cr6  1  0.99196734  0.65808413  0.99072862  1
  Cr  Cr7  1  0.16201519  0.82757092  0.15848981  1
  Cr  Cr8  1  0.99211657  0.65817517  0.32714404  1
  Fe  Fe9  1  0.32718294  0.99290501  -0.00602555  1
  Cr  Cr10  1  0.49372221  0.16230615  0.15733119  1
  Cr  Cr11  1  0.32941579  0.99280042  0.32641406  1
  Cr  Cr12  1  0.32694555  0.32752266  0.99043364  1
  Fe  Fe13  1  0.49418391  0.49305973  0.16004909  1
  Cr  Cr14  1  0.32720332  0.32774481  0.32977339  1
  Fe  Fe15  1  0.32774681  0.66058100  -0.00589723  1
  Fe  Fe16  1  0.49434155  0.82643659  0.15932078  1
  Cr  Cr17  1  0.33002314  0.65954510  0.32434204  1
  Cr  Cr18  1  0.65852864  -0.00654754  0.99098716  1
  Fe  Fe19  1  0.82452525  0.16186270  0.16047086  1
  Cr  Cr20  1  0.66085272  0.99184463  0.32704479  1
  Fe  Fe21  1  0.66112531  0.32807929  -0.00524857  1
  Ni  Ni22  1  0.82038124  0.49116092  0.16069229  1
  Fe  Fe23  1  0.65996643  0.32709395  0.32405112  1
  Cr  Cr24  1  0.65944033  0.66107812  -0.00234279  1
  Cr  Cr25  1  0.82769665  0.82524987  0.16187236  1
  Fe  Fe26  1  0.66078727  0.65815625  0.32404192  1
  Cr  Cr27  1  0.15970291  0.15878996  0.48966959  1
  Cr  Cr28  1  0.99177080  -0.00610787  0.65782094  1
  Cr  Cr29  1  0.16136012  0.15842098  0.82834670  1
  Cr  Cr30  1  0.15965782  0.49430709  0.49660892  1
  Cr  Cr31  1  -0.00507786  0.32852261  0.66159419  1
  Fe  Fe32  1  0.15991003  0.49448492  0.82642700  1
  Cr  Cr33  1  0.15898824  0.82672430  0.49226633  1
  Ni  Ni34  1  -0.00561267  0.65943566  0.66179878  1
  Cr  Cr35  1  0.15976759  0.82619347  0.82896419  1
  Cr  Cr36  1  0.49482166  0.16080247  0.49675925  1
  Cr  Cr37  1  0.32993949  -0.00598241  0.66021012  1
  Fe  Fe38  1  0.49388018  0.15926368  0.82700230  1
  Cr  Cr39  1  0.49622915  0.49248305  0.48960555  1
  Cr  Cr40  1  0.32594925  0.32674630  0.65974276  1
  Cr  Cr41  1  0.49426590  0.49222793  0.82871399  1
  Cr  Cr42  1  0.49467815  0.82586455  0.49301002  1
  Cr  Cr43  1  0.32565646  0.65874631  0.66041199  1
  Cr  Cr44  1  0.49268342  0.82712465  0.82805931  1
  Cr  Cr45  1  0.82566067  0.16055952  0.49116328  1
  Ni  Ni46  1  0.65917221  -0.00553086  0.66148410  1
  Cr  Cr47  1  0.82459016  0.16064504  0.82792931  1
  Cr  Cr48  1  0.82512688  0.49361998  0.49387362  1
  Cr  Cr49  1  0.65908816  0.32416852  0.66168456  1
  Cr  Cr50  1  0.82554377  0.49427554  0.82560414  1
  Cr  Cr51  1  0.82703412  0.82588611  0.49639843  1
  Cr  Cr52  1  0.65988726  0.66247879  0.65801432  1
  Cr  Cr53  1  0.82695538  0.82663240  0.82158569  1
" 