884,Ni6Fe10Cr82_1,-205.53543589533, 197.160127206164,Ni6Fe10Cr82,"# generated using pymatgen
 data_Cr46Fe5Ni3
_symmetry_space_group_name_H-M   'P 1'
_cell_length_a   7.58380465
_cell_length_b   7.58380465
_cell_length_c   10.72511939
_cell_angle_alpha   90.00000000
_cell_angle_beta   90.00000000
_cell_angle_gamma   90.00000000
_symmetry_Int_Tables_number   1
_chemical_formula_structural   Cr46Fe5Ni3
_chemical_formula_sum   'Cr46 Fe5 Ni3'
_cell_volume   616.84551406
_cell_formula_units_Z   1
loop_
 _symmetry_equiv_pos_site_id
 _symmetry_equiv_pos_as_xyz
  1  'x, y, z'
loop_
 _atom_site_type_symbol
 _atom_site_label
 _atom_site_symmetry_multiplicity
 _atom_site_fract_x
 _atom_site_fract_y
 _atom_site_fract_z
 _atom_site_occupancy
  Cr  Cr0  1  -0.00726723  0.99180380  -0.00701319  1
  Fe  Fe1  1  0.15883864  0.15912789  0.15884711  1
  Cr  Cr2  1  -0.00647397  -0.00640543  0.32536343  1
  Cr  Cr3  1  -0.00697509  0.32681610  -0.00740673  1
  Cr  Cr4  1  0.15768309  0.49295850  0.15861751  1
  Cr  Cr5  1  -0.00717121  0.32426929  0.32491525  1
  Fe  Fe6  1  0.99189488  0.65714283  0.98972371  1
  Cr  Cr7  1  0.15870320  0.82493732  0.15835601  1
  Cr  Cr8  1  -0.00769437  0.65902814  0.32576741  1
  Cr  Cr9  1  0.32404635  -0.00687977  -0.00531953  1
  Cr  Cr10  1  0.49218308  0.15869356  0.15831145  1
  Cr  Cr11  1  0.32398563  -0.00725418  0.32424949  1
  Cr  Cr12  1  0.32455510  0.32661882  0.99169450  1
  Cr  Cr13  1  0.49237320  0.49206908  0.15946807  1
  Cr  Cr14  1  0.32474727  0.32519627  0.32439499  1
  Cr  Cr15  1  0.32500789  0.65721721  0.99115358  1
  Cr  Cr16  1  0.49167213  0.82614129  0.15979810  1
  Cr  Cr17  1  0.32615072  0.65897861  0.32645338  1
  Cr  Cr18  1  0.66014894  0.99144175  0.99109351  1
  Cr  Cr19  1  0.82562790  0.15969087  0.15960515  1
  Cr  Cr20  1  0.65938387  0.99220775  0.32646524  1
  Cr  Cr21  1  0.65927195  0.32785705  0.99183241  1
  Cr  Cr22  1  0.82684950  0.49241875  0.15956150  1
  Cr  Cr23  1  0.65930930  0.32642557  0.32478581  1
  Cr  Cr24  1  0.66054726  0.65756182  0.98942251  1
  Cr  Cr25  1  0.82656397  0.82472249  0.15744059  1
  Cr  Cr26  1  0.65844982  0.65827786  0.32683830  1
  Cr  Cr27  1  0.15849993  0.16082288  0.49450169  1
  Cr  Cr28  1  0.99195376  -0.00638313  0.65846158  1
  Cr  Cr29  1  0.15917445  0.16190555  0.82381105  1
  Cr  Cr30  1  0.15812843  0.49141304  0.49415568  1
  Ni  Ni31  1  -0.00632934  0.32785202  0.66098360  1
  Ni  Ni32  1  0.15584508  0.49206913  0.82446110  1
  Cr  Cr33  1  0.15940552  0.82468923  0.49175979  1
  Cr  Cr34  1  0.99180715  0.65673070  0.66146880  1
  Cr  Cr35  1  0.15787289  0.82277943  0.82683008  1
  Cr  Cr36  1  0.49238838  0.15920567  0.49373475  1
  Cr  Cr37  1  0.32502687  -0.00716974  0.65802085  1
  Cr  Cr38  1  0.49226192  0.15974593  0.82480130  1
  Cr  Cr39  1  0.49147223  0.49170160  0.49223634  1
  Fe  Fe40  1  0.32305476  0.32724040  0.66054987  1
  Fe  Fe41  1  0.49169036  0.49177378  0.82521774  1
  Cr  Cr42  1  0.49183972  0.82598298  0.49104384  1
  Cr  Cr43  1  0.32591512  0.65645573  0.65933920  1
  Cr  Cr44  1  0.49281423  0.82594687  0.82606492  1
  Cr  Cr45  1  0.82598068  0.16048702  0.49319727  1
  Cr  Cr46  1  0.65996919  0.99131644  0.65927087  1
  Cr  Cr47  1  0.82543956  0.16056051  0.82421096  1
  Cr  Cr48  1  0.82721789  0.49085741  0.49104415  1
  Cr  Cr49  1  0.65986544  0.32765717  0.66024258  1
  Ni  Ni50  1  0.82890762  0.49331603  0.82567964  1
  Cr  Cr51  1  0.82566015  0.82557041  0.49227032  1
  Cr  Cr52  1  0.65919060  0.65791642  0.66049546  1
  Fe  Fe53  1  0.82685504  0.82281272  0.82604647  1
" 