4168,Ni6Fe20Cr72_11,-209.73186448673, 192.139667777763,Ni6Fe20Cr72,"# generated using pymatgen
 data_Cr40Fe11Ni3
_symmetry_space_group_name_H-M   'P 1'
_cell_length_a   7.56755238
_cell_length_b   7.56755238
_cell_length_c   10.70213521
_cell_angle_alpha   90.00000000
_cell_angle_beta   90.00000000
_cell_angle_gamma   90.00000000
_symmetry_Int_Tables_number   1
_chemical_formula_structural   Cr40Fe11Ni3
_chemical_formula_sum   'Cr40 Fe11 Ni3'
_cell_volume   612.88826314
_cell_formula_units_Z   1
loop_
 _symmetry_equiv_pos_site_id
 _symmetry_equiv_pos_as_xyz
  1  'x, y, z'
loop_
 _atom_site_type_symbol
 _atom_site_label
 _atom_site_symmetry_multiplicity
 _atom_site_fract_x
 _atom_site_fract_y
 _atom_site_fract_z
 _atom_site_occupancy
  Fe  Fe0  1  -0.00658296  0.99167446  -0.00504280  1
  Cr  Cr1  1  0.15983715  0.15729306  0.15965882  1
  Cr  Cr2  1  -0.00496231  0.99184690  0.32478062  1
  Cr  Cr3  1  0.99236884  0.32611063  0.99284349  1
  Cr  Cr4  1  0.16085109  0.49579636  0.16032871  1
  Cr  Cr5  1  -0.00595811  0.32632071  0.32861189  1
  Cr  Cr6  1  -0.00660662  0.66218943  -0.00463931  1
  Ni  Ni7  1  0.15893435  0.82718443  0.16082153  1
  Cr  Cr8  1  -0.00602723  0.66190911  0.32437905  1
  Cr  Cr9  1  0.32583866  0.99257661  0.99323394  1
  Cr  Cr10  1  0.49407761  0.16036203  0.15997447  1
  Fe  Fe11  1  0.32543692  0.99303370  0.32706860  1
  Cr  Cr12  1  0.32797108  0.32641071  0.99212431  1
  Cr  Cr13  1  0.49354253  0.49320449  0.16011091  1
  Cr  Cr14  1  0.32776139  0.32561690  0.32957628  1
  Cr  Cr15  1  0.32614301  0.66109152  0.99323351  1
  Cr  Cr16  1  0.49154191  0.82651270  0.16118056  1
  Fe  Fe17  1  0.32626147  0.66115252  0.32625283  1
  Cr  Cr18  1  0.66083917  -0.00639821  0.99259868  1
  Cr  Cr19  1  0.82616285  0.15928958  0.15768415  1
  Cr  Cr20  1  0.65934381  -0.00644686  0.32745077  1
  Fe  Fe21  1  0.65993404  0.32675201  0.99331806  1
  Cr  Cr22  1  0.82568623  0.49326015  0.15922780  1
  Cr  Cr23  1  0.65827441  0.32668583  0.32571493  1
  Cr  Cr24  1  0.66053972  0.66006280  0.99259753  1
  Ni  Ni25  1  0.82908339  0.82726356  0.15949304  1
  Cr  Cr26  1  0.66005147  0.65983911  0.32705248  1
  Ni  Ni27  1  0.16249061  0.16156584  0.49438393  1
  Cr  Cr28  1  0.99316342  -0.00529950  0.65993322  1
  Cr  Cr29  1  0.15939227  0.16076055  0.82602689  1
  Cr  Cr30  1  0.16117713  0.49122414  0.49439046  1
  Fe  Fe31  1  -0.00503594  0.32587708  0.65921375  1
  Cr  Cr32  1  0.16039494  0.49231983  0.82536349  1
  Cr  Cr33  1  0.16170969  0.82778266  0.49044038  1
  Cr  Cr34  1  0.99208150  0.65905206  0.66033413  1
  Cr  Cr35  1  0.16094647  0.82699540  0.82828910  1
  Fe  Fe36  1  0.49141303  0.16035247  0.49371661  1
  Cr  Cr37  1  0.32803263  -0.00461002  0.65971367  1
  Cr  Cr38  1  0.49390241  0.15922771  0.82735435  1
  Fe  Fe39  1  0.49260835  0.49264120  0.49371336  1
  Fe  Fe40  1  0.32577827  0.32588296  0.65853405  1
  Cr  Cr41  1  0.49337547  0.49433462  0.82722445  1
  Cr  Cr42  1  0.49371605  0.82671164  0.49387940  1
  Cr  Cr43  1  0.32839622  0.65907925  0.66150169  1
  Fe  Fe44  1  0.49405557  0.82670794  0.82594086  1
  Cr  Cr45  1  0.82725070  0.16008141  0.49459738  1
  Fe  Fe46  1  0.65931522  0.99253303  0.66005331  1
  Cr  Cr47  1  0.82678367  0.15977864  0.82778913  1
  Cr  Cr48  1  0.82617647  0.49326746  0.49459938  1
  Cr  Cr49  1  0.65890695  0.32668596  0.65870574  1
  Cr  Cr50  1  0.82630776  0.49277677  0.82624476  1
  Cr  Cr51  1  0.82465169  0.82672958  0.49486045  1
  Fe  Fe52  1  0.65930827  0.66083872  0.66003037  1
  Cr  Cr53  1  0.82476993  0.82752098  0.82494345  1
" 