7369,Ni6Fe17Cr75_8,-208.422637392091, 194.529200351666,Ni6Fe17Cr75,"# generated using pymatgen
 data_Cr14Fe3Ni
_symmetry_space_group_name_H-M   'P 1'
_cell_length_a   7.57621079
_cell_length_b   7.57621079
_cell_length_c   10.71438005
_cell_angle_alpha   90.00000000
_cell_angle_beta   90.00000000
_cell_angle_gamma   90.00000000
_symmetry_Int_Tables_number   1
_chemical_formula_structural   Cr14Fe3Ni
_chemical_formula_sum   'Cr42 Fe9 Ni3'
_cell_volume   614.99437766
_cell_formula_units_Z   3
loop_
 _symmetry_equiv_pos_site_id
 _symmetry_equiv_pos_as_xyz
  1  'x, y, z'
loop_
 _atom_site_type_symbol
 _atom_site_label
 _atom_site_symmetry_multiplicity
 _atom_site_fract_x
 _atom_site_fract_y
 _atom_site_fract_z
 _atom_site_occupancy
  Fe  Fe0  1  -0.00686899  0.99176422  0.99270656  1
  Cr  Cr1  1  0.16018879  0.15952307  0.15954838  1
  Cr  Cr2  1  0.99242952  0.99138109  0.32510672  1
  Cr  Cr3  1  0.99225564  0.32592114  0.99144098  1
  Cr  Cr4  1  0.16049537  0.49426733  0.15947772  1
  Cr  Cr5  1  -0.00641783  0.32716821  0.32772175  1
  Fe  Fe6  1  -0.00615249  0.66052202  -0.00683998  1
  Fe  Fe7  1  0.15869570  0.82543556  0.15873377  1
  Fe  Fe8  1  0.99195935  0.66029579  0.32577508  1
  Cr  Cr9  1  0.32413104  0.99045591  -0.00667387  1
  Cr  Cr10  1  0.49265891  0.16001887  0.16137734  1
  Cr  Cr11  1  0.32666202  0.99258117  0.32602900  1
  Cr  Cr12  1  0.32659198  0.32768076  -0.00519954  1
  Fe  Fe13  1  0.49246913  0.49312003  0.15981418  1
  Fe  Fe14  1  0.32690353  0.32593499  0.32574088  1
  Fe  Fe15  1  0.32547030  0.65942500  -0.00691110  1
  Cr  Cr16  1  0.49344990  0.82547093  0.16028617  1
  Cr  Cr17  1  0.32601129  0.65903387  0.32445975  1
  Cr  Cr18  1  0.66033864  0.99279083  0.99279138  1
  Cr  Cr19  1  0.82553886  0.15756151  0.15877198  1
  Ni  Ni20  1  0.65947946  0.99158463  0.32581610  1
  Cr  Cr21  1  0.65954259  0.32700729  0.99177941  1
  Cr  Cr22  1  0.82641007  0.49505516  0.16019574  1
  Cr  Cr23  1  0.65849841  0.32652212  0.32525434  1
  Cr  Cr24  1  0.65857941  0.65859091  0.99266732  1
  Cr  Cr25  1  0.82690610  0.82577346  0.16071167  1
  Fe  Fe26  1  0.65987468  0.66091021  0.32573616  1
  Cr  Cr27  1  0.16037171  0.15974656  0.49412451  1
  Ni  Ni28  1  -0.00556054  0.99267996  0.66022973  1
  Cr  Cr29  1  0.15864376  0.15809790  0.82471585  1
  Cr  Cr30  1  0.15979693  0.49277752  0.49280303  1
  Cr  Cr31  1  0.99247602  0.32471107  0.65922377  1
  Cr  Cr32  1  0.16021043  0.49449601  0.82610238  1
  Cr  Cr33  1  0.15938923  0.82586090  0.49499972  1
  Cr  Cr34  1  -0.00561367  0.66041737  0.65845253  1
  Cr  Cr35  1  0.15980446  0.82578870  0.82643491  1
  Cr  Cr36  1  0.49188834  0.15820952  0.49177125  1
  Fe  Fe37  1  0.32436505  0.99104464  0.65947934  1
  Cr  Cr38  1  0.49254843  0.15879781  0.82523957  1
  Cr  Cr39  1  0.49168894  0.49354206  0.49200103  1
  Cr  Cr40  1  0.32563900  0.32667719  0.65848942  1
  Cr  Cr41  1  0.49138360  0.49419700  0.82661098  1
  Cr  Cr42  1  0.49363092  0.82663509  0.49415835  1
  Ni  Ni43  1  0.32582641  0.66093346  0.66056717  1
  Cr  Cr44  1  0.49108698  0.82539009  0.82393622  1
  Cr  Cr45  1  0.82612740  0.15780139  0.49295813  1
  Cr  Cr46  1  0.65955752  0.99248941  0.65941807  1
  Cr  Cr47  1  0.82719203  0.15839176  0.82665453  1
  Cr  Cr48  1  0.82690096  0.49453116  0.49164265  1
  Cr  Cr49  1  0.66027226  0.32643965  0.66135459  1
  Cr  Cr50  1  0.82679179  0.49303776  0.82654042  1
  Cr  Cr51  1  0.82536197  0.82605965  0.49078315  1
  Cr  Cr52  1  0.65759337  0.65945939  0.65907686  1
  Cr  Cr53  1  0.82749107  0.82695662  0.82687968  1
" 