6503,Ni6Fe9Cr83_9,-205.52611447479, 197.287745077227,Ni6Fe9Cr83,"# generated using pymatgen
 data_Cr46Fe5Ni3
_symmetry_space_group_name_H-M   'P 1'
_cell_length_a   7.58439592
_cell_length_b   7.58439592
_cell_length_c   10.72595557
_cell_angle_alpha   90.00000000
_cell_angle_beta   90.00000000
_cell_angle_gamma   90.00000000
_symmetry_Int_Tables_number   1
_chemical_formula_structural   Cr46Fe5Ni3
_chemical_formula_sum   'Cr46 Fe5 Ni3'
_cell_volume   616.98980137
_cell_formula_units_Z   1
loop_
 _symmetry_equiv_pos_site_id
 _symmetry_equiv_pos_as_xyz
  1  'x, y, z'
loop_
 _atom_site_type_symbol
 _atom_site_label
 _atom_site_symmetry_multiplicity
 _atom_site_fract_x
 _atom_site_fract_y
 _atom_site_fract_z
 _atom_site_occupancy
  Cr  Cr0  1  0.99122324  -0.00692357  -0.00772573  1
  Cr  Cr1  1  0.15896209  0.15895909  0.15956656  1
  Cr  Cr2  1  -0.00759877  -0.00692777  0.32596938  1
  Cr  Cr3  1  0.99224584  0.32665905  -0.00694494  1
  Fe  Fe4  1  0.15898130  0.49229711  0.15899647  1
  Cr  Cr5  1  -0.00759838  0.32552158  0.32400220  1
  Cr  Cr6  1  -0.00642481  0.65705429  0.99171880  1
  Cr  Cr7  1  0.15929562  0.82590334  0.15956829  1
  Cr  Cr8  1  -0.00627195  0.65819517  0.32533328  1
  Cr  Cr9  1  0.32610908  0.99174722  -0.00664957  1
  Cr  Cr10  1  0.49178783  0.15880742  0.15938833  1
  Fe  Fe11  1  0.32558443  -0.00770388  0.32557905  1
  Cr  Cr12  1  0.32508533  0.32798891  0.99094073  1
  Cr  Cr13  1  0.49244796  0.49193307  0.15925588  1
  Cr  Cr14  1  0.32489690  0.32570373  0.32529911  1
  Cr  Cr15  1  0.32508640  0.65705970  0.99174699  1
  Cr  Cr16  1  0.49145756  0.82605277  0.15939011  1
  Cr  Cr17  1  0.32489733  0.65934556  0.32449749  1
  Cr  Cr18  1  0.65945881  -0.00692358  -0.00734538  1
  Fe  Fe19  1  0.82556238  0.15887885  0.15893946  1
  Cr  Cr20  1  0.65834369  -0.00692847  0.32551548  1
  Cr  Cr21  1  0.65946146  0.32563639  0.99178673  1
  Cr  Cr22  1  0.82619058  0.49159724  0.15971115  1
  Cr  Cr23  1  0.65949444  0.32437541  0.32515359  1
  Cr  Cr24  1  0.65813263  0.65807688  0.99045107  1
  Cr  Cr25  1  0.82603683  0.82524236  0.15823832  1
  Cr  Cr26  1  0.65816798  0.65934143  0.32648377  1
  Cr  Cr27  1  0.16038650  0.15853279  0.49282860  1
  Cr  Cr28  1  0.99211737  -0.00745637  0.65855087  1
  Cr  Cr29  1  0.15969276  0.15989815  0.82439219  1
  Cr  Cr30  1  0.15967810  0.49208201  0.49314465  1
  Cr  Cr31  1  -0.00687340  0.32645735  0.65973782  1
  Fe  Fe32  1  0.16020145  0.49281004  0.82428746  1
  Cr  Cr33  1  0.15968983  0.82617943  0.49212640  1
  Cr  Cr34  1  -0.00599938  0.65779064  0.65973753  1
  Cr  Cr35  1  0.15899380  0.82482047  0.82509502  1
  Cr  Cr36  1  0.49033014  0.15953069  0.49219448  1
  Cr  Cr37  1  0.32567084  0.99166462  0.65777241  1
  Cr  Cr38  1  0.49085861  0.16158849  0.82520673  1
  Cr  Cr39  1  0.49203926  0.49208256  0.49357492  1
  Fe  Fe40  1  0.32615189  0.32868254  0.66018472  1
  Ni  Ni41  1  0.49168790  0.49238105  0.82392602  1
  Cr  Cr42  1  0.49102636  0.82518220  0.49149261  1
  Ni  Ni43  1  0.32583454  0.65607856  0.66053996  1
  Cr  Cr44  1  0.49155680  0.82312808  0.82590876  1
  Cr  Cr45  1  0.82607412  0.15954160  0.49180923  1
  Cr  Cr46  1  0.65900354  -0.00745612  0.65862509  1
  Cr  Cr47  1  0.82624042  0.16046250  0.82674318  1
  Cr  Cr48  1  0.82507563  0.49278017  0.49154982  1
  Cr  Cr49  1  0.65788435  0.32657064  0.65985485  1
  Ni  Ni50  1  0.82458631  0.49225470  0.82568935  1
  Cr  Cr51  1  0.82607436  0.82447008  0.49266223  1
  Cr  Cr52  1  0.65700830  0.65767656  0.65985528  1
  Cr  Cr53  1  0.82624080  0.82354426  0.82589017  1
" 