7949,Ni6Fe10Cr82_16,-205.467692419202, 196.431583012739,Ni6Fe10Cr82,"# generated using pymatgen
 data_Cr46Fe5Ni3
_symmetry_space_group_name_H-M   'P 1'
_cell_length_a   7.58400584
_cell_length_b   7.58400584
_cell_length_c   10.72540392
_cell_angle_alpha   90.00000000
_cell_angle_beta   90.00000000
_cell_angle_gamma   90.00000000
_symmetry_Int_Tables_number   1
_chemical_formula_structural   Cr46Fe5Ni3
_chemical_formula_sum   'Cr46 Fe5 Ni3'
_cell_volume   616.89460888
_cell_formula_units_Z   1
loop_
 _symmetry_equiv_pos_site_id
 _symmetry_equiv_pos_as_xyz
  1  'x, y, z'
loop_
 _atom_site_type_symbol
 _atom_site_label
 _atom_site_symmetry_multiplicity
 _atom_site_fract_x
 _atom_site_fract_y
 _atom_site_fract_z
 _atom_site_occupancy
  Cr  Cr0  1  -0.00686895  -0.00673506  0.99078379  1
  Cr  Cr1  1  0.16033176  0.15903665  0.15890158  1
  Cr  Cr2  1  0.99167544  0.99198664  0.32723323  1
  Cr  Cr3  1  -0.00584145  0.32463575  0.98895970  1
  Cr  Cr4  1  0.15933042  0.49149575  0.16098894  1
  Cr  Cr5  1  -0.00586429  0.32532853  0.32696226  1
  Cr  Cr6  1  -0.00697539  0.65909374  -0.00745708  1
  Cr  Cr7  1  0.15999340  0.82590193  0.15859158  1
  Cr  Cr8  1  -0.00768893  0.65960008  0.32584714  1
  Fe  Fe9  1  0.32558073  -0.00694995  0.99163084  1
  Cr  Cr10  1  0.49107163  0.15935490  0.15983148  1
  Cr  Cr11  1  0.32632648  -0.00723234  0.32669076  1
  Cr  Cr12  1  0.32580181  0.32580108  -0.00700114  1
  Fe  Fe13  1  0.49122304  0.49120621  0.15978955  1
  Ni  Ni14  1  0.32708242  0.32628236  0.32424804  1
  Cr  Cr15  1  0.32699029  0.65721268  -0.00676132  1
  Cr  Cr16  1  0.49057247  0.82704446  0.15750124  1
  Cr  Cr17  1  0.32743780  0.65648039  0.32540818  1
  Cr  Cr18  1  0.65852327  0.99206681  -0.00649653  1
  Cr  Cr19  1  0.82540684  0.15999451  0.15966639  1
  Cr  Cr20  1  0.65893626  0.99123512  0.32606819  1
  Cr  Cr21  1  0.65667557  0.32624090  -0.00748871  1
  Cr  Cr22  1  0.82619433  0.49123925  0.15783316  1
  Cr  Cr23  1  0.65591096  0.32660910  0.32505261  1
  Cr  Cr24  1  0.65696393  0.65866886  -0.00629331  1
  Cr  Cr25  1  0.82623778  0.82562588  0.15880459  1
  Cr  Cr26  1  0.65732482  0.65919251  0.32389855  1
  Cr  Cr27  1  0.16132264  0.15942981  0.49108793  1
  Cr  Cr28  1  -0.00620880  -0.00701519  0.65851108  1
  Fe  Fe29  1  0.16085373  0.15798092  0.82534716  1
  Cr  Cr30  1  0.16024835  0.49234049  0.49098207  1
  Cr  Cr31  1  -0.00683732  0.32407977  0.66057879  1
  Cr  Cr32  1  0.15944478  0.49348032  0.82490492  1
  Cr  Cr33  1  0.16152434  0.82466967  0.49290055  1
  Cr  Cr34  1  -0.00706710  0.65985914  0.65859609  1
  Cr  Cr35  1  0.16230767  0.82680530  0.82570670  1
  Cr  Cr36  1  0.49207318  0.15994328  0.49203290  1
  Fe  Fe37  1  0.32606438  -0.00697395  0.65892322  1
  Cr  Cr38  1  0.49107499  0.15775724  0.82511699  1
  Cr  Cr39  1  0.49240047  0.49172314  0.49350693  1
  Cr  Cr40  1  0.32535749  0.32530885  0.65903739  1
  Cr  Cr41  1  0.49330134  0.49249052  0.82369135  1
  Cr  Cr42  1  0.49135923  0.82494600  0.49595503  1
  Fe  Fe43  1  0.32709275  0.65812086  0.65912974  1
  Cr  Cr44  1  0.49082692  0.82630242  0.82386081  1
  Cr  Cr45  1  0.82376996  0.16147631  0.49193082  1
  Cr  Cr46  1  0.65943952  -0.00754828  0.65747448  1
  Cr  Cr47  1  0.82351026  0.16074460  0.82515885  1
  Cr  Cr48  1  0.82427819  0.49178754  0.49549104  1
  Ni  Ni49  1  0.65576521  0.32750505  0.65947547  1
  Cr  Cr50  1  0.82430404  0.49215095  0.82356928  1
  Cr  Cr51  1  0.82469951  0.82374016  0.49195976  1
  Ni  Ni52  1  0.65566498  0.65811411  0.65948521  1
  Cr  Cr53  1  0.82469108  0.82397845  0.82600589  1
" 