200,Ni6Fe20Cr72_9,-210.358002230052, 196.27882017002,Ni6Fe20Cr72,"# generated using pymatgen
 data_Cr40Fe11Ni3
_symmetry_space_group_name_H-M   'P 1'
_cell_length_a   7.56636185
_cell_length_b   7.56636185
_cell_length_c   10.70045155
_cell_angle_alpha   90.00000000
_cell_angle_beta   90.00000000
_cell_angle_gamma   90.00000000
_symmetry_Int_Tables_number   1
_chemical_formula_structural   Cr40Fe11Ni3
_chemical_formula_sum   'Cr40 Fe11 Ni3'
_cell_volume   612.59905017
_cell_formula_units_Z   1
loop_
 _symmetry_equiv_pos_site_id
 _symmetry_equiv_pos_as_xyz
  1  'x, y, z'
loop_
 _atom_site_type_symbol
 _atom_site_label
 _atom_site_symmetry_multiplicity
 _atom_site_fract_x
 _atom_site_fract_y
 _atom_site_fract_z
 _atom_site_occupancy
  Ni  Ni0  1  0.99255358  0.99046541  -0.00532379  1
  Cr  Cr1  1  0.15836004  0.15722895  0.15762427  1
  Fe  Fe2  1  -0.00575149  0.99202829  0.32489228  1
  Cr  Cr3  1  0.99264821  0.32721876  0.99049700  1
  Cr  Cr4  1  0.16095698  0.49533087  0.16175043  1
  Cr  Cr5  1  0.99339958  0.32992423  0.32799103  1
  Cr  Cr6  1  0.99258275  0.65980080  -0.00229850  1
  Ni  Ni7  1  0.15473237  0.82776769  0.16216227  1
  Fe  Fe8  1  0.99190680  0.66212592  0.32500812  1
  Cr  Cr9  1  0.32593248  0.99154014  0.99255318  1
  Cr  Cr10  1  0.49242230  0.16122309  0.16276325  1
  Fe  Fe11  1  0.32447536  0.99207581  0.32523550  1
  Cr  Cr12  1  0.32505987  0.32622293  0.99234889  1
  Cr  Cr13  1  0.49464726  0.49377781  0.15854463  1
  Cr  Cr14  1  0.32441619  0.32719272  0.32833625  1
  Cr  Cr15  1  0.32529073  0.66279432  0.99296975  1
  Cr  Cr16  1  0.49141947  0.82547683  0.15850070  1
  Cr  Cr17  1  0.32353826  0.66245020  0.32779605  1
  Cr  Cr18  1  0.66092293  0.99177462  -0.00581158  1
  Cr  Cr19  1  0.82909437  0.15826510  0.16083214  1
  Cr  Cr20  1  0.66042860  0.99187318  0.32682130  1
  Cr  Cr21  1  0.66374050  0.32697882  -0.00385307  1
  Fe  Fe22  1  0.82841216  0.49548641  0.16076318  1
  Cr  Cr23  1  0.66275491  0.32626885  0.32605946  1
  Fe  Fe24  1  0.66278978  0.66126441  -0.00624094  1
  Fe  Fe25  1  0.82918031  0.82729501  0.16024979  1
  Cr  Cr26  1  0.66240910  0.66213802  0.32496006  1
  Cr  Cr27  1  0.15824136  0.15718467  0.49454092  1
  Ni  Ni28  1  -0.00602707  0.99213277  0.66051611  1
  Fe  Fe29  1  0.15828039  0.15732956  0.82697953  1
  Fe  Fe30  1  0.15890812  0.49387975  0.49299198  1
  Cr  Cr31  1  -0.00623623  0.32707365  0.66178689  1
  Cr  Cr32  1  0.16107103  0.49431449  0.82591322  1
  Cr  Cr33  1  0.15769201  0.82759367  0.49086629  1
  Cr  Cr34  1  -0.00557973  0.65890143  0.65742120  1
  Cr  Cr35  1  0.15635297  0.82858814  0.82747427  1
  Cr  Cr36  1  0.49269136  0.16028366  0.48955055  1
  Cr  Cr37  1  0.32731507  0.99246680  0.66217783  1
  Cr  Cr38  1  0.49386315  0.16249706  0.82797824  1
  Cr  Cr39  1  0.49313954  0.49428013  0.49368712  1
  Cr  Cr40  1  0.32493781  0.32680341  0.65926955  1
  Cr  Cr41  1  0.49634805  0.49634246  0.82787130  1
  Cr  Cr42  1  0.49367488  0.82535126  0.49579806  1
  Cr  Cr43  1  0.32603046  0.66150243  0.65980100  1
  Fe  Fe44  1  0.49465933  0.82642834  0.82685978  1
  Cr  Cr45  1  0.82923581  0.15768277  0.49407908  1
  Cr  Cr46  1  0.65960627  0.99208279  0.65923349  1
  Cr  Cr47  1  0.82999610  0.15708451  0.82555364  1
  Cr  Cr48  1  0.82604037  0.49537217  0.49434084  1
  Cr  Cr49  1  0.66161324  0.32563566  0.65861154  1
  Fe  Fe50  1  0.82666570  0.49500599  0.82662713  1
  Cr  Cr51  1  0.82958088  0.82769654  0.49369945  1
  Fe  Fe52  1  0.66142375  0.66035001  0.66128086  1
  Cr  Cr53  1  0.82775644  0.82575117  0.82556296  1
" 