8361,Ni6Fe23Cr70_17,-210.610938215888, 190.978545726109,Ni6Fe23Cr70,"# generated using pymatgen
 data_Cr13Fe4Ni
_symmetry_space_group_name_H-M   'P 1'
_cell_length_a   7.56748830
_cell_length_b   7.56748830
_cell_length_c   10.70204459
_cell_angle_alpha   90.00000000
_cell_angle_beta   90.00000000
_cell_angle_gamma   90.00000000
_symmetry_Int_Tables_number   1
_chemical_formula_structural   Cr13Fe4Ni
_chemical_formula_sum   'Cr39 Fe12 Ni3'
_cell_volume   612.87269464
_cell_formula_units_Z   3
loop_
 _symmetry_equiv_pos_site_id
 _symmetry_equiv_pos_as_xyz
  1  'x, y, z'
loop_
 _atom_site_type_symbol
 _atom_site_label
 _atom_site_symmetry_multiplicity
 _atom_site_fract_x
 _atom_site_fract_y
 _atom_site_fract_z
 _atom_site_occupancy
  Fe  Fe0  1  -0.00574092  -0.00575504  0.99176870  1
  Cr  Cr1  1  0.15935049  0.16125152  0.15798988  1
  Cr  Cr2  1  0.99167935  0.99332341  0.32694937  1
  Fe  Fe3  1  -0.00490034  0.32594220  0.99335205  1
  Ni  Ni4  1  0.16126089  0.49333722  0.16005148  1
  Cr  Cr5  1  0.99315853  0.32757252  0.32698249  1
  Cr  Cr6  1  0.99226802  0.66104557  0.99270818  1
  Cr  Cr7  1  0.16069496  0.82631793  0.16060291  1
  Cr  Cr8  1  -0.00580285  0.65919641  0.32705559  1
  Cr  Cr9  1  0.32449789  -0.00627600  0.99273658  1
  Cr  Cr10  1  0.49363341  0.15901135  0.16119186  1
  Cr  Cr11  1  0.32963879  0.99273406  0.32656590  1
  Cr  Cr12  1  0.32570540  0.32635870  -0.00570510  1
  Fe  Fe13  1  0.49203744  0.49443327  0.15964698  1
  Cr  Cr14  1  0.32712465  0.32712755  0.32514218  1
  Cr  Cr15  1  0.32743379  0.66000874  -0.00486140  1
  Fe  Fe16  1  0.49414419  0.82605961  0.16043055  1
  Cr  Cr17  1  0.32667543  0.66022965  0.32521933  1
  Cr  Cr18  1  0.66097620  0.99155475  0.99310227  1
  Cr  Cr19  1  0.82710774  0.15901951  0.16059805  1
  Ni  Ni20  1  0.65867814  -0.00653387  0.32903446  1
  Cr  Cr21  1  0.65994740  0.32870561  -0.00625433  1
  Cr  Cr22  1  0.82676192  0.49376215  0.15895477  1
  Cr  Cr23  1  0.65980749  0.32460583  0.32806960  1
  Fe  Fe24  1  0.65953680  0.66040390  -0.00631930  1
  Cr  Cr25  1  0.82452729  0.82731001  0.15937858  1
  Cr  Cr26  1  0.65921556  0.66170444  0.32377014  1
  Cr  Cr27  1  0.16023540  0.16022353  0.49248321  1
  Cr  Cr28  1  0.99322805  0.99250068  0.66281621  1
  Ni  Ni29  1  0.15823674  0.15805151  0.82840379  1
  Cr  Cr30  1  0.16055183  0.49428693  0.49364094  1
  Cr  Cr31  1  0.99296577  0.32619298  0.65976724  1
  Cr  Cr32  1  0.16041024  0.49269252  0.82482000  1
  Cr  Cr33  1  0.16159484  0.82558028  0.49387575  1
  Cr  Cr34  1  -0.00605199  0.66139724  0.66032208  1
  Fe  Fe35  1  0.15934030  0.82837836  0.82668134  1
  Fe  Fe36  1  0.49528694  0.15810670  0.49286657  1
  Cr  Cr37  1  0.32720505  0.99292764  0.66077909  1
  Cr  Cr38  1  0.49221333  0.15945876  0.82517774  1
  Cr  Cr39  1  0.49238422  0.49374601  0.49525504  1
  Cr  Cr40  1  0.32745740  0.32576064  0.66064679  1
  Cr  Cr41  1  0.49356766  0.49483903  0.82674006  1
  Fe  Fe42  1  0.49413415  0.82817543  0.49331705  1
  Fe  Fe43  1  0.32666753  0.66070470  0.66002708  1
  Cr  Cr44  1  0.49405660  0.82579408  0.82554732  1
  Fe  Fe45  1  0.82483300  0.15887696  0.49287166  1
  Fe  Fe46  1  0.66009867  -0.00659402  0.65888572  1
  Cr  Cr47  1  0.82880287  0.15842804  0.82759693  1
  Cr  Cr48  1  0.82715597  0.49238852  0.49341719  1
  Cr  Cr49  1  0.65966728  0.32503642  0.65827966  1
  Cr  Cr50  1  0.82611320  0.49453848  0.82771591  1
  Cr  Cr51  1  0.82450842  0.82908896  0.49274312  1
  Cr  Cr52  1  0.66009723  0.66113776  0.66173531  1
  Fe  Fe53  1  0.82745987  0.82746907  0.82706359  1
" 