5532,Ni6Fe17Cr75_19,-208.602896347142, 194.254221760552,Ni6Fe17Cr75,"# generated using pymatgen
 data_Cr14Fe3Ni
_symmetry_space_group_name_H-M   'P 1'
_cell_length_a   7.57612101
_cell_length_b   7.57612101
_cell_length_c   10.71425309
_cell_angle_alpha   90.00000000
_cell_angle_beta   90.00000000
_cell_angle_gamma   90.00000000
_symmetry_Int_Tables_number   1
_chemical_formula_structural   Cr14Fe3Ni
_chemical_formula_sum   'Cr42 Fe9 Ni3'
_cell_volume   614.97251634
_cell_formula_units_Z   3
loop_
 _symmetry_equiv_pos_site_id
 _symmetry_equiv_pos_as_xyz
  1  'x, y, z'
loop_
 _atom_site_type_symbol
 _atom_site_label
 _atom_site_symmetry_multiplicity
 _atom_site_fract_x
 _atom_site_fract_y
 _atom_site_fract_z
 _atom_site_occupancy
  Cr  Cr0  1  0.99127524  0.99267184  -0.00514716  1
  Cr  Cr1  1  0.16114905  0.16232149  0.15981535  1
  Cr  Cr2  1  0.99201015  0.99271463  0.32468031  1
  Cr  Cr3  1  -0.00674598  0.32844815  -0.00692639  1
  Ni  Ni4  1  0.16200449  0.49385207  0.15519287  1
  Cr  Cr5  1  0.99143515  0.32783027  0.32496834  1
  Cr  Cr6  1  -0.00324308  0.65836255  -0.00631185  1
  Cr  Cr7  1  0.16038114  0.82492847  0.16235825  1
  Cr  Cr8  1  -0.00615552  0.65737321  0.32370909  1
  Cr  Cr9  1  0.32667801  0.98952923  0.99236174  1
  Cr  Cr10  1  0.49202939  0.16040792  0.15711549  1
  Cr  Cr11  1  0.32694135  0.99210784  0.32693103  1
  Fe  Fe12  1  0.32512243  0.32830580  -0.00690722  1
  Cr  Cr13  1  0.49267350  0.49399206  0.15938938  1
  Cr  Cr14  1  0.32681731  0.32877956  0.32309745  1
  Ni  Ni15  1  0.32746269  0.65641038  0.99154016  1
  Cr  Cr16  1  0.49445296  0.82418137  0.15794037  1
  Cr  Cr17  1  0.32598024  0.65804666  0.32695697  1
  Ni  Ni18  1  0.65635541  0.99064499  0.99105688  1
  Cr  Cr19  1  0.82489387  0.15894909  0.15822872  1
  Cr  Cr20  1  0.65930171  -0.00517455  0.32546806  1
  Cr  Cr21  1  0.65942508  0.32476583  -0.00649035  1
  Cr  Cr22  1  0.82460932  0.49546680  0.15977755  1
  Cr  Cr23  1  0.65951084  0.32790785  0.32997092  1
  Fe  Fe24  1  0.65748279  0.66015456  0.99206489  1
  Cr  Cr25  1  0.82342776  0.82458644  0.15787607  1
  Fe  Fe26  1  0.65910745  0.65889576  0.32716322  1
  Cr  Cr27  1  0.15895813  0.16041897  0.49381811  1
  Cr  Cr28  1  0.99128021  0.99229015  0.65859272  1
  Cr  Cr29  1  0.15984365  0.16228518  0.82448755  1
  Cr  Cr30  1  0.15911043  0.49135469  0.49514672  1
  Fe  Fe31  1  0.99251030  0.32653773  0.65924124  1
  Fe  Fe32  1  0.16079208  0.49306681  0.82811993  1
  Cr  Cr33  1  0.15866827  0.82644039  0.49219878  1
  Cr  Cr34  1  -0.00656506  0.65728899  0.66108263  1
  Cr  Cr35  1  0.15964406  0.82592868  0.82451410  1
  Cr  Cr36  1  0.49107232  0.16112217  0.49246462  1
  Cr  Cr37  1  0.32781307  0.99117952  0.65969644  1
  Cr  Cr38  1  0.49223382  0.16031287  0.82881490  1
  Fe  Fe39  1  0.49253488  0.49380943  0.49238888  1
  Cr  Cr40  1  0.32800400  0.32863413  0.66136344  1
  Cr  Cr41  1  0.49298352  0.49390075  0.82824221  1
  Cr  Cr42  1  0.49413182  0.82435399  0.49259804  1
  Cr  Cr43  1  0.32618013  0.65969185  0.66106462  1
  Fe  Fe44  1  0.49295291  0.82482928  0.82891405  1
  Fe  Fe45  1  0.82700511  0.15897792  0.49297139  1
  Cr  Cr46  1  0.65872222  -0.00647047  0.66192551  1
  Cr  Cr47  1  0.82654375  0.15954744  0.82556899  1
  Fe  Fe48  1  0.82688833  0.49294572  0.49268725  1
  Cr  Cr49  1  0.66135310  0.32625123  0.65500195  1
  Cr  Cr50  1  0.82624065  0.49346072  0.82527799  1
  Cr  Cr51  1  0.82573733  0.82338984  0.49068228  1
  Cr  Cr52  1  0.65848235  0.65835072  0.65880591  1
  Cr  Cr53  1  0.82377690  0.82492202  0.82973059  1
" 