2690,Ni6Fe20Cr73_6,-209.90535427868, 195.768901132726,Ni6Fe20Cr73,"# generated using pymatgen
 data_Cr40Fe11Ni3
_symmetry_space_group_name_H-M   'P 1'
_cell_length_a   7.56805386
_cell_length_b   7.56805386
_cell_length_c   10.70284442
_cell_angle_alpha   90.00000000
_cell_angle_beta   90.00000000
_cell_angle_gamma   90.00000000
_symmetry_Int_Tables_number   1
_chemical_formula_structural   Cr40Fe11Ni3
_chemical_formula_sum   'Cr40 Fe11 Ni3'
_cell_volume   613.01011563
_cell_formula_units_Z   1
loop_
 _symmetry_equiv_pos_site_id
 _symmetry_equiv_pos_as_xyz
  1  'x, y, z'
loop_
 _atom_site_type_symbol
 _atom_site_label
 _atom_site_symmetry_multiplicity
 _atom_site_fract_x
 _atom_site_fract_y
 _atom_site_fract_z
 _atom_site_occupancy
  Cr  Cr0  1  -0.00584819  0.99205345  -0.00593430  1
  Cr  Cr1  1  0.16205836  0.15922450  0.15881886  1
  Cr  Cr2  1  -0.00580721  0.99176322  0.32564788  1
  Cr  Cr3  1  -0.00666908  0.32703014  0.99095087  1
  Cr  Cr4  1  0.15986994  0.49474868  0.16101912  1
  Cr  Cr5  1  -0.00661155  0.32741219  0.33054160  1
  Cr  Cr6  1  0.99251684  0.66085627  -0.00478728  1
  Fe  Fe7  1  0.15960036  0.82616480  0.16095046  1
  Ni  Ni8  1  0.99313805  0.66137273  0.32444157  1
  Cr  Cr9  1  0.32714356  -0.00536401  -0.00368286  1
  Ni  Ni10  1  0.49339754  0.15870619  0.15904353  1
  Cr  Cr11  1  0.32743554  -0.00509537  0.32495796  1
  Fe  Fe12  1  0.32832371  0.32576153  -0.00566620  1
  Cr  Cr13  1  0.49323278  0.49122071  0.15853462  1
  Cr  Cr14  1  0.32762758  0.32368533  0.32750236  1
  Cr  Cr15  1  0.32668181  0.66046612  0.99212831  1
  Fe  Fe16  1  0.49332998  0.82838886  0.15999942  1
  Cr  Cr17  1  0.32533882  0.66138202  0.32662004  1
  Cr  Cr18  1  0.65871296  -0.00627668  -0.00534668  1
  Cr  Cr19  1  0.82449588  0.15908398  0.15884127  1
  Cr  Cr20  1  0.65836898  -0.00589083  0.32663354  1
  Fe  Fe21  1  0.65832939  0.32568560  -0.00566210  1
  Cr  Cr22  1  0.82689553  0.49462213  0.16102066  1
  Cr  Cr23  1  0.65896614  0.32534168  0.32747756  1
  Cr  Cr24  1  0.66078943  0.65954878  -0.00621468  1
  Fe  Fe25  1  0.82706790  0.82637648  0.16096351  1
  Cr  Cr26  1  0.66219185  0.66055835  0.32496170  1
  Fe  Fe27  1  0.15856067  0.15927059  0.49469392  1
  Ni  Ni28  1  0.99288547  -0.00416114  0.65890440  1
  Cr  Cr29  1  0.15845547  0.16010697  0.82678385  1
  Cr  Cr30  1  0.15972768  0.49309593  0.49296917  1
  Fe  Fe31  1  -0.00665231  0.32401496  0.65912052  1
  Cr  Cr32  1  0.16138226  0.49275568  0.82607702  1
  Cr  Cr33  1  0.15957954  0.82702228  0.49340736  1
  Cr  Cr34  1  -0.00648904  0.66003809  0.66159824  1
  Cr  Cr35  1  0.16011385  0.82710213  0.82490191  1
  Fe  Fe36  1  0.49374706  0.15951429  0.49326098  1
  Cr  Cr37  1  0.32585906  -0.00614146  0.65873704  1
  Cr  Cr38  1  0.49443515  0.16030027  0.82962530  1
  Cr  Cr39  1  0.49218310  0.49368345  0.49351463  1
  Cr  Cr40  1  0.32567185  0.32617904  0.65868918  1
  Cr  Cr41  1  0.49215909  0.49326877  0.82791693  1
  Cr  Cr42  1  0.49336443  0.82761404  0.49575938  1
  Fe  Fe43  1  0.32607187  0.66033502  0.65993180  1
  Cr  Cr44  1  0.49327556  0.82643721  0.82332736  1
  Fe  Fe45  1  0.82764885  0.15889279  0.49511204  1
  Fe  Fe46  1  0.66181610  -0.00564449  0.65912714  1
  Cr  Cr47  1  0.82712327  0.15897140  0.82511478  1
  Cr  Cr48  1  0.82804079  0.49205938  0.49131648  1
  Cr  Cr49  1  0.66098979  0.32566632  0.65863561  1
  Cr  Cr50  1  0.82640902  0.49156244  0.82780176  1
  Cr  Cr51  1  0.82704350  0.82929850  0.49344203  1
  Cr  Cr52  1  0.65908349  0.66018990  0.66117818  1
  Cr  Cr53  1  0.82658477  0.82938805  0.82493953  1
" 