1557,Ni6Fe20Cr73_5,-210.012274895205, 196.317804346694,Ni6Fe20Cr73,"# generated using pymatgen
 data_Cr40Fe11Ni3
_symmetry_space_group_name_H-M   'P 1'
_cell_length_a   7.56327998
_cell_length_b   7.56327998
_cell_length_c   10.69609312
_cell_angle_alpha   90.00000000
_cell_angle_beta   90.00000000
_cell_angle_gamma   90.00000000
_symmetry_Int_Tables_number   1
_chemical_formula_structural   Cr40Fe11Ni3
_chemical_formula_sum   'Cr40 Fe11 Ni3'
_cell_volume   611.85079696
_cell_formula_units_Z   1
loop_
 _symmetry_equiv_pos_site_id
 _symmetry_equiv_pos_as_xyz
  1  'x, y, z'
loop_
 _atom_site_type_symbol
 _atom_site_label
 _atom_site_symmetry_multiplicity
 _atom_site_fract_x
 _atom_site_fract_y
 _atom_site_fract_z
 _atom_site_occupancy
  Cr  Cr0  1  -0.00525452  0.99336549  -0.00238317  1
  Fe  Fe1  1  0.16159325  0.16002252  0.16213748  1
  Fe  Fe2  1  -0.00477567  -0.00602473  0.32497640  1
  Cr  Cr3  1  -0.00618740  0.32760848  0.99277571  1
  Cr  Cr4  1  0.16414333  0.49486182  0.16058086  1
  Cr  Cr5  1  -0.00488940  0.32714337  0.32523448  1
  Cr  Cr6  1  -0.00595737  0.65998056  -0.00388997  1
  Fe  Fe7  1  0.16061897  0.82910900  0.16076621  1
  Cr  Cr8  1  0.99292838  0.66277263  0.32425438  1
  Cr  Cr9  1  0.32764815  -0.00629187  0.99281616  1
  Cr  Cr10  1  0.49417769  0.16079736  0.16068894  1
  Cr  Cr11  1  0.32605069  -0.00436650  0.32852442  1
  Cr  Cr12  1  0.32494029  0.32469836  -0.00508365  1
  Cr  Cr13  1  0.49182156  0.49357638  0.16056485  1
  Ni  Ni14  1  0.32488133  0.32394383  0.32717202  1
  Fe  Fe15  1  0.32655264  0.66245957  0.99362940  1
  Cr  Cr16  1  0.49359226  0.82672031  0.15739781  1
  Cr  Cr17  1  0.32554427  0.66285869  0.32759007  1
  Ni  Ni18  1  0.65958277  0.99166381  0.99339960  1
  Cr  Cr19  1  0.82660386  0.15603184  0.15908044  1
  Cr  Cr20  1  0.65893670  0.99276702  0.32805900  1
  Fe  Fe21  1  0.66102615  0.32429594  -0.00597854  1
  Cr  Cr22  1  0.82474896  0.49310826  0.16058549  1
  Cr  Cr23  1  0.65926478  0.32574522  0.32823849  1
  Cr  Cr24  1  0.66205416  0.66151032  0.99290673  1
  Fe  Fe25  1  0.82569254  0.82810532  0.16006904  1
  Cr  Cr26  1  0.66217444  0.66196952  0.32876589  1
  Cr  Cr27  1  0.15873194  0.15875941  0.49379861  1
  Fe  Fe28  1  -0.00577688  -0.00635973  0.65980040  1
  Cr  Cr29  1  0.15788469  0.15922796  0.82436523  1
  Cr  Cr30  1  0.16163227  0.49348267  0.49467160  1
  Ni  Ni31  1  -0.00572283  0.32493981  0.66075583  1
  Cr  Cr32  1  0.16193790  0.49430783  0.82552175  1
  Fe  Fe33  1  0.15953283  0.82742957  0.49390117  1
  Cr  Cr34  1  0.99313079  0.65881253  0.65994033  1
  Cr  Cr35  1  0.16109315  0.82712247  0.82631562  1
  Fe  Fe36  1  0.49283812  0.16091987  0.49239128  1
  Cr  Cr37  1  0.32877300  0.99315017  0.65903983  1
  Cr  Cr38  1  0.49587928  0.15940159  0.82956006  1
  Cr  Cr39  1  0.49092432  0.49371713  0.48970931  1
  Cr  Cr40  1  0.32685303  0.32460275  0.65908362  1
  Cr  Cr41  1  0.49220762  0.49561753  0.83129856  1
  Fe  Fe42  1  0.49228138  0.82807144  0.49304022  1
  Cr  Cr43  1  0.32872875  0.66380109  0.66121634  1
  Fe  Fe44  1  0.49452371  0.82770073  0.82905717  1
  Cr  Cr45  1  0.82874537  0.15812968  0.49625186  1
  Cr  Cr46  1  0.65600921  0.99244753  0.65989571  1
  Cr  Cr47  1  0.82723355  0.15792512  0.82599547  1
  Cr  Cr48  1  0.82810313  0.49295824  0.49478812  1
  Cr  Cr49  1  0.66063802  0.32673790  0.65987027  1
  Cr  Cr50  1  0.82684197  0.49207480  0.82492612  1
  Cr  Cr51  1  0.82955774  0.83032789  0.49239152  1
  Cr  Cr52  1  0.65940504  0.66216850  0.65851283  1
  Cr  Cr53  1  0.82696211  0.83055502  0.82748465  1
" 