6701,Ni6Fe61Cr31_17,-221.351449899807, 157.42586738639,Ni6Fe61Cr31,"# generated using pymatgen
 data_Cr6Fe11Ni
_symmetry_space_group_name_H-M   'P 1'
_cell_length_a   7.50483941
_cell_length_b   7.50483941
_cell_length_c   10.61344568
_cell_angle_alpha   90.00000000
_cell_angle_beta   90.00000000
_cell_angle_gamma   90.00000000
_symmetry_Int_Tables_number   1
_chemical_formula_structural   Cr6Fe11Ni
_chemical_formula_sum   'Cr18 Fe33 Ni3'
_cell_volume   597.77701065
_cell_formula_units_Z   3
loop_
 _symmetry_equiv_pos_site_id
 _symmetry_equiv_pos_as_xyz
  1  'x, y, z'
loop_
 _atom_site_type_symbol
 _atom_site_label
 _atom_site_symmetry_multiplicity
 _atom_site_fract_x
 _atom_site_fract_y
 _atom_site_fract_z
 _atom_site_occupancy
  Fe  Fe0  1  0.99727833  -0.00244036  -0.00148494  1
  Ni  Ni1  1  0.16153750  0.16616349  0.16584998  1
  Fe  Fe2  1  -0.00181138  -0.00126683  0.32860049  1
  Fe  Fe3  1  -0.00243775  0.33070934  -0.00140218  1
  Fe  Fe4  1  0.16497360  0.49714284  0.16373787  1
  Fe  Fe5  1  -0.00117660  0.32943125  0.32794901  1
  Fe  Fe6  1  -0.00126213  0.66427614  -0.00240865  1
  Ni  Ni7  1  0.16397825  0.83076040  0.16365853  1
  Cr  Cr8  1  -0.00219387  0.66485561  0.33059890  1
  Cr  Cr9  1  0.32697452  0.99703690  -0.00151422  1
  Cr  Cr10  1  0.49721996  0.16392094  0.16420199  1
  Fe  Fe11  1  0.32921926  -0.00204278  0.32905974  1
  Fe  Fe12  1  0.32970278  0.33314229  -0.00142555  1
  Fe  Fe13  1  0.49504818  0.49762916  0.16287627  1
  Fe  Fe14  1  0.32976138  0.33135159  0.32963220  1
  Fe  Fe15  1  0.32900906  0.66214595  0.99730050  1
  Cr  Cr16  1  0.49676863  0.82926355  0.16386025  1
  Fe  Fe17  1  0.33045851  0.66313432  0.32976503  1
  Fe  Fe18  1  0.66709328  -0.00179649  0.99682841  1
  Fe  Fe19  1  0.83404284  0.16392623  0.16372552  1
  Fe  Fe20  1  0.66499177  -0.00203548  0.33144344  1
  Fe  Fe21  1  0.66517871  0.33191094  -0.00233346  1
  Fe  Fe22  1  0.83243786  0.49564661  0.16247353  1
  Cr  Cr23  1  0.66356406  0.33157924  0.33068295  1
  Fe  Fe24  1  0.66473345  0.66228880  0.99695470  1
  Cr  Cr25  1  0.83022877  0.83132743  0.16419578  1
  Cr  Cr26  1  0.66412448  0.66242957  0.33156696  1
  Cr  Cr27  1  0.16428349  0.16661979  0.49603531  1
  Fe  Fe28  1  0.99552110  0.99536394  0.66535015  1
  Cr  Cr29  1  0.16177619  0.16685355  0.82971062  1
  Cr  Cr30  1  0.16507857  0.49643393  0.49903838  1
  Fe  Fe31  1  0.99745453  0.33210966  0.66599053  1
  Fe  Fe32  1  0.16500498  0.49924351  0.83005306  1
  Cr  Cr33  1  0.16402783  0.82946191  0.49781182  1
  Fe  Fe34  1  -0.00073548  0.66500753  0.66591469  1
  Fe  Fe35  1  0.16241506  0.82809788  0.83077517  1
  Fe  Fe36  1  0.49732231  0.16560060  0.49749149  1
  Cr  Cr37  1  0.32953473  -0.00205036  0.66406140  1
  Cr  Cr38  1  0.49994791  0.16551938  0.82962590  1
  Fe  Fe39  1  0.49491838  0.49592674  0.49860881  1
  Fe  Fe40  1  0.33232739  0.33434143  0.66419196  1
  Fe  Fe41  1  0.49616593  0.49718561  0.83095116  1
  Cr  Cr42  1  0.49862361  0.83136757  0.49476146  1
  Ni  Ni43  1  0.32927787  0.66134787  0.66586382  1
  Cr  Cr44  1  0.49838558  0.82911675  0.83376331  1
  Cr  Cr45  1  0.83050742  0.16298214  0.49825581  1
  Fe  Fe46  1  0.66578338  -0.00223668  0.66417198  1
  Fe  Fe47  1  0.83062069  0.16395619  0.83057425  1
  Cr  Cr48  1  0.83255280  0.49732554  0.49867196  1
  Fe  Fe49  1  0.66267656  0.33067848  0.66450486  1
  Fe  Fe50  1  0.83126708  0.49659622  0.83129963  1
  Fe  Fe51  1  0.83183391  0.83271450  0.49790490  1
  Cr  Cr52  1  0.66542105  0.66215543  0.66266014  1
  Fe  Fe53  1  0.83260089  0.83182747  0.83160163  1
" 