7617,Ni6Fe9Cr83_7,-205.582963974104, 196.735990354899,Ni6Fe9Cr83,"# generated using pymatgen
 data_Cr46Fe5Ni3
_symmetry_space_group_name_H-M   'P 1'
_cell_length_a   7.58712886
_cell_length_b   7.58712886
_cell_length_c   10.72982054
_cell_angle_alpha   90.00000000
_cell_angle_beta   90.00000000
_cell_angle_gamma   90.00000000
_symmetry_Int_Tables_number   1
_chemical_formula_structural   Cr46Fe5Ni3
_chemical_formula_sum   'Cr46 Fe5 Ni3'
_cell_volume   617.65701614
_cell_formula_units_Z   1
loop_
 _symmetry_equiv_pos_site_id
 _symmetry_equiv_pos_as_xyz
  1  'x, y, z'
loop_
 _atom_site_type_symbol
 _atom_site_label
 _atom_site_symmetry_multiplicity
 _atom_site_fract_x
 _atom_site_fract_y
 _atom_site_fract_z
 _atom_site_occupancy
  Cr  Cr0  1  0.99199312  0.99119901  -0.00757087  1
  Cr  Cr1  1  0.15852982  0.15996851  0.15684601  1
  Cr  Cr2  1  0.99048211  -0.00607543  0.32724074  1
  Cr  Cr3  1  0.99189881  0.32645807  0.99191543  1
  Ni  Ni4  1  0.15688981  0.49430080  0.15712609  1
  Cr  Cr5  1  -0.00788932  0.32567413  0.32606893  1
  Ni  Ni6  1  -0.00764944  0.65642683  0.99195441  1
  Cr  Cr7  1  0.15674230  0.82400679  0.15739213  1
  Cr  Cr8  1  -0.00734283  0.65795536  0.32365164  1
  Cr  Cr9  1  0.32594299  0.99053297  0.99051275  1
  Cr  Cr10  1  0.49271104  0.15747543  0.15880095  1
  Cr  Cr11  1  0.32464517  0.99057196  0.32395923  1
  Cr  Cr12  1  0.32511785  0.32616540  -0.00486179  1
  Cr  Cr13  1  0.49174297  0.49204388  0.16011300  1
  Cr  Cr14  1  0.32384454  0.32643479  0.32276567  1
  Cr  Cr15  1  0.32566598  0.65950945  -0.00619287  1
  Ni  Ni16  1  0.49298654  0.82555384  0.15807539  1
  Cr  Cr17  1  0.32523133  0.65914108  0.32412999  1
  Cr  Cr18  1  0.65751307  0.99103471  -0.00709038  1
  Cr  Cr19  1  0.82406551  0.15744658  0.16042040  1
  Fe  Fe20  1  0.65693074  0.99097035  0.32419561  1
  Cr  Cr21  1  0.66005059  0.32594085  0.99106308  1
  Cr  Cr22  1  0.82673582  0.49349437  0.15537208  1
  Cr  Cr23  1  0.66085299  0.32455894  0.32609624  1
  Cr  Cr24  1  0.65907252  0.65843976  0.98957172  1
  Cr  Cr25  1  0.82450203  0.82487269  0.15883926  1
  Cr  Cr26  1  0.65787478  0.65898333  0.32488933  1
  Cr  Cr27  1  0.15923489  0.15927796  0.49476184  1
  Cr  Cr28  1  0.99134329  -0.00587995  0.65708027  1
  Cr  Cr29  1  0.15912548  0.15959988  0.82516857  1
  Cr  Cr30  1  0.15908372  0.49198448  0.49215160  1
  Fe  Fe31  1  -0.00754117  0.32630535  0.65944598  1
  Cr  Cr32  1  0.15861803  0.49267671  0.82577916  1
  Cr  Cr33  1  0.15759767  0.82531888  0.49305118  1
  Cr  Cr34  1  0.99107647  0.65866168  0.65930193  1
  Cr  Cr35  1  0.15689128  0.82453029  0.82567019  1
  Cr  Cr36  1  0.49311982  0.15861936  0.49027511  1
  Cr  Cr37  1  0.32576872  0.99092231  0.66190882  1
  Cr  Cr38  1  0.49211877  0.15921781  0.82705130  1
  Cr  Cr39  1  0.49245511  0.49116427  0.49176079  1
  Cr  Cr40  1  0.32621829  0.32512851  0.65817996  1
  Cr  Cr41  1  0.49270965  0.49127098  0.82444997  1
  Cr  Cr42  1  0.49278294  0.82563152  0.49192319  1
  Cr  Cr43  1  0.32660942  0.65983249  0.65804475  1
  Fe  Fe44  1  0.49178051  0.82509281  0.82634862  1
  Fe  Fe45  1  0.82520498  0.15964592  0.49228224  1
  Cr  Cr46  1  0.65881632  0.99182452  0.65858609  1
  Cr  Cr47  1  0.82586393  0.15868752  0.82473927  1
  Cr  Cr48  1  0.82546044  0.49288620  0.49482721  1
  Cr  Cr49  1  0.66201428  0.32564283  0.65949624  1
  Fe  Fe50  1  0.82791524  0.49207953  0.82616422  1
  Cr  Cr51  1  0.82437067  0.82664819  0.48940741  1
  Cr  Cr52  1  0.65868660  0.65883268  0.66185998  1
  Cr  Cr53  1  0.82620565  0.82398468  0.82767176  1
" 