1991,Ni6Fe20Cr72_16,-209.950541176891, 195.68753776889,Ni6Fe20Cr72,"# generated using pymatgen
 data_Cr40Fe11Ni3
_symmetry_space_group_name_H-M   'P 1'
_cell_length_a   7.56954319
_cell_length_b   7.56954319
_cell_length_c   10.70495064
_cell_angle_alpha   90.00000000
_cell_angle_beta   90.00000000
_cell_angle_gamma   90.00000000
_symmetry_Int_Tables_number   1
_chemical_formula_structural   Cr40Fe11Ni3
_chemical_formula_sum   'Cr40 Fe11 Ni3'
_cell_volume   613.37209169
_cell_formula_units_Z   1
loop_
 _symmetry_equiv_pos_site_id
 _symmetry_equiv_pos_as_xyz
  1  'x, y, z'
loop_
 _atom_site_type_symbol
 _atom_site_label
 _atom_site_symmetry_multiplicity
 _atom_site_fract_x
 _atom_site_fract_y
 _atom_site_fract_z
 _atom_site_occupancy
  Cr  Cr0  1  -0.00568362  0.99296169  -0.00666322  1
  Cr  Cr1  1  0.16014021  0.16161297  0.16302604  1
  Cr  Cr2  1  0.99310921  0.99309751  0.32822526  1
  Cr  Cr3  1  0.99243213  0.32987239  0.99202184  1
  Cr  Cr4  1  0.16051480  0.49424517  0.16101852  1
  Cr  Cr5  1  0.99091286  0.32855208  0.32865750  1
  Fe  Fe6  1  -0.00625310  0.65862485  0.99305709  1
  Cr  Cr7  1  0.15821066  0.82398075  0.16156191  1
  Ni  Ni8  1  0.99263494  0.65719137  0.32589765  1
  Cr  Cr9  1  0.32884269  0.99200228  -0.00544635  1
  Fe  Fe10  1  0.49344578  0.16079341  0.15903730  1
  Cr  Cr11  1  0.32824953  0.99251146  0.32562587  1
  Cr  Cr12  1  0.32693799  0.32768964  0.99319659  1
  Cr  Cr13  1  0.49258263  0.49258875  0.16207164  1
  Fe  Fe14  1  0.32626322  0.32692541  0.32665688  1
  Cr  Cr15  1  0.32612158  0.65972696  0.99146622  1
  Cr  Cr16  1  0.49468935  0.82412600  0.16071510  1
  Fe  Fe17  1  0.32583573  0.65892968  0.32666470  1
  Fe  Fe18  1  0.65841299  0.99286520  -0.00606962  1
  Cr  Cr19  1  0.82495259  0.15969860  0.15599102  1
  Cr  Cr20  1  0.65847240  -0.00576236  0.32520022  1
  Fe  Fe21  1  0.65822024  0.32745719  -0.00599627  1
  Cr  Cr22  1  0.82621074  0.49513042  0.15966869  1
  Cr  Cr23  1  0.66033777  0.32783595  0.32552236  1
  Fe  Fe24  1  0.65944626  0.65906117  0.99285347  1
  Cr  Cr25  1  0.82713165  0.82544548  0.15879714  1
  Fe  Fe26  1  0.66247318  0.65957704  0.32762024  1
  Fe  Fe27  1  0.16187343  0.16106448  0.49287173  1
  Cr  Cr28  1  -0.00573145  -0.00633599  0.65774204  1
  Cr  Cr29  1  0.16028390  0.16238952  0.82265008  1
  Cr  Cr30  1  0.16199442  0.49213079  0.49165043  1
  Cr  Cr31  1  -0.00659276  0.32881744  0.65868908  1
  Ni  Ni32  1  0.15978461  0.49245523  0.82726718  1
  Cr  Cr33  1  0.15925494  0.82509376  0.49071990  1
  Cr  Cr34  1  0.99258704  0.65733064  0.66199973  1
  Cr  Cr35  1  0.15806137  0.82541411  0.82807009  1
  Cr  Cr36  1  0.49078276  0.16282567  0.49391296  1
  Cr  Cr37  1  0.32634632  0.99252625  0.65958064  1
  Cr  Cr38  1  0.49417638  0.16146185  0.82755244  1
  Cr  Cr39  1  0.49306173  0.49408304  0.49282767  1
  Fe  Fe40  1  0.32598696  0.32879562  0.66021568  1
  Cr  Cr41  1  0.49272462  0.49257562  0.82470628  1
  Cr  Cr42  1  0.49441171  0.82342090  0.49386057  1
  Cr  Cr43  1  0.32686459  0.65959531  0.66292604  1
  Cr  Cr44  1  0.49639038  0.82564537  0.82499456  1
  Cr  Cr45  1  0.82728197  0.16005189  0.49460132  1
  Cr  Cr46  1  0.65918768  0.99188159  0.65979480  1
  Cr  Cr47  1  0.82544247  0.15902346  0.82842857  1
  Fe  Fe48  1  0.82618147  0.49636601  0.49239845  1
  Cr  Cr49  1  0.66192525  0.32948645  0.65933752  1
  Cr  Cr50  1  0.82552939  0.49445513  0.82793132  1
  Cr  Cr51  1  0.82622896  0.82377841  0.49290120  1
  Ni  Ni52  1  0.66036020  0.65697284  0.65850090  1
  Cr  Cr53  1  0.82536309  0.82635940  0.82789688  1
" 