231,Ni6Fe61Cr31_6,-221.126436574991, 165.645428513498,Ni6Fe61Cr31,"# generated using pymatgen
 data_Cr6Fe11Ni
_symmetry_space_group_name_H-M   'P 1'
_cell_length_a   7.49438533
_cell_length_b   7.49438533
_cell_length_c   10.59866138
_cell_angle_alpha   90.00000000
_cell_angle_beta   90.00000000
_cell_angle_gamma   90.00000000
_symmetry_Int_Tables_number   1
_chemical_formula_structural   Cr6Fe11Ni
_chemical_formula_sum   'Cr18 Fe33 Ni3'
_cell_volume   595.28241697
_cell_formula_units_Z   3
loop_
 _symmetry_equiv_pos_site_id
 _symmetry_equiv_pos_as_xyz
  1  'x, y, z'
loop_
 _atom_site_type_symbol
 _atom_site_label
 _atom_site_symmetry_multiplicity
 _atom_site_fract_x
 _atom_site_fract_y
 _atom_site_fract_z
 _atom_site_occupancy
  Fe  Fe0  1  -0.00095027  0.99705498  -0.00172380  1
  Cr  Cr1  1  0.16640463  0.16448605  0.16410526  1
  Ni  Ni2  1  0.99776285  0.99804025  0.33008384  1
  Fe  Fe3  1  0.99740559  0.33223316  -0.00104878  1
  Fe  Fe4  1  0.16472919  0.49880898  0.16589535  1
  Fe  Fe5  1  -0.00002184  0.33099801  0.33071896  1
  Fe  Fe6  1  0.99786630  0.66507756  0.99797629  1
  Fe  Fe7  1  0.16386776  0.83114615  0.16608488  1
  Fe  Fe8  1  0.00037588  0.66340596  0.33034413  1
  Fe  Fe9  1  0.33044379  0.99772865  0.99804819  1
  Fe  Fe10  1  0.49868336  0.16709369  0.16564554  1
  Fe  Fe11  1  0.33057885  0.00093787  0.33157495  1
  Fe  Fe12  1  0.33251081  0.33192015  -0.00050143  1
  Fe  Fe13  1  0.49828896  0.49590662  0.16586957  1
  Ni  Ni14  1  0.33303793  0.33329605  0.33158852  1
  Cr  Cr15  1  0.33039645  0.66273614  0.99559714  1
  Cr  Cr16  1  0.49652980  0.83197674  0.16696726  1
  Fe  Fe17  1  0.33020629  0.66241308  0.33054121  1
  Cr  Cr18  1  0.66702845  -0.00047629  0.99691757  1
  Fe  Fe19  1  0.83122760  0.16593041  0.16614512  1
  Fe  Fe20  1  0.66442434  0.00125326  0.33136610  1
  Fe  Fe21  1  0.66460442  0.33316317  -0.00029931  1
  Fe  Fe22  1  0.83150409  0.49664775  0.16477356  1
  Fe  Fe23  1  0.66335873  0.33071772  0.33007751  1
  Fe  Fe24  1  0.66528830  0.66311416  0.99761473  1
  Cr  Cr25  1  0.83256492  0.82852534  0.16753516  1
  Fe  Fe26  1  0.66392336  0.66243525  0.33094992  1
  Fe  Fe27  1  0.16520965  0.16656575  0.49511209  1
  Cr  Cr28  1  0.99485639  -0.00110547  0.66689919  1
  Cr  Cr29  1  0.16364165  0.16559013  0.83325686  1
  Fe  Fe30  1  0.16634847  0.49673415  0.49621396  1
  Fe  Fe31  1  0.99763135  0.33105119  0.66505489  1
  Fe  Fe32  1  0.16563065  0.49827474  0.83214349  1
  Cr  Cr33  1  0.16664660  0.83175810  0.49462401  1
  Cr  Cr34  1  0.00105710  0.66425873  0.66578010  1
  Fe  Fe35  1  0.16485685  0.83037866  0.83272436  1
  Fe  Fe36  1  0.49847425  0.16607524  0.49699173  1
  Cr  Cr37  1  0.33296791  0.99815495  0.66435234  1
  Cr  Cr38  1  0.49840537  0.16466945  0.83243337  1
  Fe  Fe39  1  0.49689331  0.49692693  0.49622700  1
  Cr  Cr40  1  0.33112988  0.33555679  0.66223017  1
  Fe  Fe41  1  0.49724230  0.49824864  0.83221517  1
  Cr  Cr42  1  0.49800509  0.83191040  0.49763595  1
  Fe  Fe43  1  0.33192758  0.66475934  0.66644181  1
  Fe  Fe44  1  0.49858686  0.83079075  0.83121243  1
  Cr  Cr45  1  0.83178134  0.16646604  0.50015905  1
  Ni  Ni46  1  0.66559234  -0.00045307  0.66591575  1
  Fe  Fe47  1  0.83097729  0.16474449  0.83096327  1
  Cr  Cr48  1  0.83197009  0.49666632  0.49657931  1
  Fe  Fe49  1  0.66492598  0.32930873  0.66500716  1
  Cr  Cr50  1  0.83129939  0.49674562  0.83262877  1
  Cr  Cr51  1  0.82980854  0.83126809  0.49605713  1
  Cr  Cr52  1  0.66251437  0.66613147  0.66728814  1
  Fe  Fe53  1  0.83108930  0.83346344  0.83251553  1
" 