6763,Ni6Fe10Cr82_9,-205.637507556772, 199.303841430022,Ni6Fe10Cr82,"# generated using pymatgen
 data_Cr46Fe5Ni3
_symmetry_space_group_name_H-M   'P 1'
_cell_length_a   7.58351025
_cell_length_b   7.58351025
_cell_length_c   10.72470304
_cell_angle_alpha   90.00000000
_cell_angle_beta   90.00000000
_cell_angle_gamma   90.00000000
_symmetry_Int_Tables_number   1
_chemical_formula_structural   Cr46Fe5Ni3
_chemical_formula_sum   'Cr46 Fe5 Ni3'
_cell_volume   616.77367883
_cell_formula_units_Z   1
loop_
 _symmetry_equiv_pos_site_id
 _symmetry_equiv_pos_as_xyz
  1  'x, y, z'
loop_
 _atom_site_type_symbol
 _atom_site_label
 _atom_site_symmetry_multiplicity
 _atom_site_fract_x
 _atom_site_fract_y
 _atom_site_fract_z
 _atom_site_occupancy
  Cr  Cr0  1  -0.00678805  0.99200668  -0.00709207  1
  Cr  Cr1  1  0.15842591  0.16056137  0.15923828  1
  Cr  Cr2  1  -0.00623439  0.99154733  0.32538627  1
  Cr  Cr3  1  0.98975914  0.32554361  0.98963514  1
  Cr  Cr4  1  0.15780356  0.49080787  0.15886120  1
  Ni  Ni5  1  -0.00721451  0.32596375  0.32567355  1
  Cr  Cr6  1  -0.00698706  0.65935657  0.99210137  1
  Ni  Ni7  1  0.15994142  0.82470847  0.16005900  1
  Cr  Cr8  1  -0.00610488  0.66049246  0.32626997  1
  Cr  Cr9  1  0.32381937  0.99152839  -0.00593191  1
  Cr  Cr10  1  0.49158195  0.15896638  0.15888184  1
  Cr  Cr11  1  0.32423940  0.99067256  0.32615096  1
  Fe  Fe12  1  0.32573547  0.32599518  -0.00721334  1
  Fe  Fe13  1  0.49150607  0.49204167  0.15843245  1
  Cr  Cr14  1  0.32649965  0.32669502  0.32437424  1
  Cr  Cr15  1  0.32468871  0.65844633  -0.00497984  1
  Cr  Cr16  1  0.49359012  0.82584201  0.15737306  1
  Cr  Cr17  1  0.32515642  0.65972101  0.32484025  1
  Cr  Cr18  1  0.66038429  -0.00517628  0.99130455  1
  Cr  Cr19  1  0.82675026  0.15967325  0.16062265  1
  Cr  Cr20  1  0.65939465  -0.00751753  0.32634674  1
  Cr  Cr21  1  0.65848011  0.32637408  0.99119041  1
  Cr  Cr22  1  0.82720261  0.49217637  0.16102112  1
  Cr  Cr23  1  0.65908034  0.32633772  0.32493982  1
  Cr  Cr24  1  0.65919387  0.65597497  -0.00712341  1
  Cr  Cr25  1  0.82586902  0.82521175  0.15919161  1
  Cr  Cr26  1  0.65808425  0.65809156  0.32491352  1
  Cr  Cr27  1  0.15803786  0.16111282  0.49098850  1
  Cr  Cr28  1  -0.00748965  0.99207022  0.65880356  1
  Cr  Cr29  1  0.15946669  0.16007455  0.82654289  1
  Cr  Cr30  1  0.15719883  0.49104666  0.49247139  1
  Cr  Cr31  1  0.98998259  0.32537188  0.66121725  1
  Cr  Cr32  1  0.15750402  0.49151230  0.82543384  1
  Fe  Fe33  1  0.15810037  0.82555902  0.49170417  1
  Cr  Cr34  1  0.99221023  0.65963286  0.65884198  1
  Cr  Cr35  1  0.15954978  0.82543528  0.82589796  1
  Cr  Cr36  1  0.49196060  0.15811237  0.49268281  1
  Cr  Cr37  1  0.32374049  0.99162379  0.65679936  1
  Cr  Cr38  1  0.49084959  0.15766122  0.82528854  1
  Cr  Cr39  1  0.49214205  0.49290333  0.49202512  1
  Cr  Cr40  1  0.32646929  0.32591068  0.65925936  1
  Cr  Cr41  1  0.49131191  0.49314618  0.82627809  1
  Cr  Cr42  1  0.49472853  0.82588196  0.49438983  1
  Cr  Cr43  1  0.32422921  0.65958671  0.65713603  1
  Cr  Cr44  1  0.49302958  0.82612037  0.82524752  1
  Cr  Cr45  1  0.82702669  0.15943534  0.49016413  1
  Cr  Cr46  1  0.66096590  -0.00577574  0.65929178  1
  Fe  Fe47  1  0.82576684  0.15966228  0.82585730  1
  Cr  Cr48  1  0.82759885  0.49304548  0.49076990  1
  Cr  Cr49  1  0.66007209  0.32596144  0.66074449  1
  Ni  Ni50  1  0.82552181  0.49133951  0.82538770  1
  Fe  Fe51  1  0.82664041  0.82572811  0.49224683  1
  Cr  Cr52  1  0.66036729  0.65700110  0.65926074  1
  Cr  Cr53  1  0.82451191  0.82414923  0.82615302  1
" 