829,Ni6Fe61Cr31_3,-221.242951043986, 169.047538319245,Ni6Fe61Cr31,"# generated using pymatgen
 data_Cr6Fe11Ni
_symmetry_space_group_name_H-M   'P 1'
_cell_length_a   7.48957647
_cell_length_b   7.48957647
_cell_length_c   10.59186062
_cell_angle_alpha   90.00000000
_cell_angle_beta   90.00000000
_cell_angle_gamma   90.00000000
_symmetry_Int_Tables_number   1
_chemical_formula_structural   Cr6Fe11Ni
_chemical_formula_sum   'Cr18 Fe33 Ni3'
_cell_volume   594.13724279
_cell_formula_units_Z   3
loop_
 _symmetry_equiv_pos_site_id
 _symmetry_equiv_pos_as_xyz
  1  'x, y, z'
loop_
 _atom_site_type_symbol
 _atom_site_label
 _atom_site_symmetry_multiplicity
 _atom_site_fract_x
 _atom_site_fract_y
 _atom_site_fract_z
 _atom_site_occupancy
  Cr  Cr0  1  0.99569361  0.00052233  0.99746289  1
  Fe  Fe1  1  0.16847171  0.16699394  0.16675057  1
  Cr  Cr2  1  0.99714752  0.00139828  0.33343487  1
  Cr  Cr3  1  0.99846089  0.33101755  0.00167607  1
  Fe  Fe4  1  0.16830269  0.49730424  0.16721561  1
  Fe  Fe5  1  0.00107044  0.33330222  0.33005435  1
  Fe  Fe6  1  0.99611214  0.66365447  -0.00143324  1
  Cr  Cr7  1  0.16653963  0.82999875  0.16306833  1
  Fe  Fe8  1  0.00049371  0.66173280  0.33212513  1
  Fe  Fe9  1  0.33488019  0.99808003  -0.00020006  1
  Cr  Cr10  1  0.49968422  0.16548324  0.16412430  1
  Fe  Fe11  1  0.33411731  -0.00010450  0.33218544  1
  Fe  Fe12  1  0.33352217  0.33270096  0.00111549  1
  Ni  Ni13  1  0.49944987  0.49650753  0.16652982  1
  Ni  Ni14  1  0.33170363  0.33375121  0.33206390  1
  Cr  Cr15  1  0.33698151  0.66355007  -0.00061879  1
  Ni  Ni16  1  0.49838235  0.83193850  0.16693358  1
  Fe  Fe17  1  0.33454819  0.66314389  0.33042465  1
  Fe  Fe18  1  0.66421693  0.99769200  -0.00098426  1
  Fe  Fe19  1  0.82904672  0.16689290  0.16679038  1
  Fe  Fe20  1  0.66072520  0.99817449  0.33233745  1
  Fe  Fe21  1  0.66538533  0.33339119  -0.00067188  1
  Fe  Fe22  1  0.82903794  0.49772821  0.16741672  1
  Fe  Fe23  1  0.66244169  0.33251308  0.33051739  1
  Cr  Cr24  1  0.66329854  0.66611976  0.99785715  1
  Cr  Cr25  1  0.83161552  0.82989815  0.16805134  1
  Fe  Fe26  1  0.66066351  0.66438226  0.33038420  1
  Fe  Fe27  1  0.16787899  0.16629989  0.49661988  1
  Fe  Fe28  1  0.99667868  0.99830941  0.66480979  1
  Cr  Cr29  1  0.16870738  0.16303272  0.83138287  1
  Fe  Fe30  1  0.16675815  0.49777729  0.49581218  1
  Cr  Cr31  1  -0.00025714  0.32883247  0.66371311  1
  Cr  Cr32  1  0.16527428  0.50060231  0.83306595  1
  Cr  Cr33  1  0.16642209  0.83011721  0.49972312  1
  Cr  Cr34  1  0.99529813  0.66599785  0.66676634  1
  Cr  Cr35  1  0.16579762  0.83158153  0.83270511  1
  Fe  Fe36  1  0.49675563  0.16497612  0.49672376  1
  Fe  Fe37  1  0.33418986  0.99734169  0.66365139  1
  Cr  Cr38  1  0.50126133  0.16659279  0.83410059  1
  Fe  Fe39  1  0.49747266  0.49909374  0.49557262  1
  Cr  Cr40  1  0.33328015  0.33378816  0.66271257  1
  Fe  Fe41  1  0.50011863  0.49860346  0.83121347  1
  Fe  Fe42  1  0.50131644  0.83168851  0.49735827  1
  Fe  Fe43  1  0.33617517  0.66589927  0.66466436  1
  Fe  Fe44  1  0.49922580  0.83267399  0.83049440  1
  Cr  Cr45  1  0.82710194  0.16623276  0.49897710  1
  Fe  Fe46  1  0.66490937  0.99676154  0.66528228  1
  Fe  Fe47  1  0.83034689  0.16477695  0.83048563  1
  Cr  Cr48  1  0.82990049  0.49903677  0.49559238  1
  Fe  Fe49  1  0.66454541  0.33370534  0.66593213  1
  Fe  Fe50  1  0.82869975  0.49705521  0.83158220  1
  Fe  Fe51  1  0.82833563  0.83156195  0.49793041  1
  Fe  Fe52  1  0.66193114  0.66511002  0.66603108  1
  Fe  Fe53  1  0.82866558  0.83356670  0.83126885  1
" 