2477,Ni6Fe17Cr75_10,-208.715170144441, 198.192993641668,Ni6Fe17Cr75,"# generated using pymatgen
 data_Cr14Fe3Ni
_symmetry_space_group_name_H-M   'P 1'
_cell_length_a   7.57012345
_cell_length_b   7.57012345
_cell_length_c   10.70577125
_cell_angle_alpha   90.00000000
_cell_angle_beta   90.00000000
_cell_angle_gamma   90.00000000
_symmetry_Int_Tables_number   1
_chemical_formula_structural   Cr14Fe3Ni
_chemical_formula_sum   'Cr42 Fe9 Ni3'
_cell_volume   613.51315979
_cell_formula_units_Z   3
loop_
 _symmetry_equiv_pos_site_id
 _symmetry_equiv_pos_as_xyz
  1  'x, y, z'
loop_
 _atom_site_type_symbol
 _atom_site_label
 _atom_site_symmetry_multiplicity
 _atom_site_fract_x
 _atom_site_fract_y
 _atom_site_fract_z
 _atom_site_occupancy
  Cr  Cr0  1  0.99295258  -0.00535158  0.99118519  1
  Cr  Cr1  1  0.15890016  0.16015092  0.15889920  1
  Cr  Cr2  1  0.99296350  0.99236744  0.32688785  1
  Ni  Ni3  1  -0.00382091  0.32961803  -0.00659146  1
  Ni  Ni4  1  0.15868870  0.49382816  0.15713434  1
  Cr  Cr5  1  -0.00495212  0.32873406  0.32448559  1
  Cr  Cr6  1  0.99310409  0.65848917  -0.00535821  1
  Cr  Cr7  1  0.16116238  0.82467512  0.16203162  1
  Fe  Fe8  1  -0.00648730  0.65765097  0.32448271  1
  Cr  Cr9  1  0.32673408  -0.00439533  -0.00643051  1
  Cr  Cr10  1  0.49392357  0.16005522  0.16190515  1
  Fe  Fe11  1  0.32686550  -0.00640778  0.32571074  1
  Cr  Cr12  1  0.32464608  0.32805398  0.99181517  1
  Fe  Fe13  1  0.49091759  0.49303027  0.15946295  1
  Cr  Cr14  1  0.32599919  0.32756933  0.32639874  1
  Fe  Fe15  1  0.32459560  0.65749807  -0.00555500  1
  Cr  Cr16  1  0.49060880  0.82593959  0.15821465  1
  Cr  Cr17  1  0.32657716  0.65656493  0.32461055  1
  Cr  Cr18  1  0.66004468  0.99243235  0.99035358  1
  Cr  Cr19  1  0.82679041  0.16340423  0.15919060  1
  Cr  Cr20  1  0.66040503  0.99177155  0.32643515  1
  Cr  Cr21  1  0.65853418  0.32767980  -0.00328046  1
  Fe  Fe22  1  0.82907125  0.49293642  0.15945840  1
  Fe  Fe23  1  0.65980989  0.32812392  0.32484762  1
  Cr  Cr24  1  0.65915050  0.65996736  -0.00608653  1
  Cr  Cr25  1  0.82770685  0.82645896  0.15829314  1
  Cr  Cr26  1  0.66118869  0.65843766  0.32498052  1
  Cr  Cr27  1  0.15983226  0.15876742  0.49261006  1
  Cr  Cr28  1  0.99295118  0.99312789  0.66166827  1
  Fe  Fe29  1  0.16090728  0.16098175  0.82814731  1
  Cr  Cr30  1  0.15878473  0.49459888  0.49512747  1
  Cr  Cr31  1  -0.00324358  0.32598039  0.66183175  1
  Fe  Fe32  1  0.15934120  0.49210134  0.82874360  1
  Cr  Cr33  1  0.16098445  0.82572107  0.48930175  1
  Cr  Cr34  1  0.99278133  0.66026615  0.65911583  1
  Cr  Cr35  1  0.16047646  0.82412137  0.82775539  1
  Cr  Cr36  1  0.49383923  0.16003935  0.49125098  1
  Cr  Cr37  1  0.32624034  -0.00434441  0.65909089  1
  Ni  Ni38  1  0.49226881  0.16030095  0.82656451  1
  Cr  Cr39  1  0.49436279  0.49277227  0.49410902  1
  Cr  Cr40  1  0.32539115  0.32578277  0.66225974  1
  Cr  Cr41  1  0.49274981  0.49295426  0.82689298  1
  Cr  Cr42  1  0.49081249  0.82656781  0.49312735  1
  Cr  Cr43  1  0.32596616  0.65763051  0.66089117  1
  Cr  Cr44  1  0.49063782  0.82607088  0.82785288  1
  Cr  Cr45  1  0.82613633  0.16226878  0.49227835  1
  Cr  Cr46  1  0.66033609  0.99246347  0.66296389  1
  Cr  Cr47  1  0.82671161  0.16306580  0.82831153  1
  Cr  Cr48  1  0.82684029  0.49162538  0.49184443  1
  Cr  Cr49  1  0.65789027  0.32581238  0.65812860  1
  Cr  Cr50  1  0.82792640  0.49183273  0.82667283  1
  Cr  Cr51  1  0.82795472  0.82551025  0.49461081  1
  Cr  Cr52  1  0.66070247  0.66146236  0.66055856  1
  Fe  Fe53  1  0.82670209  0.82559970  0.82717306  1
" 