1237,Ni6Fe20Cr73_13,-209.984607225195, 193.29275163,Ni6Fe20Cr73,"# generated using pymatgen
 data_Cr40Fe11Ni3
_symmetry_space_group_name_H-M   'P 1'
_cell_length_a   7.56434825
_cell_length_b   7.56434825
_cell_length_c   10.69760388
_cell_angle_alpha   90.00000000
_cell_angle_beta   90.00000000
_cell_angle_gamma   90.00000000
_symmetry_Int_Tables_number   1
_chemical_formula_structural   Cr40Fe11Ni3
_chemical_formula_sum   'Cr40 Fe11 Ni3'
_cell_volume   612.11009465
_cell_formula_units_Z   1
loop_
 _symmetry_equiv_pos_site_id
 _symmetry_equiv_pos_as_xyz
  1  'x, y, z'
loop_
 _atom_site_type_symbol
 _atom_site_label
 _atom_site_symmetry_multiplicity
 _atom_site_fract_x
 _atom_site_fract_y
 _atom_site_fract_z
 _atom_site_occupancy
  Cr  Cr0  1  0.99233961  -0.00427528  0.99341968  1
  Cr  Cr1  1  0.16079614  0.16082201  0.16259217  1
  Cr  Cr2  1  -0.00506791  -0.00599918  0.32926828  1
  Cr  Cr3  1  0.99245394  0.32386920  0.99093497  1
  Cr  Cr4  1  0.16005529  0.49248406  0.15725826  1
  Cr  Cr5  1  -0.00547394  0.32434146  0.32866097  1
  Cr  Cr6  1  0.99229628  0.66086799  0.99292888  1
  Cr  Cr7  1  0.16155859  0.82725311  0.15961478  1
  Cr  Cr8  1  -0.00583630  0.66175153  0.32728566  1
  Cr  Cr9  1  0.32968510  -0.00383776  -0.00487226  1
  Fe  Fe10  1  0.49507594  0.15979461  0.15999783  1
  Cr  Cr11  1  0.32648417  -0.00565143  0.32712902  1
  Cr  Cr12  1  0.33008502  0.32446295  0.99343707  1
  Cr  Cr13  1  0.49513152  0.49104027  0.16251030  1
  Cr  Cr14  1  0.32902561  0.32574136  0.32789359  1
  Cr  Cr15  1  0.32969913  0.66034348  -0.00530193  1
  Fe  Fe16  1  0.49484761  0.82804283  0.16005325  1
  Cr  Cr17  1  0.32832297  0.66047108  0.32714248  1
  Fe  Fe18  1  0.65891746  -0.00299952  0.99252964  1
  Cr  Cr19  1  0.82359317  0.16132221  0.16013734  1
  Cr  Cr20  1  0.65884479  -0.00588106  0.32475860  1
  Fe  Fe21  1  0.65899777  0.32409810  0.99228917  1
  Cr  Cr22  1  0.82587445  0.49159238  0.16158882  1
  Fe  Fe23  1  0.65870634  0.32543132  0.32779638  1
  Cr  Cr24  1  0.65882171  0.66018619  0.99287708  1
  Cr  Cr25  1  0.82484541  0.82777905  0.16019352  1
  Cr  Cr26  1  0.65785222  0.65883181  0.33034207  1
  Fe  Fe27  1  0.16197058  0.15895817  0.49623738  1
  Cr  Cr28  1  0.99323643  -0.00470219  0.65774167  1
  Cr  Cr29  1  0.16259944  0.16063422  0.82209171  1
  Cr  Cr30  1  0.16104945  0.49159305  0.49536698  1
  Fe  Fe31  1  -0.00628849  0.32638462  0.65970372  1
  Cr  Cr32  1  0.16126447  0.49174981  0.82781750  1
  Ni  Ni33  1  0.16360462  0.82860987  0.49495933  1
  Cr  Cr34  1  0.99313167  0.66113584  0.66057624  1
  Cr  Cr35  1  0.16236055  0.82821891  0.82695547  1
  Cr  Cr36  1  0.49325520  0.16034491  0.49489282  1
  Fe  Fe37  1  0.32830403  -0.00503497  0.65901245  1
  Fe  Fe38  1  0.49434478  0.16026111  0.82491430  1
  Fe  Fe39  1  0.49183023  0.49182231  0.49479087  1
  Ni  Ni40  1  0.32672178  0.32262205  0.65898205  1
  Cr  Cr41  1  0.49236916  0.49151187  0.82449045  1
  Cr  Cr42  1  0.49305398  0.83033469  0.49607507  1
  Cr  Cr43  1  0.32760059  0.65821234  0.65949317  1
  Cr  Cr44  1  0.49385865  0.83141784  0.82541687  1
  Cr  Cr45  1  0.82497395  0.16057387  0.49369579  1
  Ni  Ni46  1  0.65965875  -0.00178578  0.66362242  1
  Fe  Fe47  1  0.82430270  0.15948897  0.82584046  1
  Cr  Cr48  1  0.82575173  0.49119125  0.49169119  1
  Cr  Cr49  1  0.65876338  0.32659254  0.66054816  1
  Cr  Cr50  1  0.82688190  0.49116097  0.82712717  1
  Cr  Cr51  1  0.82586019  0.82895632  0.49417498  1
  Cr  Cr52  1  0.65977467  0.66086758  0.65785627  1
  Cr  Cr53  1  0.82453098  0.82969456  0.82615738  1
" 