4561,Ni6Fe61Cr31_15,-222.017525806425, 161.664547669942,Ni6Fe61Cr31,"# generated using pymatgen
 data_Cr6Fe11Ni
_symmetry_space_group_name_H-M   'P 1'
_cell_length_a   7.50323043
_cell_length_b   7.50323043
_cell_length_c   10.61117023
_cell_angle_alpha   90.00000000
_cell_angle_beta   90.00000000
_cell_angle_gamma   90.00000000
_symmetry_Int_Tables_number   1
_chemical_formula_structural   Cr6Fe11Ni
_chemical_formula_sum   'Cr18 Fe33 Ni3'
_cell_volume   597.39261545
_cell_formula_units_Z   3
loop_
 _symmetry_equiv_pos_site_id
 _symmetry_equiv_pos_as_xyz
  1  'x, y, z'
loop_
 _atom_site_type_symbol
 _atom_site_label
 _atom_site_symmetry_multiplicity
 _atom_site_fract_x
 _atom_site_fract_y
 _atom_site_fract_z
 _atom_site_occupancy
  Fe  Fe0  1  0.99758231  -0.00005657  -0.00094507  1
  Fe  Fe1  1  0.16274790  0.16297800  0.16306395  1
  Fe  Fe2  1  0.00014751  0.99735288  0.32952791  1
  Fe  Fe3  1  -0.00237071  0.32727310  -0.00113445  1
  Fe  Fe4  1  0.16637430  0.49898025  0.16419145  1
  Cr  Cr5  1  -0.00218312  0.33026392  0.33007116  1
  Cr  Cr6  1  -0.00198978  0.66231529  -0.00171766  1
  Fe  Fe7  1  0.16327749  0.83116783  0.16531978  1
  Ni  Ni8  1  -0.00095529  0.66504072  0.33010829  1
  Cr  Cr9  1  0.33208363  -0.00075458  0.99531031  1
  Cr  Cr10  1  0.49881334  0.16652410  0.16365276  1
  Fe  Fe11  1  0.32838812  0.99686698  0.33191420  1
  Fe  Fe12  1  0.32984350  0.33071914  -0.00098358  1
  Fe  Fe13  1  0.49722923  0.49860094  0.16274783  1
  Cr  Cr14  1  0.33173775  0.33012918  0.32910836  1
  Fe  Fe15  1  0.33097221  0.66381385  -0.00157265  1
  Cr  Cr16  1  0.49828030  0.83054076  0.16346426  1
  Fe  Fe17  1  0.32983404  0.66532907  0.33120798  1
  Fe  Fe18  1  0.66580967  -0.00010871  0.99690249  1
  Fe  Fe19  1  0.83196872  0.16283338  0.16275940  1
  Cr  Cr20  1  0.66347631  0.00014232  0.33014882  1
  Fe  Fe21  1  0.66556495  0.32905949  0.99713653  1
  Cr  Cr22  1  0.82968175  0.49782315  0.16532999  1
  Fe  Fe23  1  0.66441292  0.33233887  0.33304290  1
  Fe  Fe24  1  0.66308940  0.66408466  -0.00217223  1
  Fe  Fe25  1  0.83256118  0.83231454  0.16494890  1
  Fe  Fe26  1  0.66397322  0.66205107  0.33180797  1
  Fe  Fe27  1  0.16504445  0.16225409  0.49834929  1
  Fe  Fe28  1  0.99751603  -0.00035882  0.66325804  1
  Fe  Fe29  1  0.16472862  0.16495426  0.82983315  1
  Cr  Cr30  1  0.16366165  0.49794598  0.49829850  1
  Fe  Fe31  1  0.99555165  0.32748162  0.66395597  1
  Cr  Cr32  1  0.16373258  0.49439833  0.83180718  1
  Fe  Fe33  1  0.16610488  0.83381563  0.49634946  1
  Cr  Cr34  1  0.99539204  0.66099865  0.66413966  1
  Cr  Cr35  1  0.16304837  0.83202927  0.82828886  1
  Ni  Ni36  1  0.49693792  0.16518252  0.49776665  1
  Fe  Fe37  1  0.33100265  0.00123102  0.66380194  1
  Ni  Ni38  1  0.49809814  0.16586367  0.83107850  1
  Fe  Fe39  1  0.49905446  0.49600292  0.49697177  1
  Fe  Fe40  1  0.33311879  0.32780875  0.66369006  1
  Cr  Cr41  1  0.49697322  0.49502344  0.83365471  1
  Fe  Fe42  1  0.49603628  0.83270975  0.49582014  1
  Cr  Cr43  1  0.33275092  0.66627486  0.66435653  1
  Fe  Fe44  1  0.49735094  0.83191422  0.83296089  1
  Fe  Fe45  1  0.83007879  0.16566691  0.49849116  1
  Cr  Cr46  1  0.66140044  -0.00137276  0.66682984  1
  Fe  Fe47  1  0.83123717  0.16712000  0.83184630  1
  Fe  Fe48  1  0.82866500  0.49515334  0.49561074  1
  Fe  Fe49  1  0.66362726  0.33043238  0.66366319  1
  Fe  Fe50  1  0.82943590  0.49309081  0.83218010  1
  Cr  Cr51  1  0.83351636  0.83067886  0.49454523  1
  Cr  Cr52  1  0.66447238  0.66393546  0.66468530  1
  Cr  Cr53  1  0.83091022  0.83193916  0.83432516  1
" 