2854,Ni6Fe17Cr75_5,-208.348910787105, 194.435145783879,Ni6Fe17Cr75,"# generated using pymatgen
 data_Cr14Fe3Ni
_symmetry_space_group_name_H-M   'P 1'
_cell_length_a   7.57328085
_cell_length_b   7.57328085
_cell_length_c   10.71023649
_cell_angle_alpha   90.00000000
_cell_angle_beta   90.00000000
_cell_angle_gamma   90.00000000
_symmetry_Int_Tables_number   1
_chemical_formula_structural   Cr14Fe3Ni
_chemical_formula_sum   'Cr42 Fe9 Ni3'
_cell_volume   614.28114553
_cell_formula_units_Z   3
loop_
 _symmetry_equiv_pos_site_id
 _symmetry_equiv_pos_as_xyz
  1  'x, y, z'
loop_
 _atom_site_type_symbol
 _atom_site_label
 _atom_site_symmetry_multiplicity
 _atom_site_fract_x
 _atom_site_fract_y
 _atom_site_fract_z
 _atom_site_occupancy
  Cr  Cr0  1  0.99259667  -0.00510721  0.99186301  1
  Ni  Ni1  1  0.15775779  0.16202583  0.15675705  1
  Cr  Cr2  1  -0.00505994  -0.00558541  0.32317589  1
  Cr  Cr3  1  -0.00697340  0.32454534  -0.00599964  1
  Fe  Fe4  1  0.15967652  0.49063476  0.15833196  1
  Cr  Cr5  1  -0.00693595  0.32495903  0.32325345  1
  Cr  Cr6  1  -0.00602650  0.65998238  -0.00542612  1
  Fe  Fe7  1  0.16019250  0.82984896  0.15850760  1
  Cr  Cr8  1  -0.00546703  0.65964758  0.32302334  1
  Cr  Cr9  1  0.32527989  -0.00581612  -0.00674560  1
  Cr  Cr10  1  0.49208112  0.15935815  0.15849211  1
  Cr  Cr11  1  0.32394961  -0.00669665  0.32576369  1
  Fe  Fe12  1  0.32503265  0.32368351  0.99290407  1
  Cr  Cr13  1  0.49320457  0.49140984  0.15751285  1
  Cr  Cr14  1  0.32496956  0.32561544  0.32446061  1
  Cr  Cr15  1  0.32516683  0.65953939  -0.00414092  1
  Cr  Cr16  1  0.49474764  0.82784356  0.15886499  1
  Cr  Cr17  1  0.32547668  0.66024332  0.32457944  1
  Fe  Fe18  1  0.66046663  -0.00537577  0.99136482  1
  Fe  Fe19  1  0.82626959  0.15972360  0.15859032  1
  Cr  Cr20  1  0.66060659  -0.00580241  0.32477677  1
  Cr  Cr21  1  0.66022288  0.32372676  0.99221617  1
  Fe  Fe22  1  0.82642801  0.49145114  0.15857248  1
  Cr  Cr23  1  0.66077147  0.32627537  0.32662317  1
  Cr  Cr24  1  0.65985275  0.65965945  0.99113464  1
  Cr  Cr25  1  0.82627449  0.82719249  0.15731532  1
  Cr  Cr26  1  0.65939140  0.65862625  0.32745615  1
  Cr  Cr27  1  0.16022451  0.15916821  0.49537656  1
  Cr  Cr28  1  -0.00609541  -0.00502717  0.66299332  1
  Fe  Fe29  1  0.16299310  0.15916883  0.82773875  1
  Cr  Cr30  1  0.15862185  0.49142072  0.49425518  1
  Cr  Cr31  1  0.99201753  0.32366105  0.66138907  1
  Cr  Cr32  1  0.15955030  0.49057167  0.82765469  1
  Cr  Cr33  1  0.15905372  0.82817610  0.49372689  1
  Cr  Cr34  1  0.99238264  0.66057593  0.66110291  1
  Cr  Cr35  1  0.15878360  0.82658637  0.82553906  1
  Cr  Cr36  1  0.49173288  0.15837420  0.49269706  1
  Ni  Ni37  1  0.32685231  -0.00417284  0.66256636  1
  Ni  Ni38  1  0.49292959  0.15716938  0.82895774  1
  Cr  Cr39  1  0.49194571  0.49136063  0.49329715  1
  Cr  Cr40  1  0.32747839  0.32336009  0.66309380  1
  Cr  Cr41  1  0.49166089  0.48976665  0.82790075  1
  Cr  Cr42  1  0.49253945  0.82928197  0.49269376  1
  Cr  Cr43  1  0.32714924  0.66182281  0.65875394  1
  Cr  Cr44  1  0.49287967  0.82840792  0.82797007  1
  Cr  Cr45  1  0.82777402  0.15872901  0.49062964  1
  Cr  Cr46  1  0.65895478  -0.00528960  0.66275693  1
  Fe  Fe47  1  0.82436226  0.15918495  0.82756527  1
  Cr  Cr48  1  0.82834852  0.49274111  0.49253829  1
  Cr  Cr49  1  0.65971267  0.32490794  0.65909201  1
  Cr  Cr50  1  0.82755123  0.49356242  0.82585356  1
  Cr  Cr51  1  0.82748105  0.82749832  0.49400759  1
  Cr  Cr52  1  0.65903343  0.65979956  0.66005854  1
  Fe  Fe53  1  0.82538996  0.82884612  0.82782440  1
" 