8481,Ni6Fe20Cr73_15,-210.030984698351, 192.261711561666,Ni6Fe20Cr73,"# generated using pymatgen
 data_Cr40Fe11Ni3
_symmetry_space_group_name_H-M   'P 1'
_cell_length_a   7.57062954
_cell_length_b   7.57062954
_cell_length_c   10.70648697
_cell_angle_alpha   90.00000000
_cell_angle_beta   90.00000000
_cell_angle_gamma   90.00000000
_symmetry_Int_Tables_number   1
_chemical_formula_structural   Cr40Fe11Ni3
_chemical_formula_sum   'Cr40 Fe11 Ni3'
_cell_volume   613.63621580
_cell_formula_units_Z   1
loop_
 _symmetry_equiv_pos_site_id
 _symmetry_equiv_pos_as_xyz
  1  'x, y, z'
loop_
 _atom_site_type_symbol
 _atom_site_label
 _atom_site_symmetry_multiplicity
 _atom_site_fract_x
 _atom_site_fract_y
 _atom_site_fract_z
 _atom_site_occupancy
  Cr  Cr0  1  0.99249209  0.99257736  -0.00325550  1
  Cr  Cr1  1  0.15888224  0.15954618  0.16137119  1
  Fe  Fe2  1  0.99253205  0.99236308  0.32693418  1
  Cr  Cr3  1  0.98874463  0.32548550  -0.00674267  1
  Cr  Cr4  1  0.15937409  0.49171042  0.16230705  1
  Cr  Cr5  1  0.99017141  0.32572662  0.32767663  1
  Cr  Cr6  1  -0.00601195  0.66098755  -0.00512756  1
  Fe  Fe7  1  0.15924333  0.82633733  0.16155992  1
  Fe  Fe8  1  0.99218036  0.66097381  0.32682312  1
  Cr  Cr9  1  0.32665553  0.99214214  0.99275375  1
  Cr  Cr10  1  0.49337745  0.15947132  0.16062999  1
  Cr  Cr11  1  0.32765953  0.99290939  0.32635774  1
  Cr  Cr12  1  0.32865982  0.32663808  0.99162505  1
  Cr  Cr13  1  0.49371995  0.49320739  0.15992527  1
  Fe  Fe14  1  0.32760127  0.32508992  0.32787505  1
  Cr  Cr15  1  0.32643163  0.66050324  0.99298463  1
  Cr  Cr16  1  0.49470521  0.82656207  0.16020667  1
  Cr  Cr17  1  0.32684262  0.66089733  0.32441429  1
  Cr  Cr18  1  0.66023861  -0.00419172  -0.00593859  1
  Fe  Fe19  1  0.82550492  0.15934042  0.16108217  1
  Fe  Fe20  1  0.66064070  -0.00666611  0.32739428  1
  Fe  Fe21  1  0.65758490  0.32574719  0.99243828  1
  Cr  Cr22  1  0.82550536  0.49341234  0.15888571  1
  Cr  Cr23  1  0.65928501  0.32527896  0.32467470  1
  Cr  Cr24  1  0.65893252  0.65814340  0.99220877  1
  Cr  Cr25  1  0.82548437  0.82693502  0.16413647  1
  Fe  Fe26  1  0.66102379  0.66058497  0.32761091  1
  Cr  Cr27  1  0.16216788  0.16046146  0.49314178  1
  Cr  Cr28  1  0.99152764  0.99287547  0.65885864  1
  Cr  Cr29  1  0.16116631  0.16046784  0.82519313  1
  Cr  Cr30  1  0.15958676  0.49212705  0.49164043  1
  Cr  Cr31  1  0.99070341  0.32617647  0.65931677  1
  Cr  Cr32  1  0.15921361  0.49177867  0.82484562  1
  Cr  Cr33  1  0.15922647  0.82665807  0.49252909  1
  Cr  Cr34  1  0.99177480  0.66065219  0.65795883  1
  Cr  Cr35  1  0.15929419  0.82737587  0.82865866  1
  Ni  Ni36  1  0.49675308  0.15734701  0.49148682  1
  Cr  Cr37  1  0.32898709  -0.00596423  0.66096844  1
  Ni  Ni38  1  0.49575560  0.16102846  0.82612803  1
  Cr  Cr39  1  0.49368935  0.49327045  0.49097288  1
  Cr  Cr40  1  0.32996248  0.32503396  0.65599102  1
  Fe  Fe41  1  0.49417121  0.49217542  0.82514805  1
  Cr  Cr42  1  0.49748588  0.82783600  0.49409836  1
  Cr  Cr43  1  0.32844049  0.66023579  0.66215337  1
  Cr  Cr44  1  0.49559651  0.82755586  0.82542810  1
  Cr  Cr45  1  0.82518737  0.15695653  0.49298528  1
  Fe  Fe46  1  0.65857169  -0.00545280  0.65942885  1
  Cr  Cr47  1  0.82558685  0.15913669  0.82931888  1
  Cr  Cr48  1  0.82562532  0.49638514  0.49332497  1
  Cr  Cr49  1  0.65898128  0.32630247  0.66155572  1
  Cr  Cr50  1  0.82462028  0.49431037  0.82680103  1
  Fe  Fe51  1  0.82499231  0.82717050  0.49221737  1
  Ni  Ni52  1  0.65972008  0.66099931  0.65725742  1
  Cr  Cr53  1  0.82433455  0.82597072  0.82236490  1
" 