2259,Ni6Fe9Cr83_12,-205.701790955585, 199.079389374422,Ni6Fe9Cr83,"# generated using pymatgen
 data_Cr46Fe5Ni3
_symmetry_space_group_name_H-M   'P 1'
_cell_length_a   7.58357092
_cell_length_b   7.58357092
_cell_length_c   10.72478884
_cell_angle_alpha   90.00000000
_cell_angle_beta   90.00000000
_cell_angle_gamma   90.00000000
_symmetry_Int_Tables_number   1
_chemical_formula_structural   Cr46Fe5Ni3
_chemical_formula_sum   'Cr46 Fe5 Ni3'
_cell_volume   616.78848225
_cell_formula_units_Z   1
loop_
 _symmetry_equiv_pos_site_id
 _symmetry_equiv_pos_as_xyz
  1  'x, y, z'
loop_
 _atom_site_type_symbol
 _atom_site_label
 _atom_site_symmetry_multiplicity
 _atom_site_fract_x
 _atom_site_fract_y
 _atom_site_fract_z
 _atom_site_occupancy
  Cr  Cr0  1  -0.00539107  0.99136438  -0.00643351  1
  Ni  Ni1  1  0.15994685  0.15897345  0.15923759  1
  Cr  Cr2  1  0.99193909  0.99227056  0.32410152  1
  Cr  Cr3  1  -0.00708510  0.32484438  -0.00652743  1
  Cr  Cr4  1  0.16004949  0.49055958  0.15959262  1
  Cr  Cr5  1  -0.00554119  0.32453504  0.32450333  1
  Cr  Cr6  1  -0.00729225  0.66074438  -0.00718731  1
  Cr  Cr7  1  0.15894468  0.82660110  0.15632849  1
  Cr  Cr8  1  0.99108288  0.66014266  0.32526199  1
  Fe  Fe9  1  0.32531587  -0.00697984  0.99197579  1
  Cr  Cr10  1  0.49066535  0.15796817  0.15967914  1
  Cr  Cr11  1  0.32544637  -0.00549795  0.32529920  1
  Cr  Cr12  1  0.32640564  0.32370255  -0.00661374  1
  Cr  Cr13  1  0.49068715  0.49300133  0.15899683  1
  Fe  Fe14  1  0.32476630  0.32482878  0.32477371  1
  Fe  Fe15  1  0.32530738  0.65997774  0.99197258  1
  Cr  Cr16  1  0.49362499  0.82598543  0.15870685  1
  Cr  Cr17  1  0.32629502  0.65791881  0.32645861  1
  Cr  Cr18  1  0.65775876  -0.00757733  -0.00696617  1
  Cr  Cr19  1  0.82683406  0.15684855  0.15963553  1
  Fe  Fe20  1  0.65986295  0.99141577  0.32478816  1
  Cr  Cr21  1  0.65762753  0.32559912  0.98996413  1
  Cr  Cr22  1  0.82621250  0.49352041  0.15798263  1
  Cr  Cr23  1  0.65734105  0.32538830  0.32566720  1
  Cr  Cr24  1  0.65889917  0.65892993  -0.00617604  1
  Ni  Ni25  1  0.82515446  0.82642761  0.16002066  1
  Cr  Cr26  1  0.65957641  0.66044138  0.32490891  1
  Cr  Cr27  1  0.15904671  0.16022507  0.49103529  1
  Cr  Cr28  1  -0.00635346  0.99132560  0.65927898  1
  Cr  Cr29  1  0.16011540  0.15751851  0.82615430  1
  Cr  Cr30  1  0.15963015  0.49159898  0.49159449  1
  Cr  Cr31  1  0.99183646  0.32565562  0.65897378  1
  Cr  Cr32  1  0.15902766  0.49410503  0.82576449  1
  Cr  Cr33  1  0.15916126  0.82512784  0.49439773  1
  Cr  Cr34  1  -0.00711903  0.65997208  0.65887439  1
  Fe  Fe35  1  0.16011777  0.82606881  0.82631938  1
  Cr  Cr36  1  0.49256296  0.15840409  0.49151649  1
  Cr  Cr37  1  0.32540135  -0.00750780  0.66116326  1
  Ni  Ni38  1  0.49106347  0.15769720  0.82599439  1
  Cr  Cr39  1  0.49091639  0.49235698  0.49160248  1
  Cr  Cr40  1  0.32721732  0.32449579  0.65789601  1
  Cr  Cr41  1  0.49177174  0.49211902  0.82635098  1
  Cr  Cr42  1  0.49320986  0.82619214  0.49143046  1
  Cr  Cr43  1  0.32500365  0.65996808  0.65924707  1
  Cr  Cr44  1  0.48985263  0.82702711  0.82682177  1
  Cr  Cr45  1  0.82534224  0.15793333  0.49277676  1
  Cr  Cr46  1  0.65790404  -0.00646048  0.65865635  1
  Cr  Cr47  1  0.82445268  0.15943035  0.82453661  1
  Cr  Cr48  1  0.82640461  0.49224199  0.49384556  1
  Cr  Cr49  1  0.65789529  0.32525638  0.66132061  1
  Cr  Cr50  1  0.82615351  0.49158451  0.82512378  1
  Cr  Cr51  1  0.82458322  0.82677697  0.49119882  1
  Cr  Cr52  1  0.65906707  0.65815514  0.65821548  1
  Cr  Cr53  1  0.82643952  0.82593619  0.82509783  1
" 