4338,Ni6Fe20Cr72_10,-210.070439911591, 191.806470767223,Ni6Fe20Cr72,"# generated using pymatgen
 data_Cr40Fe11Ni3
_symmetry_space_group_name_H-M   'P 1'
_cell_length_a   7.57504513
_cell_length_b   7.57504513
_cell_length_c   10.71273156
_cell_angle_alpha   90.00000000
_cell_angle_beta   90.00000000
_cell_angle_gamma   90.00000000
_symmetry_Int_Tables_number   1
_chemical_formula_structural   Cr40Fe11Ni3
_chemical_formula_sum   'Cr40 Fe11 Ni3'
_cell_volume   614.71055623
_cell_formula_units_Z   1
loop_
 _symmetry_equiv_pos_site_id
 _symmetry_equiv_pos_as_xyz
  1  'x, y, z'
loop_
 _atom_site_type_symbol
 _atom_site_label
 _atom_site_symmetry_multiplicity
 _atom_site_fract_x
 _atom_site_fract_y
 _atom_site_fract_z
 _atom_site_occupancy
  Cr  Cr0  1  -0.00703639  0.99198068  0.99105023  1
  Cr  Cr1  1  0.15830733  0.15976447  0.16163632  1
  Ni  Ni2  1  -0.00613935  -0.00711334  0.32667896  1
  Cr  Cr3  1  0.99230796  0.32685002  -0.00521868  1
  Fe  Fe4  1  0.15821850  0.49283996  0.16022949  1
  Fe  Fe5  1  0.99281492  0.32595055  0.32553913  1
  Cr  Cr6  1  -0.00631237  0.65978428  -0.00672563  1
  Cr  Cr7  1  0.15975208  0.82655877  0.16086657  1
  Fe  Fe8  1  0.99282502  0.65978779  0.32554208  1
  Cr  Cr9  1  0.32606990  -0.00700596  0.99254240  1
  Cr  Cr10  1  0.49264267  0.15949082  0.15892352  1
  Fe  Fe11  1  0.32501766  -0.00678249  0.32650057  1
  Cr  Cr12  1  0.32772145  0.32682993  0.99152156  1
  Cr  Cr13  1  0.49365257  0.49328050  0.15746605  1
  Cr  Cr14  1  0.32492686  0.32522883  0.32725331  1
  Cr  Cr15  1  0.32533180  0.65878937  0.99143128  1
  Cr  Cr16  1  0.49218061  0.82584550  0.16048409  1
  Cr  Cr17  1  0.32463001  0.65957065  0.32551903  1
  Cr  Cr18  1  0.65958025  -0.00562008  -0.00704891  1
  Cr  Cr19  1  0.82766088  0.16122998  0.15905990  1
  Cr  Cr20  1  0.65962669  -0.00690823  0.32710129  1
  Fe  Fe21  1  0.65873077  0.32700578  0.99206369  1
  Fe  Fe22  1  0.82720762  0.49253164  0.15987685  1
  Cr  Cr23  1  0.66012824  0.32551695  0.32656795  1
  Cr  Cr24  1  0.65959670  0.65813661  -0.00674711  1
  Cr  Cr25  1  0.82667919  0.82555507  0.16062429  1
  Cr  Cr26  1  0.66114791  0.66000732  0.32624558  1
  Cr  Cr27  1  0.15923901  0.15841179  0.49166588  1
  Fe  Fe28  1  -0.00631338  0.99208322  0.65991875  1
  Cr  Cr29  1  0.15940489  0.15719086  0.82531410  1
  Cr  Cr30  1  0.15893535  0.49194368  0.49136846  1
  Cr  Cr31  1  -0.00672631  0.32513665  0.65859955  1
  Cr  Cr32  1  0.16163961  0.49375332  0.82616576  1
  Cr  Cr33  1  0.15967868  0.82825730  0.49275455  1
  Cr  Cr34  1  -0.00635142  0.66184983  0.66042269  1
  Ni  Ni35  1  0.16036381  0.82801314  0.82490222  1
  Fe  Fe36  1  0.49252821  0.15852696  0.49314624  1
  Fe  Fe37  1  0.32606016  0.99273436  0.66038749  1
  Fe  Fe38  1  0.49279867  0.16040930  0.82592843  1
  Cr  Cr39  1  0.49304433  0.49292722  0.49393556  1
  Cr  Cr40  1  0.32796557  0.32512533  0.65983125  1
  Ni  Ni41  1  0.49336472  0.49138079  0.82695045  1
  Cr  Cr42  1  0.49257469  0.82755409  0.49209108  1
  Cr  Cr43  1  0.32558740  0.65983729  0.66165922  1
  Cr  Cr44  1  0.49138328  0.82542572  0.82604792  1
  Cr  Cr45  1  0.82734016  0.15887341  0.49323434  1
  Fe  Fe46  1  0.65886762  -0.00643389  0.65950960  1
  Cr  Cr47  1  0.82575840  0.15925936  0.82632226  1
  Cr  Cr48  1  0.82663253  0.49248252  0.49151326  1
  Cr  Cr49  1  0.65737394  0.32439636  0.66012218  1
  Cr  Cr50  1  0.82352285  0.49168864  0.82717783  1
  Cr  Cr51  1  0.82635940  0.82725932  0.49341038  1
  Cr  Cr52  1  0.65937970  0.66019838  0.65911405  1
  Cr  Cr53  1  0.82737931  0.82767033  0.82458332  1
" 