2948,Ni6Fe9Cr83_18,-205.439337118823, 196.664558365573,Ni6Fe9Cr83,"# generated using pymatgen
 data_Cr46Fe5Ni3
_symmetry_space_group_name_H-M   'P 1'
_cell_length_a   7.58551437
_cell_length_b   7.58551437
_cell_length_c   10.72753730
_cell_angle_alpha   90.00000000
_cell_angle_beta   90.00000000
_cell_angle_gamma   90.00000000
_symmetry_Int_Tables_number   1
_chemical_formula_structural   Cr46Fe5Ni3
_chemical_formula_sum   'Cr46 Fe5 Ni3'
_cell_volume   617.26280019
_cell_formula_units_Z   1
loop_
 _symmetry_equiv_pos_site_id
 _symmetry_equiv_pos_as_xyz
  1  'x, y, z'
loop_
 _atom_site_type_symbol
 _atom_site_label
 _atom_site_symmetry_multiplicity
 _atom_site_fract_x
 _atom_site_fract_y
 _atom_site_fract_z
 _atom_site_occupancy
  Fe  Fe0  1  -0.00748322  -0.00746061  0.99184220  1
  Cr  Cr1  1  0.15902463  0.15707123  0.15836877  1
  Cr  Cr2  1  -0.00665045  -0.00707593  0.32479909  1
  Cr  Cr3  1  -0.00618647  0.32370693  0.99219115  1
  Cr  Cr4  1  0.15966392  0.49328755  0.15824054  1
  Cr  Cr5  1  0.99089408  0.32616834  0.32580538  1
  Cr  Cr6  1  0.99144839  0.65870722  -0.00690439  1
  Cr  Cr7  1  0.15827848  0.82621271  0.16017724  1
  Cr  Cr8  1  0.99122537  0.65748225  0.32694172  1
  Cr  Cr9  1  0.32526496  -0.00747549  0.99062735  1
  Cr  Cr10  1  0.49293793  0.16001037  0.16201925  1
  Ni  Ni11  1  0.32597914  -0.00742798  0.32561137  1
  Cr  Cr12  1  0.32319289  0.32516017  0.99144705  1
  Cr  Cr13  1  0.49259274  0.49063895  0.15897071  1
  Cr  Cr14  1  0.32566239  0.32388526  0.32460269  1
  Cr  Cr15  1  0.32718245  0.65889107  0.99186023  1
  Cr  Cr16  1  0.49104115  0.82592389  0.15941819  1
  Cr  Cr17  1  0.32592293  0.66035212  0.32476689  1
  Cr  Cr18  1  0.65939226  0.99015839  0.99144550  1
  Cr  Cr19  1  0.82461040  0.15862167  0.15833720  1
  Cr  Cr20  1  0.65714211  -0.00733446  0.32534644  1
  Cr  Cr21  1  0.65956598  0.32563275  -0.00724292  1
  Cr  Cr22  1  0.82431614  0.49138926  0.15970354  1
  Ni  Ni23  1  0.65936860  0.32582075  0.32668607  1
  Cr  Cr24  1  0.65794389  0.66078356  0.99218828  1
  Cr  Cr25  1  0.82725753  0.82656104  0.15719257  1
  Cr  Cr26  1  0.65942596  0.65789707  0.32506125  1
  Cr  Cr27  1  0.16003911  0.15726705  0.49161621  1
  Cr  Cr28  1  -0.00764621  -0.00735684  0.65991007  1
  Fe  Fe29  1  0.15849048  0.15856093  0.82586268  1
  Cr  Cr30  1  0.15746848  0.49448996  0.49320141  1
  Cr  Cr31  1  0.99217663  0.32682305  0.65856921  1
  Cr  Cr32  1  0.15917503  0.49310577  0.82513891  1
  Cr  Cr33  1  0.15814799  0.82481898  0.49137436  1
  Ni  Ni34  1  0.99075506  0.65734789  0.65815509  1
  Cr  Cr35  1  0.15769886  0.82562804  0.82502524  1
  Cr  Cr36  1  0.49353127  0.16020289  0.49041163  1
  Cr  Cr37  1  0.32642619  -0.00732597  0.65943927  1
  Cr  Cr38  1  0.49256333  0.15963010  0.82414390  1
  Cr  Cr39  1  0.49422118  0.48966712  0.49195498  1
  Cr  Cr40  1  0.32434994  0.32454031  0.66052089  1
  Cr  Cr41  1  0.49211911  0.49151604  0.82565212  1
  Cr  Cr42  1  0.49060200  0.82670332  0.49161562  1
  Cr  Cr43  1  0.32564514  0.65935926  0.65994644  1
  Fe  Fe44  1  0.49223494  0.82550899  0.82553003  1
  Cr  Cr45  1  0.82300047  0.16088758  0.49195553  1
  Cr  Cr46  1  0.65779387  0.99134967  0.65978068  1
  Cr  Cr47  1  0.82547933  0.15814753  0.82628547  1
  Fe  Fe48  1  0.82518181  0.49185341  0.49254235  1
  Fe  Fe49  1  0.65961472  0.32627079  0.65810397  1
  Cr  Cr50  1  0.82527980  0.49235327  0.82338252  1
  Cr  Cr51  1  0.82782485  0.82413272  0.49320062  1
  Cr  Cr52  1  0.66007437  0.65918636  0.65931882  1
  Cr  Cr53  1  0.82706558  0.82607124  0.82618620  1
" 