7228,Ni6Fe20Cr73_19,-210.022168576966, 192.069594647204,Ni6Fe20Cr73,"# generated using pymatgen
 data_Cr40Fe11Ni3
_symmetry_space_group_name_H-M   'P 1'
_cell_length_a   7.57209767
_cell_length_b   7.57209767
_cell_length_c   10.70856322
_cell_angle_alpha   90.00000000
_cell_angle_beta   90.00000000
_cell_angle_gamma   90.00000000
_symmetry_Int_Tables_number   1
_chemical_formula_structural   Cr40Fe11Ni3
_chemical_formula_sum   'Cr40 Fe11 Ni3'
_cell_volume   613.99328250
_cell_formula_units_Z   1
loop_
 _symmetry_equiv_pos_site_id
 _symmetry_equiv_pos_as_xyz
  1  'x, y, z'
loop_
 _atom_site_type_symbol
 _atom_site_label
 _atom_site_symmetry_multiplicity
 _atom_site_fract_x
 _atom_site_fract_y
 _atom_site_fract_z
 _atom_site_occupancy
  Cr  Cr0  1  -0.00547136  0.99098591  0.99284548  1
  Cr  Cr1  1  0.15944584  0.16099576  0.16184062  1
  Fe  Fe2  1  0.99157845  -0.00612159  0.32602387  1
  Cr  Cr3  1  0.99231601  0.32731783  0.99206740  1
  Cr  Cr4  1  0.16149477  0.49187579  0.15986445  1
  Ni  Ni5  1  -0.00645859  0.32500411  0.32675788  1
  Cr  Cr6  1  -0.00610007  0.66088499  -0.00693483  1
  Cr  Cr7  1  0.15924896  0.82632238  0.15838214  1
  Cr  Cr8  1  0.99084436  0.66020774  0.32618002  1
  Cr  Cr9  1  0.32638445  0.99207742  0.99144334  1
  Fe  Fe10  1  0.49297969  0.16042614  0.16039136  1
  Cr  Cr11  1  0.32638095  -0.00470005  0.32640770  1
  Cr  Cr12  1  0.32851457  0.32612699  -0.00358311  1
  Fe  Fe13  1  0.49314632  0.49317948  0.16054751  1
  Fe  Fe14  1  0.32587987  0.32693134  0.32563276  1
  Fe  Fe15  1  0.32672975  0.66008508  0.99276560  1
  Cr  Cr16  1  0.49523698  0.82521359  0.15981194  1
  Cr  Cr17  1  0.32746078  0.65886091  0.32641056  1
  Cr  Cr18  1  0.65827449  -0.00633765  0.99291817  1
  Cr  Cr19  1  0.82664167  0.15791464  0.16035406  1
  Fe  Fe20  1  0.66086901  0.99178846  0.32569155  1
  Cr  Cr21  1  0.65836083  0.32676551  -0.00642855  1
  Cr  Cr22  1  0.82554068  0.49400804  0.15982638  1
  Cr  Cr23  1  0.65833803  0.32730841  0.32483394  1
  Cr  Cr24  1  0.65946429  0.65876071  -0.00594729  1
  Fe  Fe25  1  0.82565916  0.82626157  0.16122413  1
  Ni  Ni26  1  0.65997655  0.66065261  0.32517273  1
  Cr  Cr27  1  0.15830270  0.16240971  0.49211383  1
  Cr  Cr28  1  -0.00489803  -0.00659139  0.66015725  1
  Cr  Cr29  1  0.15864555  0.16027950  0.82524251  1
  Cr  Cr30  1  0.16035127  0.49046224  0.49409212  1
  Ni  Ni31  1  -0.00522704  0.32706929  0.65974637  1
  Cr  Cr32  1  0.16070133  0.49376788  0.82524386  1
  Cr  Cr33  1  0.16023742  0.82631858  0.49342562  1
  Cr  Cr34  1  -0.00552387  0.65846155  0.65993627  1
  Fe  Fe35  1  0.16115556  0.82568773  0.82642062  1
  Cr  Cr36  1  0.49250764  0.15945824  0.49248300  1
  Cr  Cr37  1  0.32635536  0.99186187  0.66133634  1
  Cr  Cr38  1  0.49327641  0.15842722  0.82631583  1
  Cr  Cr39  1  0.49157086  0.49453073  0.49301796  1
  Fe  Fe40  1  0.32477280  0.32708216  0.65979905  1
  Cr  Cr41  1  0.49122531  0.49562473  0.82631584  1
  Cr  Cr42  1  0.49464520  0.82520304  0.49379038  1
  Fe  Fe43  1  0.32595706  0.65931639  0.66037518  1
  Fe  Fe44  1  0.49166227  0.82568424  0.82641194  1
  Cr  Cr45  1  0.82837555  0.15933863  0.49329823  1
  Cr  Cr46  1  0.65773062  -0.00657047  0.66016256  1
  Cr  Cr47  1  0.82726937  0.16026749  0.82553350  1
  Cr  Cr48  1  0.82726235  0.49259273  0.49382492  1
  Cr  Cr49  1  0.66045133  0.32676765  0.66078919  1
  Cr  Cr50  1  0.82726400  0.49171827  0.82553320  1
  Cr  Cr51  1  0.82430302  0.82726024  0.48886003  1
  Cr  Cr52  1  0.65890825  0.65899298  0.65902214  1
  Cr  Cr53  1  0.82540187  0.82720325  0.82767303  1
" 