1698,Ni6Fe9Cr83_8,-205.647113846004, 197.87098818,Ni6Fe9Cr83,"# generated using pymatgen
 data_Cr46Fe5Ni3
_symmetry_space_group_name_H-M   'P 1'
_cell_length_a   7.58601139
_cell_length_b   7.58601139
_cell_length_c   10.72824019
_cell_angle_alpha   90.00000000
_cell_angle_beta   90.00000000
_cell_angle_gamma   90.00000000
_symmetry_Int_Tables_number   1
_chemical_formula_structural   Cr46Fe5Ni3
_chemical_formula_sum   'Cr46 Fe5 Ni3'
_cell_volume   617.38413962
_cell_formula_units_Z   1
loop_
 _symmetry_equiv_pos_site_id
 _symmetry_equiv_pos_as_xyz
  1  'x, y, z'
loop_
 _atom_site_type_symbol
 _atom_site_label
 _atom_site_symmetry_multiplicity
 _atom_site_fract_x
 _atom_site_fract_y
 _atom_site_fract_z
 _atom_site_occupancy
  Cr  Cr0  1  0.98987862  -0.00777293  0.99111165  1
  Cr  Cr1  1  0.15929596  0.15745266  0.16052308  1
  Cr  Cr2  1  -0.00763495  -0.00713831  0.32471825  1
  Cr  Cr3  1  0.99171343  0.32432647  0.99205967  1
  Cr  Cr4  1  0.15820377  0.49217746  0.15788781  1
  Cr  Cr5  1  -0.00699561  0.32459232  0.32650547  1
  Cr  Cr6  1  0.99189163  0.65992083  0.99114876  1
  Cr  Cr7  1  0.16102109  0.82684638  0.15914978  1
  Cr  Cr8  1  -0.00776621  0.65902292  0.32609608  1
  Cr  Cr9  1  0.32692145  -0.00777624  -0.00650841  1
  Cr  Cr10  1  0.49196922  0.15740598  0.15869986  1
  Fe  Fe11  1  0.32636564  0.99129112  0.32457216  1
  Cr  Cr12  1  0.32663731  0.32587720  0.99133406  1
  Cr  Cr13  1  0.49382770  0.49299355  0.15757749  1
  Cr  Cr14  1  0.32495254  0.32505431  0.32609540  1
  Cr  Cr15  1  0.32645647  0.65837388  -0.00647015  1
  Ni  Ni16  1  0.49133141  0.82623666  0.15973524  1
  Cr  Cr17  1  0.32690937  0.65974347  0.32413063  1
  Cr  Cr18  1  0.65967830  -0.00758861  0.99082248  1
  Cr  Cr19  1  0.82521204  0.16021876  0.15821473  1
  Cr  Cr20  1  0.65779884  0.99090568  0.32471136  1
  Fe  Fe21  1  0.65881682  0.32481493  0.99149405  1
  Cr  Cr22  1  0.82444595  0.49127153  0.15861435  1
  Cr  Cr23  1  0.65851990  0.32518656  0.32552488  1
  Cr  Cr24  1  0.65812845  0.66021010  -0.00662402  1
  Cr  Cr25  1  0.82439715  0.82498713  0.15885337  1
  Cr  Cr26  1  0.65733470  0.66038435  0.32507233  1
  Cr  Cr27  1  0.16014337  0.15737776  0.49094203  1
  Cr  Cr28  1  0.98935780  0.99190358  0.66064044  1
  Cr  Cr29  1  0.15968331  0.15781512  0.82501382  1
  Cr  Cr30  1  0.15798170  0.49195531  0.49285645  1
  Cr  Cr31  1  -0.00708777  0.32456053  0.65790856  1
  Cr  Cr32  1  0.15859303  0.49225037  0.82573268  1
  Cr  Cr33  1  0.16014293  0.82714338  0.49248779  1
  Cr  Cr34  1  0.99201522  0.66001082  0.65923287  1
  Cr  Cr35  1  0.15795356  0.82641154  0.82484229  1
  Cr  Cr36  1  0.49148537  0.15680366  0.49346984  1
  Fe  Fe37  1  0.32755872  -0.00747595  0.65919567  1
  Fe  Fe38  1  0.49414431  0.15751397  0.82461514  1
  Cr  Cr39  1  0.49323632  0.49211902  0.49232352  1
  Cr  Cr40  1  0.32575695  0.32503328  0.65904806  1
  Cr  Cr41  1  0.49324339  0.49028390  0.82657622  1
  Cr  Cr42  1  0.49165227  0.82755288  0.49249078  1
  Cr  Cr43  1  0.32546802  0.65834937  0.65881465  1
  Cr  Cr44  1  0.49337824  0.82787271  0.82363789  1
  Cr  Cr45  1  0.82484873  0.15896161  0.49226977  1
  Ni  Ni46  1  0.65864203  -0.00745597  0.66113012  1
  Fe  Fe47  1  0.82360599  0.15656319  0.82496653  1
  Cr  Cr48  1  0.82525936  0.49211824  0.49111600  1
  Cr  Cr49  1  0.65780981  0.32237737  0.65972436  1
  Cr  Cr50  1  0.82464185  0.49201010  0.82674659  1
  Cr  Cr51  1  0.82468359  0.82539644  0.49331811  1
  Cr  Cr52  1  0.65899355  0.66190138  0.65802630  1
  Ni  Ni53  1  0.82408355  0.82821445  0.82440937  1
" 