6659,Ni6Fe17Cr75_6,-208.539566076843, 197.640340013323,Ni6Fe17Cr75,"# generated using pymatgen
 data_Cr14Fe3Ni
_symmetry_space_group_name_H-M   'P 1'
_cell_length_a   7.56895800
_cell_length_b   7.56895800
_cell_length_c   10.70412306
_cell_angle_alpha   90.00000000
_cell_angle_beta   90.00000000
_cell_angle_gamma   90.00000000
_symmetry_Int_Tables_number   1
_chemical_formula_structural   Cr14Fe3Ni
_chemical_formula_sum   'Cr42 Fe9 Ni3'
_cell_volume   613.22984576
_cell_formula_units_Z   3
loop_
 _symmetry_equiv_pos_site_id
 _symmetry_equiv_pos_as_xyz
  1  'x, y, z'
loop_
 _atom_site_type_symbol
 _atom_site_label
 _atom_site_symmetry_multiplicity
 _atom_site_fract_x
 _atom_site_fract_y
 _atom_site_fract_z
 _atom_site_occupancy
  Cr  Cr0  1  0.99314828  -0.00329165  0.99319365  1
  Fe  Fe1  1  0.15883107  0.15942167  0.16117866  1
  Ni  Ni2  1  -0.00404752  -0.00285109  0.32777966  1
  Cr  Cr3  1  0.99291006  0.32526182  0.99212270  1
  Cr  Cr4  1  0.16006340  0.49183562  0.15840824  1
  Cr  Cr5  1  -0.00504005  0.32346670  0.32887110  1
  Fe  Fe6  1  0.99304080  0.66048622  -0.00651954  1
  Cr  Cr7  1  0.15693915  0.82759254  0.15908802  1
  Cr  Cr8  1  0.99303668  0.65882272  0.32830990  1
  Cr  Cr9  1  0.32757908  0.99317085  0.99242125  1
  Cr  Cr10  1  0.49185380  0.16082977  0.16044006  1
  Cr  Cr11  1  0.32477197  -0.00639521  0.32564666  1
  Cr  Cr12  1  0.32564987  0.32514786  -0.00540015  1
  Cr  Cr13  1  0.49272247  0.48936241  0.16217448  1
  Fe  Fe14  1  0.32511848  0.32440915  0.32698045  1
  Cr  Cr15  1  0.32757197  0.66083756  -0.00646860  1
  Fe  Fe16  1  0.49241572  0.82701933  0.16016376  1
  Cr  Cr17  1  0.32794419  0.66021599  0.32602732  1
  Cr  Cr18  1  0.65874894  -0.00615555  0.99266223  1
  Cr  Cr19  1  0.82637552  0.15882851  0.16030381  1
  Cr  Cr20  1  0.66062929  0.99258181  0.32427470  1
  Cr  Cr21  1  0.66065327  0.32470595  0.98970053  1
  Cr  Cr22  1  0.82718315  0.49326921  0.15878466  1
  Cr  Cr23  1  0.66269392  0.32682674  0.32894255  1
  Cr  Cr24  1  0.65768444  0.66105217  -0.00389323  1
  Cr  Cr25  1  0.82869989  0.82779830  0.16015963  1
  Cr  Cr26  1  0.65838063  0.66036569  0.32685862  1
  Fe  Fe27  1  0.16040440  0.15921618  0.49291963  1
  Cr  Cr28  1  -0.00667033  -0.00348281  0.65855084  1
  Cr  Cr29  1  0.16290062  0.15931953  0.82588267  1
  Cr  Cr30  1  0.16065517  0.49221024  0.49310194  1
  Cr  Cr31  1  0.99043760  0.32503351  0.65865861  1
  Cr  Cr32  1  0.15878454  0.49463031  0.82925410  1
  Cr  Cr33  1  0.15870342  0.82908643  0.49607822  1
  Cr  Cr34  1  0.99306118  0.65833087  0.65960309  1
  Cr  Cr35  1  0.15802060  0.82700679  0.82456153  1
  Cr  Cr36  1  0.49322813  0.16111185  0.49485791  1
  Fe  Fe37  1  0.32783751  -0.00360387  0.66040153  1
  Ni  Ni38  1  0.49513403  0.16037456  0.82423283  1
  Cr  Cr39  1  0.49379939  0.48947062  0.49333152  1
  Cr  Cr40  1  0.32513204  0.32610311  0.66056814  1
  Cr  Cr41  1  0.49397448  0.48904318  0.82481779  1
  Cr  Cr42  1  0.49291951  0.82962368  0.49392190  1
  Cr  Cr43  1  0.32721194  0.66158151  0.66025244  1
  Cr  Cr44  1  0.49316635  0.82956133  0.82437056  1
  Fe  Fe45  1  0.82605768  0.15977707  0.49280844  1
  Cr  Cr46  1  0.66101155  -0.00523124  0.66218469  1
  Fe  Fe47  1  0.82535914  0.16056488  0.82551098  1
  Fe  Fe48  1  0.82576390  0.49125755  0.49439117  1
  Ni  Ni49  1  0.66088550  0.32250794  0.66039033  1
  Cr  Cr50  1  0.82608372  0.49372562  0.82693817  1
  Cr  Cr51  1  0.82866320  0.82921658  0.49082088  1
  Cr  Cr52  1  0.65980768  0.65854008  0.65684324  1
  Cr  Cr53  1  0.82857365  0.82687447  0.82900083  1
" 