2709,Ni6Fe10Cr82_15,-205.636638447149, 198.108254959499,Ni6Fe10Cr82,"# generated using pymatgen
 data_Cr46Fe5Ni3
_symmetry_space_group_name_H-M   'P 1'
_cell_length_a   7.58273323
_cell_length_b   7.58273323
_cell_length_c   10.72360418
_cell_angle_alpha   90.00000000
_cell_angle_beta   90.00000000
_cell_angle_gamma   90.00000000
_symmetry_Int_Tables_number   1
_chemical_formula_structural   Cr46Fe5Ni3
_chemical_formula_sum   'Cr46 Fe5 Ni3'
_cell_volume   616.58411201
_cell_formula_units_Z   1
loop_
 _symmetry_equiv_pos_site_id
 _symmetry_equiv_pos_as_xyz
  1  'x, y, z'
loop_
 _atom_site_type_symbol
 _atom_site_label
 _atom_site_symmetry_multiplicity
 _atom_site_fract_x
 _atom_site_fract_y
 _atom_site_fract_z
 _atom_site_occupancy
  Cr  Cr0  1  -0.00666956  0.99216030  -0.00746740  1
  Cr  Cr1  1  0.16012252  0.15865400  0.15808716  1
  Cr  Cr2  1  -0.00493756  0.99072016  0.32534989  1
  Cr  Cr3  1  -0.00506758  0.32545440  0.99224827  1
  Fe  Fe4  1  0.15973411  0.49411262  0.15899797  1
  Cr  Cr5  1  -0.00740239  0.32628479  0.32582735  1
  Cr  Cr6  1  -0.00606238  0.65950109  -0.00622273  1
  Ni  Ni7  1  0.16061505  0.82465696  0.16104193  1
  Cr  Cr8  1  -0.00390475  0.66011146  0.32503646  1
  Cr  Cr9  1  0.32462034  -0.00673645  0.99139875  1
  Cr  Cr10  1  0.49110982  0.15888420  0.15945651  1
  Ni  Ni11  1  0.32389683  0.98922074  0.32660364  1
  Fe  Fe12  1  0.32500366  0.32571101  0.99234319  1
  Cr  Cr13  1  0.49013469  0.49230423  0.15855401  1
  Cr  Cr14  1  0.32576226  0.32622580  0.32428080  1
  Cr  Cr15  1  0.32462360  0.65778648  -0.00528996  1
  Cr  Cr16  1  0.48979186  0.82592883  0.16026207  1
  Fe  Fe17  1  0.32356996  0.66223536  0.32534849  1
  Cr  Cr18  1  0.65916464  0.99227101  -0.00712864  1
  Cr  Cr19  1  0.82588292  0.15899774  0.15979514  1
  Cr  Cr20  1  0.65760312  -0.00686652  0.32490959  1
  Cr  Cr21  1  0.65745191  0.32545756  -0.00737988  1
  Cr  Cr22  1  0.82697495  0.49231116  0.15893095  1
  Cr  Cr23  1  0.65875425  0.32519098  0.32693282  1
  Cr  Cr24  1  0.65855295  0.65938671  0.99101945  1
  Cr  Cr25  1  0.82721057  0.82580660  0.15750859  1
  Cr  Cr26  1  0.65766780  0.65879051  0.32614210  1
  Cr  Cr27  1  0.16012573  0.15625748  0.49375675  1
  Cr  Cr28  1  -0.00513430  0.99219808  0.65923168  1
  Fe  Fe29  1  0.15975522  0.15906732  0.82571530  1
  Cr  Cr30  1  0.15890734  0.49430251  0.49124698  1
  Cr  Cr31  1  -0.00683689  0.32482252  0.65904155  1
  Cr  Cr32  1  0.15927851  0.49033843  0.82713754  1
  Ni  Ni33  1  0.16140672  0.82665633  0.49125238  1
  Cr  Cr34  1  -0.00672677  0.66009329  0.65829992  1
  Cr  Cr35  1  0.15928310  0.82744437  0.82415995  1
  Cr  Cr36  1  0.49107022  0.15758383  0.49159671  1
  Fe  Fe37  1  0.32445710  0.99183978  0.65804782  1
  Cr  Cr38  1  0.48954609  0.15889850  0.82606100  1
  Cr  Cr39  1  0.49228989  0.49297332  0.49218260  1
  Cr  Cr40  1  0.32539649  0.32432877  0.66120151  1
  Cr  Cr41  1  0.49175634  0.49187668  0.82638135  1
  Cr  Cr42  1  0.48865721  0.82656133  0.49190049  1
  Cr  Cr43  1  0.32528751  0.66058597  0.65736583  1
  Cr  Cr44  1  0.49218245  0.82633966  0.82494976  1
  Cr  Cr45  1  0.82592079  0.15989019  0.49125884  1
  Cr  Cr46  1  0.65806139  0.99230826  0.65933366  1
  Cr  Cr47  1  0.82718393  0.15890352  0.82606096  1
  Cr  Cr48  1  0.82591944  0.49188414  0.49335576  1
  Cr  Cr49  1  0.65855434  0.32592262  0.65756230  1
  Cr  Cr50  1  0.82608129  0.49297575  0.82482861  1
  Cr  Cr51  1  0.82724753  0.82534140  0.49310341  1
  Cr  Cr52  1  0.65855223  0.65888395  0.65995360  1
  Cr  Cr53  1  0.82564920  0.82523601  0.82650299  1
" 