5951,Ni6Fe10Cr82_0,-205.462366289303, 195.493507074449,Ni6Fe10Cr82,"# generated using pymatgen
 data_Cr46Fe5Ni3
_symmetry_space_group_name_H-M   'P 1'
_cell_length_a   7.58600489
_cell_length_b   7.58600489
_cell_length_c   10.72823101
_cell_angle_alpha   90.00000000
_cell_angle_beta   90.00000000
_cell_angle_gamma   90.00000000
_symmetry_Int_Tables_number   1
_chemical_formula_structural   Cr46Fe5Ni3
_chemical_formula_sum   'Cr46 Fe5 Ni3'
_cell_volume   617.38255465
_cell_formula_units_Z   1
loop_
 _symmetry_equiv_pos_site_id
 _symmetry_equiv_pos_as_xyz
  1  'x, y, z'
loop_
 _atom_site_type_symbol
 _atom_site_label
 _atom_site_symmetry_multiplicity
 _atom_site_fract_x
 _atom_site_fract_y
 _atom_site_fract_z
 _atom_site_occupancy
  Cr  Cr0  1  -0.00605383  -0.00552314  -0.00729867  1
  Fe  Fe1  1  0.15852630  0.16108434  0.15838082  1
  Cr  Cr2  1  -0.00688647  -0.00697904  0.32459941  1
  Fe  Fe3  1  -0.00709765  0.32471949  -0.00407125  1
  Ni  Ni4  1  0.15542336  0.48981720  0.15771121  1
  Cr  Cr5  1  0.99196398  0.32536733  0.32220090  1
  Cr  Cr6  1  -0.00745690  0.65740162  -0.00519832  1
  Fe  Fe7  1  0.15851974  0.82555484  0.15851260  1
  Cr  Cr8  1  -0.00721412  0.65800516  0.32379611  1
  Cr  Cr9  1  0.32369309  -0.00536425  -0.00647517  1
  Ni  Ni10  1  0.49333597  0.15958330  0.15881932  1
  Cr  Cr11  1  0.32417885  -0.00595561  0.32256749  1
  Cr  Cr12  1  0.32369727  0.32359608  -0.00735758  1
  Cr  Cr13  1  0.48933223  0.49137309  0.15876250  1
  Cr  Cr14  1  0.32504746  0.32441697  0.32467763  1
  Cr  Cr15  1  0.32345596  0.65843370  -0.00682950  1
  Cr  Cr16  1  0.49163978  0.82672975  0.15800928  1
  Cr  Cr17  1  0.32319896  0.65827569  0.32394523  1
  Cr  Cr18  1  0.65903728  -0.00555812  -0.00687270  1
  Ni  Ni19  1  0.82765145  0.16079731  0.15769909  1
  Cr  Cr20  1  0.65925346  -0.00535685  0.32403772  1
  Cr  Cr21  1  0.65997843  0.32474119  -0.00518038  1
  Fe  Fe22  1  0.82656831  0.48932443  0.15815695  1
  Cr  Cr23  1  0.65942194  0.32456895  0.32381654  1
  Cr  Cr24  1  0.66032492  0.65717024  0.99137753  1
  Cr  Cr25  1  0.82614504  0.82737172  0.15876870  1
  Cr  Cr26  1  0.66038086  0.65709656  0.32572110  1
  Cr  Cr27  1  0.15802353  0.15971764  0.49320877  1
  Cr  Cr28  1  -0.00641470  -0.00752585  0.65924134  1
  Fe  Fe29  1  0.15829114  0.15936965  0.82648335  1
  Cr  Cr30  1  0.15889253  0.49097164  0.49211850  1
  Cr  Cr31  1  -0.00737586  0.32486412  0.66040042  1
  Cr  Cr32  1  0.15803472  0.48976883  0.82586803  1
  Cr  Cr33  1  0.15888873  0.82578249  0.49048077  1
  Cr  Cr34  1  0.99183712  0.65896928  0.65781907  1
  Cr  Cr35  1  0.15832574  0.82539466  0.82618760  1
  Cr  Cr36  1  0.49181161  0.15869914  0.49084668  1
  Cr  Cr37  1  0.32422157  -0.00679032  0.66020812  1
  Cr  Cr38  1  0.49216387  0.15926941  0.82581871  1
  Cr  Cr39  1  0.49066600  0.49165692  0.49235495  1
  Cr  Cr40  1  0.32521631  0.32416319  0.65925727  1
  Cr  Cr41  1  0.49095167  0.49142658  0.82534933  1
  Cr  Cr42  1  0.49167182  0.82612593  0.49149018  1
  Cr  Cr43  1  0.32503297  0.65904741  0.65886800  1
  Cr  Cr44  1  0.49193415  0.82586655  0.82702988  1
  Cr  Cr45  1  0.82657899  0.15869824  0.49187436  1
  Cr  Cr46  1  0.65871544  -0.00732516  0.65886838  1
  Cr  Cr47  1  0.82780636  0.15957634  0.82609519  1
  Cr  Cr48  1  0.82705527  0.49073998  0.49124275  1
  Cr  Cr49  1  0.65879164  0.32592760  0.65781316  1
  Cr  Cr50  1  0.82771848  0.49008935  0.82802374  1
  Cr  Cr51  1  0.82591527  0.82692299  0.49258772  1
  Cr  Cr52  1  0.65961615  0.65787034  0.65965309  1
  Cr  Cr53  1  0.82617273  0.82664006  0.82514299  1
" 