6099,Ni6Fe20Cr72_18,-210.10059335619, 195.559763803887,Ni6Fe20Cr72,"# generated using pymatgen
 data_Cr40Fe11Ni3
_symmetry_space_group_name_H-M   'P 1'
_cell_length_a   7.57004809
_cell_length_b   7.57004809
_cell_length_c   10.70566467
_cell_angle_alpha   90.00000000
_cell_angle_beta   90.00000000
_cell_angle_gamma   90.00000000
_symmetry_Int_Tables_number   1
_chemical_formula_structural   Cr40Fe11Ni3
_chemical_formula_sum   'Cr40 Fe11 Ni3'
_cell_volume   613.49483748
_cell_formula_units_Z   1
loop_
 _symmetry_equiv_pos_site_id
 _symmetry_equiv_pos_as_xyz
  1  'x, y, z'
loop_
 _atom_site_type_symbol
 _atom_site_label
 _atom_site_symmetry_multiplicity
 _atom_site_fract_x
 _atom_site_fract_y
 _atom_site_fract_z
 _atom_site_occupancy
  Fe  Fe0  1  0.99191252  -0.00586123  -0.00671094  1
  Cr  Cr1  1  0.15714404  0.15917666  0.15802018  1
  Cr  Cr2  1  0.98925364  0.99257224  0.32776277  1
  Fe  Fe3  1  -0.00675203  0.32685913  0.99264236  1
  Fe  Fe4  1  0.16170365  0.49302505  0.16011105  1
  Cr  Cr5  1  -0.00648635  0.32553171  0.32651577  1
  Cr  Cr6  1  0.99250331  0.66052321  -0.00623105  1
  Cr  Cr7  1  0.15984005  0.82545354  0.16150789  1
  Cr  Cr8  1  0.99114740  0.66130123  0.32614577  1
  Cr  Cr9  1  0.32434932  -0.00513121  0.98967244  1
  Cr  Cr10  1  0.49638423  0.16039710  0.15945093  1
  Cr  Cr11  1  0.32637285  -0.00584244  0.32777968  1
  Cr  Cr12  1  0.32588944  0.32709679  0.99281585  1
  Ni  Ni13  1  0.49323770  0.49369810  0.15972068  1
  Cr  Cr14  1  0.32672979  0.32851884  0.32436548  1
  Cr  Cr15  1  0.32691481  0.65751676  -0.00434323  1
  Cr  Cr16  1  0.49229365  0.82650083  0.16039927  1
  Fe  Fe17  1  0.32712013  0.65804997  0.32453782  1
  Fe  Fe18  1  0.66073184  -0.00593631  -0.00628252  1
  Cr  Cr19  1  0.82581947  0.15988188  0.15671531  1
  Fe  Fe20  1  0.66232175  -0.00661855  0.32748894  1
  Ni  Ni21  1  0.66030502  0.32629820  -0.00554945  1
  Cr  Cr22  1  0.82632871  0.49023165  0.15716492  1
  Cr  Cr23  1  0.65971832  0.32687982  0.32820768  1
  Cr  Cr24  1  0.66029183  0.65949056  -0.00573607  1
  Fe  Fe25  1  0.82527102  0.82777632  0.15905487  1
  Cr  Cr26  1  0.66050870  0.66162081  0.32499530  1
  Cr  Cr27  1  0.15839828  0.15911990  0.49323377  1
  Cr  Cr28  1  0.99218854  0.99314003  0.65820028  1
  Fe  Fe29  1  0.15775717  0.16109395  0.82775622  1
  Cr  Cr30  1  0.15882708  0.49627654  0.49250155  1
  Cr  Cr31  1  -0.00549731  0.32535012  0.66017007  1
  Fe  Fe32  1  0.15867824  0.49245727  0.82698664  1
  Cr  Cr33  1  0.16027258  0.82427016  0.49360463  1
  Fe  Fe34  1  -0.00663782  0.66003450  0.66017269  1
  Cr  Cr35  1  0.15925675  0.82606698  0.82493632  1
  Cr  Cr36  1  0.49585605  0.15882466  0.49235060  1
  Cr  Cr37  1  0.32520059  -0.00430274  0.66206493  1
  Cr  Cr38  1  0.49537765  0.15985941  0.82760766  1
  Cr  Cr39  1  0.49280037  0.49437414  0.49243619  1
  Cr  Cr40  1  0.32500012  0.32525972  0.66189573  1
  Cr  Cr41  1  0.49537834  0.49228588  0.82644713  1
  Cr  Cr42  1  0.49129082  0.82653674  0.49247855  1
  Cr  Cr43  1  0.32634369  0.65866194  0.66176482  1
  Cr  Cr44  1  0.49221635  0.82752382  0.82679495  1
  Ni  Ni45  1  0.82617935  0.15757843  0.49197497  1
  Cr  Cr46  1  0.66207365  0.99222244  0.65671362  1
  Cr  Cr47  1  0.82683491  0.16221756  0.83130696  1
  Cr  Cr48  1  0.82814839  0.49185050  0.49674993  1
  Cr  Cr49  1  0.66017178  0.32605693  0.65773307  1
  Cr  Cr50  1  0.82841613  0.49097220  0.82577911  1
  Fe  Fe51  1  0.82634878  0.82799421  0.49288444  1
  Cr  Cr52  1  0.66279527  0.66128279  0.66013596  1
  Cr  Cr53  1  0.82809888  0.82661070  0.82772695  1
" 