3651,Ni6Fe20Cr73_12,-209.905944655863, 193.756369755558,Ni6Fe20Cr73,"# generated using pymatgen
 data_Cr40Fe11Ni3
_symmetry_space_group_name_H-M   'P 1'
_cell_length_a   7.56197850
_cell_length_b   7.56197850
_cell_length_c   10.69425256
_cell_angle_alpha   90.00000000
_cell_angle_beta   90.00000000
_cell_angle_gamma   90.00000000
_symmetry_Int_Tables_number   1
_chemical_formula_structural   Cr40Fe11Ni3
_chemical_formula_sum   'Cr40 Fe11 Ni3'
_cell_volume   611.53499266
_cell_formula_units_Z   1
loop_
 _symmetry_equiv_pos_site_id
 _symmetry_equiv_pos_as_xyz
  1  'x, y, z'
loop_
 _atom_site_type_symbol
 _atom_site_label
 _atom_site_symmetry_multiplicity
 _atom_site_fract_x
 _atom_site_fract_y
 _atom_site_fract_z
 _atom_site_occupancy
  Cr  Cr0  1  0.99168012  0.99326667  0.99358060  1
  Cr  Cr1  1  0.15995666  0.16029814  0.15957458  1
  Cr  Cr2  1  0.98945051  -0.00619830  0.32805277  1
  Cr  Cr3  1  0.99318907  0.32835645  -0.00582173  1
  Fe  Fe4  1  0.16029176  0.49387296  0.16048069  1
  Cr  Cr5  1  0.99338704  0.32666447  0.32645687  1
  Cr  Cr6  1  0.99000834  0.65957674  0.99281608  1
  Cr  Cr7  1  0.16102685  0.82631233  0.16030443  1
  Cr  Cr8  1  0.99196800  0.66064972  0.32625611  1
  Cr  Cr9  1  0.32786025  -0.00465548  0.99359748  1
  Cr  Cr10  1  0.49591689  0.16053196  0.15963253  1
  Cr  Cr11  1  0.32857287  -0.00507550  0.32582886  1
  Cr  Cr12  1  0.32782015  0.32743752  -0.00422385  1
  Cr  Cr13  1  0.49719781  0.49437761  0.16087030  1
  Cr  Cr14  1  0.32855305  0.32883991  0.32612666  1
  Cr  Cr15  1  0.32863483  0.65837736  -0.00550721  1
  Cr  Cr16  1  0.49478030  0.82630920  0.16054749  1
  Cr  Cr17  1  0.32872843  0.65734590  0.32775072  1
  Cr  Cr18  1  0.66160740  0.99224814  0.99277507  1
  Cr  Cr19  1  0.82527487  0.16258785  0.16217921  1
  Fe  Fe20  1  0.66125683  -0.00623023  0.32855274  1
  Fe  Fe21  1  0.66153986  0.32999262  0.99269396  1
  Cr  Cr22  1  0.82547671  0.49337781  0.15866598  1
  Fe  Fe23  1  0.66044847  0.32714632  0.32805568  1
  Ni  Ni24  1  0.66253160  0.65860576  0.99243399  1
  Cr  Cr25  1  0.82523368  0.82525751  0.16127307  1
  Fe  Fe26  1  0.66058053  0.66018669  0.32756175  1
  Cr  Cr27  1  0.15825571  0.16041151  0.49587858  1
  Cr  Cr28  1  0.98886606  -0.00609234  0.65971252  1
  Cr  Cr29  1  0.15956917  0.15995539  0.82577241  1
  Cr  Cr30  1  0.15904191  0.49382206  0.49467238  1
  Fe  Fe31  1  0.99044580  0.32730088  0.66091932  1
  Cr  Cr32  1  0.15671066  0.49376724  0.82591058  1
  Cr  Cr33  1  0.16038406  0.82697045  0.49419226  1
  Cr  Cr34  1  0.99064688  0.66011225  0.66209772  1
  Cr  Cr35  1  0.16059379  0.82740411  0.82668945  1
  Cr  Cr36  1  0.49772771  0.16038215  0.49418432  1
  Cr  Cr37  1  0.32926042  -0.00508945  0.66175877  1
  Cr  Cr38  1  0.49587776  0.15993557  0.82726061  1
  Fe  Fe39  1  0.49518236  0.49317999  0.49321789  1
  Cr  Cr40  1  0.32830769  0.32824342  0.65926030  1
  Cr  Cr41  1  0.49872264  0.49381705  0.82716430  1
  Cr  Cr42  1  0.49566892  0.82695955  0.49252001  1
  Cr  Cr43  1  0.32854185  0.65797430  0.65892323  1
  Cr  Cr44  1  0.49493283  0.82738800  0.82799316  1
  Fe  Fe45  1  0.82520395  0.15942853  0.49465945  1
  Ni  Ni46  1  0.66381539  -0.00487740  0.65854106  1
  Cr  Cr47  1  0.82569215  0.16397579  0.82516849  1
  Cr  Cr48  1  0.82509260  0.49160503  0.49389806  1
  Fe  Fe49  1  0.66242263  0.32617199  0.66040584  1
  Ni  Ni50  1  0.82515977  0.49364861  0.82778151  1
  Fe  Fe51  1  0.82514199  0.82877375  0.49368598  1
  Cr  Cr52  1  0.66193710  0.66117520  0.66117588  1
  Fe  Fe53  1  0.82487515  0.82524602  0.82709089  1
" 