8787,Ni6Fe20Cr73_2,-209.923808541829, 193.205157562223,Ni6Fe20Cr73,"# generated using pymatgen
 data_Cr40Fe11Ni3
_symmetry_space_group_name_H-M   'P 1'
_cell_length_a   7.56602887
_cell_length_b   7.56602887
_cell_length_c   10.69998064
_cell_angle_alpha   90.00000000
_cell_angle_beta   90.00000000
_cell_angle_gamma   90.00000000
_symmetry_Int_Tables_number   1
_chemical_formula_structural   Cr40Fe11Ni3
_chemical_formula_sum   'Cr40 Fe11 Ni3'
_cell_volume   612.51817477
_cell_formula_units_Z   1
loop_
 _symmetry_equiv_pos_site_id
 _symmetry_equiv_pos_as_xyz
  1  'x, y, z'
loop_
 _atom_site_type_symbol
 _atom_site_label
 _atom_site_symmetry_multiplicity
 _atom_site_fract_x
 _atom_site_fract_y
 _atom_site_fract_z
 _atom_site_occupancy
  Cr  Cr0  1  -0.00570592  -0.00624093  -0.00456532  1
  Cr  Cr1  1  0.16177080  0.16224601  0.16096360  1
  Cr  Cr2  1  -0.00454340  0.99216507  0.32739508  1
  Cr  Cr3  1  0.99128921  0.32575657  0.99091569  1
  Cr  Cr4  1  0.16181257  0.49121970  0.15925296  1
  Cr  Cr5  1  0.99271731  0.32673186  0.32598566  1
  Cr  Cr6  1  0.99295102  0.66101567  -0.00518670  1
  Cr  Cr7  1  0.16155241  0.82693756  0.15985268  1
  Cr  Cr8  1  -0.00470975  0.66148847  0.32688720  1
  Cr  Cr9  1  0.32711095  -0.00647839  0.98985030  1
  Cr  Cr10  1  0.49425432  0.15907749  0.16191832  1
  Cr  Cr11  1  0.32566736  0.99260645  0.32932440  1
  Cr  Cr12  1  0.32880518  0.32562247  -0.00426062  1
  Cr  Cr13  1  0.49232466  0.49232602  0.16298495  1
  Fe  Fe14  1  0.32774602  0.32619881  0.32960359  1
  Cr  Cr15  1  0.32751018  0.66174275  0.99290946  1
  Cr  Cr16  1  0.49627230  0.82872948  0.15700610  1
  Cr  Cr17  1  0.32684335  0.66073535  0.32800602  1
  Fe  Fe18  1  0.65961678  -0.00490319  0.99104592  1
  Cr  Cr19  1  0.82403052  0.15827339  0.16072052  1
  Ni  Ni20  1  0.65588016  -0.00426777  0.32755804  1
  Cr  Cr21  1  0.65996511  0.32622802  0.98875148  1
  Cr  Cr22  1  0.82594373  0.49293043  0.15928486  1
  Cr  Cr23  1  0.65713804  0.32741455  0.33148172  1
  Cr  Cr24  1  0.65949568  0.65870816  0.99269592  1
  Cr  Cr25  1  0.82252483  0.82918917  0.16301004  1
  Cr  Cr26  1  0.65858489  0.65883822  0.32777450  1
  Cr  Cr27  1  0.16150408  0.16074538  0.49350484  1
  Cr  Cr28  1  -0.00439128  0.99284043  0.65714136  1
  Cr  Cr29  1  0.16065719  0.16138051  0.82521205  1
  Cr  Cr30  1  0.16145400  0.49372053  0.49607214  1
  Fe  Fe31  1  -0.00651803  0.32558151  0.66093872  1
  Cr  Cr32  1  0.15987406  0.49296550  0.82460567  1
  Ni  Ni33  1  0.16435074  0.82563648  0.49834486  1
  Fe  Fe34  1  -0.00567579  0.66180195  0.65925878  1
  Cr  Cr35  1  0.16109597  0.82596655  0.82275235  1
  Fe  Fe36  1  0.49259841  0.15755281  0.49391280  1
  Ni  Ni37  1  0.32667517  0.99216257  0.66011500  1
  Fe  Fe38  1  0.49245514  0.15815414  0.82564143  1
  Fe  Fe39  1  0.49184481  0.49387543  0.49438373  1
  Cr  Cr40  1  0.33056758  0.32397157  0.65761865  1
  Cr  Cr41  1  0.49097170  0.49521305  0.82602858  1
  Cr  Cr42  1  0.49455089  0.82793486  0.49585331  1
  Fe  Fe43  1  0.32743740  0.66201643  0.65919245  1
  Fe  Fe44  1  0.49232383  0.82829408  0.82472823  1
  Cr  Cr45  1  0.82489751  0.15873221  0.49279344  1
  Cr  Cr46  1  0.65776931  -0.00466711  0.66179246  1
  Fe  Fe47  1  0.82739206  0.15951542  0.82532113  1
  Cr  Cr48  1  0.82842968  0.49362630  0.49682998  1
  Cr  Cr49  1  0.66103183  0.32706751  0.66115053  1
  Fe  Fe50  1  0.82854429  0.49414318  0.82455034  1
  Cr  Cr51  1  0.82592482  0.82792377  0.49019232  1
  Cr  Cr52  1  0.65979623  0.65840270  0.66014236  1
  Cr  Cr53  1  0.82436726  0.82792804  0.82753333  1
" 