648,Ni6Fe61Cr31_8,-221.31165170417, 166.606585314305,Ni6Fe61Cr31,"# generated using pymatgen
 data_Cr6Fe11Ni
_symmetry_space_group_name_H-M   'P 1'
_cell_length_a   7.49386178
_cell_length_b   7.49386178
_cell_length_c   10.59792097
_cell_angle_alpha   90.00000000
_cell_angle_beta   90.00000000
_cell_angle_gamma   90.00000000
_symmetry_Int_Tables_number   1
_chemical_formula_structural   Cr6Fe11Ni
_chemical_formula_sum   'Cr18 Fe33 Ni3'
_cell_volume   595.15766900
_cell_formula_units_Z   3
loop_
 _symmetry_equiv_pos_site_id
 _symmetry_equiv_pos_as_xyz
  1  'x, y, z'
loop_
 _atom_site_type_symbol
 _atom_site_label
 _atom_site_symmetry_multiplicity
 _atom_site_fract_x
 _atom_site_fract_y
 _atom_site_fract_z
 _atom_site_occupancy
  Cr  Cr0  1  0.99671694  0.99770725  0.99731550  1
  Cr  Cr1  1  0.16689667  0.16182142  0.16623136  1
  Fe  Fe2  1  -0.00111393  0.99777063  0.33131741  1
  Cr  Cr3  1  -0.00141362  0.33337126  0.99722871  1
  Fe  Fe4  1  0.16639175  0.50104556  0.16412251  1
  Cr  Cr5  1  0.99638127  0.33085513  0.33221940  1
  Fe  Fe6  1  0.00016525  0.66442432  0.99663194  1
  Fe  Fe7  1  0.16794670  0.82955170  0.16524116  1
  Cr  Cr8  1  0.00031683  0.66448972  0.32928928  1
  Fe  Fe9  1  0.33262330  0.99672116  -0.00177893  1
  Fe  Fe10  1  0.50004787  0.16360679  0.16389919  1
  Fe  Fe11  1  0.33233731  0.99600729  0.33139017  1
  Fe  Fe12  1  0.33195343  0.33223040  0.99793414  1
  Cr  Cr13  1  0.49856003  0.49714588  0.16473265  1
  Cr  Cr14  1  0.33211538  0.33229741  0.33153174  1
  Fe  Fe15  1  0.32911808  0.66553936  -0.00170332  1
  Fe  Fe16  1  0.49549171  0.83230922  0.16509245  1
  Ni  Ni17  1  0.33280814  0.66790352  0.32921780  1
  Fe  Fe18  1  0.66372125  -0.00033695  -0.00169935  1
  Fe  Fe19  1  0.82893530  0.16511011  0.16475358  1
  Cr  Cr20  1  0.66362890  -0.00084237  0.33202075  1
  Fe  Fe21  1  0.66516914  0.33022646  0.99690498  1
  Cr  Cr22  1  0.82986677  0.49819306  0.16612424  1
  Fe  Fe23  1  0.66456983  0.33124529  0.33291991  1
  Cr  Cr24  1  0.66346700  0.66682269  0.99463365  1
  Cr  Cr25  1  0.83308280  0.83158645  0.16426582  1
  Fe  Fe26  1  0.66294085  0.66477560  0.33262099  1
  Cr  Cr27  1  0.16607548  0.16200330  0.50152460  1
  Fe  Fe28  1  0.99790935  -0.00174226  0.66654243  1
  Fe  Fe29  1  0.16405896  0.16548325  0.83020629  1
  Cr  Cr30  1  0.16474073  0.49868124  0.49959818  1
  Fe  Fe31  1  0.99761750  0.33183615  0.66675423  1
  Fe  Fe32  1  0.16496927  0.49867822  0.83056421  1
  Cr  Cr33  1  0.16424074  0.83390329  0.49701115  1
  Fe  Fe34  1  0.99609465  0.66462374  0.66635721  1
  Fe  Fe35  1  0.16507635  0.83049764  0.83064903  1
  Ni  Ni36  1  0.49844774  0.16376290  0.49682606  1
  Fe  Fe37  1  0.33189366  0.99817531  0.66533014  1
  Cr  Cr38  1  0.49589632  0.16554850  0.83481294  1
  Cr  Cr39  1  0.50092978  0.49885518  0.49842971  1
  Fe  Fe40  1  0.33126775  0.33079271  0.66557552  1
  Fe  Fe41  1  0.49784151  0.49937838  0.83141920  1
  Fe  Fe42  1  0.49720957  0.83191182  0.49779100  1
  Fe  Fe43  1  0.33257763  0.66569171  0.66603048  1
  Fe  Fe44  1  0.49736663  0.82976172  0.83145600  1
  Fe  Fe45  1  0.83096935  0.16485143  0.49821722  1
  Cr  Cr46  1  0.66475751  0.99587822  0.66514480  1
  Fe  Fe47  1  0.83255774  0.16590553  0.83147888  1
  Fe  Fe48  1  0.83097352  0.49846074  0.49925816  1
  Cr  Cr49  1  0.66603424  0.33167213  0.66371449  1
  Ni  Ni50  1  0.83251872  0.50052841  0.83036775  1
  Fe  Fe51  1  0.83051146  0.83125447  0.49852043  1
  Fe  Fe52  1  0.66602550  0.66505693  0.66632629  1
  Fe  Fe53  1  0.83210329  0.83036089  0.83102577  1
" 