5228,Ni6Fe9Cr83_0,-205.565795017947, 197.508366732155,Ni6Fe9Cr83,"# generated using pymatgen
 data_Cr46Fe5Ni3
_symmetry_space_group_name_H-M   'P 1'
_cell_length_a   7.58553675
_cell_length_b   7.58553675
_cell_length_c   10.72756895
_cell_angle_alpha   90.00000000
_cell_angle_beta   90.00000000
_cell_angle_gamma   90.00000000
_symmetry_Int_Tables_number   1
_chemical_formula_structural   Cr46Fe5Ni3
_chemical_formula_sum   'Cr46 Fe5 Ni3'
_cell_volume   617.26826326
_cell_formula_units_Z   1
loop_
 _symmetry_equiv_pos_site_id
 _symmetry_equiv_pos_as_xyz
  1  'x, y, z'
loop_
 _atom_site_type_symbol
 _atom_site_label
 _atom_site_symmetry_multiplicity
 _atom_site_fract_x
 _atom_site_fract_y
 _atom_site_fract_z
 _atom_site_occupancy
  Cr  Cr0  1  0.99116389  0.99036077  0.99135035  1
  Cr  Cr1  1  0.15991821  0.15849125  0.15986727  1
  Cr  Cr2  1  0.99182830  0.99185159  0.32559480  1
  Cr  Cr3  1  0.99146290  0.32741145  -0.00739309  1
  Cr  Cr4  1  0.15656114  0.49259257  0.15765171  1
  Cr  Cr5  1  -0.00777390  0.32636848  0.32587244  1
  Ni  Ni6  1  0.99039017  0.65816427  -0.00681404  1
  Cr  Cr7  1  0.15873083  0.82548657  0.15910976  1
  Cr  Cr8  1  -0.00622901  0.65834944  0.32546321  1
  Cr  Cr9  1  0.32613405  0.99148283  0.99211246  1
  Cr  Cr10  1  0.49116292  0.15831689  0.15976629  1
  Fe  Fe11  1  0.32555028  0.99217263  0.32596331  1
  Cr  Cr12  1  0.32613614  0.32659491  0.99135027  1
  Cr  Cr13  1  0.49425179  0.49249250  0.15808554  1
  Cr  Cr14  1  0.32579971  0.32725596  0.32682968  1
  Cr  Cr15  1  0.32454056  0.65849182  0.99212287  1
  Cr  Cr16  1  0.49225069  0.82576159  0.15904429  1
  Cr  Cr17  1  0.32485467  0.65807054  0.32743193  1
  Cr  Cr18  1  0.65927154  0.99195382  0.99212276  1
  Cr  Cr19  1  0.82548834  0.16048815  0.15980604  1
  Cr  Cr20  1  0.65882606  -0.00720135  0.32492365  1
  Cr  Cr21  1  0.65897082  0.32582315  -0.00662010  1
  Fe  Fe22  1  0.82602521  0.49341312  0.15763871  1
  Cr  Cr23  1  0.65854264  0.32530999  0.32516347  1
  Fe  Fe24  1  0.66092068  0.65851807  -0.00742619  1
  Cr  Cr25  1  0.82558815  0.82240267  0.15753468  1
  Cr  Cr26  1  0.65794263  0.65845893  0.32576536  1
  Cr  Cr27  1  0.16031467  0.15919521  0.49201365  1
  Cr  Cr28  1  0.99192685  0.99188700  0.65962434  1
  Cr  Cr29  1  0.16005220  0.15835741  0.82468801  1
  Ni  Ni30  1  0.15987334  0.49211203  0.49210371  1
  Cr  Cr31  1  -0.00724527  0.32584102  0.65809264  1
  Cr  Cr32  1  0.15766426  0.49217629  0.82666218  1
  Cr  Cr33  1  0.16031047  0.82561591  0.49158029  1
  Cr  Cr34  1  -0.00677771  0.65884147  0.65773063  1
  Cr  Cr35  1  0.15886383  0.82603574  0.82587839  1
  Cr  Cr36  1  0.49057362  0.15837029  0.49158006  1
  Ni  Ni37  1  0.32654039  0.99146161  0.65838518  1
  Cr  Cr38  1  0.49061525  0.15818499  0.82522310  1
  Fe  Fe39  1  0.49082186  0.49253967  0.49251349  1
  Cr  Cr40  1  0.32576660  0.32716177  0.65838664  1
  Cr  Cr41  1  0.49380517  0.49315176  0.82513965  1
  Cr  Cr42  1  0.49166300  0.82534891  0.49266766  1
  Cr  Cr43  1  0.32590591  0.65812223  0.65701171  1
  Cr  Cr44  1  0.49277842  0.82523449  0.82485810  1
  Cr  Cr45  1  0.82568117  0.15956914  0.49225447  1
  Cr  Cr46  1  0.65877134  0.99175255  0.65952318  1
  Cr  Cr47  1  0.82590321  0.15938557  0.82450778  1
  Cr  Cr48  1  0.82541735  0.49285347  0.49253275  1
  Cr  Cr49  1  0.65804560  0.32586815  0.65802653  1
  Cr  Cr50  1  0.82510231  0.49433076  0.82744327  1
  Cr  Cr51  1  0.82459540  0.82414595  0.49334353  1
  Fe  Fe52  1  0.65804228  0.65897058  0.65846999  1
  Cr  Cr53  1  0.82492820  0.82285257  0.82569077  1
" 