2541,Ni6Fe10Cr82_7,-205.437953149619, 196.857040316721,Ni6Fe10Cr82,"# generated using pymatgen
 data_Cr46Fe5Ni3
_symmetry_space_group_name_H-M   'P 1'
_cell_length_a   7.58449567
_cell_length_b   7.58449567
_cell_length_c   10.72609664
_cell_angle_alpha   90.00000000
_cell_angle_beta   90.00000000
_cell_angle_gamma   90.00000000
_symmetry_Int_Tables_number   1
_chemical_formula_structural   Cr46Fe5Ni3
_chemical_formula_sum   'Cr46 Fe5 Ni3'
_cell_volume   617.01414644
_cell_formula_units_Z   1
loop_
 _symmetry_equiv_pos_site_id
 _symmetry_equiv_pos_as_xyz
  1  'x, y, z'
loop_
 _atom_site_type_symbol
 _atom_site_label
 _atom_site_symmetry_multiplicity
 _atom_site_fract_x
 _atom_site_fract_y
 _atom_site_fract_z
 _atom_site_occupancy
  Cr  Cr0  1  0.99224981  0.99202794  -0.00735327  1
  Cr  Cr1  1  0.15873188  0.16002878  0.15623973  1
  Cr  Cr2  1  -0.00724833  -0.00714931  0.32685355  1
  Cr  Cr3  1  0.98973870  0.32704650  -0.00752074  1
  Cr  Cr4  1  0.15850034  0.49113333  0.16007295  1
  Cr  Cr5  1  0.98944993  0.32567460  0.32496210  1
  Cr  Cr6  1  0.99038957  0.65758134  -0.00661737  1
  Cr  Cr7  1  0.15873698  0.82563412  0.15949261  1
  Cr  Cr8  1  0.99153904  0.65911763  0.32574190  1
  Cr  Cr9  1  0.32585556  0.99218936  0.99163057  1
  Cr  Cr10  1  0.49401444  0.15854672  0.16082506  1
  Cr  Cr11  1  0.32565839  -0.00745793  0.32735231  1
  Cr  Cr12  1  0.32804597  0.32599392  -0.00625353  1
  Fe  Fe13  1  0.49507864  0.49045243  0.16038830  1
  Cr  Cr14  1  0.32902015  0.32505571  0.32490057  1
  Cr  Cr15  1  0.32706340  0.65828783  -0.00539654  1
  Cr  Cr16  1  0.49404857  0.82595961  0.15841929  1
  Cr  Cr17  1  0.32614866  0.65989526  0.32535944  1
  Cr  Cr18  1  0.65875305  -0.00700570  0.99212850  1
  Cr  Cr19  1  0.82452274  0.15898351  0.16097633  1
  Fe  Fe20  1  0.65863184  -0.00557496  0.32707247  1
  Cr  Cr21  1  0.65944866  0.32718455  -0.00741464  1
  Ni  Ni22  1  0.82235957  0.49053881  0.15949434  1
  Ni  Ni23  1  0.65986914  0.32378234  0.32585161  1
  Cr  Cr24  1  0.65977200  0.65628762  -0.00756848  1
  Cr  Cr25  1  0.82391044  0.82626447  0.15981090  1
  Cr  Cr26  1  0.65934933  0.65541099  0.32267914  1
  Cr  Cr27  1  0.15730406  0.16183983  0.49241303  1
  Cr  Cr28  1  -0.00766663  -0.00710865  0.65724767  1
  Cr  Cr29  1  0.15888575  0.16067475  0.82819793  1
  Cr  Cr30  1  0.15933279  0.49254398  0.49267569  1
  Cr  Cr31  1  0.98973634  0.32480614  0.65973953  1
  Cr  Cr32  1  0.15897390  0.49155664  0.82412650  1
  Fe  Fe33  1  0.15807449  0.82651699  0.49186746  1
  Cr  Cr34  1  0.99104075  0.65952719  0.65801175  1
  Cr  Cr35  1  0.15872502  0.82460020  0.82524860  1
  Fe  Fe36  1  0.49542637  0.15971295  0.49013814  1
  Cr  Cr37  1  0.32557199  -0.00708652  0.65770290  1
  Cr  Cr38  1  0.49268870  0.15893013  0.82493874  1
  Cr  Cr39  1  0.49287499  0.49182611  0.49112838  1
  Cr  Cr40  1  0.32761558  0.32389778  0.65793087  1
  Cr  Cr41  1  0.49109597  0.49246969  0.82512037  1
  Cr  Cr42  1  0.49427242  0.82566380  0.49213881  1
  Cr  Cr43  1  0.32569267  0.66053242  0.65663443  1
  Cr  Cr44  1  0.49330734  0.82545193  0.82602270  1
  Ni  Ni45  1  0.82208361  0.15891053  0.48945408  1
  Cr  Cr46  1  0.65890816  -0.00580700  0.65697217  1
  Cr  Cr47  1  0.82564542  0.15838035  0.82572483  1
  Cr  Cr48  1  0.82504218  0.49084682  0.49261441  1
  Cr  Cr49  1  0.65975825  0.32526370  0.65840535  1
  Fe  Fe50  1  0.82579268  0.49179073  0.82608508  1
  Cr  Cr51  1  0.82351459  0.82693962  0.49084964  1
  Cr  Cr52  1  0.65981463  0.65763122  0.66217171  1
  Cr  Cr53  1  0.82474687  0.82569653  0.82620945  1
" 