5958,Ni6Fe23Cr70_11,-210.665123871402, 189.992297354447,Ni6Fe23Cr70,"# generated using pymatgen
 data_Cr13Fe4Ni
_symmetry_space_group_name_H-M   'P 1'
_cell_length_a   7.57503786
_cell_length_b   7.57503786
_cell_length_c   10.71272128
_cell_angle_alpha   90.00000000
_cell_angle_beta   90.00000000
_cell_angle_gamma   90.00000000
_symmetry_Int_Tables_number   1
_chemical_formula_structural   Cr13Fe4Ni
_chemical_formula_sum   'Cr39 Fe12 Ni3'
_cell_volume   614.70878723
_cell_formula_units_Z   3
loop_
 _symmetry_equiv_pos_site_id
 _symmetry_equiv_pos_as_xyz
  1  'x, y, z'
loop_
 _atom_site_type_symbol
 _atom_site_label
 _atom_site_symmetry_multiplicity
 _atom_site_fract_x
 _atom_site_fract_y
 _atom_site_fract_z
 _atom_site_occupancy
  Cr  Cr0  1  -0.00552462  -0.00630886  0.99208112  1
  Fe  Fe1  1  0.15958820  0.15951161  0.15910027  1
  Cr  Cr2  1  0.99263172  -0.00651379  0.32595391  1
  Cr  Cr3  1  -0.00667954  0.32524325  -0.00644364  1
  Cr  Cr4  1  0.15790646  0.49132277  0.16162003  1
  Fe  Fe5  1  -0.00712372  0.32692568  0.32547597  1
  Cr  Cr6  1  0.99218841  0.65967916  0.99183595  1
  Cr  Cr7  1  0.15955494  0.82786896  0.16029057  1
  Fe  Fe8  1  -0.00710648  0.65811384  0.32619984  1
  Fe  Fe9  1  0.32629794  -0.00684592  0.99113202  1
  Fe  Fe10  1  0.49280279  0.15879979  0.15891283  1
  Cr  Cr11  1  0.32583388  -0.00649098  0.32477741  1
  Cr  Cr12  1  0.32572470  0.32360493  0.99187326  1
  Cr  Cr13  1  0.49467772  0.49249006  0.15908489  1
  Cr  Cr14  1  0.32522996  0.32619562  0.32626624  1
  Cr  Cr15  1  0.32684299  0.66130380  0.99014870  1
  Cr  Cr16  1  0.49342097  0.82709371  0.15723247  1
  Cr  Cr17  1  0.32461960  0.65891248  0.32858355  1
  Fe  Fe18  1  0.65815959  0.99186203  -0.00708482  1
  Fe  Fe19  1  0.82622855  0.16024054  0.15955418  1
  Cr  Cr20  1  0.66014998  -0.00591127  0.32624078  1
  Cr  Cr21  1  0.65956928  0.32589491  -0.00513222  1
  Fe  Fe22  1  0.82605595  0.49316184  0.15935215  1
  Cr  Cr23  1  0.66074297  0.32559921  0.32468185  1
  Ni  Ni24  1  0.65894006  0.66120088  -0.00693228  1
  Cr  Cr25  1  0.82563902  0.82542934  0.15891212  1
  Cr  Cr26  1  0.66076237  0.65892850  0.32601359  1
  Cr  Cr27  1  0.15888896  0.16073209  0.49203915  1
  Cr  Cr28  1  -0.00655079  0.99263161  0.66057841  1
  Ni  Ni29  1  0.16198828  0.15740733  0.82753359  1
  Fe  Fe30  1  0.15881316  0.49285955  0.49205610  1
  Cr  Cr31  1  -0.00555691  0.32623824  0.66065520  1
  Fe  Fe32  1  0.15943715  0.49283982  0.82628115  1
  Cr  Cr33  1  0.15887583  0.82527524  0.49120797  1
  Cr  Cr34  1  -0.00497317  0.65974669  0.66006310  1
  Ni  Ni35  1  0.16198034  0.82864591  0.82697074  1
  Cr  Cr36  1  0.49266422  0.16030617  0.49361618  1
  Cr  Cr37  1  0.32580593  0.99263785  0.66191323  1
  Fe  Fe38  1  0.49073424  0.15765326  0.82686024  1
  Cr  Cr39  1  0.49176587  0.49260221  0.49308340  1
  Cr  Cr40  1  0.32528960  0.32671444  0.66048373  1
  Cr  Cr41  1  0.49299760  0.49342407  0.82644660  1
  Cr  Cr42  1  0.49267004  0.82570760  0.49279797  1
  Cr  Cr43  1  0.32469970  0.65926352  0.65988607  1
  Fe  Fe44  1  0.49162229  0.82724177  0.82779941  1
  Cr  Cr45  1  0.82706245  0.15982932  0.49379081  1
  Cr  Cr46  1  0.65935872  -0.00677726  0.65897291  1
  Cr  Cr47  1  0.82688160  0.15920410  0.82474330  1
  Cr  Cr48  1  0.82749218  0.49261411  0.49173374  1
  Cr  Cr49  1  0.65888011  0.32513410  0.65906655  1
  Cr  Cr50  1  0.82545929  0.49343320  0.82762183  1
  Cr  Cr51  1  0.82706909  0.82617201  0.49296051  1
  Cr  Cr52  1  0.65888606  0.66025813  0.65945426  1
  Cr  Cr53  1  0.82571064  0.82597901  0.82673926  1
" 