7432,Ni6Fe17Cr75_14,-208.711741588398, 198.364443652215,Ni6Fe17Cr75,"# generated using pymatgen
 data_Cr14Fe3Ni
_symmetry_space_group_name_H-M   'P 1'
_cell_length_a   7.57005083
_cell_length_b   7.57005083
_cell_length_c   10.70566854
_cell_angle_alpha   90.00000000
_cell_angle_beta   90.00000000
_cell_angle_gamma   90.00000000
_symmetry_Int_Tables_number   1
_chemical_formula_structural   Cr14Fe3Ni
_chemical_formula_sum   'Cr42 Fe9 Ni3'
_cell_volume   613.49550337
_cell_formula_units_Z   3
loop_
 _symmetry_equiv_pos_site_id
 _symmetry_equiv_pos_as_xyz
  1  'x, y, z'
loop_
 _atom_site_type_symbol
 _atom_site_label
 _atom_site_symmetry_multiplicity
 _atom_site_fract_x
 _atom_site_fract_y
 _atom_site_fract_z
 _atom_site_occupancy
  Cr  Cr0  1  0.99229097  0.99174619  -0.00504748  1
  Fe  Fe1  1  0.16074089  0.15801100  0.15864531  1
  Fe  Fe2  1  -0.00677321  -0.00666522  0.32524868  1
  Cr  Cr3  1  -0.00510758  0.32619931  0.99166880  1
  Cr  Cr4  1  0.15907061  0.49295878  0.15816237  1
  Cr  Cr5  1  -0.00476673  0.32493277  0.32568227  1
  Cr  Cr6  1  -0.00662036  0.66177864  0.99039175  1
  Cr  Cr7  1  0.15946251  0.83142859  0.16099401  1
  Cr  Cr8  1  -0.00639929  0.66209309  0.32673851  1
  Ni  Ni9  1  0.32744338  0.99195321  0.98946952  1
  Cr  Cr10  1  0.49065840  0.15843004  0.15822205  1
  Cr  Cr11  1  0.32629994  -0.00592637  0.32587427  1
  Cr  Cr12  1  0.32579561  0.32476781  -0.00517774  1
  Cr  Cr13  1  0.49594829  0.49457330  0.15954994  1
  Cr  Cr14  1  0.32557922  0.32682722  0.32479062  1
  Cr  Cr15  1  0.32528171  0.66150558  0.99124825  1
  Cr  Cr16  1  0.49266828  0.82646870  0.15681267  1
  Cr  Cr17  1  0.32582635  0.65875389  0.32816648  1
  Cr  Cr18  1  0.65923933  0.99153203  0.99009526  1
  Cr  Cr19  1  0.82945702  0.15911615  0.16097617  1
  Cr  Cr20  1  0.66223402  0.99246781  0.32666294  1
  Cr  Cr21  1  0.65921103  0.32320049  0.99180136  1
  Cr  Cr22  1  0.82452092  0.49488349  0.15860081  1
  Cr  Cr23  1  0.65881221  0.32457441  0.32834841  1
  Fe  Fe24  1  0.65998058  0.66230189  0.99231791  1
  Fe  Fe25  1  0.82630686  0.82647318  0.15953499  1
  Cr  Cr26  1  0.66009308  0.66260292  0.32507719  1
  Cr  Cr27  1  0.15944914  0.15627462  0.49137201  1
  Cr  Cr28  1  0.99135072  0.99172829  0.66083908  1
  Cr  Cr29  1  0.16193481  0.15547871  0.82800606  1
  Cr  Cr30  1  0.15882886  0.49364469  0.49533944  1
  Cr  Cr31  1  -0.00601679  0.32672288  0.66228193  1
  Fe  Fe32  1  0.16133497  0.49438623  0.82671787  1
  Cr  Cr33  1  0.16028856  0.82975947  0.49379580  1
  Cr  Cr34  1  -0.00414720  0.66105738  0.66235048  1
  Ni  Ni35  1  0.16143426  0.82881608  0.82645705  1
  Cr  Cr36  1  0.49181163  0.15850791  0.49519554  1
  Fe  Fe37  1  0.32675001  0.99271627  0.66391516  1
  Ni  Ni38  1  0.49206267  0.15553656  0.82677979  1
  Cr  Cr39  1  0.49504296  0.49365357  0.49132231  1
  Cr  Cr40  1  0.32666624  0.32654240  0.66003268  1
  Cr  Cr41  1  0.49536250  0.49322446  0.82850363  1
  Cr  Cr42  1  0.49093125  0.82760184  0.49510484  1
  Cr  Cr43  1  0.32439465  0.66146834  0.66059520  1
  Fe  Fe44  1  0.48997099  0.82967421  0.82745066  1
  Cr  Cr45  1  0.82819538  0.15998186  0.49390308  1
  Cr  Cr46  1  0.65857353  -0.00607274  0.66296878  1
  Fe  Fe47  1  0.82538788  0.15817129  0.82678584  1
  Cr  Cr48  1  0.82568271  0.49285409  0.49361090  1
  Cr  Cr49  1  0.65917508  0.32233529  0.65976003  1
  Cr  Cr50  1  0.82625768  0.49340183  0.82712683  1
  Cr  Cr51  1  0.82827580  0.82684738  0.49062670  1
  Cr  Cr52  1  0.65947986  0.66353828  0.65998168  1
  Fe  Fe53  1  0.82688761  0.82777970  0.82694109  1
" 