6784,Ni6Fe20Cr73_0,-210.103816535399, 192.379955731665,Ni6Fe20Cr73,"# generated using pymatgen
 data_Cr40Fe11Ni3
_symmetry_space_group_name_H-M   'P 1'
_cell_length_a   7.56402847
_cell_length_b   7.56402847
_cell_length_c   10.69715165
_cell_angle_alpha   90.00000000
_cell_angle_beta   90.00000000
_cell_angle_gamma   90.00000000
_symmetry_Int_Tables_number   1
_chemical_formula_structural   Cr40Fe11Ni3
_chemical_formula_sum   'Cr40 Fe11 Ni3'
_cell_volume   612.03246963
_cell_formula_units_Z   1
loop_
 _symmetry_equiv_pos_site_id
 _symmetry_equiv_pos_as_xyz
  1  'x, y, z'
loop_
 _atom_site_type_symbol
 _atom_site_label
 _atom_site_symmetry_multiplicity
 _atom_site_fract_x
 _atom_site_fract_y
 _atom_site_fract_z
 _atom_site_occupancy
  Cr  Cr0  1  0.99210170  0.99182322  -0.00445447  1
  Cr  Cr1  1  0.15966595  0.16038075  0.15992165  1
  Fe  Fe2  1  0.99143139  0.99252040  0.32528966  1
  Cr  Cr3  1  0.99280748  0.32774532  -0.00585928  1
  Cr  Cr4  1  0.16110024  0.49422410  0.15933714  1
  Cr  Cr5  1  0.99119892  0.32753560  0.32550796  1
  Cr  Cr6  1  0.99025851  0.66020110  -0.00517200  1
  Fe  Fe7  1  0.15911869  0.82728753  0.16095630  1
  Cr  Cr8  1  0.99081045  0.66223686  0.32616392  1
  Cr  Cr9  1  0.32955261  -0.00569046  -0.00449066  1
  Cr  Cr10  1  0.49575635  0.16102251  0.16023092  1
  Cr  Cr11  1  0.32799667  0.99242998  0.32460248  1
  Ni  Ni12  1  0.32992350  0.32853494  -0.00550584  1
  Cr  Cr13  1  0.49555356  0.49594097  0.16152563  1
  Cr  Cr14  1  0.32953382  0.32644806  0.32718894  1
  Cr  Cr15  1  0.32757108  0.66257185  -0.00532347  1
  Fe  Fe16  1  0.49693929  0.82789565  0.16036696  1
  Cr  Cr17  1  0.32741992  0.66273841  0.32747602  1
  Ni  Ni18  1  0.66031500  0.99025690  -0.00460954  1
  Cr  Cr19  1  0.82562564  0.15771328  0.16111433  1
  Fe  Fe20  1  0.66190174  0.99191757  0.32493498  1
  Cr  Cr21  1  0.66087862  0.32669135  -0.00631092  1
  Fe  Fe22  1  0.82486355  0.49329077  0.16155435  1
  Ni  Ni23  1  0.66290391  0.32608332  0.32715684  1
  Fe  Fe24  1  0.65959758  0.66173328  -0.00405015  1
  Fe  Fe25  1  0.82318088  0.82550862  0.16038734  1
  Fe  Fe26  1  0.66081421  0.65987489  0.32561263  1
  Cr  Cr27  1  0.15845650  0.15940680  0.49049007  1
  Cr  Cr28  1  0.99255180  0.99331137  0.65907613  1
  Cr  Cr29  1  0.16051969  0.16096151  0.83030069  1
  Cr  Cr30  1  0.15990498  0.49431245  0.49435636  1
  Cr  Cr31  1  0.99094083  0.32658950  0.66141502  1
  Cr  Cr32  1  0.16129313  0.49401324  0.82732865  1
  Cr  Cr33  1  0.15841904  0.82777162  0.49288668  1
  Cr  Cr34  1  0.99149073  0.66042185  0.65981621  1
  Cr  Cr35  1  0.15972597  0.82631105  0.82677665  1
  Cr  Cr36  1  0.49721322  0.15961757  0.49251738  1
  Cr  Cr37  1  0.32870217  -0.00588905  0.66057492  1
  Cr  Cr38  1  0.49583117  0.15974915  0.82787807  1
  Cr  Cr39  1  0.49521629  0.49346764  0.49208216  1
  Cr  Cr40  1  0.32833321  0.32535029  0.65963409  1
  Cr  Cr41  1  0.49305925  0.49437162  0.82723976  1
  Cr  Cr42  1  0.49656345  0.82767575  0.49247890  1
  Cr  Cr43  1  0.32803156  0.66158749  0.65893550  1
  Cr  Cr44  1  0.49587712  0.82717956  0.82870209  1
  Cr  Cr45  1  0.82529631  0.15731011  0.49270611  1
  Fe  Fe46  1  0.66052054  0.99339469  0.66008167  1
  Cr  Cr47  1  0.82483662  0.15804953  0.82655488  1
  Cr  Cr48  1  0.82515162  0.49298862  0.49186101  1
  Fe  Fe49  1  0.66015985  0.32630601  0.65957180  1
  Cr  Cr50  1  0.82505651  0.49467501  0.82846225  1
  Fe  Fe51  1  0.82569476  0.82730822  0.49178920  1
  Cr  Cr52  1  0.66111673  0.66053084  0.65953316  1
  Cr  Cr53  1  0.82503987  0.82813499  0.82722311  1
" 