7909,Ni6Fe17Cr75_12,-208.641161347484, 196.766219486662,Ni6Fe17Cr75,"# generated using pymatgen
 data_Cr14Fe3Ni
_symmetry_space_group_name_H-M   'P 1'
_cell_length_a   7.57285389
_cell_length_b   7.57285389
_cell_length_c   10.70963267
_cell_angle_alpha   90.00000000
_cell_angle_beta   90.00000000
_cell_angle_gamma   90.00000000
_symmetry_Int_Tables_number   1
_chemical_formula_structural   Cr14Fe3Ni
_chemical_formula_sum   'Cr42 Fe9 Ni3'
_cell_volume   614.17725661
_cell_formula_units_Z   3
loop_
 _symmetry_equiv_pos_site_id
 _symmetry_equiv_pos_as_xyz
  1  'x, y, z'
loop_
 _atom_site_type_symbol
 _atom_site_label
 _atom_site_symmetry_multiplicity
 _atom_site_fract_x
 _atom_site_fract_y
 _atom_site_fract_z
 _atom_site_occupancy
  Cr  Cr0  1  -0.00454861  -0.00635532  -0.00565342  1
  Fe  Fe1  1  0.15904451  0.16094003  0.15955664  1
  Cr  Cr2  1  -0.00525934  0.99230828  0.32397477  1
  Fe  Fe3  1  -0.00657275  0.32620605  -0.00672100  1
  Cr  Cr4  1  0.15953741  0.49418448  0.16052686  1
  Fe  Fe5  1  0.99254016  0.32643291  0.32722740  1
  Cr  Cr6  1  0.99295412  0.66009216  0.99203290  1
  Cr  Cr7  1  0.16075657  0.82227716  0.16052122  1
  Ni  Ni8  1  -0.00580878  0.65769095  0.32789778  1
  Cr  Cr9  1  0.32534703  -0.00619153  -0.00633409  1
  Cr  Cr10  1  0.49415553  0.16047275  0.16066045  1
  Cr  Cr11  1  0.32524148  -0.00620878  0.32698835  1
  Cr  Cr12  1  0.32463308  0.32646908  0.99239845  1
  Cr  Cr13  1  0.49101798  0.49473343  0.15830277  1
  Cr  Cr14  1  0.32421698  0.32488897  0.32558557  1
  Fe  Fe15  1  0.32757400  0.66147851  0.99101466  1
  Cr  Cr16  1  0.49126746  0.82456078  0.16112673  1
  Fe  Fe17  1  0.32578974  0.66050120  0.32723751  1
  Cr  Cr18  1  0.65864918  0.99104222  -0.00544259  1
  Cr  Cr19  1  0.82638838  0.16155751  0.15805322  1
  Cr  Cr20  1  0.65922102  0.99186836  0.32526107  1
  Cr  Cr21  1  0.65789886  0.32839264  0.99103928  1
  Cr  Cr22  1  0.82773282  0.49259414  0.16150540  1
  Cr  Cr23  1  0.65925907  0.32754836  0.32853210  1
  Cr  Cr24  1  0.65858349  0.65999248  0.98947666  1
  Cr  Cr25  1  0.82698097  0.82514623  0.15938183  1
  Cr  Cr26  1  0.66159052  0.65975444  0.32912450  1
  Cr  Cr27  1  0.15943909  0.15866283  0.49592541  1
  Ni  Ni28  1  -0.00534669  0.99257926  0.65991102  1
  Cr  Cr29  1  0.15846090  0.15905961  0.82376838  1
  Cr  Cr30  1  0.15920606  0.49495071  0.49018756  1
  Cr  Cr31  1  -0.00609068  0.32747767  0.65843339  1
  Cr  Cr32  1  0.16075591  0.49417322  0.82828079  1
  Cr  Cr33  1  0.16080597  0.82525979  0.49465209  1
  Cr  Cr34  1  0.99183066  0.66046514  0.65874274  1
  Cr  Cr35  1  0.16072754  0.82616608  0.82421170  1
  Cr  Cr36  1  0.49317582  0.15794301  0.49468627  1
  Fe  Fe37  1  0.32642536  0.99085313  0.66015143  1
  Cr  Cr38  1  0.49372151  0.15832694  0.82425205  1
  Cr  Cr39  1  0.49129258  0.49371729  0.49211556  1
  Cr  Cr40  1  0.32654601  0.32650545  0.66067883  1
  Fe  Fe41  1  0.49200989  0.49506638  0.82679697  1
  Fe  Fe42  1  0.49206138  0.82607136  0.49375439  1
  Cr  Cr43  1  0.32782996  0.65908205  0.66122602  1
  Ni  Ni44  1  0.49076704  0.82512088  0.82543930  1
  Cr  Cr45  1  0.82610667  0.15967081  0.49456613  1
  Cr  Cr46  1  0.65933717  0.99028752  0.65945463  1
  Cr  Cr47  1  0.82637486  0.15910413  0.82597773  1
  Fe  Fe48  1  0.82810176  0.49355671  0.49186589  1
  Cr  Cr49  1  0.65875848  0.32973231  0.65915777  1
  Cr  Cr50  1  0.82737517  0.49160338  0.82603199  1
  Cr  Cr51  1  0.82846490  0.82700053  0.49276585  1
  Cr  Cr52  1  0.65977492  0.65942863  0.66007583  1
  Cr  Cr53  1  0.82665869  0.82851957  0.82637707  1
" 