682,Ni6Fe9Cr83_5,-205.613427246643, 198.445825400627,Ni6Fe9Cr83,"# generated using pymatgen
 data_Cr46Fe5Ni3
_symmetry_space_group_name_H-M   'P 1'
_cell_length_a   7.58474620
_cell_length_b   7.58474620
_cell_length_c   10.72645094
_cell_angle_alpha   90.00000000
_cell_angle_beta   90.00000000
_cell_angle_gamma   90.00000000
_symmetry_Int_Tables_number   1
_chemical_formula_structural   Cr46Fe5Ni3
_chemical_formula_sum   'Cr46 Fe5 Ni3'
_cell_volume   617.07529151
_cell_formula_units_Z   1
loop_
 _symmetry_equiv_pos_site_id
 _symmetry_equiv_pos_as_xyz
  1  'x, y, z'
loop_
 _atom_site_type_symbol
 _atom_site_label
 _atom_site_symmetry_multiplicity
 _atom_site_fract_x
 _atom_site_fract_y
 _atom_site_fract_z
 _atom_site_occupancy
  Cr  Cr0  1  0.99217681  -0.00607185  0.99180416  1
  Cr  Cr1  1  0.15833251  0.16009038  0.15639362  1
  Cr  Cr2  1  0.99089072  0.99174249  0.32532210  1
  Ni  Ni3  1  -0.00754585  0.32538769  -0.00756533  1
  Cr  Cr4  1  0.15754636  0.49140908  0.15837249  1
  Cr  Cr5  1  0.99177745  0.32592498  0.32496209  1
  Cr  Cr6  1  0.99139702  0.65800581  -0.00697068  1
  Cr  Cr7  1  0.16033203  0.82522499  0.15876278  1
  Cr  Cr8  1  -0.00769753  0.65905481  0.32643094  1
  Cr  Cr9  1  0.32515765  -0.00721504  -0.00775698  1
  Cr  Cr10  1  0.49340006  0.15820324  0.16145636  1
  Cr  Cr11  1  0.32689907  -0.00655984  0.32536424  1
  Cr  Cr12  1  0.32467636  0.32589429  0.99192309  1
  Cr  Cr13  1  0.49308829  0.49219671  0.15881443  1
  Cr  Cr14  1  0.32772147  0.32592831  0.32756217  1
  Cr  Cr15  1  0.32703985  0.65804171  0.99192161  1
  Cr  Cr16  1  0.49218791  0.82632467  0.15913025  1
  Cr  Cr17  1  0.32549409  0.65735367  0.32646894  1
  Cr  Cr18  1  0.65938896  0.99156314  -0.00700497  1
  Cr  Cr19  1  0.82499196  0.16098854  0.15949179  1
  Fe  Fe20  1  0.65855899  -0.00565981  0.32591706  1
  Cr  Cr21  1  0.65942638  0.32667539  0.99113699  1
  Cr  Cr22  1  0.82608939  0.49019945  0.15838908  1
  Ni  Ni23  1  0.65733572  0.32429626  0.32725650  1
  Cr  Cr24  1  0.65828600  0.65848290  0.99113344  1
  Cr  Cr25  1  0.82420162  0.82553871  0.16028645  1
  Cr  Cr26  1  0.65892831  0.65823688  0.32474799  1
  Cr  Cr27  1  0.16018218  0.15991150  0.49302946  1
  Cr  Cr28  1  0.99195041  0.99174282  0.65959702  1
  Cr  Cr29  1  0.15829952  0.15962776  0.82729760  1
  Fe  Fe30  1  0.15955070  0.49229544  0.49224726  1
  Cr  Cr31  1  0.99174021  0.32546218  0.65873342  1
  Cr  Cr32  1  0.15861288  0.49141152  0.82654364  1
  Cr  Cr33  1  0.15989729  0.82415685  0.49302949  1
  Cr  Cr34  1  -0.00773528  0.65951796  0.65726419  1
  Cr  Cr35  1  0.16029627  0.82568590  0.82493076  1
  Fe  Fe36  1  0.49440024  0.16097392  0.49189633  1
  Cr  Cr37  1  0.32541493  -0.00656236  0.65911826  1
  Cr  Cr38  1  0.49273321  0.15993427  0.82412653  1
  Fe  Fe39  1  0.49332708  0.48979528  0.49220030  1
  Cr  Cr40  1  0.32842570  0.32656272  0.65723830  1
  Fe  Fe41  1  0.49311532  0.49135448  0.82469095  1
  Cr  Cr42  1  0.49186187  0.82636218  0.49114186  1
  Cr  Cr43  1  0.32620375  0.65672050  0.65833090  1
  Cr  Cr44  1  0.49152117  0.82458690  0.82645334  1
  Cr  Cr45  1  0.82227549  0.16090930  0.49192764  1
  Cr  Cr46  1  0.65935775  -0.00603569  0.65853799  1
  Cr  Cr47  1  0.82569177  0.16161836  0.82530308  1
  Cr  Cr48  1  0.82447535  0.49024612  0.49224237  1
  Ni  Ni49  1  0.65662022  0.32629859  0.65802326  1
  Cr  Cr50  1  0.82459507  0.49020137  0.82608840  1
  Cr  Cr51  1  0.82496344  0.82557112  0.49192692  1
  Cr  Cr52  1  0.65825506  0.65650822  0.66083697  1
  Cr  Cr53  1  0.82490614  0.82490458  0.82451249  1
" 