4402,Ni6Fe9Cr83_4,-205.546354885164, 196.197981285566,Ni6Fe9Cr83,"# generated using pymatgen
 data_Cr46Fe5Ni3
_symmetry_space_group_name_H-M   'P 1'
_cell_length_a   7.58769915
_cell_length_b   7.58769915
_cell_length_c   10.73062704
_cell_angle_alpha   90.00000000
_cell_angle_beta   90.00000000
_cell_angle_gamma   90.00000000
_symmetry_Int_Tables_number   1
_chemical_formula_structural   Cr46Fe5Ni3
_chemical_formula_sum   'Cr46 Fe5 Ni3'
_cell_volume   617.79630425
_cell_formula_units_Z   1
loop_
 _symmetry_equiv_pos_site_id
 _symmetry_equiv_pos_as_xyz
  1  'x, y, z'
loop_
 _atom_site_type_symbol
 _atom_site_label
 _atom_site_symmetry_multiplicity
 _atom_site_fract_x
 _atom_site_fract_y
 _atom_site_fract_z
 _atom_site_occupancy
  Cr  Cr0  1  -0.00784167  0.99204448  -0.00769441  1
  Cr  Cr1  1  0.15761661  0.16084919  0.16001491  1
  Cr  Cr2  1  -0.00766887  -0.00729796  0.32520802  1
  Cr  Cr3  1  0.99190665  0.32509764  0.99045880  1
  Cr  Cr4  1  0.15729577  0.49093780  0.15973439  1
  Ni  Ni5  1  0.99199982  0.32552061  0.32634313  1
  Cr  Cr6  1  0.99112300  0.65893317  0.99015646  1
  Cr  Cr7  1  0.15885413  0.82443617  0.15818772  1
  Cr  Cr8  1  -0.00766400  0.65897141  0.32556840  1
  Cr  Cr9  1  0.32421075  -0.00721073  0.99137291  1
  Cr  Cr10  1  0.49245377  0.15893614  0.15737404  1
  Cr  Cr11  1  0.32531074  0.99198412  0.32571871  1
  Cr  Cr12  1  0.32531347  0.32519792  -0.00778765  1
  Cr  Cr13  1  0.49298808  0.49276897  0.15899618  1
  Cr  Cr14  1  0.32593359  0.32619635  0.32599349  1
  Cr  Cr15  1  0.32524876  0.65817716  -0.00670067  1
  Cr  Cr16  1  0.49318541  0.82431523  0.15807873  1
  Cr  Cr17  1  0.32711332  0.65797473  0.32590385  1
  Cr  Cr18  1  0.65969753  -0.00780723  -0.00669477  1
  Cr  Cr19  1  0.82599986  0.16060014  0.16052251  1
  Cr  Cr20  1  0.65851638  0.99144515  0.32459074  1
  Cr  Cr21  1  0.65889121  0.32626351  0.99021411  1
  Cr  Cr22  1  0.82595226  0.49155080  0.15878053  1
  Cr  Cr23  1  0.65756741  0.32618312  0.32680532  1
  Fe  Fe24  1  0.65931657  0.65807679  0.99164176  1
  Cr  Cr25  1  0.82416225  0.82391837  0.15936640  1
  Fe  Fe26  1  0.65816506  0.65694213  0.32664151  1
  Fe  Fe27  1  0.15854474  0.16008866  0.49183089  1
  Cr  Cr28  1  -0.00684010  -0.00726528  0.65854781  1
  Ni  Ni29  1  0.15880552  0.15864479  0.82331391  1
  Cr  Cr30  1  0.15820846  0.49048977  0.49037107  1
  Cr  Cr31  1  -0.00769123  0.32499416  0.65977686  1
  Cr  Cr32  1  0.15832945  0.49096218  0.82624655  1
  Cr  Cr33  1  0.15920706  0.82657188  0.49395360  1
  Cr  Cr34  1  0.99165357  0.65853211  0.66039769  1
  Cr  Cr35  1  0.16018715  0.82651454  0.82417577  1
  Cr  Cr36  1  0.49110209  0.15875216  0.49385553  1
  Fe  Fe37  1  0.32411437  -0.00633351  0.65936939  1
  Cr  Cr38  1  0.49024005  0.15772431  0.82501757  1
  Ni  Ni39  1  0.49221034  0.49215571  0.49096040  1
  Cr  Cr40  1  0.32565609  0.32541377  0.65788196  1
  Cr  Cr41  1  0.49267527  0.49285355  0.82606730  1
  Cr  Cr42  1  0.49197718  0.82484951  0.49283126  1
  Cr  Cr43  1  0.32576644  0.65738021  0.65706566  1
  Cr  Cr44  1  0.49187976  0.82566917  0.82526386  1
  Cr  Cr45  1  0.82716160  0.15978830  0.49030932  1
  Cr  Cr46  1  0.65924157  -0.00731295  0.65832358  1
  Cr  Cr47  1  0.82572507  0.15936076  0.82543080  1
  Cr  Cr48  1  0.82575474  0.49115660  0.49163550  1
  Cr  Cr49  1  0.65806071  0.32664788  0.65904635  1
  Fe  Fe50  1  0.82517948  0.49192042  0.82546120  1
  Cr  Cr51  1  0.82509425  0.82521155  0.49105775  1
  Cr  Cr52  1  0.65870028  0.65674888  0.65795507  1
  Cr  Cr53  1  0.82408288  0.82415034  0.82573291  1
" 