1621,Ni6Fe10Cr82_12,-205.417999415756, 195.416872376172,Ni6Fe10Cr82,"# generated using pymatgen
 data_Cr46Fe5Ni3
_symmetry_space_group_name_H-M   'P 1'
_cell_length_a   7.58701597
_cell_length_b   7.58701597
_cell_length_c   10.72966089
_cell_angle_alpha   90.00000000
_cell_angle_beta   90.00000000
_cell_angle_gamma   90.00000000
_symmetry_Int_Tables_number   1
_chemical_formula_structural   Cr46Fe5Ni3
_chemical_formula_sum   'Cr46 Fe5 Ni3'
_cell_volume   617.62944623
_cell_formula_units_Z   1
loop_
 _symmetry_equiv_pos_site_id
 _symmetry_equiv_pos_as_xyz
  1  'x, y, z'
loop_
 _atom_site_type_symbol
 _atom_site_label
 _atom_site_symmetry_multiplicity
 _atom_site_fract_x
 _atom_site_fract_y
 _atom_site_fract_z
 _atom_site_occupancy
  Cr  Cr0  1  0.99122236  -0.00785855  0.99164605  1
  Cr  Cr1  1  0.15839338  0.15824378  0.16027374  1
  Ni  Ni2  1  -0.00621077  0.99198305  0.32690530  1
  Cr  Cr3  1  -0.00764044  0.32535146  -0.00756726  1
  Cr  Cr4  1  0.15962541  0.49302116  0.15615912  1
  Cr  Cr5  1  -0.00756864  0.32304666  0.32505005  1
  Cr  Cr6  1  -0.00732571  0.65878822  -0.00719416  1
  Cr  Cr7  1  0.15888099  0.82501866  0.15977932  1
  Cr  Cr8  1  0.99164307  0.66149548  0.32584260  1
  Cr  Cr9  1  0.32739644  0.99061229  0.99076140  1
  Cr  Cr10  1  0.49346491  0.15696694  0.15960055  1
  Fe  Fe11  1  0.32363346  0.99208297  0.32612653  1
  Cr  Cr12  1  0.32521969  0.32583851  -0.00736516  1
  Cr  Cr13  1  0.49033664  0.49240398  0.15866630  1
  Cr  Cr14  1  0.32570736  0.32310302  0.32584186  1
  Fe  Fe15  1  0.32678760  0.66014065  0.99122305  1
  Cr  Cr16  1  0.49235924  0.82691150  0.15806604  1
  Cr  Cr17  1  0.32571319  0.66064667  0.32508458  1
  Ni  Ni18  1  0.65698751  0.99040652  0.99164711  1
  Cr  Cr19  1  0.82442452  0.15622599  0.15865600  1
  Fe  Fe20  1  0.65985432  0.99208709  0.32497385  1
  Cr  Cr21  1  0.65870213  0.32438744  -0.00736568  1
  Cr  Cr22  1  0.82632160  0.49191323  0.15922963  1
  Cr  Cr23  1  0.65814159  0.32559654  0.32501048  1
  Cr  Cr24  1  0.65717321  0.66096455  0.99141596  1
  Cr  Cr25  1  0.82504292  0.82814401  0.15971996  1
  Cr  Cr26  1  0.65892547  0.65895170  0.32580097  1
  Fe  Fe27  1  0.15821794  0.15682573  0.49085167  1
  Cr  Cr28  1  -0.00584910  -0.00789229  0.65786129  1
  Cr  Cr29  1  0.15838221  0.15951782  0.82473202  1
  Cr  Cr30  1  0.15894934  0.49234735  0.49314512  1
  Cr  Cr31  1  -0.00756515  0.32452407  0.65879631  1
  Cr  Cr32  1  0.15948665  0.49282069  0.82697543  1
  Fe  Fe33  1  0.15821043  0.82735444  0.49083614  1
  Cr  Cr34  1  0.99164277  0.65965080  0.65763162  1
  Cr  Cr35  1  0.16063295  0.82394445  0.82584500  1
  Cr  Cr36  1  0.49116881  0.15784705  0.49076168  1
  Cr  Cr37  1  0.32450676  0.99168474  0.65795303  1
  Cr  Cr38  1  0.49345577  0.15636127  0.82591942  1
  Cr  Cr39  1  0.49144746  0.49172765  0.49259398  1
  Cr  Cr40  1  0.32517879  0.32390525  0.65780323  1
  Cr  Cr41  1  0.49033770  0.49396395  0.82502008  1
  Cr  Cr42  1  0.49116447  0.82670675  0.49118566  1
  Cr  Cr43  1  0.32639801  0.66069055  0.65978186  1
  Ni  Ni44  1  0.49228107  0.82576724  0.82706077  1
  Cr  Cr45  1  0.82628403  0.15711317  0.49127085  1
  Cr  Cr46  1  0.65762135  0.99088816  0.66137295  1
  Cr  Cr47  1  0.82444375  0.15750545  0.82636269  1
  Cr  Cr48  1  0.82588431  0.49233682  0.49314529  1
  Cr  Cr49  1  0.65866662  0.32641381  0.65863517  1
  Cr  Cr50  1  0.82645889  0.49171390  0.82390639  1
  Cr  Cr51  1  0.82690569  0.82683299  0.49064810  1
  Cr  Cr52  1  0.65824171  0.65897910  0.65906349  1
  Cr  Cr53  1  0.82330252  0.82706276  0.82591980  1
" 