446,Ni6Fe20Cr73_18,-210.054375217818, 192.921126197224,Ni6Fe20Cr73,"# generated using pymatgen
 data_Cr40Fe11Ni3
_symmetry_space_group_name_H-M   'P 1'
_cell_length_a   7.56985023
_cell_length_b   7.56985023
_cell_length_c   10.70538487
_cell_angle_alpha   90.00000000
_cell_angle_beta   90.00000000
_cell_angle_gamma   90.00000000
_symmetry_Int_Tables_number   1
_chemical_formula_structural   Cr40Fe11Ni3
_chemical_formula_sum   'Cr40 Fe11 Ni3'
_cell_volume   613.44673545
_cell_formula_units_Z   1
loop_
 _symmetry_equiv_pos_site_id
 _symmetry_equiv_pos_as_xyz
  1  'x, y, z'
loop_
 _atom_site_type_symbol
 _atom_site_label
 _atom_site_symmetry_multiplicity
 _atom_site_fract_x
 _atom_site_fract_y
 _atom_site_fract_z
 _atom_site_occupancy
  Cr  Cr0  1  0.99207942  0.99226763  -0.00471933  1
  Cr  Cr1  1  0.15964075  0.16099879  0.15971865  1
  Cr  Cr2  1  0.99170928  -0.00669161  0.32635113  1
  Cr  Cr3  1  -0.00670019  0.32752461  0.99293501  1
  Cr  Cr4  1  0.15984164  0.49268425  0.15961313  1
  Fe  Fe5  1  0.99284078  0.32613706  0.32691974  1
  Cr  Cr6  1  0.99145962  0.65983889  -0.00542104  1
  Cr  Cr7  1  0.15926235  0.82594607  0.15905731  1
  Cr  Cr8  1  0.99217027  0.66043551  0.32526826  1
  Cr  Cr9  1  0.32786993  -0.00599354  0.99206779  1
  Cr  Cr10  1  0.49396250  0.16041103  0.15965577  1
  Cr  Cr11  1  0.32598347  -0.00609911  0.32746557  1
  Fe  Fe12  1  0.32725280  0.32649178  0.99244472  1
  Cr  Cr13  1  0.49348463  0.49299477  0.16052142  1
  Cr  Cr14  1  0.32717988  0.32766193  0.32800411  1
  Cr  Cr15  1  0.32797119  0.65861576  -0.00609300  1
  Cr  Cr16  1  0.49465610  0.82622396  0.15899112  1
  Cr  Cr17  1  0.32729846  0.65806842  0.32695506  1
  Cr  Cr18  1  0.65968184  0.99216735  -0.00629074  1
  Cr  Cr19  1  0.82602491  0.15983137  0.16163681  1
  Cr  Cr20  1  0.66193656  0.99318730  0.32546842  1
  Cr  Cr21  1  0.65845948  0.32762759  0.99137341  1
  Cr  Cr22  1  0.82630266  0.49337452  0.15998656  1
  Fe  Fe23  1  0.65974257  0.32745250  0.32746512  1
  Fe  Fe24  1  0.66043923  0.66044716  0.99305410  1
  Ni  Ni25  1  0.82590759  0.82614835  0.15965852  1
  Cr  Cr26  1  0.66016104  0.65924175  0.32651881  1
  Fe  Fe27  1  0.16001712  0.16078965  0.49282230  1
  Cr  Cr28  1  0.99298060  0.99162118  0.65799328  1
  Cr  Cr29  1  0.16147710  0.16050483  0.82689856  1
  Cr  Cr30  1  0.15971783  0.49328063  0.49297667  1
  Cr  Cr31  1  0.99299634  0.32805196  0.65981697  1
  Cr  Cr32  1  0.15936811  0.49355064  0.82704300  1
  Cr  Cr33  1  0.15912443  0.82638583  0.49503173  1
  Ni  Ni34  1  0.99060383  0.65992632  0.65994093  1
  Cr  Cr35  1  0.16055283  0.82557398  0.82554173  1
  Cr  Cr36  1  0.49371390  0.16113180  0.49209091  1
  Cr  Cr37  1  0.32704587  -0.00609766  0.66009137  1
  Fe  Fe38  1  0.49278863  0.16016448  0.82693794  1
  Ni  Ni39  1  0.49443588  0.49301470  0.49362626  1
  Cr  Cr40  1  0.32822482  0.32696834  0.66033909  1
  Fe  Fe41  1  0.49432874  0.49356607  0.82650078  1
  Cr  Cr42  1  0.49377671  0.82497600  0.49409627  1
  Cr  Cr43  1  0.32766727  0.65876030  0.65877124  1
  Fe  Fe44  1  0.49387198  0.82590291  0.82655979  1
  Cr  Cr45  1  0.82697363  0.16053917  0.49125708  1
  Cr  Cr46  1  0.65960215  0.99217813  0.66044424  1
  Cr  Cr47  1  0.82513890  0.16108889  0.82673461  1
  Cr  Cr48  1  0.82556473  0.49333841  0.49429262  1
  Cr  Cr49  1  0.65840953  0.32867531  0.66071556  1
  Fe  Fe50  1  0.82608839  0.49482929  0.82564967  1
  Fe  Fe51  1  0.82653694  0.82476106  0.49403771  1
  Fe  Fe52  1  0.66076140  0.65897896  0.65966521  1
  Cr  Cr53  1  0.82493908  0.82387025  0.82484360  1
" 