3970,Ni6Fe9Cr83_11,-205.494527327525, 197.730521373908,Ni6Fe9Cr83,"# generated using pymatgen
 data_Cr46Fe5Ni3
_symmetry_space_group_name_H-M   'P 1'
_cell_length_a   7.58405265
_cell_length_b   7.58405265
_cell_length_c   10.72547012
_cell_angle_alpha   90.00000000
_cell_angle_beta   90.00000000
_cell_angle_gamma   90.00000000
_symmetry_Int_Tables_number   1
_chemical_formula_structural   Cr46Fe5Ni3
_chemical_formula_sum   'Cr46 Fe5 Ni3'
_cell_volume   616.90603056
_cell_formula_units_Z   1
loop_
 _symmetry_equiv_pos_site_id
 _symmetry_equiv_pos_as_xyz
  1  'x, y, z'
loop_
 _atom_site_type_symbol
 _atom_site_label
 _atom_site_symmetry_multiplicity
 _atom_site_fract_x
 _atom_site_fract_y
 _atom_site_fract_z
 _atom_site_occupancy
  Cr  Cr0  1  -0.00757035  0.99138462  0.99222359  1
  Cr  Cr1  1  0.15841967  0.15931963  0.15710170  1
  Cr  Cr2  1  -0.00711037  0.99227991  0.32728539  1
  Cr  Cr3  1  0.99155279  0.32667469  -0.00746251  1
  Cr  Cr4  1  0.16042902  0.49215740  0.15918091  1
  Cr  Cr5  1  0.99104795  0.32495934  0.32579209  1
  Cr  Cr6  1  0.99108341  0.65879626  0.98932092  1
  Cr  Cr7  1  0.15948262  0.82537979  0.16008796  1
  Cr  Cr8  1  -0.00684855  0.65961861  0.32655343  1
  Cr  Cr9  1  0.32550450  -0.00754509  -0.00740790  1
  Cr  Cr10  1  0.49216826  0.15966545  0.15751252  1
  Cr  Cr11  1  0.32465598  0.99013944  0.32578667  1
  Cr  Cr12  1  0.32668888  0.32591260  -0.00703617  1
  Ni  Ni13  1  0.49246009  0.49401022  0.16083932  1
  Cr  Cr14  1  0.32690809  0.32750101  0.32426106  1
  Cr  Cr15  1  0.32608913  0.65848896  -0.00573381  1
  Cr  Cr16  1  0.49305261  0.82309091  0.16053017  1
  Fe  Fe17  1  0.32785286  0.65842653  0.32511776  1
  Cr  Cr18  1  0.65892552  0.99198405  0.99126922  1
  Cr  Cr19  1  0.82627078  0.15871797  0.16003751  1
  Cr  Cr20  1  0.65931155  0.99224571  0.32655860  1
  Cr  Cr21  1  0.65861531  0.32725590  -0.00687778  1
  Cr  Cr22  1  0.82398066  0.49304285  0.15964998  1
  Cr  Cr23  1  0.65889857  0.32725235  0.32504048  1
  Cr  Cr24  1  0.65968770  0.65761545  0.99090221  1
  Cr  Cr25  1  0.82432797  0.82509857  0.15855031  1
  Ni  Ni26  1  0.65668813  0.65784996  0.32465324  1
  Cr  Cr27  1  0.15822132  0.15913290  0.49371117  1
  Cr  Cr28  1  -0.00760459  0.99135941  0.65735221  1
  Cr  Cr29  1  0.15991465  0.16001450  0.82604104  1
  Cr  Cr30  1  0.15960468  0.49257370  0.49299644  1
  Cr  Cr31  1  0.99152867  0.32636479  0.65853197  1
  Cr  Cr32  1  0.15744347  0.49116344  0.82467835  1
  Fe  Fe33  1  0.15933613  0.82523719  0.49197032  1
  Cr  Cr34  1  0.99211911  0.65913122  0.66098018  1
  Cr  Cr35  1  0.15776877  0.82568084  0.82562549  1
  Cr  Cr36  1  0.49259109  0.15884583  0.49466609  1
  Cr  Cr37  1  0.32520096  -0.00756254  0.65848292  1
  Cr  Cr38  1  0.49121255  0.15865478  0.82467603  1
  Cr  Cr39  1  0.49179682  0.49344087  0.49141936  1
  Fe  Fe40  1  0.32561323  0.32561324  0.65891492  1
  Cr  Cr41  1  0.49309177  0.49193586  0.82431451  1
  Cr  Cr42  1  0.49239145  0.82457087  0.49056508  1
  Cr  Cr43  1  0.32461316  0.65891828  0.65755806  1
  Cr  Cr44  1  0.49414034  0.82626766  0.82576392  1
  Fe  Fe45  1  0.82558744  0.15898815  0.49229487  1
  Cr  Cr46  1  0.65926437  -0.00697631  0.65902909  1
  Cr  Cr47  1  0.82572951  0.15897307  0.82562517  1
  Cr  Cr48  1  0.82545902  0.49237278  0.49144587  1
  Cr  Cr49  1  0.65904250  0.32577833  0.65869792  1
  Ni  Ni50  1  0.82588904  0.49373018  0.82550432  1
  Cr  Cr51  1  0.82517271  0.82595452  0.49161335  1
  Cr  Cr52  1  0.66012756  0.65805624  0.66165392  1
  Fe  Fe53  1  0.82562164  0.82390722  0.82560070  1
" 