156,Ni6Fe17Cr75_16,-208.421581217314, 195.202997797781,Ni6Fe17Cr75,"# generated using pymatgen
 data_Cr14Fe3Ni
_symmetry_space_group_name_H-M   'P 1'
_cell_length_a   7.56743984
_cell_length_b   7.56743984
_cell_length_c   10.70197605
_cell_angle_alpha   90.00000000
_cell_angle_beta   90.00000000
_cell_angle_gamma   90.00000000
_symmetry_Int_Tables_number   1
_chemical_formula_structural   Cr14Fe3Ni
_chemical_formula_sum   'Cr42 Fe9 Ni3'
_cell_volume   612.86092040
_cell_formula_units_Z   3
loop_
 _symmetry_equiv_pos_site_id
 _symmetry_equiv_pos_as_xyz
  1  'x, y, z'
loop_
 _atom_site_type_symbol
 _atom_site_label
 _atom_site_symmetry_multiplicity
 _atom_site_fract_x
 _atom_site_fract_y
 _atom_site_fract_z
 _atom_site_occupancy
  Cr  Cr0  1  0.99309619  0.99295274  -0.00424835  1
  Cr  Cr1  1  0.15991767  0.15764389  0.15939180  1
  Fe  Fe2  1  -0.00375992  0.99094564  0.32804705  1
  Cr  Cr3  1  -0.00478160  0.32734205  0.99147981  1
  Cr  Cr4  1  0.16177609  0.49466859  0.16079984  1
  Cr  Cr5  1  -0.00428317  0.32701878  0.32846855  1
  Cr  Cr6  1  0.99335237  0.65994404  0.99288981  1
  Cr  Cr7  1  0.16209046  0.82764063  0.15980993  1
  Cr  Cr8  1  -0.00393267  0.66147868  0.32707199  1
  Fe  Fe9  1  0.32802972  -0.00644881  0.99238766  1
  Cr  Cr10  1  0.49326703  0.16050441  0.15949304  1
  Cr  Cr11  1  0.32640580  0.99241464  0.32798027  1
  Cr  Cr12  1  0.32750192  0.32507885  -0.00590330  1
  Fe  Fe13  1  0.49247014  0.49451236  0.16202528  1
  Cr  Cr14  1  0.32712531  0.32901643  0.32464828  1
  Cr  Cr15  1  0.32660647  0.65800629  -0.00503549  1
  Cr  Cr16  1  0.49087704  0.82513001  0.16055485  1
  Ni  Ni17  1  0.32589017  0.66065980  0.33009340  1
  Cr  Cr18  1  0.65830118  -0.00604977  0.99062561  1
  Cr  Cr19  1  0.82720688  0.16056031  0.16472635  1
  Cr  Cr20  1  0.66023691  0.99325694  0.32881365  1
  Cr  Cr21  1  0.65727976  0.32584903  -0.00574174  1
  Cr  Cr22  1  0.82409581  0.49208904  0.15983746  1
  Fe  Fe23  1  0.65820480  0.32820751  0.32651905  1
  Cr  Cr24  1  0.66006809  0.66055431  -0.00616063  1
  Cr  Cr25  1  0.82729129  0.82750293  0.15983814  1
  Cr  Cr26  1  0.65803881  0.66093803  0.32546559  1
  Cr  Cr27  1  0.15996406  0.15800495  0.49356889  1
  Cr  Cr28  1  -0.00565955  0.99163204  0.65773309  1
  Cr  Cr29  1  0.16203480  0.15804582  0.82728646  1
  Fe  Fe30  1  0.16129724  0.49588944  0.49337599  1
  Fe  Fe31  1  -0.00532101  0.32544610  0.65896858  1
  Cr  Cr32  1  0.16049739  0.49375536  0.82352666  1
  Ni  Ni33  1  0.16543624  0.82484399  0.49358647  1
  Cr  Cr34  1  -0.00426787  0.65929244  0.65954618  1
  Cr  Cr35  1  0.16316413  0.82799178  0.82808782  1
  Cr  Cr36  1  0.49294465  0.15989644  0.49447322  1
  Ni  Ni37  1  0.32609704  0.99217978  0.65992409  1
  Fe  Fe38  1  0.49117361  0.15881798  0.82584253  1
  Cr  Cr39  1  0.49225402  0.49607891  0.49091433  1
  Cr  Cr40  1  0.32504857  0.32622371  0.66021583  1
  Cr  Cr41  1  0.49306565  0.49462474  0.82754017  1
  Fe  Fe42  1  0.48899378  0.82663015  0.49420062  1
  Fe  Fe43  1  0.32628119  0.66329058  0.65677794  1
  Cr  Cr44  1  0.48973899  0.82765267  0.82462891  1
  Cr  Cr45  1  0.82714193  0.16163553  0.49109101  1
  Cr  Cr46  1  0.65697256  0.99272190  0.66014551  1
  Cr  Cr47  1  0.82758213  0.16127133  0.82465225  1
  Cr  Cr48  1  0.82603842  0.49140969  0.49506966  1
  Cr  Cr49  1  0.65830847  0.32543566  0.66078765  1
  Cr  Cr50  1  0.82659929  0.49236804  0.82542979  1
  Cr  Cr51  1  0.82771358  0.82688023  0.49200869  1
  Cr  Cr52  1  0.65961370  0.66222524  0.66012762  1
  Cr  Cr53  1  0.82672320  0.82614697  0.82842093  1
" 