4983,Ni6Fe61Cr31_1,-221.14500003326, 163.603369539671,Ni6Fe61Cr31,"# generated using pymatgen
 data_Cr6Fe11Ni
_symmetry_space_group_name_H-M   'P 1'
_cell_length_a   7.49791906
_cell_length_b   7.49791906
_cell_length_c   10.60365883
_cell_angle_alpha   90.00000000
_cell_angle_beta   90.00000000
_cell_angle_gamma   90.00000000
_symmetry_Int_Tables_number   1
_chemical_formula_structural   Cr6Fe11Ni
_chemical_formula_sum   'Cr18 Fe33 Ni3'
_cell_volume   596.12487217
_cell_formula_units_Z   3
loop_
 _symmetry_equiv_pos_site_id
 _symmetry_equiv_pos_as_xyz
  1  'x, y, z'
loop_
 _atom_site_type_symbol
 _atom_site_label
 _atom_site_symmetry_multiplicity
 _atom_site_fract_x
 _atom_site_fract_y
 _atom_site_fract_z
 _atom_site_occupancy
  Cr  Cr0  1  0.99735098  -0.00158930  0.99606057  1
  Ni  Ni1  1  0.16303376  0.16630955  0.16507130  1
  Fe  Fe2  1  0.99755628  -0.00050223  0.32973635  1
  Fe  Fe3  1  -0.00097976  0.33074761  -0.00003046  1
  Fe  Fe4  1  0.16248553  0.49470291  0.16386260  1
  Fe  Fe5  1  -0.00081543  0.33058365  0.32927097  1
  Fe  Fe6  1  0.99723410  0.66391937  -0.00157598  1
  Cr  Cr7  1  0.16610553  0.83116074  0.16379630  1
  Fe  Fe8  1  0.99626536  0.66374856  0.33078932  1
  Fe  Fe9  1  0.33171579  -0.00005029  0.99780742  1
  Cr  Cr10  1  0.49750269  0.16052770  0.16311940  1
  Fe  Fe11  1  0.33043418  -0.00102324  0.33028460  1
  Fe  Fe12  1  0.32975635  0.32979909  0.99791170  1
  Fe  Fe13  1  0.49778277  0.49808637  0.16459980  1
  Cr  Cr14  1  0.32943810  0.33211862  0.33230632  1
  Cr  Cr15  1  0.33084758  0.66347603  -0.00114337  1
  Fe  Fe16  1  0.49961800  0.83299421  0.16519715  1
  Cr  Cr17  1  0.33259533  0.66314165  0.33120996  1
  Fe  Fe18  1  0.66489260  -0.00184030  -0.00168903  1
  Ni  Ni19  1  0.83292807  0.16554692  0.16490816  1
  Fe  Fe20  1  0.66583711  0.99605369  0.32975882  1
  Cr  Cr21  1  0.66400849  0.33030848  0.99727617  1
  Fe  Fe22  1  0.83355701  0.49710056  0.16516283  1
  Cr  Cr23  1  0.66509459  0.33253898  0.33038663  1
  Cr  Cr24  1  0.66475907  0.66457903  0.00031211  1
  Fe  Fe25  1  0.83054881  0.83283769  0.16574146  1
  Fe  Fe26  1  0.66550574  0.66557262  0.33002663  1
  Fe  Fe27  1  0.16451526  0.16558899  0.49837395  1
  Fe  Fe28  1  -0.00166423  -0.00133773  0.66589280  1
  Fe  Fe29  1  0.16564519  0.16447165  0.83083625  1
  Fe  Fe30  1  0.16517350  0.49628427  0.49970013  1
  Fe  Fe31  1  0.00101673  0.33013815  0.66458673  1
  Cr  Cr32  1  0.16293796  0.49795525  0.83163385  1
  Cr  Cr33  1  0.16480695  0.83126117  0.49957491  1
  Fe  Fe34  1  -0.00164757  0.66502530  0.66461528  1
  Fe  Fe35  1  0.16328800  0.83216623  0.83016427  1
  Cr  Cr36  1  0.49622953  0.16246370  0.49838412  1
  Fe  Fe37  1  0.33029529  0.00004949  0.66572763  1
  Fe  Fe38  1  0.49640873  0.16533653  0.83079237  1
  Fe  Fe39  1  0.49641758  0.49866509  0.49951398  1
  Ni  Ni40  1  0.33072781  0.33201261  0.66451897  1
  Fe  Fe41  1  0.49639949  0.49641842  0.82972445  1
  Cr  Cr42  1  0.49858915  0.83221608  0.49667713  1
  Fe  Fe43  1  0.33146775  0.66245792  0.66460112  1
  Cr  Cr44  1  0.49700406  0.83440496  0.83085467  1
  Cr  Cr45  1  0.83273427  0.16458141  0.49738119  1
  Fe  Fe46  1  0.66519423  0.99737629  0.66574541  1
  Fe  Fe47  1  0.83176299  0.16288668  0.83112743  1
  Cr  Cr48  1  0.83369394  0.49919441  0.49771548  1
  Cr  Cr49  1  0.66140145  0.33188270  0.66615373  1
  Cr  Cr50  1  0.83372588  0.49778094  0.83154151  1
  Fe  Fe51  1  0.83109564  0.83137512  0.49798232  1
  Fe  Fe52  1  0.66400937  0.66514892  0.66475472  1
  Fe  Fe53  1  0.83254433  0.83217868  0.83009980  1
" 