5964,Ni6Fe61Cr31_18,-221.59731302158, 165.028613656724,Ni6Fe61Cr31,"# generated using pymatgen
 data_Cr6Fe11Ni
_symmetry_space_group_name_H-M   'P 1'
_cell_length_a   7.50148446
_cell_length_b   7.50148446
_cell_length_c   10.60870106
_cell_angle_alpha   90.00000000
_cell_angle_beta   90.00000000
_cell_angle_gamma   90.00000000
_symmetry_Int_Tables_number   1
_chemical_formula_structural   Cr6Fe11Ni
_chemical_formula_sum   'Cr18 Fe33 Ni3'
_cell_volume   596.97568058
_cell_formula_units_Z   3
loop_
 _symmetry_equiv_pos_site_id
 _symmetry_equiv_pos_as_xyz
  1  'x, y, z'
loop_
 _atom_site_type_symbol
 _atom_site_label
 _atom_site_symmetry_multiplicity
 _atom_site_fract_x
 _atom_site_fract_y
 _atom_site_fract_z
 _atom_site_occupancy
  Cr  Cr0  1  0.99653045  0.99695621  -0.00034452  1
  Ni  Ni1  1  0.16694396  0.16644047  0.16613268  1
  Fe  Fe2  1  0.99735363  0.00072749  0.33057714  1
  Cr  Cr3  1  0.99692367  0.33011452  -0.00080401  1
  Fe  Fe4  1  0.16464650  0.49810691  0.16557511  1
  Fe  Fe5  1  -0.00097248  0.33063333  0.32945639  1
  Ni  Ni6  1  -0.00076630  0.66746447  -0.00170267  1
  Cr  Cr7  1  0.16625751  0.83332293  0.16656572  1
  Fe  Fe8  1  -0.00161511  0.66612323  0.33129561  1
  Fe  Fe9  1  0.33018454  -0.00121585  -0.00028425  1
  Fe  Fe10  1  0.49510417  0.16286485  0.16601716  1
  Fe  Fe11  1  0.33272615  0.00004080  0.33141501  1
  Fe  Fe12  1  0.32789282  0.33019413  -0.00026405  1
  Fe  Fe13  1  0.49396152  0.49698087  0.16568221  1
  Fe  Fe14  1  0.32967301  0.32999353  0.33144409  1
  Cr  Cr15  1  0.33039338  0.66283983  0.99488811  1
  Cr  Cr16  1  0.50106039  0.83105720  0.16406566  1
  Fe  Fe17  1  0.33246217  0.66312276  0.33218247  1
  Fe  Fe18  1  0.66556349  0.99473736  -0.00143656  1
  Fe  Fe19  1  0.83164273  0.16255328  0.16685601  1
  Fe  Fe20  1  0.66507057  0.99620795  0.33204252  1
  Cr  Cr21  1  0.66029954  0.32755660  -0.00000472  1
  Cr  Cr22  1  0.82994988  0.50280024  0.16473001  1
  Cr  Cr23  1  0.66208395  0.32767868  0.33157459  1
  Fe  Fe24  1  0.66686602  0.66555703  0.99682012  1
  Fe  Fe25  1  0.83284565  0.83299725  0.16639218  1
  Fe  Fe26  1  0.66399888  0.66524278  0.33273006  1
  Cr  Cr27  1  0.16498169  0.16382885  0.49921598  1
  Fe  Fe28  1  0.99504061  -0.00093031  0.66389229  1
  Cr  Cr29  1  0.16498648  0.16312679  0.82889556  1
  Fe  Fe30  1  0.16578313  0.49815624  0.49493115  1
  Fe  Fe31  1  -0.00160005  0.33265269  0.66433945  1
  Fe  Fe32  1  0.16417818  0.49778296  0.83161273  1
  Fe  Fe33  1  0.16478252  0.83224892  0.49375269  1
  Cr  Cr34  1  0.00146476  0.66960482  0.66484325  1
  Fe  Fe35  1  0.16461933  0.83222126  0.83190591  1
  Ni  Ni36  1  0.49667034  0.15951036  0.49640001  1
  Fe  Fe37  1  0.33296635  0.99570397  0.66246207  1
  Cr  Cr38  1  0.49521548  0.15926758  0.83253730  1
  Fe  Fe39  1  0.49648766  0.49594350  0.49476100  1
  Cr  Cr40  1  0.33400564  0.33444892  0.66338356  1
  Fe  Fe41  1  0.49751517  0.49592997  0.83168692  1
  Fe  Fe42  1  0.49719390  0.83188607  0.49436565  1
  Cr  Cr43  1  0.33026093  0.66639588  0.66259630  1
  Fe  Fe44  1  0.49853403  0.83000879  0.83191716  1
  Fe  Fe45  1  0.83068460  0.16212334  0.49667918  1
  Fe  Fe46  1  0.66298674  0.99515910  0.66246428  1
  Fe  Fe47  1  0.83011745  0.16253370  0.83025159  1
  Cr  Cr48  1  0.83351303  0.49916919  0.49733610  1
  Cr  Cr49  1  0.66458387  0.32586507  0.66216723  1
  Cr  Cr50  1  0.83150225  0.49970114  0.83116286  1
  Fe  Fe51  1  0.83114379  0.83478587  0.49617694  1
  Cr  Cr52  1  0.66087770  0.66417264  0.66313080  1
  Fe  Fe53  1  0.83047559  0.83365569  0.83158187  1
" 