3827,Ni6Fe20Cr72_14,-209.823846842426, 195.901220589442,Ni6Fe20Cr72,"# generated using pymatgen
 data_Cr40Fe11Ni3
_symmetry_space_group_name_H-M   'P 1'
_cell_length_a   7.56130608
_cell_length_b   7.56130608
_cell_length_c   10.69330161
_cell_angle_alpha   90.00000000
_cell_angle_beta   90.00000000
_cell_angle_gamma   90.00000000
_symmetry_Int_Tables_number   1
_chemical_formula_structural   Cr40Fe11Ni3
_chemical_formula_sum   'Cr40 Fe11 Ni3'
_cell_volume   611.37187263
_cell_formula_units_Z   1
loop_
 _symmetry_equiv_pos_site_id
 _symmetry_equiv_pos_as_xyz
  1  'x, y, z'
loop_
 _atom_site_type_symbol
 _atom_site_label
 _atom_site_symmetry_multiplicity
 _atom_site_fract_x
 _atom_site_fract_y
 _atom_site_fract_z
 _atom_site_occupancy
  Cr  Cr0  1  -0.00573725  -0.00487893  0.99164180  1
  Cr  Cr1  1  0.15943404  0.15912744  0.16335897  1
  Fe  Fe2  1  -0.00441995  0.99236629  0.32894842  1
  Cr  Cr3  1  -0.00528964  0.32894126  -0.00474857  1
  Fe  Fe4  1  0.15957913  0.49501594  0.16009485  1
  Cr  Cr5  1  -0.00518427  0.32963849  0.32721691  1
  Fe  Fe6  1  -0.00512108  0.65955261  -0.00501269  1
  Cr  Cr7  1  0.15941232  0.82516043  0.16120734  1
  Cr  Cr8  1  0.99313147  0.65792194  0.32869287  1
  Cr  Cr9  1  0.32766946  -0.00519185  0.99276829  1
  Cr  Cr10  1  0.49429492  0.16234399  0.16230776  1
  Fe  Fe11  1  0.32461720  0.99241281  0.32838670  1
  Cr  Cr12  1  0.32446496  0.32620040  0.99295060  1
  Cr  Cr13  1  0.49287021  0.49306652  0.15757358  1
  Cr  Cr14  1  0.32381121  0.32630033  0.32804710  1
  Fe  Fe15  1  0.32533507  0.66025651  -0.00549779  1
  Cr  Cr16  1  0.49104614  0.82581323  0.16108411  1
  Cr  Cr17  1  0.32553876  0.66110547  0.32957016  1
  Cr  Cr18  1  0.65942862  0.99267428  0.99329727  1
  Cr  Cr19  1  0.82742074  0.16136673  0.16109715  1
  Cr  Cr20  1  0.65902884  0.99175999  0.32564450  1
  Fe  Fe21  1  0.66120608  0.32690425  -0.00563768  1
  Fe  Fe22  1  0.82835957  0.49399701  0.15924444  1
  Cr  Cr23  1  0.66288646  0.32896073  0.32617824  1
  Cr  Cr24  1  0.66205218  0.66086561  -0.00419518  1
  Cr  Cr25  1  0.83080720  0.82695366  0.15988636  1
  Cr  Cr26  1  0.66279280  0.66072685  0.32793883  1
  Cr  Cr27  1  0.15840668  0.15761763  0.49240103  1
  Ni  Ni28  1  0.99369951  -0.00544410  0.65988701  1
  Fe  Fe29  1  0.15896466  0.15946741  0.82579556  1
  Ni  Ni30  1  0.15920302  0.49645611  0.49270971  1
  Cr  Cr31  1  -0.00463151  0.32675149  0.65919838  1
  Cr  Cr32  1  0.16169694  0.49587489  0.82994926  1
  Ni  Ni33  1  0.15783459  0.82647611  0.49280123  1
  Cr  Cr34  1  0.99354060  0.66010662  0.65738128  1
  Cr  Cr35  1  0.15825344  0.82632744  0.82786494  1
  Cr  Cr36  1  0.49562461  0.16184695  0.49304270  1
  Cr  Cr37  1  0.32573439  -0.00560001  0.66117534  1
  Cr  Cr38  1  0.49641666  0.16337525  0.82567793  1
  Cr  Cr39  1  0.49346250  0.49196759  0.49626435  1
  Cr  Cr40  1  0.32444060  0.32627042  0.66056314  1
  Cr  Cr41  1  0.49348550  0.49258076  0.82741275  1
  Cr  Cr42  1  0.49151993  0.82746107  0.49282492  1
  Cr  Cr43  1  0.32629546  0.66058457  0.65864618  1
  Cr  Cr44  1  0.49296148  0.82530769  0.82738862  1
  Cr  Cr45  1  0.82720783  0.15993462  0.49550383  1
  Fe  Fe46  1  0.66227882  -0.00548628  0.66031974  1
  Cr  Cr47  1  0.82724217  0.15991727  0.82418598  1
  Fe  Fe48  1  0.82945340  0.49343595  0.49425813  1
  Fe  Fe49  1  0.66176953  0.32628696  0.65973553  1
  Cr  Cr50  1  0.82610431  0.49241161  0.82784144  1
  Cr  Cr51  1  0.83125681  0.82982272  0.49528701  1
  Cr  Cr52  1  0.66164095  0.66138675  0.65762043  1
  Cr  Cr53  1  0.83012268  0.82892125  0.82564000  1
" 