2010,Ni6Fe9Cr83_1,-205.463245982289, 194.709778900588,Ni6Fe9Cr83,"# generated using pymatgen
 data_Cr46Fe5Ni3
_symmetry_space_group_name_H-M   'P 1'
_cell_length_a   7.58979637
_cell_length_b   7.58979637
_cell_length_c   10.73359296
_cell_angle_alpha   90.00000000
_cell_angle_beta   90.00000000
_cell_angle_gamma   90.00000000
_symmetry_Int_Tables_number   1
_chemical_formula_structural   Cr46Fe5Ni3
_chemical_formula_sum   'Cr46 Fe5 Ni3'
_cell_volume   618.30871822
_cell_formula_units_Z   1
loop_
 _symmetry_equiv_pos_site_id
 _symmetry_equiv_pos_as_xyz
  1  'x, y, z'
loop_
 _atom_site_type_symbol
 _atom_site_label
 _atom_site_symmetry_multiplicity
 _atom_site_fract_x
 _atom_site_fract_y
 _atom_site_fract_z
 _atom_site_occupancy
  Cr  Cr0  1  -0.00720038  -0.00804297  0.99126638  1
  Cr  Cr1  1  0.15902896  0.15942413  0.15733511  1
  Cr  Cr2  1  0.99063209  -0.00764010  0.32487009  1
  Cr  Cr3  1  0.99144125  0.32537490  -0.00711026  1
  Cr  Cr4  1  0.15947820  0.49160361  0.15869835  1
  Cr  Cr5  1  0.99152394  0.32570888  0.32547504  1
  Cr  Cr6  1  -0.00748618  0.65840959  -0.00710979  1
  Cr  Cr7  1  0.15903113  0.82471243  0.15844300  1
  Cr  Cr8  1  -0.00804040  0.65767229  0.32428994  1
  Cr  Cr9  1  0.32501228  -0.00805167  -0.00768621  1
  Cr  Cr10  1  0.49286014  0.15885361  0.15861545  1
  Cr  Cr11  1  0.32759460  -0.00763396  0.32563421  1
  Fe  Fe12  1  0.32770156  0.32668832  0.99109040  1
  Cr  Cr13  1  0.49144835  0.49120934  0.15610423  1
  Cr  Cr14  1  0.32524279  0.32424854  0.32624063  1
  Fe  Fe15  1  0.32649347  0.65671973  0.99109045  1
  Cr  Cr16  1  0.49246371  0.82567675  0.15976800  1
  Cr  Cr17  1  0.32479922  0.65912570  0.32504952  1
  Cr  Cr18  1  0.65792922  -0.00698107  -0.00729219  1
  Cr  Cr19  1  0.82385609  0.15841092  0.15864571  1
  Ni  Ni20  1  0.65830558  -0.00690832  0.32644607  1
  Ni  Ni21  1  0.65601852  0.32684335  0.99078500  1
  Cr  Cr22  1  0.82481657  0.49120316  0.15853191  1
  Cr  Cr23  1  0.65897494  0.32291705  0.32683243  1
  Cr  Cr24  1  0.65725870  0.65639054  0.99045662  1
  Cr  Cr25  1  0.82424998  0.82612593  0.15980469  1
  Cr  Cr26  1  0.65898128  0.66002067  0.32518777  1
  Cr  Cr27  1  0.15819352  0.15853141  0.49310920  1
  Fe  Fe28  1  0.99160890  -0.00775105  0.65828172  1
  Cr  Cr29  1  0.15822152  0.15827922  0.82529022  1
  Cr  Cr30  1  0.15863905  0.49132676  0.49116216  1
  Cr  Cr31  1  0.99133782  0.32420096  0.65737319  1
  Cr  Cr32  1  0.16130920  0.49160373  0.82588063  1
  Cr  Cr33  1  0.15818764  0.82588283  0.49311013  1
  Cr  Cr34  1  0.99177648  0.65917619  0.65856006  1
  Cr  Cr35  1  0.15822330  0.82585757  0.82418198  1
  Fe  Fe36  1  0.49336153  0.15773933  0.49108928  1
  Cr  Cr37  1  0.32482480  -0.00763672  0.65779406  1
  Cr  Cr38  1  0.49207905  0.16146858  0.82674482  1
  Cr  Cr39  1  0.49186279  0.49104148  0.49231219  1
  Cr  Cr40  1  0.32623416  0.32487915  0.65846891  1
  Ni  Ni41  1  0.49156844  0.49100019  0.82740003  1
  Cr  Cr42  1  0.49299025  0.82684329  0.49038119  1
  Cr  Cr43  1  0.32579474  0.65849820  0.65965568  1
  Cr  Cr44  1  0.49167877  0.82305962  0.82559353  1
  Fe  Fe45  1  0.82411255  0.15743811  0.49141748  1
  Cr  Cr46  1  0.65884516  -0.00719711  0.65726584  1
  Cr  Cr47  1  0.82544097  0.15838838  0.82511000  1
  Cr  Cr48  1  0.82523888  0.49104955  0.49150935  1
  Cr  Cr49  1  0.65816960  0.32517044  0.65844935  1
  Cr  Cr50  1  0.82264701  0.49120287  0.82569925  1
  Cr  Cr51  1  0.82456291  0.82728346  0.49198317  1
  Cr  Cr52  1  0.65816920  0.65776550  0.66009629  1
  Cr  Cr53  1  0.82583877  0.82614931  0.82395036  1
" 