8340,Ni6Fe17Cr75_3,-208.5155514077, 192.071752396649,Ni6Fe17Cr75,"# generated using pymatgen
 data_Cr14Fe3Ni
_symmetry_space_group_name_H-M   'P 1'
_cell_length_a   7.57344903
_cell_length_b   7.57344903
_cell_length_c   10.71047434
_cell_angle_alpha   90.00000000
_cell_angle_beta   90.00000000
_cell_angle_gamma   90.00000000
_symmetry_Int_Tables_number   1
_chemical_formula_structural   Cr14Fe3Ni
_chemical_formula_sum   'Cr42 Fe9 Ni3'
_cell_volume   614.32207192
_cell_formula_units_Z   3
loop_
 _symmetry_equiv_pos_site_id
 _symmetry_equiv_pos_as_xyz
  1  'x, y, z'
loop_
 _atom_site_type_symbol
 _atom_site_label
 _atom_site_symmetry_multiplicity
 _atom_site_fract_x
 _atom_site_fract_y
 _atom_site_fract_z
 _atom_site_occupancy
  Cr  Cr0  1  -0.00679245  -0.00589811  0.99150264  1
  Cr  Cr1  1  0.15852450  0.16137169  0.16034039  1
  Cr  Cr2  1  -0.00578832  0.99270142  0.32738361  1
  Ni  Ni3  1  -0.00647920  0.32864231  -0.00670345  1
  Cr  Cr4  1  0.15851437  0.49305116  0.15737266  1
  Cr  Cr5  1  0.99173587  0.32840695  0.32505725  1
  Cr  Cr6  1  -0.00624777  0.65648822  -0.00642677  1
  Cr  Cr7  1  0.16043875  0.82449872  0.15977113  1
  Cr  Cr8  1  0.99106601  0.65781732  0.32620462  1
  Cr  Cr9  1  0.32705053  0.99221978  -0.00595151  1
  Cr  Cr10  1  0.49381060  0.15981804  0.16013069  1
  Cr  Cr11  1  0.32729775  0.99269338  0.32689532  1
  Cr  Cr12  1  0.32486218  0.32800269  0.99114858  1
  Cr  Cr13  1  0.49293926  0.49372870  0.15888674  1
  Cr  Cr14  1  0.32694847  0.32559388  0.32739387  1
  Fe  Fe15  1  0.32581053  0.65830115  0.99163955  1
  Cr  Cr16  1  0.49257245  0.82537843  0.15893287  1
  Cr  Cr17  1  0.32762205  0.66064259  0.32683285  1
  Cr  Cr18  1  0.65866809  0.99279726  -0.00672642  1
  Cr  Cr19  1  0.82659240  0.16174288  0.15807316  1
  Cr  Cr20  1  0.65741801  0.99202619  0.32579240  1
  Cr  Cr21  1  0.66088830  0.32745087  -0.00615626  1
  Fe  Fe22  1  0.82729074  0.49199431  0.15857364  1
  Cr  Cr23  1  0.66024218  0.32873662  0.32627932  1
  Cr  Cr24  1  0.65900502  0.65867898  -0.00637419  1
  Cr  Cr25  1  0.82591483  0.82536925  0.15924540  1
  Cr  Cr26  1  0.66023328  0.65816877  0.32805495  1
  Cr  Cr27  1  0.16002365  0.16085657  0.49234373  1
  Cr  Cr28  1  -0.00692170  0.99287905  0.66004038  1
  Cr  Cr29  1  0.15877581  0.16278699  0.82623970  1
  Cr  Cr30  1  0.16133750  0.49323091  0.49402476  1
  Cr  Cr31  1  -0.00694658  0.32761418  0.66007520  1
  Fe  Fe32  1  0.16125397  0.49299395  0.82629487  1
  Cr  Cr33  1  0.16145109  0.82484040  0.49245695  1
  Cr  Cr34  1  -0.00685484  0.65843272  0.65914141  1
  Cr  Cr35  1  0.16080885  0.82287508  0.82669626  1
  Cr  Cr36  1  0.49324356  0.16109523  0.49307749  1
  Cr  Cr37  1  0.32719517  0.99212908  0.65798704  1
  Cr  Cr38  1  0.49381606  0.16244022  0.82571618  1
  Fe  Fe39  1  0.49320459  0.49554643  0.49513298  1
  Fe  Fe40  1  0.32745260  0.32944972  0.66004959  1
  Fe  Fe41  1  0.49117701  0.49397465  0.82457852  1
  Ni  Ni42  1  0.49353263  0.82220772  0.49447980  1
  Ni  Ni43  1  0.33037187  0.65640133  0.66020146  1
  Cr  Cr44  1  0.49245224  0.82256652  0.82681428  1
  Cr  Cr45  1  0.82565739  0.16120222  0.49402166  1
  Cr  Cr46  1  0.65865388  0.99222247  0.65986362  1
  Cr  Cr47  1  0.82633403  0.16068951  0.82683080  1
  Fe  Fe48  1  0.82420346  0.49344549  0.49385492  1
  Fe  Fe49  1  0.65793851  0.32885040  0.65923910  1
  Cr  Cr50  1  0.82601008  0.49189930  0.82640229  1
  Cr  Cr51  1  0.82436053  0.82462496  0.49411120  1
  Fe  Fe52  1  0.65633832  0.65865343  0.65825131  1
  Cr  Cr53  1  0.82566158  0.82633776  0.82557118  1
" 