4491,Ni6Fe23Cr70_19,-210.832584411358, 193.397769812221,Ni6Fe23Cr70,"# generated using pymatgen
 data_Cr13Fe4Ni
_symmetry_space_group_name_H-M   'P 1'
_cell_length_a   7.56856759
_cell_length_b   7.56856759
_cell_length_c   10.70357093
_cell_angle_alpha   90.00000000
_cell_angle_beta   90.00000000
_cell_angle_gamma   90.00000000
_symmetry_Int_Tables_number   1
_chemical_formula_structural   Cr13Fe4Ni
_chemical_formula_sum   'Cr39 Fe12 Ni3'
_cell_volume   613.13495844
_cell_formula_units_Z   3
loop_
 _symmetry_equiv_pos_site_id
 _symmetry_equiv_pos_as_xyz
  1  'x, y, z'
loop_
 _atom_site_type_symbol
 _atom_site_label
 _atom_site_symmetry_multiplicity
 _atom_site_fract_x
 _atom_site_fract_y
 _atom_site_fract_z
 _atom_site_occupancy
  Cr  Cr0  1  0.99144643  0.99266977  -0.00353432  1
  Cr  Cr1  1  0.15812090  0.15898899  0.16371150  1
  Fe  Fe2  1  -0.00655498  0.99118449  0.32867932  1
  Cr  Cr3  1  -0.00628279  0.32604431  -0.00562254  1
  Cr  Cr4  1  0.15956070  0.49280999  0.15847171  1
  Cr  Cr5  1  0.99280827  0.32414625  0.32649643  1
  Cr  Cr6  1  -0.00567407  0.66095874  0.99077254  1
  Cr  Cr7  1  0.15995615  0.82698631  0.15949830  1
  Cr  Cr8  1  0.99270710  0.66252157  0.32834173  1
  Cr  Cr9  1  0.32587950  -0.00649480  0.99046928  1
  Cr  Cr10  1  0.49347729  0.15866949  0.15853744  1
  Cr  Cr11  1  0.32399380  0.99287335  0.33054147  1
  Cr  Cr12  1  0.32641689  0.32690013  0.98973167  1
  Cr  Cr13  1  0.49301380  0.49387693  0.16252576  1
  Cr  Cr14  1  0.32519560  0.32423697  0.32820687  1
  Cr  Cr15  1  0.32573579  0.65990680  0.99074430  1
  Cr  Cr16  1  0.49435516  0.82715404  0.15956861  1
  Cr  Cr17  1  0.32459489  0.66231022  0.32612745  1
  Fe  Fe18  1  0.66040984  0.99281900  -0.00661408  1
  Fe  Fe19  1  0.82571977  0.15855806  0.15986172  1
  Cr  Cr20  1  0.66326168  0.99222075  0.32408946  1
  Cr  Cr21  1  0.65956522  0.32497346  0.99101264  1
  Cr  Cr22  1  0.82731605  0.49260657  0.16067674  1
  Cr  Cr23  1  0.66169041  0.32592944  0.32955632  1
  Cr  Cr24  1  0.66083777  0.66096630  -0.00570493  1
  Fe  Fe25  1  0.82785566  0.82690656  0.15983100  1
  Cr  Cr26  1  0.66337226  0.66150810  0.32973564  1
  Fe  Fe27  1  0.15913252  0.15797252  0.49581887  1
  Fe  Fe28  1  -0.00590304  0.99192826  0.65933324  1
  Cr  Cr29  1  0.15870117  0.15821621  0.82354857  1
  Cr  Cr30  1  0.15917049  0.49511266  0.49248417  1
  Cr  Cr31  1  -0.00646375  0.32752813  0.65916681  1
  Fe  Fe32  1  0.15965644  0.49405410  0.82517593  1
  Ni  Ni33  1  0.15464026  0.83141059  0.49788145  1
  Fe  Fe34  1  -0.00521091  0.66269824  0.65787140  1
  Fe  Fe35  1  0.15815004  0.82765488  0.82376755  1
  Cr  Cr36  1  0.49216073  0.15751163  0.49613095  1
  Ni  Ni37  1  0.32153909  0.99136717  0.66055609  1
  Fe  Fe38  1  0.49257361  0.15870610  0.82469312  1
  Cr  Cr39  1  0.49495301  0.49401288  0.49099596  1
  Cr  Cr40  1  0.32658910  0.32466655  0.66128890  1
  Fe  Fe41  1  0.49476582  0.49426304  0.82540312  1
  Cr  Cr42  1  0.49011190  0.82784109  0.49282239  1
  Cr  Cr43  1  0.32483299  0.66165957  0.66184738  1
  Cr  Cr44  1  0.49286584  0.82796286  0.82688841  1
  Cr  Cr45  1  0.82951180  0.15910984  0.49432154  1
  Cr  Cr46  1  0.65939582  0.99295534  0.66123342  1
  Cr  Cr47  1  0.82679710  0.15912897  0.82844999  1
  Ni  Ni48  1  0.83158918  0.49447636  0.49458354  1
  Cr  Cr49  1  0.66075028  0.32743055  0.65955696  1
  Cr  Cr50  1  0.82881429  0.49401592  0.82346734  1
  Fe  Fe51  1  0.82904283  0.82719851  0.49479903  1
  Cr  Cr52  1  0.66285654  0.65990345  0.65511454  1
  Cr  Cr53  1  0.82803682  0.82682182  0.82492639  1
" 