2009,Ni6Fe20Cr73_11,-209.900075942043, 194.502296747247,Ni6Fe20Cr73,"# generated using pymatgen
 data_Cr40Fe11Ni3
_symmetry_space_group_name_H-M   'P 1'
_cell_length_a   7.57458707
_cell_length_b   7.57458707
_cell_length_c   10.71208377
_cell_angle_alpha   90.00000000
_cell_angle_beta   90.00000000
_cell_angle_gamma   90.00000000
_symmetry_Int_Tables_number   1
_chemical_formula_structural   Cr40Fe11Ni3
_chemical_formula_sum   'Cr40 Fe11 Ni3'
_cell_volume   614.59904997
_cell_formula_units_Z   1
loop_
 _symmetry_equiv_pos_site_id
 _symmetry_equiv_pos_as_xyz
  1  'x, y, z'
loop_
 _atom_site_type_symbol
 _atom_site_label
 _atom_site_symmetry_multiplicity
 _atom_site_fract_x
 _atom_site_fract_y
 _atom_site_fract_z
 _atom_site_occupancy
  Cr  Cr0  1  -0.00575598  0.99162012  -0.00707735  1
  Fe  Fe1  1  0.16001233  0.15919571  0.15964338  1
  Cr  Cr2  1  -0.00424645  0.99200513  0.32693230  1
  Fe  Fe3  1  0.99255361  0.32659403  -0.00671678  1
  Cr  Cr4  1  0.15885055  0.49276121  0.15873888  1
  Cr  Cr5  1  -0.00597116  0.32699655  0.32703020  1
  Cr  Cr6  1  0.99030883  0.65942834  -0.00696199  1
  Fe  Fe7  1  0.15885902  0.82692510  0.15950336  1
  Cr  Cr8  1  0.99287183  0.65970158  0.32573884  1
  Cr  Cr9  1  0.32529797  -0.00540198  -0.00439799  1
  Fe  Fe10  1  0.49217500  0.15962454  0.15955751  1
  Cr  Cr11  1  0.32479608  -0.00616576  0.32528325  1
  Cr  Cr12  1  0.32606059  0.32369352  -0.00610332  1
  Cr  Cr13  1  0.49277208  0.49293098  0.15999127  1
  Cr  Cr14  1  0.32546055  0.32411078  0.32685997  1
  Cr  Cr15  1  0.32529221  0.66041661  0.99274367  1
  Cr  Cr16  1  0.49285986  0.82650201  0.15991323  1
  Cr  Cr17  1  0.32477889  0.66076639  0.32856636  1
  Cr  Cr18  1  0.65916224  0.99239298  0.99186130  1
  Cr  Cr19  1  0.82706258  0.15936687  0.16026584  1
  Cr  Cr20  1  0.65815506  0.99267783  0.32642395  1
  Cr  Cr21  1  0.66013982  0.32763820  -0.00687050  1
  Fe  Fe22  1  0.82653695  0.49328627  0.15927651  1
  Cr  Cr23  1  0.65921524  0.32698912  0.32501744  1
  Cr  Cr24  1  0.66310067  0.65867424  0.99197122  1
  Fe  Fe25  1  0.82696466  0.82542852  0.15914391  1
  Cr  Cr26  1  0.66104891  0.65903737  0.32524635  1
  Ni  Ni27  1  0.16052942  0.16070997  0.49276933  1
  Cr  Cr28  1  -0.00577724  0.99225054  0.65885440  1
  Cr  Cr29  1  0.15805164  0.16126896  0.82717815  1
  Ni  Ni30  1  0.16192118  0.49265952  0.49413866  1
  Cr  Cr31  1  -0.00530041  0.32718259  0.65896318  1
  Cr  Cr32  1  0.16031708  0.49255659  0.82540401  1
  Fe  Fe33  1  0.16064851  0.82587687  0.49327845  1
  Cr  Cr34  1  -0.00656363  0.65927052  0.65991477  1
  Cr  Cr35  1  0.15875256  0.82487735  0.82654087  1
  Cr  Cr36  1  0.49253130  0.15911300  0.49278799  1
  Cr  Cr37  1  0.32542326  -0.00687484  0.65782292  1
  Cr  Cr38  1  0.49353163  0.16002501  0.82668418  1
  Cr  Cr39  1  0.48919086  0.49476813  0.49381002  1
  Fe  Fe40  1  0.32451795  0.32692841  0.65785851  1
  Cr  Cr41  1  0.49125700  0.49380101  0.82490539  1
  Fe  Fe42  1  0.49095968  0.82588054  0.49322088  1
  Fe  Fe43  1  0.32538620  0.65870952  0.65800430  1
  Cr  Cr44  1  0.49407727  0.82487834  0.82509922  1
  Cr  Cr45  1  0.82777873  0.15817524  0.49305827  1
  Cr  Cr46  1  0.65905852  0.99185460  0.66041683  1
  Cr  Cr47  1  0.82711710  0.15844903  0.82538292  1
  Cr  Cr48  1  0.82776469  0.49236092  0.49111458  1
  Cr  Cr49  1  0.65896548  0.32718765  0.66054734  1
  Fe  Fe50  1  0.82659619  0.49424418  0.82655264  1
  Cr  Cr51  1  0.82586753  0.82816613  0.49196042  1
  Cr  Cr52  1  0.65984137  0.65966262  0.66147171  1
  Ni  Ni53  1  0.82586431  0.82549146  0.82734938  1
" 