4224,Ni6Fe23Cr70_2,-210.536341777912, 189.568819128884,Ni6Fe23Cr70,"# generated using pymatgen
 data_Cr13Fe4Ni
_symmetry_space_group_name_H-M   'P 1'
_cell_length_a   7.56808604
_cell_length_b   7.56808604
_cell_length_c   10.70288991
_cell_angle_alpha   90.00000000
_cell_angle_beta   90.00000000
_cell_angle_gamma   90.00000000
_symmetry_Int_Tables_number   1
_chemical_formula_structural   Cr13Fe4Ni
_chemical_formula_sum   'Cr39 Fe12 Ni3'
_cell_volume   613.01793336
_cell_formula_units_Z   3
loop_
 _symmetry_equiv_pos_site_id
 _symmetry_equiv_pos_as_xyz
  1  'x, y, z'
loop_
 _atom_site_type_symbol
 _atom_site_label
 _atom_site_symmetry_multiplicity
 _atom_site_fract_x
 _atom_site_fract_y
 _atom_site_fract_z
 _atom_site_occupancy
  Fe  Fe0  1  -0.00540923  -0.00571559  -0.00555662  1
  Fe  Fe1  1  0.15769739  0.15953791  0.16223785  1
  Ni  Ni2  1  -0.00540890  0.99156902  0.32496258  1
  Cr  Cr3  1  0.99324576  0.32776694  0.99208182  1
  Cr  Cr4  1  0.16004085  0.49224011  0.16456994  1
  Fe  Fe5  1  -0.00643893  0.32406127  0.32649959  1
  Cr  Cr6  1  0.99219877  0.65995210  0.99042606  1
  Cr  Cr7  1  0.15792662  0.82611623  0.16055398  1
  Fe  Fe8  1  0.99137007  0.66180529  0.32808613  1
  Cr  Cr9  1  0.32416630  -0.00568244  -0.00629899  1
  Cr  Cr10  1  0.49375647  0.16113351  0.16054954  1
  Cr  Cr11  1  0.32460135  -0.00567817  0.32544614  1
  Cr  Cr12  1  0.32590007  0.32558460  -0.00322040  1
  Cr  Cr13  1  0.49273203  0.49569622  0.16203839  1
  Fe  Fe14  1  0.32509816  0.32605947  0.32728614  1
  Cr  Cr15  1  0.32454747  0.65981894  0.99269915  1
  Cr  Cr16  1  0.49493977  0.82345232  0.15861440  1
  Fe  Fe17  1  0.32680852  0.66007047  0.32768650  1
  Cr  Cr18  1  0.66061301  -0.00603938  -0.00557781  1
  Cr  Cr19  1  0.83041640  0.15907847  0.15984678  1
  Cr  Cr20  1  0.66250750  0.99295791  0.32873529  1
  Cr  Cr21  1  0.66091073  0.32830780  0.99133024  1
  Cr  Cr22  1  0.82673748  0.49432865  0.15994299  1
  Cr  Cr23  1  0.65890863  0.32894363  0.32867153  1
  Fe  Fe24  1  0.66139664  0.65835907  0.99241468  1
  Cr  Cr25  1  0.82704576  0.82695457  0.16057554  1
  Fe  Fe26  1  0.66187548  0.66067847  0.32889430  1
  Cr  Cr27  1  0.15787145  0.16093743  0.49369679  1
  Cr  Cr28  1  -0.00612550  0.99070486  0.65978908  1
  Cr  Cr29  1  0.15880192  0.15978533  0.82409600  1
  Cr  Cr30  1  0.15862720  0.49279963  0.49096473  1
  Fe  Fe31  1  0.99224999  0.32790572  0.66015767  1
  Cr  Cr32  1  0.15765148  0.49215424  0.82467517  1
  Cr  Cr33  1  0.15962598  0.82600659  0.49371474  1
  Cr  Cr34  1  0.99105975  0.65741486  0.65995068  1
  Cr  Cr35  1  0.16107464  0.82790296  0.82496770  1
  Cr  Cr36  1  0.49262710  0.16008295  0.49648559  1
  Ni  Ni37  1  0.32509534  -0.00610354  0.65959204  1
  Cr  Cr38  1  0.49322102  0.15821133  0.82341415  1
  Fe  Fe39  1  0.49296294  0.49393475  0.49159036  1
  Cr  Cr40  1  0.32736686  0.32654633  0.65941219  1
  Cr  Cr41  1  0.49503521  0.49485527  0.82893607  1
  Cr  Cr42  1  0.49343730  0.82471916  0.49426954  1
  Cr  Cr43  1  0.32532883  0.66099769  0.66024655  1
  Cr  Cr44  1  0.49318599  0.82697624  0.82667227  1
  Cr  Cr45  1  0.82944834  0.16089129  0.49381389  1
  Cr  Cr46  1  0.65950336  0.99299566  0.65724639  1
  Cr  Cr47  1  0.82808356  0.16187235  0.82609475  1
  Fe  Fe48  1  0.82723858  0.49439197  0.49215720  1
  Cr  Cr49  1  0.66279987  0.32933605  0.66013710  1
  Ni  Ni50  1  0.82697412  0.49318598  0.82528867  1
  Fe  Fe51  1  0.82911470  0.82569911  0.49036550  1
  Cr  Cr52  1  0.66351685  0.65777127  0.65856632  1
  Cr  Cr53  1  0.82557300  0.82620117  0.82973713  1
" 