2488,Ni6Fe17Cr75_9,-208.787144416338, 197.514591785513,Ni6Fe17Cr75,"# generated using pymatgen
 data_Cr14Fe3Ni
_symmetry_space_group_name_H-M   'P 1'
_cell_length_a   7.57568598
_cell_length_b   7.57568598
_cell_length_c   10.71363785
_cell_angle_alpha   90.00000000
_cell_angle_beta   90.00000000
_cell_angle_gamma   90.00000000
_symmetry_Int_Tables_number   1
_chemical_formula_structural   Cr14Fe3Ni
_chemical_formula_sum   'Cr42 Fe9 Ni3'
_cell_volume   614.86658304
_cell_formula_units_Z   3
loop_
 _symmetry_equiv_pos_site_id
 _symmetry_equiv_pos_as_xyz
  1  'x, y, z'
loop_
 _atom_site_type_symbol
 _atom_site_label
 _atom_site_symmetry_multiplicity
 _atom_site_fract_x
 _atom_site_fract_y
 _atom_site_fract_z
 _atom_site_occupancy
  Fe  Fe0  1  -0.00653580  0.99179511  0.99077278  1
  Cr  Cr1  1  0.16041563  0.15965923  0.15877754  1
  Cr  Cr2  1  -0.00706418  0.99200155  0.32745892  1
  Cr  Cr3  1  0.99271746  0.32730724  0.99166001  1
  Cr  Cr4  1  0.16035435  0.49246104  0.15916512  1
  Cr  Cr5  1  0.99148458  0.32618021  0.32656976  1
  Cr  Cr6  1  -0.00539938  0.66096117  0.99166557  1
  Cr  Cr7  1  0.16007751  0.82647792  0.15941025  1
  Cr  Cr8  1  -0.00524664  0.66046962  0.32686398  1
  Cr  Cr9  1  0.32551384  0.99063726  0.99027988  1
  Cr  Cr10  1  0.49013408  0.15862355  0.16029909  1
  Cr  Cr11  1  0.32478818  0.99140394  0.32903313  1
  Cr  Cr12  1  0.32774051  0.32837194  -0.00693699  1
  Ni  Ni13  1  0.49014244  0.49335476  0.16046276  1
  Fe  Fe14  1  0.32655483  0.32783250  0.32599785  1
  Cr  Cr15  1  0.32597952  0.65864218  0.98936148  1
  Cr  Cr16  1  0.49266426  0.82494948  0.15888501  1
  Cr  Cr17  1  0.32582378  0.65811414  0.32694211  1
  Cr  Cr18  1  0.66046588  -0.00715563  0.99155687  1
  Cr  Cr19  1  0.82775450  0.15853043  0.15703721  1
  Cr  Cr20  1  0.66043878  -0.00553448  0.32621350  1
  Cr  Cr21  1  0.65840513  0.32692460  -0.00507972  1
  Cr  Cr22  1  0.82632882  0.49468138  0.15981418  1
  Cr  Cr23  1  0.65764947  0.32668264  0.32449122  1
  Cr  Cr24  1  0.65836781  0.65805533  0.99214659  1
  Cr  Cr25  1  0.82597309  0.82533693  0.15809989  1
  Cr  Cr26  1  0.65824706  0.65718370  0.32529916  1
  Cr  Cr27  1  0.16032203  0.16189122  0.49346327  1
  Cr  Cr28  1  -0.00647135  0.99279565  0.65878729  1
  Cr  Cr29  1  0.15964121  0.16118519  0.82628722  1
  Cr  Cr30  1  0.15983311  0.49210190  0.49378672  1
  Ni  Ni31  1  -0.00521823  0.32773789  0.66084377  1
  Fe  Fe32  1  0.15920221  0.49238679  0.82509173  1
  Fe  Fe33  1  0.15936644  0.82540289  0.49338338  1
  Cr  Cr34  1  -0.00555086  0.66053636  0.65934674  1
  Fe  Fe35  1  0.15791101  0.82653317  0.82612386  1
  Cr  Cr36  1  0.49089839  0.15936678  0.49230057  1
  Cr  Cr37  1  0.32510749  0.99057034  0.65935020  1
  Cr  Cr38  1  0.49166837  0.15756055  0.82578449  1
  Fe  Fe39  1  0.49355287  0.49343608  0.49361747  1
  Cr  Cr40  1  0.32696765  0.32789150  0.66028377  1
  Fe  Fe41  1  0.49411783  0.49267281  0.82589823  1
  Cr  Cr42  1  0.49312307  0.82383343  0.49435088  1
  Cr  Cr43  1  0.32655150  0.65939832  0.66238087  1
  Fe  Fe44  1  0.49491847  0.82404102  0.82517268  1
  Cr  Cr45  1  0.82696576  0.16143505  0.49575183  1
  Cr  Cr46  1  0.65929272  0.99209189  0.65994262  1
  Cr  Cr47  1  0.82733951  0.16077778  0.82529467  1
  Cr  Cr48  1  0.82616369  0.49429869  0.49578789  1
  Cr  Cr49  1  0.65927760  0.32749174  0.65927294  1
  Cr  Cr50  1  0.82745401  0.49515234  0.82309803  1
  Cr  Cr51  1  0.82335107  0.82308463  0.49360989  1
  Ni  Ni52  1  0.65762335  0.65913236  0.66240481  1
  Fe  Fe53  1  0.82562477  0.82605509  0.82514623  1
" 