8725,Ni6Fe61Cr31_13,-221.862497760371, 162.926607286944,Ni6Fe61Cr31,"# generated using pymatgen
 data_Cr6Fe11Ni
_symmetry_space_group_name_H-M   'P 1'
_cell_length_a   7.50464681
_cell_length_b   7.50464681
_cell_length_c   10.61317330
_cell_angle_alpha   90.00000000
_cell_angle_beta   90.00000000
_cell_angle_gamma   90.00000000
_symmetry_Int_Tables_number   1
_chemical_formula_structural   Cr6Fe11Ni
_chemical_formula_sum   'Cr18 Fe33 Ni3'
_cell_volume   597.73098856
_cell_formula_units_Z   3
loop_
 _symmetry_equiv_pos_site_id
 _symmetry_equiv_pos_as_xyz
  1  'x, y, z'
loop_
 _atom_site_type_symbol
 _atom_site_label
 _atom_site_symmetry_multiplicity
 _atom_site_fract_x
 _atom_site_fract_y
 _atom_site_fract_z
 _atom_site_occupancy
  Fe  Fe0  1  -0.00235169  -0.00190051  0.99726521  1
  Fe  Fe1  1  0.16546012  0.16383326  0.16363819  1
  Fe  Fe2  1  0.99712571  0.00184084  0.33110210  1
  Cr  Cr3  1  0.99631832  0.33037942  0.99606569  1
  Cr  Cr4  1  0.16432173  0.49555551  0.16353527  1
  Fe  Fe5  1  0.99674691  0.32932107  0.33120954  1
  Cr  Cr6  1  -0.00189057  0.66696508  0.99420448  1
  Cr  Cr7  1  0.16516067  0.83461640  0.16630922  1
  Cr  Cr8  1  -0.00157537  0.66616231  0.33263827  1
  Ni  Ni9  1  0.33196234  0.99704972  0.99731920  1
  Fe  Fe10  1  0.49454135  0.16485502  0.16568685  1
  Fe  Fe11  1  0.33150153  0.00246588  0.33084845  1
  Fe  Fe12  1  0.33032010  0.32770399  -0.00162200  1
  Fe  Fe13  1  0.49636947  0.49604250  0.16553434  1
  Fe  Fe14  1  0.33198676  0.32954355  0.33226916  1
  Cr  Cr15  1  0.32894644  0.66465522  0.99523765  1
  Cr  Cr16  1  0.49769120  0.83007755  0.16433764  1
  Fe  Fe17  1  0.33385956  0.66103855  0.33141772  1
  Fe  Fe18  1  0.66523034  0.99497002  -0.00192986  1
  Fe  Fe19  1  0.83187614  0.16248632  0.16626624  1
  Cr  Cr20  1  0.66380117  -0.00033735  0.33220494  1
  Cr  Cr21  1  0.66322001  0.32626758  0.00028945  1
  Cr  Cr22  1  0.82785104  0.49753823  0.16634903  1
  Ni  Ni23  1  0.66153833  0.33040498  0.33189342  1
  Fe  Fe24  1  0.66453693  0.66647741  0.99724366  1
  Fe  Fe25  1  0.83113088  0.83235665  0.16423790  1
  Fe  Fe26  1  0.66310050  0.66282333  0.33263281  1
  Fe  Fe27  1  0.16695920  0.16536124  0.49822764  1
  Fe  Fe28  1  0.99683561  0.99649765  0.66435134  1
  Cr  Cr29  1  0.16387724  0.16369228  0.83015133  1
  Fe  Fe30  1  0.16560076  0.49498113  0.49762745  1
  Fe  Fe31  1  -0.00004725  0.33213435  0.66346722  1
  Fe  Fe32  1  0.16518404  0.49698268  0.82764740  1
  Cr  Cr33  1  0.16562535  0.83333268  0.49592040  1
  Fe  Fe34  1  -0.00202801  0.66467180  0.66287015  1
  Fe  Fe35  1  0.16579891  0.83255203  0.82806069  1
  Ni  Ni36  1  0.49623386  0.16443249  0.49797715  1
  Fe  Fe37  1  0.33156686  -0.00131932  0.66391717  1
  Cr  Cr38  1  0.49726969  0.16141281  0.83063238  1
  Fe  Fe39  1  0.49690291  0.49564966  0.49678005  1
  Fe  Fe40  1  0.33021713  0.33116211  0.66218299  1
  Cr  Cr41  1  0.49800701  0.49771141  0.83322776  1
  Cr  Cr42  1  0.49626103  0.83067461  0.49889592  1
  Fe  Fe43  1  0.33032955  0.66289282  0.66495398  1
  Fe  Fe44  1  0.49783605  0.83170456  0.82998577  1
  Cr  Cr45  1  0.83287322  0.16660373  0.49957346  1
  Fe  Fe46  1  0.66400294  0.99565648  0.66316418  1
  Fe  Fe47  1  0.83036242  0.16104665  0.82907660  1
  Fe  Fe48  1  0.82875328  0.49861190  0.49673815  1
  Cr  Cr49  1  0.66243474  0.32809418  0.66212200  1
  Cr  Cr50  1  0.83108437  0.49688419  0.82897496  1
  Fe  Fe51  1  0.83018805  0.83158174  0.49918592  1
  Fe  Fe52  1  0.66448595  0.66479362  0.66383024  1
  Fe  Fe53  1  0.82933185  0.83373468  0.82899982  1
" 