1784,Ni6Fe23Cr70_15,-210.573170502434, 190.219222373336,Ni6Fe23Cr70,"# generated using pymatgen
 data_Cr13Fe4Ni
_symmetry_space_group_name_H-M   'P 1'
_cell_length_a   7.56083095
_cell_length_b   7.56083095
_cell_length_c   10.69262967
_cell_angle_alpha   90.00000000
_cell_angle_beta   90.00000000
_cell_angle_gamma   90.00000000
_symmetry_Int_Tables_number   1
_chemical_formula_structural   Cr13Fe4Ni
_chemical_formula_sum   'Cr39 Fe12 Ni3'
_cell_volume   611.25662821
_cell_formula_units_Z   3
loop_
 _symmetry_equiv_pos_site_id
 _symmetry_equiv_pos_as_xyz
  1  'x, y, z'
loop_
 _atom_site_type_symbol
 _atom_site_label
 _atom_site_symmetry_multiplicity
 _atom_site_fract_x
 _atom_site_fract_y
 _atom_site_fract_z
 _atom_site_occupancy
  Cr  Cr0  1  -0.00399471  0.99167245  -0.00316972  1
  Cr  Cr1  1  0.15958576  0.15977694  0.16509832  1
  Fe  Fe2  1  0.99318377  0.99237517  0.32918336  1
  Cr  Cr3  1  -0.00419965  0.33061115  0.99255778  1
  Fe  Fe4  1  0.15851566  0.49353547  0.16065895  1
  Cr  Cr5  1  -0.00337673  0.32893476  0.33003737  1
  Ni  Ni6  1  -0.00247044  0.65899075  -0.00554086  1
  Fe  Fe7  1  0.15961311  0.82629316  0.16071514  1
  Cr  Cr8  1  0.99333142  0.66029748  0.32662012  1
  Cr  Cr9  1  0.32726256  -0.00568212  0.99161605  1
  Cr  Cr10  1  0.49324227  0.16178255  0.16126412  1
  Cr  Cr11  1  0.32560601  -0.00516368  0.32887839  1
  Cr  Cr12  1  0.32526786  0.32694281  -0.00590326  1
  Cr  Cr13  1  0.49126678  0.49313047  0.16321867  1
  Fe  Fe14  1  0.32650933  0.32660745  0.32971894  1
  Cr  Cr15  1  0.32297163  0.65977988  -0.00467782  1
  Cr  Cr16  1  0.49213855  0.82606497  0.16084927  1
  Cr  Cr17  1  0.32319263  0.65920929  0.32541835  1
  Cr  Cr18  1  0.65877072  -0.00571040  0.98997467  1
  Cr  Cr19  1  0.82912918  0.16041748  0.15983021  1
  Cr  Cr20  1  0.66030281  0.99331480  0.33075472  1
  Cr  Cr21  1  0.65911724  0.32643714  0.99199652  1
  Cr  Cr22  1  0.82646786  0.49316110  0.15902718  1
  Cr  Cr23  1  0.66137938  0.32714262  0.32837354  1
  Cr  Cr24  1  0.66234464  0.66046959  -0.00448695  1
  Cr  Cr25  1  0.82929331  0.82812770  0.16062412  1
  Cr  Cr26  1  0.66263997  0.66099297  0.32947528  1
  Fe  Fe27  1  0.16235559  0.16122859  0.49356149  1
  Cr  Cr28  1  -0.00583478  0.99355216  0.65732755  1
  Cr  Cr29  1  0.15855875  0.16181309  0.82476052  1
  Fe  Fe30  1  0.15889040  0.49429815  0.49513094  1
  Fe  Fe31  1  0.99355982  0.32908772  0.65828396  1
  Fe  Fe32  1  0.15900527  0.49569198  0.82542497  1
  Cr  Cr33  1  0.16033577  0.82699409  0.49467358  1
  Fe  Fe34  1  -0.00425572  0.65834361  0.65899287  1
  Cr  Cr35  1  0.15985695  0.82522795  0.82643402  1
  Ni  Ni36  1  0.49167933  0.16385016  0.49432700  1
  Cr  Cr37  1  0.32799799  -0.00477112  0.66127035  1
  Fe  Fe38  1  0.49299574  0.16135131  0.82536037  1
  Cr  Cr39  1  0.49176014  0.49376428  0.49109327  1
  Cr  Cr40  1  0.32422698  0.32798708  0.65913694  1
  Cr  Cr41  1  0.49175484  0.49487094  0.82707157  1
  Cr  Cr42  1  0.49353373  0.82635570  0.49540337  1
  Fe  Fe43  1  0.32535536  0.65883902  0.65938989  1
  Cr  Cr44  1  0.49191788  0.82353154  0.82455806  1
  Cr  Cr45  1  0.82975572  0.16042055  0.49308684  1
  Cr  Cr46  1  0.66038927  -0.00589855  0.66063181  1
  Cr  Cr47  1  0.82987907  0.16164186  0.82870549  1
  Fe  Fe48  1  0.82911881  0.49451408  0.49491912  1
  Cr  Cr49  1  0.66044723  0.32686695  0.66054716  1
  Cr  Cr50  1  0.82877311  0.49434205  0.82593414  1
  Ni  Ni51  1  0.83252062  0.82533573  0.49418801  1
  Cr  Cr52  1  0.66373460  0.66047411  0.65584956  1
  Cr  Cr53  1  0.82969288  0.82587135  0.82692104  1
" 