4646,Ni6Fe10Cr82_3,-205.611021113607, 198.75055620445,Ni6Fe10Cr82,"# generated using pymatgen
 data_Cr46Fe5Ni3
_symmetry_space_group_name_H-M   'P 1'
_cell_length_a   7.57911747
_cell_length_b   7.57911747
_cell_length_c   10.71849072
_cell_angle_alpha   90.00000000
_cell_angle_beta   90.00000000
_cell_angle_gamma   90.00000000
_symmetry_Int_Tables_number   1
_chemical_formula_structural   Cr46Fe5Ni3
_chemical_formula_sum   'Cr46 Fe5 Ni3'
_cell_volume   615.70249384
_cell_formula_units_Z   1
loop_
 _symmetry_equiv_pos_site_id
 _symmetry_equiv_pos_as_xyz
  1  'x, y, z'
loop_
 _atom_site_type_symbol
 _atom_site_label
 _atom_site_symmetry_multiplicity
 _atom_site_fract_x
 _atom_site_fract_y
 _atom_site_fract_z
 _atom_site_occupancy
  Cr  Cr0  1  -0.00688317  0.99229419  -0.00557628  1
  Cr  Cr1  1  0.15910540  0.16072889  0.15703325  1
  Cr  Cr2  1  -0.00551264  0.99055691  0.32445312  1
  Fe  Fe3  1  -0.00669126  0.32811650  0.99235254  1
  Cr  Cr4  1  0.16008125  0.49455628  0.15865498  1
  Cr  Cr5  1  -0.00644688  0.32731807  0.32672170  1
  Cr  Cr6  1  -0.00727910  0.65963763  -0.00732744  1
  Fe  Fe7  1  0.15904289  0.82384637  0.15886669  1
  Ni  Ni8  1  -0.00480896  0.65767537  0.32591626  1
  Cr  Cr9  1  0.32507189  0.99039176  -0.00736962  1
  Cr  Cr10  1  0.49242782  0.15987019  0.16056095  1
  Cr  Cr11  1  0.32461438  0.99207701  0.32495756  1
  Cr  Cr12  1  0.32692259  0.32714008  -0.00556271  1
  Fe  Fe13  1  0.49205693  0.49371498  0.15806733  1
  Cr  Cr14  1  0.32571450  0.32712733  0.32733625  1
  Ni  Ni15  1  0.32514880  0.65842237  -0.00599554  1
  Cr  Cr16  1  0.49145701  0.82378666  0.15694145  1
  Cr  Cr17  1  0.32453840  0.65858956  0.32417287  1
  Cr  Cr18  1  0.65932718  0.99201623  0.99196185  1
  Cr  Cr19  1  0.82650360  0.15973468  0.15867106  1
  Cr  Cr20  1  0.65880314  -0.00739311  0.32574408  1
  Cr  Cr21  1  0.66052290  0.32751428  -0.00623151  1
  Cr  Cr22  1  0.82762817  0.49366688  0.15839770  1
  Cr  Cr23  1  0.65841849  0.32746199  0.32442300  1
  Cr  Cr24  1  0.65820190  0.65832955  0.99070465  1
  Cr  Cr25  1  0.82693286  0.82446733  0.16266482  1
  Cr  Cr26  1  0.65965365  0.65769903  0.32483605  1
  Cr  Cr27  1  0.15933688  0.16079455  0.49393297  1
  Cr  Cr28  1  -0.00671189  0.99194200  0.65894227  1
  Cr  Cr29  1  0.15917889  0.16108709  0.82728420  1
  Ni  Ni30  1  0.15780009  0.49473217  0.49138050  1
  Cr  Cr31  1  -0.00727353  0.32765651  0.66044768  1
  Cr  Cr32  1  0.15914318  0.49270393  0.82671394  1
  Cr  Cr33  1  0.15865098  0.82304139  0.49041616  1
  Cr  Cr34  1  -0.00724225  0.65816351  0.65762342  1
  Cr  Cr35  1  0.16039635  0.82403046  0.82798042  1
  Cr  Cr36  1  0.49294540  0.15872827  0.49260548  1
  Cr  Cr37  1  0.32510185  0.99152569  0.66066466  1
  Cr  Cr38  1  0.49212442  0.15943701  0.82454330  1
  Cr  Cr39  1  0.49088687  0.49371322  0.49085426  1
  Cr  Cr40  1  0.32490242  0.32742933  0.65549670  1
  Cr  Cr41  1  0.49069296  0.49392144  0.82793351  1
  Cr  Cr42  1  0.49318801  0.82557590  0.49502426  1
  Cr  Cr43  1  0.32518018  0.65877512  0.65966648  1
  Fe  Fe44  1  0.49069150  0.82482782  0.82753179  1
  Cr  Cr45  1  0.82545587  0.15864954  0.49179283  1
  Cr  Cr46  1  0.65930354  0.99170589  0.66057038  1
  Cr  Cr47  1  0.82706108  0.16067397  0.82793621  1
  Cr  Cr48  1  0.82764055  0.49433179  0.49232839  1
  Cr  Cr49  1  0.66001522  0.32771021  0.65935825  1
  Fe  Fe50  1  0.82693634  0.49218900  0.82701289  1
  Cr  Cr51  1  0.82594928  0.82459865  0.49014418  1
  Cr  Cr52  1  0.65936980  0.65832297  0.66249869  1
  Cr  Cr53  1  0.82548432  0.82514564  0.82470120  1
" 