2140,Ni6Fe23Cr70_7,-210.791413910017, 200.07370208889,Ni6Fe23Cr70,"# generated using pymatgen
 data_Cr13Fe4Ni
_symmetry_space_group_name_H-M   'P 1'
_cell_length_a   7.55609035
_cell_length_b   7.55609035
_cell_length_c   10.68592545
_cell_angle_alpha   90.00000000
_cell_angle_beta   90.00000000
_cell_angle_gamma   90.00000000
_symmetry_Int_Tables_number   1
_chemical_formula_structural   Cr13Fe4Ni
_chemical_formula_sum   'Cr39 Fe12 Ni3'
_cell_volume   610.10758533
_cell_formula_units_Z   3
loop_
 _symmetry_equiv_pos_site_id
 _symmetry_equiv_pos_as_xyz
  1  'x, y, z'
loop_
 _atom_site_type_symbol
 _atom_site_label
 _atom_site_symmetry_multiplicity
 _atom_site_fract_x
 _atom_site_fract_y
 _atom_site_fract_z
 _atom_site_occupancy
  Cr  Cr0  1  -0.00508204  0.99144355  -0.00466548  1
  Cr  Cr1  1  0.16154025  0.16083362  0.16398278  1
  Ni  Ni2  1  -0.00391536  0.99238514  0.32565235  1
  Fe  Fe3  1  -0.00393462  0.32790967  0.99375250  1
  Cr  Cr4  1  0.16075710  0.49190408  0.16053566  1
  Cr  Cr5  1  0.99064037  0.32824036  0.32939526  1
  Cr  Cr6  1  -0.00262992  0.66286839  0.99406912  1
  Ni  Ni7  1  0.16197766  0.82995769  0.16206664  1
  Cr  Cr8  1  -0.00525082  0.66312134  0.32911185  1
  Cr  Cr9  1  0.32739274  0.99223931  -0.00299945  1
  Fe  Fe10  1  0.49312058  0.15993730  0.16164349  1
  Fe  Fe11  1  0.32533832  0.99410060  0.32549081  1
  Cr  Cr12  1  0.33071838  0.32794410  0.99366797  1
  Cr  Cr13  1  0.49469971  0.49634962  0.16097735  1
  Fe  Fe14  1  0.32707912  0.32630338  0.32711893  1
  Cr  Cr15  1  0.32543302  0.66203567  0.98980614  1
  Cr  Cr16  1  0.49483989  0.82589090  0.16169266  1
  Cr  Cr17  1  0.32534699  0.66193867  0.32724002  1
  Fe  Fe18  1  0.65939083  0.99325392  -0.00536035  1
  Cr  Cr19  1  0.83075500  0.16062308  0.15710853  1
  Cr  Cr20  1  0.66103448  -0.00255944  0.32670859  1
  Cr  Cr21  1  0.66004917  0.32509049  -0.00505773  1
  Cr  Cr22  1  0.82674452  0.49620149  0.15945866  1
  Cr  Cr23  1  0.65945291  0.32739495  0.32825832  1
  Fe  Fe24  1  0.65946906  0.66149737  0.99346652  1
  Cr  Cr25  1  0.82630883  0.82578190  0.16089278  1
  Fe  Fe26  1  0.66284549  0.66044965  0.32870310  1
  Cr  Cr27  1  0.16138539  0.16210247  0.49122518  1
  Cr  Cr28  1  0.99377908  0.99141638  0.66104099  1
  Cr  Cr29  1  0.15959406  0.16373439  0.82762747  1
  Fe  Fe30  1  0.15971601  0.49388920  0.49356201  1
  Cr  Cr31  1  0.99260708  0.33078209  0.66007462  1
  Fe  Fe32  1  0.16059134  0.49394476  0.82817891  1
  Cr  Cr33  1  0.16182796  0.83022045  0.49275905  1
  Cr  Cr34  1  -0.00338262  0.66048895  0.65928954  1
  Fe  Fe35  1  0.15960957  0.82814569  0.82812201  1
  Cr  Cr36  1  0.49003508  0.15922798  0.49383997  1
  Cr  Cr37  1  0.32725722  0.99208393  0.66163453  1
  Cr  Cr38  1  0.49405914  0.15872836  0.82621109  1
  Cr  Cr39  1  0.49331659  0.49609718  0.49258305  1
  Cr  Cr40  1  0.32895112  0.33043473  0.66090423  1
  Fe  Fe41  1  0.49524753  0.49388604  0.82796904  1
  Cr  Cr42  1  0.49478560  0.82691555  0.49455792  1
  Cr  Cr43  1  0.32419461  0.66016658  0.66515042  1
  Cr  Cr44  1  0.49637501  0.82560976  0.82617533  1
  Cr  Cr45  1  0.83010575  0.15969528  0.49757785  1
  Fe  Fe46  1  0.66063310  0.99381056  0.66051205  1
  Cr  Cr47  1  0.82887045  0.15993055  0.82767183  1
  Ni  Ni48  1  0.82785382  0.49524428  0.49282597  1
  Cr  Cr49  1  0.66087010  0.32615719  0.65906185  1
  Cr  Cr50  1  0.82821982  0.49467293  0.83087036  1
  Cr  Cr51  1  0.82564726  0.82617062  0.49370068  1
  Cr  Cr52  1  0.66137674  0.65772850  0.65856055  1
  Cr  Cr53  1  0.82417719  0.82740446  0.82742214  1
" 