652,Ni6Fe61Cr31_19,-221.290407607339, 161.610759492886,Ni6Fe61Cr31,"# generated using pymatgen
 data_Cr6Fe11Ni
_symmetry_space_group_name_H-M   'P 1'
_cell_length_a   7.49785353
_cell_length_b   7.49785353
_cell_length_c   10.60356615
_cell_angle_alpha   90.00000000
_cell_angle_beta   90.00000000
_cell_angle_gamma   90.00000000
_symmetry_Int_Tables_number   1
_chemical_formula_structural   Cr6Fe11Ni
_chemical_formula_sum   'Cr18 Fe33 Ni3'
_cell_volume   596.10924168
_cell_formula_units_Z   3
loop_
 _symmetry_equiv_pos_site_id
 _symmetry_equiv_pos_as_xyz
  1  'x, y, z'
loop_
 _atom_site_type_symbol
 _atom_site_label
 _atom_site_symmetry_multiplicity
 _atom_site_fract_x
 _atom_site_fract_y
 _atom_site_fract_z
 _atom_site_occupancy
  Fe  Fe0  1  0.99761266  0.99498112  0.99708052  1
  Cr  Cr1  1  0.16424981  0.16451342  0.16611425  1
  Cr  Cr2  1  -0.00100480  0.99590900  0.33192535  1
  Cr  Cr3  1  0.99699206  0.33397362  0.99780972  1
  Fe  Fe4  1  0.16598151  0.50035627  0.16467695  1
  Cr  Cr5  1  0.99658761  0.33325978  0.33245155  1
  Fe  Fe6  1  0.99770801  0.66581371  -0.00191031  1
  Fe  Fe7  1  0.16376159  0.82947922  0.16291535  1
  Fe  Fe8  1  0.99560870  0.66310963  0.32964641  1
  Fe  Fe9  1  0.32999188  0.99700782  0.99686796  1
  Cr  Cr10  1  0.49904731  0.16486519  0.16344468  1
  Fe  Fe11  1  0.33282285  -0.00141394  0.33168464  1
  Fe  Fe12  1  0.33160714  0.33278153  -0.00203805  1
  Fe  Fe13  1  0.49820913  0.49753312  0.16444632  1
  Fe  Fe14  1  0.33205322  0.33307242  0.33086846  1
  Fe  Fe15  1  0.32891525  0.66349578  -0.00181733  1
  Cr  Cr16  1  0.49815740  0.82926673  0.16544201  1
  Fe  Fe17  1  0.32997119  0.66188022  0.32963041  1
  Fe  Fe18  1  0.66576767  0.99713729  0.99605710  1
  Cr  Cr19  1  0.83086041  0.16452149  0.16283843  1
  Fe  Fe20  1  0.66618094  -0.00139739  0.33085355  1
  Fe  Fe21  1  0.66371098  0.33320223  0.99737311  1
  Fe  Fe22  1  0.82910533  0.50024039  0.16461701  1
  Ni  Ni23  1  0.66368457  0.33558761  0.32955462  1
  Fe  Fe24  1  0.66692466  0.66330198  -0.00174547  1
  Fe  Fe25  1  0.83210695  0.82986126  0.16358989  1
  Fe  Fe26  1  0.66820033  0.66327367  0.33026434  1
  Fe  Fe27  1  0.16583370  0.16627421  0.49891010  1
  Cr  Cr28  1  -0.00161828  0.99752434  0.66474915  1
  Cr  Cr29  1  0.16212636  0.16583540  0.83078912  1
  Cr  Cr30  1  0.16295374  0.49777098  0.50122402  1
  Ni  Ni31  1  0.99526073  0.33427239  0.66528397  1
  Fe  Fe32  1  0.16323999  0.50043931  0.82983170  1
  Cr  Cr33  1  0.16444332  0.82804586  0.49684459  1
  Fe  Fe34  1  0.99694561  0.66464857  0.66725907  1
  Ni  Ni35  1  0.16301134  0.82907025  0.83390846  1
  Cr  Cr36  1  0.49992700  0.16561006  0.49692911  1
  Cr  Cr37  1  0.33211065  0.99671798  0.66418954  1
  Fe  Fe38  1  0.49871258  0.16427302  0.83236676  1
  Cr  Cr39  1  0.49823147  0.49920994  0.49828292  1
  Fe  Fe40  1  0.32988972  0.33105068  0.66556985  1
  Cr  Cr41  1  0.49832693  0.49759968  0.83058820  1
  Cr  Cr42  1  0.50010512  0.82891703  0.49760607  1
  Fe  Fe43  1  0.32801866  0.66378182  0.66667554  1
  Cr  Cr44  1  0.49801591  0.82967316  0.83026171  1
  Cr  Cr45  1  0.83171264  0.16603949  0.49801915  1
  Fe  Fe46  1  0.66677413  -0.00118757  0.66606414  1
  Fe  Fe47  1  0.82894736  0.16495895  0.83101146  1
  Fe  Fe48  1  0.82972924  0.50006991  0.49890465  1
  Fe  Fe49  1  0.66649384  0.33102329  0.66539742  1
  Fe  Fe50  1  0.83304429  0.49944728  0.83020739  1
  Fe  Fe51  1  0.83045458  0.82809192  0.49808165  1
  Fe  Fe52  1  0.66894432  0.66413782  0.66508807  1
  Fe  Fe53  1  0.83261762  0.83015799  0.83238162  1
" 