6207,Ni6Fe23Cr70_13,-210.559512407112, 193.74386813722,Ni6Fe23Cr70,"# generated using pymatgen
 data_Cr13Fe4Ni
_symmetry_space_group_name_H-M   'P 1'
_cell_length_a   7.56225392
_cell_length_b   7.56225392
_cell_length_c   10.69464206
_cell_angle_alpha   90.00000000
_cell_angle_beta   90.00000000
_cell_angle_gamma   90.00000000
_symmetry_Int_Tables_number   1
_chemical_formula_structural   Cr13Fe4Ni
_chemical_formula_sum   'Cr39 Fe12 Ni3'
_cell_volume   611.60181420
_cell_formula_units_Z   3
loop_
 _symmetry_equiv_pos_site_id
 _symmetry_equiv_pos_as_xyz
  1  'x, y, z'
loop_
 _atom_site_type_symbol
 _atom_site_label
 _atom_site_symmetry_multiplicity
 _atom_site_fract_x
 _atom_site_fract_y
 _atom_site_fract_z
 _atom_site_occupancy
  Cr  Cr0  1  -0.00384558  -0.00573676  0.99261256  1
  Cr  Cr1  1  0.16257706  0.16030853  0.16203694  1
  Fe  Fe2  1  -0.00344454  0.99319081  0.32689717  1
  Cr  Cr3  1  -0.00501177  0.32685632  0.99363005  1
  Cr  Cr4  1  0.16080652  0.49414490  0.15971629  1
  Fe  Fe5  1  -0.00517318  0.32513819  0.32744424  1
  Fe  Fe6  1  -0.00427809  0.66150358  -0.00521632  1
  Ni  Ni7  1  0.16183213  0.82716143  0.16143036  1
  Cr  Cr8  1  -0.00403423  0.66015730  0.32727696  1
  Cr  Cr9  1  0.32569135  0.99239793  -0.00549428  1
  Cr  Cr10  1  0.49120058  0.15948069  0.16175848  1
  Ni  Ni11  1  0.32359967  0.99296213  0.32589031  1
  Fe  Fe12  1  0.32723854  0.32762440  0.99222053  1
  Cr  Cr13  1  0.49120519  0.49294576  0.15939491  1
  Fe  Fe14  1  0.32651041  0.32542035  0.32762666  1
  Fe  Fe15  1  0.32586980  0.66062337  -0.00521028  1
  Fe  Fe16  1  0.49001672  0.82757207  0.16098366  1
  Cr  Cr17  1  0.32643174  0.66381101  0.32682754  1
  Cr  Cr18  1  0.65917562  0.99337404  -0.00465426  1
  Cr  Cr19  1  0.82748713  0.15944047  0.16284047  1
  Cr  Cr20  1  0.65890977  -0.00558996  0.32544378  1
  Cr  Cr21  1  0.66001414  0.32809307  0.99271406  1
  Cr  Cr22  1  0.82915980  0.49497462  0.16039994  1
  Cr  Cr23  1  0.66279667  0.32690711  0.32797420  1
  Cr  Cr24  1  0.65803706  0.65966842  -0.00482831  1
  Cr  Cr25  1  0.82842688  0.82665205  0.15811755  1
  Cr  Cr26  1  0.65866293  0.65976380  0.32602272  1
  Cr  Cr27  1  0.16175477  0.16034769  0.49162140  1
  Cr  Cr28  1  -0.00477751  -0.00469064  0.65998086  1
  Fe  Fe29  1  0.16172452  0.16174243  0.82647666  1
  Cr  Cr30  1  0.16111786  0.49246047  0.49244099  1
  Cr  Cr31  1  0.99366931  0.32527485  0.66012905  1
  Cr  Cr32  1  0.16277983  0.49249462  0.82900964  1
  Fe  Fe33  1  0.16104726  0.82851383  0.49166126  1
  Cr  Cr34  1  -0.00496855  0.66056480  0.65960686  1
  Cr  Cr35  1  0.15905496  0.82609940  0.82711928  1
  Cr  Cr36  1  0.49229650  0.16115327  0.49388869  1
  Cr  Cr37  1  0.32496592  -0.00570330  0.66031301  1
  Cr  Cr38  1  0.49120530  0.16322930  0.82552624  1
  Cr  Cr39  1  0.49231762  0.49098374  0.49644625  1
  Ni  Ni40  1  0.32805592  0.32720281  0.66259176  1
  Fe  Fe41  1  0.49236660  0.49256339  0.82649614  1
  Cr  Cr42  1  0.49284806  0.82894511  0.49271156  1
  Cr  Cr43  1  0.32735776  0.65942761  0.65923330  1
  Cr  Cr44  1  0.49420845  0.82691476  0.82771810  1
  Fe  Fe45  1  0.82742319  0.16083348  0.49314083  1
  Cr  Cr46  1  0.66096812  -0.00445746  0.66039855  1
  Cr  Cr47  1  0.82624997  0.15952946  0.82562751  1
  Cr  Cr48  1  0.82771687  0.49304688  0.49351566  1
  Fe  Fe49  1  0.65844487  0.32703149  0.66041466  1
  Cr  Cr50  1  0.82714318  0.49542410  0.82720718  1
  Cr  Cr51  1  0.82864125  0.82820229  0.49495653  1
  Cr  Cr52  1  0.65879042  0.65790872  0.66002524  1
  Cr  Cr53  1  0.82781401  0.82619007  0.82796569  1
" 