3044,Ni6Fe23Cr70_18,-210.776619424477, 191.787988047226,Ni6Fe23Cr70,"# generated using pymatgen
 data_Cr13Fe4Ni
_symmetry_space_group_name_H-M   'P 1'
_cell_length_a   7.56163414
_cell_length_b   7.56163414
_cell_length_c   10.69376556
_cell_angle_alpha   90.00000000
_cell_angle_beta   90.00000000
_cell_angle_gamma   90.00000000
_symmetry_Int_Tables_number   1
_chemical_formula_structural   Cr13Fe4Ni
_chemical_formula_sum   'Cr39 Fe12 Ni3'
_cell_volume   611.45145183
_cell_formula_units_Z   3
loop_
 _symmetry_equiv_pos_site_id
 _symmetry_equiv_pos_as_xyz
  1  'x, y, z'
loop_
 _atom_site_type_symbol
 _atom_site_label
 _atom_site_symmetry_multiplicity
 _atom_site_fract_x
 _atom_site_fract_y
 _atom_site_fract_z
 _atom_site_occupancy
  Fe  Fe0  1  -0.00520440  0.99263437  0.99306854  1
  Cr  Cr1  1  0.16149411  0.16257906  0.15895973  1
  Cr  Cr2  1  0.99347816  -0.00563053  0.32679480  1
  Cr  Cr3  1  0.99322576  0.32690237  -0.00624128  1
  Cr  Cr4  1  0.16068963  0.49172622  0.16582917  1
  Cr  Cr5  1  0.98900431  0.32656111  0.32916793  1
  Cr  Cr6  1  -0.00484298  0.66219458  -0.00536844  1
  Cr  Cr7  1  0.16129100  0.82781233  0.16002101  1
  Cr  Cr8  1  0.99253513  0.66168771  0.32918658  1
  Fe  Fe9  1  0.32586593  0.99286865  0.99327691  1
  Cr  Cr10  1  0.49269308  0.15998659  0.16258106  1
  Cr  Cr11  1  0.32882598  -0.00477028  0.32617043  1
  Cr  Cr12  1  0.32994551  0.32702275  -0.00573903  1
  Cr  Cr13  1  0.49277936  0.49434212  0.15885152  1
  Fe  Fe14  1  0.32845091  0.32789468  0.32922474  1
  Cr  Cr15  1  0.32731180  0.66122226  0.99122957  1
  Cr  Cr16  1  0.49577157  0.82752868  0.15995954  1
  Cr  Cr17  1  0.32834226  0.66239467  0.32934648  1
  Cr  Cr18  1  0.65891669  -0.00492576  -0.00515349  1
  Cr  Cr19  1  0.82718230  0.15971837  0.15882271  1
  Fe  Fe20  1  0.66162301  -0.00519048  0.32827583  1
  Fe  Fe21  1  0.65929396  0.32789835  0.99275398  1
  Cr  Cr22  1  0.82685473  0.49464743  0.15760774  1
  Cr  Cr23  1  0.65913194  0.32574982  0.32851420  1
  Fe  Fe24  1  0.65946763  0.65928324  0.99275002  1
  Cr  Cr25  1  0.82478337  0.82710561  0.16017363  1
  Cr  Cr26  1  0.66065906  0.65803788  0.32504305  1
  Cr  Cr27  1  0.16097995  0.16291782  0.49274834  1
  Cr  Cr28  1  0.99305925  -0.00584435  0.66136342  1
  Cr  Cr29  1  0.16080119  0.16132526  0.82971187  1
  Cr  Cr30  1  0.16230689  0.49463360  0.49295015  1
  Cr  Cr31  1  0.99080939  0.32638712  0.65811578  1
  Cr  Cr32  1  0.16214114  0.49361981  0.82226711  1
  Fe  Fe33  1  0.15999105  0.82873818  0.49452485  1
  Cr  Cr34  1  -0.00454685  0.66264315  0.65733754  1
  Fe  Fe35  1  0.16016963  0.82637146  0.82645065  1
  Fe  Fe36  1  0.49645184  0.16027115  0.49369708  1
  Cr  Cr37  1  0.32583915  0.99190584  0.66216925  1
  Cr  Cr38  1  0.49357307  0.15833211  0.82673100  1
  Fe  Fe39  1  0.49667427  0.49383311  0.49410258  1
  Cr  Cr40  1  0.33266408  0.32824526  0.65829355  1
  Fe  Fe41  1  0.49391324  0.49308693  0.82706844  1
  Cr  Cr42  1  0.49441481  0.82864656  0.49427689  1
  Ni  Ni43  1  0.33011052  0.66227228  0.65941958  1
  Cr  Cr44  1  0.49374836  0.82513684  0.82677262  1
  Ni  Ni45  1  0.82228373  0.15898488  0.49514298  1
  Fe  Fe46  1  0.65938298  0.99306615  0.65967320  1
  Cr  Cr47  1  0.82715930  0.15941627  0.82724678  1
  Ni  Ni48  1  0.82540595  0.49128358  0.49406817  1
  Cr  Cr49  1  0.66141123  0.32484215  0.66099168  1
  Cr  Cr50  1  0.82749847  0.49433408  0.82928305  1
  Cr  Cr51  1  0.82221900  0.82776210  0.49353901  1
  Cr  Cr52  1  0.65945377  0.65576296  0.66169298  1
  Cr  Cr53  1  0.82477877  0.82700784  0.82751845  1
" 