2742,Ni6Fe17Cr75_18,-208.403309401782, 194.022000287189,Ni6Fe17Cr75,"# generated using pymatgen
 data_Cr14Fe3Ni
_symmetry_space_group_name_H-M   'P 1'
_cell_length_a   7.57160253
_cell_length_b   7.57160253
_cell_length_c   10.70786299
_cell_angle_alpha   90.00000000
_cell_angle_beta   90.00000000
_cell_angle_gamma   90.00000000
_symmetry_Int_Tables_number   1
_chemical_formula_structural   Cr14Fe3Ni
_chemical_formula_sum   'Cr42 Fe9 Ni3'
_cell_volume   613.87284301
_cell_formula_units_Z   3
loop_
 _symmetry_equiv_pos_site_id
 _symmetry_equiv_pos_as_xyz
  1  'x, y, z'
loop_
 _atom_site_type_symbol
 _atom_site_label
 _atom_site_symmetry_multiplicity
 _atom_site_fract_x
 _atom_site_fract_y
 _atom_site_fract_z
 _atom_site_occupancy
  Ni  Ni0  1  -0.00333417  -0.00550826  0.99193684  1
  Cr  Cr1  1  0.15823721  0.16000807  0.15956501  1
  Fe  Fe2  1  -0.00538636  -0.00633726  0.32787685  1
  Cr  Cr3  1  0.99160135  0.32493603  0.99037802  1
  Cr  Cr4  1  0.16065744  0.49164995  0.15862120  1
  Cr  Cr5  1  0.99250191  0.32535076  0.33085894  1
  Cr  Cr6  1  -0.00605383  0.66208428  0.99153763  1
  Cr  Cr7  1  0.15703115  0.82786210  0.16106847  1
  Cr  Cr8  1  -0.00682880  0.66017117  0.32793129  1
  Cr  Cr9  1  0.32504141  0.99256463  0.99060522  1
  Cr  Cr10  1  0.49232049  0.16122556  0.15821155  1
  Cr  Cr11  1  0.32496015  -0.00687170  0.32951302  1
  Fe  Fe12  1  0.32655513  0.32390874  0.99209925  1
  Cr  Cr13  1  0.49094399  0.49115372  0.15728267  1
  Cr  Cr14  1  0.32614141  0.32421072  0.32672821  1
  Cr  Cr15  1  0.32601028  0.66244967  -0.00616811  1
  Cr  Cr16  1  0.49312543  0.82673135  0.16091394  1
  Cr  Cr17  1  0.32606768  0.66224213  0.32562271  1
  Cr  Cr18  1  0.65948504  -0.00569119  -0.00584730  1
  Cr  Cr19  1  0.82863573  0.15796704  0.15876732  1
  Cr  Cr20  1  0.65871348  -0.00601536  0.32452073  1
  Ni  Ni21  1  0.65870211  0.32549890  0.99300535  1
  Cr  Cr22  1  0.82777050  0.49222124  0.15934451  1
  Cr  Cr23  1  0.66093532  0.32622362  0.32634040  1
  Cr  Cr24  1  0.65969705  0.65897641  -0.00654615  1
  Cr  Cr25  1  0.82906502  0.82938778  0.15913637  1
  Cr  Cr26  1  0.66021874  0.65899307  0.32626378  1
  Ni  Ni27  1  0.15854484  0.15664248  0.49442020  1
  Cr  Cr28  1  -0.00349179  -0.00643037  0.66110492  1
  Fe  Fe29  1  0.15941338  0.15790260  0.82630142  1
  Cr  Cr30  1  0.16035261  0.49245968  0.49187899  1
  Cr  Cr31  1  0.99289932  0.32571163  0.65793685  1
  Cr  Cr32  1  0.16123500  0.49165872  0.82887189  1
  Fe  Fe33  1  0.15931678  0.82914733  0.49355801  1
  Cr  Cr34  1  -0.00660997  0.65981832  0.65992614  1
  Fe  Fe35  1  0.15943033  0.82861998  0.82671360  1
  Cr  Cr36  1  0.49189877  0.15841649  0.49487430  1
  Fe  Fe37  1  0.32432359  -0.00579674  0.65935156  1
  Cr  Cr38  1  0.49253620  0.15978056  0.82543628  1
  Cr  Cr39  1  0.49209429  0.49418733  0.49393947  1
  Cr  Cr40  1  0.32450191  0.32382739  0.66019450  1
  Cr  Cr41  1  0.49182735  0.49235540  0.82784632  1
  Cr  Cr42  1  0.49433320  0.82704305  0.49638577  1
  Cr  Cr43  1  0.32442203  0.66329879  0.66019260  1
  Cr  Cr44  1  0.49427036  0.82725074  0.82185538  1
  Cr  Cr45  1  0.82760121  0.15645388  0.49221540  1
  Fe  Fe46  1  0.66094992  -0.00649607  0.65985812  1
  Cr  Cr47  1  0.82664951  0.15774145  0.82814782  1
  Fe  Fe48  1  0.82596102  0.49355316  0.49396103  1
  Cr  Cr49  1  0.66157994  0.32619180  0.65817898  1
  Cr  Cr50  1  0.82606199  0.49337897  0.82445562  1
  Cr  Cr51  1  0.82647392  0.82689775  0.49346872  1
  Fe  Fe52  1  0.66078479  0.65953204  0.65952624  1
  Cr  Cr53  1  0.82698639  0.82862224  0.82699391  1
" 