8434,Ni70Cr30_5,-211.51923561151, 142.259027498346,Ni70Cr30,"# generated using pymatgen
 data_Cr37Ni17
_symmetry_space_group_name_H-M   'P 1'
_cell_length_a   7.55789513
_cell_length_b   7.55789513
_cell_length_c   10.68847780
_cell_angle_alpha   90.00000000
_cell_angle_beta   90.00000000
_cell_angle_gamma   90.00000000
_symmetry_Int_Tables_number   1
_chemical_formula_structural   Cr37Ni17
_chemical_formula_sum   'Cr37 Ni17'
_cell_volume   610.54486464
_cell_formula_units_Z   1
loop_
 _symmetry_equiv_pos_site_id
 _symmetry_equiv_pos_as_xyz
  1  'x, y, z'
loop_
 _atom_site_type_symbol
 _atom_site_label
 _atom_site_symmetry_multiplicity
 _atom_site_fract_x
 _atom_site_fract_y
 _atom_site_fract_z
 _atom_site_occupancy
  Cr  Cr0  1  0.99353355  -0.00464306  0.99327642  1
  Ni  Ni1  1  0.15904458  0.16081314  0.16075168  1
  Cr  Cr2  1  0.99376656  -0.00463790  0.32615717  1
  Ni  Ni3  1  0.99079468  0.32369472  -0.00471442  1
  Cr  Cr4  1  0.16135948  0.49227511  0.16093236  1
  Cr  Cr5  1  0.99391129  0.32740240  0.32607741  1
  Cr  Cr6  1  -0.00560590  0.65956443  0.99382865  1
  Cr  Cr7  1  0.16329624  0.82939957  0.16320850  1
  Cr  Cr8  1  -0.00396715  0.65909528  0.32879718  1
  Cr  Cr9  1  0.32921281  0.99330161  -0.00398330  1
  Cr  Cr10  1  0.49433153  0.16047090  0.16084518  1
  Ni  Ni11  1  0.32863732  0.99327220  0.32596361  1
  Cr  Cr12  1  0.32712408  0.32745123  -0.00555220  1
  Ni  Ni13  1  0.49485537  0.49611676  0.15947500  1
  Cr  Cr14  1  0.32808523  0.32796509  0.32835663  1
  Cr  Cr15  1  0.32884588  0.66116718  -0.00462243  1
  Ni  Ni16  1  0.49429228  0.82610404  0.16081022  1
  Ni  Ni17  1  0.32896099  0.66126465  0.32650884  1
  Ni  Ni18  1  0.66185662  -0.00489337  -0.00494117  1
  Ni  Ni19  1  0.82762652  0.16138616  0.15716239  1
  Cr  Cr20  1  0.65843052  -0.00482824  0.32727795  1
  Ni  Ni21  1  0.66264710  0.32601146  -0.00475856  1
  Cr  Cr22  1  0.82462683  0.49163757  0.15829211  1
  Cr  Cr23  1  0.65975619  0.32631254  0.32763400  1
  Ni  Ni24  1  0.65843750  0.66086345  -0.00391566  1
  Cr  Cr25  1  0.82483100  0.82830823  0.16005510  1
  Cr  Cr26  1  0.65836183  0.66023290  0.32606146  1
  Cr  Cr27  1  0.16301230  0.16063315  0.49384052  1
  Ni  Ni28  1  0.99309395  -0.00442374  0.66181002  1
  Cr  Cr29  1  0.15932993  0.16179626  0.82750853  1
  Ni  Ni30  1  0.16463545  0.49480135  0.49496794  1
  Cr  Cr31  1  -0.00558061  0.32689189  0.66058362  1
  Cr  Cr32  1  0.16201478  0.49267342  0.82605945  1
  Cr  Cr33  1  0.16210704  0.82742122  0.49366610  1
  Cr  Cr34  1  -0.00538346  0.66090924  0.65951728  1
  Cr  Cr35  1  0.16148234  0.82765885  0.82476923  1
  Ni  Ni36  1  0.49098169  0.16051019  0.49411498  1
  Cr  Cr37  1  0.32815472  -0.00474123  0.66102552  1
  Cr  Cr38  1  0.49586132  0.16254585  0.82703370  1
  Cr  Cr39  1  0.49268378  0.49392372  0.49544025  1
  Ni  Ni40  1  0.32713901  0.32946388  0.65828027  1
  Cr  Cr41  1  0.49507973  0.49394433  0.82686452  1
  Cr  Cr42  1  0.49282320  0.82764961  0.49326219  1
  Ni  Ni43  1  0.32841824  0.65809587  0.65915789  1
  Cr  Cr44  1  0.49554706  0.82563752  0.82849620  1
  Cr  Cr45  1  0.82705563  0.15986810  0.49387429  1
  Cr  Cr46  1  0.66145373  -0.00509241  0.66030893  1
  Ni  Ni47  1  0.82688316  0.16076578  0.82966295  1
  Cr  Cr48  1  0.82730348  0.49505063  0.49392288  1
  Cr  Cr49  1  0.65893155  0.32618542  0.65899858  1
  Cr  Cr50  1  0.82451198  0.49227043  0.83013188  1
  Cr  Cr51  1  0.82715775  0.82710619  0.49576408  1
  Ni  Ni52  1  0.65813914  0.66057362  0.66096771  1
  Cr  Cr53  1  0.82556441  0.82822698  0.82644058  1
" 