997,Ni70Fe5Cr23_14,-229.663094529284, 155.966749922161,Ni70Fe5Cr23,"# generated using pymatgen
 data_Cr7FeNi19
_symmetry_space_group_name_H-M   'P 1'
_cell_length_a   7.47651754
_cell_length_b   7.47651754
_cell_length_c   10.57339250
_cell_angle_alpha   90.00000000
_cell_angle_beta   90.00000000
_cell_angle_gamma   90.00000000
_symmetry_Int_Tables_number   1
_chemical_formula_structural   Cr7FeNi19
_chemical_formula_sum   'Cr14 Fe2 Ni38'
_cell_volume   591.03481880
_cell_formula_units_Z   2
loop_
 _symmetry_equiv_pos_site_id
 _symmetry_equiv_pos_as_xyz
  1  'x, y, z'
loop_
 _atom_site_type_symbol
 _atom_site_label
 _atom_site_symmetry_multiplicity
 _atom_site_fract_x
 _atom_site_fract_y
 _atom_site_fract_z
 _atom_site_occupancy
  Ni  Ni0  1  0.00081827  0.99727196  -0.00008227  1
  Ni  Ni1  1  0.16809733  0.16583693  0.16692651  1
  Ni  Ni2  1  0.00193703  0.00045168  0.33359662  1
  Ni  Ni3  1  0.00039262  0.33360895  0.99850094  1
  Ni  Ni4  1  0.16898051  0.49844511  0.16504600  1
  Ni  Ni5  1  0.00057966  0.32966418  0.33408004  1
  Ni  Ni6  1  0.00010559  0.66720943  0.99821982  1
  Ni  Ni7  1  0.16728574  0.83381117  0.16547758  1
  Cr  Cr8  1  0.00081823  0.66795477  0.33319673  1
  Ni  Ni9  1  0.33005516  0.99863525  0.00225831  1
  Ni  Ni10  1  0.49592486  0.16764859  0.16654329  1
  Ni  Ni11  1  0.32918700  -0.00014085  0.33127665  1
  Ni  Ni12  1  0.33277654  0.33453965  0.00139105  1
  Ni  Ni13  1  0.49700481  0.49860449  0.16520932  1
  Ni  Ni14  1  0.33192198  0.33161904  0.32993160  1
  Ni  Ni15  1  0.33171447  0.66491586  0.00040298  1
  Ni  Ni16  1  0.49684076  0.83184738  0.16563346  1
  Ni  Ni17  1  0.33189907  0.66662416  0.33014960  1
  Cr  Cr18  1  0.66689874  0.99855810  0.00016930  1
  Cr  Cr19  1  0.83467002  0.16628392  0.16537045  1
  Cr  Cr20  1  0.66693588  -0.00020746  0.33185673  1
  Ni  Ni21  1  0.66493492  0.33526426  0.99862361  1
  Cr  Cr22  1  0.83295218  0.49935204  0.16547550  1
  Ni  Ni23  1  0.66560661  0.33236099  0.33289148  1
  Ni  Ni24  1  0.66628176  0.66450077  -0.00036375  1
  Ni  Ni25  1  0.83396198  0.83274164  0.16439187  1
  Cr  Cr26  1  0.66519206  0.66553036  0.33149916  1
  Ni  Ni27  1  0.16410648  0.16534571  0.49791763  1
  Cr  Cr28  1  0.99890462  0.99835481  0.66501115  1
  Cr  Cr29  1  0.16591359  0.16678936  0.83359433  1
  Cr  Cr30  1  0.16551368  0.49857156  0.50018056  1
  Ni  Ni31  1  0.99776855  0.33443020  0.66551167  1
  Ni  Ni32  1  0.16511554  0.50062911  0.83257238  1
  Ni  Ni33  1  0.16511157  0.83450661  0.49955413  1
  Ni  Ni34  1  0.99855438  0.66554396  0.66687771  1
  Ni  Ni35  1  0.16446924  0.83017361  0.83307426  1
  Cr  Cr36  1  0.49854062  0.16653993  0.50045900  1
  Ni  Ni37  1  0.33230261  0.99843608  0.66457585  1
  Cr  Cr38  1  0.49953173  0.16770331  0.83121087  1
  Cr  Cr39  1  0.49977215  0.49899672  0.50012943  1
  Ni  Ni40  1  0.33250718  0.33370540  0.66677209  1
  Ni  Ni41  1  0.50023740  0.49901005  0.83268677  1
  Cr  Cr42  1  0.49782455  0.83255454  0.50168669  1
  Ni  Ni43  1  0.33142216  0.66595911  0.66754134  1
  Cr  Cr44  1  0.49867492  0.83108028  0.83076918  1
  Ni  Ni45  1  0.83456350  0.16709698  0.49983984  1
  Ni  Ni46  1  0.66742577  0.99921647  0.66566029  1
  Fe  Fe47  1  0.83304983  0.16823278  0.83235466  1
  Fe  Fe48  1  0.83339903  0.49752459  0.50145373  1
  Ni  Ni49  1  0.66783371  0.33353085  0.66658727  1
  Ni  Ni50  1  0.83274915  0.49996667  0.83172329  1
  Ni  Ni51  1  0.83440831  0.83361565  0.50094851  1
  Ni  Ni52  1  0.66812953  0.66535775  0.66665864  1
  Ni  Ni53  1  0.83419761  0.82999675  0.83277737  1
" 