2254,Ni70Fe9Cr20_15,-231.770824050514, 165.089263413678,Ni70Fe9Cr20,"# generated using pymatgen
 data_Cr6Fe2Ni19
_symmetry_space_group_name_H-M   'P 1'
_cell_length_a   7.46227759
_cell_length_b   7.46227759
_cell_length_c   10.55325418
_cell_angle_alpha   90.00000000
_cell_angle_beta   90.00000000
_cell_angle_gamma   90.00000000
_symmetry_Int_Tables_number   1
_chemical_formula_structural   Cr6Fe2Ni19
_chemical_formula_sum   'Cr12 Fe4 Ni38'
_cell_volume   587.66415210
_cell_formula_units_Z   2
loop_
 _symmetry_equiv_pos_site_id
 _symmetry_equiv_pos_as_xyz
  1  'x, y, z'
loop_
 _atom_site_type_symbol
 _atom_site_label
 _atom_site_symmetry_multiplicity
 _atom_site_fract_x
 _atom_site_fract_y
 _atom_site_fract_z
 _atom_site_occupancy
  Ni  Ni0  1  0.00229580  0.99784304  0.99833964  1
  Ni  Ni1  1  0.17088350  0.16356913  0.16838215  1
  Ni  Ni2  1  0.00168213  0.99991926  0.33525842  1
  Cr  Cr3  1  0.00247867  0.33154609  0.99970230  1
  Cr  Cr4  1  0.16791297  0.49997491  0.16713549  1
  Ni  Ni5  1  0.00190857  0.33213975  0.33513630  1
  Ni  Ni6  1  0.00131440  0.67052004  0.99785150  1
  Ni  Ni7  1  0.16728202  0.83638318  0.16567866  1
  Ni  Ni8  1  0.00107829  0.66889704  0.33598501  1
  Ni  Ni9  1  0.33256062  0.00148810  0.00194133  1
  Ni  Ni10  1  0.49837034  0.16754988  0.16676723  1
  Ni  Ni11  1  0.33372568  0.00143829  0.33349054  1
  Ni  Ni12  1  0.33633920  0.33268686  0.99933855  1
  Ni  Ni13  1  0.50101491  0.49834030  0.16561695  1
  Ni  Ni14  1  0.33475620  0.33197842  0.33471472  1
  Fe  Fe15  1  0.33336294  0.66670066  0.99981015  1
  Fe  Fe16  1  0.49911091  0.83597541  0.16640973  1
  Cr  Cr17  1  0.33391973  0.66765262  0.33423953  1
  Ni  Ni18  1  0.66606408  0.00052563  0.99883523  1
  Cr  Cr19  1  0.83275202  0.16596710  0.16778890  1
  Ni  Ni20  1  0.66556879  0.00075756  0.33583134  1
  Ni  Ni21  1  0.66228310  0.33354108  0.99885455  1
  Cr  Cr22  1  0.83151954  0.50116043  0.16873060  1
  Ni  Ni23  1  0.66436193  0.33240446  0.33444934  1
  Ni  Ni24  1  0.66568650  0.66702087  0.00156685  1
  Cr  Cr25  1  0.83480260  0.83374594  0.16699005  1
  Fe  Fe26  1  0.66597198  0.66764059  0.33456117  1
  Ni  Ni27  1  0.16656268  0.16752950  0.49847871  1
  Ni  Ni28  1  1.00029139  0.00082966  0.66741505  1
  Ni  Ni29  1  0.16752993  0.16663266  0.83416314  1
  Ni  Ni30  1  0.16822098  0.49962654  0.50149527  1
  Ni  Ni31  1  0.00233907  0.33131499  0.66676654  1
  Ni  Ni32  1  0.16975458  0.50118498  0.83252082  1
  Ni  Ni33  1  0.16546426  0.83380286  0.50055189  1
  Fe  Fe34  1  0.00346980  0.66806918  0.66691969  1
  Ni  Ni35  1  0.16431512  0.83312592  0.83461944  1
  Ni  Ni36  1  0.50018680  0.16877386  0.49872500  1
  Cr  Cr37  1  0.33154826  0.00068127  0.66494022  1
  Ni  Ni38  1  0.50004446  0.17058338  0.83542374  1
  Ni  Ni39  1  0.49855806  0.49819982  0.50074535  1
  Ni  Ni40  1  0.33302463  0.33636007  0.66684177  1
  Ni  Ni41  1  0.49782309  0.49754742  0.83454685  1
  Ni  Ni42  1  0.49997177  0.83398996  0.49742466  1
  Ni  Ni43  1  0.33144306  0.66409123  0.66687498  1
  Cr  Cr44  1  0.49887890  0.83377659  0.83666939  1
  Ni  Ni45  1  0.83421882  0.16591965  0.49959966  1
  Cr  Cr46  1  0.66987706  0.00250805  0.66649743  1
  Ni  Ni47  1  0.83345421  0.16510803  0.83381237  1
  Cr  Cr48  1  0.83489800  0.49869695  0.49812219  1
  Ni  Ni49  1  0.66566495  0.33278031  0.66767172  1
  Cr  Cr50  1  0.83310269  0.50034464  0.83418082  1
  Ni  Ni51  1  0.83562187  0.83563161  0.49860638  1
  Cr  Cr52  1  0.66486470  0.66728368  0.66473867  1
  Ni  Ni53  1  0.83712232  0.83549941  0.83550086  1
" 