1335,Ni70Fe30_8,-236.71640025144, 205.602214275942,Ni70Fe30,"# generated using pymatgen
 data_Fe37Ni17
_symmetry_space_group_name_H-M   'P 1'
_cell_length_a   7.39947222
_cell_length_b   7.39947222
_cell_length_c   10.46443397
_cell_angle_alpha   90.00000000
_cell_angle_beta   90.00000000
_cell_angle_gamma   90.00000000
_symmetry_Int_Tables_number   1
_chemical_formula_structural   Fe37Ni17
_chemical_formula_sum   'Fe37 Ni17'
_cell_volume   572.95066832
_cell_formula_units_Z   1
loop_
 _symmetry_equiv_pos_site_id
 _symmetry_equiv_pos_as_xyz
  1  'x, y, z'
loop_
 _atom_site_type_symbol
 _atom_site_label
 _atom_site_symmetry_multiplicity
 _atom_site_fract_x
 _atom_site_fract_y
 _atom_site_fract_z
 _atom_site_occupancy
  Ni  Ni0  1  0.00531434  1.00326105  0.00560651  1
  Fe  Fe1  1  0.17248909  0.17062414  0.17070512  1
  Fe  Fe2  1  1.00382326  0.00470430  0.33726087  1
  Fe  Fe3  1  0.00484344  0.33700337  0.00463275  1
  Ni  Ni4  1  0.17166240  0.50618476  0.17082765  1
  Fe  Fe5  1  1.00426344  0.33857990  0.33791229  1
  Ni  Ni6  1  1.00445202  0.67223739  1.00453891  1
  Ni  Ni7  1  0.17129749  0.83657027  0.17168359  1
  Ni  Ni8  1  0.00507214  0.67199637  0.33773791  1
  Ni  Ni9  1  0.33755263  0.00486837  1.00448892  1
  Ni  Ni10  1  0.50666818  0.17095042  0.17066781  1
  Fe  Fe11  1  0.33828430  1.00426339  0.33679444  1
  Fe  Fe12  1  0.33718327  0.33798636  1.00443204  1
  Ni  Ni13  1  0.50344550  0.50493763  0.17210681  1
  Fe  Fe14  1  0.33776076  0.33893501  0.33811315  1
  Fe  Fe15  1  0.33716907  0.67204171  0.00465396  1
  Ni  Ni16  1  0.50381252  0.83781172  0.17104018  1
  Fe  Fe17  1  0.33772759  0.67050097  0.33789364  1
  Fe  Fe18  1  0.67190580  1.00443303  0.00493517  1
  Ni  Ni19  1  0.83735005  0.17057646  0.17162978  1
  Fe  Fe20  1  0.67159351  0.00473359  0.33746587  1
  Fe  Fe21  1  0.67167328  0.33709104  0.00471006  1
  Fe  Fe22  1  0.83753658  0.50492382  0.17161848  1
  Ni  Ni23  1  0.67045388  0.33750467  0.33768131  1
  Fe  Fe24  1  0.67092052  0.67217387  1.00455145  1
  Fe  Fe25  1  0.83814948  0.83745758  0.17108985  1
  Fe  Fe26  1  0.67123260  0.67094116  0.33761050  1
  Fe  Fe27  1  0.17154068  0.17174904  0.50503261  1
  Fe  Fe28  1  0.00469066  0.00545370  0.67196329  1
  Fe  Fe29  1  0.17151459  0.17135622  0.83796201  1
  Ni  Ni30  1  0.17153078  0.50511988  0.50561956  1
  Fe  Fe31  1  0.00515243  0.33824595  0.67115335  1
  Fe  Fe32  1  0.17132246  0.50428499  0.83743126  1
  Fe  Fe33  1  0.17107535  0.83708213  0.50414170  1
  Fe  Fe34  1  0.00532020  0.66999757  0.67077035  1
  Fe  Fe35  1  0.17107418  0.83805725  0.83885019  1
  Fe  Fe36  1  0.50420555  0.17233514  0.50428415  1
  Fe  Fe37  1  0.33848571  0.00499029  0.67158004  1
  Fe  Fe38  1  0.50479553  0.17199467  0.83794013  1
  Fe  Fe39  1  0.50419702  0.50403523  0.50533911  1
  Ni  Ni40  1  0.33957964  0.33837378  0.67105113  1
  Ni  Ni41  1  0.50368662  0.50505589  0.83692971  1
  Fe  Fe42  1  0.50383224  0.83732756  0.50444626  1
  Ni  Ni43  1  0.33721726  0.67087475  0.67132066  1
  Fe  Fe44  1  0.50469988  0.83795553  0.83816266  1
  Fe  Fe45  1  0.83795293  0.17211174  0.50464832  1
  Fe  Fe46  1  0.67052377  0.00516097  0.67129428  1
  Ni  Ni47  1  0.83811376  0.17046076  0.83677328  1
  Fe  Fe48  1  0.83820108  0.50449777  0.50426181  1
  Ni  Ni49  1  0.67041986  0.33751174  0.67126660  1
  Fe  Fe50  1  0.83728410  0.50418948  0.83781765  1
  Fe  Fe51  1  0.83879037  0.83708929  0.50442467  1
  Fe  Fe52  1  0.66980888  0.67020962  0.67153680  1
  Fe  Fe53  1  0.83792376  0.83776313  0.83818584  1
" 