6043,Ni70Fe9Cr20_4,-231.707903427688, 166.883025655477,Ni70Fe9Cr20,"# generated using pymatgen
 data_Cr6Fe2Ni19
_symmetry_space_group_name_H-M   'P 1'
_cell_length_a   7.46512857
_cell_length_b   7.46512857
_cell_length_c   10.55728607
_cell_angle_alpha   90.00000000
_cell_angle_beta   90.00000000
_cell_angle_gamma   90.00000000
_symmetry_Int_Tables_number   1
_chemical_formula_structural   Cr6Fe2Ni19
_chemical_formula_sum   'Cr12 Fe4 Ni38'
_cell_volume   588.33796394
_cell_formula_units_Z   2
loop_
 _symmetry_equiv_pos_site_id
 _symmetry_equiv_pos_as_xyz
  1  'x, y, z'
loop_
 _atom_site_type_symbol
 _atom_site_label
 _atom_site_symmetry_multiplicity
 _atom_site_fract_x
 _atom_site_fract_y
 _atom_site_fract_z
 _atom_site_occupancy
  Cr  Cr0  1  0.00034908  0.99841425  0.00025609  1
  Cr  Cr1  1  0.16667951  0.16717488  0.17026734  1
  Ni  Ni2  1  0.99826997  0.99774564  0.33345412  1
  Fe  Fe3  1  0.99789734  0.33263188  0.00142925  1
  Ni  Ni4  1  0.16453463  0.50143269  0.16672977  1
  Ni  Ni5  1  0.99796436  0.33558735  0.33265302  1
  Ni  Ni6  1  0.00085446  0.66747875  0.00308327  1
  Ni  Ni7  1  0.16717893  0.83242309  0.16636071  1
  Ni  Ni8  1  0.99908263  0.66703097  0.33349389  1
  Ni  Ni9  1  0.33490453  0.99909541  0.99933711  1
  Ni  Ni10  1  0.50220375  0.16547045  0.16771685  1
  Ni  Ni11  1  0.33321995  0.99925542  0.33087308  1
  Cr  Cr12  1  0.33619319  0.33370635  0.00077715  1
  Ni  Ni13  1  0.50250880  0.50043850  0.16731371  1
  Ni  Ni14  1  0.33509943  0.33547924  0.33323443  1
  Fe  Fe15  1  0.33559812  0.66892725  0.00090805  1
  Ni  Ni16  1  0.50170689  0.83468274  0.16543530  1
  Cr  Cr17  1  0.33271842  0.66514402  0.33116773  1
  Ni  Ni18  1  0.66515812  0.00097178  0.00059747  1
  Ni  Ni19  1  0.83081186  0.16768967  0.16739678  1
  Ni  Ni20  1  0.66915198  0.00050565  0.33108911  1
  Ni  Ni21  1  0.66590538  0.33340604  0.00112426  1
  Ni  Ni22  1  0.83332797  0.50031327  0.16610412  1
  Ni  Ni23  1  0.66720849  0.33464217  0.33210264  1
  Ni  Ni24  1  0.66611223  0.66621363  0.00190813  1
  Ni  Ni25  1  0.83192252  0.83236593  0.16838128  1
  Ni  Ni26  1  0.66925264  0.66516174  0.33264851  1
  Cr  Cr27  1  0.16683445  0.16768610  0.49807523  1
  Cr  Cr28  1  0.99938469  0.99951425  0.66626193  1
  Ni  Ni29  1  0.16725315  0.16643111  0.83195283  1
  Ni  Ni30  1  0.16529461  0.50067670  0.50119465  1
  Ni  Ni31  1  0.00059222  0.33383369  0.66718704  1
  Cr  Cr32  1  0.16580314  0.50106501  0.83328217  1
  Ni  Ni33  1  0.16688661  0.83207692  0.50039988  1
  Ni  Ni34  1  0.00138896  0.66661537  0.66403114  1
  Ni  Ni35  1  0.17041829  0.83354271  0.83352295  1
  Cr  Cr36  1  0.50032417  0.16574227  0.49809933  1
  Ni  Ni37  1  0.33349985  0.99946376  0.67006576  1
  Fe  Fe38  1  0.50003940  0.16537257  0.83412530  1
  Ni  Ni39  1  0.50065381  0.50110617  0.50034522  1
  Ni  Ni40  1  0.33325819  0.33480254  0.66688558  1
  Ni  Ni41  1  0.50032048  0.50335545  0.83283358  1
  Cr  Cr42  1  0.50054658  0.83345012  0.50067944  1
  Ni  Ni43  1  0.33335389  0.66636717  0.66804241  1
  Ni  Ni44  1  0.49914451  0.83329076  0.83372259  1
  Ni  Ni45  1  0.83364012  0.16785010  0.49843055  1
  Ni  Ni46  1  0.66620374  0.99989266  0.66832791  1
  Ni  Ni47  1  0.83297398  0.16749352  0.83459608  1
  Ni  Ni48  1  0.83451424  0.50015042  0.49979201  1
  Cr  Cr49  1  0.66615325  0.33335170  0.66704384  1
  Cr  Cr50  1  0.83298296  0.50013344  0.83522750  1
  Fe  Fe51  1  0.83341026  0.83215060  0.49873455  1
  Ni  Ni52  1  0.66589802  0.66670884  0.66570683  1
  Cr  Cr53  1  0.83035206  0.83142811  0.83253133  1
" 