6746,Ni70Fe5Cr23_6,-229.782055825774, 157.144255536967,Ni70Fe5Cr23,"# generated using pymatgen
 data_Cr7FeNi19
_symmetry_space_group_name_H-M   'P 1'
_cell_length_a   7.47251822
_cell_length_b   7.47251822
_cell_length_c   10.56773661
_cell_angle_alpha   90.00000000
_cell_angle_beta   90.00000000
_cell_angle_gamma   90.00000000
_symmetry_Int_Tables_number   1
_chemical_formula_structural   Cr7FeNi19
_chemical_formula_sum   'Cr14 Fe2 Ni38'
_cell_volume   590.08686214
_cell_formula_units_Z   2
loop_
 _symmetry_equiv_pos_site_id
 _symmetry_equiv_pos_as_xyz
  1  'x, y, z'
loop_
 _atom_site_type_symbol
 _atom_site_label
 _atom_site_symmetry_multiplicity
 _atom_site_fract_x
 _atom_site_fract_y
 _atom_site_fract_z
 _atom_site_occupancy
  Cr  Cr0  1  -0.00001522  0.99927250  0.00032546  1
  Ni  Ni1  1  0.16852709  0.16669611  0.16688881  1
  Cr  Cr2  1  -0.00031184  0.99892330  0.33264827  1
  Cr  Cr3  1  -0.00025347  0.33244794  0.99963291  1
  Ni  Ni4  1  0.16874055  0.50101581  0.16639188  1
  Cr  Cr5  1  0.00100808  0.33240652  0.33308465  1
  Ni  Ni6  1  0.00046639  0.66714803  0.00071255  1
  Ni  Ni7  1  0.16682569  0.83118791  0.16698691  1
  Ni  Ni8  1  0.00136472  0.66806208  0.33261770  1
  Cr  Cr9  1  0.33226263  -0.00001400  0.00035990  1
  Ni  Ni10  1  0.49878082  0.16778683  0.16689696  1
  Fe  Fe11  1  0.33210765  0.99960152  0.33154078  1
  Ni  Ni12  1  0.33505556  0.33405183  0.00055211  1
  Ni  Ni13  1  0.49829569  0.49965672  0.16642407  1
  Ni  Ni14  1  0.33370056  0.33449202  0.33203100  1
  Ni  Ni15  1  0.33305031  0.66481370  0.00106342  1
  Ni  Ni16  1  0.49910678  0.83145075  0.16687380  1
  Ni  Ni17  1  0.33264824  0.66477360  0.33210489  1
  Cr  Cr18  1  0.66665241  0.00085718  0.00102164  1
  Ni  Ni19  1  0.83159114  0.16588988  0.16641624  1
  Cr  Cr20  1  0.66732912  -0.00034452  0.33125850  1
  Ni  Ni21  1  0.66425941  0.33372074  0.99902518  1
  Cr  Cr22  1  0.83240831  0.50106990  0.16595075  1
  Ni  Ni23  1  0.66374830  0.33321392  0.33204890  1
  Ni  Ni24  1  0.66539089  0.66427924  0.00057210  1
  Ni  Ni25  1  0.83296415  0.83167069  0.16639759  1
  Ni  Ni26  1  0.66490094  0.66612774  0.33216516  1
  Ni  Ni27  1  0.16612232  0.16687465  0.50106921  1
  Ni  Ni28  1  0.00002714  0.00053875  0.66573663  1
  Ni  Ni29  1  0.16712593  0.16567674  0.83094986  1
  Ni  Ni30  1  0.16777370  0.49983761  0.49991170  1
  Ni  Ni31  1  0.99960055  0.33087672  0.66617777  1
  Cr  Cr32  1  0.16630901  0.50018514  0.83312321  1
  Fe  Fe33  1  0.16536197  0.83202189  0.50062467  1
  Ni  Ni34  1  0.00035847  0.66749226  0.66558517  1
  Ni  Ni35  1  0.16625305  0.83317912  0.83140826  1
  Cr  Cr36  1  0.49875320  0.16761728  0.50009674  1
  Ni  Ni37  1  0.33079878  0.00028438  0.66690848  1
  Ni  Ni38  1  0.49950732  0.16874983  0.83175855  1
  Ni  Ni39  1  0.49808125  0.50002391  0.49951936  1
  Ni  Ni40  1  0.33297990  0.33287115  0.66632327  1
  Ni  Ni41  1  0.50107667  0.49812238  0.83295573  1
  Cr  Cr42  1  0.49980481  0.83163796  0.50045164  1
  Ni  Ni43  1  0.33248722  0.66574884  0.66574364  1
  Cr  Cr44  1  0.49842936  0.83226769  0.83176526  1
  Ni  Ni45  1  0.83414955  0.16530880  0.50171554  1
  Ni  Ni46  1  0.66806173  0.00104394  0.66632102  1
  Ni  Ni47  1  0.83226798  0.16832418  0.83074784  1
  Cr  Cr48  1  0.83277708  0.50050257  0.50011266  1
  Ni  Ni49  1  0.66632143  0.33254158  0.66781525  1
  Ni  Ni50  1  0.83113515  0.49895939  0.83240396  1
  Ni  Ni51  1  0.83399637  0.83270577  0.50070398  1
  Ni  Ni52  1  0.66605422  0.66531470  0.66617386  1
  Cr  Cr53  1  0.83401434  0.83126822  0.83213797  1
" 