825,Ni70Fe20Cr8_16,-238.632238160939, 200.953785096483,Ni70Fe20Cr8,"# generated using pymatgen
 data_Cr5Fe11Ni38
_symmetry_space_group_name_H-M   'P 1'
_cell_length_a   7.43289074
_cell_length_b   7.43289074
_cell_length_c   10.51169489
_cell_angle_alpha   90.00000000
_cell_angle_beta   90.00000000
_cell_angle_gamma   90.00000000
_symmetry_Int_Tables_number   1
_chemical_formula_structural   Cr5Fe11Ni38
_chemical_formula_sum   'Cr5 Fe11 Ni38'
_cell_volume   580.74869761
_cell_formula_units_Z   1
loop_
 _symmetry_equiv_pos_site_id
 _symmetry_equiv_pos_as_xyz
  1  'x, y, z'
loop_
 _atom_site_type_symbol
 _atom_site_label
 _atom_site_symmetry_multiplicity
 _atom_site_fract_x
 _atom_site_fract_y
 _atom_site_fract_z
 _atom_site_occupancy
  Ni  Ni0  1  0.00238145  1.00187855  1.00159833  1
  Ni  Ni1  1  0.16922762  0.16895287  0.16882769  1
  Ni  Ni2  1  1.00166788  1.00149620  0.33663410  1
  Ni  Ni3  1  0.00445089  0.33619692  1.00154332  1
  Ni  Ni4  1  0.16950139  0.50307900  0.16904062  1
  Fe  Fe5  1  0.00362800  0.33486090  0.33481046  1
  Ni  Ni6  1  0.00241974  0.66881872  0.00242019  1
  Ni  Ni7  1  0.16918960  0.83486024  0.16923833  1
  Ni  Ni8  1  0.00281988  0.66962780  0.33508210  1
  Ni  Ni9  1  0.33546431  0.00288230  1.00217990  1
  Ni  Ni10  1  0.50233881  0.16836938  0.17037665  1
  Ni  Ni11  1  0.33597483  0.00318542  0.33632748  1
  Ni  Ni12  1  0.33391456  0.33571372  1.00197779  1
  Fe  Fe13  1  0.50030073  0.50245541  0.16947556  1
  Ni  Ni14  1  0.33511369  0.33532705  0.33491709  1
  Ni  Ni15  1  0.33494440  0.66829935  1.00167055  1
  Fe  Fe16  1  0.50148385  0.83654386  0.16952784  1
  Ni  Ni17  1  0.33438601  0.66837932  0.33609074  1
  Ni  Ni18  1  0.66904743  1.00084804  1.00202478  1
  Ni  Ni19  1  0.83532781  0.16805506  0.16959021  1
  Ni  Ni20  1  0.66924986  1.00222674  0.33629618  1
  Cr  Cr21  1  0.66845024  0.33505545  1.00176829  1
  Fe  Fe22  1  0.83739275  0.50274080  0.16918260  1
  Fe  Fe23  1  0.66865038  0.33357083  0.33440256  1
  Ni  Ni24  1  0.66952963  0.67036858  1.00153235  1
  Fe  Fe25  1  0.83644351  0.83649434  0.16901469  1
  Ni  Ni26  1  0.66968785  0.67049266  0.33472903  1
  Fe  Fe27  1  0.16780052  0.16731469  0.50169961  1
  Ni  Ni28  1  1.00156258  0.00317670  0.66866138  1
  Ni  Ni29  1  0.16822170  0.16806669  0.83690483  1
  Ni  Ni30  1  0.16961316  0.50316004  0.50053121  1
  Ni  Ni31  1  1.00109485  0.33432597  0.66954025  1
  Ni  Ni32  1  0.16952203  0.50260842  0.83732021  1
  Ni  Ni33  1  0.17037334  0.83618638  0.50124203  1
  Cr  Cr34  1  0.00294812  0.66955472  0.66952838  1
  Ni  Ni35  1  0.16955063  0.83621984  0.83641349  1
  Fe  Fe36  1  0.50315970  0.16573638  0.50162413  1
  Ni  Ni37  1  0.33639362  1.00128726  0.66839154  1
  Ni  Ni38  1  0.50284146  0.16825770  0.83539492  1
  Cr  Cr39  1  0.50123955  0.50353588  0.50148284  1
  Cr  Cr40  1  0.33495394  0.33495233  0.67039646  1
  Ni  Ni41  1  0.50251102  0.50339328  0.83579829  1
  Ni  Ni42  1  0.50162546  0.83702947  0.50254440  1
  Fe  Fe43  1  0.33581935  0.67137598  0.66945192  1
  Fe  Fe44  1  0.50234627  0.83596398  0.83555916  1
  Ni  Ni45  1  0.83538049  0.16697064  0.50280632  1
  Ni  Ni46  1  0.66893674  0.00286717  0.66857604  1
  Ni  Ni47  1  0.83582995  0.16828297  0.83449279  1
  Cr  Cr48  1  0.83624930  0.50079393  0.50177524  1
  Ni  Ni49  1  0.67022082  0.33381482  0.67018143  1
  Ni  Ni50  1  0.83485865  0.50206103  0.83549268  1
  Ni  Ni51  1  0.83489433  0.83910259  0.50083955  1
  Fe  Fe52  1  0.66809314  0.67070516  0.67050340  1
  Ni  Ni53  1  0.83504715  0.83655138  0.83664302  1
" 