6984,Ni70Cr30_0,-211.828624406592, 150.868765662776,Ni70Cr30,"# generated using pymatgen
 data_Cr37Ni17
_symmetry_space_group_name_H-M   'P 1'
_cell_length_a   7.55280933
_cell_length_b   7.55280933
_cell_length_c   10.68128539
_cell_angle_alpha   90.00000000
_cell_angle_beta   90.00000000
_cell_angle_gamma   90.00000000
_symmetry_Int_Tables_number   1
_chemical_formula_structural   Cr37Ni17
_chemical_formula_sum   'Cr37 Ni17'
_cell_volume   609.31316400
_cell_formula_units_Z   1
loop_
 _symmetry_equiv_pos_site_id
 _symmetry_equiv_pos_as_xyz
  1  'x, y, z'
loop_
 _atom_site_type_symbol
 _atom_site_label
 _atom_site_symmetry_multiplicity
 _atom_site_fract_x
 _atom_site_fract_y
 _atom_site_fract_z
 _atom_site_occupancy
  Ni  Ni0  1  0.99197540  0.99415219  0.99426865  1
  Cr  Cr1  1  0.16038078  0.16040291  0.16115868  1
  Cr  Cr2  1  0.99276375  0.99191485  0.32736133  1
  Cr  Cr3  1  -0.00519179  0.32707594  0.99428951  1
  Cr  Cr4  1  0.16012636  0.49405090  0.16182190  1
  Ni  Ni5  1  0.99000677  0.32698494  0.32775835  1
  Cr  Cr6  1  0.99247986  0.66290859  -0.00233745  1
  Cr  Cr7  1  0.16186015  0.82855445  0.16045724  1
  Cr  Cr8  1  0.99364083  0.66107894  0.32704139  1
  Cr  Cr9  1  0.32823708  -0.00300127  -0.00388689  1
  Ni  Ni10  1  0.49547129  0.16103664  0.16358876  1
  Ni  Ni11  1  0.33124354  0.99352505  0.32660809  1
  Ni  Ni12  1  0.32898608  0.32910971  -0.00466318  1
  Cr  Cr13  1  0.49617305  0.49449351  0.15989798  1
  Cr  Cr14  1  0.32903127  0.32705185  0.32513891  1
  Ni  Ni15  1  0.32961094  0.65954350  0.99422592  1
  Cr  Cr16  1  0.49514028  0.82870970  0.16209425  1
  Ni  Ni17  1  0.32828268  0.66316327  0.32785484  1
  Cr  Cr18  1  0.66172770  0.99377205  -0.00423632  1
  Cr  Cr19  1  0.82676781  0.16109992  0.16241135  1
  Ni  Ni20  1  0.66126927  -0.00396079  0.32739287  1
  Cr  Cr21  1  0.65887477  0.32693284  -0.00538466  1
  Ni  Ni22  1  0.82592226  0.49449192  0.16201347  1
  Ni  Ni23  1  0.66332691  0.32475353  0.32640637  1
  Ni  Ni24  1  0.66054857  0.66104127  -0.00315181  1
  Ni  Ni25  1  0.82586261  0.82775038  0.15986563  1
  Cr  Cr26  1  0.66281335  0.66307199  0.32639976  1
  Cr  Cr27  1  0.15945528  0.15968591  0.49243634  1
  Cr  Cr28  1  0.99251689  0.99419546  0.66158203  1
  Cr  Cr29  1  0.15921708  0.15931322  0.82941804  1
  Cr  Cr30  1  0.16168676  0.49456823  0.49306372  1
  Cr  Cr31  1  0.99312352  0.32618610  0.66032091  1
  Cr  Cr32  1  0.16218698  0.49604499  0.82779973  1
  Cr  Cr33  1  0.16400479  0.82854369  0.49467543  1
  Cr  Cr34  1  0.99385426  0.66225689  0.65820552  1
  Cr  Cr35  1  0.16240486  0.82799755  0.82817022  1
  Cr  Cr36  1  0.49609351  0.15924768  0.49112001  1
  Ni  Ni37  1  0.32765142  0.99259072  0.66070402  1
  Cr  Cr38  1  0.49472922  0.15986984  0.82817401  1
  Cr  Cr39  1  0.49469963  0.49564680  0.49439510  1
  Cr  Cr40  1  0.32817958  0.32661570  0.66267422  1
  Cr  Cr41  1  0.49449125  0.49724421  0.82847176  1
  Cr  Cr42  1  0.49386019  0.82856237  0.49422085  1
  Ni  Ni43  1  0.32759150  0.66317250  0.66097584  1
  Cr  Cr44  1  0.49361516  0.82589384  0.82693526  1
  Ni  Ni45  1  0.82673130  0.15917800  0.49146670  1
  Cr  Cr46  1  0.66174027  -0.00468503  0.65995288  1
  Ni  Ni47  1  0.82853128  0.15969353  0.82838857  1
  Cr  Cr48  1  0.82657187  0.49075397  0.49182184  1
  Cr  Cr49  1  0.66160721  0.32505573  0.66091488  1
  Cr  Cr50  1  0.82614820  0.49364783  0.82939597  1
  Ni  Ni51  1  0.82622218  0.83158370  0.49253587  1
  Cr  Cr52  1  0.66227104  0.66242245  0.66048733  1
  Cr  Cr53  1  0.82689969  0.82842188  0.83071458  1
" 