7705,Ni70Fe9Cr20_11,-231.874945885735, 168.825293002721,Ni70Fe9Cr20,"# generated using pymatgen
 data_Cr6Fe2Ni19
_symmetry_space_group_name_H-M   'P 1'
_cell_length_a   7.46311532
_cell_length_b   7.46311532
_cell_length_c   10.55443890
_cell_angle_alpha   90.00000000
_cell_angle_beta   90.00000000
_cell_angle_gamma   90.00000000
_symmetry_Int_Tables_number   1
_chemical_formula_structural   Cr6Fe2Ni19
_chemical_formula_sum   'Cr12 Fe4 Ni38'
_cell_volume   587.86209117
_cell_formula_units_Z   2
loop_
 _symmetry_equiv_pos_site_id
 _symmetry_equiv_pos_as_xyz
  1  'x, y, z'
loop_
 _atom_site_type_symbol
 _atom_site_label
 _atom_site_symmetry_multiplicity
 _atom_site_fract_x
 _atom_site_fract_y
 _atom_site_fract_z
 _atom_site_occupancy
  Ni  Ni0  1  0.00034084  0.99870745  0.00031489  1
  Ni  Ni1  1  0.16621739  0.16698198  0.16620380  1
  Cr  Cr2  1  0.00082360  0.00089481  0.33476510  1
  Cr  Cr3  1  0.99943271  0.33507527  0.00199203  1
  Ni  Ni4  1  0.16684385  0.50062243  0.16581310  1
  Fe  Fe5  1  0.99866582  0.33422721  0.33387718  1
  Ni  Ni6  1  0.00085097  0.66769819  0.99933529  1
  Ni  Ni7  1  0.16778780  0.83321695  0.16354614  1
  Cr  Cr8  1  0.00183921  0.66626256  0.33407722  1
  Ni  Ni9  1  0.33383705  0.00038623  0.00054117  1
  Ni  Ni10  1  0.50086846  0.16598659  0.16475318  1
  Cr  Cr11  1  0.33429044  0.99965135  0.33449308  1
  Ni  Ni12  1  0.33290618  0.33244069  0.00117979  1
  Cr  Cr13  1  0.50062024  0.50237525  0.16720706  1
  Cr  Cr14  1  0.33420481  0.33302116  0.33359163  1
  Ni  Ni15  1  0.33079673  0.66784436  0.99993460  1
  Cr  Cr16  1  0.50079702  0.83303589  0.16767689  1
  Ni  Ni17  1  0.33240715  0.66656953  0.33538302  1
  Ni  Ni18  1  0.66666131  0.00081701  0.99915926  1
  Ni  Ni19  1  0.83349199  0.16689215  0.16785280  1
  Ni  Ni20  1  0.66675580  0.00322250  0.33505709  1
  Cr  Cr21  1  0.66654597  0.33189842  0.99938288  1
  Ni  Ni22  1  0.83447437  0.49955851  0.16777147  1
  Ni  Ni23  1  0.66798557  0.33236168  0.33403012  1
  Ni  Ni24  1  0.66909770  0.66779099  0.99876588  1
  Cr  Cr25  1  0.83213045  0.83386743  0.16570646  1
  Ni  Ni26  1  0.66732718  0.66521515  0.33689094  1
  Fe  Fe27  1  0.16678708  0.16734628  0.50303341  1
  Ni  Ni28  1  0.99902259  1.00024094  0.66579550  1
  Cr  Cr29  1  0.16656418  0.16730790  0.83127103  1
  Ni  Ni30  1  0.16814644  0.49933295  0.50147303  1
  Ni  Ni31  1  0.99896474  0.33379140  0.66488627  1
  Ni  Ni32  1  0.16771021  0.49997016  0.83388858  1
  Ni  Ni33  1  0.16868141  0.83338350  0.50293634  1
  Cr  Cr34  1  0.99908566  0.66748253  0.66814868  1
  Fe  Fe35  1  0.16718836  0.83325851  0.83383214  1
  Ni  Ni36  1  0.50253779  0.16699876  0.50277209  1
  Ni  Ni37  1  0.33505328  0.99923902  0.66584142  1
  Fe  Fe38  1  0.50094468  0.16526499  0.83232682  1
  Ni  Ni39  1  0.50027598  0.50078766  0.50105545  1
  Ni  Ni40  1  0.33434490  0.33376339  0.66548579  1
  Cr  Cr41  1  0.49813938  0.50210846  0.83221027  1
  Ni  Ni42  1  0.50104465  0.83289627  0.50050321  1
  Ni  Ni43  1  0.33401223  0.66764785  0.66541683  1
  Ni  Ni44  1  0.50055421  0.83449632  0.83340079  1
  Ni  Ni45  1  0.83288119  0.16736227  0.50105353  1
  Ni  Ni46  1  0.66677167  0.00031123  0.66677091  1
  Ni  Ni47  1  0.83422560  0.16433495  0.83193071  1
  Ni  Ni48  1  0.83219196  0.49796478  0.50047951  1
  Ni  Ni49  1  0.66764549  0.33295494  0.66637431  1
  Ni  Ni50  1  0.83442098  0.50070134  0.83265586  1
  Ni  Ni51  1  0.83102617  0.83551344  0.50139761  1
  Ni  Ni52  1  0.66661588  0.66749359  0.66556080  1
  Ni  Ni53  1  0.83138889  0.83565101  0.83442322  1
" 