7846,Ni70Fe9Cr20_6,-231.735075813167, 166.434066962058,Ni70Fe9Cr20,"# generated using pymatgen
 data_Cr6Fe2Ni19
_symmetry_space_group_name_H-M   'P 1'
_cell_length_a   7.47017713
_cell_length_b   7.47017713
_cell_length_c   10.56442580
_cell_angle_alpha   90.00000000
_cell_angle_beta   90.00000000
_cell_angle_gamma   90.00000000
_symmetry_Int_Tables_number   1
_chemical_formula_structural   Cr6Fe2Ni19
_chemical_formula_sum   'Cr12 Fe4 Ni38'
_cell_volume   589.53242441
_cell_formula_units_Z   2
loop_
 _symmetry_equiv_pos_site_id
 _symmetry_equiv_pos_as_xyz
  1  'x, y, z'
loop_
 _atom_site_type_symbol
 _atom_site_label
 _atom_site_symmetry_multiplicity
 _atom_site_fract_x
 _atom_site_fract_y
 _atom_site_fract_z
 _atom_site_occupancy
  Ni  Ni0  1  0.00018921  0.99971597  0.00071044  1
  Ni  Ni1  1  0.16676542  0.16645853  0.16564647  1
  Cr  Cr2  1  0.00148746  0.00076997  0.33194598  1
  Ni  Ni3  1  0.99909670  0.33279186  -0.00010292  1
  Cr  Cr4  1  0.16832808  0.49861397  0.16300290  1
  Cr  Cr5  1  0.99960760  0.33225686  0.33511697  1
  Ni  Ni6  1  0.00090135  0.66705480  0.99920471  1
  Ni  Ni7  1  0.16547102  0.83508353  0.16457906  1
  Cr  Cr8  1  0.99923569  0.66615739  0.33223858  1
  Cr  Cr9  1  0.33245111  0.99876917  0.99874462  1
  Fe  Fe10  1  0.50112593  0.16799182  0.16668718  1
  Fe  Fe11  1  0.33370241  0.00197327  0.33447317  1
  Fe  Fe12  1  0.33343888  0.33330525  0.99827258  1
  Ni  Ni13  1  0.50111953  0.49706199  0.16641531  1
  Ni  Ni14  1  0.33533631  0.33160279  0.33325164  1
  Ni  Ni15  1  0.33180310  0.66581698  0.99814426  1
  Cr  Cr16  1  0.50060367  0.83276861  0.16842861  1
  Cr  Cr17  1  0.33293525  0.66599610  0.33444277  1
  Ni  Ni18  1  0.66759548  0.00159926  0.99937277  1
  Ni  Ni19  1  0.83217422  0.16653793  0.16510171  1
  Ni  Ni20  1  0.66589719  0.00188515  0.33284206  1
  Ni  Ni21  1  0.66630084  0.33280053  0.00076629  1
  Ni  Ni22  1  0.83053285  0.49843179  0.16606577  1
  Ni  Ni23  1  0.66475264  0.33297317  0.33308511  1
  Cr  Cr24  1  0.66576842  0.66542617  0.99823287  1
  Ni  Ni25  1  0.83285101  0.83466340  0.16489661  1
  Ni  Ni26  1  0.66546818  0.66474296  0.33353477  1
  Ni  Ni27  1  0.16874547  0.16700160  0.50162412  1
  Ni  Ni28  1  0.00362159  0.00067615  0.66692699  1
  Ni  Ni29  1  0.16717525  0.16738393  0.83217846  1
  Ni  Ni30  1  0.16833720  0.49853119  0.50254311  1
  Ni  Ni31  1  0.00229472  0.33337707  0.66484475  1
  Ni  Ni32  1  0.16672910  0.49936089  0.83350131  1
  Ni  Ni33  1  0.16907535  0.83406923  0.50181510  1
  Fe  Fe34  1  0.00118044  0.66546505  0.66771754  1
  Ni  Ni35  1  0.16595376  0.83248419  0.83264559  1
  Ni  Ni36  1  0.49778507  0.16670979  0.49746257  1
  Ni  Ni37  1  0.33108004  0.99941830  0.66535699  1
  Ni  Ni38  1  0.49711782  0.16740449  0.83481121  1
  Ni  Ni39  1  0.49923174  0.49980181  0.49940511  1
  Ni  Ni40  1  0.33153541  0.33347244  0.66725102  1
  Ni  Ni41  1  0.49770483  0.49976197  0.83354913  1
  Ni  Ni42  1  0.49858152  0.83309079  0.49991227  1
  Ni  Ni43  1  0.33377517  0.66648360  0.66681908  1
  Ni  Ni44  1  0.49869948  0.83231946  0.83151567  1
  Ni  Ni45  1  0.83308628  0.16744262  0.49982493  1
  Cr  Cr46  1  0.66373759  0.99939555  0.66849028  1
  Cr  Cr47  1  0.83568620  0.16642310  0.83417833  1
  Ni  Ni48  1  0.83186967  0.49904453  0.50018870  1
  Cr  Cr49  1  0.66535665  0.33546012  0.66555834  1
  Ni  Ni50  1  0.83494053  0.50079485  0.83309564  1
  Cr  Cr51  1  0.83152426  0.83290672  0.50132392  1
  Ni  Ni52  1  0.66411640  0.66523141  0.66707051  1
  Ni  Ni53  1  0.83480763  0.83192868  0.83397782  1
" 