3459,Ni70Cr30_19,-211.563661595422, 141.712017307835,Ni70Cr30,"# generated using pymatgen
 data_Cr37Ni17
_symmetry_space_group_name_H-M   'P 1'
_cell_length_a   7.55883470
_cell_length_b   7.55883470
_cell_length_c   10.68980655
_cell_angle_alpha   90.00000000
_cell_angle_beta   90.00000000
_cell_angle_gamma   90.00000000
_symmetry_Int_Tables_number   1
_chemical_formula_structural   Cr37Ni17
_chemical_formula_sum   'Cr37 Ni17'
_cell_volume   610.77259549
_cell_formula_units_Z   1
loop_
 _symmetry_equiv_pos_site_id
 _symmetry_equiv_pos_as_xyz
  1  'x, y, z'
loop_
 _atom_site_type_symbol
 _atom_site_label
 _atom_site_symmetry_multiplicity
 _atom_site_fract_x
 _atom_site_fract_y
 _atom_site_fract_z
 _atom_site_occupancy
  Cr  Cr0  1  0.99257107  -0.00473036  -0.00537156  1
  Cr  Cr1  1  0.15942116  0.16107582  0.16266153  1
  Cr  Cr2  1  -0.00467019  -0.00498739  0.32672772  1
  Cr  Cr3  1  0.98971618  0.32621242  -0.00602447  1
  Cr  Cr4  1  0.16020252  0.49333826  0.16107824  1
  Ni  Ni5  1  -0.00520311  0.32615631  0.32606650  1
  Cr  Cr6  1  -0.00395980  0.66037927  -0.00454539  1
  Ni  Ni7  1  0.16354644  0.82619991  0.15929923  1
  Cr  Cr8  1  -0.00530584  0.65991581  0.32668543  1
  Cr  Cr9  1  0.32692535  0.99083396  -0.00559380  1
  Cr  Cr10  1  0.49446902  0.16049137  0.16093370  1
  Cr  Cr11  1  0.32672112  -0.00578669  0.33001578  1
  Cr  Cr12  1  0.32877514  0.32973554  0.99307090  1
  Cr  Cr13  1  0.49365031  0.49401662  0.15942255  1
  Ni  Ni14  1  0.32516847  0.32507370  0.32965201  1
  Ni  Ni15  1  0.32756073  0.66282699  -0.00361404  1
  Ni  Ni16  1  0.49101159  0.82622965  0.15919106  1
  Cr  Cr17  1  0.32668526  0.66112247  0.32547037  1
  Cr  Cr18  1  0.66232787  -0.00293456  -0.00475321  1
  Ni  Ni19  1  0.82725743  0.16471013  0.15984044  1
  Cr  Cr20  1  0.65979312  -0.00522678  0.32600172  1
  Ni  Ni21  1  0.66367415  0.32647073  -0.00534062  1
  Ni  Ni22  1  0.82730897  0.49006295  0.16068251  1
  Cr  Cr23  1  0.66110263  0.32678527  0.32611235  1
  Cr  Cr24  1  0.65900620  0.65863622  -0.00396093  1
  Cr  Cr25  1  0.82698565  0.82797175  0.16159050  1
  Cr  Cr26  1  0.66041607  0.66027629  0.32595775  1
  Ni  Ni27  1  0.16267071  0.16049311  0.49395723  1
  Cr  Cr28  1  -0.00359984  -0.00509197  0.66065941  1
  Cr  Cr29  1  0.15932426  0.16063180  0.82582964  1
  Cr  Cr30  1  0.15827442  0.49139880  0.49319112  1
  Ni  Ni31  1  0.99163073  0.32732397  0.66049120  1
  Cr  Cr32  1  0.15968456  0.49450874  0.82727750  1
  Ni  Ni33  1  0.16096100  0.82956749  0.49615974  1
  Ni  Ni34  1  0.99313156  0.65955835  0.65944535  1
  Cr  Cr35  1  0.16104942  0.82666608  0.82739070  1
  Ni  Ni36  1  0.49039094  0.16138213  0.49514715  1
  Ni  Ni37  1  0.32618559  -0.00537020  0.65737070  1
  Cr  Cr38  1  0.49567722  0.16116959  0.82658584  1
  Cr  Cr39  1  0.49523411  0.49159130  0.49452616  1
  Cr  Cr40  1  0.32743647  0.32429631  0.65840015  1
  Cr  Cr41  1  0.49535215  0.49396162  0.82794681  1
  Cr  Cr42  1  0.49442327  0.82886044  0.49543346  1
  Cr  Cr43  1  0.32633630  0.66201351  0.66065214  1
  Cr  Cr44  1  0.49357250  0.82677452  0.82739875  1
  Cr  Cr45  1  0.82835031  0.16244445  0.49366762  1
  Cr  Cr46  1  0.65900431  -0.00380832  0.66051318  1
  Ni  Ni47  1  0.82602311  0.16406849  0.82693072  1
  Cr  Cr48  1  0.82818441  0.49432561  0.49621824  1
  Ni  Ni49  1  0.66279448  0.32734250  0.66119640  1
  Cr  Cr50  1  0.82674037  0.49256348  0.82364065  1
  Cr  Cr51  1  0.82836224  0.82502410  0.49642535  1
  Ni  Ni52  1  0.66257884  0.65828592  0.66054870  1
  Cr  Cr53  1  0.82720746  0.82730094  0.82387824  1
" 