4124,Ni70Fe20Cr8_1,-238.497744799616, 200.84417631905,Ni70Fe20Cr8,"# generated using pymatgen
 data_Cr5Fe11Ni38
_symmetry_space_group_name_H-M   'P 1'
_cell_length_a   7.43272642
_cell_length_b   7.43272642
_cell_length_c   10.51146250
_cell_angle_alpha   90.00000000
_cell_angle_beta   90.00000000
_cell_angle_gamma   90.00000000
_symmetry_Int_Tables_number   1
_chemical_formula_structural   Cr5Fe11Ni38
_chemical_formula_sum   'Cr5 Fe11 Ni38'
_cell_volume   580.71018172
_cell_formula_units_Z   1
loop_
 _symmetry_equiv_pos_site_id
 _symmetry_equiv_pos_as_xyz
  1  'x, y, z'
loop_
 _atom_site_type_symbol
 _atom_site_label
 _atom_site_symmetry_multiplicity
 _atom_site_fract_x
 _atom_site_fract_y
 _atom_site_fract_z
 _atom_site_occupancy
  Ni  Ni0  1  0.00253867  1.00127618  0.00318476  1
  Ni  Ni1  1  0.16824339  0.16912046  0.16937014  1
  Fe  Fe2  1  1.00224774  0.00244144  0.33561857  1
  Fe  Fe3  1  0.00392802  0.33728546  0.00308286  1
  Ni  Ni4  1  0.16767950  0.50261506  0.16931632  1
  Ni  Ni5  1  1.00222185  0.33573126  0.33484090  1
  Ni  Ni6  1  1.00149089  0.66983275  1.00181193  1
  Ni  Ni7  1  0.16955837  0.83518889  0.16851062  1
  Ni  Ni8  1  1.00181754  0.66848709  0.33509074  1
  Fe  Fe9  1  0.33505150  1.00115108  0.00253948  1
  Ni  Ni10  1  0.50318038  0.16748234  0.16863787  1
  Ni  Ni11  1  0.33609822  1.00184260  0.33389697  1
  Ni  Ni12  1  0.33492827  0.33445852  1.00148203  1
  Cr  Cr13  1  0.50157918  0.50302312  0.17012468  1
  Ni  Ni14  1  0.33403177  0.33497625  0.33550926  1
  Ni  Ni15  1  0.33518020  0.66908726  1.00143112  1
  Ni  Ni16  1  0.50165151  0.83704738  0.16991988  1
  Ni  Ni17  1  0.33529922  0.67010728  0.33636933  1
  Fe  Fe18  1  0.66804563  1.00035189  0.00358547  1
  Ni  Ni19  1  0.83550209  0.16936146  0.16958469  1
  Ni  Ni20  1  0.66905614  1.00143475  0.33419479  1
  Fe  Fe21  1  0.66925234  0.33635837  0.00246324  1
  Fe  Fe22  1  0.83749348  0.50223737  0.16938022  1
  Ni  Ni23  1  0.67067203  0.33493755  0.33562597  1
  Ni  Ni24  1  0.67025606  0.67039058  1.00126233  1
  Fe  Fe25  1  0.83593536  0.83605840  0.16872680  1
  Ni  Ni26  1  0.66980922  0.67055673  0.33665505  1
  Fe  Fe27  1  0.16734301  0.16865159  0.50275701  1
  Ni  Ni28  1  0.00469304  1.00189526  0.66761564  1
  Ni  Ni29  1  0.17039213  0.16914306  0.83495587  1
  Fe  Fe30  1  0.16870281  0.50316141  0.50224669  1
  Ni  Ni31  1  0.00327281  0.33582150  0.66885444  1
  Ni  Ni32  1  0.16907082  0.50263134  0.83520093  1
  Ni  Ni33  1  0.16922352  0.83520032  0.50320149  1
  Ni  Ni34  1  0.00357395  0.66921163  0.67002492  1
  Ni  Ni35  1  0.16983839  0.83515091  0.83521565  1
  Cr  Cr36  1  0.50262395  0.17031258  0.50154603  1
  Ni  Ni37  1  0.33289208  1.00213672  0.67098234  1
  Fe  Fe38  1  0.49929535  0.16980259  0.83614359  1
  Ni  Ni39  1  0.50215824  0.50303317  0.50210631  1
  Ni  Ni40  1  0.33454646  0.33581548  0.66993810  1
  Fe  Fe41  1  0.50091827  0.50225861  0.83606464  1
  Ni  Ni42  1  0.49996651  0.83338232  0.50017714  1
  Ni  Ni43  1  0.33400398  0.66897538  0.66913092  1
  Ni  Ni44  1  0.50016844  0.83510214  0.83682917  1
  Ni  Ni45  1  0.83748500  0.17063015  0.50192060  1
  Cr  Cr46  1  0.66956666  1.00151787  0.66901071  1
  Cr  Cr47  1  0.83685558  0.17019993  0.83477999  1
  Ni  Ni48  1  0.83566070  0.50060918  0.50156776  1
  Ni  Ni49  1  0.66910154  0.33692951  0.66924755  1
  Ni  Ni50  1  0.83633900  0.50265734  0.83642746  1
  Ni  Ni51  1  0.83773897  0.83568716  0.50099099  1
  Cr  Cr52  1  0.66958077  0.66812978  0.66849693  1
  Ni  Ni53  1  0.83691407  0.83378614  0.83702568  1
" 