8827,Ni70Fe27Cr1_13,-241.804367029458, 214.644958000783,Ni70Fe27Cr1,"# generated using pymatgen
 data_Cr2Fe15Ni37
_symmetry_space_group_name_H-M   'P 1'
_cell_length_a   7.42361250
_cell_length_b   7.42361250
_cell_length_c   10.49857348
_cell_angle_alpha   90.00000000
_cell_angle_beta   90.00000000
_cell_angle_gamma   90.00000000
_symmetry_Int_Tables_number   1
_chemical_formula_structural   Cr2Fe15Ni37
_chemical_formula_sum   'Cr2 Fe15 Ni37'
_cell_volume   578.57662144
_cell_formula_units_Z   1
loop_
 _symmetry_equiv_pos_site_id
 _symmetry_equiv_pos_as_xyz
  1  'x, y, z'
loop_
 _atom_site_type_symbol
 _atom_site_label
 _atom_site_symmetry_multiplicity
 _atom_site_fract_x
 _atom_site_fract_y
 _atom_site_fract_z
 _atom_site_occupancy
  Ni  Ni0  1  0.00483434  0.00444465  1.00271691  1
  Ni  Ni1  1  0.17017790  0.16944808  0.16908527  1
  Fe  Fe2  1  0.00449961  0.00405269  0.33698676  1
  Ni  Ni3  1  1.00287014  0.33601788  0.00365060  1
  Ni  Ni4  1  0.17013464  0.50274785  0.16926292  1
  Ni  Ni5  1  0.00299179  0.33650048  0.33606324  1
  Fe  Fe6  1  0.00403505  0.66860228  1.00258654  1
  Ni  Ni7  1  0.16986460  0.83657673  0.16889458  1
  Fe  Fe8  1  0.00456941  0.66875659  0.33706312  1
  Ni  Ni9  1  0.33476719  1.00237303  0.00321501  1
  Ni  Ni10  1  0.50187821  0.17086918  0.16955815  1
  Ni  Ni11  1  0.33653499  1.00266917  0.33608523  1
  Ni  Ni12  1  0.33557341  0.33680413  0.00293001  1
  Ni  Ni13  1  0.50275946  0.50216664  0.16883536  1
  Ni  Ni14  1  0.33529765  0.33607028  0.33669832  1
  Ni  Ni15  1  0.33704370  0.66958824  0.00383132  1
  Fe  Fe16  1  0.49995856  0.83567369  0.16980996  1
  Fe  Fe17  1  0.33558185  0.66895046  0.33637016  1
  Cr  Cr18  1  0.66856927  0.00328175  1.00198557  1
  Fe  Fe19  1  0.83752691  0.17186102  0.16977979  1
  Fe  Fe20  1  0.66859114  0.00445334  0.33749747  1
  Ni  Ni21  1  0.67037963  0.33823774  0.00328956  1
  Fe  Fe22  1  0.83659149  0.50125104  0.16932453  1
  Fe  Fe23  1  0.66875551  0.33584029  0.33615226  1
  Ni  Ni24  1  0.66833166  0.66760221  1.00253918  1
  Cr  Cr25  1  0.83726770  0.83592817  0.16947199  1
  Fe  Fe26  1  0.66863344  0.66848223  0.33723475  1
  Ni  Ni27  1  0.16953643  0.16940188  0.50280777  1
  Ni  Ni28  1  1.00262196  0.00422942  0.66883074  1
  Ni  Ni29  1  0.16931016  0.16943747  0.83690083  1
  Ni  Ni30  1  0.16948234  0.50295536  0.50285261  1
  Ni  Ni31  1  1.00272986  0.33594104  0.66906870  1
  Ni  Ni32  1  0.16938112  0.50279360  0.83668967  1
  Ni  Ni33  1  0.16915502  0.83642188  0.50288167  1
  Fe  Fe34  1  0.00297019  0.66997346  0.66911337  1
  Fe  Fe35  1  0.17037209  0.83663159  0.83632740  1
  Ni  Ni36  1  0.50290589  0.16935951  0.50336602  1
  Ni  Ni37  1  0.33653265  1.00215529  0.66944789  1
  Ni  Ni38  1  0.50240939  0.16965381  0.83589091  1
  Ni  Ni39  1  0.50297427  0.50298634  0.50329529  1
  Fe  Fe40  1  0.33620463  0.33594922  0.66957463  1
  Ni  Ni41  1  0.50322509  0.50344175  0.83670102  1
  Ni  Ni42  1  0.50334180  0.83637215  0.50205674  1
  Ni  Ni43  1  0.33743320  0.66983931  0.66864398  1
  Ni  Ni44  1  0.50280409  0.83565181  0.83661566  1
  Ni  Ni45  1  0.83632472  0.16905933  0.50246834  1
  Ni  Ni46  1  0.66963353  1.00196465  0.66900124  1
  Ni  Ni47  1  0.83705753  0.16988408  0.83640894  1
  Ni  Ni48  1  0.83629810  0.50338019  0.50253656  1
  Fe  Fe49  1  0.66969603  0.33583436  0.66999107  1
  Ni  Ni50  1  0.83619113  0.50319046  0.83723604  1
  Ni  Ni51  1  0.83628777  0.83635388  0.50364763  1
  Ni  Ni52  1  0.66883391  0.66996291  0.66930612  1
  Fe  Fe53  1  0.83624321  0.83590076  0.83539600  1
" 