7605,Ni70Fe5Cr23_17,-229.753529849725, 157.989243085639,Ni70Fe5Cr23,"# generated using pymatgen
 data_Cr7FeNi19
_symmetry_space_group_name_H-M   'P 1'
_cell_length_a   7.47576355
_cell_length_b   7.47576355
_cell_length_c   10.57232620
_cell_angle_alpha   90.00000000
_cell_angle_beta   90.00000000
_cell_angle_gamma   90.00000000
_symmetry_Int_Tables_number   1
_chemical_formula_structural   Cr7FeNi19
_chemical_formula_sum   'Cr14 Fe2 Ni38'
_cell_volume   590.85602391
_cell_formula_units_Z   2
loop_
 _symmetry_equiv_pos_site_id
 _symmetry_equiv_pos_as_xyz
  1  'x, y, z'
loop_
 _atom_site_type_symbol
 _atom_site_label
 _atom_site_symmetry_multiplicity
 _atom_site_fract_x
 _atom_site_fract_y
 _atom_site_fract_z
 _atom_site_occupancy
  Ni  Ni0  1  0.99932784  0.00095147  0.00050416  1
  Ni  Ni1  1  0.16248677  0.16462711  0.16572718  1
  Ni  Ni2  1  0.99915868  0.99899260  0.33195927  1
  Ni  Ni3  1  0.99748552  0.33086442  0.99760353  1
  Cr  Cr4  1  0.16710481  0.50093746  0.16697476  1
  Ni  Ni5  1  -0.00033907  0.33237149  0.33345584  1
  Ni  Ni6  1  0.99927323  0.66644471  0.99756283  1
  Ni  Ni7  1  0.16520676  0.83338553  0.16493637  1
  Ni  Ni8  1  0.00069969  0.66690725  0.33582804  1
  Ni  Ni9  1  0.33106243  0.99732867  -0.00045427  1
  Cr  Cr10  1  0.50174316  0.16798089  0.16616867  1
  Cr  Cr11  1  0.33114556  0.99929308  0.33450272  1
  Cr  Cr12  1  0.33137174  0.33270700  0.00025578  1
  Ni  Ni13  1  0.49984935  0.49992029  0.16690160  1
  Ni  Ni14  1  0.33246133  0.33389197  0.33379577  1
  Ni  Ni15  1  0.33309770  0.66811330  -0.00020275  1
  Cr  Cr16  1  0.49850780  0.83015130  0.16405537  1
  Ni  Ni17  1  0.33143403  0.66529073  0.33300716  1
  Ni  Ni18  1  0.66783771  0.99908284  0.99724740  1
  Ni  Ni19  1  0.83436546  0.16606948  0.16567199  1
  Ni  Ni20  1  0.66769325  0.00008589  0.33491732  1
  Ni  Ni21  1  0.66949228  0.33284804  0.00006767  1
  Cr  Cr22  1  0.83134053  0.49769500  0.16611620  1
  Ni  Ni23  1  0.66614085  0.33243524  0.33198637  1
  Ni  Ni24  1  0.66586477  0.66628678  0.99831679  1
  Cr  Cr25  1  0.83512785  0.83507776  0.16665529  1
  Fe  Fe26  1  0.66649483  0.66574390  0.33445257  1
  Ni  Ni27  1  0.16683975  0.16890236  0.49860829  1
  Cr  Cr28  1  0.99810076  0.99910996  0.66541460  1
  Ni  Ni29  1  0.16281544  0.16919195  0.83389251  1
  Ni  Ni30  1  0.16475927  0.49972433  0.49994060  1
  Ni  Ni31  1  0.00032814  0.33575740  0.66721540  1
  Ni  Ni32  1  0.16398674  0.49869692  0.83139894  1
  Ni  Ni33  1  0.16503262  0.82967039  0.49795957  1
  Ni  Ni34  1  0.99835175  0.66312309  0.66496896  1
  Cr  Cr35  1  0.16603944  0.83053702  0.83532755  1
  Ni  Ni36  1  0.49970975  0.16612651  0.49987565  1
  Cr  Cr37  1  0.33439699  -0.00048149  0.66415836  1
  Cr  Cr38  1  0.50128458  0.16461261  0.83157017  1
  Cr  Cr39  1  0.49869375  0.49847271  0.49869988  1
  Ni  Ni40  1  0.33029600  0.33367195  0.66451841  1
  Cr  Cr41  1  0.49878253  0.50158623  0.83255911  1
  Ni  Ni42  1  0.50114017  0.83268480  0.50029326  1
  Ni  Ni43  1  0.33224144  0.66512760  0.66541590  1
  Ni  Ni44  1  0.50256909  0.83150253  0.83367200  1
  Cr  Cr45  1  0.83178269  0.16651229  0.49813534  1
  Ni  Ni46  1  0.66564219  0.99748951  0.66609876  1
  Ni  Ni47  1  0.83344486  0.16623389  0.83443894  1
  Ni  Ni48  1  0.83473918  0.50113232  0.50017962  1
  Ni  Ni49  1  0.66763805  0.33295881  0.66617817  1
  Fe  Fe50  1  0.83439045  0.49951287  0.83232114  1
  Ni  Ni51  1  0.83210750  0.83063435  0.49855118  1
  Ni  Ni52  1  0.66766649  0.66778867  0.66567489  1
  Ni  Ni53  1  0.83030640  0.83275710  0.83344006  1
" 