7138,Ni70Fe27Cr1_17,-241.111028854927, 210.968421092778,Ni70Fe27Cr1,"# generated using pymatgen
 data_Cr2Fe15Ni37
_symmetry_space_group_name_H-M   'P 1'
_cell_length_a   7.41813414
_cell_length_b   7.41813414
_cell_length_c   10.49082591
_cell_angle_alpha   90.00000000
_cell_angle_beta   90.00000000
_cell_angle_gamma   90.00000000
_symmetry_Int_Tables_number   1
_chemical_formula_structural   Cr2Fe15Ni37
_chemical_formula_sum   'Cr2 Fe15 Ni37'
_cell_volume   577.29665946
_cell_formula_units_Z   1
loop_
 _symmetry_equiv_pos_site_id
 _symmetry_equiv_pos_as_xyz
  1  'x, y, z'
loop_
 _atom_site_type_symbol
 _atom_site_label
 _atom_site_symmetry_multiplicity
 _atom_site_fract_x
 _atom_site_fract_y
 _atom_site_fract_z
 _atom_site_occupancy
  Ni  Ni0  1  0.00408117  0.00384916  0.00417980  1
  Ni  Ni1  1  0.17058104  0.17122190  0.17067074  1
  Fe  Fe2  1  1.00183153  0.00341933  0.33715360  1
  Ni  Ni3  1  1.00322476  0.33632461  1.00328888  1
  Ni  Ni4  1  0.16915486  0.50114851  0.16954839  1
  Fe  Fe5  1  1.00320721  0.33573896  0.33677250  1
  Fe  Fe6  1  0.00383886  0.66944269  0.00366463  1
  Fe  Fe7  1  0.16958138  0.83647452  0.17021229  1
  Fe  Fe8  1  1.00240496  0.67065913  0.33652680  1
  Ni  Ni9  1  0.33458000  0.00413850  0.00397981  1
  Fe  Fe10  1  0.50339824  0.17003500  0.16982720  1
  Ni  Ni11  1  0.33531736  1.00245781  0.33762679  1
  Ni  Ni12  1  0.33569973  0.33648584  0.00354660  1
  Fe  Fe13  1  0.50291547  0.50290249  0.17112498  1
  Fe  Fe14  1  0.33820136  0.33572177  0.33705230  1
  Fe  Fe15  1  0.33475117  0.66940911  1.00312001  1
  Ni  Ni16  1  0.50386948  0.83821689  0.17101234  1
  Fe  Fe17  1  0.33858836  0.67015408  0.33774060  1
  Ni  Ni18  1  0.67136097  0.00482494  0.00466650  1
  Fe  Fe19  1  0.83727765  0.17045753  0.17038838  1
  Ni  Ni20  1  0.66887808  1.00276800  0.33624612  1
  Ni  Ni21  1  0.67109973  0.33651197  0.00377296  1
  Ni  Ni22  1  0.83825484  0.50321795  0.17138218  1
  Ni  Ni23  1  0.67110884  0.33776064  0.33600395  1
  Cr  Cr24  1  0.67059019  0.66827940  1.00305958  1
  Ni  Ni25  1  0.83521075  0.83682699  0.17059140  1
  Ni  Ni26  1  0.67055207  0.66953645  0.33807512  1
  Ni  Ni27  1  0.16969787  0.17107528  0.50334098  1
  Ni  Ni28  1  0.00418478  1.00312929  0.66911291  1
  Ni  Ni29  1  0.17066741  0.17080240  0.83574681  1
  Ni  Ni30  1  0.16993045  0.50218948  0.50277837  1
  Ni  Ni31  1  0.00350013  0.33671346  0.66910487  1
  Ni  Ni32  1  0.16916161  0.50162563  0.83724557  1
  Ni  Ni33  1  0.16931102  0.83647251  0.50227000  1
  Fe  Fe34  1  0.00462287  0.67038096  0.66999501  1
  Ni  Ni35  1  0.16756778  0.83719622  0.83813373  1
  Ni  Ni36  1  0.50389269  0.16994732  0.50308951  1
  Ni  Ni37  1  0.33437555  1.00327457  0.66845675  1
  Ni  Ni38  1  0.50251689  0.17149610  0.83722180  1
  Ni  Ni39  1  0.50313537  0.50280059  0.50307507  1
  Ni  Ni40  1  0.33629236  0.33761900  0.66927701  1
  Ni  Ni41  1  0.50242048  0.49977659  0.83670508  1
  Ni  Ni42  1  0.50462869  0.83701582  0.50386440  1
  Ni  Ni43  1  0.33490026  0.66896835  0.66922964  1
  Cr  Cr44  1  0.50333337  0.83959854  0.83417103  1
  Ni  Ni45  1  0.83620566  0.16940582  0.50266314  1
  Ni  Ni46  1  0.67149766  0.00470243  0.66853167  1
  Fe  Fe47  1  0.83715970  0.17015328  0.83598550  1
  Fe  Fe48  1  0.83653316  0.50222954  0.50302175  1
  Ni  Ni49  1  0.67015407  0.33728959  0.67011824  1
  Ni  Ni50  1  0.83813996  0.50269236  0.83527157  1
  Ni  Ni51  1  0.83568086  0.83713645  0.50332441  1
  Fe  Fe52  1  0.67028076  0.66879524  0.66891365  1
  Ni  Ni53  1  0.83868032  0.83756078  0.83614888  1
" 