317,Ni70Fe9Cr20_16,-231.6393947092, 167.024176017766,Ni70Fe9Cr20,"# generated using pymatgen
 data_Cr6Fe2Ni19
_symmetry_space_group_name_H-M   'P 1'
_cell_length_a   7.46139546
_cell_length_b   7.46139546
_cell_length_c   10.55200666
_cell_angle_alpha   90.00000000
_cell_angle_beta   90.00000000
_cell_angle_gamma   90.00000000
_symmetry_Int_Tables_number   1
_chemical_formula_structural   Cr6Fe2Ni19
_chemical_formula_sum   'Cr12 Fe4 Ni38'
_cell_volume   587.45577072
_cell_formula_units_Z   2
loop_
 _symmetry_equiv_pos_site_id
 _symmetry_equiv_pos_as_xyz
  1  'x, y, z'
loop_
 _atom_site_type_symbol
 _atom_site_label
 _atom_site_symmetry_multiplicity
 _atom_site_fract_x
 _atom_site_fract_y
 _atom_site_fract_z
 _atom_site_occupancy
  Ni  Ni0  1  0.99933002  0.99870929  0.00064045  1
  Cr  Cr1  1  0.16662721  0.16667047  0.16792592  1
  Ni  Ni2  1  0.00061468  0.00118965  0.33435045  1
  Ni  Ni3  1  0.99981346  0.33558300  0.00058300  1
  Ni  Ni4  1  0.16625361  0.50057318  0.16495686  1
  Ni  Ni5  1  1.00035443  0.33288471  0.33426662  1
  Ni  Ni6  1  0.00183331  0.66685178  1.00001032  1
  Ni  Ni7  1  0.16644392  0.83410184  0.16524435  1
  Cr  Cr8  1  0.99903318  0.66711731  0.33391343  1
  Ni  Ni9  1  0.33514698  0.99961482  0.00075175  1
  Ni  Ni10  1  0.50102934  0.16710576  0.16552312  1
  Fe  Fe11  1  0.33308203  0.00158796  0.33466355  1
  Ni  Ni12  1  0.33331452  0.33334367  0.00054169  1
  Cr  Cr13  1  0.50098451  0.49876234  0.16765194  1
  Ni  Ni14  1  0.33356629  0.33283249  0.33521636  1
  Fe  Fe15  1  0.33064464  0.66826379  0.99985833  1
  Fe  Fe16  1  0.50038590  0.83558119  0.16629246  1
  Cr  Cr17  1  0.33441183  0.66695992  0.33398808  1
  Ni  Ni18  1  0.66665909  0.00163202  0.99985430  1
  Ni  Ni19  1  0.83286394  0.16730116  0.16610195  1
  Cr  Cr20  1  0.66757620  0.99986993  0.33323236  1
  Ni  Ni21  1  0.66799319  0.33086625  1.00027638  1
  Ni  Ni22  1  0.83414721  0.49942422  0.16706060  1
  Ni  Ni23  1  0.66721192  0.33412004  0.33447107  1
  Cr  Cr24  1  0.66904040  0.66876232  0.00154130  1
  Ni  Ni25  1  0.83477809  0.83441146  0.16629426  1
  Ni  Ni26  1  0.66749528  0.66657287  0.33461158  1
  Ni  Ni27  1  0.16788450  0.16610194  0.49760741  1
  Cr  Cr28  1  0.99945884  0.99847460  0.66612670  1
  Cr  Cr29  1  0.16702068  0.16603165  0.83563103  1
  Ni  Ni30  1  0.16757485  0.50025919  0.50077800  1
  Cr  Cr31  1  0.99899912  0.33587694  0.66632313  1
  Ni  Ni32  1  0.16607360  0.50312406  0.83540331  1
  Ni  Ni33  1  0.16789208  0.83477984  0.50171985  1
  Ni  Ni34  1  0.00203511  0.66717886  0.66731928  1
  Ni  Ni35  1  0.16793367  0.83196683  0.83414501  1
  Ni  Ni36  1  0.50014808  0.16748783  0.50123793  1
  Ni  Ni37  1  0.33613843  0.99792837  0.66567616  1
  Fe  Fe38  1  0.50246679  0.16487262  0.83450567  1
  Ni  Ni39  1  0.50120135  0.49964871  0.49953517  1
  Cr  Cr40  1  0.33446720  0.33382091  0.66550423  1
  Cr  Cr41  1  0.49998759  0.49989644  0.83379681  1
  Ni  Ni42  1  0.49952001  0.83399421  0.50091216  1
  Ni  Ni43  1  0.33166396  0.66917448  0.66701765  1
  Ni  Ni44  1  0.49897764  0.83598938  0.83387378  1
  Ni  Ni45  1  0.83312102  0.16780601  0.49969382  1
  Ni  Ni46  1  0.66531261  0.00126753  0.66780096  1
  Ni  Ni47  1  0.83112482  0.16696541  0.83534169  1
  Ni  Ni48  1  0.83235806  0.49960464  0.49967358  1
  Ni  Ni49  1  0.66734598  0.33161876  0.66639250  1
  Ni  Ni50  1  0.83516360  0.49939167  0.83441964  1
  Ni  Ni51  1  0.83372817  0.83371666  0.50060313  1
  Cr  Cr52  1  0.66800076  0.66801765  0.66534275  1
  Ni  Ni53  1  0.83421930  0.83476436  0.83424916  1
" 