8693,Ni70Fe9Cr20_13,-231.79297704764, 165.935140255773,Ni70Fe9Cr20,"# generated using pymatgen
 data_Cr6Fe2Ni19
_symmetry_space_group_name_H-M   'P 1'
_cell_length_a   7.46799671
_cell_length_b   7.46799671
_cell_length_c   10.56134223
_cell_angle_alpha   90.00000000
_cell_angle_beta   90.00000000
_cell_angle_gamma   90.00000000
_symmetry_Int_Tables_number   1
_chemical_formula_structural   Cr6Fe2Ni19
_chemical_formula_sum   'Cr12 Fe4 Ni38'
_cell_volume   589.01635254
_cell_formula_units_Z   2
loop_
 _symmetry_equiv_pos_site_id
 _symmetry_equiv_pos_as_xyz
  1  'x, y, z'
loop_
 _atom_site_type_symbol
 _atom_site_label
 _atom_site_symmetry_multiplicity
 _atom_site_fract_x
 _atom_site_fract_y
 _atom_site_fract_z
 _atom_site_occupancy
  Ni  Ni0  1  0.99707047  0.00302624  0.00124407  1
  Ni  Ni1  1  0.16490367  0.16662649  0.16378872  1
  Ni  Ni2  1  0.99538619  0.99965868  0.33320257  1
  Ni  Ni3  1  0.99739819  0.33046060  0.00088485  1
  Cr  Cr4  1  0.16620247  0.49756065  0.16608794  1
  Ni  Ni5  1  0.99674472  0.33410032  0.33319490  1
  Cr  Cr6  1  0.99475216  0.66642190  0.99875538  1
  Cr  Cr7  1  0.16613117  0.83594953  0.16653218  1
  Ni  Ni8  1  0.99706566  0.66604268  0.33603383  1
  Ni  Ni9  1  0.33650682  0.00153818  0.00136640  1
  Ni  Ni10  1  0.50119690  0.16645947  0.16424135  1
  Cr  Cr11  1  0.33544574  0.00002892  0.33221889  1
  Ni  Ni12  1  0.33619833  0.33192964  0.00101617  1
  Ni  Ni13  1  0.50363847  0.50058722  0.16559686  1
  Cr  Cr14  1  0.33422841  0.33347135  0.33221925  1
  Ni  Ni15  1  0.33948189  0.66635223  0.00040726  1
  Ni  Ni16  1  0.50376403  0.83275675  0.16566789  1
  Ni  Ni17  1  0.33315881  0.66599489  0.33345104  1
  Ni  Ni18  1  0.66618355  0.99962550  0.99984435  1
  Fe  Fe19  1  0.83263642  0.16626417  0.16557707  1
  Ni  Ni20  1  0.66954597  0.00010375  0.33253059  1
  Ni  Ni21  1  0.66620523  0.33352964  0.00052136  1
  Ni  Ni22  1  0.82979729  0.49918930  0.16737955  1
  Fe  Fe23  1  0.66927211  0.33294227  0.33224276  1
  Ni  Ni24  1  0.66465183  0.66663924  0.99973059  1
  Ni  Ni25  1  0.82969474  0.83407348  0.16740576  1
  Ni  Ni26  1  0.66963102  0.66747297  0.33065526  1
  Cr  Cr27  1  0.16510597  0.16634045  0.50253121  1
  Ni  Ni28  1  0.99699705  0.00064523  0.66545332  1
  Cr  Cr29  1  0.16528373  0.16654172  0.83433441  1
  Ni  Ni30  1  0.16414793  0.50080726  0.50001923  1
  Ni  Ni31  1  0.99733613  0.33283075  0.66577955  1
  Cr  Cr32  1  0.16874305  0.49666922  0.83341816  1
  Ni  Ni33  1  0.16403829  0.83234086  0.49986082  1
  Cr  Cr34  1  0.99755140  0.66640591  0.66498385  1
  Cr  Cr35  1  0.16874788  0.83659425  0.83341132  1
  Ni  Ni36  1  0.50319802  0.16648597  0.50294070  1
  Ni  Ni37  1  0.33574899  0.00040562  0.66633957  1
  Fe  Fe38  1  0.50297324  0.16665479  0.83315149  1
  Cr  Cr39  1  0.50199793  0.49936297  0.50031736  1
  Ni  Ni40  1  0.33545913  0.33306917  0.66663141  1
  Ni  Ni41  1  0.50281160  0.50075507  0.83346903  1
  Cr  Cr42  1  0.50193342  0.83404011  0.50045212  1
  Ni  Ni43  1  0.33488624  0.66632902  0.66591891  1
  Ni  Ni44  1  0.50269268  0.83238268  0.83346469  1
  Fe  Fe45  1  0.83202951  0.16625749  0.50095744  1
  Ni  Ni46  1  0.66707679  0.00106089  0.66740860  1
  Ni  Ni47  1  0.83229189  0.16667031  0.83301420  1
  Ni  Ni48  1  0.83438983  0.49933445  0.49919317  1
  Ni  Ni49  1  0.66709066  0.33210680  0.66672134  1
  Ni  Ni50  1  0.82794043  0.49705405  0.83325197  1
  Ni  Ni51  1  0.83427697  0.83391317  0.49916298  1
  Ni  Ni52  1  0.66687612  0.66661026  0.66933655  1
  Ni  Ni53  1  0.82805142  0.83609408  0.83324832  1
" 