570,Ni70Cr30_18,-211.581585739203, 144.635849272224,Ni70Cr30,"# generated using pymatgen
 data_Cr37Ni17
_symmetry_space_group_name_H-M   'P 1'
_cell_length_a   7.55887304
_cell_length_b   7.55887304
_cell_length_c   10.68986077
_cell_angle_alpha   90.00000000
_cell_angle_beta   90.00000000
_cell_angle_gamma   90.00000000
_symmetry_Int_Tables_number   1
_chemical_formula_structural   Cr37Ni17
_chemical_formula_sum   'Cr37 Ni17'
_cell_volume   610.78188850
_cell_formula_units_Z   1
loop_
 _symmetry_equiv_pos_site_id
 _symmetry_equiv_pos_as_xyz
  1  'x, y, z'
loop_
 _atom_site_type_symbol
 _atom_site_label
 _atom_site_symmetry_multiplicity
 _atom_site_fract_x
 _atom_site_fract_y
 _atom_site_fract_z
 _atom_site_occupancy
  Cr  Cr0  1  -0.00481310  -0.00411718  0.99041375  1
  Cr  Cr1  1  0.15991785  0.16173832  0.16255317  1
  Ni  Ni2  1  -0.00463276  0.99361693  0.32926233  1
  Ni  Ni3  1  0.99290646  0.32860950  0.99292399  1
  Cr  Cr4  1  0.15861517  0.49452699  0.15931452  1
  Cr  Cr5  1  0.99264138  0.32858271  0.32603851  1
  Ni  Ni6  1  0.99361005  0.65964577  -0.00573376  1
  Cr  Cr7  1  0.15858214  0.82583800  0.16019422  1
  Ni  Ni8  1  0.99295882  0.66144335  0.32584738  1
  Cr  Cr9  1  0.32715165  0.99101810  0.99341968  1
  Cr  Cr10  1  0.49349475  0.15904643  0.16074211  1
  Cr  Cr11  1  0.32651583  0.99301464  0.32650726  1
  Cr  Cr12  1  0.32441314  0.32607602  0.99292387  1
  Cr  Cr13  1  0.49226665  0.49392370  0.15919043  1
  Ni  Ni14  1  0.32539937  0.32651015  0.32926475  1
  Ni  Ni15  1  0.32708049  0.66256306  0.99367861  1
  Ni  Ni16  1  0.49549226  0.82541996  0.15687633  1
  Cr  Cr17  1  0.32742606  0.66154355  0.32598144  1
  Ni  Ni18  1  0.66159477  0.99131324  -0.00596302  1
  Cr  Cr19  1  0.82881570  0.15912675  0.15884062  1
  Cr  Cr20  1  0.65986477  0.99274026  0.32500257  1
  Cr  Cr21  1  0.66519105  0.32698898  -0.00541955  1
  Ni  Ni22  1  0.82920378  0.49686587  0.15833230  1
  Cr  Cr23  1  0.66139971  0.32907700  0.32623895  1
  Ni  Ni24  1  0.66104897  0.66194176  -0.00415670  1
  Cr  Cr25  1  0.82852184  0.82689255  0.16072863  1
  Cr  Cr26  1  0.66126575  0.65961110  0.32696052  1
  Ni  Ni27  1  0.15997744  0.16040301  0.49413018  1
  Ni  Ni28  1  -0.00374892  -0.00407573  0.66215191  1
  Ni  Ni29  1  0.15783115  0.16009116  0.82558519  1
  Cr  Cr30  1  0.16166586  0.49159585  0.49236287  1
  Cr  Cr31  1  -0.00537608  0.32471570  0.66309628  1
  Cr  Cr32  1  0.16121918  0.49447471  0.82992090  1
  Cr  Cr33  1  0.15679809  0.82918851  0.49286324  1
  Cr  Cr34  1  -0.00539585  0.66215406  0.66078803  1
  Ni  Ni35  1  0.15886140  0.82808323  0.82843872  1
  Cr  Cr36  1  0.49065640  0.16246342  0.49326949  1
  Cr  Cr37  1  0.32284233  -0.00601792  0.66198941  1
  Cr  Cr38  1  0.49458941  0.16110540  0.82758898  1
  Cr  Cr39  1  0.49206851  0.49246225  0.49764080  1
  Ni  Ni40  1  0.32399533  0.32448580  0.66007233  1
  Cr  Cr41  1  0.49331801  0.49454394  0.82539119  1
  Cr  Cr42  1  0.49587649  0.82718864  0.49528002  1
  Cr  Cr43  1  0.32632710  0.66210443  0.66204836  1
  Cr  Cr44  1  0.49550991  0.82561576  0.82946618  1
  Cr  Cr45  1  0.83009895  0.15714186  0.49393453  1
  Cr  Cr46  1  0.66246950  -0.00565227  0.66183948  1
  Ni  Ni47  1  0.83040493  0.15917557  0.82856650  1
  Cr  Cr48  1  0.82815883  0.49669746  0.49404596  1
  Cr  Cr49  1  0.66287274  0.32799869  0.66087507  1
  Cr  Cr50  1  0.82717851  0.49581735  0.82922365  1
  Cr  Cr51  1  0.82897592  0.82805166  0.49444726  1
  Ni  Ni52  1  0.66094773  0.66085324  0.66060980  1
  Cr  Cr53  1  0.82794772  0.82777982  0.82641391  1
" 