8906,Ni70Fe5Cr23_8,-229.550213223032, 155.265014949772,Ni70Fe5Cr23,"# generated using pymatgen
 data_Cr7FeNi19
_symmetry_space_group_name_H-M   'P 1'
_cell_length_a   7.47846106
_cell_length_b   7.47846106
_cell_length_c   10.57614106
_cell_angle_alpha   90.00000000
_cell_angle_beta   90.00000000
_cell_angle_gamma   90.00000000
_symmetry_Int_Tables_number   1
_chemical_formula_structural   Cr7FeNi19
_chemical_formula_sum   'Cr14 Fe2 Ni38'
_cell_volume   591.49585795
_cell_formula_units_Z   2
loop_
 _symmetry_equiv_pos_site_id
 _symmetry_equiv_pos_as_xyz
  1  'x, y, z'
loop_
 _atom_site_type_symbol
 _atom_site_label
 _atom_site_symmetry_multiplicity
 _atom_site_fract_x
 _atom_site_fract_y
 _atom_site_fract_z
 _atom_site_occupancy
  Ni  Ni0  1  0.99886881  0.99917681  -0.00033455  1
  Ni  Ni1  1  0.16534223  0.16509783  0.16520248  1
  Ni  Ni2  1  0.99804563  0.99829238  0.33368059  1
  Ni  Ni3  1  0.99720105  0.33252761  0.99885132  1
  Ni  Ni4  1  0.16645060  0.49965911  0.16665620  1
  Cr  Cr5  1  0.00006452  0.33135445  0.33307564  1
  Ni  Ni6  1  0.99909450  0.66600315  0.99749003  1
  Ni  Ni7  1  0.16392766  0.83302460  0.16480513  1
  Ni  Ni8  1  0.00126603  0.66774646  0.33427666  1
  Ni  Ni9  1  0.33273589  -0.00075652  0.99911860  1
  Ni  Ni10  1  0.50040121  0.16749000  0.16529140  1
  Cr  Cr11  1  0.32970708  0.99904481  0.33175934  1
  Cr  Cr12  1  0.33311397  0.33242572  0.00172538  1
  Ni  Ni13  1  0.49917823  0.49698542  0.16791158  1
  Ni  Ni14  1  0.33359594  0.33560651  0.33147156  1
  Cr  Cr15  1  0.33150390  0.66652472  0.99848085  1
  Cr  Cr16  1  0.50073024  0.83235466  0.16626401  1
  Ni  Ni17  1  0.33174609  0.66325727  0.33399593  1
  Ni  Ni18  1  0.66613592  0.00109153  0.99727571  1
  Ni  Ni19  1  0.83192519  0.16486279  0.16414215  1
  Ni  Ni20  1  0.66861403  0.00027759  0.33382856  1
  Ni  Ni21  1  0.66687630  0.33156978  0.99829843  1
  Cr  Cr22  1  0.83160480  0.50010774  0.16453923  1
  Ni  Ni23  1  0.66428721  0.33259601  0.33240194  1
  Ni  Ni24  1  0.66675093  0.66506109  0.99630747  1
  Cr  Cr25  1  0.83371026  0.83296447  0.16670694  1
  Ni  Ni26  1  0.66475109  0.66479146  0.33584389  1
  Ni  Ni27  1  0.16210952  0.16598357  0.49934315  1
  Ni  Ni28  1  0.99849724  0.99824301  0.66428240  1
  Cr  Cr29  1  0.16446587  0.16596756  0.83211415  1
  Ni  Ni30  1  0.16562200  0.50085147  0.49980007  1
  Ni  Ni31  1  0.99856275  0.33371142  0.66500421  1
  Ni  Ni32  1  0.16250388  0.50061362  0.83129032  1
  Ni  Ni33  1  0.16361936  0.83084878  0.50027114  1
  Ni  Ni34  1  0.00103800  0.66576821  0.66608772  1
  Fe  Fe35  1  0.16435862  0.83030775  0.83256475  1
  Cr  Cr36  1  0.49909744  0.16684423  0.49683679  1
  Cr  Cr37  1  0.33191536  0.99522361  0.66626332  1
  Ni  Ni38  1  0.50057644  0.16434624  0.83595074  1
  Ni  Ni39  1  0.49820773  0.50216525  0.49651888  1
  Cr  Cr40  1  0.33158947  0.33624601  0.66500900  1
  Ni  Ni41  1  0.50033503  0.50035242  0.83342718  1
  Ni  Ni42  1  0.49943267  0.82896634  0.49790582  1
  Ni  Ni43  1  0.33060855  0.66576680  0.66572601  1
  Ni  Ni44  1  0.50075816  0.83298041  0.83408715  1
  Ni  Ni45  1  0.83568590  0.16470467  0.49933287  1
  Cr  Cr46  1  0.66840386  0.99808394  0.66607527  1
  Fe  Fe47  1  0.83242869  0.16647907  0.83432551  1
  Ni  Ni48  1  0.83387933  0.50058971  0.49894341  1
  Cr  Cr49  1  0.66886161  0.33364979  0.66709417  1
  Ni  Ni50  1  0.83484188  0.50081870  0.83439805  1
  Ni  Ni51  1  0.83459517  0.83240759  0.49711772  1
  Cr  Cr52  1  0.66564994  0.66606253  0.66561431  1
  Ni  Ni53  1  0.83351947  0.83167308  0.83434263  1
" 