7479,Ni70Fe27Cr1_14,-241.789444754347, 212.306419025778,Ni70Fe27Cr1,"# generated using pymatgen
 data_Cr2Fe15Ni37
_symmetry_space_group_name_H-M   'P 1'
_cell_length_a   7.42001868
_cell_length_b   7.42001868
_cell_length_c   10.49349105
_cell_angle_alpha   90.00000000
_cell_angle_beta   90.00000000
_cell_angle_gamma   90.00000000
_symmetry_Int_Tables_number   1
_chemical_formula_structural   Cr2Fe15Ni37
_chemical_formula_sum   'Cr2 Fe15 Ni37'
_cell_volume   577.73674911
_cell_formula_units_Z   1
loop_
 _symmetry_equiv_pos_site_id
 _symmetry_equiv_pos_as_xyz
  1  'x, y, z'
loop_
 _atom_site_type_symbol
 _atom_site_label
 _atom_site_symmetry_multiplicity
 _atom_site_fract_x
 _atom_site_fract_y
 _atom_site_fract_z
 _atom_site_occupancy
  Fe  Fe0  1  1.00205236  0.00395472  1.00307865  1
  Ni  Ni1  1  0.16674672  0.16989330  0.17046944  1
  Ni  Ni2  1  0.00380131  0.00377934  0.33598987  1
  Ni  Ni3  1  1.00248277  0.33702483  0.00342095  1
  Fe  Fe4  1  0.16823435  0.50222135  0.17100181  1
  Ni  Ni5  1  0.00319555  0.33665859  0.33615696  1
  Fe  Fe6  1  1.00200314  0.66998905  1.00243347  1
  Fe  Fe7  1  0.17044021  0.83767078  0.17040378  1
  Ni  Ni8  1  0.00382528  0.66907081  0.33593817  1
  Ni  Ni9  1  0.33665196  1.00160505  1.00233779  1
  Cr  Cr10  1  0.50406965  0.16828764  0.17073804  1
  Ni  Ni11  1  0.33605019  1.00196361  0.33731080  1
  Fe  Fe12  1  0.33611843  0.33586379  1.00203738  1
  Cr  Cr13  1  0.50355993  0.50503143  0.17077132  1
  Ni  Ni14  1  0.33455686  0.33637815  0.33813815  1
  Fe  Fe15  1  0.33723341  0.67097100  1.00197502  1
  Ni  Ni16  1  0.50301751  0.83551632  0.16974524  1
  Ni  Ni17  1  0.33574887  0.67116527  0.33649644  1
  Ni  Ni18  1  0.66893798  1.00223707  1.00223792  1
  Ni  Ni19  1  0.83914441  0.17021956  0.16998043  1
  Ni  Ni20  1  0.66965746  1.00258938  0.33661037  1
  Ni  Ni21  1  0.67260543  0.33674233  1.00145716  1
  Fe  Fe22  1  0.83764045  0.50235157  0.16947030  1
  Ni  Ni23  1  0.67175374  0.33635492  0.33743811  1
  Ni  Ni24  1  0.67001679  0.67052851  1.00162951  1
  Fe  Fe25  1  0.83566027  0.83731303  0.16982919  1
  Ni  Ni26  1  0.66993305  0.67056387  0.33747182  1
  Ni  Ni27  1  0.16913457  0.17016600  0.50279323  1
  Ni  Ni28  1  0.00365157  0.00322707  0.67069978  1
  Fe  Fe29  1  0.16968851  0.16913356  0.83660460  1
  Ni  Ni30  1  0.16944483  0.50384917  0.50251447  1
  Ni  Ni31  1  1.00220715  0.33704165  0.66992928  1
  Fe  Fe32  1  0.16933138  0.50375533  0.83565152  1
  Ni  Ni33  1  0.17033769  0.83549137  0.50226692  1
  Ni  Ni34  1  0.00448200  0.66923927  0.67049196  1
  Ni  Ni35  1  0.16977730  0.83599376  0.83653796  1
  Ni  Ni36  1  0.50391157  0.16960163  0.50207781  1
  Ni  Ni37  1  0.33686179  1.00179082  0.66985803  1
  Ni  Ni38  1  0.50404033  0.17038086  0.83714580  1
  Fe  Fe39  1  0.50216615  0.50261310  0.50284413  1
  Fe  Fe40  1  0.33626468  0.33591708  0.66912944  1
  Ni  Ni41  1  0.50373601  0.50310083  0.83632858  1
  Ni  Ni42  1  0.50244260  0.83631707  0.50258386  1
  Ni  Ni43  1  0.33572725  0.67097588  0.67046386  1
  Ni  Ni44  1  0.50257578  0.83602477  0.83717505  1
  Ni  Ni45  1  0.83646057  0.17049955  0.50254155  1
  Ni  Ni46  1  0.66899515  0.00406625  0.67066080  1
  Ni  Ni47  1  0.83611818  0.17053242  0.83698545  1
  Fe  Fe48  1  0.83724389  0.50247830  0.50332833  1
  Ni  Ni49  1  0.67073557  0.33590793  0.67061599  1
  Ni  Ni50  1  0.83614618  0.50267701  0.83693982  1
  Fe  Fe51  1  0.83728299  0.83761926  0.50329274  1
  Fe  Fe52  1  0.67007527  0.67048244  0.67072492  1
  Ni  Ni53  1  0.83715207  0.83630146  0.83637515  1
" 