1483,Ni70Fe27Cr1_12,-241.652588576504, 215.936197913055,Ni70Fe27Cr1,"# generated using pymatgen
 data_Cr2Fe15Ni37
_symmetry_space_group_name_H-M   'P 1'
_cell_length_a   7.41930839
_cell_length_b   7.41930839
_cell_length_c   10.49248655
_cell_angle_alpha   90.00000000
_cell_angle_beta   90.00000000
_cell_angle_gamma   90.00000000
_symmetry_Int_Tables_number   1
_chemical_formula_structural   Cr2Fe15Ni37
_chemical_formula_sum   'Cr2 Fe15 Ni37'
_cell_volume   577.57085176
_cell_formula_units_Z   1
loop_
 _symmetry_equiv_pos_site_id
 _symmetry_equiv_pos_as_xyz
  1  'x, y, z'
loop_
 _atom_site_type_symbol
 _atom_site_label
 _atom_site_symmetry_multiplicity
 _atom_site_fract_x
 _atom_site_fract_y
 _atom_site_fract_z
 _atom_site_occupancy
  Ni  Ni0  1  0.00338930  1.00254520  0.00330075  1
  Fe  Fe1  1  0.17011012  0.16919425  0.16977963  1
  Fe  Fe2  1  1.00298024  1.00252938  0.33689678  1
  Fe  Fe3  1  0.00401526  0.33535855  0.00355024  1
  Ni  Ni4  1  0.17056503  0.50406638  0.16971255  1
  Fe  Fe5  1  1.00306162  0.33692771  0.33686846  1
  Ni  Ni6  1  0.00503120  0.67087744  0.00447498  1
  Ni  Ni7  1  0.16999854  0.83587620  0.16970953  1
  Fe  Fe8  1  0.00328020  0.67019586  0.33559674  1
  Ni  Ni9  1  0.33575840  1.00224474  0.00341943  1
  Ni  Ni10  1  0.50392981  0.17058547  0.17012788  1
  Ni  Ni11  1  0.33586744  1.00225330  0.33662185  1
  Fe  Fe12  1  0.33654526  0.33668454  1.00261634  1
  Ni  Ni13  1  0.50307601  0.50293138  0.16945800  1
  Fe  Fe14  1  0.33690710  0.33617608  0.33611477  1
  Ni  Ni15  1  0.33527103  0.67002482  0.00324050  1
  Ni  Ni16  1  0.50276082  0.83613655  0.17008032  1
  Ni  Ni17  1  0.33582024  0.67179171  0.33587466  1
  Ni  Ni18  1  0.67050330  0.00444239  0.00367653  1
  Ni  Ni19  1  0.83575375  0.17002208  0.16948105  1
  Fe  Fe20  1  0.66894238  1.00275852  0.33657293  1
  Ni  Ni21  1  0.66964915  0.33574051  0.00398178  1
  Ni  Ni22  1  0.83601369  0.50289938  0.17005875  1
  Ni  Ni23  1  0.67152247  0.33665734  0.33626046  1
  Fe  Fe24  1  0.66915161  0.67159947  0.00434435  1
  Ni  Ni25  1  0.83688919  0.83673028  0.16947594  1
  Ni  Ni26  1  0.67043732  0.66933302  0.33451237  1
  Ni  Ni27  1  0.16960265  0.16933836  0.50325696  1
  Ni  Ni28  1  0.00368158  0.00360494  0.67006608  1
  Ni  Ni29  1  0.16959917  0.16936507  0.83672321  1
  Fe  Fe30  1  0.16851011  0.50293463  0.50340605  1
  Ni  Ni31  1  0.00392091  0.33564174  0.66899328  1
  Ni  Ni32  1  0.17287429  0.50321865  0.83577590  1
  Ni  Ni33  1  0.16962781  0.83712381  0.50368320  1
  Fe  Fe34  1  0.00366427  0.67121504  0.66981639  1
  Ni  Ni35  1  0.16959912  0.83706763  0.83626303  1
  Ni  Ni36  1  0.50337366  0.16906858  0.50393238  1
  Ni  Ni37  1  0.33579552  0.00330716  0.66961427  1
  Fe  Fe38  1  0.50310911  0.16997611  0.83635953  1
  Cr  Cr39  1  0.50334503  0.50278379  0.50321745  1
  Ni  Ni40  1  0.33531935  0.33569544  0.67053552  1
  Ni  Ni41  1  0.50127450  0.50289381  0.83694208  1
  Ni  Ni42  1  0.50308641  0.83765421  0.50351860  1
  Fe  Fe43  1  0.33610902  0.67057824  0.67092012  1
  Fe  Fe44  1  0.50287805  0.83668365  0.83646858  1
  Ni  Ni45  1  0.83667480  0.16962049  0.50405471  1
  Ni  Ni46  1  0.67017361  1.00311187  0.66908846  1
  Ni  Ni47  1  0.83680951  0.16772041  0.83611531  1
  Fe  Fe48  1  0.83732817  0.50299587  0.50304593  1
  Ni  Ni49  1  0.67041065  0.33565247  0.66941231  1
  Cr  Cr50  1  0.83554849  0.50283740  0.83633294  1
  Ni  Ni51  1  0.83693489  0.83713086  0.50359973  1
  Ni  Ni52  1  0.67011577  0.67088833  0.67020507  1
  Ni  Ni53  1  0.83713340  0.83903923  0.83657570  1
" 