1273,Ni70Fe5Cr23_3,-229.611481735413, 154.574855889578,Ni70Fe5Cr23,"# generated using pymatgen
 data_Cr7FeNi19
_symmetry_space_group_name_H-M   'P 1'
_cell_length_a   7.47530758
_cell_length_b   7.47530758
_cell_length_c   10.57168136
_cell_angle_alpha   90.00000000
_cell_angle_beta   90.00000000
_cell_angle_gamma   90.00000000
_symmetry_Int_Tables_number   1
_chemical_formula_structural   Cr7FeNi19
_chemical_formula_sum   'Cr14 Fe2 Ni38'
_cell_volume   590.74791624
_cell_formula_units_Z   2
loop_
 _symmetry_equiv_pos_site_id
 _symmetry_equiv_pos_as_xyz
  1  'x, y, z'
loop_
 _atom_site_type_symbol
 _atom_site_label
 _atom_site_symmetry_multiplicity
 _atom_site_fract_x
 _atom_site_fract_y
 _atom_site_fract_z
 _atom_site_occupancy
  Cr  Cr0  1  -0.00010304  0.99881138  0.00155430  1
  Ni  Ni1  1  0.16400611  0.16839771  0.16740806  1
  Ni  Ni2  1  0.99798001  0.99892923  0.33140668  1
  Ni  Ni3  1  0.99868985  0.33470163  0.00142490  1
  Ni  Ni4  1  0.16495246  0.49983643  0.16646204  1
  Ni  Ni5  1  0.00009681  0.33185924  0.32987258  1
  Ni  Ni6  1  0.00068256  0.66472807  0.00130656  1
  Ni  Ni7  1  0.16353649  0.83009869  0.16741266  1
  Ni  Ni8  1  0.00047531  0.66753874  0.33010032  1
  Cr  Cr9  1  0.33319892  0.99860387  0.99830549  1
  Ni  Ni10  1  0.50106665  0.16775873  0.16593575  1
  Cr  Cr11  1  0.33157116  0.00043420  0.33181048  1
  Cr  Cr12  1  0.33347561  0.33385672  0.00003209  1
  Ni  Ni13  1  0.49903123  0.49942773  0.16635027  1
  Ni  Ni14  1  0.33315698  0.33459184  0.33112201  1
  Ni  Ni15  1  0.33211452  0.66532535  0.99856933  1
  Cr  Cr16  1  0.50099855  0.83141819  0.16530849  1
  Ni  Ni17  1  0.33151887  0.66357797  0.33202470  1
  Ni  Ni18  1  0.66543172  0.00044971  0.00051137  1
  Ni  Ni19  1  0.83330193  0.16632955  0.16613228  1
  Ni  Ni20  1  0.66902671  0.00058810  0.33183271  1
  Ni  Ni21  1  0.66606346  0.33311628  0.00105061  1
  Ni  Ni22  1  0.83432944  0.49992718  0.16468467  1
  Cr  Cr23  1  0.66493321  0.33245493  0.33286276  1
  Ni  Ni24  1  0.66552517  0.66481483  0.00032185  1
  Ni  Ni25  1  0.83372262  0.83209781  0.16676171  1
  Ni  Ni26  1  0.66631724  0.66573427  0.33113370  1
  Cr  Cr27  1  0.16527657  0.16599921  0.50017401  1
  Ni  Ni28  1  0.00129294  0.99916179  0.66544195  1
  Fe  Fe29  1  0.16752835  0.16652372  0.83057400  1
  Cr  Cr30  1  0.16769878  0.50056163  0.49906038  1
  Ni  Ni31  1  -0.00012726  0.33168662  0.66706714  1
  Fe  Fe32  1  0.16756947  0.50079444  0.83232710  1
  Ni  Ni33  1  0.16541105  0.83206446  0.50031899  1
  Ni  Ni34  1  0.00203905  0.66745472  0.66690428  1
  Ni  Ni35  1  0.16841745  0.83091704  0.83055349  1
  Ni  Ni36  1  0.50100021  0.16768805  0.50145137  1
  Ni  Ni37  1  0.33253374  0.99938123  0.66807686  1
  Ni  Ni38  1  0.49920118  0.16608186  0.83097907  1
  Ni  Ni39  1  0.49830841  0.49853992  0.50039986  1
  Ni  Ni40  1  0.33511003  0.33263193  0.66729024  1
  Ni  Ni41  1  0.49829008  0.50017423  0.83162857  1
  Cr  Cr42  1  0.49844570  0.83185640  0.50018370  1
  Ni  Ni43  1  0.33269618  0.66633448  0.66765347  1
  Ni  Ni44  1  0.49727266  0.83209450  0.83206321  1
  Ni  Ni45  1  0.83215061  0.16526448  0.50055166  1
  Ni  Ni46  1  0.66453778  0.00155907  0.66596075  1
  Cr  Cr47  1  0.83196604  0.16749441  0.83195641  1
  Cr  Cr48  1  0.83271850  0.49861391  0.50102870  1
  Ni  Ni49  1  0.66353097  0.33189928  0.66501927  1
  Cr  Cr50  1  0.83305442  0.49888747  0.83296001  1
  Cr  Cr51  1  0.83400417  0.83424427  0.49960131  1
  Ni  Ni52  1  0.66361863  0.66488599  0.66686978  1
  Cr  Cr53  1  0.83151961  0.83196239  0.83237193  1
" 