5189,Ni70Fe28Cr1_1,-242.441242901018, 215.151147765384,Ni70Fe28Cr1,"# generated using pymatgen
 data_CrFe15Ni38
_symmetry_space_group_name_H-M   'P 1'
_cell_length_a   7.41803268
_cell_length_b   7.41803268
_cell_length_c   10.49068242
_cell_angle_alpha   90.00000000
_cell_angle_beta   90.00000000
_cell_angle_gamma   90.00000000
_symmetry_Int_Tables_number   1
_chemical_formula_structural   CrFe15Ni38
_chemical_formula_sum   'Cr1 Fe15 Ni38'
_cell_volume   577.27297211
_cell_formula_units_Z   1
loop_
 _symmetry_equiv_pos_site_id
 _symmetry_equiv_pos_as_xyz
  1  'x, y, z'
loop_
 _atom_site_type_symbol
 _atom_site_label
 _atom_site_symmetry_multiplicity
 _atom_site_fract_x
 _atom_site_fract_y
 _atom_site_fract_z
 _atom_site_occupancy
  Fe  Fe0  1  1.00283104  1.00255125  0.00359083  1
  Ni  Ni1  1  0.17097705  0.16827424  0.16974850  1
  Ni  Ni2  1  0.00539644  0.00436757  0.33604934  1
  Ni  Ni3  1  1.00205609  0.33552714  0.00385493  1
  Fe  Fe4  1  0.16869981  0.50208007  0.16930525  1
  Ni  Ni5  1  0.00335468  0.33463404  0.33500738  1
  Ni  Ni6  1  0.00354169  0.66935374  0.00420996  1
  Ni  Ni7  1  0.16991921  0.83716057  0.17091711  1
  Fe  Fe8  1  1.00270820  0.67090744  0.33624762  1
  Fe  Fe9  1  0.33630343  0.00360215  1.00308910  1
  Ni  Ni10  1  0.50283912  0.17096990  0.17040990  1
  Ni  Ni11  1  0.33616489  1.00208740  0.33674513  1
  Fe  Fe12  1  0.33704339  0.33881935  1.00204031  1
  Ni  Ni13  1  0.50328143  0.50277401  0.17001464  1
  Fe  Fe14  1  0.33702182  0.33581449  0.33706106  1
  Ni  Ni15  1  0.33693703  0.67212086  0.00426332  1
  Fe  Fe16  1  0.50408019  0.83772298  0.16917001  1
  Fe  Fe17  1  0.33642235  0.66923290  0.33629903  1
  Fe  Fe18  1  0.67091148  0.00337205  1.00247169  1
  Ni  Ni19  1  0.83634713  0.16939920  0.17073605  1
  Fe  Fe20  1  0.67139113  0.00397258  0.33692639  1
  Ni  Ni21  1  0.67101897  0.33684264  0.00356249  1
  Ni  Ni22  1  0.83519265  0.50386675  0.17093690  1
  Ni  Ni23  1  0.67000059  0.33743808  0.33571913  1
  Ni  Ni24  1  0.66934676  0.66881479  1.00296265  1
  Ni  Ni25  1  0.83785768  0.83657557  0.17012366  1
  Ni  Ni26  1  0.66774312  0.67039605  0.33512249  1
  Fe  Fe27  1  0.16875763  0.17098037  0.50338185  1
  Ni  Ni28  1  0.00392697  0.00394989  0.67041531  1
  Ni  Ni29  1  0.16990255  0.16885702  0.83622233  1
  Ni  Ni30  1  0.17227021  0.50368196  0.50281536  1
  Ni  Ni31  1  0.00443879  0.33530100  0.67082794  1
  Ni  Ni32  1  0.17008569  0.50453567  0.83671488  1
  Fe  Fe33  1  0.16902232  0.83648160  0.50364343  1
  Ni  Ni34  1  0.00472973  0.67082134  0.67065482  1
  Ni  Ni35  1  0.17074180  0.83656786  0.83561418  1
  Fe  Fe36  1  0.50408815  0.17095344  0.50349194  1
  Ni  Ni37  1  0.33634812  1.00309948  0.66993013  1
  Ni  Ni38  1  0.50345215  0.16953345  0.83577369  1
  Ni  Ni39  1  0.50144577  0.50343616  0.50444944  1
  Ni  Ni40  1  0.33622351  0.33632445  0.67034398  1
  Ni  Ni41  1  0.50322841  0.50388449  0.83546444  1
  Fe  Fe42  1  0.50456894  0.83553086  0.50423239  1
  Ni  Ni43  1  0.33679138  0.67053918  0.66964166  1
  Ni  Ni44  1  0.50168477  0.83670575  0.83652933  1
  Ni  Ni45  1  0.83686867  0.16759485  0.50275814  1
  Ni  Ni46  1  0.66958372  0.00343333  0.66951788  1
  Ni  Ni47  1  0.83660526  0.17026840  0.83600885  1
  Cr  Cr48  1  0.83608614  0.50290602  0.50471414  1
  Ni  Ni49  1  0.66920642  0.33550669  0.67090944  1
  Ni  Ni50  1  0.83667033  0.50291772  0.83560009  1
  Ni  Ni51  1  0.83719753  0.83892643  0.50389485  1
  Ni  Ni52  1  0.66844270  0.67092308  0.67210201  1
  Fe  Fe53  1  0.83664848  0.83606522  0.83616612  1
" 