2338,Ni70Fe28Cr1_5,-242.661738509002, 218.252938187816,Ni70Fe28Cr1,"# generated using pymatgen
 data_CrFe15Ni38
_symmetry_space_group_name_H-M   'P 1'
_cell_length_a   7.41821938
_cell_length_b   7.41821938
_cell_length_c   10.49094645
_cell_angle_alpha   90.00000000
_cell_angle_beta   90.00000000
_cell_angle_gamma   90.00000000
_symmetry_Int_Tables_number   1
_chemical_formula_structural   CrFe15Ni38
_chemical_formula_sum   'Cr1 Fe15 Ni38'
_cell_volume   577.31656039
_cell_formula_units_Z   1
loop_
 _symmetry_equiv_pos_site_id
 _symmetry_equiv_pos_as_xyz
  1  'x, y, z'
loop_
 _atom_site_type_symbol
 _atom_site_label
 _atom_site_symmetry_multiplicity
 _atom_site_fract_x
 _atom_site_fract_y
 _atom_site_fract_z
 _atom_site_occupancy
  Ni  Ni0  1  0.00329341  0.00332096  0.00350570  1
  Ni  Ni1  1  0.16800613  0.17084265  0.16898801  1
  Ni  Ni2  1  0.00353622  0.00450633  0.33705089  1
  Ni  Ni3  1  1.00319667  0.33610012  1.00197631  1
  Ni  Ni4  1  0.16958469  0.50232994  0.17050101  1
  Ni  Ni5  1  1.00155672  0.33536180  0.33788377  1
  Ni  Ni6  1  0.00356347  0.67018836  0.00413016  1
  Fe  Fe7  1  0.17052130  0.83564916  0.17046313  1
  Fe  Fe8  1  0.00502932  0.66977842  0.33652592  1
  Fe  Fe9  1  0.33621116  0.00406862  0.00391680  1
  Fe  Fe10  1  0.50306760  0.17170355  0.16959463  1
  Ni  Ni11  1  0.33551244  1.00206274  0.33627162  1
  Ni  Ni12  1  0.33673866  0.33794472  0.00448610  1
  Ni  Ni13  1  0.50308563  0.50605849  0.16953611  1
  Fe  Fe14  1  0.33459004  0.33611983  0.33645897  1
  Ni  Ni15  1  0.33618780  0.66846566  1.00315774  1
  Ni  Ni16  1  0.50346021  0.83644695  0.16912845  1
  Ni  Ni17  1  0.33887152  0.67030897  0.33832173  1
  Ni  Ni18  1  0.67226544  0.00397495  0.00405901  1
  Ni  Ni19  1  0.83783477  0.17054403  0.16938395  1
  Fe  Fe20  1  0.66985020  0.00330194  0.33570505  1
  Ni  Ni21  1  0.66970488  0.33712149  0.00341113  1
  Ni  Ni22  1  0.83733246  0.50178127  0.16921104  1
  Fe  Fe23  1  0.66974264  0.33653730  0.33655002  1
  Ni  Ni24  1  0.67020427  0.66906260  0.00423533  1
  Fe  Fe25  1  0.83739489  0.83610120  0.16957148  1
  Fe  Fe26  1  0.67063456  0.67041995  0.33672076  1
  Ni  Ni27  1  0.16952071  0.17006840  0.50334336  1
  Ni  Ni28  1  0.00387837  1.00217077  0.66970134  1
  Ni  Ni29  1  0.16977254  0.17108486  0.83705416  1
  Ni  Ni30  1  0.16969422  0.50283824  0.50263247  1
  Fe  Fe31  1  0.00367988  0.33593745  0.66967003  1
  Ni  Ni32  1  0.17009179  0.50243806  0.83702517  1
  Ni  Ni33  1  0.17024804  0.83634560  0.50321345  1
  Fe  Fe34  1  0.00367934  0.66993486  0.67049392  1
  Ni  Ni35  1  0.16866007  0.83600049  0.83809250  1
  Ni  Ni36  1  0.50327976  0.16898343  0.50191455  1
  Ni  Ni37  1  0.33333180  0.00489633  0.66931938  1
  Ni  Ni38  1  0.50338200  0.17099876  0.83830850  1
  Ni  Ni39  1  0.50330940  0.50377045  0.50306612  1
  Ni  Ni40  1  0.33797412  0.33582096  0.66826821  1
  Fe  Fe41  1  0.50285978  0.50128221  0.83658691  1
  Ni  Ni42  1  0.50368355  0.83725585  0.50458297  1
  Fe  Fe43  1  0.33536206  0.66897456  0.66884682  1
  Cr  Cr44  1  0.50380122  0.83653600  0.83554088  1
  Ni  Ni45  1  0.83628616  0.16981195  0.50399025  1
  Fe  Fe46  1  0.66997848  0.00555285  0.66993711  1
  Ni  Ni47  1  0.83658428  0.16996616  0.83642482  1
  Ni  Ni48  1  0.83709672  0.50323139  0.50308217  1
  Ni  Ni49  1  0.66902783  0.33837455  0.66959837  1
  Fe  Fe50  1  0.83688562  0.50339000  0.83718156  1
  Ni  Ni51  1  0.83606037  0.83701218  0.50286185  1
  Ni  Ni52  1  0.67145990  0.66809997  0.66857507  1
  Ni  Ni53  1  0.83715437  0.83684115  0.83766273  1
" 