6649,Ni70Fe20Cr8_15,-238.607518769618, 199.93589131135,Ni70Fe20Cr8,"# generated using pymatgen
 data_Cr5Fe11Ni38
_symmetry_space_group_name_H-M   'P 1'
_cell_length_a   7.43167860
_cell_length_b   7.43167860
_cell_length_c   10.50998067
_cell_angle_alpha   90.00000000
_cell_angle_beta   90.00000000
_cell_angle_gamma   90.00000000
_symmetry_Int_Tables_number   1
_chemical_formula_structural   Cr5Fe11Ni38
_chemical_formula_sum   'Cr5 Fe11 Ni38'
_cell_volume   580.46462315
_cell_formula_units_Z   1
loop_
 _symmetry_equiv_pos_site_id
 _symmetry_equiv_pos_as_xyz
  1  'x, y, z'
loop_
 _atom_site_type_symbol
 _atom_site_label
 _atom_site_symmetry_multiplicity
 _atom_site_fract_x
 _atom_site_fract_y
 _atom_site_fract_z
 _atom_site_occupancy
  Ni  Ni0  1  0.00313882  1.00174259  0.00286089  1
  Fe  Fe1  1  0.16845194  0.16820527  0.16882210  1
  Ni  Ni2  1  1.00209212  0.00334687  0.33518018  1
  Ni  Ni3  1  0.00400144  0.33678332  0.00338860  1
  Ni  Ni4  1  0.17063216  0.50156892  0.16830343  1
  Ni  Ni5  1  1.00102904  0.33546089  0.33573222  1
  Ni  Ni6  1  0.00323295  0.66861401  0.00276175  1
  Ni  Ni7  1  0.16964792  0.83626323  0.16818958  1
  Cr  Cr8  1  1.00213538  0.66878968  0.33508346  1
  Ni  Ni9  1  0.33640976  1.00221271  1.00122452  1
  Fe  Fe10  1  0.50258728  0.16793201  0.16926842  1
  Ni  Ni11  1  0.33699879  1.00167020  0.33523548  1
  Fe  Fe12  1  0.33425715  0.33538013  1.00226489  1
  Ni  Ni13  1  0.50180687  0.50292073  0.16911961  1
  Fe  Fe14  1  0.33716613  0.33616911  0.33544069  1
  Ni  Ni15  1  0.33454375  0.66991355  0.00304542  1
  Ni  Ni16  1  0.50233926  0.83445989  0.16918564  1
  Fe  Fe17  1  0.33777408  0.66965749  0.33538119  1
  Ni  Ni18  1  0.66759052  1.00144458  0.00287547  1
  Ni  Ni19  1  0.83650689  0.16877198  0.16970613  1
  Ni  Ni20  1  0.66804936  0.00308511  0.33612086  1
  Fe  Fe21  1  0.66859764  0.33477462  0.00468085  1
  Fe  Fe22  1  0.83500050  0.50249251  0.16860679  1
  Ni  Ni23  1  0.66934886  0.33548569  0.33589245  1
  Ni  Ni24  1  0.66936274  0.67077859  0.00321000  1
  Ni  Ni25  1  0.83515232  0.83787241  0.16792011  1
  Ni  Ni26  1  0.66767538  0.66856859  0.33651274  1
  Cr  Cr27  1  0.16819869  0.16802188  0.50191840  1
  Fe  Fe28  1  0.00282938  1.00043122  0.66898809  1
  Ni  Ni29  1  0.17061910  0.16883928  0.83653514  1
  Fe  Fe30  1  0.16961635  0.50353885  0.50369041  1
  Fe  Fe31  1  0.00358861  0.33656381  0.66841156  1
  Ni  Ni32  1  0.16950018  0.50224508  0.83519441  1
  Ni  Ni33  1  0.16983219  0.83537017  0.50289539  1
  Ni  Ni34  1  0.00392870  0.66902079  0.66895878  1
  Ni  Ni35  1  0.16926111  0.83605292  0.83605058  1
  Ni  Ni36  1  0.50437333  0.16993175  0.50231730  1
  Ni  Ni37  1  0.33766617  1.00194538  0.67067956  1
  Ni  Ni38  1  0.50023546  0.16744268  0.83581312  1
  Ni  Ni39  1  0.50325502  0.50249268  0.50221522  1
  Ni  Ni40  1  0.33633370  0.33561349  0.66960422  1
  Cr  Cr41  1  0.50079427  0.50295334  0.83586057  1
  Ni  Ni42  1  0.50221071  0.83471642  0.50207163  1
  Ni  Ni43  1  0.33316924  0.66958146  0.66783187  1
  Ni  Ni44  1  0.50176079  0.83728117  0.83587947  1
  Ni  Ni45  1  0.83447169  0.16969532  0.50226369  1
  Ni  Ni46  1  0.66737536  0.00300513  0.66814174  1
  Cr  Cr47  1  0.83607705  0.16719648  0.83482008  1
  Ni  Ni48  1  0.83381632  0.50095310  0.50259300  1
  Ni  Ni49  1  0.66793355  0.33377853  0.66649072  1
  Cr  Cr50  1  0.83669866  0.50401468  0.83690597  1
  Ni  Ni51  1  0.83509679  0.83649086  0.50319230  1
  Fe  Fe52  1  0.66821175  0.67079151  0.66713732  1
  Ni  Ni53  1  0.83611576  0.83616636  0.83602497  1
" 