2335,Ni70Fe9Cr20_2,-231.626975194174, 166.803803634939,Ni70Fe9Cr20,"# generated using pymatgen
 data_Cr6Fe2Ni19
_symmetry_space_group_name_H-M   'P 1'
_cell_length_a   7.46310440
_cell_length_b   7.46310440
_cell_length_c   10.55442346
_cell_angle_alpha   90.00000000
_cell_angle_beta   90.00000000
_cell_angle_gamma   90.00000000
_symmetry_Int_Tables_number   1
_chemical_formula_structural   Cr6Fe2Ni19
_chemical_formula_sum   'Cr12 Fe4 Ni38'
_cell_volume   587.85951085
_cell_formula_units_Z   2
loop_
 _symmetry_equiv_pos_site_id
 _symmetry_equiv_pos_as_xyz
  1  'x, y, z'
loop_
 _atom_site_type_symbol
 _atom_site_label
 _atom_site_symmetry_multiplicity
 _atom_site_fract_x
 _atom_site_fract_y
 _atom_site_fract_z
 _atom_site_occupancy
  Ni  Ni0  1  0.00092471  0.99965623  0.99945294  1
  Ni  Ni1  1  0.16757957  0.16334028  0.16820195  1
  Ni  Ni2  1  0.00085648  1.00018730  0.33304480  1
  Cr  Cr3  1  0.99674927  0.32807732  0.00371504  1
  Cr  Cr4  1  0.16590341  0.50340692  0.16969286  1
  Ni  Ni5  1  1.00018655  0.33286771  0.33384727  1
  Fe  Fe6  1  0.99868868  0.67114638  0.00174907  1
  Ni  Ni7  1  0.16623795  0.83638988  0.16673137  1
  Ni  Ni8  1  0.99840244  0.66798728  0.33400212  1
  Ni  Ni9  1  0.33181718  1.00007297  1.00005591  1
  Ni  Ni10  1  0.50053472  0.16652427  0.16844549  1
  Ni  Ni11  1  0.33176122  0.99908498  0.33205228  1
  Cr  Cr12  1  0.33623907  0.33021648  1.00003343  1
  Ni  Ni13  1  0.50244189  0.49877265  0.16857798  1
  Ni  Ni14  1  0.33288283  0.33390752  0.33379414  1
  Cr  Cr15  1  0.33657879  0.67051600  0.00033307  1
  Ni  Ni16  1  0.49862204  0.83531807  0.17010533  1
  Ni  Ni17  1  0.33528889  0.66757347  0.33518556  1
  Cr  Cr18  1  0.66836227  0.00095038  0.00183655  1
  Ni  Ni19  1  0.83250812  0.16676266  0.16880847  1
  Ni  Ni20  1  0.66822970  0.99712061  0.33122383  1
  Ni  Ni21  1  0.66706562  0.33315344  0.00062259  1
  Ni  Ni22  1  0.83172489  0.50027105  0.16869526  1
  Ni  Ni23  1  0.66769505  0.33634766  0.33084093  1
  Cr  Cr24  1  0.66726986  0.66703481  0.00220511  1
  Ni  Ni25  1  0.83599898  0.83395979  0.16837720  1
  Ni  Ni26  1  0.66690060  0.66696364  0.33398076  1
  Ni  Ni27  1  0.16657335  0.16781422  0.50019047  1
  Ni  Ni28  1  0.99836928  1.00012101  0.66809861  1
  Fe  Fe29  1  0.16474367  0.16402299  0.83284604  1
  Ni  Ni30  1  0.16560233  0.49997640  0.49936610  1
  Ni  Ni31  1  0.00175107  0.33232820  0.66537834  1
  Cr  Cr32  1  0.16557458  0.50248904  0.83312056  1
  Ni  Ni33  1  0.16452589  0.83300714  0.49825108  1
  Ni  Ni34  1  0.99834805  0.66839279  0.66573633  1
  Ni  Ni35  1  0.16463497  0.83481767  0.83515273  1
  Cr  Cr36  1  0.50062968  0.16531445  0.49728189  1
  Cr  Cr37  1  0.33225271  0.00036566  0.66684970  1
  Ni  Ni38  1  0.50207899  0.16694459  0.83298366  1
  Ni  Ni39  1  0.50103949  0.49992584  0.50037361  1
  Ni  Ni40  1  0.33241691  0.33366605  0.66758403  1
  Fe  Fe41  1  0.50305289  0.50008031  0.83160545  1
  Ni  Ni42  1  0.50246408  0.83275775  0.49796142  1
  Cr  Cr43  1  0.33548195  0.66678281  0.66431069  1
  Ni  Ni44  1  0.50066062  0.83742651  0.83265347  1
  Cr  Cr45  1  0.83324567  0.16516851  0.49995846  1
  Ni  Ni46  1  0.66891883  0.99639590  0.66877090  1
  Ni  Ni47  1  0.83103791  0.16606747  0.83177196  1
  Ni  Ni48  1  0.83445684  0.50193162  0.50008318  1
  Fe  Fe49  1  0.66690363  0.33382713  0.66663807  1
  Cr  Cr50  1  0.83483241  0.50066851  0.83261738  1
  Ni  Ni51  1  0.83374916  0.83189611  0.50131676  1
  Ni  Ni52  1  0.66818213  0.66887023  0.66591220  1
  Ni  Ni53  1  0.83528790  0.83559705  0.83184131  1
" 