847,Ni70Cr30_7,-211.356427036267, 137.345639940578,Ni70Cr30,"# generated using pymatgen
 data_Cr37Ni17
_symmetry_space_group_name_H-M   'P 1'
_cell_length_a   7.56102243
_cell_length_b   7.56102243
_cell_length_c   10.69290047
_cell_angle_alpha   90.00000000
_cell_angle_beta   90.00000000
_cell_angle_gamma   90.00000000
_symmetry_Int_Tables_number   1
_chemical_formula_structural   Cr37Ni17
_chemical_formula_sum   'Cr37 Ni17'
_cell_volume   611.30307027
_cell_formula_units_Z   1
loop_
 _symmetry_equiv_pos_site_id
 _symmetry_equiv_pos_as_xyz
  1  'x, y, z'
loop_
 _atom_site_type_symbol
 _atom_site_label
 _atom_site_symmetry_multiplicity
 _atom_site_fract_x
 _atom_site_fract_y
 _atom_site_fract_z
 _atom_site_occupancy
  Ni  Ni0  1  -0.00579647  0.99374432  0.99353167  1
  Cr  Cr1  1  0.15996394  0.16020738  0.16209207  1
  Cr  Cr2  1  0.99340977  -0.00606529  0.32734558  1
  Cr  Cr3  1  0.99246689  0.32783101  -0.00464529  1
  Cr  Cr4  1  0.16039864  0.49328669  0.16206402  1
  Ni  Ni5  1  0.99120145  0.33153899  0.32688411  1
  Cr  Cr6  1  0.99357712  0.66001186  0.99297540  1
  Cr  Cr7  1  0.15946250  0.82815494  0.16091192  1
  Ni  Ni8  1  0.98969620  0.65726139  0.32718672  1
  Cr  Cr9  1  0.32797692  0.99355467  0.99361856  1
  Cr  Cr10  1  0.49301275  0.16061754  0.16125683  1
  Ni  Ni11  1  0.32917898  0.99359106  0.32969222  1
  Cr  Cr12  1  0.32778334  0.32648850  0.99122048  1
  Cr  Cr13  1  0.49621751  0.49441553  0.16014332  1
  Cr  Cr14  1  0.32746426  0.32503954  0.32908049  1
  Cr  Cr15  1  0.32646331  0.66097023  0.99312273  1
  Cr  Cr16  1  0.49479952  0.82634009  0.16298718  1
  Cr  Cr17  1  0.32777568  0.66348016  0.32789364  1
  Cr  Cr18  1  0.66062862  -0.00522195  0.99297363  1
  Cr  Cr19  1  0.82854408  0.16080299  0.16004687  1
  Cr  Cr20  1  0.65780490  0.99271527  0.32956850  1
  Cr  Cr21  1  0.66128146  0.32634070  0.99332418  1
  Ni  Ni22  1  0.82809555  0.49520643  0.16401760  1
  Cr  Cr23  1  0.66293160  0.32697206  0.32792091  1
  Cr  Cr24  1  0.66158743  0.66004684  -0.00496348  1
  Cr  Cr25  1  0.82702834  0.82639399  0.16026589  1
  Ni  Ni26  1  0.66379648  0.65957557  0.32841930  1
  Cr  Cr27  1  0.16205062  0.16018017  0.49360595  1
  Ni  Ni28  1  -0.00620802  0.99241144  0.66104022  1
  Cr  Cr29  1  0.16081525  0.15932374  0.82586619  1
  Cr  Cr30  1  0.15839077  0.49361442  0.49383776  1
  Cr  Cr31  1  0.99282599  0.32825033  0.65857260  1
  Cr  Cr32  1  0.16136098  0.49312830  0.82447386  1
  Cr  Cr33  1  0.15980120  0.82820634  0.49454727  1
  Ni  Ni34  1  0.99030641  0.66157079  0.65915813  1
  Cr  Cr35  1  0.15810490  0.82915706  0.82596521  1
  Ni  Ni36  1  0.49321018  0.15781883  0.49726361  1
  Ni  Ni37  1  0.32999641  -0.00399025  0.65918426  1
  Ni  Ni38  1  0.49407838  0.15986093  0.82271516  1
  Cr  Cr39  1  0.49706340  0.49356650  0.49562952  1
  Ni  Ni40  1  0.33102677  0.32261896  0.66071032  1
  Cr  Cr41  1  0.49519708  0.49141080  0.82542582  1
  Ni  Ni42  1  0.49503117  0.82920647  0.49468228  1
  Cr  Cr43  1  0.32662112  0.66211036  0.66071405  1
  Cr  Cr44  1  0.49629609  0.82760830  0.82534345  1
  Cr  Cr45  1  0.82567519  0.16152220  0.49567485  1
  Ni  Ni46  1  0.65761820  -0.00537466  0.65984297  1
  Cr  Cr47  1  0.82559654  0.15807978  0.82574816  1
  Ni  Ni48  1  0.82625746  0.49557037  0.49335809  1
  Ni  Ni49  1  0.65809023  0.32570182  0.65942282  1
  Cr  Cr50  1  0.82462149  0.49488493  0.82399686  1
  Cr  Cr51  1  0.82534693  0.82525024  0.49608242  1
  Ni  Ni52  1  0.66165009  0.66095489  0.65792542  1
  Cr  Cr53  1  0.82684540  0.82847744  0.82469871  1
" 