1390,Ni70Fe5Cr23_0,-229.723157460863, 156.918427430217,Ni70Fe5Cr23,"# generated using pymatgen
 data_Cr7FeNi19
_symmetry_space_group_name_H-M   'P 1'
_cell_length_a   7.47047000
_cell_length_b   7.47047000
_cell_length_c   10.56483999
_cell_angle_alpha   90.00000000
_cell_angle_beta   90.00000000
_cell_angle_gamma   90.00000000
_symmetry_Int_Tables_number   1
_chemical_formula_structural   Cr7FeNi19
_chemical_formula_sum   'Cr14 Fe2 Ni38'
_cell_volume   589.60176596
_cell_formula_units_Z   2
loop_
 _symmetry_equiv_pos_site_id
 _symmetry_equiv_pos_as_xyz
  1  'x, y, z'
loop_
 _atom_site_type_symbol
 _atom_site_label
 _atom_site_symmetry_multiplicity
 _atom_site_fract_x
 _atom_site_fract_y
 _atom_site_fract_z
 _atom_site_occupancy
  Cr  Cr0  1  0.00115043  0.00022692  0.00066542  1
  Ni  Ni1  1  0.16566796  0.16676250  0.16707918  1
  Ni  Ni2  1  0.99878324  0.00144796  0.33373570  1
  Ni  Ni3  1  0.99829199  0.33336810  0.00067631  1
  Ni  Ni4  1  0.16560198  0.49918946  0.16729037  1
  Ni  Ni5  1  0.99903588  0.33096274  0.33150577  1
  Ni  Ni6  1  0.99835555  0.66541107  0.00128056  1
  Ni  Ni7  1  0.16531937  0.83320452  0.16632469  1
  Cr  Cr8  1  0.99839365  0.66866537  0.33264774  1
  Ni  Ni9  1  0.33328259  0.99850279  -0.00020615  1
  Ni  Ni10  1  0.50002710  0.16493475  0.16642645  1
  Cr  Cr11  1  0.33120220  0.99918613  0.33279695  1
  Cr  Cr12  1  0.33121376  0.33063018  0.00263186  1
  Ni  Ni13  1  0.49975045  0.50087383  0.16880278  1
  Fe  Fe14  1  0.33306602  0.33284610  0.33243466  1
  Cr  Cr15  1  0.33244160  0.66995388  0.00039664  1
  Fe  Fe16  1  0.50119755  0.83363763  0.16662448  1
  Ni  Ni17  1  0.33424587  0.66587056  0.33180481  1
  Ni  Ni18  1  0.66508521  0.99844623  0.00216907  1
  Ni  Ni19  1  0.83357699  0.16486466  0.16692913  1
  Ni  Ni20  1  0.66853273  -0.00006949  0.33202092  1
  Cr  Cr21  1  0.66995767  0.33316819  0.99951103  1
  Ni  Ni22  1  0.83388567  0.50095182  0.16482215  1
  Cr  Cr23  1  0.66789461  0.33317053  0.33460525  1
  Ni  Ni24  1  0.66781058  0.66759819  0.00190553  1
  Ni  Ni25  1  0.83179264  0.83352326  0.16726663  1
  Ni  Ni26  1  0.66575301  0.66621660  0.33217376  1
  Ni  Ni27  1  0.16444024  0.16513371  0.49970897  1
  Ni  Ni28  1  0.00075036  0.00057701  0.66460999  1
  Ni  Ni29  1  0.16386589  0.16393906  0.83260185  1
  Cr  Cr30  1  0.16623780  0.50001436  0.49873067  1
  Ni  Ni31  1  0.99597288  0.33111928  0.66700204  1
  Cr  Cr32  1  0.16200663  0.50022084  0.83293914  1
  Ni  Ni33  1  0.16495903  0.83463026  0.50199422  1
  Ni  Ni34  1  0.99869901  0.66755399  0.66584313  1
  Ni  Ni35  1  0.16721007  0.83470110  0.83081490  1
  Ni  Ni36  1  0.50088100  0.16624719  0.50069104  1
  Ni  Ni37  1  0.33127913  0.99791986  0.66751958  1
  Cr  Cr38  1  0.50158446  0.16203196  0.83232402  1
  Ni  Ni39  1  0.50110293  0.50033665  0.49964701  1
  Cr  Cr40  1  0.33397338  0.33097076  0.66415028  1
  Cr  Cr41  1  0.50306818  0.50293725  0.83043880  1
  Cr  Cr42  1  0.50156415  0.83278228  0.50038769  1
  Ni  Ni43  1  0.33319756  0.67035387  0.66612063  1
  Ni  Ni44  1  0.50000433  0.83434456  0.83338319  1
  Ni  Ni45  1  0.83396941  0.16491681  0.50049943  1
  Ni  Ni46  1  0.66736015  0.00081159  0.66544414  1
  Ni  Ni47  1  0.83475088  0.16691010  0.83163103  1
  Ni  Ni48  1  0.83207365  0.50005317  0.50205723  1
  Ni  Ni49  1  0.67050478  0.33317652  0.66474271  1
  Ni  Ni50  1  0.83421412  0.49980481  0.83261066  1
  Ni  Ni51  1  0.83342455  0.83443774  0.49970704  1
  Ni  Ni52  1  0.66757639  0.66557428  0.66536959  1
  Cr  Cr53  1  0.83164344  0.83258718  0.83234004  1
" 