4143,Ni70Fe20Cr8_19,-238.564988757168, 200.596311639844,Ni70Fe20Cr8,"# generated using pymatgen
 data_Cr5Fe11Ni38
_symmetry_space_group_name_H-M   'P 1'
_cell_length_a   7.43058321
_cell_length_b   7.43058321
_cell_length_c   10.50843155
_cell_angle_alpha   90.00000000
_cell_angle_beta   90.00000000
_cell_angle_gamma   90.00000000
_symmetry_Int_Tables_number   1
_chemical_formula_structural   Cr5Fe11Ni38
_chemical_formula_sum   'Cr5 Fe11 Ni38'
_cell_volume   580.20798698
_cell_formula_units_Z   1
loop_
 _symmetry_equiv_pos_site_id
 _symmetry_equiv_pos_as_xyz
  1  'x, y, z'
loop_
 _atom_site_type_symbol
 _atom_site_label
 _atom_site_symmetry_multiplicity
 _atom_site_fract_x
 _atom_site_fract_y
 _atom_site_fract_z
 _atom_site_occupancy
  Ni  Ni0  1  1.00179178  1.00214159  1.00138082  1
  Cr  Cr1  1  0.17057634  0.17051422  0.16830279  1
  Cr  Cr2  1  1.00033207  1.00112778  0.33633166  1
  Ni  Ni3  1  1.00163798  0.33574751  1.00152459  1
  Ni  Ni4  1  0.16653271  0.50323367  0.16992786  1
  Ni  Ni5  1  0.99955140  0.33819980  0.33574918  1
  Ni  Ni6  1  0.00312008  0.66933293  0.00291334  1
  Fe  Fe7  1  0.17091765  0.83276311  0.16899484  1
  Ni  Ni8  1  0.00284684  0.66724088  0.33544061  1
  Fe  Fe9  1  0.33643341  1.00173436  1.00174733  1
  Ni  Ni10  1  0.50290958  0.16682081  0.16916392  1
  Ni  Ni11  1  0.33782798  0.99876069  0.33463848  1
  Ni  Ni12  1  0.33615253  0.33655807  1.00170705  1
  Cr  Cr13  1  0.50391168  0.50294587  0.16943609  1
  Fe  Fe14  1  0.33625196  0.33786837  0.33568487  1
  Ni  Ni15  1  0.33554881  0.66916199  1.00146545  1
  Ni  Ni16  1  0.50362837  0.83726901  0.16924332  1
  Ni  Ni17  1  0.33566462  0.67066856  0.33719285  1
  Fe  Fe18  1  0.66946756  0.00255728  1.00179664  1
  Fe  Fe19  1  0.83324581  0.17149383  0.16762311  1
  Ni  Ni20  1  0.66802687  1.00212786  0.33444968  1
  Ni  Ni21  1  0.66934514  0.33487497  1.00084118  1
  Ni  Ni22  1  0.83726778  0.50425098  0.16820663  1
  Ni  Ni23  1  0.67147781  0.33556820  0.33608859  1
  Ni  Ni24  1  0.66878364  0.66940110  1.00178908  1
  Fe  Fe25  1  0.83444257  0.83395781  0.16822258  1
  Ni  Ni26  1  0.66908954  0.66984315  0.33638235  1
  Cr  Cr27  1  0.16943626  0.16918283  0.50382541  1
  Ni  Ni28  1  1.00110801  1.00222334  0.66949530  1
  Ni  Ni29  1  0.16946507  0.16880748  0.83585773  1
  Fe  Fe30  1  0.16912783  0.50503513  0.50305424  1
  Ni  Ni31  1  1.00186377  0.33629196  0.67035374  1
  Ni  Ni32  1  0.16863356  0.50172016  0.83586145  1
  Ni  Ni33  1  0.16914360  0.83524725  0.50321084  1
  Ni  Ni34  1  1.00224747  0.66895863  0.66906640  1
  Fe  Fe35  1  0.16782713  0.83492723  0.83485487  1
  Cr  Cr36  1  0.50174007  0.16856023  0.50194523  1
  Ni  Ni37  1  0.33636147  1.00095324  0.67136204  1
  Ni  Ni38  1  0.50121594  0.16904173  0.83635316  1
  Ni  Ni39  1  0.50426955  0.50420207  0.50202021  1
  Ni  Ni40  1  0.33573088  0.33780745  0.67045521  1
  Ni  Ni41  1  0.50266429  0.50252717  0.83587548  1
  Ni  Ni42  1  0.50320109  0.83491433  0.50255269  1
  Ni  Ni43  1  0.33686949  0.66865955  0.66888111  1
  Fe  Fe44  1  0.50346238  0.83481315  0.83536497  1
  Fe  Fe45  1  0.83418938  0.16930570  0.50395799  1
  Ni  Ni46  1  0.66976323  1.00128799  0.66969894  1
  Ni  Ni47  1  0.83656439  0.16812608  0.83522571  1
  Ni  Ni48  1  0.83567685  0.50447649  0.50265222  1
  Fe  Fe49  1  0.66941030  0.33714074  0.67057101  1
  Ni  Ni50  1  0.83609503  0.50448745  0.83643837  1
  Ni  Ni51  1  0.83505439  0.83315177  0.50234501  1
  Ni  Ni52  1  0.66837802  0.66970282  0.66911038  1
  Ni  Ni53  1  0.83621625  0.83478185  0.83586360  1
" 