5154,Ni70Fe20Cr8_8,-238.289394408455, 197.0118886609,Ni70Fe20Cr8,"# generated using pymatgen
 data_Cr5Fe11Ni38
_symmetry_space_group_name_H-M   'P 1'
_cell_length_a   7.43104735
_cell_length_b   7.43104735
_cell_length_c   10.50908794
_cell_angle_alpha   90.00000000
_cell_angle_beta   90.00000000
_cell_angle_gamma   90.00000000
_symmetry_Int_Tables_number   1
_chemical_formula_structural   Cr5Fe11Ni38
_chemical_formula_sum   'Cr5 Fe11 Ni38'
_cell_volume   580.31671998
_cell_formula_units_Z   1
loop_
 _symmetry_equiv_pos_site_id
 _symmetry_equiv_pos_as_xyz
  1  'x, y, z'
loop_
 _atom_site_type_symbol
 _atom_site_label
 _atom_site_symmetry_multiplicity
 _atom_site_fract_x
 _atom_site_fract_y
 _atom_site_fract_z
 _atom_site_occupancy
  Cr  Cr0  1  1.00232087  1.00231571  0.00289172  1
  Ni  Ni1  1  0.17059383  0.16863413  0.17078907  1
  Fe  Fe2  1  1.00222896  0.00342398  0.33498359  1
  Cr  Cr3  1  0.00279916  0.33592030  1.00204502  1
  Ni  Ni4  1  0.16936555  0.50222408  0.17009468  1
  Ni  Ni5  1  0.00294933  0.33583426  0.33592266  1
  Cr  Cr6  1  0.00322283  0.66903120  0.00283722  1
  Ni  Ni7  1  0.16985426  0.83640873  0.17059647  1
  Fe  Fe8  1  1.00186063  0.66786994  0.33471715  1
  Ni  Ni9  1  0.33768580  1.00196038  1.00206851  1
  Ni  Ni10  1  0.50212422  0.16884887  0.16885281  1
  Ni  Ni11  1  0.33582522  0.00330412  0.33447484  1
  Ni  Ni12  1  0.33747380  0.33601300  0.00274850  1
  Ni  Ni13  1  0.50361137  0.50226600  0.16885258  1
  Ni  Ni14  1  0.33484630  0.33605500  0.33603533  1
  Ni  Ni15  1  0.33747481  0.66929411  0.00279953  1
  Ni  Ni16  1  0.50290628  0.83615214  0.16864436  1
  Ni  Ni17  1  0.33556790  0.66790833  0.33372967  1
  Ni  Ni18  1  0.66721194  1.00217813  0.00275062  1
  Fe  Fe19  1  0.83395764  0.16926551  0.17059900  1
  Ni  Ni20  1  0.66975752  0.00251297  0.33469375  1
  Ni  Ni21  1  0.66725525  0.33561896  0.00276310  1
  Ni  Ni22  1  0.83429030  0.50300525  0.17078102  1
  Ni  Ni23  1  0.66947091  0.33557964  0.33570864  1
  Ni  Ni24  1  0.66703923  0.66946987  1.00210381  1
  Ni  Ni25  1  0.83450561  0.83492280  0.17044463  1
  Ni  Ni26  1  0.66953797  0.66917381  0.33535493  1
  Ni  Ni27  1  0.16868254  0.17072345  0.50263807  1
  Ni  Ni28  1  1.00100176  0.00259325  0.66962079  1
  Ni  Ni29  1  0.17019202  0.16791430  0.83383922  1
  Ni  Ni30  1  0.16821545  0.50036796  0.50306651  1
  Ni  Ni31  1  0.00290944  0.33575284  0.66930531  1
  Fe  Fe32  1  0.17156665  0.50253915  0.83390656  1
  Cr  Cr33  1  0.16800215  0.83634316  0.50194443  1
  Ni  Ni34  1  0.00288234  0.66892153  0.66962297  1
  Ni  Ni35  1  0.17013160  0.83689953  0.83429820  1
  Ni  Ni36  1  0.50269414  0.17093681  0.50275328  1
  Fe  Fe37  1  0.33517067  0.00454066  0.67084085  1
  Ni  Ni38  1  0.50216461  0.16889105  0.83566046  1
  Ni  Ni39  1  0.50337903  0.50036565  0.50250040  1
  Ni  Ni40  1  0.33549542  0.33669455  0.66848368  1
  Ni  Ni41  1  0.50429397  0.50241126  0.83591383  1
  Cr  Cr42  1  0.50351905  0.83591860  0.50247257  1
  Ni  Ni43  1  0.33477320  0.66723149  0.67073750  1
  Ni  Ni44  1  0.50218420  0.83596470  0.83610421  1
  Fe  Fe45  1  0.83553564  0.16972395  0.50274459  1
  Ni  Ni46  1  0.67054979  0.00331283  0.66982384  1
  Fe  Fe47  1  0.83364853  0.16905920  0.83392511  1
  Fe  Fe48  1  0.83585865  0.50141409  0.50247654  1
  Ni  Ni49  1  0.66886346  0.33481163  0.66879513  1
  Ni  Ni50  1  0.83397676  0.50247364  0.83409866  1
  Fe  Fe51  1  0.83553568  0.83612754  0.50227079  1
  Fe  Fe52  1  0.66991786  0.66761927  0.67014938  1
  Fe  Fe53  1  0.83392141  0.83606021  0.83452745  1
" 