8445,Ni70Fe27Cr1_11,-241.39186403428, 214.374456930033,Ni70Fe27Cr1,"# generated using pymatgen
 data_Cr2Fe15Ni37
_symmetry_space_group_name_H-M   'P 1'
_cell_length_a   7.41725645
_cell_length_b   7.41725645
_cell_length_c   10.48958467
_cell_angle_alpha   90.00000000
_cell_angle_beta   90.00000000
_cell_angle_gamma   90.00000000
_symmetry_Int_Tables_number   1
_chemical_formula_structural   Cr2Fe15Ni37
_chemical_formula_sum   'Cr2 Fe15 Ni37'
_cell_volume   577.09177220
_cell_formula_units_Z   1
loop_
 _symmetry_equiv_pos_site_id
 _symmetry_equiv_pos_as_xyz
  1  'x, y, z'
loop_
 _atom_site_type_symbol
 _atom_site_label
 _atom_site_symmetry_multiplicity
 _atom_site_fract_x
 _atom_site_fract_y
 _atom_site_fract_z
 _atom_site_occupancy
  Ni  Ni0  1  0.00500447  1.00182781  1.00280975  1
  Cr  Cr1  1  0.17075566  0.17199252  0.17141138  1
  Fe  Fe2  1  1.00192737  1.00311192  0.33725706  1
  Ni  Ni3  1  0.00366958  0.33548430  1.00157643  1
  Ni  Ni4  1  0.16906282  0.50436242  0.17073366  1
  Ni  Ni5  1  1.00296380  0.33734525  0.33798800  1
  Fe  Fe6  1  1.00272763  0.66745665  1.00275632  1
  Fe  Fe7  1  0.16988749  0.83541728  0.17101276  1
  Fe  Fe8  1  1.00318618  0.66893581  0.33779990  1
  Fe  Fe9  1  0.33820388  0.00420690  1.00249845  1
  Ni  Ni10  1  0.50488477  0.16943773  0.16979357  1
  Ni  Ni11  1  0.33699304  1.00231133  0.33647532  1
  Ni  Ni12  1  0.33698598  0.33773631  1.00238169  1
  Ni  Ni13  1  0.50294452  0.50411058  0.17108522  1
  Ni  Ni14  1  0.33694148  0.33770242  0.33790915  1
  Fe  Fe15  1  0.33653697  0.66842939  0.00400380  1
  Ni  Ni16  1  0.50399921  0.83690756  0.17059428  1
  Ni  Ni17  1  0.33676596  0.67033840  0.33712547  1
  Fe  Fe18  1  0.67143727  0.00494787  0.00388395  1
  Ni  Ni19  1  0.83649787  0.16962815  0.17010023  1
  Ni  Ni20  1  0.66937617  1.00261970  0.33616433  1
  Ni  Ni21  1  0.66967958  0.33918932  0.00417932  1
  Ni  Ni22  1  0.83769742  0.50361487  0.17005064  1
  Ni  Ni23  1  0.67052451  0.33710961  0.33536113  1
  Ni  Ni24  1  0.66918968  0.67005364  0.00343806  1
  Ni  Ni25  1  0.83614209  0.83613941  0.17051303  1
  Ni  Ni26  1  0.66950484  0.66995871  0.33732490  1
  Fe  Fe27  1  0.17184000  0.17062663  0.50326885  1
  Ni  Ni28  1  0.00437341  1.00259994  0.66877307  1
  Ni  Ni29  1  0.16922841  0.16987165  0.83489433  1
  Ni  Ni30  1  0.16874905  0.50438771  0.50436243  1
  Fe  Fe31  1  1.00171382  0.33607341  0.67006621  1
  Ni  Ni32  1  0.16906852  0.50322553  0.83531424  1
  Ni  Ni33  1  0.16998861  0.83706815  0.50276521  1
  Ni  Ni34  1  0.00440809  0.67066329  0.67061660  1
  Fe  Fe35  1  0.17021213  0.83712380  0.83533986  1
  Ni  Ni36  1  0.50426535  0.16873933  0.50330011  1
  Ni  Ni37  1  0.33606486  0.00422097  0.67041713  1
  Ni  Ni38  1  0.50384143  0.16923421  0.83734533  1
  Ni  Ni39  1  0.50300794  0.50237534  0.50230174  1
  Fe  Fe40  1  0.33747511  0.33635002  0.67011739  1
  Ni  Ni41  1  0.50240602  0.50406679  0.83658123  1
  Ni  Ni42  1  0.50191070  0.83901675  0.50262599  1
  Fe  Fe43  1  0.33598625  0.67160610  0.66859685  1
  Ni  Ni44  1  0.50260087  0.83790715  0.83691438  1
  Fe  Fe45  1  0.83512321  0.17022551  0.50344356  1
  Ni  Ni46  1  0.66977136  0.00434977  0.67126416  1
  Ni  Ni47  1  0.83749684  0.16947444  0.83660126  1
  Ni  Ni48  1  0.83778265  0.50178585  0.50252307  1
  Ni  Ni49  1  0.66903931  0.33569796  0.67065049  1
  Ni  Ni50  1  0.83779414  0.50202843  0.83768843  1
  Fe  Fe51  1  0.83625673  0.83628681  0.50262074  1
  Cr  Cr52  1  0.67025262  0.66858919  0.66893577  1
  Fe  Fe53  1  0.83710012  0.83727719  0.83769158  1
" 