5406,Ni70Fe20Cr8_10,-238.5232369205, 201.266478685111,Ni70Fe20Cr8,"# generated using pymatgen
 data_Cr5Fe11Ni38
_symmetry_space_group_name_H-M   'P 1'
_cell_length_a   7.42949568
_cell_length_b   7.42949568
_cell_length_c   10.50689356
_cell_angle_alpha   90.00000000
_cell_angle_beta   90.00000000
_cell_angle_gamma   90.00000000
_symmetry_Int_Tables_number   1
_chemical_formula_structural   Cr5Fe11Ni38
_chemical_formula_sum   'Cr5 Fe11 Ni38'
_cell_volume   579.95327036
_cell_formula_units_Z   1
loop_
 _symmetry_equiv_pos_site_id
 _symmetry_equiv_pos_as_xyz
  1  'x, y, z'
loop_
 _atom_site_type_symbol
 _atom_site_label
 _atom_site_symmetry_multiplicity
 _atom_site_fract_x
 _atom_site_fract_y
 _atom_site_fract_z
 _atom_site_occupancy
  Ni  Ni0  1  1.00098411  0.00324492  1.00131938  1
  Cr  Cr1  1  0.16861209  0.16846212  0.16975341  1
  Ni  Ni2  1  1.00216204  1.00134677  0.33592864  1
  Ni  Ni3  1  1.00188711  0.33576858  1.00147993  1
  Fe  Fe4  1  0.16996475  0.50364755  0.16954821  1
  Ni  Ni5  1  1.00142610  0.33652715  0.33461184  1
  Cr  Cr6  1  0.00316591  0.66852934  0.00338058  1
  Ni  Ni7  1  0.17066122  0.83627185  0.17046705  1
  Fe  Fe8  1  1.00111799  0.67005000  0.33529933  1
  Ni  Ni9  1  0.33748736  1.00153081  1.00182168  1
  Fe  Fe10  1  0.50463621  0.16851833  0.16978758  1
  Ni  Ni11  1  0.33659039  1.00145134  0.33663214  1
  Ni  Ni12  1  0.33528342  0.33626146  0.00260765  1
  Ni  Ni13  1  0.50282798  0.50339760  0.17002022  1
  Ni  Ni14  1  0.33698402  0.33600449  0.33610646  1
  Ni  Ni15  1  0.33601795  0.66979191  0.00325291  1
  Ni  Ni16  1  0.50236869  0.83452920  0.16812980  1
  Ni  Ni17  1  0.33684570  0.67013429  0.33462660  1
  Ni  Ni18  1  0.66916949  1.00249561  0.00295626  1
  Ni  Ni19  1  0.83545273  0.16935008  0.16871422  1
  Ni  Ni20  1  0.66886075  1.00146178  0.33480181  1
  Fe  Fe21  1  0.66986534  0.33496711  0.00367780  1
  Ni  Ni22  1  0.83373582  0.50138349  0.17011097  1
  Ni  Ni23  1  0.66923909  0.33673423  0.33496662  1
  Fe  Fe24  1  0.66863108  0.67023524  0.00364793  1
  Ni  Ni25  1  0.83454906  0.83685524  0.17036574  1
  Ni  Ni26  1  0.66933935  0.66936122  0.33591557  1
  Ni  Ni27  1  0.17154675  0.16838080  0.50287962  1
  Fe  Fe28  1  0.00342418  1.00153249  0.67005684  1
  Ni  Ni29  1  0.16936512  0.16911908  0.83525933  1
  Cr  Cr30  1  0.16932117  0.50107228  0.50251452  1
  Ni  Ni31  1  1.00242730  0.33723956  0.67154255  1
  Ni  Ni32  1  0.16899771  0.50083171  0.83612491  1
  Fe  Fe33  1  0.16946702  0.83774946  0.50246909  1
  Ni  Ni34  1  1.00134519  0.66884352  0.66965839  1
  Ni  Ni35  1  0.16970874  0.83764872  0.83459763  1
  Ni  Ni36  1  0.50015712  0.16856194  0.50209887  1
  Ni  Ni37  1  0.33658845  0.00256403  0.66909639  1
  Fe  Fe38  1  0.50191887  0.16768678  0.83510872  1
  Fe  Fe39  1  0.50440290  0.50238418  0.50224683  1
  Ni  Ni40  1  0.33522607  0.33411884  0.66886662  1
  Cr  Cr41  1  0.50239768  0.50320748  0.83452081  1
  Ni  Ni42  1  0.50310463  0.83609433  0.50318294  1
  Ni  Ni43  1  0.33521200  0.67091162  0.66965930  1
  Fe  Fe44  1  0.50186578  0.83689909  0.83565795  1
  Cr  Cr45  1  0.83637201  0.16926432  0.50255131  1
  Ni  Ni46  1  0.66792525  1.00147728  0.66980857  1
  Fe  Fe47  1  0.83699698  0.16934693  0.83637391  1
  Ni  Ni48  1  0.83418548  0.50431814  0.50299348  1
  Ni  Ni49  1  0.66999195  0.33586378  0.66895394  1
  Ni  Ni50  1  0.83619866  0.50215529  0.83453118  1
  Ni  Ni51  1  0.83431694  0.83409255  0.50219997  1
  Ni  Ni52  1  0.67100362  0.67022269  0.66853626  1
  Ni  Ni53  1  0.83513652  0.83657123  0.83504955  1
" 