8529,Ni70Fe30_0,-236.22962909515, 204.979992949278,Ni70Fe30,"# generated using pymatgen
 data_Fe37Ni17
_symmetry_space_group_name_H-M   'P 1'
_cell_length_a   7.39349305
_cell_length_b   7.39349305
_cell_length_c   10.45597815
_cell_angle_alpha   90.00000000
_cell_angle_beta   90.00000000
_cell_angle_gamma   90.00000000
_symmetry_Int_Tables_number   1
_chemical_formula_structural   Fe37Ni17
_chemical_formula_sum   'Fe37 Ni17'
_cell_volume   571.56286641
_cell_formula_units_Z   1
loop_
 _symmetry_equiv_pos_site_id
 _symmetry_equiv_pos_as_xyz
  1  'x, y, z'
loop_
 _atom_site_type_symbol
 _atom_site_label
 _atom_site_symmetry_multiplicity
 _atom_site_fract_x
 _atom_site_fract_y
 _atom_site_fract_z
 _atom_site_occupancy
  Fe  Fe0  1  0.00542942  0.00578723  1.00461328  1
  Ni  Ni1  1  0.17090949  0.17258959  0.17207026  1
  Fe  Fe2  1  0.00543779  1.00460016  0.33876121  1
  Fe  Fe3  1  0.00535693  0.33776622  1.00497363  1
  Fe  Fe4  1  0.17241388  0.50520130  0.17178055  1
  Fe  Fe5  1  0.00533284  0.33940752  0.33821616  1
  Fe  Fe6  1  0.00525911  0.67137016  0.00514679  1
  Fe  Fe7  1  0.17192943  0.83840172  0.17237499  1
  Ni  Ni8  1  0.00663079  0.67178360  0.33862471  1
  Fe  Fe9  1  0.33887156  0.00515270  1.00470806  1
  Fe  Fe10  1  0.50482693  0.17149245  0.17140753  1
  Fe  Fe11  1  0.33807762  1.00427430  0.33843691  1
  Ni  Ni12  1  0.33780128  0.33894625  0.00547423  1
  Fe  Fe13  1  0.50428777  0.50448856  0.17196503  1
  Fe  Fe14  1  0.33776622  0.33931629  0.33758361  1
  Fe  Fe15  1  0.33894601  0.67209943  1.00451134  1
  Ni  Ni16  1  0.50588779  0.83827786  0.17228579  1
  Ni  Ni17  1  0.33655839  0.67134959  0.33757164  1
  Ni  Ni18  1  0.67226406  0.00515300  0.00498454  1
  Fe  Fe19  1  0.83767532  0.17100458  0.17164190  1
  Fe  Fe20  1  0.67140843  1.00420668  0.33780794  1
  Fe  Fe21  1  0.67135614  0.33784310  0.00569690  1
  Fe  Fe22  1  0.83822007  0.50497860  0.17219747  1
  Ni  Ni23  1  0.67172096  0.33744103  0.33726654  1
  Fe  Fe24  1  0.67071926  0.67203259  1.00452169  1
  Fe  Fe25  1  0.83839114  0.83893860  0.17155142  1
  Fe  Fe26  1  0.67149682  0.67122536  0.33834776  1
  Fe  Fe27  1  0.17155272  0.17117347  0.50480681  1
  Ni  Ni28  1  0.00498988  0.00528150  0.67206118  1
  Fe  Fe29  1  0.17232646  0.17104847  0.83889100  1
  Ni  Ni30  1  0.17113281  0.50550422  0.50455477  1
  Fe  Fe31  1  0.00525919  0.33822080  0.67173300  1
  Ni  Ni32  1  0.17101399  0.50506350  0.83819500  1
  Ni  Ni33  1  0.17197923  0.83737952  0.50478777  1
  Fe  Fe34  1  0.00582016  0.67310263  0.67109886  1
  Ni  Ni35  1  0.17279749  0.83770901  0.83863813  1
  Fe  Fe36  1  0.50430000  0.17167631  0.50511603  1
  Ni  Ni37  1  0.33756500  1.00435647  0.67246981  1
  Fe  Fe38  1  0.50398305  0.17089144  0.83839832  1
  Fe  Fe39  1  0.50404954  0.50571140  0.50478837  1
  Fe  Fe40  1  0.33838190  0.33814228  0.67227535  1
  Fe  Fe41  1  0.50372994  0.50612483  0.83816528  1
  Fe  Fe42  1  0.50372725  0.83753095  0.50567211  1
  Ni  Ni43  1  0.33807847  0.67139465  0.67227914  1
  Ni  Ni44  1  0.50518317  0.83906233  0.83734368  1
  Fe  Fe45  1  0.83906998  0.17149876  0.50520453  1
  Ni  Ni46  1  0.67237068  1.00477418  0.67140474  1
  Fe  Fe47  1  0.83861489  0.17040246  0.83807392  1
  Fe  Fe48  1  0.83899017  0.50556681  0.50446652  1
  Fe  Fe49  1  0.67127803  0.33767158  0.67082583  1
  Fe  Fe50  1  0.83853755  0.50629127  0.83825471  1
  Fe  Fe51  1  0.83949697  0.83785746  0.50534762  1
  Ni  Ni52  1  0.67102185  0.67181491  0.67121382  1
  Fe  Fe53  1  0.83838514  0.83823130  0.83802274  1
" 