2531,Ni70Fe20Cr8_2,-238.735484893186, 200.029285055744,Ni70Fe20Cr8,"# generated using pymatgen
 data_Cr5Fe11Ni38
_symmetry_space_group_name_H-M   'P 1'
_cell_length_a   7.42953766
_cell_length_b   7.42953766
_cell_length_c   10.50695293
_cell_angle_alpha   90.00000000
_cell_angle_beta   90.00000000
_cell_angle_gamma   90.00000000
_symmetry_Int_Tables_number   1
_chemical_formula_structural   Cr5Fe11Ni38
_chemical_formula_sum   'Cr5 Fe11 Ni38'
_cell_volume   579.96310187
_cell_formula_units_Z   1
loop_
 _symmetry_equiv_pos_site_id
 _symmetry_equiv_pos_as_xyz
  1  'x, y, z'
loop_
 _atom_site_type_symbol
 _atom_site_label
 _atom_site_symmetry_multiplicity
 _atom_site_fract_x
 _atom_site_fract_y
 _atom_site_fract_z
 _atom_site_occupancy
  Ni  Ni0  1  0.00269817  1.00197548  0.00255167  1
  Ni  Ni1  1  0.16858824  0.17045784  0.16838886  1
  Ni  Ni2  1  1.00105890  1.00227933  0.33577899  1
  Ni  Ni3  1  0.00528195  0.33531093  1.00165709  1
  Ni  Ni4  1  0.17106866  0.50149858  0.16897499  1
  Ni  Ni5  1  0.00296038  0.33496216  0.33638878  1
  Ni  Ni6  1  0.00274855  0.67028568  1.00123189  1
  Ni  Ni7  1  0.16677564  0.83561526  0.16891709  1
  Ni  Ni8  1  0.00286604  0.67033113  0.33732598  1
  Ni  Ni9  1  0.33492712  0.00355573  1.00046931  1
  Fe  Fe10  1  0.50155255  0.17085767  0.16892316  1
  Cr  Cr11  1  0.33416672  0.00271982  0.33781051  1
  Ni  Ni12  1  0.33427426  0.33566043  0.00280872  1
  Ni  Ni13  1  0.50027771  0.50171541  0.17064052  1
  Ni  Ni14  1  0.33628971  0.33774238  0.33574742  1
  Fe  Fe15  1  0.33457155  0.66842713  1.00192053  1
  Cr  Cr16  1  0.50397736  0.83464647  0.16790760  1
  Ni  Ni17  1  0.33557002  0.66673882  0.33597134  1
  Ni  Ni18  1  0.66994969  1.00102441  1.00244526  1
  Fe  Fe19  1  0.83762899  0.16708681  0.16995442  1
  Fe  Fe20  1  0.67176977  0.00301392  0.33727003  1
  Cr  Cr21  1  0.66848995  0.33578272  1.00088397  1
  Cr  Cr22  1  0.83662338  0.50374960  0.16985595  1
  Ni  Ni23  1  0.66832362  0.33594073  0.33730778  1
  Ni  Ni24  1  0.66959766  0.67094123  1.00039745  1
  Ni  Ni25  1  0.83676446  0.83734521  0.16937193  1
  Ni  Ni26  1  0.66913686  0.66863462  0.33770392  1
  Ni  Ni27  1  0.16936063  0.16986723  0.50262076  1
  Ni  Ni28  1  1.00163308  1.00136077  0.66924162  1
  Ni  Ni29  1  0.17028014  0.16871980  0.83656372  1
  Ni  Ni30  1  0.17024888  0.50304691  0.50078723  1
  Cr  Cr31  1  0.00305203  0.33493507  0.66989548  1
  Ni  Ni32  1  0.17011938  0.50291025  0.83781036  1
  Ni  Ni33  1  0.16833033  0.83465905  0.50263082  1
  Fe  Fe34  1  0.00324118  0.67111855  0.66946222  1
  Ni  Ni35  1  0.16847846  0.83594442  0.83602518  1
  Ni  Ni36  1  0.50356888  0.16995080  0.50272871  1
  Fe  Fe37  1  0.33557226  0.00285646  0.66917512  1
  Ni  Ni38  1  0.50195944  0.16920759  0.83547536  1
  Fe  Fe39  1  0.50164600  0.50257872  0.50200069  1
  Ni  Ni40  1  0.33722695  0.33661743  0.66901645  1
  Ni  Ni41  1  0.50211630  0.50241904  0.83531036  1
  Ni  Ni42  1  0.50382146  0.83535556  0.50343456  1
  Ni  Ni43  1  0.33646065  0.66877790  0.66923042  1
  Fe  Fe44  1  0.50286295  0.83602743  0.83577607  1
  Ni  Ni45  1  0.83464407  0.16802969  0.50094121  1
  Ni  Ni46  1  0.66969174  1.00212743  0.66901093  1
  Ni  Ni47  1  0.83533326  0.16756780  0.83656065  1
  Fe  Fe48  1  0.83561718  0.50310460  0.50117409  1
  Fe  Fe49  1  0.66743548  0.33492244  0.66937043  1
  Ni  Ni50  1  0.83533776  0.50421992  0.83578081  1
  Ni  Ni51  1  0.83542210  0.83624210  0.50165400  1
  Fe  Fe52  1  0.66909433  0.66966366  0.66948273  1
  Ni  Ni53  1  0.83582370  0.83578635  0.83655136  1
" 