8988,Ni70Cr30_8,-211.604013486929, 143.633367676111,Ni70Cr30,"# generated using pymatgen
 data_Cr37Ni17
_symmetry_space_group_name_H-M   'P 1'
_cell_length_a   7.55586166
_cell_length_b   7.55586166
_cell_length_c   10.68560203
_cell_angle_alpha   90.00000000
_cell_angle_beta   90.00000000
_cell_angle_gamma   90.00000000
_symmetry_Int_Tables_number   1
_chemical_formula_structural   Cr37Ni17
_chemical_formula_sum   'Cr37 Ni17'
_cell_volume   610.05219065
_cell_formula_units_Z   1
loop_
 _symmetry_equiv_pos_site_id
 _symmetry_equiv_pos_as_xyz
  1  'x, y, z'
loop_
 _atom_site_type_symbol
 _atom_site_label
 _atom_site_symmetry_multiplicity
 _atom_site_fract_x
 _atom_site_fract_y
 _atom_site_fract_z
 _atom_site_occupancy
  Cr  Cr0  1  0.99023236  0.99393845  -0.00553275  1
  Cr  Cr1  1  0.16008315  0.15957248  0.16065351  1
  Cr  Cr2  1  0.99405430  0.99334369  0.32714977  1
  Cr  Cr3  1  0.99408000  0.32738497  -0.00237537  1
  Ni  Ni4  1  0.16036610  0.49713740  0.16083435  1
  Cr  Cr5  1  0.99378714  0.32812074  0.32489467  1
  Cr  Cr6  1  0.99253004  0.66080493  -0.00582196  1
  Cr  Cr7  1  0.16293897  0.82582132  0.16190608  1
  Cr  Cr8  1  -0.00511018  0.66033323  0.32924033  1
  Cr  Cr9  1  0.33137415  0.99358568  -0.00511373  1
  Cr  Cr10  1  0.49473234  0.15886715  0.16213405  1
  Ni  Ni11  1  0.32797165  0.99019122  0.32786145  1
  Cr  Cr12  1  0.32705410  0.32912900  0.99367349  1
  Cr  Cr13  1  0.49308964  0.49706611  0.16137684  1
  Cr  Cr14  1  0.32726219  0.32827121  0.32787365  1
  Ni  Ni15  1  0.32771786  0.66134413  -0.00292906  1
  Ni  Ni16  1  0.49414926  0.82715889  0.16060877  1
  Ni  Ni17  1  0.32574429  0.66221719  0.32693096  1
  Ni  Ni18  1  0.66230464  0.99214224  -0.00415481  1
  Ni  Ni19  1  0.82502455  0.16049312  0.16082933  1
  Cr  Cr20  1  0.66022696  0.99380668  0.32440623  1
  Cr  Cr21  1  0.66109111  0.32578746  -0.00369326  1
  Ni  Ni22  1  0.82832002  0.49395652  0.16196095  1
  Ni  Ni23  1  0.66218212  0.32732577  0.32515093  1
  Cr  Cr24  1  0.66025920  0.66381093  -0.00522212  1
  Ni  Ni25  1  0.82541987  0.82787180  0.15904765  1
  Cr  Cr26  1  0.65963213  0.66113498  0.32523730  1
  Cr  Cr27  1  0.16279767  0.15791182  0.49460201  1
  Cr  Cr28  1  -0.00552557  0.99217684  0.66068450  1
  Cr  Cr29  1  0.16224646  0.15996180  0.82670538  1
  Ni  Ni30  1  0.16334195  0.49593372  0.49386540  1
  Cr  Cr31  1  -0.00308969  0.32823670  0.66012623  1
  Cr  Cr32  1  0.16206610  0.49496935  0.82930831  1
  Ni  Ni33  1  0.16432927  0.82616230  0.49333203  1
  Cr  Cr34  1  -0.00540334  0.66164202  0.65952498  1
  Cr  Cr35  1  0.16067260  0.82750504  0.82810468  1
  Cr  Cr36  1  0.49529987  0.16065754  0.49536448  1
  Ni  Ni37  1  0.32924685  -0.00512693  0.65932668  1
  Cr  Cr38  1  0.49471219  0.16067518  0.82447849  1
  Cr  Cr39  1  0.49527896  0.49273279  0.49408508  1
  Ni  Ni40  1  0.32884315  0.32632764  0.65989478  1
  Cr  Cr41  1  0.49376073  0.49348951  0.82650298  1
  Cr  Cr42  1  0.49207671  0.82909578  0.49238330  1
  Cr  Cr43  1  0.32705462  0.66048962  0.65930004  1
  Cr  Cr44  1  0.49419021  0.82862582  0.82915147  1
  Cr  Cr45  1  0.82455246  0.16200354  0.49402736  1
  Ni  Ni46  1  0.65914212  -0.00481488  0.66262518  1
  Cr  Cr47  1  0.82564996  0.15990017  0.82677907  1
  Cr  Cr48  1  0.82616666  0.49200846  0.49410936  1
  Ni  Ni49  1  0.65842848  0.32512793  0.66035232  1
  Cr  Cr50  1  0.82631570  0.49456793  0.82591550  1
  Cr  Cr51  1  0.82810174  0.82857860  0.49582608  1
  Cr  Cr52  1  0.66079703  0.66304950  0.66192663  1
  Ni  Ni53  1  0.82506240  0.83012813  0.82740365  1
" 