3002,Ni70Fe28Cr1_2,-242.280295838049, 214.516114702656,Ni70Fe28Cr1,"# generated using pymatgen
 data_CrFe15Ni38
_symmetry_space_group_name_H-M   'P 1'
_cell_length_a   7.41518621
_cell_length_b   7.41518621
_cell_length_c   10.48665690
_cell_angle_alpha   90.00000000
_cell_angle_beta   90.00000000
_cell_angle_gamma   90.00000000
_symmetry_Int_Tables_number   1
_chemical_formula_structural   CrFe15Ni38
_chemical_formula_sum   'Cr1 Fe15 Ni38'
_cell_volume   576.60868759
_cell_formula_units_Z   1
loop_
 _symmetry_equiv_pos_site_id
 _symmetry_equiv_pos_as_xyz
  1  'x, y, z'
loop_
 _atom_site_type_symbol
 _atom_site_label
 _atom_site_symmetry_multiplicity
 _atom_site_fract_x
 _atom_site_fract_y
 _atom_site_fract_z
 _atom_site_occupancy
  Ni  Ni0  1  1.00318802  0.00411399  1.00346200  1
  Fe  Fe1  1  0.16821320  0.16977884  0.17056352  1
  Ni  Ni2  1  1.00341353  1.00301321  0.33731834  1
  Ni  Ni3  1  0.00399208  0.33663494  0.00389310  1
  Fe  Fe4  1  0.16987238  0.50324214  0.16997105  1
  Ni  Ni5  1  1.00340818  0.33768445  0.33728603  1
  Fe  Fe6  1  0.00431169  0.67129656  0.00373463  1
  Ni  Ni7  1  0.16895076  0.83595370  0.16967459  1
  Ni  Ni8  1  1.00342837  0.66979252  0.33700260  1
  Ni  Ni9  1  0.33628428  1.00188612  1.00236594  1
  Cr  Cr10  1  0.50453331  0.17125830  0.17016038  1
  Ni  Ni11  1  0.33645642  1.00236462  0.33780329  1
  Ni  Ni12  1  0.33521234  0.33859354  1.00187507  1
  Ni  Ni13  1  0.50265771  0.50384475  0.16952229  1
  Ni  Ni14  1  0.33620170  0.33807257  0.33869139  1
  Ni  Ni15  1  0.33818189  0.67001016  0.00382237  1
  Fe  Fe16  1  0.50402620  0.83566049  0.16952470  1
  Fe  Fe17  1  0.33634378  0.67003707  0.33672434  1
  Ni  Ni18  1  0.67101819  1.00114231  1.00213216  1
  Ni  Ni19  1  0.83778607  0.16959344  0.17014851  1
  Ni  Ni20  1  0.67062115  1.00238474  0.33839400  1
  Fe  Fe21  1  0.67033259  0.33673821  1.00280133  1
  Fe  Fe22  1  0.83681537  0.50361316  0.17084725  1
  Ni  Ni23  1  0.67087972  0.33805839  0.33765611  1
  Ni  Ni24  1  0.66905919  0.67081563  0.00353802  1
  Ni  Ni25  1  0.83855063  0.83766205  0.16974839  1
  Fe  Fe26  1  0.67058620  0.67003672  0.33666086  1
  Ni  Ni27  1  0.17028917  0.17048668  0.50312819  1
  Ni  Ni28  1  0.00367298  1.00345882  0.66971038  1
  Fe  Fe29  1  0.16995965  0.16913923  0.83674172  1
  Ni  Ni30  1  0.17033326  0.50352884  0.50253433  1
  Ni  Ni31  1  1.00291254  0.33740703  0.66931005  1
  Ni  Ni32  1  0.17051519  0.50424476  0.83759821  1
  Ni  Ni33  1  0.16974351  0.83647478  0.50367068  1
  Fe  Fe34  1  1.00332225  0.67078550  0.66947466  1
  Ni  Ni35  1  0.16992584  0.83541935  0.83714585  1
  Ni  Ni36  1  0.50396419  0.17079785  0.50330026  1
  Ni  Ni37  1  0.33710014  1.00235598  0.67032186  1
  Ni  Ni38  1  0.50465983  0.17031971  0.83719178  1
  Ni  Ni39  1  0.50304415  0.50234247  0.50364024  1
  Fe  Fe40  1  0.33689139  0.33558303  0.66978105  1
  Fe  Fe41  1  0.50351413  0.50406617  0.83755818  1
  Ni  Ni42  1  0.50332215  0.83734861  0.50233707  1
  Fe  Fe43  1  0.33654447  0.67076788  0.67053047  1
  Ni  Ni44  1  0.50325770  0.83782426  0.83845012  1
  Ni  Ni45  1  0.83623749  0.17020924  0.50284467  1
  Ni  Ni46  1  0.66971747  1.00316970  0.66996501  1
  Ni  Ni47  1  0.83541130  0.16972979  0.83749912  1
  Ni  Ni48  1  0.83711332  0.50288898  0.50306094  1
  Ni  Ni49  1  0.67081912  0.33735591  0.67042984  1
  Fe  Fe50  1  0.83688175  0.50351672  0.83630489  1
  Ni  Ni51  1  0.83742514  0.83739484  0.50343859  1
  Fe  Fe52  1  0.67062503  0.67101664  0.67024324  1
  Ni  Ni53  1  0.83730842  0.83792109  0.83730289  1
" 