8739,Ni70Fe20Cr8_18,-238.895222454406, 200.151658050161,Ni70Fe20Cr8,"# generated using pymatgen
 data_Cr5Fe11Ni38
_symmetry_space_group_name_H-M   'P 1'
_cell_length_a   7.43318374
_cell_length_b   7.43318374
_cell_length_c   10.51210925
_cell_angle_alpha   90.00000000
_cell_angle_beta   90.00000000
_cell_angle_gamma   90.00000000
_symmetry_Int_Tables_number   1
_chemical_formula_structural   Cr5Fe11Ni38
_chemical_formula_sum   'Cr5 Fe11 Ni38'
_cell_volume   580.81737766
_cell_formula_units_Z   1
loop_
 _symmetry_equiv_pos_site_id
 _symmetry_equiv_pos_as_xyz
  1  'x, y, z'
loop_
 _atom_site_type_symbol
 _atom_site_label
 _atom_site_symmetry_multiplicity
 _atom_site_fract_x
 _atom_site_fract_y
 _atom_site_fract_z
 _atom_site_occupancy
  Ni  Ni0  1  0.00295646  1.00066715  0.00409036  1
  Ni  Ni1  1  0.16954817  0.17073232  0.16788746  1
  Fe  Fe2  1  1.00104210  0.00430047  0.33325215  1
  Ni  Ni3  1  0.00387358  0.33823446  0.00282798  1
  Ni  Ni4  1  0.16896938  0.50283882  0.16995425  1
  Ni  Ni5  1  0.00329043  0.33650818  0.33458142  1
  Ni  Ni6  1  1.00126246  0.66848369  0.00354593  1
  Fe  Fe7  1  0.16840938  0.83653752  0.16826352  1
  Fe  Fe8  1  0.99951001  0.66724530  0.33385163  1
  Ni  Ni9  1  0.33582834  0.00303513  1.00200790  1
  Ni  Ni10  1  0.50242097  0.16741177  0.16988953  1
  Ni  Ni11  1  0.33495415  0.00317369  0.33353726  1
  Ni  Ni12  1  0.33532802  0.33509289  0.00319482  1
  Fe  Fe13  1  0.50358564  0.50170929  0.16944043  1
  Fe  Fe14  1  0.33731923  0.33539597  0.33505138  1
  Fe  Fe15  1  0.33512503  0.66748379  0.00295221  1
  Ni  Ni16  1  0.50141320  0.83530190  0.16759845  1
  Ni  Ni17  1  0.33620002  0.66848991  0.33245876  1
  Ni  Ni18  1  0.66791571  1.00058296  0.00346919  1
  Ni  Ni19  1  0.83515740  0.16961094  0.16748680  1
  Ni  Ni20  1  0.66709411  1.00182041  0.33409371  1
  Ni  Ni21  1  0.66771063  0.33737143  0.00468370  1
  Ni  Ni22  1  0.83710666  0.50212754  0.16760526  1
  Ni  Ni23  1  0.67117353  0.33701233  0.33392389  1
  Ni  Ni24  1  0.67073660  0.66872720  0.00264330  1
  Ni  Ni25  1  0.83347739  0.83492725  0.17012893  1
  Ni  Ni26  1  0.66893890  0.66778208  0.33515253  1
  Ni  Ni27  1  0.16919690  0.16975707  0.50224143  1
  Ni  Ni28  1  0.00276989  1.00094962  0.66947782  1
  Fe  Fe29  1  0.16727153  0.17075247  0.83733149  1
  Fe  Fe30  1  0.17028720  0.50025333  0.50152048  1
  Ni  Ni31  1  0.00393683  0.33778479  0.66977202  1
  Ni  Ni32  1  0.16920418  0.50394371  0.83433192  1
  Cr  Cr33  1  0.16792082  0.83314340  0.49966648  1
  Ni  Ni34  1  1.00167880  0.66771550  0.66742872  1
  Ni  Ni35  1  0.16817260  0.83224084  0.83823427  1
  Ni  Ni36  1  0.50191310  0.17105675  0.50072196  1
  Cr  Cr37  1  0.33506478  0.00415095  0.67232485  1
  Ni  Ni38  1  0.50190382  0.17045924  0.83591758  1
  Ni  Ni39  1  0.50292729  0.50191537  0.50173035  1
  Ni  Ni40  1  0.33554278  0.33691214  0.66694345  1
  Fe  Fe41  1  0.50339830  0.50122111  0.83549732  1
  Cr  Cr42  1  0.50208267  0.83462435  0.50353400  1
  Ni  Ni43  1  0.33543354  0.66620308  0.67135456  1
  Fe  Fe44  1  0.50444505  0.83362603  0.83742605  1
  Cr  Cr45  1  0.83442765  0.17035602  0.50335332  1
  Ni  Ni46  1  0.66920986  1.00141850  0.66965045  1
  Cr  Cr47  1  0.83312815  0.17091481  0.83790119  1
  Ni  Ni48  1  0.83582309  0.50293001  0.50266460  1
  Ni  Ni49  1  0.66760830  0.33793252  0.66872743  1
  Ni  Ni50  1  0.83718215  0.50399813  0.83621351  1
  Fe  Fe51  1  0.83408977  0.83506772  0.50222218  1
  Ni  Ni52  1  0.67058925  0.66707032  0.66932399  1
  Ni  Ni53  1  0.83744996  0.83400363  0.83392164  1
" 