3379,Ni70Fe30_13,-236.673793338912, 201.600875538051,Ni70Fe30,"# generated using pymatgen
 data_Fe37Ni17
_symmetry_space_group_name_H-M   'P 1'
_cell_length_a   7.39779721
_cell_length_b   7.39779721
_cell_length_c   10.46206514
_cell_angle_alpha   90.00000000
_cell_angle_beta   90.00000000
_cell_angle_gamma   90.00000000
_symmetry_Int_Tables_number   1
_chemical_formula_structural   Fe37Ni17
_chemical_formula_sum   'Fe37 Ni17'
_cell_volume   572.56166090
_cell_formula_units_Z   1
loop_
 _symmetry_equiv_pos_site_id
 _symmetry_equiv_pos_as_xyz
  1  'x, y, z'
loop_
 _atom_site_type_symbol
 _atom_site_label
 _atom_site_symmetry_multiplicity
 _atom_site_fract_x
 _atom_site_fract_y
 _atom_site_fract_z
 _atom_site_occupancy
  Fe  Fe0  1  0.00533553  0.00586326  1.00402406  1
  Fe  Fe1  1  0.17188314  0.17117908  0.17097674  1
  Fe  Fe2  1  1.00454192  1.00466008  0.33913872  1
  Ni  Ni3  1  1.00332342  0.33839824  1.00390549  1
  Fe  Fe4  1  0.17118090  0.50476363  0.17046888  1
  Fe  Fe5  1  1.00435320  0.33781408  0.33764330  1
  Fe  Fe6  1  0.00572230  0.66994320  0.00498815  1
  Fe  Fe7  1  0.17179838  0.83810026  0.17210614  1
  Ni  Ni8  1  1.00421624  0.67201660  0.33867740  1
  Ni  Ni9  1  0.33801466  1.00399799  1.00303211  1
  Fe  Fe10  1  0.50437498  0.17140988  0.17085899  1
  Ni  Ni11  1  0.33781229  1.00421408  0.33927361  1
  Ni  Ni12  1  0.33877673  0.33801426  0.00487992  1
  Fe  Fe13  1  0.50484990  0.50430584  0.17063202  1
  Fe  Fe14  1  0.33803756  0.33815568  0.33817749  1
  Ni  Ni15  1  0.33801712  0.67203201  1.00439620  1
  Fe  Fe16  1  0.50400150  0.83832655  0.17120363  1
  Fe  Fe17  1  0.33784723  0.67158798  0.33780917  1
  Fe  Fe18  1  0.67038757  0.00600798  1.00431518  1
  Fe  Fe19  1  0.83778318  0.17202740  0.17128545  1
  Fe  Fe20  1  0.67162834  0.00484983  0.33823611  1
  Ni  Ni21  1  0.67194068  0.33840099  1.00331121  1
  Fe  Fe22  1  0.83800960  0.50439109  0.17116695  1
  Ni  Ni23  1  0.67162289  0.33820117  0.33878209  1
  Fe  Fe24  1  0.67030653  0.67010045  1.00431176  1
  Fe  Fe25  1  0.83824077  0.83762591  0.17173294  1
  Fe  Fe26  1  0.67128394  0.67140375  0.33801443  1
  Fe  Fe27  1  0.17119907  0.17050633  0.50482520  1
  Ni  Ni28  1  1.00428678  1.00381951  0.67096871  1
  Fe  Fe29  1  0.17157030  0.17304845  0.83823758  1
  Fe  Fe30  1  0.17083397  0.50470093  0.50510808  1
  Fe  Fe31  1  1.00467764  0.33747440  0.67222812  1
  Ni  Ni32  1  0.17183468  0.50575038  0.83849786  1
  Ni  Ni33  1  0.17183445  0.83751376  0.50365976  1
  Fe  Fe34  1  0.00550093  0.67122106  0.67081369  1
  Fe  Fe35  1  0.17148553  0.83779308  0.83764245  1
  Fe  Fe36  1  0.50431479  0.17106293  0.50471858  1
  Fe  Fe37  1  0.33756164  0.00496313  0.67102082  1
  Ni  Ni38  1  0.50552692  0.17160468  0.83849287  1
  Fe  Fe39  1  0.50476486  0.50423214  0.50510920  1
  Ni  Ni40  1  0.33889252  0.33812719  0.67162953  1
  Ni  Ni41  1  0.50388866  0.50411765  0.83898418  1
  Fe  Fe42  1  0.50451763  0.83874710  0.50429429  1
  Fe  Fe43  1  0.33727878  0.67118813  0.67191868  1
  Fe  Fe44  1  0.50490828  0.83741870  0.83854205  1
  Ni  Ni45  1  0.83751958  0.17136957  0.50371681  1
  Fe  Fe46  1  0.67167453  0.00578763  0.67149065  1
  Ni  Ni47  1  0.83707415  0.17159013  0.83897938  1
  Fe  Fe48  1  0.83844317  0.50490251  0.50433259  1
  Fe  Fe49  1  0.67163890  0.33719589  0.67177850  1
  Ni  Ni50  1  0.83832003  0.50373911  0.83838064  1
  Fe  Fe51  1  0.83899706  0.83838073  0.50468132  1
  Fe  Fe52  1  0.67126291  0.67105644  0.67171819  1
  Fe  Fe53  1  0.83764736  0.83764280  0.83762775  1
" 