2678,Ni70Cr30_12,-211.648656455737, 144.590458985273,Ni70Cr30,"# generated using pymatgen
 data_Cr37Ni17
_symmetry_space_group_name_H-M   'P 1'
_cell_length_a   7.55604375
_cell_length_b   7.55604375
_cell_length_c   10.68585955
_cell_angle_alpha   90.00000000
_cell_angle_beta   90.00000000
_cell_angle_gamma   90.00000000
_symmetry_Int_Tables_number   1
_chemical_formula_structural   Cr37Ni17
_chemical_formula_sum   'Cr37 Ni17'
_cell_volume   610.09629709
_cell_formula_units_Z   1
loop_
 _symmetry_equiv_pos_site_id
 _symmetry_equiv_pos_as_xyz
  1  'x, y, z'
loop_
 _atom_site_type_symbol
 _atom_site_label
 _atom_site_symmetry_multiplicity
 _atom_site_fract_x
 _atom_site_fract_y
 _atom_site_fract_z
 _atom_site_occupancy
  Ni  Ni0  1  0.99134556  0.99407717  -0.00551415  1
  Cr  Cr1  1  0.15654643  0.16035409  0.16120279  1
  Ni  Ni2  1  0.99134161  -0.00142852  0.32698686  1
  Cr  Cr3  1  0.99092391  0.32719075  -0.00509450  1
  Cr  Cr4  1  0.15846425  0.49253494  0.16280331  1
  Ni  Ni5  1  0.99085805  0.32562041  0.32779500  1
  Cr  Cr6  1  0.99237838  0.66070246  0.99067919  1
  Cr  Cr7  1  0.15850248  0.82926447  0.16036135  1
  Cr  Cr8  1  0.99270525  0.65946060  0.32901065  1
  Cr  Cr9  1  0.32759166  0.99291779  0.99362532  1
  Cr  Cr10  1  0.49527863  0.15923027  0.15871299  1
  Cr  Cr11  1  0.32836158  0.99362456  0.32697554  1
  Cr  Cr12  1  0.32812875  0.32726484  -0.00505657  1
  Cr  Cr13  1  0.49679269  0.49734314  0.16053796  1
  Cr  Cr14  1  0.32673592  0.32749983  0.32724476  1
  Cr  Cr15  1  0.32750329  0.66219437  0.99366488  1
  Ni  Ni16  1  0.49765537  0.82633968  0.15972665  1
  Cr  Cr17  1  0.32837718  0.66159833  0.32814440  1
  Ni  Ni18  1  0.66303185  0.99251786  -0.00399615  1
  Ni  Ni19  1  0.82939804  0.16027532  0.16108449  1
  Cr  Cr20  1  0.66240088  -0.00467930  0.32709901  1
  Cr  Cr21  1  0.66335149  0.32711360  -0.00535675  1
  Ni  Ni22  1  0.82644922  0.49355317  0.16137277  1
  Cr  Cr23  1  0.66414055  0.32608199  0.32680844  1
  Ni  Ni24  1  0.66260203  0.66153948  -0.00427922  1
  Cr  Cr25  1  0.82653305  0.82742469  0.16051511  1
  Ni  Ni26  1  0.66151099  0.66064477  0.32452153  1
  Cr  Cr27  1  0.15772266  0.16212361  0.49295473  1
  Cr  Cr28  1  0.99340068  0.99396917  0.66066589  1
  Cr  Cr29  1  0.15952644  0.15923470  0.82814120  1
  Ni  Ni30  1  0.15804146  0.49134337  0.49406133  1
  Ni  Ni31  1  0.99069319  0.32763164  0.65935690  1
  Cr  Cr32  1  0.15903748  0.49249588  0.82659371  1
  Cr  Cr33  1  0.15939734  0.82853700  0.49414043  1
  Cr  Cr34  1  -0.00517543  0.65912787  0.66299809  1
  Ni  Ni35  1  0.16069028  0.82998873  0.82744368  1
  Cr  Cr36  1  0.49605490  0.16076338  0.49868272  1
  Ni  Ni37  1  0.32807673  0.99328192  0.66199871  1
  Cr  Cr38  1  0.49566347  0.16017187  0.82506880  1
  Cr  Cr39  1  0.49516078  0.49407151  0.49378077  1
  Cr  Cr40  1  0.32692696  0.32743304  0.66046575  1
  Cr  Cr41  1  0.49791794  0.49364677  0.82785902  1
  Cr  Cr42  1  0.49661615  0.82761423  0.49438644  1
  Cr  Cr43  1  0.32477663  0.66282031  0.66047136  1
  Cr  Cr44  1  0.49637916  0.82883616  0.82735687  1
  Ni  Ni45  1  0.82891795  0.16223825  0.49497163  1
  Ni  Ni46  1  0.66058686  -0.00259716  0.65975664  1
  Cr  Cr47  1  0.82694928  0.16030377  0.82631796  1
  Cr  Cr48  1  0.82794254  0.49244563  0.49440211  1
  Ni  Ni49  1  0.66560879  0.32528957  0.66092320  1
  Ni  Ni50  1  0.82631230  0.49293817  0.82660068  1
  Cr  Cr51  1  0.82630074  0.82992543  0.49281201  1
  Cr  Cr52  1  0.66294128  0.66019292  0.66116692  1
  Cr  Cr53  1  0.82661457  0.82790170  0.82903705  1
" 