2029,Ni70Fe9Cr20_5,-231.761583670126, 168.610248417313,Ni70Fe9Cr20,"# generated using pymatgen
 data_Cr6Fe2Ni19
_symmetry_space_group_name_H-M   'P 1'
_cell_length_a   7.46465156
_cell_length_b   7.46465156
_cell_length_c   10.55661147
_cell_angle_alpha   90.00000000
_cell_angle_beta   90.00000000
_cell_angle_gamma   90.00000000
_symmetry_Int_Tables_number   1
_chemical_formula_structural   Cr6Fe2Ni19
_chemical_formula_sum   'Cr12 Fe4 Ni38'
_cell_volume   588.22518925
_cell_formula_units_Z   2
loop_
 _symmetry_equiv_pos_site_id
 _symmetry_equiv_pos_as_xyz
  1  'x, y, z'
loop_
 _atom_site_type_symbol
 _atom_site_label
 _atom_site_symmetry_multiplicity
 _atom_site_fract_x
 _atom_site_fract_y
 _atom_site_fract_z
 _atom_site_occupancy
  Cr  Cr0  1  0.00103736  0.00083625  0.00129074  1
  Ni  Ni1  1  0.16553074  0.16601901  0.16777193  1
  Cr  Cr2  1  0.00224711  0.00094196  0.33150608  1
  Ni  Ni3  1  0.99893692  0.33464942  0.00051028  1
  Cr  Cr4  1  0.16627528  0.50173976  0.16756603  1
  Ni  Ni5  1  0.99938634  0.33393531  0.33194249  1
  Ni  Ni6  1  0.99795150  0.66526467  0.99858552  1
  Ni  Ni7  1  0.16809649  0.83317436  0.16726144  1
  Ni  Ni8  1  0.99850295  0.66542071  0.33296807  1
  Ni  Ni9  1  0.33370263  0.99764961  0.00016751  1
  Cr  Cr10  1  0.50144236  0.16573771  0.16786170  1
  Ni  Ni11  1  0.33418688  1.00001014  0.33448174  1
  Cr  Cr12  1  0.33125659  0.33410174  0.99926430  1
  Ni  Ni13  1  0.50267570  0.50263698  0.16785713  1
  Ni  Ni14  1  0.33420142  0.33250274  0.33497994  1
  Ni  Ni15  1  0.33572075  0.66858497  0.99892472  1
  Ni  Ni16  1  0.50057426  0.83238161  0.16641352  1
  Ni  Ni17  1  0.33619884  0.66796854  0.33347473  1
  Ni  Ni18  1  0.66641012  0.99665548  0.00109045  1
  Ni  Ni19  1  0.83315593  0.16811731  0.16649048  1
  Ni  Ni20  1  0.66434591  0.99912924  0.33260746  1
  Fe  Fe21  1  0.66927954  0.33674784  0.00148778  1
  Ni  Ni22  1  0.83236406  0.50006962  0.16736575  1
  Ni  Ni23  1  0.66689279  0.33594870  0.33383122  1
  Ni  Ni24  1  0.66681161  0.66715429  0.00042754  1
  Ni  Ni25  1  0.83181137  0.83229649  0.16670296  1
  Ni  Ni26  1  0.66577839  0.66540533  0.33232656  1
  Ni  Ni27  1  0.17055231  0.16560179  0.50036974  1
  Ni  Ni28  1  0.00252330  0.99862159  0.66798431  1
  Ni  Ni29  1  0.16786952  0.16612263  0.83234122  1
  Cr  Cr30  1  0.16806226  0.50218041  0.49902970  1
  Cr  Cr31  1  0.00206575  0.33354740  0.66788470  1
  Ni  Ni32  1  0.16700549  0.50286711  0.83345002  1
  Ni  Ni33  1  0.16899773  0.83354372  0.50132222  1
  Ni  Ni34  1  0.00096540  0.66850013  0.66892718  1
  Ni  Ni35  1  0.16652660  0.83149032  0.83189890  1
  Ni  Ni36  1  0.49912158  0.16727955  0.50048221  1
  Ni  Ni37  1  0.33246983  0.00061415  0.66583224  1
  Cr  Cr38  1  0.50009708  0.16627687  0.83221044  1
  Ni  Ni39  1  0.49989920  0.49856395  0.49924102  1
  Ni  Ni40  1  0.33437148  0.33271033  0.66666447  1
  Ni  Ni41  1  0.49941382  0.50117640  0.83338424  1
  Ni  Ni42  1  0.49790638  0.83463751  0.49950384  1
  Ni  Ni43  1  0.33337358  0.66715757  0.66808052  1
  Fe  Fe44  1  0.49899819  0.83235413  0.83454420  1
  Cr  Cr45  1  0.83092796  0.16705120  0.50058669  1
  Ni  Ni46  1  0.66548642  0.99961571  0.66678365  1
  Cr  Cr47  1  0.83238781  0.16562576  0.83367976  1
  Fe  Fe48  1  0.83206765  0.50041218  0.49794008  1
  Fe  Fe49  1  0.66367943  0.33420798  0.66568135  1
  Ni  Ni50  1  0.83406106  0.50251945  0.83480352  1
  Cr  Cr51  1  0.83435872  0.83279394  0.50037176  1
  Cr  Cr52  1  0.66604145  0.66639939  0.66729901  1
  Ni  Ni53  1  0.83466281  0.83171566  0.83321158  1
" 