5045,Ni70Fe5Cr23_15,-229.371893238224, 149.410746273294,Ni70Fe5Cr23,"# generated using pymatgen
 data_Cr7FeNi19
_symmetry_space_group_name_H-M   'P 1'
_cell_length_a   7.47953645
_cell_length_b   7.47953645
_cell_length_c   10.57766188
_cell_angle_alpha   90.00000000
_cell_angle_beta   90.00000000
_cell_angle_gamma   90.00000000
_symmetry_Int_Tables_number   1
_chemical_formula_structural   Cr7FeNi19
_chemical_formula_sum   'Cr14 Fe2 Ni38'
_cell_volume   591.75106237
_cell_formula_units_Z   2
loop_
 _symmetry_equiv_pos_site_id
 _symmetry_equiv_pos_as_xyz
  1  'x, y, z'
loop_
 _atom_site_type_symbol
 _atom_site_label
 _atom_site_symmetry_multiplicity
 _atom_site_fract_x
 _atom_site_fract_y
 _atom_site_fract_z
 _atom_site_occupancy
  Ni  Ni0  1  -0.00048799  0.99818138  0.99895791  1
  Ni  Ni1  1  0.16575814  0.16571184  0.16565115  1
  Ni  Ni2  1  0.00256509  0.99792753  0.33203819  1
  Fe  Fe3  1  -0.00059909  0.33141677  0.00057071  1
  Ni  Ni4  1  0.16521769  0.49838409  0.16608375  1
  Ni  Ni5  1  0.00163660  0.33277903  0.32942416  1
  Ni  Ni6  1  0.99708597  0.66826966  0.00226676  1
  Ni  Ni7  1  0.16526499  0.83354890  0.16784296  1
  Ni  Ni8  1  0.00002703  0.66704189  0.32923403  1
  Ni  Ni9  1  0.33028439  0.00180617  0.00045987  1
  Cr  Cr10  1  0.49676340  0.16286580  0.16754832  1
  Ni  Ni11  1  0.33110785  0.99853439  0.33312530  1
  Ni  Ni12  1  0.33059312  0.32973568  0.00001872  1
  Ni  Ni13  1  0.49841567  0.50032379  0.16835211  1
  Ni  Ni14  1  0.33221456  0.33258995  0.33258105  1
  Cr  Cr15  1  0.33207723  0.66553924  0.00392740  1
  Ni  Ni16  1  0.49999632  0.83209353  0.16616560  1
  Ni  Ni17  1  0.33303349  0.66646562  0.33183936  1
  Ni  Ni18  1  0.66811399  0.99817723  0.99801888  1
  Cr  Cr19  1  0.83389528  0.16316066  0.16991955  1
  Ni  Ni20  1  0.66415851  0.99673902  0.33268625  1
  Cr  Cr21  1  0.66536877  0.33363524  -0.00038076  1
  Ni  Ni22  1  0.83394403  0.50166944  0.16819130  1
  Ni  Ni23  1  0.66360111  0.33485469  0.33336408  1
  Ni  Ni24  1  0.66977349  0.66765985  0.00265174  1
  Ni  Ni25  1  0.83253726  0.83161110  0.16556309  1
  Ni  Ni26  1  0.66452492  0.66578192  0.32969420  1
  Ni  Ni27  1  0.16639313  0.16625873  0.49747304  1
  Ni  Ni28  1  0.99861587  0.00043027  0.66615897  1
  Ni  Ni29  1  0.16510441  0.16604285  0.83420944  1
  Cr  Cr30  1  0.16566910  0.49856263  0.50038754  1
  Ni  Ni31  1  -0.00012650  0.32904974  0.66777991  1
  Cr  Cr32  1  0.16601874  0.49767152  0.83145254  1
  Fe  Fe33  1  0.16679151  0.83307672  0.49719297  1
  Ni  Ni34  1  0.99888477  0.66838368  0.66549483  1
  Cr  Cr35  1  0.16415265  0.83219906  0.83127314  1
  Ni  Ni36  1  0.49790835  0.16548598  0.49784688  1
  Cr  Cr37  1  0.33180643  0.00004085  0.66363260  1
  Ni  Ni38  1  0.49874372  0.16526099  0.83260865  1
  Ni  Ni39  1  0.49793908  0.49980933  0.49930820  1
  Ni  Ni40  1  0.33322966  0.33049781  0.66512347  1
  Cr  Cr41  1  0.49742880  0.49941829  0.82983950  1
  Ni  Ni42  1  0.49946734  0.83202705  0.49763419  1
  Ni  Ni43  1  0.33344085  0.66548606  0.66186124  1
  Cr  Cr44  1  0.50186991  0.83383611  0.83484182  1
  Cr  Cr45  1  0.83325197  0.16544834  0.49634791  1
  Ni  Ni46  1  0.66671724  0.00021387  0.66718186  1
  Ni  Ni47  1  0.83335489  0.16301227  0.83098846  1
  Cr  Cr48  1  0.83241326  0.49905710  0.49871224  1
  Ni  Ni49  1  0.66432931  0.33046365  0.66488743  1
  Cr  Cr50  1  0.83413745  0.50188873  0.83024716  1
  Cr  Cr51  1  0.83223486  0.83316628  0.49888497  1
  Ni  Ni52  1  0.66536869  0.66694901  0.66514217  1
  Ni  Ni53  1  0.83289982  0.83467582  0.83261037  1
" 