5639,Ni70Cr30_9,-211.704087262501, 142.006571387782,Ni70Cr30,"# generated using pymatgen
 data_Cr37Ni17
_symmetry_space_group_name_H-M   'P 1'
_cell_length_a   7.56056515
_cell_length_b   7.56056515
_cell_length_c   10.69225377
_cell_angle_alpha   90.00000000
_cell_angle_beta   90.00000000
_cell_angle_gamma   90.00000000
_symmetry_Int_Tables_number   1
_chemical_formula_structural   Cr37Ni17
_chemical_formula_sum   'Cr37 Ni17'
_cell_volume   611.19216443
_cell_formula_units_Z   1
loop_
 _symmetry_equiv_pos_site_id
 _symmetry_equiv_pos_as_xyz
  1  'x, y, z'
loop_
 _atom_site_type_symbol
 _atom_site_label
 _atom_site_symmetry_multiplicity
 _atom_site_fract_x
 _atom_site_fract_y
 _atom_site_fract_z
 _atom_site_occupancy
  Ni  Ni0  1  0.99291706  -0.00572418  0.99169190  1
  Cr  Cr1  1  0.16246512  0.15918876  0.16334803  1
  Cr  Cr2  1  0.99133854  0.99247520  0.32702779  1
  Cr  Cr3  1  0.99361867  0.32237561  0.99155773  1
  Cr  Cr4  1  0.16221510  0.49411306  0.16423749  1
  Cr  Cr5  1  0.99080488  0.32863891  0.32756080  1
  Cr  Cr6  1  0.99321889  0.66084225  -0.00245442  1
  Cr  Cr7  1  0.15964396  0.82830899  0.16346385  1
  Ni  Ni8  1  0.99066260  0.66148050  0.33039053  1
  Cr  Cr9  1  0.32581227  -0.00590428  0.99305907  1
  Cr  Cr10  1  0.49423500  0.16124565  0.16818253  1
  Ni  Ni11  1  0.33148517  -0.00411336  0.33032716  1
  Cr  Cr12  1  0.32556960  0.32491832  0.99252702  1
  Cr  Cr13  1  0.49488214  0.49206314  0.15874602  1
  Ni  Ni14  1  0.33168357  0.32572900  0.33107009  1
  Cr  Cr15  1  0.33021240  0.66362570  0.99168664  1
  Cr  Cr16  1  0.49542645  0.82964821  0.15954261  1
  Cr  Cr17  1  0.32901529  0.66315328  0.32947797  1
  Cr  Cr18  1  0.66097401  0.99333918  0.99258666  1
  Cr  Cr19  1  0.82366795  0.15853162  0.16145683  1
  Ni  Ni20  1  0.65759563  -0.00519154  0.33126857  1
  Cr  Cr21  1  0.66250789  0.32638868  0.99350446  1
  Cr  Cr22  1  0.82483315  0.49457162  0.16151472  1
  Ni  Ni23  1  0.65714662  0.32657669  0.33116792  1
  Ni  Ni24  1  0.66045017  0.66304527  0.99233025  1
  Cr  Cr25  1  0.82657701  0.82786775  0.16067965  1
  Cr  Cr26  1  0.66103921  0.66233911  0.32937494  1
  Cr  Cr27  1  0.16285352  0.15947600  0.49393491  1
  Ni  Ni28  1  0.99031904  0.99359052  0.66153781  1
  Ni  Ni29  1  0.15731139  0.15545138  0.82587844  1
  Cr  Cr30  1  0.16119990  0.49368909  0.49260412  1
  Cr  Cr31  1  0.99207220  0.32410481  0.66257177  1
  Cr  Cr32  1  0.16094395  0.49347707  0.82517744  1
  Cr  Cr33  1  0.15827866  0.82896137  0.49302115  1
  Cr  Cr34  1  0.99032677  0.66013952  0.65341096  1
  Cr  Cr35  1  0.15887732  0.82752447  0.82487075  1
  Ni  Ni36  1  0.49650421  0.15884619  0.49135014  1
  Cr  Cr37  1  0.33007950  0.99331625  0.66008246  1
  Cr  Cr38  1  0.49683320  0.15956165  0.82475368  1
  Ni  Ni39  1  0.49649596  0.49270848  0.49182238  1
  Cr  Cr40  1  0.32838797  0.32606757  0.65988608  1
  Cr  Cr41  1  0.49528992  0.49612600  0.82895901  1
  Ni  Ni42  1  0.49717112  0.83061328  0.49363335  1
  Cr  Cr43  1  0.33143990  0.66264908  0.65917943  1
  Ni  Ni44  1  0.49701011  0.82960461  0.82664744  1
  Cr  Cr45  1  0.82444632  0.15793722  0.49505625  1
  Ni  Ni46  1  0.66200475  0.99251485  0.65870681  1
  Ni  Ni47  1  0.82897679  0.15547934  0.82535275  1
  Ni  Ni48  1  0.82347613  0.49534245  0.49066930  1
  Cr  Cr49  1  0.66159604  0.32630149  0.65743013  1
  Cr  Cr50  1  0.82587652  0.49393868  0.82766670  1
  Ni  Ni51  1  0.82322366  0.82800291  0.49331859  1
  Cr  Cr52  1  0.65885440  0.66294382  0.65707968  1
  Cr  Cr53  1  0.82618619  0.82813251  0.82610545  1
" 