492,Ni70Fe20Cr8_0,-238.65650476902, 198.014012280494,Ni70Fe20Cr8,"# generated using pymatgen
 data_Cr5Fe11Ni38
_symmetry_space_group_name_H-M   'P 1'
_cell_length_a   7.43643274
_cell_length_b   7.43643274
_cell_length_c   10.51670404
_cell_angle_alpha   90.00000000
_cell_angle_beta   90.00000000
_cell_angle_gamma   90.00000000
_symmetry_Int_Tables_number   1
_chemical_formula_structural   Cr5Fe11Ni38
_chemical_formula_sum   'Cr5 Fe11 Ni38'
_cell_volume   581.57932783
_cell_formula_units_Z   1
loop_
 _symmetry_equiv_pos_site_id
 _symmetry_equiv_pos_as_xyz
  1  'x, y, z'
loop_
 _atom_site_type_symbol
 _atom_site_label
 _atom_site_symmetry_multiplicity
 _atom_site_fract_x
 _atom_site_fract_y
 _atom_site_fract_z
 _atom_site_occupancy
  Ni  Ni0  1  0.00335078  0.00238857  1.00157216  1
  Fe  Fe1  1  0.16816560  0.16629477  0.16922658  1
  Ni  Ni2  1  0.00280857  0.00239148  0.33558302  1
  Ni  Ni3  1  1.00007841  0.33407591  1.00094115  1
  Cr  Cr4  1  0.16699572  0.50231541  0.17011136  1
  Ni  Ni5  1  1.00098099  0.33440305  0.33649973  1
  Ni  Ni6  1  0.99993644  0.66970747  1.00089777  1
  Ni  Ni7  1  0.16864024  0.83673596  0.16896126  1
  Ni  Ni8  1  1.00176956  0.66937882  0.33576554  1
  Ni  Ni9  1  0.33385014  0.00386158  0.00286261  1
  Ni  Ni10  1  0.50320367  0.16756507  0.16782316  1
  Ni  Ni11  1  0.33518644  1.00190471  0.33537065  1
  Fe  Fe12  1  0.33582765  0.33370345  1.00139806  1
  Fe  Fe13  1  0.50540631  0.50188094  0.16959898  1
  Ni  Ni14  1  0.33647659  0.33434911  0.33613719  1
  Cr  Cr15  1  0.33538231  0.66989842  0.00256093  1
  Ni  Ni16  1  0.50242009  0.83716710  0.16936515  1
  Ni  Ni17  1  0.33617435  0.66991909  0.33665909  1
  Fe  Fe18  1  0.67023580  0.00286355  0.00358581  1
  Ni  Ni19  1  0.83431365  0.16905910  0.16892558  1
  Ni  Ni20  1  0.66818092  0.00269349  0.33526633  1
  Ni  Ni21  1  0.66918450  0.33581086  1.00197594  1
  Ni  Ni22  1  0.83474397  0.50146231  0.16768379  1
  Ni  Ni23  1  0.66872097  0.33539048  0.33547510  1
  Ni  Ni24  1  0.67065540  0.66664734  0.00249761  1
  Ni  Ni25  1  0.83511857  0.83565224  0.16793702  1
  Ni  Ni26  1  0.66823373  0.66809049  0.33544061  1
  Ni  Ni27  1  0.16733105  0.16909498  0.50132509  1
  Ni  Ni28  1  0.00288991  1.00184060  0.66902087  1
  Fe  Fe29  1  0.16783830  0.16911559  0.83617052  1
  Ni  Ni30  1  0.16860727  0.50276940  0.50271865  1
  Fe  Fe31  1  1.00153613  0.33587659  0.66835930  1
  Ni  Ni32  1  0.16833183  0.50225819  0.83405067  1
  Ni  Ni33  1  0.16903224  0.83431346  0.50160910  1
  Ni  Ni34  1  0.00292544  0.66883681  0.66951100  1
  Ni  Ni35  1  0.16632167  0.83450571  0.83560679  1
  Ni  Ni36  1  0.50301354  0.16951918  0.50144444  1
  Cr  Cr37  1  0.33278690  0.00215285  0.66733553  1
  Fe  Fe38  1  0.50176300  0.17204377  0.83700431  1
  Ni  Ni39  1  0.50205408  0.50266118  0.50213468  1
  Fe  Fe40  1  0.33565689  0.33796498  0.66800833  1
  Ni  Ni41  1  0.50212180  0.50041965  0.83478596  1
  Ni  Ni42  1  0.50120851  0.83399833  0.50047077  1
  Ni  Ni43  1  0.33429831  0.66657161  0.66787365  1
  Cr  Cr44  1  0.50223097  0.83428296  0.83604934  1
  Ni  Ni45  1  0.83582853  0.16994007  0.50105977  1
  Cr  Cr46  1  0.67046229  0.00364012  0.66759466  1
  Ni  Ni47  1  0.83607484  0.16959345  0.83619168  1
  Ni  Ni48  1  0.83551443  0.50095781  0.50260341  1
  Ni  Ni49  1  0.66850766  0.33728628  0.66872533  1
  Fe  Fe50  1  0.83532725  0.50243894  0.83574374  1
  Fe  Fe51  1  0.83623889  0.83454432  0.50099845  1
  Ni  Ni52  1  0.66895549  0.66501945  0.66823433  1
  Fe  Fe53  1  0.83825700  0.83389857  0.83640311  1
" 