7008,Ni70Fe5Cr23_11,-229.606777288332, 151.450700551874,Ni70Fe5Cr23,"# generated using pymatgen
 data_Cr7FeNi19
_symmetry_space_group_name_H-M   'P 1'
_cell_length_a   7.47724377
_cell_length_b   7.47724377
_cell_length_c   10.57441955
_cell_angle_alpha   90.00000000
_cell_angle_beta   90.00000000
_cell_angle_gamma   90.00000000
_symmetry_Int_Tables_number   1
_chemical_formula_structural   Cr7FeNi19
_chemical_formula_sum   'Cr14 Fe2 Ni38'
_cell_volume   591.20706620
_cell_formula_units_Z   2
loop_
 _symmetry_equiv_pos_site_id
 _symmetry_equiv_pos_as_xyz
  1  'x, y, z'
loop_
 _atom_site_type_symbol
 _atom_site_label
 _atom_site_symmetry_multiplicity
 _atom_site_fract_x
 _atom_site_fract_y
 _atom_site_fract_z
 _atom_site_occupancy
  Ni  Ni0  1  0.00102320  0.00106916  0.99667942  1
  Ni  Ni1  1  0.16733688  0.16911789  0.16426492  1
  Ni  Ni2  1  0.00082128  0.99859053  0.33320453  1
  Ni  Ni3  1  0.00084765  0.33262307  0.99840080  1
  Ni  Ni4  1  0.16621801  0.49667153  0.16782339  1
  Ni  Ni5  1  0.00421755  0.33372772  0.33191075  1
  Cr  Cr6  1  0.99853421  0.66509858  0.99594366  1
  Cr  Cr7  1  0.16475316  0.83440962  0.16501976  1
  Ni  Ni8  1  0.99803614  0.66430235  0.33192737  1
  Ni  Ni9  1  0.33089062  0.00290963  0.99666621  1
  Ni  Ni10  1  0.49580822  0.17006234  0.16313466  1
  Cr  Cr11  1  0.33353789  0.00651574  0.33424391  1
  Ni  Ni12  1  0.33175510  0.33092708  0.99929135  1
  Ni  Ni13  1  0.49832892  0.49654915  0.16597968  1
  Ni  Ni14  1  0.33013015  0.33567862  0.33331440  1
  Cr  Cr15  1  0.33177088  0.66393342  0.99639347  1
  Cr  Cr16  1  0.49776414  0.83150607  0.16651055  1
  Fe  Fe17  1  0.33282361  0.66354194  0.33436156  1
  Cr  Cr18  1  0.66514358  0.99918071  0.99874081  1
  Cr  Cr19  1  0.83528407  0.16738330  0.16441947  1
  Cr  Cr20  1  0.66591413  0.99684127  0.33488632  1
  Ni  Ni21  1  0.66463909  0.33327561  0.99792384  1
  Ni  Ni22  1  0.83310986  0.49909978  0.16637155  1
  Cr  Cr23  1  0.66130840  0.33313468  0.33311970  1
  Cr  Cr24  1  0.66723434  0.66394906  0.99827698  1
  Ni  Ni25  1  0.83447192  0.83042561  0.16840879  1
  Ni  Ni26  1  0.66663820  0.66488183  0.33269371  1
  Ni  Ni27  1  0.16823384  0.16732934  0.49966780  1
  Ni  Ni28  1  -0.00033335  0.99764030  0.66792850  1
  Ni  Ni29  1  0.16721771  0.16576166  0.83379335  1
  Ni  Ni30  1  0.16915956  0.49833034  0.49834056  1
  Cr  Cr31  1  0.00342698  0.33291256  0.66712355  1
  Ni  Ni32  1  0.16653660  0.49841985  0.83087572  1
  Cr  Cr33  1  0.16549968  0.83111204  0.50160307  1
  Ni  Ni34  1  -0.00056275  0.66697528  0.66844748  1
  Ni  Ni35  1  0.16720787  0.83398554  0.83039044  1
  Ni  Ni36  1  0.49655748  0.16726055  0.50355473  1
  Ni  Ni37  1  0.33345792  0.00016600  0.66714989  1
  Ni  Ni38  1  0.49846900  0.16662363  0.83205035  1
  Ni  Ni39  1  0.49700177  0.49998977  0.50139256  1
  Ni  Ni40  1  0.33431490  0.33231934  0.66534307  1
  Fe  Fe41  1  0.49881800  0.49765400  0.83060667  1
  Ni  Ni42  1  0.50036575  0.83065910  0.50169222  1
  Ni  Ni43  1  0.33322716  0.66455385  0.66647349  1
  Ni  Ni44  1  0.49783434  0.83440183  0.82934458  1
  Cr  Cr45  1  0.83413348  0.16471409  0.50235108  1
  Ni  Ni46  1  0.66441937  0.99817742  0.66581139  1
  Ni  Ni47  1  0.83191055  0.16690003  0.83247830  1
  Cr  Cr48  1  0.83328757  0.50048623  0.50057637  1
  Ni  Ni49  1  0.66253691  0.33269631  0.66840973  1
  Ni  Ni50  1  0.83216446  0.49740657  0.83142663  1
  Ni  Ni51  1  0.83193112  0.83094619  0.50052564  1
  Ni  Ni52  1  0.66504959  0.66692401  0.66706692  1
  Ni  Ni53  1  0.83297545  0.83343003  0.82884648  1
" 