1144,Ni70Fe20Cr8_11,-238.658642114853, 200.2386109511,Ni70Fe20Cr8,"# generated using pymatgen
 data_Cr5Fe11Ni38
_symmetry_space_group_name_H-M   'P 1'
_cell_length_a   7.43159637
_cell_length_b   7.43159637
_cell_length_c   10.50986438
_cell_angle_alpha   90.00000000
_cell_angle_beta   90.00000000
_cell_angle_gamma   90.00000000
_symmetry_Int_Tables_number   1
_chemical_formula_structural   Cr5Fe11Ni38
_chemical_formula_sum   'Cr5 Fe11 Ni38'
_cell_volume   580.44535462
_cell_formula_units_Z   1
loop_
 _symmetry_equiv_pos_site_id
 _symmetry_equiv_pos_as_xyz
  1  'x, y, z'
loop_
 _atom_site_type_symbol
 _atom_site_label
 _atom_site_symmetry_multiplicity
 _atom_site_fract_x
 _atom_site_fract_y
 _atom_site_fract_z
 _atom_site_occupancy
  Ni  Ni0  1  0.00262759  0.00243302  0.00315200  1
  Ni  Ni1  1  0.16951203  0.16845638  0.16775693  1
  Fe  Fe2  1  1.00175920  0.00245429  0.33621948  1
  Ni  Ni3  1  0.00284358  0.33555594  0.00256252  1
  Fe  Fe4  1  0.16729146  0.50154411  0.16875636  1
  Ni  Ni5  1  1.00043075  0.33587065  0.33554308  1
  Fe  Fe6  1  1.00014514  0.66924249  0.00244038  1
  Fe  Fe7  1  0.16709184  0.83688981  0.16978182  1
  Ni  Ni8  1  1.00086327  0.66964725  0.33452808  1
  Ni  Ni9  1  0.33430511  0.00465125  1.00160696  1
  Ni  Ni10  1  0.50149758  0.17012975  0.16741250  1
  Ni  Ni11  1  0.33408355  1.00060406  0.33585530  1
  Ni  Ni12  1  0.33517238  0.33442138  0.00256695  1
  Ni  Ni13  1  0.50430541  0.49998389  0.16941166  1
  Cr  Cr14  1  0.33569696  0.33507882  0.33400096  1
  Cr  Cr15  1  0.33582150  0.66798187  0.00242091  1
  Cr  Cr16  1  0.50395135  0.83706215  0.16976137  1
  Fe  Fe17  1  0.33663386  0.67045315  0.33609682  1
  Ni  Ni18  1  0.67021966  1.00218411  1.00140377  1
  Fe  Fe19  1  0.83480544  0.16965591  0.16878432  1
  Ni  Ni20  1  0.66986791  1.00103871  0.33603886  1
  Ni  Ni21  1  0.66913487  0.33667213  0.00296675  1
  Ni  Ni22  1  0.83549976  0.50292817  0.16866057  1
  Ni  Ni23  1  0.67150715  0.33760438  0.33519058  1
  Ni  Ni24  1  0.67135387  0.66829904  1.00185281  1
  Ni  Ni25  1  0.83717557  0.83487851  0.16842226  1
  Ni  Ni26  1  0.67047187  0.66851471  0.33692497  1
  Ni  Ni27  1  0.16674930  0.16624158  0.50399086  1
  Ni  Ni28  1  0.00331495  0.00257646  0.66761415  1
  Fe  Fe29  1  0.16812145  0.16959624  0.83575695  1
  Cr  Cr30  1  0.16830757  0.50232238  0.50336964  1
  Ni  Ni31  1  0.00242116  0.33482528  0.66905208  1
  Ni  Ni32  1  0.16903961  0.50164163  0.83571801  1
  Ni  Ni33  1  0.16940490  0.83799938  0.50136099  1
  Fe  Fe34  1  1.00114439  0.67010971  0.66960221  1
  Ni  Ni35  1  0.16817476  0.83669217  0.83554400  1
  Cr  Cr36  1  0.50332227  0.16851437  0.50299113  1
  Ni  Ni37  1  0.33390388  1.00146312  0.66969074  1
  Fe  Fe38  1  0.50280566  0.16945701  0.83616305  1
  Ni  Ni39  1  0.50500414  0.50482526  0.50263051  1
  Ni  Ni40  1  0.33477337  0.33591461  0.67094815  1
  Ni  Ni41  1  0.50266396  0.50091763  0.83511635  1
  Ni  Ni42  1  0.50224102  0.83442084  0.50245763  1
  Fe  Fe43  1  0.33691758  0.66967337  0.66994569  1
  Fe  Fe44  1  0.50398097  0.83590247  0.83472199  1
  Ni  Ni45  1  0.83741410  0.16900275  0.50134730  1
  Ni  Ni46  1  0.66993655  1.00015850  0.66970908  1
  Ni  Ni47  1  0.83538239  0.16861239  0.83635471  1
  Ni  Ni48  1  0.83383666  0.50216728  0.50259150  1
  Ni  Ni49  1  0.66996002  0.33811248  0.66899404  1
  Ni  Ni50  1  0.83545076  0.50226247  0.83590089  1
  Ni  Ni51  1  0.83550856  0.83598770  0.50239670  1
  Ni  Ni52  1  0.66884569  0.66888385  0.66837796  1
  Ni  Ni53  1  0.83610484  0.83628231  0.83633391  1
" 