3494,Ni70Fe5Cr23_19,-229.566377085171, 156.568314807801,Ni70Fe5Cr23,"# generated using pymatgen
 data_Cr7FeNi19
_symmetry_space_group_name_H-M   'P 1'
_cell_length_a   7.47823756
_cell_length_b   7.47823756
_cell_length_c   10.57582498
_cell_angle_alpha   90.00000000
_cell_angle_beta   90.00000000
_cell_angle_gamma   90.00000000
_symmetry_Int_Tables_number   1
_chemical_formula_structural   Cr7FeNi19
_chemical_formula_sum   'Cr14 Fe2 Ni38'
_cell_volume   591.44282810
_cell_formula_units_Z   2
loop_
 _symmetry_equiv_pos_site_id
 _symmetry_equiv_pos_as_xyz
  1  'x, y, z'
loop_
 _atom_site_type_symbol
 _atom_site_label
 _atom_site_symmetry_multiplicity
 _atom_site_fract_x
 _atom_site_fract_y
 _atom_site_fract_z
 _atom_site_occupancy
  Cr  Cr0  1  -0.00036502  0.99888016  0.99764558  1
  Ni  Ni1  1  0.16728358  0.16870241  0.16783024  1
  Ni  Ni2  1  0.00044004  0.00047925  0.33547875  1
  Ni  Ni3  1  0.99705191  0.33583533  -0.00062782  1
  Ni  Ni4  1  0.16593537  0.49795633  0.16692556  1
  Ni  Ni5  1  0.00100305  0.33221396  0.33259149  1
  Ni  Ni6  1  0.99899057  0.66289993  0.99811526  1
  Cr  Cr7  1  0.16719619  0.83155304  0.16539237  1
  Fe  Fe8  1  0.99867259  0.66481748  0.33316370  1
  Ni  Ni9  1  0.33581944  0.99735521  -0.00027417  1
  Ni  Ni10  1  0.49719860  0.16626518  0.16411978  1
  Cr  Cr11  1  0.33127459  0.00021383  0.33264784  1
  Cr  Cr12  1  0.33363116  0.33324596  0.00106439  1
  Ni  Ni13  1  0.49881918  0.50066292  0.16639196  1
  Ni  Ni14  1  0.33004807  0.33300790  0.33092803  1
  Ni  Ni15  1  0.33321214  0.66717261  0.99843475  1
  Ni  Ni16  1  0.49898278  0.83082547  0.16474124  1
  Ni  Ni17  1  0.33336783  0.66493508  0.33149863  1
  Ni  Ni18  1  0.66294442  -0.00070611  0.99763623  1
  Cr  Cr19  1  0.83331184  0.16747789  0.16448581  1
  Cr  Cr20  1  0.66620639  0.99789278  0.33426894  1
  Ni  Ni21  1  0.66721642  0.33323112  0.99881927  1
  Ni  Ni22  1  0.83300053  0.49973814  0.16537941  1
  Cr  Cr23  1  0.66580527  0.33449552  0.33201684  1
  Ni  Ni24  1  0.66555236  0.66523079  0.99889325  1
  Cr  Cr25  1  0.83093294  0.83025834  0.16584891  1
  Ni  Ni26  1  0.66603803  0.66550041  0.33264410  1
  Ni  Ni27  1  0.16571786  0.16513919  0.49859833  1
  Cr  Cr28  1  0.99864686  -0.00025775  0.66482466  1
  Cr  Cr29  1  0.16642952  0.16681475  0.83139974  1
  Cr  Cr30  1  0.16623866  0.49808767  0.49896678  1
  Ni  Ni31  1  -0.00062788  0.33245271  0.66579162  1
  Ni  Ni32  1  0.16577839  0.50121453  0.83240699  1
  Ni  Ni33  1  0.16576228  0.83428867  0.49839458  1
  Cr  Cr34  1  0.99864650  0.66525564  0.66723628  1
  Ni  Ni35  1  0.16834899  0.82978977  0.83349147  1
  Ni  Ni36  1  0.49776102  0.16432682  0.50098077  1
  Ni  Ni37  1  0.33488264  0.99862664  0.66484383  1
  Ni  Ni38  1  0.50116852  0.16401542  0.83265467  1
  Cr  Cr39  1  0.49889794  0.50028642  0.49956875  1
  Ni  Ni40  1  0.33193634  0.33163041  0.66592536  1
  Ni  Ni41  1  0.49922296  0.50129122  0.83245918  1
  Fe  Fe42  1  0.49967445  0.83285784  0.50094090  1
  Ni  Ni43  1  0.33406081  0.66749730  0.66782240  1
  Ni  Ni44  1  0.49939009  0.83244830  0.83213134  1
  Ni  Ni45  1  0.83427529  0.16467592  0.49933993  1
  Ni  Ni46  1  0.66406645  0.99806179  0.66578379  1
  Ni  Ni47  1  0.83009603  0.16658348  0.83320470  1
  Ni  Ni48  1  0.83296557  0.50040626  0.49809259  1
  Cr  Cr49  1  0.66687928  0.33205454  0.66674882  1
  Ni  Ni50  1  0.83275411  0.49943609  0.83428390  1
  Ni  Ni51  1  0.83215041  0.83267447  0.49806526  1
  Ni  Ni52  1  0.66488771  0.66806390  0.66621777  1
  Ni  Ni53  1  0.83001787  0.83173600  0.83336415  1
" 