1646,Ni70Fe20Cr8_17,-238.462529657076, 200.125019515228,Ni70Fe20Cr8,"# generated using pymatgen
 data_Cr5Fe11Ni38
_symmetry_space_group_name_H-M   'P 1'
_cell_length_a   7.43160825
_cell_length_b   7.43160825
_cell_length_c   10.50988118
_cell_angle_alpha   90.00000000
_cell_angle_beta   90.00000000
_cell_angle_gamma   90.00000000
_symmetry_Int_Tables_number   1
_chemical_formula_structural   Cr5Fe11Ni38
_chemical_formula_sum   'Cr5 Fe11 Ni38'
_cell_volume   580.44813868
_cell_formula_units_Z   1
loop_
 _symmetry_equiv_pos_site_id
 _symmetry_equiv_pos_as_xyz
  1  'x, y, z'
loop_
 _atom_site_type_symbol
 _atom_site_label
 _atom_site_symmetry_multiplicity
 _atom_site_fract_x
 _atom_site_fract_y
 _atom_site_fract_z
 _atom_site_occupancy
  Fe  Fe0  1  0.00366414  1.00098646  1.00136183  1
  Ni  Ni1  1  0.17197824  0.17008832  0.16762140  1
  Cr  Cr2  1  0.00277094  1.00000000  0.33631442  1
  Fe  Fe3  1  0.00548007  0.33592843  0.00261769  1
  Ni  Ni4  1  0.16822739  0.50248098  0.16830947  1
  Ni  Ni5  1  1.00139325  0.33932467  0.33554183  1
  Ni  Ni6  1  0.00265798  0.67017742  0.00384185  1
  Ni  Ni7  1  0.17042773  0.83458393  0.16864016  1
  Ni  Ni8  1  1.00231338  0.66760573  0.33592983  1
  Ni  Ni9  1  0.33604587  0.00287305  0.00278013  1
  Ni  Ni10  1  0.49966355  0.16762386  0.16984854  1
  Ni  Ni11  1  0.33820247  1.00174819  0.33491765  1
  Ni  Ni12  1  0.33476452  0.33527142  0.00276548  1
  Fe  Fe13  1  0.50111216  0.50328722  0.16950650  1
  Ni  Ni14  1  0.33756243  0.33624283  0.33450212  1
  Ni  Ni15  1  0.33500137  0.66900862  1.00191262  1
  Ni  Ni16  1  0.50208668  0.83616838  0.16835566  1
  Ni  Ni17  1  0.33511053  0.66916265  0.33614215  1
  Ni  Ni18  1  0.66841073  1.00038591  1.00196178  1
  Cr  Cr19  1  0.83568784  0.16986989  0.16888712  1
  Fe  Fe20  1  0.66648166  1.00210545  0.33657769  1
  Cr  Cr21  1  0.66690250  0.33516773  1.00209402  1
  Ni  Ni22  1  0.83709863  0.50490774  0.17009662  1
  Ni  Ni23  1  0.66819767  0.33623733  0.33733191  1
  Ni  Ni24  1  0.66949350  0.67145316  0.00360950  1
  Ni  Ni25  1  0.83463839  0.83242039  0.16723191  1
  Fe  Fe26  1  0.66902342  0.66844957  0.33547765  1
  Cr  Cr27  1  0.16976398  0.16933427  0.50260149  1
  Ni  Ni28  1  1.00080328  1.00112763  0.67024210  1
  Ni  Ni29  1  0.16925566  0.16795270  0.83644994  1
  Ni  Ni30  1  0.16839573  0.50425810  0.50307662  1
  Ni  Ni31  1  1.00227041  0.33623868  0.66886739  1
  Fe  Fe32  1  0.17075475  0.50139343  0.83571922  1
  Ni  Ni33  1  0.16986212  0.83328120  0.50278380  1
  Ni  Ni34  1  0.00278228  0.66978613  0.66737950  1
  Ni  Ni35  1  0.16937273  0.83653734  0.83573010  1
  Ni  Ni36  1  0.50409043  0.16885313  0.50232106  1
  Ni  Ni37  1  0.33705124  1.00237329  0.66945426  1
  Ni  Ni38  1  0.50141703  0.16862004  0.83498436  1
  Ni  Ni39  1  0.50283402  0.50245472  0.50218127  1
  Ni  Ni40  1  0.33680136  0.33620952  0.66988391  1
  Ni  Ni41  1  0.50089145  0.50285102  0.83555604  1
  Ni  Ni42  1  0.50212588  0.83584532  0.50271176  1
  Fe  Fe43  1  0.33482745  0.66946163  0.66860768  1
  Fe  Fe44  1  0.50222451  0.83685266  0.83628535  1
  Ni  Ni45  1  0.83335996  0.17032080  0.50368660  1
  Ni  Ni46  1  0.66929791  0.00288748  0.66869815  1
  Ni  Ni47  1  0.83648444  0.16736079  0.83476133  1
  Ni  Ni48  1  0.83592281  0.50229656  0.50187337  1
  Fe  Fe49  1  0.66866685  0.33397742  0.66796632  1
  Cr  Cr50  1  0.83563619  0.50269002  0.83518874  1
  Ni  Ni51  1  0.83516232  0.83453475  0.50351046  1
  Fe  Fe52  1  0.66863683  0.66983333  0.66824863  1
  Fe  Fe53  1  0.83566717  0.83786451  0.83580880  1
" 