4449,Ni70Fe9Cr20_19,-231.781594066026, 168.981297661878,Ni70Fe9Cr20,"# generated using pymatgen
 data_Cr6Fe2Ni19
_symmetry_space_group_name_H-M   'P 1'
_cell_length_a   7.46286090
_cell_length_b   7.46286090
_cell_length_c   10.55407909
_cell_angle_alpha   90.00000000
_cell_angle_beta   90.00000000
_cell_angle_gamma   90.00000000
_symmetry_Int_Tables_number   1
_chemical_formula_structural   Cr6Fe2Ni19
_chemical_formula_sum   'Cr12 Fe4 Ni38'
_cell_volume   587.80197059
_cell_formula_units_Z   2
loop_
 _symmetry_equiv_pos_site_id
 _symmetry_equiv_pos_as_xyz
  1  'x, y, z'
loop_
 _atom_site_type_symbol
 _atom_site_label
 _atom_site_symmetry_multiplicity
 _atom_site_fract_x
 _atom_site_fract_y
 _atom_site_fract_z
 _atom_site_occupancy
  Ni  Ni0  1  0.00154767  0.00143493  0.00145096  1
  Ni  Ni1  1  0.16588135  0.16438816  0.16608091  1
  Ni  Ni2  1  0.99963535  0.99950140  0.33438405  1
  Ni  Ni3  1  0.99653300  0.33332894  1.00000662  1
  Cr  Cr4  1  0.16789548  0.50163485  0.16696197  1
  Cr  Cr5  1  0.99952723  0.33235152  0.33421719  1
  Ni  Ni6  1  0.00270179  0.66607685  0.99823443  1
  Ni  Ni7  1  0.16808394  0.83488957  0.16554287  1
  Ni  Ni8  1  0.99976682  0.66819488  0.33646560  1
  Ni  Ni9  1  0.33356045  0.99708642  0.00068296  1
  Fe  Fe10  1  0.50197762  0.16701188  0.16690860  1
  Cr  Cr11  1  0.33291159  0.99995034  0.33336142  1
  Cr  Cr12  1  0.33429672  0.33364080  1.00017474  1
  Ni  Ni13  1  0.50160956  0.50051915  0.16875754  1
  Ni  Ni14  1  0.33508255  0.33416130  0.33472498  1
  Ni  Ni15  1  0.33271667  0.67011461  0.99927351  1
  Ni  Ni16  1  0.49866775  0.83295426  0.16622922  1
  Ni  Ni17  1  0.33436155  0.66712751  0.33329267  1
  Ni  Ni18  1  0.66573091  0.00325696  0.99934839  1
  Ni  Ni19  1  0.83304692  0.16733089  0.16531359  1
  Ni  Ni20  1  0.66773251  1.00022298  0.33542876  1
  Ni  Ni21  1  0.66976833  0.33248581  0.99977544  1
  Ni  Ni22  1  0.83111299  0.49831782  0.16645023  1
  Ni  Ni23  1  0.66666339  0.33403078  0.33271343  1
  Cr  Cr24  1  0.66511570  0.66492911  0.00044612  1
  Cr  Cr25  1  0.83459154  0.83484024  0.16832808  1
  Ni  Ni26  1  0.66671356  0.66658785  0.33359735  1
  Ni  Ni27  1  0.16793231  0.16595492  0.50112717  1
  Ni  Ni28  1  0.00112912  0.99971253  0.66500604  1
  Cr  Cr29  1  0.16737367  0.16547633  0.83381013  1
  Ni  Ni30  1  0.16667978  0.50108311  0.49976000  1
  Cr  Cr31  1  0.99922985  0.33379985  0.66633566  1
  Ni  Ni32  1  0.16719925  0.50326687  0.83440117  1
  Ni  Ni33  1  0.16461149  0.83380418  0.50016723  1
  Fe  Fe34  1  0.00158988  0.66726510  0.66614008  1
  Ni  Ni35  1  0.16736886  0.83225656  0.83513097  1
  Ni  Ni36  1  0.50079192  0.16656861  0.50115558  1
  Ni  Ni37  1  0.33348615  0.00084784  0.66642633  1
  Ni  Ni38  1  0.50275530  0.16746206  0.83277575  1
  Cr  Cr39  1  0.49950595  0.49791691  0.49771946  1
  Ni  Ni40  1  0.33498076  0.33162245  0.66639513  1
  Ni  Ni41  1  0.50008692  0.49791697  0.83382278  1
  Ni  Ni42  1  0.50131216  0.83599139  0.49982216  1
  Cr  Cr43  1  0.33240464  0.66817793  0.66836963  1
  Fe  Fe44  1  0.49776535  0.83553184  0.83479941  1
  Ni  Ni45  1  0.83211791  0.16450112  0.50056662  1
  Fe  Fe46  1  0.66580324  0.00356281  0.66582049  1
  Ni  Ni47  1  0.83034978  0.16763183  0.83495960  1
  Ni  Ni48  1  0.83430428  0.50160291  0.49943301  1
  Ni  Ni49  1  0.66679846  0.33199936  0.66835167  1
  Ni  Ni50  1  0.83355534  0.49828724  0.83495878  1
  Ni  Ni51  1  0.83491838  0.83473918  0.49907234  1
  Cr  Cr52  1  0.66794376  0.66629115  0.66697302  1
  Cr  Cr53  1  0.83591972  0.83550634  0.83369533  1
" 