7847,Ni70Fe27Cr1_18,-241.452690545896, 214.122414361621,Ni70Fe27Cr1,"# generated using pymatgen
 data_Cr2Fe15Ni37
_symmetry_space_group_name_H-M   'P 1'
_cell_length_a   7.41879189
_cell_length_b   7.41879189
_cell_length_c   10.49175611
_cell_angle_alpha   90.00000000
_cell_angle_beta   90.00000000
_cell_angle_gamma   90.00000000
_symmetry_Int_Tables_number   1
_chemical_formula_structural   Cr2Fe15Ni37
_chemical_formula_sum   'Cr2 Fe15 Ni37'
_cell_volume   577.45023709
_cell_formula_units_Z   1
loop_
 _symmetry_equiv_pos_site_id
 _symmetry_equiv_pos_as_xyz
  1  'x, y, z'
loop_
 _atom_site_type_symbol
 _atom_site_label
 _atom_site_symmetry_multiplicity
 _atom_site_fract_x
 _atom_site_fract_y
 _atom_site_fract_z
 _atom_site_occupancy
  Ni  Ni0  1  1.00317893  1.00226823  1.00290459  1
  Ni  Ni1  1  0.16966083  0.17074923  0.16909113  1
  Cr  Cr2  1  0.00377225  1.00284644  0.33726877  1
  Fe  Fe3  1  1.00307949  0.33674687  0.00379157  1
  Fe  Fe4  1  0.17021714  0.50325098  0.16993526  1
  Ni  Ni5  1  0.00357705  0.33856649  0.33624173  1
  Ni  Ni6  1  0.00397729  0.67123471  1.00287825  1
  Ni  Ni7  1  0.16960289  0.83575700  0.16889770  1
  Ni  Ni8  1  0.00388514  0.66849764  0.33697551  1
  Fe  Fe9  1  0.33704476  1.00267179  0.00373869  1
  Ni  Ni10  1  0.50398668  0.17072801  0.17053358  1
  Ni  Ni11  1  0.33810979  0.00367247  0.33616381  1
  Ni  Ni12  1  0.33715228  0.33700154  1.00245996  1
  Ni  Ni13  1  0.50339863  0.50291559  0.16965902  1
  Ni  Ni14  1  0.33686287  0.33610993  0.33784605  1
  Ni  Ni15  1  0.33584603  0.66944537  1.00303046  1
  Ni  Ni16  1  0.50371911  0.83610873  0.16957750  1
  Fe  Fe17  1  0.33658204  0.66989068  0.33698312  1
  Ni  Ni18  1  0.67068492  0.00357439  1.00296105  1
  Ni  Ni19  1  0.83610971  0.17043354  0.16879979  1
  Ni  Ni20  1  0.66784099  0.00397406  0.33719520  1
  Ni  Ni21  1  0.66888657  0.33619917  1.00317096  1
  Fe  Fe22  1  0.83623889  0.50332020  0.17004877  1
  Ni  Ni23  1  0.66931643  0.33603450  0.33678512  1
  Ni  Ni24  1  0.66993103  0.66998597  1.00298912  1
  Ni  Ni25  1  0.83643890  0.83634837  0.16935132  1
  Fe  Fe26  1  0.66951939  0.66980306  0.33637042  1
  Ni  Ni27  1  0.16880800  0.17181926  0.50342526  1
  Fe  Fe28  1  1.00118998  1.00266653  0.67008203  1
  Fe  Fe29  1  0.17002514  0.17023393  0.83769836  1
  Ni  Ni30  1  0.17007076  0.50343729  0.50285019  1
  Fe  Fe31  1  1.00294593  0.33677284  0.66894183  1
  Ni  Ni32  1  0.17042278  0.50381930  0.83667290  1
  Ni  Ni33  1  0.16953629  0.83450413  0.50334064  1
  Fe  Fe34  1  1.00318569  0.67031727  0.67010443  1
  Ni  Ni35  1  0.16806635  0.83471812  0.83752641  1
  Ni  Ni36  1  0.50515761  0.17104148  0.50179077  1
  Cr  Cr37  1  0.33678656  1.00259282  0.67007298  1
  Ni  Ni38  1  0.50506766  0.17150834  0.83743863  1
  Ni  Ni39  1  0.50282471  0.50313902  0.50397721  1
  Fe  Fe40  1  0.33802782  0.33863371  0.66982649  1
  Ni  Ni41  1  0.50268956  0.50281469  0.83612031  1
  Ni  Ni42  1  0.50412880  0.83557577  0.50240627  1
  Ni  Ni43  1  0.33610737  0.66865973  0.66970532  1
  Ni  Ni44  1  0.50475700  0.83543659  0.83777049  1
  Ni  Ni45  1  0.83578744  0.17051074  0.50420703  1
  Ni  Ni46  1  0.67142141  0.00365942  0.66960048  1
  Fe  Fe47  1  0.83561345  0.16928157  0.83659861  1
  Fe  Fe48  1  0.83656198  0.50256989  0.50301795  1
  Ni  Ni49  1  0.67009277  0.33658799  0.66980099  1
  Fe  Fe50  1  0.83564273  0.50431404  0.83668433  1
  Fe  Fe51  1  0.83553148  0.83626893  0.50408022  1
  Ni  Ni52  1  0.66962721  0.66951248  0.67000063  1
  Ni  Ni53  1  0.83692569  0.83709134  0.83623295  1
" 