8000,Ni70Fe28Cr1_18,-242.190789577304, 214.634164499101,Ni70Fe28Cr1,"# generated using pymatgen
 data_CrFe15Ni38
_symmetry_space_group_name_H-M   'P 1'
_cell_length_a   7.41870536
_cell_length_b   7.41870536
_cell_length_c   10.49163373
_cell_angle_alpha   90.00000000
_cell_angle_beta   90.00000000
_cell_angle_gamma   90.00000000
_symmetry_Int_Tables_number   1
_chemical_formula_structural   CrFe15Ni38
_chemical_formula_sum   'Cr1 Fe15 Ni38'
_cell_volume   577.43003073
_cell_formula_units_Z   1
loop_
 _symmetry_equiv_pos_site_id
 _symmetry_equiv_pos_as_xyz
  1  'x, y, z'
loop_
 _atom_site_type_symbol
 _atom_site_label
 _atom_site_symmetry_multiplicity
 _atom_site_fract_x
 _atom_site_fract_y
 _atom_site_fract_z
 _atom_site_occupancy
  Ni  Ni0  1  0.00332522  1.00256274  1.00282799  1
  Fe  Fe1  1  0.17144640  0.16992438  0.16998391  1
  Ni  Ni2  1  0.00408551  1.00283151  0.33775510  1
  Fe  Fe3  1  0.00339484  0.33659078  1.00291567  1
  Ni  Ni4  1  0.16996649  0.50316083  0.16955027  1
  Ni  Ni5  1  1.00148854  0.33685365  0.33648558  1
  Ni  Ni6  1  0.00364694  0.67036213  1.00318793  1
  Fe  Fe7  1  0.17147585  0.83604719  0.17007579  1
  Ni  Ni8  1  0.00446126  0.67008828  0.33739229  1
  Ni  Ni9  1  0.33682878  1.00308431  1.00294202  1
  Ni  Ni10  1  0.50365911  0.16954020  0.17044184  1
  Ni  Ni11  1  0.33548475  1.00285323  0.33577173  1
  Ni  Ni12  1  0.33831637  0.33684364  0.00331475  1
  Ni  Ni13  1  0.50249403  0.50368589  0.17043888  1
  Fe  Fe14  1  0.33531136  0.33689975  0.33574893  1
  Ni  Ni15  1  0.33650143  0.66984676  0.00331368  1
  Ni  Ni16  1  0.50361934  0.83654860  0.16939008  1
  Ni  Ni17  1  0.33513445  0.67003820  0.33535183  1
  Ni  Ni18  1  0.66962695  0.00437108  0.00332781  1
  Fe  Fe19  1  0.83549870  0.17055093  0.17018808  1
  Fe  Fe20  1  0.67128232  0.00396931  0.33579918  1
  Ni  Ni21  1  0.66910940  0.33652287  1.00294597  1
  Fe  Fe22  1  0.83554018  0.50318965  0.16955891  1
  Ni  Ni23  1  0.67014786  0.33650254  0.33686802  1
  Ni  Ni24  1  0.66962624  0.66887995  1.00294563  1
  Fe  Fe25  1  0.83608675  0.83603240  0.16953755  1
  Fe  Fe26  1  0.67097563  0.66945366  0.33499890  1
  Ni  Ni27  1  0.16847455  0.17087829  0.50241650  1
  Ni  Ni28  1  0.00333160  1.00283501  0.66918095  1
  Ni  Ni29  1  0.16946020  0.16958099  0.83694552  1
  Ni  Ni30  1  0.16964748  0.50270115  0.50341332  1
  Ni  Ni31  1  1.00151556  0.33685862  0.67009290  1
  Fe  Fe32  1  0.16985132  0.50379742  0.83660232  1
  Ni  Ni33  1  0.16791990  0.83619302  0.50241683  1
  Ni  Ni34  1  0.00448478  0.67008319  0.66918402  1
  Ni  Ni35  1  0.17002712  0.83703232  0.83645160  1
  Fe  Fe36  1  0.50312461  0.17077174  0.50335787  1
  Ni  Ni37  1  0.33595640  1.00285410  0.67105741  1
  Ni  Ni38  1  0.50332511  0.16986974  0.83636330  1
  Fe  Fe39  1  0.50283862  0.50168080  0.50319253  1
  Fe  Fe40  1  0.33587222  0.33592156  0.67056879  1
  Ni  Ni41  1  0.50381228  0.50368323  0.83702108  1
  Cr  Cr42  1  0.50348778  0.83647840  0.50359860  1
  Ni  Ni43  1  0.33484925  0.67001708  0.67111322  1
  Ni  Ni44  1  0.50328413  0.83622328  0.83740650  1
  Ni  Ni45  1  0.83760957  0.16979497  0.50307793  1
  Ni  Ni46  1  0.67048766  0.00582287  0.67068032  1
  Ni  Ni47  1  0.83698539  0.17011127  0.83699917  1
  Fe  Fe48  1  0.83832479  0.50285098  0.50361752  1
  Ni  Ni49  1  0.67041424  0.33574950  0.66997267  1
  Ni  Ni50  1  0.83617892  0.50311837  0.83680540  1
  Ni  Ni51  1  0.83829037  0.83737489  0.50308419  1
  Fe  Fe52  1  0.67138371  0.66987389  0.67186324  1
  Ni  Ni53  1  0.83646689  0.83654799  0.83639712  1
" 