7439,Ni70Cr30_10,-211.664058361702, 146.556462173347,Ni70Cr30,"# generated using pymatgen
 data_Cr37Ni17
_symmetry_space_group_name_H-M   'P 1'
_cell_length_a   7.55878139
_cell_length_b   7.55878139
_cell_length_c   10.68973116
_cell_angle_alpha   90.00000000
_cell_angle_beta   90.00000000
_cell_angle_gamma   90.00000000
_symmetry_Int_Tables_number   1
_chemical_formula_structural   Cr37Ni17
_chemical_formula_sum   'Cr37 Ni17'
_cell_volume   610.75967300
_cell_formula_units_Z   1
loop_
 _symmetry_equiv_pos_site_id
 _symmetry_equiv_pos_as_xyz
  1  'x, y, z'
loop_
 _atom_site_type_symbol
 _atom_site_label
 _atom_site_symmetry_multiplicity
 _atom_site_fract_x
 _atom_site_fract_y
 _atom_site_fract_z
 _atom_site_occupancy
  Cr  Cr0  1  -0.00514454  0.99305796  0.99361828  1
  Cr  Cr1  1  0.16177027  0.16048191  0.16208163  1
  Cr  Cr2  1  0.99326823  0.99220594  0.32769395  1
  Cr  Cr3  1  0.99317477  0.32574559  0.99345593  1
  Cr  Cr4  1  0.16031001  0.49578165  0.16017968  1
  Cr  Cr5  1  0.99179671  0.32658143  0.32674323  1
  Ni  Ni6  1  -0.00542872  0.66427768  -0.00602054  1
  Ni  Ni7  1  0.16243583  0.82386926  0.16015329  1
  Cr  Cr8  1  -0.00405742  0.66318058  0.32838258  1
  Cr  Cr9  1  0.32814385  0.99247339  -0.00516643  1
  Cr  Cr10  1  0.49640083  0.15753770  0.16154915  1
  Cr  Cr11  1  0.32723015  0.98930139  0.32370951  1
  Cr  Cr12  1  0.33071622  0.32836722  0.99357896  1
  Ni  Ni13  1  0.49573167  0.49725869  0.16193396  1
  Cr  Cr14  1  0.33060253  0.33125441  0.32548189  1
  Cr  Cr15  1  0.32912894  0.66110588  -0.00335104  1
  Ni  Ni16  1  0.49438282  0.82478360  0.16077584  1
  Ni  Ni17  1  0.33014358  0.66045348  0.32514012  1
  Ni  Ni18  1  0.65920534  0.99270105  0.99320700  1
  Cr  Cr19  1  0.82409812  0.15974344  0.16177088  1
  Ni  Ni20  1  0.65942585  0.99280913  0.32666439  1
  Cr  Cr21  1  0.65796696  0.32757653  0.99195352  1
  Cr  Cr22  1  0.82591341  0.49525815  0.15820613  1
  Ni  Ni23  1  0.65699405  0.32765616  0.32706186  1
  Ni  Ni24  1  0.65832169  0.66139548  -0.00533338  1
  Cr  Cr25  1  0.82338177  0.82672470  0.15856675  1
  Cr  Cr26  1  0.65702767  0.65975356  0.32937928  1
  Cr  Cr27  1  0.16450354  0.16156076  0.49557707  1
  Cr  Cr28  1  0.99346474  0.99300945  0.66029828  1
  Cr  Cr29  1  0.16417213  0.16072138  0.82427634  1
  Cr  Cr30  1  0.16341513  0.49296565  0.49467109  1
  Cr  Cr31  1  0.99171591  0.32549142  0.66141983  1
  Cr  Cr32  1  0.16095090  0.49596237  0.82684122  1
  Cr  Cr33  1  0.16352154  0.82726674  0.49556613  1
  Cr  Cr34  1  0.99259243  0.66348325  0.65957462  1
  Ni  Ni35  1  0.16104029  0.82763578  0.82732507  1
  Cr  Cr36  1  0.49277552  0.15995998  0.49395393  1
  Ni  Ni37  1  0.32801765  -0.00454431  0.66363442  1
  Ni  Ni38  1  0.49532928  0.16087762  0.82593679  1
  Ni  Ni39  1  0.49261116  0.49268801  0.49266919  1
  Ni  Ni40  1  0.33178277  0.32697131  0.66210997  1
  Ni  Ni41  1  0.49399644  0.49294702  0.82736597  1
  Cr  Cr42  1  0.49483893  0.82885174  0.49306479  1
  Cr  Cr43  1  0.33020405  0.65988741  0.66068033  1
  Cr  Cr44  1  0.49375432  0.82873630  0.82840647  1
  Cr  Cr45  1  0.82395659  0.15970344  0.49017865  1
  Cr  Cr46  1  0.66154099  -0.00562841  0.66113057  1
  Ni  Ni47  1  0.82365387  0.15876880  0.82915791  1
  Cr  Cr48  1  0.82588841  0.49495527  0.49244881  1
  Cr  Cr49  1  0.65820756  0.32869711  0.66249588  1
  Cr  Cr50  1  0.82683402  0.49610569  0.83130824  1
  Ni  Ni51  1  0.82556300  0.82871858  0.49236183  1
  Cr  Cr52  1  0.65935596  0.65907365  0.65849120  1
  Cr  Cr53  1  0.82569880  0.82612451  0.82996552  1
" 