5565,Ni70Fe9Cr20_18,-231.843727188725, 169.562868460555,Ni70Fe9Cr20,"# generated using pymatgen
 data_Cr6Fe2Ni19
_symmetry_space_group_name_H-M   'P 1'
_cell_length_a   7.46378900
_cell_length_b   7.46378900
_cell_length_c   10.55539163
_cell_angle_alpha   90.00000000
_cell_angle_beta   90.00000000
_cell_angle_gamma   90.00000000
_symmetry_Int_Tables_number   1
_chemical_formula_structural   Cr6Fe2Ni19
_chemical_formula_sum   'Cr12 Fe4 Ni38'
_cell_volume   588.02130011
_cell_formula_units_Z   2
loop_
 _symmetry_equiv_pos_site_id
 _symmetry_equiv_pos_as_xyz
  1  'x, y, z'
loop_
 _atom_site_type_symbol
 _atom_site_label
 _atom_site_symmetry_multiplicity
 _atom_site_fract_x
 _atom_site_fract_y
 _atom_site_fract_z
 _atom_site_occupancy
  Cr  Cr0  1  0.00158857  0.99877760  0.00022611  1
  Fe  Fe1  1  0.16840160  0.16654212  0.16717621  1
  Ni  Ni2  1  0.99820680  0.99887512  0.33327484  1
  Cr  Cr3  1  0.99999024  0.33435201  0.00072589  1
  Ni  Ni4  1  0.16844196  0.50263611  0.16656009  1
  Cr  Cr5  1  1.00002207  0.33182503  0.33259237  1
  Ni  Ni6  1  0.00339496  0.66741593  0.00082629  1
  Ni  Ni7  1  0.16679057  0.83110608  0.16671844  1
  Ni  Ni8  1  0.99988867  0.66986036  0.33132877  1
  Ni  Ni9  1  0.33243482  0.00024787  0.00072010  1
  Ni  Ni10  1  0.50102657  0.16859796  0.16634404  1
  Cr  Cr11  1  0.33363947  1.00005118  0.33429792  1
  Fe  Fe12  1  0.33498373  0.33444023  0.00022381  1
  Ni  Ni13  1  0.49908400  0.49906159  0.16790219  1
  Ni  Ni14  1  0.33517398  0.33387723  0.33144166  1
  Ni  Ni15  1  0.33101319  0.66658116  0.00102901  1
  Ni  Ni16  1  0.49905016  0.83299614  0.16791371  1
  Ni  Ni17  1  0.33392648  0.66670911  0.33174762  1
  Cr  Cr18  1  0.66638650  0.00210191  0.00062093  1
  Ni  Ni19  1  0.83123704  0.16694659  0.16882419  1
  Ni  Ni20  1  0.66879794  1.00012400  0.33364718  1
  Ni  Ni21  1  0.66493929  0.33287596  0.00111058  1
  Ni  Ni22  1  0.83312930  0.50065972  0.16766063  1
  Ni  Ni23  1  0.66564881  0.33219476  0.33148972  1
  Cr  Cr24  1  0.66671703  0.66514898  0.00189525  1
  Ni  Ni25  1  0.83481486  0.83304823  0.16920243  1
  Ni  Ni26  1  0.66683974  0.66833589  0.33175977  1
  Ni  Ni27  1  0.16767841  0.16631590  0.50068328  1
  Cr  Cr28  1  1.00016228  0.00072263  0.66686920  1
  Ni  Ni29  1  0.16857880  0.16772645  0.83298303  1
  Cr  Cr30  1  0.16748679  0.50027679  0.50144209  1
  Ni  Ni31  1  0.00093746  0.33280169  0.66774201  1
  Ni  Ni32  1  0.16916820  0.50079417  0.83253285  1
  Fe  Fe33  1  0.16688782  0.83423149  0.50017041  1
  Ni  Ni34  1  0.00091107  0.66715677  0.66849837  1
  Ni  Ni35  1  0.16708846  0.83213563  0.83342396  1
  Ni  Ni36  1  0.50066047  0.16506622  0.50178818  1
  Ni  Ni37  1  0.33441038  0.00106723  0.66624594  1
  Fe  Fe38  1  0.49932321  0.16890254  0.83249532  1
  Cr  Cr39  1  0.49979808  0.50052302  0.49985716  1
  Ni  Ni40  1  0.33342054  0.33233879  0.66904963  1
  Ni  Ni41  1  0.49757107  0.49816515  0.83276899  1
  Ni  Ni42  1  0.50150322  0.83512514  0.50095510  1
  Ni  Ni43  1  0.33307792  0.66725001  0.66787670  1
  Cr  Cr44  1  0.49885647  0.83357843  0.83218004  1
  Ni  Ni45  1  0.83231618  0.16436831  0.50028006  1
  Ni  Ni46  1  0.66620445  0.00104080  0.66607714  1
  Ni  Ni47  1  0.83266023  0.16702062  0.83154959  1
  Cr  Cr48  1  0.83337059  0.50082210  0.50111934  1
  Ni  Ni49  1  0.66629650  0.33146742  0.66805409  1
  Cr  Cr50  1  0.83378277  0.50019031  0.83146338  1
  Ni  Ni51  1  0.83210963  0.83518582  0.49941069  1
  Ni  Ni52  1  0.66666693  0.66814640  0.66697170  1
  Ni  Ni53  1  0.83529162  0.83397921  0.83203990  1
" 