8271,Ni70Fe30_1,-236.898194645137, 204.147012350887,Ni70Fe30,"# generated using pymatgen
 data_Fe37Ni17
_symmetry_space_group_name_H-M   'P 1'
_cell_length_a   7.39974302
_cell_length_b   7.39974302
_cell_length_c   10.46481694
_cell_angle_alpha   90.00000000
_cell_angle_beta   90.00000000
_cell_angle_gamma   90.00000000
_symmetry_Int_Tables_number   1
_chemical_formula_structural   Fe37Ni17
_chemical_formula_sum   'Fe37 Ni17'
_cell_volume   573.01357563
_cell_formula_units_Z   1
loop_
 _symmetry_equiv_pos_site_id
 _symmetry_equiv_pos_as_xyz
  1  'x, y, z'
loop_
 _atom_site_type_symbol
 _atom_site_label
 _atom_site_symmetry_multiplicity
 _atom_site_fract_x
 _atom_site_fract_y
 _atom_site_fract_z
 _atom_site_occupancy
  Fe  Fe0  1  0.00484968  1.00393325  0.00485079  1
  Fe  Fe1  1  0.17097246  0.17114611  0.17146031  1
  Ni  Ni2  1  1.00366629  1.00351200  0.33788183  1
  Ni  Ni3  1  0.00505581  0.33779317  1.00434887  1
  Fe  Fe4  1  0.17130028  0.50485819  0.17041493  1
  Fe  Fe5  1  1.00337324  0.33779770  0.33716495  1
  Fe  Fe6  1  0.00496913  0.67167037  1.00397851  1
  Ni  Ni7  1  0.17090119  0.83778549  0.17131021  1
  Ni  Ni8  1  0.00487342  0.67244937  0.33765339  1
  Fe  Fe9  1  0.33742347  1.00421141  1.00454482  1
  Fe  Fe10  1  0.50448817  0.17066668  0.17169739  1
  Fe  Fe11  1  0.33785586  1.00426261  0.33788240  1
  Fe  Fe12  1  0.33779177  0.33797493  0.00484862  1
  Fe  Fe13  1  0.50391819  0.50509346  0.17178417  1
  Ni  Ni14  1  0.33837620  0.33808639  0.33777037  1
  Ni  Ni15  1  0.33716729  0.67101307  1.00417337  1
  Fe  Fe16  1  0.50455255  0.83788338  0.17086916  1
  Fe  Fe17  1  0.33802608  0.67167089  0.33770988  1
  Ni  Ni18  1  0.67141708  0.00484127  1.00423584  1
  Fe  Fe19  1  0.83818073  0.17051328  0.17119865  1
  Ni  Ni20  1  0.67212250  0.00484001  0.33851214  1
  Fe  Fe21  1  0.67115071  0.33785897  0.00500498  1
  Fe  Fe22  1  0.83842396  0.50491967  0.17170019  1
  Ni  Ni23  1  0.66986615  0.33688068  0.33747920  1
  Fe  Fe24  1  0.67143029  0.67130809  0.00485166  1
  Fe  Fe25  1  0.83794533  0.83821078  0.17202341  1
  Ni  Ni26  1  0.67172392  0.67192236  0.33828355  1
  Fe  Fe27  1  0.17075480  0.17027800  0.50406165  1
  Fe  Fe28  1  0.00517328  1.00255640  0.67058573  1
  Fe  Fe29  1  0.17034624  0.17116829  0.83812047  1
  Fe  Fe30  1  0.17075245  0.50588164  0.50534368  1
  Fe  Fe31  1  0.00533165  0.33914725  0.67234530  1
  Ni  Ni32  1  0.17204327  0.50495028  0.83817288  1
  Ni  Ni33  1  0.17018713  0.83757000  0.50444938  1
  Ni  Ni34  1  0.00605107  0.67152460  0.67245002  1
  Ni  Ni35  1  0.17031627  0.83685850  0.83788171  1
  Fe  Fe36  1  0.50478779  0.17045400  0.50391234  1
  Fe  Fe37  1  0.33685525  1.00321286  0.67121601  1
  Fe  Fe38  1  0.50441624  0.17034566  0.83803302  1
  Fe  Fe39  1  0.50454698  0.50546171  0.50406198  1
  Fe  Fe40  1  0.33726970  0.33905920  0.67082549  1
  Fe  Fe41  1  0.50349854  0.50611662  0.83779408  1
  Fe  Fe42  1  0.50487429  0.83772740  0.50447925  1
  Ni  Ni43  1  0.33646294  0.67111885  0.67078284  1
  Fe  Fe44  1  0.50384663  0.83718056  0.83829498  1
  Fe  Fe45  1  0.83809817  0.16995219  0.50391146  1
  Fe  Fe46  1  0.67161301  1.00314992  0.67147410  1
  Fe  Fe47  1  0.83888126  0.17081835  0.83853321  1
  Fe  Fe48  1  0.83834328  0.50596946  0.50406275  1
  Fe  Fe49  1  0.67104268  0.33896748  0.67067061  1
  Fe  Fe50  1  0.83947612  0.50531675  0.83788168  1
  Ni  Ni51  1  0.83860987  0.83796397  0.50341675  1
  Fe  Fe52  1  0.67170289  0.67152775  0.67067111  1
  Ni  Ni53  1  0.83847579  0.83819807  0.83851326  1
" 