4160,Ni70Fe30_18,-236.580330717488, 201.616538900503,Ni70Fe30,"# generated using pymatgen
 data_Fe37Ni17
_symmetry_space_group_name_H-M   'P 1'
_cell_length_a   7.39597547
_cell_length_b   7.39597547
_cell_length_c   10.45948881
_cell_angle_alpha   90.00000000
_cell_angle_beta   90.00000000
_cell_angle_gamma   90.00000000
_symmetry_Int_Tables_number   1
_chemical_formula_structural   Fe37Ni17
_chemical_formula_sum   'Fe37 Ni17'
_cell_volume   572.13877740
_cell_formula_units_Z   1
loop_
 _symmetry_equiv_pos_site_id
 _symmetry_equiv_pos_as_xyz
  1  'x, y, z'
loop_
 _atom_site_type_symbol
 _atom_site_label
 _atom_site_symmetry_multiplicity
 _atom_site_fract_x
 _atom_site_fract_y
 _atom_site_fract_z
 _atom_site_occupancy
  Fe  Fe0  1  0.00581308  1.00403669  1.00445098  1
  Fe  Fe1  1  0.17217832  0.17050370  0.17142155  1
  Fe  Fe2  1  1.00423578  1.00454801  0.33813758  1
  Fe  Fe3  1  0.00485119  0.33834922  1.00433525  1
  Fe  Fe4  1  0.17218380  0.50586521  0.17149626  1
  Fe  Fe5  1  1.00386153  0.33785345  0.33826404  1
  Fe  Fe6  1  0.00568524  0.67203740  1.00424316  1
  Ni  Ni7  1  0.17312268  0.83823656  0.17239751  1
  Fe  Fe8  1  1.00410472  0.67201808  0.33842353  1
  Ni  Ni9  1  0.33739778  0.00526997  0.00489804  1
  Fe  Fe10  1  0.50430967  0.17027631  0.17163028  1
  Fe  Fe11  1  0.33906492  1.00388995  0.33766259  1
  Fe  Fe12  1  0.33841393  0.33842408  1.00425197  1
  Fe  Fe13  1  0.50445099  0.50621329  0.17133459  1
  Fe  Fe14  1  0.33883356  0.33792590  0.33908448  1
  Ni  Ni15  1  0.33859488  0.67212287  1.00415906  1
  Ni  Ni16  1  0.50408250  0.83750557  0.17180451  1
  Fe  Fe17  1  0.33928399  0.67259485  0.33728470  1
  Fe  Fe18  1  0.67025096  1.00389985  0.00522676  1
  Fe  Fe19  1  0.83792322  0.17026444  0.17133880  1
  Ni  Ni20  1  0.67145005  1.00397078  0.33777121  1
  Fe  Fe21  1  0.67114281  0.33856282  1.00446169  1
  Fe  Fe22  1  0.83779198  0.50622807  0.17105125  1
  Fe  Fe23  1  0.67171227  0.33806713  0.33797242  1
  Ni  Ni24  1  0.67159750  0.67165121  0.00488563  1
  Fe  Fe25  1  0.83758519  0.83791974  0.17207450  1
  Ni  Ni26  1  0.67182754  0.67246161  0.33803818  1
  Ni  Ni27  1  0.17061485  0.17201463  0.50424260  1
  Fe  Fe28  1  0.00531844  0.00497250  0.67182352  1
  Ni  Ni29  1  0.17038579  0.17118837  0.83871936  1
  Fe  Fe30  1  0.17204924  0.50464194  0.50508386  1
  Fe  Fe31  1  1.00467444  0.33863667  0.67180966  1
  Fe  Fe32  1  0.17116849  0.50487104  0.83784043  1
  Fe  Fe33  1  0.17145489  0.83835736  0.50494460  1
  Ni  Ni34  1  1.00361037  0.67159268  0.67185743  1
  Ni  Ni35  1  0.17353077  0.83868208  0.83755902  1
  Fe  Fe36  1  0.50420203  0.17117745  0.50465154  1
  Fe  Fe37  1  0.33784973  1.00403285  0.67208323  1
  Fe  Fe38  1  0.50437863  0.17117296  0.83814010  1
  Fe  Fe39  1  0.50437272  0.50472264  0.50495378  1
  Ni  Ni40  1  0.33722104  0.33670265  0.67222903  1
  Fe  Fe41  1  0.50482525  0.50493766  0.83812817  1
  Ni  Ni42  1  0.50500217  0.83719878  0.50409067  1
  Fe  Fe43  1  0.33836982  0.67166538  0.67201179  1
  Ni  Ni44  1  0.50370858  0.83711317  0.83850445  1
  Fe  Fe45  1  0.83784474  0.17060060  0.50476760  1
  Fe  Fe46  1  0.67124218  1.00423602  0.67096447  1
  Ni  Ni47  1  0.83912660  0.17394487  0.83767124  1
  Fe  Fe48  1  0.83799641  0.50561044  0.50542872  1
  Fe  Fe49  1  0.67209601  0.33914417  0.67197199  1
  Ni  Ni50  1  0.83757062  0.50337137  0.83804973  1
  Fe  Fe51  1  0.83776923  0.83820885  0.50464577  1
  Ni  Ni52  1  0.67283349  0.67196102  0.67149249  1
  Fe  Fe53  1  0.83849177  0.83800348  0.83769258  1
" 