6353,Ni70Fe20Cr8_6,-238.598925183778, 198.498923413189,Ni70Fe20Cr8,"# generated using pymatgen
 data_Cr5Fe11Ni38
_symmetry_space_group_name_H-M   'P 1'
_cell_length_a   7.43037402
_cell_length_b   7.43037402
_cell_length_c   10.50813571
_cell_angle_alpha   90.00000000
_cell_angle_beta   90.00000000
_cell_angle_gamma   90.00000000
_symmetry_Int_Tables_number   1
_chemical_formula_structural   Cr5Fe11Ni38
_chemical_formula_sum   'Cr5 Fe11 Ni38'
_cell_volume   580.15898629
_cell_formula_units_Z   1
loop_
 _symmetry_equiv_pos_site_id
 _symmetry_equiv_pos_as_xyz
  1  'x, y, z'
loop_
 _atom_site_type_symbol
 _atom_site_label
 _atom_site_symmetry_multiplicity
 _atom_site_fract_x
 _atom_site_fract_y
 _atom_site_fract_z
 _atom_site_occupancy
  Ni  Ni0  1  1.00199362  1.00204824  0.00332767  1
  Ni  Ni1  1  0.16903953  0.16780947  0.16914903  1
  Ni  Ni2  1  1.00193947  1.00207998  0.33571469  1
  Fe  Fe3  1  1.00166848  0.33513328  0.00277925  1
  Ni  Ni4  1  0.16934820  0.50187720  0.16892761  1
  Cr  Cr5  1  0.00309953  0.33488267  0.33495901  1
  Fe  Fe6  1  1.00050756  0.67030743  1.00243939  1
  Ni  Ni7  1  0.16904747  0.83771645  0.16993173  1
  Cr  Cr8  1  0.00303061  0.67095172  0.33501115  1
  Ni  Ni9  1  0.33532384  1.00230896  0.00317977  1
  Ni  Ni10  1  0.50213630  0.16807479  0.17104004  1
  Ni  Ni11  1  0.33648315  1.00234129  0.33454679  1
  Cr  Cr12  1  0.33509589  0.33447329  0.00302956  1
  Ni  Ni13  1  0.50288427  0.50267100  0.17216734  1
  Ni  Ni14  1  0.33750534  0.33669494  0.33492861  1
  Cr  Cr15  1  0.33659417  0.67035503  0.00258999  1
  Ni  Ni16  1  0.50292155  0.83665802  0.16977721  1
  Ni  Ni17  1  0.33729977  0.66836444  0.33573642  1
  Ni  Ni18  1  0.67008462  1.00050512  1.00228460  1
  Ni  Ni19  1  0.83622488  0.16777243  0.16924045  1
  Ni  Ni20  1  0.66897975  1.00228056  0.33497047  1
  Cr  Cr21  1  0.66990696  0.33591391  0.00283107  1
  Ni  Ni22  1  0.83516539  0.50266390  0.16846551  1
  Fe  Fe23  1  0.66682912  0.33523354  0.33531686  1
  Ni  Ni24  1  0.67111913  0.67058590  0.00322812  1
  Ni  Ni25  1  0.83543300  0.83696769  0.16798042  1
  Fe  Fe26  1  0.66677601  0.67004264  0.33554032  1
  Fe  Fe27  1  0.17046280  0.16789857  0.50290025  1
  Ni  Ni28  1  1.00240561  1.00179226  0.66836223  1
  Fe  Fe29  1  0.16853453  0.16761033  0.83515085  1
  Ni  Ni30  1  0.17126578  0.50219935  0.50446672  1
  Ni  Ni31  1  0.00267422  0.33681840  0.66988524  1
  Fe  Fe32  1  0.16751675  0.50257582  0.83373829  1
  Ni  Ni33  1  0.16918197  0.83654333  0.50288221  1
  Ni  Ni34  1  1.00188455  0.66879346  0.66958981  1
  Ni  Ni35  1  0.16839598  0.83695084  0.83458555  1
  Fe  Fe36  1  0.50173526  0.16852195  0.50268453  1
  Ni  Ni37  1  0.33588481  0.00282547  0.66967608  1
  Ni  Ni38  1  0.50268097  0.16811308  0.83389026  1
  Ni  Ni39  1  0.50160265  0.50192785  0.50221989  1
  Ni  Ni40  1  0.33592301  0.33609468  0.66931983  1
  Ni  Ni41  1  0.50351360  0.50238052  0.83301526  1
  Ni  Ni42  1  0.50240236  0.83552465  0.50270023  1
  Fe  Fe43  1  0.33590624  0.66924897  0.66851710  1
  Ni  Ni44  1  0.50274960  0.83691088  0.83492655  1
  Fe  Fe45  1  0.83520792  0.16754658  0.50352951  1
  Ni  Ni46  1  0.66911341  1.00203433  0.67014841  1
  Ni  Ni47  1  0.83628751  0.16886930  0.83482695  1
  Fe  Fe48  1  0.83453050  0.50388689  0.50483409  1
  Ni  Ni49  1  0.66880456  0.33661438  0.66901539  1
  Ni  Ni50  1  0.83624647  0.50241738  0.83456065  1
  Ni  Ni51  1  0.83581779  0.83757811  0.50355233  1
  Ni  Ni52  1  0.66983822  0.66875500  0.66931726  1
  Ni  Ni53  1  0.83625739  0.83611578  0.83587351  1
" 