2820,Ni70Fe30_12,-236.42784567261, 204.140600775333,Ni70Fe30,"# generated using pymatgen
 data_Fe37Ni17
_symmetry_space_group_name_H-M   'P 1'
_cell_length_a   7.39254005
_cell_length_b   7.39254005
_cell_length_c   10.45463040
_cell_angle_alpha   90.00000000
_cell_angle_beta   90.00000000
_cell_angle_gamma   90.00000000
_symmetry_Int_Tables_number   1
_chemical_formula_structural   Fe37Ni17
_chemical_formula_sum   'Fe37 Ni17'
_cell_volume   571.34187504
_cell_formula_units_Z   1
loop_
 _symmetry_equiv_pos_site_id
 _symmetry_equiv_pos_as_xyz
  1  'x, y, z'
loop_
 _atom_site_type_symbol
 _atom_site_label
 _atom_site_symmetry_multiplicity
 _atom_site_fract_x
 _atom_site_fract_y
 _atom_site_fract_z
 _atom_site_occupancy
  Fe  Fe0  1  1.00467663  1.00440474  1.00423755  1
  Fe  Fe1  1  0.17180661  0.17232462  0.17278095  1
  Fe  Fe2  1  0.00544498  0.00562214  0.33939997  1
  Fe  Fe3  1  1.00396350  0.33838095  0.00557393  1
  Fe  Fe4  1  0.17138076  0.50473304  0.17175097  1
  Ni  Ni5  1  0.00626642  0.33764342  0.33858523  1
  Ni  Ni6  1  0.00544715  0.67167898  1.00501018  1
  Ni  Ni7  1  0.17130031  0.83808057  0.17163787  1
  Fe  Fe8  1  1.00502857  0.67071877  0.33693803  1
  Fe  Fe9  1  0.33829126  1.00441825  0.00576401  1
  Ni  Ni10  1  0.50526002  0.17204306  0.17152897  1
  Fe  Fe11  1  0.33828627  0.00594795  0.33810369  1
  Fe  Fe12  1  0.33891592  0.33828393  0.00557402  1
  Fe  Fe13  1  0.50486865  0.50520544  0.17216048  1
  Ni  Ni14  1  0.33755488  0.33805378  0.33899530  1
  Fe  Fe15  1  0.33827216  0.67241943  1.00414894  1
  Fe  Fe16  1  0.50565850  0.83847537  0.17161545  1
  Fe  Fe17  1  0.33828980  0.67081021  0.33899645  1
  Ni  Ni18  1  0.67160224  0.00533970  1.00473789  1
  Fe  Fe19  1  0.83845139  0.17153846  0.17143705  1
  Fe  Fe20  1  0.67138768  0.00625088  0.33788659  1
  Fe  Fe21  1  0.67223912  0.33836255  1.00423838  1
  Ni  Ni22  1  0.83814203  0.50541084  0.17120484  1
  Fe  Fe23  1  0.67147736  0.33878021  0.33913009  1
  Fe  Fe24  1  0.67225056  0.67170664  0.00566360  1
  Fe  Fe25  1  0.83797955  0.83804965  0.17138693  1
  Ni  Ni26  1  0.67129869  0.67235598  0.33805906  1
  Ni  Ni27  1  0.17119605  0.17068073  0.50506451  1
  Ni  Ni28  1  1.00481400  0.00546503  0.67220792  1
  Fe  Fe29  1  0.17147010  0.17210300  0.83761191  1
  Fe  Fe30  1  0.17247728  0.50320440  0.50481568  1
  Fe  Fe31  1  1.00479393  0.33758677  0.67103443  1
  Fe  Fe32  1  0.17171913  0.50504714  0.83855120  1
  Fe  Fe33  1  0.17223660  0.83944418  0.50523107  1
  Fe  Fe34  1  0.00513880  0.67189593  0.67250687  1
  Fe  Fe35  1  0.17148013  0.83796769  0.83867586  1
  Ni  Ni36  1  0.50514708  0.17284409  0.50639073  1
  Fe  Fe37  1  0.33817988  0.00530062  0.67125498  1
  Fe  Fe38  1  0.50603964  0.17216694  0.83881972  1
  Ni  Ni39  1  0.50515155  0.50504510  0.50416872  1
  Fe  Fe40  1  0.33884195  0.33848131  0.67081064  1
  Ni  Ni41  1  0.50504758  0.50574645  0.83933613  1
  Fe  Fe42  1  0.50512782  0.83889682  0.50503972  1
  Ni  Ni43  1  0.33858675  0.67137827  0.67136858  1
  Fe  Fe44  1  0.50557167  0.83836201  0.83846016  1
  Ni  Ni45  1  0.83877467  0.17151691  0.50416276  1
  Fe  Fe46  1  0.67204054  0.00564613  0.67219372  1
  Ni  Ni47  1  0.83878347  0.17119359  0.83891309  1
  Fe  Fe48  1  0.83769024  0.50338146  0.50400917  1
  Ni  Ni49  1  0.67130464  0.33786034  0.67096866  1
  Fe  Fe50  1  0.83800354  0.50457931  0.83917277  1
  Fe  Fe51  1  0.83775280  0.83944949  0.50504062  1
  Fe  Fe52  1  0.67114893  0.67123338  0.67108114  1
  Fe  Fe53  1  0.83806645  0.83860960  0.83868910  1
" 