8159,Ni70Fe20Cr8_3,-238.668296582149, 200.49025144301,Ni70Fe20Cr8,"# generated using pymatgen
 data_Cr5Fe11Ni38
_symmetry_space_group_name_H-M   'P 1'
_cell_length_a   7.43277253
_cell_length_b   7.43277253
_cell_length_c   10.51152772
_cell_angle_alpha   90.00000000
_cell_angle_beta   90.00000000
_cell_angle_gamma   90.00000000
_symmetry_Int_Tables_number   1
_chemical_formula_structural   Cr5Fe11Ni38
_chemical_formula_sum   'Cr5 Fe11 Ni38'
_cell_volume   580.72099111
_cell_formula_units_Z   1
loop_
 _symmetry_equiv_pos_site_id
 _symmetry_equiv_pos_as_xyz
  1  'x, y, z'
loop_
 _atom_site_type_symbol
 _atom_site_label
 _atom_site_symmetry_multiplicity
 _atom_site_fract_x
 _atom_site_fract_y
 _atom_site_fract_z
 _atom_site_occupancy
  Ni  Ni0  1  0.00430540  1.00092285  1.00148685  1
  Ni  Ni1  1  0.16903716  0.16808811  0.16818815  1
  Ni  Ni2  1  0.00241603  0.00268310  0.33680596  1
  Ni  Ni3  1  0.00418977  0.33658316  1.00134094  1
  Ni  Ni4  1  0.16858460  0.50267314  0.16699194  1
  Ni  Ni5  1  1.00122801  0.33362256  0.33624341  1
  Ni  Ni6  1  0.00295276  0.66941056  0.00250966  1
  Ni  Ni7  1  0.17088967  0.83615346  0.16845777  1
  Cr  Cr8  1  1.00209207  0.67033664  0.33421170  1
  Fe  Fe9  1  0.33343043  0.00234641  1.00193966  1
  Fe  Fe10  1  0.50098248  0.16890967  0.16891031  1
  Fe  Fe11  1  0.33574332  1.00051505  0.33630829  1
  Ni  Ni12  1  0.33529802  0.33661489  1.00195213  1
  Fe  Fe13  1  0.50281806  0.50408642  0.16808416  1
  Cr  Cr14  1  0.33616061  0.33585102  0.33522565  1
  Ni  Ni15  1  0.33482023  0.66765912  1.00221226  1
  Ni  Ni16  1  0.50114565  0.83422731  0.16991240  1
  Ni  Ni17  1  0.33787117  0.67071301  0.33546484  1
  Cr  Cr18  1  0.66963548  1.00170105  1.00059653  1
  Cr  Cr19  1  0.83677945  0.17086901  0.16987163  1
  Ni  Ni20  1  0.66908691  1.00131455  0.33728984  1
  Ni  Ni21  1  0.66742520  0.33796798  1.00158339  1
  Ni  Ni22  1  0.83479469  0.50266290  0.16818850  1
  Ni  Ni23  1  0.66918580  0.33607973  0.33670713  1
  Ni  Ni24  1  0.66914313  0.66754537  0.00256503  1
  Ni  Ni25  1  0.83488173  0.83378087  0.16906624  1
  Ni  Ni26  1  0.66724923  0.66952369  0.33576645  1
  Ni  Ni27  1  0.16740358  0.16578374  0.50279495  1
  Ni  Ni28  1  0.00242754  1.00146336  0.66862527  1
  Ni  Ni29  1  0.16867581  0.16812329  0.83593425  1
  Cr  Cr30  1  0.16874476  0.50248935  0.50402040  1
  Fe  Fe31  1  1.00136229  0.33342592  0.66973464  1
  Ni  Ni32  1  0.16892128  0.50297626  0.83602178  1
  Ni  Ni33  1  0.17101953  0.83835639  0.50210391  1
  Fe  Fe34  1  1.00186874  0.66993399  0.67021656  1
  Ni  Ni35  1  0.16937994  0.83581664  0.83635535  1
  Ni  Ni36  1  0.50422898  0.16742643  0.50261030  1
  Ni  Ni37  1  0.33508604  0.00289322  0.66858676  1
  Ni  Ni38  1  0.50242573  0.16979930  0.83523862  1
  Ni  Ni39  1  0.50557950  0.50379946  0.50239589  1
  Ni  Ni40  1  0.33703519  0.33514768  0.66986364  1
  Ni  Ni41  1  0.50303909  0.50215999  0.83606464  1
  Ni  Ni42  1  0.50164135  0.83569387  0.50209724  1
  Fe  Fe43  1  0.33668842  0.67024009  0.66949913  1
  Fe  Fe44  1  0.50121435  0.83491375  0.83496872  1
  Ni  Ni45  1  0.83528244  0.16972539  0.50179335  1
  Ni  Ni46  1  0.66940377  0.00276837  0.66866863  1
  Ni  Ni47  1  0.83581312  0.17025733  0.83500609  1
  Ni  Ni48  1  0.83261699  0.50018347  0.50230000  1
  Ni  Ni49  1  0.66764976  0.33546756  0.66862501  1
  Ni  Ni50  1  0.83495521  0.50145570  0.83642896  1
  Fe  Fe51  1  0.83445880  0.83736487  0.50232551  1
  Fe  Fe52  1  0.66836232  0.66872030  0.66866945  1
  Fe  Fe53  1  0.83707470  0.83527895  0.83567639  1
" 