5027,Ni70Fe5Cr23_12,-229.850922562684, 160.473759863445,Ni70Fe5Cr23,"# generated using pymatgen
 data_Cr7FeNi19
_symmetry_space_group_name_H-M   'P 1'
_cell_length_a   7.47562712
_cell_length_b   7.47562712
_cell_length_c   10.57213326
_cell_angle_alpha   90.00000000
_cell_angle_beta   90.00000000
_cell_angle_gamma   90.00000000
_symmetry_Int_Tables_number   1
_chemical_formula_structural   Cr7FeNi19
_chemical_formula_sum   'Cr14 Fe2 Ni38'
_cell_volume   590.82367597
_cell_formula_units_Z   2
loop_
 _symmetry_equiv_pos_site_id
 _symmetry_equiv_pos_as_xyz
  1  'x, y, z'
loop_
 _atom_site_type_symbol
 _atom_site_label
 _atom_site_symmetry_multiplicity
 _atom_site_fract_x
 _atom_site_fract_y
 _atom_site_fract_z
 _atom_site_occupancy
  Ni  Ni0  1  0.99851160  0.99801544  0.00001295  1
  Ni  Ni1  1  0.16481666  0.16482049  0.16777077  1
  Cr  Cr2  1  0.99854858  0.99886544  0.33290971  1
  Cr  Cr3  1  -0.00010671  0.33126193  0.00200403  1
  Ni  Ni4  1  0.16738265  0.50142660  0.17031708  1
  Ni  Ni5  1  0.00096238  0.33313980  0.33180443  1
  Cr  Cr6  1  0.99921462  0.66762615  0.00018457  1
  Ni  Ni7  1  0.16644954  0.83183843  0.16656955  1
  Ni  Ni8  1  0.00206092  0.66556970  0.33268846  1
  Cr  Cr9  1  0.32947386  -0.00051635  0.99797296  1
  Cr  Cr10  1  0.50117974  0.16568729  0.16802220  1
  Ni  Ni11  1  0.33296518  0.99878798  0.33531144  1
  Cr  Cr12  1  0.33393870  0.33555867  0.99900047  1
  Ni  Ni13  1  0.49945198  0.50061255  0.16529123  1
  Ni  Ni14  1  0.33089255  0.33276509  0.33259465  1
  Ni  Ni15  1  0.33499371  0.66629526  0.00189065  1
  Fe  Fe16  1  0.49911494  0.83198612  0.16660185  1
  Ni  Ni17  1  0.33041235  0.66673498  0.33109269  1
  Ni  Ni18  1  0.66850677  0.99809973  0.00089757  1
  Ni  Ni19  1  0.83211315  0.16550349  0.16615275  1
  Ni  Ni20  1  0.66542887  0.00011551  0.33415150  1
  Ni  Ni21  1  0.66557777  0.33482923  0.99886567  1
  Ni  Ni22  1  0.83145639  0.49884815  0.16686813  1
  Ni  Ni23  1  0.66645835  0.33032211  0.33193277  1
  Ni  Ni24  1  0.66538685  0.66511804  -0.00041703  1
  Ni  Ni25  1  0.83285533  0.83367613  0.16460251  1
  Cr  Cr26  1  0.66640333  0.66819026  0.33180257  1
  Ni  Ni27  1  0.16810156  0.16770104  0.49943014  1
  Cr  Cr28  1  0.00076227  0.99855126  0.66588898  1
  Ni  Ni29  1  0.16781159  0.16399553  0.83103753  1
  Ni  Ni30  1  0.16643827  0.49999261  0.49856132  1
  Ni  Ni31  1  0.00122751  0.33286453  0.66480998  1
  Cr  Cr32  1  0.16648717  0.50135568  0.82928482  1
  Ni  Ni33  1  0.16807093  0.83058872  0.49993854  1
  Ni  Ni34  1  -0.00020186  0.66686675  0.66557502  1
  Ni  Ni35  1  0.16538341  0.83326274  0.83200032  1
  Ni  Ni36  1  0.49841807  0.16538758  0.49863553  1
  Fe  Fe37  1  0.33231890  -0.00001019  0.66454575  1
  Ni  Ni38  1  0.49906932  0.16839250  0.83126537  1
  Cr  Cr39  1  0.49701901  0.49857874  0.50023028  1
  Ni  Ni40  1  0.33282611  0.33170513  0.66638174  1
  Ni  Ni41  1  0.50175105  0.49900528  0.83237944  1
  Ni  Ni42  1  0.49696493  0.83440985  0.49795295  1
  Ni  Ni43  1  0.33233241  0.66588607  0.66525883  1
  Cr  Cr44  1  0.49900049  0.83130345  0.83382090  1
  Ni  Ni45  1  0.83157867  0.16724597  0.49724533  1
  Cr  Cr46  1  0.66498398  0.99875218  0.66210106  1
  Cr  Cr47  1  0.83195407  0.16676903  0.83528474  1
  Cr  Cr48  1  0.83620770  0.49831757  0.50116620  1
  Ni  Ni49  1  0.66420890  0.33316393  0.66753004  1
  Ni  Ni50  1  0.82900911  0.50124446  0.83056014  1
  Ni  Ni51  1  0.83308976  0.83240781  0.49973487  1
  Ni  Ni52  1  0.66612650  0.66589363  0.66765169  1
  Ni  Ni53  1  0.83362315  0.83020299  0.83384541  1
" 