2698,Ni70Fe5Cr23_18,-229.907037700109, 157.230011623027,Ni70Fe5Cr23,"# generated using pymatgen
 data_Cr7FeNi19
_symmetry_space_group_name_H-M   'P 1'
_cell_length_a   7.47215677
_cell_length_b   7.47215677
_cell_length_c   10.56722544
_cell_angle_alpha   90.00000000
_cell_angle_beta   90.00000000
_cell_angle_gamma   90.00000000
_symmetry_Int_Tables_number   1
_chemical_formula_structural   Cr7FeNi19
_chemical_formula_sum   'Cr14 Fe2 Ni38'
_cell_volume   590.00123815
_cell_formula_units_Z   2
loop_
 _symmetry_equiv_pos_site_id
 _symmetry_equiv_pos_as_xyz
  1  'x, y, z'
loop_
 _atom_site_type_symbol
 _atom_site_label
 _atom_site_symmetry_multiplicity
 _atom_site_fract_x
 _atom_site_fract_y
 _atom_site_fract_z
 _atom_site_occupancy
  Ni  Ni0  1  0.99754274  0.99940818  0.99863762  1
  Cr  Cr1  1  0.16687215  0.16631955  0.16859151  1
  Ni  Ni2  1  0.00043332  0.99852173  0.33415716  1
  Cr  Cr3  1  -0.00019058  0.33320226  0.99943452  1
  Ni  Ni4  1  0.16653737  0.50244880  0.16627485  1
  Ni  Ni5  1  0.99921096  0.33498908  0.33340939  1
  Ni  Ni6  1  0.00303272  0.66638256  0.00172078  1
  Ni  Ni7  1  0.16540692  0.82957438  0.16667028  1
  Ni  Ni8  1  0.00012171  0.66546241  0.33329007  1
  Cr  Cr9  1  0.33386385  0.00044644  0.99923788  1
  Ni  Ni10  1  0.50268895  0.16875094  0.16684708  1
  Ni  Ni11  1  0.33325069  0.99958654  0.33517223  1
  Ni  Ni12  1  0.33545616  0.33545008  0.99787613  1
  Fe  Fe13  1  0.49866599  0.49696800  0.16717492  1
  Ni  Ni14  1  0.33376908  0.33319354  0.33408221  1
  Ni  Ni15  1  0.33079600  0.66343034  0.99876913  1
  Cr  Cr16  1  0.49784775  0.83367478  0.16767619  1
  Ni  Ni17  1  0.33173092  0.66617329  0.33381723  1
  Ni  Ni18  1  0.66729495  0.00394038  0.99816962  1
  Ni  Ni19  1  0.82982536  0.16761943  0.16604967  1
  Ni  Ni20  1  0.66529477  0.00052482  0.33349468  1
  Ni  Ni21  1  0.66437011  0.32989534  0.00030420  1
  Ni  Ni22  1  0.83367538  0.49789050  0.16820561  1
  Ni  Ni23  1  0.66598851  0.33353039  0.33160816  1
  Cr  Cr24  1  0.66501308  0.66500789  0.99843448  1
  Cr  Cr25  1  0.83534683  0.83388852  0.16648555  1
  Ni  Ni26  1  0.66710681  0.66493663  0.33596213  1
  Ni  Ni27  1  0.16823398  0.16643630  0.50037879  1
  Fe  Fe28  1  0.00307156  0.00233647  0.66548607  1
  Ni  Ni29  1  0.16654653  0.16837814  0.83060183  1
  Ni  Ni30  1  0.16716913  0.49904103  0.49942372  1
  Ni  Ni31  1  0.00354701  0.33179162  0.66671328  1
  Ni  Ni32  1  0.17029176  0.49774013  0.83328143  1
  Ni  Ni33  1  0.16750298  0.83351323  0.49828048  1
  Cr  Cr34  1  0.00125015  0.66432712  0.66364827  1
  Cr  Cr35  1  0.16790037  0.83235152  0.83422584  1
  Ni  Ni36  1  0.49621255  0.16607954  0.49775830  1
  Ni  Ni37  1  0.33255943  0.00066406  0.66539470  1
  Ni  Ni38  1  0.49907834  0.16733398  0.83438246  1
  Ni  Ni39  1  0.49807056  0.50026176  0.49790357  1
  Ni  Ni40  1  0.33020585  0.33222412  0.66706559  1
  Ni  Ni41  1  0.49516426  0.49861914  0.83459750  1
  Ni  Ni42  1  0.49813544  0.83262448  0.49875030  1
  Ni  Ni43  1  0.33321197  0.66609998  0.66645407  1
  Ni  Ni44  1  0.49812314  0.83301450  0.83261344  1
  Cr  Cr45  1  0.83462190  0.16695094  0.49801279  1
  Cr  Cr46  1  0.66368840  0.99905197  0.66699368  1
  Ni  Ni47  1  0.83337779  0.16548814  0.83487206  1
  Ni  Ni48  1  0.83374171  0.50101076  0.49701051  1
  Cr  Cr49  1  0.66539306  0.33315361  0.66676844  1
  Cr  Cr50  1  0.83378142  0.49745072  0.83320626  1
  Ni  Ni51  1  0.83335696  0.83161390  0.49703348  1
  Cr  Cr52  1  0.66358756  0.66680137  0.66407889  1
  Cr  Cr53  1  0.83276216  0.83596318  0.83504944  1
" 