6117,Ni70Fe28Cr1_13,-241.818964464308, 214.838914199061,Ni70Fe28Cr1,"# generated using pymatgen
 data_CrFe15Ni38
_symmetry_space_group_name_H-M   'P 1'
_cell_length_a   7.41177019
_cell_length_b   7.41177019
_cell_length_c   10.48182593
_cell_angle_alpha   90.00000000
_cell_angle_beta   90.00000000
_cell_angle_gamma   90.00000000
_symmetry_Int_Tables_number   1
_chemical_formula_structural   CrFe15Ni38
_chemical_formula_sum   'Cr1 Fe15 Ni38'
_cell_volume   575.81216237
_cell_formula_units_Z   1
loop_
 _symmetry_equiv_pos_site_id
 _symmetry_equiv_pos_as_xyz
  1  'x, y, z'
loop_
 _atom_site_type_symbol
 _atom_site_label
 _atom_site_symmetry_multiplicity
 _atom_site_fract_x
 _atom_site_fract_y
 _atom_site_fract_z
 _atom_site_occupancy
  Ni  Ni0  1  1.00217252  0.00418608  0.00393568  1
  Ni  Ni1  1  0.17046336  0.17067526  0.17050378  1
  Fe  Fe2  1  0.00409829  0.00432223  0.33675642  1
  Ni  Ni3  1  0.00523941  0.33707805  1.00325950  1
  Ni  Ni4  1  0.17052181  0.50378130  0.17051037  1
  Ni  Ni5  1  0.00465033  0.33734253  0.33726798  1
  Fe  Fe6  1  0.00376335  0.67042860  1.00348990  1
  Ni  Ni7  1  0.16923627  0.83673150  0.17176563  1
  Fe  Fe8  1  0.00378448  0.66958354  0.33696157  1
  Cr  Cr9  1  0.33687209  0.00458246  0.00389930  1
  Ni  Ni10  1  0.50423457  0.17110173  0.17216656  1
  Ni  Ni11  1  0.33718484  1.00352421  0.33706012  1
  Ni  Ni12  1  0.33543628  0.33872903  0.00436835  1
  Ni  Ni13  1  0.50388065  0.50305880  0.16978566  1
  Ni  Ni14  1  0.33579459  0.33710982  0.33653353  1
  Fe  Fe15  1  0.33647598  0.66903722  0.00406129  1
  Fe  Fe16  1  0.50459283  0.83577560  0.17165416  1
  Ni  Ni17  1  0.33752622  0.67055241  0.33639681  1
  Ni  Ni18  1  0.67218800  1.00174489  0.00378718  1
  Fe  Fe19  1  0.83765414  0.17064244  0.17030703  1
  Ni  Ni20  1  0.66973581  1.00256782  0.33647148  1
  Fe  Fe21  1  0.67066439  0.33634803  1.00366583  1
  Ni  Ni22  1  0.83678455  0.50428712  0.17078187  1
  Ni  Ni23  1  0.67074412  0.33768351  0.33659034  1
  Ni  Ni24  1  0.67053733  0.67131216  0.00373795  1
  Ni  Ni25  1  0.83721372  0.83708144  0.16986260  1
  Ni  Ni26  1  0.66997020  0.67093539  0.33732797  1
  Ni  Ni27  1  0.16961866  0.17053912  0.50447725  1
  Ni  Ni28  1  0.00378316  1.00354537  0.67079535  1
  Fe  Fe29  1  0.16926543  0.17159456  0.83636381  1
  Ni  Ni30  1  0.17008636  0.50322028  0.50335142  1
  Ni  Ni31  1  0.00492117  0.33727406  0.67066023  1
  Ni  Ni32  1  0.16943322  0.50456047  0.83732259  1
  Fe  Fe33  1  0.17037156  0.83666515  0.50379250  1
  Ni  Ni34  1  1.00325719  0.67036633  0.67061387  1
  Ni  Ni35  1  0.17043636  0.83576036  0.83576142  1
  Fe  Fe36  1  0.50388487  0.17146947  0.50350959  1
  Fe  Fe37  1  0.33728289  0.00375368  0.67040298  1
  Ni  Ni38  1  0.50574875  0.16976753  0.83514642  1
  Ni  Ni39  1  0.50412141  0.50479262  0.50437975  1
  Ni  Ni40  1  0.33625076  0.33704082  0.67028507  1
  Fe  Fe41  1  0.50379101  0.50357805  0.83693655  1
  Ni  Ni42  1  0.50382458  0.83696413  0.50311848  1
  Fe  Fe43  1  0.33693649  0.67017817  0.67002434  1
  Ni  Ni44  1  0.50393847  0.83759795  0.83702636  1
  Ni  Ni45  1  0.83744149  0.17083732  0.50325002  1
  Ni  Ni46  1  0.67048946  1.00259108  0.67092777  1
  Ni  Ni47  1  0.83607091  0.17077098  0.83782922  1
  Ni  Ni48  1  0.83697922  0.50291975  0.50375755  1
  Ni  Ni49  1  0.67001313  0.33756497  0.67079751  1
  Ni  Ni50  1  0.83791257  0.50274763  0.83664715  1
  Fe  Fe51  1  0.83658554  0.83666858  0.50370481  1
  Ni  Ni52  1  0.67072139  0.67103210  0.67012210  1
  Fe  Fe53  1  0.83678140  0.83736386  0.83745461  1
" 