3541,Ni70Fe30_11,-236.461860209422, 199.570067821442,Ni70Fe30,"# generated using pymatgen
 data_Fe37Ni17
_symmetry_space_group_name_H-M   'P 1'
_cell_length_a   7.40419859
_cell_length_b   7.40419859
_cell_length_c   10.47111806
_cell_angle_alpha   90.00000000
_cell_angle_beta   90.00000000
_cell_angle_gamma   90.00000000
_symmetry_Int_Tables_number   1
_chemical_formula_structural   Fe37Ni17
_chemical_formula_sum   'Fe37 Ni17'
_cell_volume   574.04927498
_cell_formula_units_Z   1
loop_
 _symmetry_equiv_pos_site_id
 _symmetry_equiv_pos_as_xyz
  1  'x, y, z'
loop_
 _atom_site_type_symbol
 _atom_site_label
 _atom_site_symmetry_multiplicity
 _atom_site_fract_x
 _atom_site_fract_y
 _atom_site_fract_z
 _atom_site_occupancy
  Ni  Ni0  1  0.00490784  1.00345908  0.00481444  1
  Fe  Fe1  1  0.17054693  0.17021901  0.17091923  1
  Fe  Fe2  1  1.00360074  0.00488912  0.33737153  1
  Fe  Fe3  1  0.00493917  0.33760290  0.00516321  1
  Ni  Ni4  1  0.17062151  0.50367555  0.17024488  1
  Ni  Ni5  1  1.00315873  0.33836375  0.33748239  1
  Ni  Ni6  1  1.00325627  0.67079296  0.00433023  1
  Fe  Fe7  1  0.17054857  0.83825988  0.17027366  1
  Fe  Fe8  1  0.00470127  0.67048757  0.33689677  1
  Ni  Ni9  1  0.33761310  0.00437924  1.00373318  1
  Ni  Ni10  1  0.50439112  0.16934312  0.17110469  1
  Ni  Ni11  1  0.33839536  1.00391022  0.33818725  1
  Fe  Fe12  1  0.33629006  0.33741780  1.00408232  1
  Fe  Fe13  1  0.50563339  0.50416638  0.17082645  1
  Fe  Fe14  1  0.33669262  0.33750225  0.33749690  1
  Fe  Fe15  1  0.33624841  0.67151245  1.00424230  1
  Ni  Ni16  1  0.50476986  0.83933422  0.16991923  1
  Fe  Fe17  1  0.33705603  0.67070135  0.33790037  1
  Fe  Fe18  1  0.67167667  1.00348295  0.00478693  1
  Ni  Ni19  1  0.83681555  0.17025051  0.17002180  1
  Fe  Fe20  1  0.67111680  0.00453327  0.33758251  1
  Fe  Fe21  1  0.67151372  0.33665279  0.00479973  1
  Ni  Ni22  1  0.84012809  0.50405876  0.17062330  1
  Fe  Fe23  1  0.67134019  0.33640895  0.33709393  1
  Fe  Fe24  1  0.67186235  0.67260095  0.00456202  1
  Ni  Ni25  1  0.83643756  0.83842397  0.17099872  1
  Fe  Fe26  1  0.67098416  0.67179375  0.33749498  1
  Fe  Fe27  1  0.17042437  0.17017051  0.50392682  1
  Fe  Fe28  1  1.00320361  1.00408203  0.67128291  1
  Fe  Fe29  1  0.17053945  0.17021894  0.83788896  1
  Ni  Ni30  1  0.17160309  0.50334905  0.50480838  1
  Fe  Fe31  1  0.00464510  0.33781881  0.66997955  1
  Ni  Ni32  1  0.17150490  0.50355583  0.83767897  1
  Fe  Fe33  1  0.17077444  0.83801722  0.50416988  1
  Fe  Fe34  1  0.00432228  0.67083199  0.67159911  1
  Fe  Fe35  1  0.17018381  0.83748923  0.83829311  1
  Fe  Fe36  1  0.50440109  0.17020315  0.50372265  1
  Fe  Fe37  1  0.33805744  1.00408739  0.67067511  1
  Fe  Fe38  1  0.50384887  0.17091578  0.83826390  1
  Fe  Fe39  1  0.50498995  0.50480585  0.50464754  1
  Fe  Fe40  1  0.33710194  0.33829060  0.67115512  1
  Fe  Fe41  1  0.50446503  0.50461255  0.83725828  1
  Ni  Ni42  1  0.50510231  0.83833312  0.50513886  1
  Fe  Fe43  1  0.33741420  0.67034995  0.67058944  1
  Fe  Fe44  1  0.50378831  0.83720626  0.83757089  1
  Ni  Ni45  1  0.83729281  0.16978073  0.50465545  1
  Fe  Fe46  1  0.67146339  1.00377391  0.67036171  1
  Fe  Fe47  1  0.83834864  0.17089165  0.83749505  1
  Fe  Fe48  1  0.83761073  0.50446042  0.50355534  1
  Fe  Fe49  1  0.67099091  0.33717455  0.67083570  1
  Fe  Fe50  1  0.83805605  0.50496347  0.83826647  1
  Ni  Ni51  1  0.83601539  0.83922534  0.50405413  1
  Fe  Fe52  1  0.67099581  0.67179175  0.67067359  1
  Ni  Ni53  1  0.83679401  0.83856115  0.83768409  1
" 