8836,Ni70Fe27Cr1_15,-241.174413291772, 211.913525366712,Ni70Fe27Cr1,"# generated using pymatgen
 data_Cr2Fe15Ni37
_symmetry_space_group_name_H-M   'P 1'
_cell_length_a   7.41841698
_cell_length_b   7.41841698
_cell_length_c   10.49122590
_cell_angle_alpha   90.00000000
_cell_angle_beta   90.00000000
_cell_angle_gamma   90.00000000
_symmetry_Int_Tables_number   1
_chemical_formula_structural   Cr2Fe15Ni37
_chemical_formula_sum   'Cr2 Fe15 Ni37'
_cell_volume   577.36269540
_cell_formula_units_Z   1
loop_
 _symmetry_equiv_pos_site_id
 _symmetry_equiv_pos_as_xyz
  1  'x, y, z'
loop_
 _atom_site_type_symbol
 _atom_site_label
 _atom_site_symmetry_multiplicity
 _atom_site_fract_x
 _atom_site_fract_y
 _atom_site_fract_z
 _atom_site_occupancy
  Ni  Ni0  1  0.00377166  0.00408378  1.00244911  1
  Ni  Ni1  1  0.17127823  0.17073049  0.16964190  1
  Ni  Ni2  1  0.00414564  1.00292091  0.33828992  1
  Ni  Ni3  1  0.00406349  0.33571617  1.00241283  1
  Ni  Ni4  1  0.17059229  0.50204876  0.17020689  1
  Ni  Ni5  1  0.00474564  0.33679881  0.33795701  1
  Fe  Fe6  1  1.00027960  0.67069701  0.00422291  1
  Ni  Ni7  1  0.16991224  0.83715706  0.17126754  1
  Ni  Ni8  1  0.00393851  0.67041092  0.33547842  1
  Fe  Fe9  1  0.33720631  0.00486363  0.00436261  1
  Fe  Fe10  1  0.50239317  0.16856129  0.17127087  1
  Ni  Ni11  1  0.33612461  1.00265925  0.33603562  1
  Fe  Fe12  1  0.33798867  0.33460947  1.00307347  1
  Fe  Fe13  1  0.50419218  0.50294229  0.17035621  1
  Ni  Ni14  1  0.33588550  0.33703660  0.33581601  1
  Cr  Cr15  1  0.33628342  0.67025212  0.00355232  1
  Ni  Ni16  1  0.50386297  0.83640732  0.17036546  1
  Ni  Ni17  1  0.33690068  0.66991585  0.33720127  1
  Ni  Ni18  1  0.67093887  1.00266724  1.00212914  1
  Cr  Cr19  1  0.83681842  0.16998733  0.17267839  1
  Ni  Ni20  1  0.66933284  1.00179266  0.33827410  1
  Ni  Ni21  1  0.67077930  0.33632585  1.00215622  1
  Fe  Fe22  1  0.83761972  0.50484836  0.17027632  1
  Ni  Ni23  1  0.66917297  0.33748046  0.33840437  1
  Ni  Ni24  1  0.66934993  0.67038863  1.00294747  1
  Ni  Ni25  1  0.83567987  0.83591039  0.16978628  1
  Ni  Ni26  1  0.66913724  0.67072472  0.33633312  1
  Ni  Ni27  1  0.17079411  0.17025504  0.50290542  1
  Fe  Fe28  1  1.00316503  1.00283320  0.66919310  1
  Fe  Fe29  1  0.16852329  0.17049558  0.83635064  1
  Fe  Fe30  1  0.16935585  0.50317255  0.50264391  1
  Ni  Ni31  1  1.00326772  0.33570615  0.66964599  1
  Fe  Fe32  1  0.16717942  0.50366727  0.83600449  1
  Ni  Ni33  1  0.17085372  0.83645748  0.50217567  1
  Fe  Fe34  1  1.00149661  0.66888158  0.66921487  1
  Ni  Ni35  1  0.17026704  0.83804319  0.83599200  1
  Ni  Ni36  1  0.50290013  0.17091537  0.50279772  1
  Fe  Fe37  1  0.33767848  0.00425002  0.66834340  1
  Fe  Fe38  1  0.50522366  0.16940547  0.83509065  1
  Fe  Fe39  1  0.50326962  0.50339760  0.50466744  1
  Ni  Ni40  1  0.33489146  0.33828540  0.67089619  1
  Ni  Ni41  1  0.50354151  0.50158506  0.83543041  1
  Ni  Ni42  1  0.50263221  0.83641013  0.50413273  1
  Ni  Ni43  1  0.33564866  0.67037211  0.66952406  1
  Fe  Fe44  1  0.50575371  0.83635882  0.83536472  1
  Ni  Ni45  1  0.83635047  0.17106825  0.50336745  1
  Ni  Ni46  1  0.67158359  1.00257984  0.66952637  1
  Ni  Ni47  1  0.83653326  0.17055549  0.83559753  1
  Ni  Ni48  1  0.83551800  0.50285742  0.50263479  1
  Ni  Ni49  1  0.67061934  0.33623133  0.66985810  1
  Ni  Ni50  1  0.83453666  0.50250951  0.83803789  1
  Ni  Ni51  1  0.83629111  0.83553959  0.50275651  1
  Ni  Ni52  1  0.66854679  0.67073130  0.67080131  1
  Ni  Ni53  1  0.83818016  0.83649349  0.83709644  1
" 