4403,Ni70Fe9Cr20_8,-231.823489061488, 167.438419786022,Ni70Fe9Cr20,"# generated using pymatgen
 data_Cr6Fe2Ni19
_symmetry_space_group_name_H-M   'P 1'
_cell_length_a   7.46383696
_cell_length_b   7.46383696
_cell_length_c   10.55545946
_cell_angle_alpha   90.00000000
_cell_angle_beta   90.00000000
_cell_angle_gamma   90.00000000
_symmetry_Int_Tables_number   1
_chemical_formula_structural   Cr6Fe2Ni19
_chemical_formula_sum   'Cr12 Fe4 Ni38'
_cell_volume   588.03263672
_cell_formula_units_Z   2
loop_
 _symmetry_equiv_pos_site_id
 _symmetry_equiv_pos_as_xyz
  1  'x, y, z'
loop_
 _atom_site_type_symbol
 _atom_site_label
 _atom_site_symmetry_multiplicity
 _atom_site_fract_x
 _atom_site_fract_y
 _atom_site_fract_z
 _atom_site_occupancy
  Fe  Fe0  1  0.99826120  0.00298188  0.99910024  1
  Fe  Fe1  1  0.16764410  0.16807662  0.16713865  1
  Ni  Ni2  1  0.00137788  0.00093545  0.33378774  1
  Ni  Ni3  1  0.00046371  0.33444462  0.99857163  1
  Cr  Cr4  1  0.16569834  0.49733580  0.16598488  1
  Ni  Ni5  1  0.00045247  0.33400288  0.33508569  1
  Fe  Fe6  1  0.99863670  0.66477933  0.99951801  1
  Cr  Cr7  1  0.16500898  0.83511216  0.16600973  1
  Ni  Ni8  1  0.99764459  0.66590713  0.33346005  1
  Ni  Ni9  1  0.33331293  0.00423574  0.00067298  1
  Ni  Ni10  1  0.49973158  0.16864724  0.16674418  1
  Ni  Ni11  1  0.33224147  0.00435084  0.33400599  1
  Ni  Ni12  1  0.33338891  0.33147912  0.99951457  1
  Ni  Ni13  1  0.50127285  0.49578276  0.16693942  1
  Ni  Ni14  1  0.33394098  0.33081224  0.33376023  1
  Fe  Fe15  1  0.33451164  0.66324083  0.99922264  1
  Cr  Cr16  1  0.50103345  0.83611890  0.16767857  1
  Cr  Cr17  1  0.33344853  0.66426548  0.33518715  1
  Ni  Ni18  1  0.66700363  0.00135606  0.99937233  1
  Cr  Cr19  1  0.83264930  0.16841538  0.16758696  1
  Ni  Ni20  1  0.66710830  0.00163172  0.33290987  1
  Ni  Ni21  1  0.66681110  0.33335659  0.99933693  1
  Ni  Ni22  1  0.83357025  0.49951638  0.16819751  1
  Ni  Ni23  1  0.66631000  0.33493212  0.33367195  1
  Cr  Cr24  1  0.66932356  0.66481725  0.00106348  1
  Ni  Ni25  1  0.83470608  0.83390428  0.16750188  1
  Ni  Ni26  1  0.66978130  0.66415580  0.33224414  1
  Ni  Ni27  1  0.16542102  0.16845092  0.49836610  1
  Ni  Ni28  1  0.00073233  0.00208095  0.66770828  1
  Ni  Ni29  1  0.16587456  0.16935964  0.83503999  1
  Ni  Ni30  1  0.16590555  0.49910761  0.50145038  1
  Ni  Ni31  1  0.00071315  0.33366499  0.66704150  1
  Ni  Ni32  1  0.16676185  0.49816589  0.83337444  1
  Ni  Ni33  1  0.16498249  0.83312310  0.50027797  1
  Ni  Ni34  1  0.99980090  0.66486252  0.66731192  1
  Cr  Cr35  1  0.16590016  0.83201665  0.83360411  1
  Ni  Ni36  1  0.50087850  0.17084729  0.49813913  1
  Cr  Cr37  1  0.33089967  0.00455897  0.66471278  1
  Ni  Ni38  1  0.50059414  0.17045420  0.83549117  1
  Ni  Ni39  1  0.50082801  0.49702111  0.50099801  1
  Ni  Ni40  1  0.33272993  0.33491161  0.66730531  1
  Ni  Ni41  1  0.49927134  0.49688244  0.83289051  1
  Cr  Cr42  1  0.50001147  0.83260311  0.49984218  1
  Ni  Ni43  1  0.33227076  0.66260548  0.66686057  1
  Cr  Cr44  1  0.50023148  0.83281568  0.83309650  1
  Ni  Ni45  1  0.83433469  0.16964872  0.49990713  1
  Cr  Cr46  1  0.66916432  0.00358810  0.66863441  1
  Ni  Ni47  1  0.83413809  0.16864083  0.83384787  1
  Ni  Ni48  1  0.83390369  0.49784412  0.49951565  1
  Ni  Ni49  1  0.66722891  0.33573558  0.66773468  1
  Ni  Ni50  1  0.83460856  0.49834942  0.83288864  1
  Cr  Cr51  1  0.83525233  0.83330266  0.49945240  1
  Ni  Ni52  1  0.66851301  0.66258113  0.66769000  1
  Ni  Ni53  1  0.83532959  0.83379697  0.83416527  1
" 