8886,Ni70Fe28Cr1_7,-242.645679456467, 216.004844183533,Ni70Fe28Cr1,"# generated using pymatgen
 data_CrFe15Ni38
_symmetry_space_group_name_H-M   'P 1'
_cell_length_a   7.42020306
_cell_length_b   7.42020306
_cell_length_c   10.49375180
_cell_angle_alpha   90.00000000
_cell_angle_beta   90.00000000
_cell_angle_gamma   90.00000000
_symmetry_Int_Tables_number   1
_chemical_formula_structural   CrFe15Ni38
_chemical_formula_sum   'Cr1 Fe15 Ni38'
_cell_volume   577.77981907
_cell_formula_units_Z   1
loop_
 _symmetry_equiv_pos_site_id
 _symmetry_equiv_pos_as_xyz
  1  'x, y, z'
loop_
 _atom_site_type_symbol
 _atom_site_label
 _atom_site_symmetry_multiplicity
 _atom_site_fract_x
 _atom_site_fract_y
 _atom_site_fract_z
 _atom_site_occupancy
  Ni  Ni0  1  0.00371160  0.00374917  0.00372473  1
  Ni  Ni1  1  0.17075418  0.16961237  0.16986348  1
  Ni  Ni2  1  0.00539474  1.00271636  0.33631664  1
  Ni  Ni3  1  0.00393868  0.33603242  0.00343928  1
  Fe  Fe4  1  0.17017952  0.50246860  0.16992715  1
  Ni  Ni5  1  0.00372028  0.33698969  0.33624722  1
  Fe  Fe6  1  0.00316594  0.66935810  1.00315425  1
  Fe  Fe7  1  0.17005945  0.83731839  0.17041312  1
  Ni  Ni8  1  1.00198199  0.66976409  0.33582002  1
  Ni  Ni9  1  0.33611460  0.00404253  0.00354229  1
  Ni  Ni10  1  0.50071558  0.17014949  0.16872119  1
  Ni  Ni11  1  0.33463481  0.00380376  0.33619633  1
  Ni  Ni12  1  0.33585957  0.33570927  0.00322364  1
  Ni  Ni13  1  0.50410353  0.50354545  0.16988902  1
  Ni  Ni14  1  0.33628137  0.33587646  0.33616877  1
  Fe  Fe15  1  0.33631305  0.66965328  1.00279699  1
  Ni  Ni16  1  0.50297181  0.83577591  0.16885190  1
  Fe  Fe17  1  0.33644514  0.66977335  0.33717869  1
  Fe  Fe18  1  0.66976160  0.00349968  0.00327628  1
  Fe  Fe19  1  0.83692792  0.17072509  0.16919737  1
  Cr  Cr20  1  0.66978817  1.00210793  0.33607410  1
  Fe  Fe21  1  0.67005631  0.33623388  0.00341209  1
  Ni  Ni22  1  0.83571854  0.50405915  0.16991496  1
  Ni  Ni23  1  0.66946793  0.33928903  0.33559858  1
  Ni  Ni24  1  0.66996831  0.66994507  0.00357050  1
  Ni  Ni25  1  0.83625342  0.83466699  0.16887604  1
  Ni  Ni26  1  0.67055252  0.66811626  0.33676053  1
  Ni  Ni27  1  0.16979272  0.16981451  0.50371271  1
  Ni  Ni28  1  0.00318008  1.00310464  0.66943040  1
  Ni  Ni29  1  0.16984658  0.17026771  0.83589355  1
  Ni  Ni30  1  0.16946034  0.50251658  0.50321409  1
  Ni  Ni31  1  0.00340951  0.33662145  0.66978571  1
  Ni  Ni32  1  0.16955302  0.50229456  0.83669999  1
  Ni  Ni33  1  0.17084159  0.83713885  0.50315012  1
  Ni  Ni34  1  1.00252998  0.66974375  0.67045508  1
  Fe  Fe35  1  0.16889856  0.83695556  0.83569128  1
  Fe  Fe36  1  0.50219705  0.17032629  0.50365632  1
  Ni  Ni37  1  0.33640581  0.00333895  0.66972683  1
  Fe  Fe38  1  0.50269300  0.17080909  0.83655633  1
  Fe  Fe39  1  0.50340618  0.50338199  0.50290286  1
  Ni  Ni40  1  0.33611451  0.33632747  0.67007638  1
  Fe  Fe41  1  0.50316062  0.50223346  0.83661911  1
  Ni  Ni42  1  0.50244728  0.83572227  0.50389296  1
  Ni  Ni43  1  0.33676274  0.66980351  0.66995774  1
  Fe  Fe44  1  0.50315666  0.83642716  0.83609513  1
  Ni  Ni45  1  0.83784741  0.17094607  0.50368406  1
  Ni  Ni46  1  0.66988378  1.00245750  0.67032926  1
  Ni  Ni47  1  0.83711897  0.17026884  0.83699560  1
  Ni  Ni48  1  0.83642915  0.50313149  0.50341718  1
  Ni  Ni49  1  0.66994524  0.33697966  0.67005165  1
  Ni  Ni50  1  0.83675958  0.50294742  0.83613570  1
  Ni  Ni51  1  0.83618074  0.83539326  0.50475115  1
  Ni  Ni52  1  0.67017740  0.67003307  0.66913803  1
  Fe  Fe53  1  0.83741486  0.83648708  0.83627959  1
" 