5462,Ni70Fe27Cr1_9,-241.631495516579, 214.958907104444,Ni70Fe27Cr1,"# generated using pymatgen
 data_Cr2Fe15Ni37
_symmetry_space_group_name_H-M   'P 1'
_cell_length_a   7.41736806
_cell_length_b   7.41736806
_cell_length_c   10.48974251
_cell_angle_alpha   90.00000000
_cell_angle_beta   90.00000000
_cell_angle_gamma   90.00000000
_symmetry_Int_Tables_number   1
_chemical_formula_structural   Cr2Fe15Ni37
_chemical_formula_sum   'Cr2 Fe15 Ni37'
_cell_volume   577.11782394
_cell_formula_units_Z   1
loop_
 _symmetry_equiv_pos_site_id
 _symmetry_equiv_pos_as_xyz
  1  'x, y, z'
loop_
 _atom_site_type_symbol
 _atom_site_label
 _atom_site_symmetry_multiplicity
 _atom_site_fract_x
 _atom_site_fract_y
 _atom_site_fract_z
 _atom_site_occupancy
  Ni  Ni0  1  0.00437350  1.00295175  0.00362893  1
  Ni  Ni1  1  0.16848942  0.17031284  0.17106705  1
  Fe  Fe2  1  1.00188982  1.00279917  0.33635183  1
  Fe  Fe3  1  0.00568203  0.33595248  0.00425140  1
  Ni  Ni4  1  0.17151328  0.50304992  0.16848311  1
  Ni  Ni5  1  0.00337110  0.33700073  0.33644603  1
  Ni  Ni6  1  0.00423131  0.67221331  0.00383313  1
  Fe  Fe7  1  0.17116708  0.83665485  0.16979971  1
  Ni  Ni8  1  0.00457748  0.66850959  0.33677142  1
  Ni  Ni9  1  0.33528099  0.00370086  1.00321598  1
  Fe  Fe10  1  0.50118020  0.16935754  0.16861864  1
  Ni  Ni11  1  0.33701492  1.00307800  0.33644328  1
  Ni  Ni12  1  0.33869570  0.33607479  1.00283221  1
  Ni  Ni13  1  0.50201611  0.50642875  0.16945144  1
  Fe  Fe14  1  0.33521079  0.33874822  0.33545595  1
  Ni  Ni15  1  0.33661780  0.67062587  1.00208874  1
  Ni  Ni16  1  0.50362962  0.83536393  0.16920134  1
  Ni  Ni17  1  0.33608008  0.67202880  0.33615845  1
  Fe  Fe18  1  0.66965460  1.00186227  0.00392516  1
  Ni  Ni19  1  0.83830229  0.16792776  0.16773938  1
  Ni  Ni20  1  0.66797433  1.00326020  0.33630198  1
  Ni  Ni21  1  0.66943210  0.33580577  0.00518229  1
  Fe  Fe22  1  0.83795322  0.50396664  0.16952096  1
  Cr  Cr23  1  0.67051132  0.33671680  0.33599950  1
  Ni  Ni24  1  0.66972011  0.66853793  0.00378015  1
  Fe  Fe25  1  0.83674286  0.83526525  0.17027419  1
  Ni  Ni26  1  0.66973346  0.67117692  0.33774589  1
  Fe  Fe27  1  0.16996053  0.17003102  0.50324179  1
  Ni  Ni28  1  0.00493840  1.00273101  0.66896645  1
  Ni  Ni29  1  0.16966425  0.16833644  0.83659668  1
  Ni  Ni30  1  0.17073165  0.50331023  0.50429322  1
  Ni  Ni31  1  1.00089509  0.33560457  0.67046846  1
  Fe  Fe32  1  0.17017685  0.50324022  0.83681871  1
  Ni  Ni33  1  0.17080350  0.83660599  0.50137826  1
  Ni  Ni34  1  0.00517843  0.67135808  0.66882500  1
  Ni  Ni35  1  0.16965705  0.83764674  0.83774812  1
  Fe  Fe36  1  0.50281428  0.16879837  0.50484556  1
  Ni  Ni37  1  0.33630375  1.00220231  0.67082482  1
  Ni  Ni38  1  0.50360088  0.17077304  0.83764934  1
  Ni  Ni39  1  0.50127362  0.50496205  0.50387498  1
  Fe  Fe40  1  0.33501697  0.33705789  0.67162562  1
  Ni  Ni41  1  0.50206726  0.50362542  0.83669373  1
  Ni  Ni42  1  0.50264075  0.83598814  0.50401371  1
  Ni  Ni43  1  0.33595068  0.67207872  0.67146263  1
  Fe  Fe44  1  0.50372606  0.83799742  0.83740922  1
  Ni  Ni45  1  0.83799254  0.16904338  0.50448704  1
  Fe  Fe46  1  0.67145648  1.00313084  0.66965262  1
  Ni  Ni47  1  0.83709578  0.16771836  0.83762650  1
  Ni  Ni48  1  0.83721451  0.50346505  0.50338649  1
  Ni  Ni49  1  0.66937090  0.33575502  0.66900430  1
  Cr  Cr50  1  0.83580575  0.50320266  0.83753499  1
  Ni  Ni51  1  0.83662787  0.83759395  0.50216438  1
  Fe  Fe52  1  0.67053787  0.67067173  0.66899183  1
  Ni  Ni53  1  0.83829157  0.83853922  0.83668619  1
" 