712,Ni70Fe9Cr20_7,-232.057321950413, 171.690236964977,Ni70Fe9Cr20,"# generated using pymatgen
 data_Cr6Fe2Ni19
_symmetry_space_group_name_H-M   'P 1'
_cell_length_a   7.45978771
_cell_length_b   7.45978771
_cell_length_c   10.54973295
_cell_angle_alpha   90.00000000
_cell_angle_beta   90.00000000
_cell_angle_gamma   90.00000000
_symmetry_Int_Tables_number   1
_chemical_formula_structural   Cr6Fe2Ni19
_chemical_formula_sum   'Cr12 Fe4 Ni38'
_cell_volume   587.07610304
_cell_formula_units_Z   2
loop_
 _symmetry_equiv_pos_site_id
 _symmetry_equiv_pos_as_xyz
  1  'x, y, z'
loop_
 _atom_site_type_symbol
 _atom_site_label
 _atom_site_symmetry_multiplicity
 _atom_site_fract_x
 _atom_site_fract_y
 _atom_site_fract_z
 _atom_site_occupancy
  Ni  Ni0  1  0.00049903  0.99798952  1.00010994  1
  Ni  Ni1  1  0.16888153  0.16692745  0.16737446  1
  Ni  Ni2  1  0.00171009  0.99888784  0.33507620  1
  Ni  Ni3  1  0.00305105  0.33575106  1.00006433  1
  Ni  Ni4  1  0.16517292  0.49911401  0.16588669  1
  Ni  Ni5  1  0.00481609  0.33399394  0.33381111  1
  Ni  Ni6  1  0.00246331  0.66773766  1.00020936  1
  Ni  Ni7  1  0.16449799  0.83569670  0.16632332  1
  Ni  Ni8  1  0.99994864  0.66859679  0.33298090  1
  Ni  Ni9  1  0.33343519  0.00146002  0.99920268  1
  Ni  Ni10  1  0.49719261  0.16678349  0.16685819  1
  Ni  Ni11  1  0.33175801  0.00366772  0.33520602  1
  Ni  Ni12  1  0.33233377  0.33347455  0.00364997  1
  Ni  Ni13  1  0.49919661  0.49913839  0.16813482  1
  Ni  Ni14  1  0.33203267  0.33189587  0.33339662  1
  Fe  Fe15  1  0.33056501  0.66803392  1.00046125  1
  Cr  Cr16  1  0.50030161  0.83656516  0.16761777  1
  Cr  Cr17  1  0.33016685  0.66415410  0.33334456  1
  Ni  Ni18  1  0.66713186  1.00010938  0.99875475  1
  Cr  Cr19  1  0.83738263  0.16530045  0.16735011  1
  Ni  Ni20  1  0.66832127  0.99982576  0.33383937  1
  Cr  Cr21  1  0.66739272  0.33224993  0.99898587  1
  Ni  Ni22  1  0.83701847  0.50236479  0.16815971  1
  Cr  Cr23  1  0.66460918  0.33387246  0.33417963  1
  Cr  Cr24  1  0.67096604  0.66908426  0.00173684  1
  Ni  Ni25  1  0.83641561  0.83275462  0.16901201  1
  Ni  Ni26  1  0.66946030  0.66808657  0.33279487  1
  Ni  Ni27  1  0.16624155  0.16626551  0.49879572  1
  Ni  Ni28  1  0.99984800  0.99941459  0.66616865  1
  Cr  Cr29  1  0.16579457  0.16652336  0.83598875  1
  Ni  Ni30  1  0.16635439  0.49977248  0.50078913  1
  Ni  Ni31  1  0.00106335  0.33348610  0.66766890  1
  Ni  Ni32  1  0.16411235  0.50237116  0.83474495  1
  Ni  Ni33  1  0.16419038  0.83503859  0.50200113  1
  Ni  Ni34  1  0.00149548  0.66832331  0.66818309  1
  Ni  Ni35  1  0.16657608  0.83272738  0.83310112  1
  Ni  Ni36  1  0.49867767  0.16690237  0.49935646  1
  Fe  Fe37  1  0.33097751  0.99821565  0.66700345  1
  Ni  Ni38  1  0.50078625  0.16467372  0.83506936  1
  Ni  Ni39  1  0.50021820  0.49936087  0.50114906  1
  Cr  Cr40  1  0.33275367  0.33315638  0.66440030  1
  Cr  Cr41  1  0.49900539  0.50205805  0.83242059  1
  Cr  Cr42  1  0.50036162  0.83256664  0.49996472  1
  Ni  Ni43  1  0.33156145  0.66682778  0.66779042  1
  Ni  Ni44  1  0.49889280  0.83552454  0.83361762  1
  Fe  Fe45  1  0.83654403  0.16610976  0.50023355  1
  Cr  Cr46  1  0.66871013  0.00144152  0.66896662  1
  Ni  Ni47  1  0.83481697  0.16728298  0.83314662  1
  Cr  Cr48  1  0.83526724  0.50271927  0.50155874  1
  Fe  Fe49  1  0.66913700  0.33463486  0.66754084  1
  Ni  Ni50  1  0.83724876  0.50090420  0.83170659  1
  Ni  Ni51  1  0.83594034  0.83421322  0.49847299  1
  Ni  Ni52  1  0.66782120  0.66849797  0.66777331  1
  Ni  Ni53  1  0.83515912  0.83374786  0.83414255  1
" 