8120,Ni70Fe5Cr23_10,-229.617515451054, 156.159220857422,Ni70Fe5Cr23,"# generated using pymatgen
 data_Cr7FeNi19
_symmetry_space_group_name_H-M   'P 1'
_cell_length_a   7.47743432
_cell_length_b   7.47743432
_cell_length_c   10.57468902
_cell_angle_alpha   90.00000000
_cell_angle_beta   90.00000000
_cell_angle_gamma   90.00000000
_symmetry_Int_Tables_number   1
_chemical_formula_structural   Cr7FeNi19
_chemical_formula_sum   'Cr14 Fe2 Ni38'
_cell_volume   591.25226635
_cell_formula_units_Z   2
loop_
 _symmetry_equiv_pos_site_id
 _symmetry_equiv_pos_as_xyz
  1  'x, y, z'
loop_
 _atom_site_type_symbol
 _atom_site_label
 _atom_site_symmetry_multiplicity
 _atom_site_fract_x
 _atom_site_fract_y
 _atom_site_fract_z
 _atom_site_occupancy
  Ni  Ni0  1  -0.00046162  0.00074125  0.99759172  1
  Fe  Fe1  1  0.16557905  0.16536377  0.16476334  1
  Ni  Ni2  1  0.99898990  0.99723794  0.33480556  1
  Ni  Ni3  1  0.00171849  0.33155277  0.99829950  1
  Ni  Ni4  1  0.16543046  0.49872946  0.16583218  1
  Cr  Cr5  1  0.99771815  0.33230998  0.33304730  1
  Cr  Cr6  1  0.99733798  0.66529218  0.99851109  1
  Cr  Cr7  1  0.16510023  0.83340171  0.16923093  1
  Ni  Ni8  1  0.99704923  0.66771310  0.33255898  1
  Ni  Ni9  1  0.33100799  0.99928917  0.99872263  1
  Cr  Cr10  1  0.49900465  0.16302885  0.16467937  1
  Ni  Ni11  1  0.33287137  0.99718596  0.33457821  1
  Ni  Ni12  1  0.32891180  0.33306433  -0.00049529  1
  Ni  Ni13  1  0.49870822  0.50003106  0.16858670  1
  Cr  Cr14  1  0.33418281  0.33260802  0.33261893  1
  Cr  Cr15  1  0.33461458  0.66538466  0.99839464  1
  Ni  Ni16  1  0.50086414  0.83380725  0.16782272  1
  Ni  Ni17  1  0.33498051  0.66799099  0.33297526  1
  Ni  Ni18  1  0.66736122  0.99644863  0.99749571  1
  Cr  Cr19  1  0.83240498  0.16296515  0.16544706  1
  Ni  Ni20  1  0.66598640  0.99703233  0.33486887  1
  Cr  Cr21  1  0.66759383  0.33732263  0.99915608  1
  Ni  Ni22  1  0.83373374  0.50043155  0.16848452  1
  Ni  Ni23  1  0.66603669  0.33455141  0.33457653  1
  Cr  Cr24  1  0.66579221  0.66741180  -0.00013596  1
  Ni  Ni25  1  0.83137146  0.83324131  0.16766137  1
  Ni  Ni26  1  0.66589929  0.66616671  0.33160691  1
  Ni  Ni27  1  0.16694637  0.16515586  0.49815409  1
  Cr  Cr28  1  0.99849725  -0.00045554  0.66509916  1
  Ni  Ni29  1  0.16442150  0.16807318  0.83576900  1
  Cr  Cr30  1  0.16507401  0.50345063  0.50251292  1
  Ni  Ni31  1  0.00014216  0.33291584  0.66740953  1
  Ni  Ni32  1  0.16544897  0.49764980  0.83040690  1
  Ni  Ni33  1  0.16522883  0.83237840  0.49719800  1
  Ni  Ni34  1  0.99769690  0.66618702  0.66698398  1
  Ni  Ni35  1  0.16547927  0.83213733  0.83173499  1
  Ni  Ni36  1  0.50013877  0.16473964  0.49815833  1
  Cr  Cr37  1  0.33250258  0.99815362  0.66408656  1
  Cr  Cr38  1  0.49950706  0.16497514  0.83409347  1
  Ni  Ni39  1  0.50116067  0.50089666  0.49914114  1
  Ni  Ni40  1  0.33103103  0.33357352  0.66621730  1
  Ni  Ni41  1  0.49713043  0.50032018  0.83022675  1
  Ni  Ni42  1  0.50092981  0.83212843  0.49811772  1
  Ni  Ni43  1  0.33422288  0.66606271  0.66679909  1
  Ni  Ni44  1  0.50048557  0.83254297  0.83189398  1
  Fe  Fe45  1  0.83139988  0.16445024  0.49884769  1
  Ni  Ni46  1  0.66689887  0.99578678  0.66527784  1
  Ni  Ni47  1  0.83494942  0.16495109  0.83284156  1
  Ni  Ni48  1  0.83137975  0.50246082  0.49898401  1
  Cr  Cr49  1  0.66696638  0.33291476  0.66365199  1
  Ni  Ni50  1  0.83524092  0.49922183  0.83056680  1
  Ni  Ni51  1  0.83180722  0.83058313  0.49788045  1
  Ni  Ni52  1  0.66599668  0.66724275  0.66651276  1
  Ni  Ni53  1  0.83202406  0.83369421  0.83224416  1
" 