4079,Ni70Fe5Cr23_4,-229.697523298312, 157.437068463918,Ni70Fe5Cr23,"# generated using pymatgen
 data_Cr7FeNi19
_symmetry_space_group_name_H-M   'P 1'
_cell_length_a   7.47495642
_cell_length_b   7.47495642
_cell_length_c   10.57118474
_cell_angle_alpha   90.00000000
_cell_angle_beta   90.00000000
_cell_angle_gamma   90.00000000
_symmetry_Int_Tables_number   1
_chemical_formula_structural   Cr7FeNi19
_chemical_formula_sum   'Cr14 Fe2 Ni38'
_cell_volume   590.66466651
_cell_formula_units_Z   2
loop_
 _symmetry_equiv_pos_site_id
 _symmetry_equiv_pos_as_xyz
  1  'x, y, z'
loop_
 _atom_site_type_symbol
 _atom_site_label
 _atom_site_symmetry_multiplicity
 _atom_site_fract_x
 _atom_site_fract_y
 _atom_site_fract_z
 _atom_site_occupancy
  Cr  Cr0  1  -0.00008792  0.00315169  0.99788077  1
  Ni  Ni1  1  0.16727170  0.16924262  0.16622256  1
  Cr  Cr2  1  0.99919883  0.00089876  0.33527576  1
  Ni  Ni3  1  -0.00020869  0.33050416  -0.00031015  1
  Ni  Ni4  1  0.16784652  0.49616174  0.16718579  1
  Ni  Ni5  1  0.99934302  0.33241626  0.33219632  1
  Cr  Cr6  1  0.00028278  0.66312635  0.99911329  1
  Cr  Cr7  1  0.16955778  0.83190113  0.16599702  1
  Ni  Ni8  1  -0.00031424  0.66431697  0.33439667  1
  Fe  Fe9  1  0.33530997  0.00087288  0.99883159  1
  Fe  Fe10  1  0.49970232  0.16562328  0.16612095  1
  Ni  Ni11  1  0.33428733  0.99944768  0.33183067  1
  Ni  Ni12  1  0.33334120  0.33238708  -0.00045590  1
  Cr  Cr13  1  0.49835815  0.50017844  0.16699343  1
  Ni  Ni14  1  0.33144804  0.33121217  0.33105111  1
  Ni  Ni15  1  0.33604053  0.66577569  0.99853313  1
  Ni  Ni16  1  0.49936337  0.83441033  0.16610860  1
  Ni  Ni17  1  0.33340027  0.66754741  0.33278840  1
  Ni  Ni18  1  0.66296888  0.00163705  -0.00024129  1
  Ni  Ni19  1  0.83166727  0.16755928  0.16596088  1
  Ni  Ni20  1  0.66433713  -0.00028126  0.33275359  1
  Ni  Ni21  1  0.66541665  0.33128579  0.99775139  1
  Cr  Cr22  1  0.83324786  0.49791841  0.16637601  1
  Ni  Ni23  1  0.66777728  0.33142220  0.33262749  1
  Ni  Ni24  1  0.66126541  0.66575456  0.99766335  1
  Cr  Cr25  1  0.82794464  0.83448722  0.16675314  1
  Ni  Ni26  1  0.66536622  0.66732096  0.33441154  1
  Ni  Ni27  1  0.16571909  0.16722280  0.49872343  1
  Cr  Cr28  1  0.99925476  0.00041958  0.66492804  1
  Ni  Ni29  1  0.16713314  0.16757361  0.83342516  1
  Cr  Cr30  1  0.16616338  0.49809390  0.49897487  1
  Ni  Ni31  1  0.99746423  0.33246761  0.66639939  1
  Cr  Cr32  1  0.16682886  0.49861155  0.83197099  1
  Ni  Ni33  1  0.16734909  0.83178423  0.49878431  1
  Ni  Ni34  1  0.99854997  0.66547839  0.66505220  1
  Ni  Ni35  1  0.16975623  0.83289551  0.83287030  1
  Cr  Cr36  1  0.49983232  0.16608371  0.49815620  1
  Cr  Cr37  1  0.33366093  0.99914690  0.66700237  1
  Ni  Ni38  1  0.50044966  0.16690492  0.83420585  1
  Cr  Cr39  1  0.50037521  0.49945959  0.50038987  1
  Ni  Ni40  1  0.33341364  0.33263909  0.66806179  1
  Ni  Ni41  1  0.50056381  0.49906271  0.83242439  1
  Ni  Ni42  1  0.50049487  0.83248069  0.49827067  1
  Ni  Ni43  1  0.33440577  0.66717500  0.66710980  1
  Ni  Ni44  1  0.49927792  0.83256541  0.83388947  1
  Ni  Ni45  1  0.83206925  0.16774310  0.49953932  1
  Ni  Ni46  1  0.66593036  -0.00033902  0.66596802  1
  Ni  Ni47  1  0.83105984  0.16895169  0.83290304  1
  Ni  Ni48  1  0.83284270  0.49907735  0.49942863  1
  Ni  Ni49  1  0.66746227  0.33300167  0.66830619  1
  Ni  Ni50  1  0.83029800  0.49668725  0.83235806  1
  Ni  Ni51  1  0.83060995  0.83150228  0.49909013  1
  Ni  Ni52  1  0.66562950  0.66577243  0.66652689  1
  Cr  Cr53  1  0.83070585  0.83269210  0.83285743  1
" 