8342,Ni70Fe30_4,-236.352922163133, 207.098197794111,Ni70Fe30,"# generated using pymatgen
 data_Fe37Ni17
_symmetry_space_group_name_H-M   'P 1'
_cell_length_a   7.39670893
_cell_length_b   7.39670893
_cell_length_c   10.46052609
_cell_angle_alpha   90.00000000
_cell_angle_beta   90.00000000
_cell_angle_gamma   90.00000000
_symmetry_Int_Tables_number   1
_chemical_formula_structural   Fe37Ni17
_chemical_formula_sum   'Fe37 Ni17'
_cell_volume   572.30901212
_cell_formula_units_Z   1
loop_
 _symmetry_equiv_pos_site_id
 _symmetry_equiv_pos_as_xyz
  1  'x, y, z'
loop_
 _atom_site_type_symbol
 _atom_site_label
 _atom_site_symmetry_multiplicity
 _atom_site_fract_x
 _atom_site_fract_y
 _atom_site_fract_z
 _atom_site_occupancy
  Fe  Fe0  1  1.00351223  0.00539384  1.00463168  1
  Fe  Fe1  1  0.17061243  0.17061157  0.17136725  1
  Fe  Fe2  1  0.00520422  1.00395025  0.33829634  1
  Ni  Ni3  1  1.00393459  0.33781141  1.00435834  1
  Fe  Fe4  1  0.17100286  0.50577307  0.17090776  1
  Fe  Fe5  1  0.00490770  0.33875840  0.33793445  1
  Fe  Fe6  1  1.00387522  0.67111833  0.00513509  1
  Ni  Ni7  1  0.17104839  0.83714899  0.17103334  1
  Fe  Fe8  1  0.00497864  0.67155404  0.33762648  1
  Fe  Fe9  1  0.33869336  0.00584678  0.00500458  1
  Fe  Fe10  1  0.50511194  0.17041269  0.17090309  1
  Fe  Fe11  1  0.33830030  1.00409978  0.33813384  1
  Fe  Fe12  1  0.33859726  0.33749894  1.00389291  1
  Fe  Fe13  1  0.50467335  0.50592614  0.17150240  1
  Fe  Fe14  1  0.33822648  0.33822376  0.33864608  1
  Fe  Fe15  1  0.33807980  0.67091861  0.00483433  1
  Fe  Fe16  1  0.50467474  0.83792363  0.17200535  1
  Ni  Ni17  1  0.33790442  0.67179319  0.33807224  1
  Ni  Ni18  1  0.67197645  0.00538259  0.00485309  1
  Fe  Fe19  1  0.83854145  0.17061082  0.17069120  1
  Fe  Fe20  1  0.67075387  1.00417211  0.33793456  1
  Ni  Ni21  1  0.67245145  0.33696450  0.00523628  1
  Fe  Fe22  1  0.83859122  0.50533352  0.17157559  1
  Fe  Fe23  1  0.67113283  0.33845685  0.33882280  1
  Fe  Fe24  1  0.67231074  0.67121575  0.00522264  1
  Ni  Ni25  1  0.83892221  0.83790453  0.17170928  1
  Fe  Fe26  1  0.67128581  0.67163834  0.33823255  1
  Fe  Fe27  1  0.17124913  0.17134028  0.50494900  1
  Ni  Ni28  1  1.00395321  1.00467623  0.67152016  1
  Fe  Fe29  1  0.17111821  0.17208821  0.83794479  1
  Fe  Fe30  1  0.17223631  0.50447116  0.50539349  1
  Fe  Fe31  1  0.00490548  0.33830962  0.67185135  1
  Ni  Ni32  1  0.17131013  0.50554026  0.83844893  1
  Fe  Fe33  1  0.17156346  0.83845537  0.50438880  1
  Fe  Fe34  1  0.00527504  0.67041358  0.67150639  1
  Fe  Fe35  1  0.17142588  0.83858618  0.83807410  1
  Ni  Ni36  1  0.50519528  0.17054945  0.50493665  1
  Fe  Fe37  1  0.33880404  0.00540286  0.67112109  1
  Ni  Ni38  1  0.50591560  0.17130603  0.83799807  1
  Fe  Fe39  1  0.50535400  0.50433864  0.50502186  1
  Ni  Ni40  1  0.33925747  0.33951671  0.67113620  1
  Fe  Fe41  1  0.50466411  0.50345399  0.83773801  1
  Ni  Ni42  1  0.50357300  0.83884307  0.50439557  1
  Ni  Ni43  1  0.33801370  0.67085462  0.67096745  1
  Fe  Fe44  1  0.50467172  0.83835463  0.83766688  1
  Ni  Ni45  1  0.83715821  0.17266011  0.50455455  1
  Fe  Fe46  1  0.67054816  0.00576503  0.67170349  1
  Ni  Ni47  1  0.83663848  0.17169392  0.83848208  1
  Ni  Ni48  1  0.83918576  0.50401674  0.50515777  1
  Ni  Ni49  1  0.67105259  0.33750919  0.67131151  1
  Fe  Fe50  1  0.83779420  0.50315037  0.83796524  1
  Fe  Fe51  1  0.83735411  0.83890324  0.50438536  1
  Fe  Fe52  1  0.67106684  0.67106949  0.67081248  1
  Fe  Fe53  1  0.83816723  0.83904390  0.83876050  1
" 