4322,Ni70Fe27Cr1_8,-241.022790726785, 213.703615579251,Ni70Fe27Cr1,"# generated using pymatgen
 data_Cr2Fe15Ni37
_symmetry_space_group_name_H-M   'P 1'
_cell_length_a   7.41519714
_cell_length_b   7.41519714
_cell_length_c   10.48667236
_cell_angle_alpha   90.00000000
_cell_angle_beta   90.00000000
_cell_angle_gamma   90.00000000
_symmetry_Int_Tables_number   1
_chemical_formula_structural   Cr2Fe15Ni37
_chemical_formula_sum   'Cr2 Fe15 Ni37'
_cell_volume   576.61123786
_cell_formula_units_Z   1
loop_
 _symmetry_equiv_pos_site_id
 _symmetry_equiv_pos_as_xyz
  1  'x, y, z'
loop_
 _atom_site_type_symbol
 _atom_site_label
 _atom_site_symmetry_multiplicity
 _atom_site_fract_x
 _atom_site_fract_y
 _atom_site_fract_z
 _atom_site_occupancy
  Fe  Fe0  1  0.00435927  1.00341423  1.00335273  1
  Ni  Ni1  1  0.17015847  0.16988167  0.17051188  1
  Ni  Ni2  1  0.00352015  0.00488328  0.33625566  1
  Fe  Fe3  1  0.00565938  0.33686651  0.00366721  1
  Fe  Fe4  1  0.16984197  0.50186582  0.16859486  1
  Ni  Ni5  1  1.00229143  0.33587925  0.33600675  1
  Ni  Ni6  1  0.00421212  0.66997642  0.00421506  1
  Fe  Fe7  1  0.17008385  0.83810833  0.16940134  1
  Fe  Fe8  1  1.00176883  0.67058045  0.33670001  1
  Ni  Ni9  1  0.33708544  1.00286279  0.00378645  1
  Ni  Ni10  1  0.50171995  0.16912477  0.17096362  1
  Ni  Ni11  1  0.33639922  0.00442978  0.33669271  1
  Ni  Ni12  1  0.33555702  0.33735043  0.00430809  1
  Ni  Ni13  1  0.50400458  0.50399011  0.17001817  1
  Fe  Fe14  1  0.33699001  0.33488257  0.33643524  1
  Ni  Ni15  1  0.33598634  0.67027498  0.00359701  1
  Ni  Ni16  1  0.50375930  0.83737222  0.16927859  1
  Cr  Cr17  1  0.33832429  0.67093296  0.33678454  1
  Ni  Ni18  1  0.67006921  1.00250878  0.00411188  1
  Ni  Ni19  1  0.83861242  0.17012765  0.17070443  1
  Fe  Fe20  1  0.67026541  0.00356315  0.33683581  1
  Cr  Cr21  1  0.67020349  0.33644275  1.00305088  1
  Ni  Ni22  1  0.83736541  0.50402720  0.17113317  1
  Fe  Fe23  1  0.67050763  0.33668038  0.33696053  1
  Fe  Fe24  1  0.66916638  0.67171256  1.00349117  1
  Fe  Fe25  1  0.83593725  0.83722254  0.17010644  1
  Ni  Ni26  1  0.67111395  0.66949862  0.33583671  1
  Fe  Fe27  1  0.16992302  0.16956781  0.50350250  1
  Ni  Ni28  1  1.00328094  0.00407617  0.67040452  1
  Ni  Ni29  1  0.17016883  0.17014241  0.83675036  1
  Fe  Fe30  1  0.16948173  0.50281888  0.50487285  1
  Ni  Ni31  1  1.00277684  0.33642101  0.67090921  1
  Ni  Ni32  1  0.17016687  0.50261771  0.83717919  1
  Ni  Ni33  1  0.16953373  0.83819771  0.50453941  1
  Fe  Fe34  1  1.00332288  0.67036659  0.67086811  1
  Ni  Ni35  1  0.17043963  0.83772825  0.83711388  1
  Ni  Ni36  1  0.50308772  0.17026498  0.50317185  1
  Ni  Ni37  1  0.33652990  1.00261136  0.67001041  1
  Fe  Fe38  1  0.50221736  0.16928400  0.83606265  1
  Ni  Ni39  1  0.50469160  0.50263915  0.50427608  1
  Ni  Ni40  1  0.33676312  0.33761349  0.66978573  1
  Ni  Ni41  1  0.50293082  0.50460159  0.83619243  1
  Ni  Ni42  1  0.50341803  0.83758231  0.50453256  1
  Ni  Ni43  1  0.33752371  0.67026316  0.67045341  1
  Ni  Ni44  1  0.50341680  0.83650362  0.83667714  1
  Ni  Ni45  1  0.83717093  0.17056073  0.50367257  1
  Ni  Ni46  1  0.67067749  1.00331232  0.66960150  1
  Fe  Fe47  1  0.83776173  0.16922743  0.83555213  1
  Ni  Ni48  1  0.83655882  0.50333325  0.50349915  1
  Ni  Ni49  1  0.67094817  0.33741595  0.66958230  1
  Ni  Ni50  1  0.83739120  0.50432968  0.83585619  1
  Ni  Ni51  1  0.83753632  0.83659468  0.50297761  1
  Ni  Ni52  1  0.66948358  0.66975990  0.67088268  1
  Ni  Ni53  1  0.83663185  0.83650211  0.83706903  1
" 