5666,Ni70Fe28Cr1_3,-242.914128057786, 216.531817863489,Ni70Fe28Cr1,"# generated using pymatgen
 data_CrFe15Ni38
_symmetry_space_group_name_H-M   'P 1'
_cell_length_a   7.42058254
_cell_length_b   7.42058254
_cell_length_c   10.49428846
_cell_angle_alpha   90.00000000
_cell_angle_beta   90.00000000
_cell_angle_gamma   90.00000000
_symmetry_Int_Tables_number   1
_chemical_formula_structural   CrFe15Ni38
_chemical_formula_sum   'Cr1 Fe15 Ni38'
_cell_volume   577.86846845
_cell_formula_units_Z   1
loop_
 _symmetry_equiv_pos_site_id
 _symmetry_equiv_pos_as_xyz
  1  'x, y, z'
loop_
 _atom_site_type_symbol
 _atom_site_label
 _atom_site_symmetry_multiplicity
 _atom_site_fract_x
 _atom_site_fract_y
 _atom_site_fract_z
 _atom_site_occupancy
  Ni  Ni0  1  0.00359509  1.00312958  1.00266356  1
  Fe  Fe1  1  0.16928096  0.16934799  0.16961489  1
  Ni  Ni2  1  1.00304608  1.00277641  0.33681297  1
  Ni  Ni3  1  0.00362713  0.33643764  1.00263659  1
  Fe  Fe4  1  0.16918006  0.50290178  0.16938321  1
  Ni  Ni5  1  1.00301850  0.33640663  0.33658889  1
  Ni  Ni6  1  1.00085896  0.66982525  1.00263938  1
  Fe  Fe7  1  0.16919655  0.83714337  0.17055626  1
  Ni  Ni8  1  1.00183355  0.67020917  0.33687649  1
  Ni  Ni9  1  0.33663123  0.00450719  1.00292954  1
  Ni  Ni10  1  0.50221412  0.16883789  0.17035890  1
  Ni  Ni11  1  0.33619042  0.00449169  0.33579659  1
  Ni  Ni12  1  0.33654701  0.33500194  1.00290332  1
  Fe  Fe13  1  0.50449385  0.50321080  0.17077965  1
  Ni  Ni14  1  0.33730463  0.33577172  0.33690122  1
  Fe  Fe15  1  0.33571664  0.67002244  0.00341802  1
  Ni  Ni16  1  0.50313851  0.83738822  0.17025561  1
  Ni  Ni17  1  0.33677494  0.66912839  0.33586078  1
  Fe  Fe18  1  0.66990666  1.00290655  0.00380824  1
  Ni  Ni19  1  0.83661309  0.17041587  0.16977876  1
  Ni  Ni20  1  0.67015283  0.00330852  0.33571466  1
  Fe  Fe21  1  0.67047595  0.33617987  0.00386630  1
  Ni  Ni22  1  0.83765628  0.50354985  0.16981372  1
  Ni  Ni23  1  0.66907120  0.33698704  0.33678445  1
  Ni  Ni24  1  0.67059715  0.66991112  0.00331341  1
  Ni  Ni25  1  0.83607169  0.83542679  0.17033012  1
  Ni  Ni26  1  0.67078519  0.66909667  0.33570348  1
  Ni  Ni27  1  0.17077023  0.16980875  0.50252120  1
  Ni  Ni28  1  0.00385881  1.00278249  0.66991613  1
  Ni  Ni29  1  0.17107659  0.17099133  0.83708510  1
  Fe  Fe30  1  0.16987191  0.50308608  0.50336187  1
  Ni  Ni31  1  0.00386195  0.33648851  0.67016394  1
  Ni  Ni32  1  0.16831498  0.50182212  0.83601428  1
  Ni  Ni33  1  0.16775268  0.83732561  0.50334093  1
  Ni  Ni34  1  1.00106232  0.67012121  0.66987666  1
  Fe  Fe35  1  0.16943062  0.83697428  0.83598847  1
  Ni  Ni36  1  0.50126652  0.17163828  0.50266844  1
  Ni  Ni37  1  0.33567042  0.00529600  0.67066747  1
  Ni  Ni38  1  0.50114916  0.16863932  0.83636740  1
  Ni  Ni39  1  0.50373770  0.50093967  0.50296075  1
  Ni  Ni40  1  0.33675128  0.33505642  0.66958683  1
  Fe  Fe41  1  0.50313343  0.50321389  0.83592781  1
  Cr  Cr42  1  0.50319679  0.83714504  0.50232627  1
  Fe  Fe43  1  0.33483814  0.66908182  0.67006236  1
  Ni  Ni44  1  0.50367530  0.83758567  0.83646613  1
  Fe  Fe45  1  0.83679264  0.16961504  0.50216764  1
  Fe  Fe46  1  0.67068733  0.00362750  0.67046448  1
  Fe  Fe47  1  0.83742610  0.16980003  0.83698027  1
  Ni  Ni48  1  0.83684814  0.50395520  0.50269424  1
  Fe  Fe49  1  0.66995234  0.33668132  0.66904099  1
  Ni  Ni50  1  0.83817221  0.50434790  0.83688548  1
  Ni  Ni51  1  0.83867590  0.83485404  0.50240587  1
  Ni  Ni52  1  0.67129401  0.66904227  0.67037662  1
  Ni  Ni53  1  0.83581870  0.83482431  0.83665789  1
" 