3656,Ni70Fe5Cr23_7,-229.720466569098, 157.116224519955,Ni70Fe5Cr23,"# generated using pymatgen
 data_Cr7FeNi19
_symmetry_space_group_name_H-M   'P 1'
_cell_length_a   7.47550059
_cell_length_b   7.47550059
_cell_length_c   10.57195433
_cell_angle_alpha   90.00000000
_cell_angle_beta   90.00000000
_cell_angle_gamma   90.00000000
_symmetry_Int_Tables_number   1
_chemical_formula_structural   Cr7FeNi19
_chemical_formula_sum   'Cr14 Fe2 Ni38'
_cell_volume   590.79367739
_cell_formula_units_Z   2
loop_
 _symmetry_equiv_pos_site_id
 _symmetry_equiv_pos_as_xyz
  1  'x, y, z'
loop_
 _atom_site_type_symbol
 _atom_site_label
 _atom_site_symmetry_multiplicity
 _atom_site_fract_x
 _atom_site_fract_y
 _atom_site_fract_z
 _atom_site_occupancy
  Ni  Ni0  1  0.00231159  0.00221956  0.99827266  1
  Ni  Ni1  1  0.16746309  0.16658666  0.16439563  1
  Cr  Cr2  1  0.00020513  -0.00035306  0.33372358  1
  Ni  Ni3  1  0.99873431  0.33041657  0.99919593  1
  Cr  Cr4  1  0.16659667  0.49762870  0.16695913  1
  Ni  Ni5  1  0.99859495  0.33382141  0.33335964  1
  Cr  Cr6  1  0.99736016  0.66623650  -0.00045740  1
  Cr  Cr7  1  0.16750720  0.83397766  0.16539912  1
  Ni  Ni8  1  0.99661071  0.66558891  0.33400858  1
  Ni  Ni9  1  0.33190084  0.00079123  0.99889963  1
  Ni  Ni10  1  0.49724116  0.16508037  0.16558078  1
  Ni  Ni11  1  0.33523279  0.99849178  0.33372032  1
  Ni  Ni12  1  0.33451160  0.33083541  -0.00009737  1
  Ni  Ni13  1  0.50084530  0.50158301  0.16352288  1
  Cr  Cr14  1  0.33181221  0.32939323  0.33124261  1
  Ni  Ni15  1  0.33724929  0.66683550  0.99848446  1
  Ni  Ni16  1  0.50062812  0.83161112  0.16756682  1
  Ni  Ni17  1  0.33447843  0.66963484  0.33274671  1
  Cr  Cr18  1  0.66458302  0.99911202  -0.00014373  1
  Cr  Cr19  1  0.83368037  0.16574726  0.16429417  1
  Ni  Ni20  1  0.66352094  0.99646496  0.33380166  1
  Ni  Ni21  1  0.66510684  0.33558156  0.99788212  1
  Ni  Ni22  1  0.83124489  0.50102782  0.16662211  1
  Cr  Cr23  1  0.66679508  0.33247242  0.33308516  1
  Ni  Ni24  1  0.66375571  0.66323419  0.00093551  1
  Ni  Ni25  1  0.82987023  0.83035726  0.16726520  1
  Ni  Ni26  1  0.66715220  0.66877286  0.33102237  1
  Ni  Ni27  1  0.16531518  0.16491832  0.50068649  1
  Ni  Ni28  1  0.00228268  0.00037990  0.66579700  1
  Ni  Ni29  1  0.16571218  0.16536254  0.83316503  1
  Cr  Cr30  1  0.16509930  0.50019406  0.49959840  1
  Ni  Ni31  1  0.99800737  0.33115993  0.66569906  1
  Cr  Cr32  1  0.16767699  0.49843683  0.83166616  1
  Ni  Ni33  1  0.16638899  0.83305528  0.50137134  1
  Ni  Ni34  1  0.00031666  0.66683350  0.66462111  1
  Fe  Fe35  1  0.16867793  0.83526510  0.83155938  1
  Ni  Ni36  1  0.49924441  0.16341467  0.50038830  1
  Ni  Ni37  1  0.33075426  -0.00027752  0.66571461  1
  Ni  Ni38  1  0.49777716  0.16769530  0.83232506  1
  Cr  Cr39  1  0.49844600  0.50028860  0.50098221  1
  Ni  Ni40  1  0.33347685  0.33007791  0.66696330  1
  Ni  Ni41  1  0.49964887  0.49902947  0.83403918  1
  Ni  Ni42  1  0.49831660  0.83423678  0.49709118  1
  Ni  Ni43  1  0.33179257  0.66862665  0.66713876  1
  Ni  Ni44  1  0.49589496  0.83159740  0.83366170  1
  Ni  Ni45  1  0.83374690  0.16568948  0.50090631  1
  Cr  Cr46  1  0.66493602  0.00181677  0.66458701  1
  Ni  Ni47  1  0.83485327  0.16903754  0.83261609  1
  Fe  Fe48  1  0.83417903  0.49933203  0.49951947  1
  Ni  Ni49  1  0.66684288  0.33196438  0.66756323  1
  Ni  Ni50  1  0.83151437  0.49630552  0.83225791  1
  Ni  Ni51  1  0.83360558  0.83311351  0.49777495  1
  Cr  Cr52  1  0.66617958  0.66458826  0.66685935  1
  Cr  Cr53  1  0.83379014  0.83417754  0.83362866  1
" 