7870,Ni70Fe28Cr1_14,-242.171425984025, 217.963786093716,Ni70Fe28Cr1,"# generated using pymatgen
 data_CrFe15Ni38
_symmetry_space_group_name_H-M   'P 1'
_cell_length_a   7.41715165
_cell_length_b   7.41715165
_cell_length_c   10.48943645
_cell_angle_alpha   90.00000000
_cell_angle_beta   90.00000000
_cell_angle_gamma   90.00000000
_symmetry_Int_Tables_number   1
_chemical_formula_structural   CrFe15Ni38
_chemical_formula_sum   'Cr1 Fe15 Ni38'
_cell_volume   577.06731063
_cell_formula_units_Z   1
loop_
 _symmetry_equiv_pos_site_id
 _symmetry_equiv_pos_as_xyz
  1  'x, y, z'
loop_
 _atom_site_type_symbol
 _atom_site_label
 _atom_site_symmetry_multiplicity
 _atom_site_fract_x
 _atom_site_fract_y
 _atom_site_fract_z
 _atom_site_occupancy
  Ni  Ni0  1  0.00394409  1.00235221  0.00378670  1
  Fe  Fe1  1  0.16984879  0.17001162  0.16999186  1
  Fe  Fe2  1  1.00300226  0.00360297  0.33633764  1
  Ni  Ni3  1  0.00400241  0.33582362  1.00283656  1
  Ni  Ni4  1  0.17193632  0.50371900  0.17035216  1
  Ni  Ni5  1  0.00390189  0.33598299  0.33735800  1
  Ni  Ni6  1  1.00321630  0.67189385  1.00321945  1
  Ni  Ni7  1  0.17026864  0.83608584  0.16960347  1
  Ni  Ni8  1  0.00392238  0.67113658  0.33713985  1
  Ni  Ni9  1  0.33630642  0.00342624  0.00347479  1
  Fe  Fe10  1  0.50325557  0.17034843  0.16968303  1
  Fe  Fe11  1  0.33675277  1.00323682  0.33663696  1
  Ni  Ni12  1  0.33735769  0.33586052  0.00393177  1
  Ni  Ni13  1  0.50110144  0.50344620  0.16961321  1
  Ni  Ni14  1  0.33717696  0.33684791  0.33654266  1
  Fe  Fe15  1  0.33599799  0.66970414  0.00364921  1
  Ni  Ni16  1  0.50306183  0.83668518  0.16960832  1
  Ni  Ni17  1  0.33688080  0.66998106  0.33556956  1
  Fe  Fe18  1  0.67057786  0.00345938  1.00291211  1
  Ni  Ni19  1  0.83646303  0.16830993  0.16972098  1
  Fe  Fe20  1  0.67033452  0.00352560  0.33692599  1
  Ni  Ni21  1  0.66873213  0.33658206  1.00314272  1
  Cr  Cr22  1  0.83740657  0.50273408  0.17020590  1
  Ni  Ni23  1  0.66901123  0.33600813  0.33734665  1
  Ni  Ni24  1  0.66980324  0.67085353  1.00265147  1
  Ni  Ni25  1  0.83675642  0.83911429  0.16991734  1
  Ni  Ni26  1  0.66928894  0.67080358  0.33795321  1
  Ni  Ni27  1  0.16999819  0.17055786  0.50405736  1
  Ni  Ni28  1  1.00329583  1.00274575  0.66989939  1
  Fe  Fe29  1  0.17062944  0.16895516  0.83633992  1
  Ni  Ni30  1  0.16977676  0.50319157  0.50300601  1
  Ni  Ni31  1  1.00301619  0.33675211  0.66990724  1
  Ni  Ni32  1  0.16946045  0.50363830  0.83672440  1
  Fe  Fe33  1  0.17004985  0.83638097  0.50380553  1
  Ni  Ni34  1  0.00378984  0.67058069  0.66974035  1
  Ni  Ni35  1  0.16971269  0.83582568  0.83650989  1
  Ni  Ni36  1  0.50364059  0.17023246  0.50315802  1
  Ni  Ni37  1  0.33709719  1.00308665  0.66960506  1
  Ni  Ni38  1  0.50382311  0.16954000  0.83660905  1
  Ni  Ni39  1  0.50322238  0.50286139  0.50381559  1
  Ni  Ni40  1  0.33737430  0.33641544  0.66961786  1
  Fe  Fe41  1  0.50304545  0.50384970  0.83683860  1
  Fe  Fe42  1  0.50312291  0.83653707  0.50353464  1
  Ni  Ni43  1  0.33625904  0.67058467  0.67033130  1
  Ni  Ni44  1  0.50349946  0.83803877  0.83651553  1
  Ni  Ni45  1  0.83645317  0.17047358  0.50395073  1
  Ni  Ni46  1  0.66970617  0.00386533  0.67034641  1
  Fe  Fe47  1  0.83689312  0.16937085  0.83656030  1
  Ni  Ni48  1  0.83709161  0.50284670  0.50360087  1
  Ni  Ni49  1  0.66970221  0.33591424  0.66960030  1
  Fe  Fe50  1  0.83683497  0.50418005  0.83670364  1
  Fe  Fe51  1  0.83691762  0.83646191  0.50357890  1
  Fe  Fe52  1  0.67003152  0.67022359  0.67009821  1
  Ni  Ni53  1  0.83687929  0.83698560  0.83706519  1
" 