2860,Ni70Fe20Cr8_12,-238.838224375416, 201.038793313878,Ni70Fe20Cr8,"# generated using pymatgen
 data_Cr5Fe11Ni38
_symmetry_space_group_name_H-M   'P 1'
_cell_length_a   7.43399473
_cell_length_b   7.43399473
_cell_length_c   10.51325618
_cell_angle_alpha   90.00000000
_cell_angle_beta   90.00000000
_cell_angle_gamma   90.00000000
_symmetry_Int_Tables_number   1
_chemical_formula_structural   Cr5Fe11Ni38
_chemical_formula_sum   'Cr5 Fe11 Ni38'
_cell_volume   581.00750891
_cell_formula_units_Z   1
loop_
 _symmetry_equiv_pos_site_id
 _symmetry_equiv_pos_as_xyz
  1  'x, y, z'
loop_
 _atom_site_type_symbol
 _atom_site_label
 _atom_site_symmetry_multiplicity
 _atom_site_fract_x
 _atom_site_fract_y
 _atom_site_fract_z
 _atom_site_occupancy
  Ni  Ni0  1  1.00139611  0.00385583  0.00277703  1
  Ni  Ni1  1  0.16763000  0.16865449  0.16803393  1
  Ni  Ni2  1  1.00057316  0.00297177  0.33526509  1
  Ni  Ni3  1  1.00192687  0.33505225  0.00250860  1
  Ni  Ni4  1  0.16683791  0.50304169  0.16846682  1
  Ni  Ni5  1  0.99980279  0.33427598  0.33510305  1
  Ni  Ni6  1  1.00003942  0.66775884  0.00238813  1
  Ni  Ni7  1  0.16796136  0.83497280  0.17048387  1
  Ni  Ni8  1  1.00168283  0.66942012  0.33425590  1
  Ni  Ni9  1  0.33660349  0.00432511  0.00367720  1
  Ni  Ni10  1  0.50375315  0.16777530  0.16775835  1
  Fe  Fe11  1  0.33602119  1.00174758  0.33460105  1
  Fe  Fe12  1  0.33528797  0.33340652  1.00165298  1
  Fe  Fe13  1  0.50357202  0.50220982  0.16908168  1
  Cr  Cr14  1  0.33592092  0.33503189  0.33487042  1
  Cr  Cr15  1  0.33645952  0.66866172  0.00234047  1
  Ni  Ni16  1  0.50292652  0.83634470  0.17022567  1
  Ni  Ni17  1  0.33682650  0.67052808  0.33475830  1
  Ni  Ni18  1  0.66866587  0.00243846  1.00130548  1
  Ni  Ni19  1  0.83528599  0.16889535  0.16915414  1
  Ni  Ni20  1  0.66953272  0.00237707  0.33618604  1
  Ni  Ni21  1  0.66959976  0.33500933  1.00166229  1
  Fe  Fe22  1  0.83637010  0.50195382  0.16811853  1
  Ni  Ni23  1  0.67064078  0.33453506  0.33679699  1
  Ni  Ni24  1  0.67006580  0.66921885  0.00250942  1
  Ni  Ni25  1  0.83578419  0.83555365  0.16801982  1
  Fe  Fe26  1  0.66940714  0.66946037  0.33605649  1
  Ni  Ni27  1  0.16739099  0.16862861  0.50296351  1
  Fe  Fe28  1  1.00160642  0.00441214  0.66844826  1
  Ni  Ni29  1  0.16852175  0.17096006  0.83567120  1
  Cr  Cr30  1  0.16874020  0.50183182  0.50380354  1
  Ni  Ni31  1  0.00249090  0.33419311  0.66905633  1
  Ni  Ni32  1  0.16767084  0.50030099  0.83459689  1
  Cr  Cr33  1  0.16923219  0.83620153  0.50128123  1
  Fe  Fe34  1  1.00082129  0.66743478  0.66986993  1
  Cr  Cr35  1  0.16868958  0.83547286  0.83496041  1
  Ni  Ni36  1  0.50406889  0.16852457  0.50309159  1
  Ni  Ni37  1  0.33724461  0.00371403  0.66782264  1
  Ni  Ni38  1  0.50280577  0.16894074  0.83581974  1
  Ni  Ni39  1  0.50432647  0.50318520  0.50292090  1
  Ni  Ni40  1  0.33501084  0.33474718  0.67047669  1
  Ni  Ni41  1  0.50320622  0.50186680  0.83492839  1
  Ni  Ni42  1  0.50412860  0.83496275  0.50192207  1
  Ni  Ni43  1  0.33920813  0.66820834  0.66940384  1
  Ni  Ni44  1  0.50431127  0.83586186  0.83451827  1
  Ni  Ni45  1  0.83520341  0.16882655  0.50154498  1
  Fe  Fe46  1  0.66767456  0.00224791  0.66846897  1
  Ni  Ni47  1  0.83533627  0.16985659  0.83597042  1
  Fe  Fe48  1  0.83354989  0.50165365  0.50249450  1
  Fe  Fe49  1  0.66761115  0.33594261  0.66904562  1
  Ni  Ni50  1  0.83578901  0.50180638  0.83568597  1
  Ni  Ni51  1  0.83369340  0.83610991  0.50257960  1
  Ni  Ni52  1  0.66772526  0.66955980  0.66839016  1
  Fe  Fe53  1  0.83341483  0.83511960  0.83625348  1
" 