2107,Ni70Fe5Cr23_5,-229.383298279552, 150.317865442322,Ni70Fe5Cr23,"# generated using pymatgen
 data_Cr7FeNi19
_symmetry_space_group_name_H-M   'P 1'
_cell_length_a   7.47947011
_cell_length_b   7.47947011
_cell_length_c   10.57756808
_cell_angle_alpha   90.00000000
_cell_angle_beta   90.00000000
_cell_angle_gamma   90.00000000
_symmetry_Int_Tables_number   1
_chemical_formula_structural   Cr7FeNi19
_chemical_formula_sum   'Cr14 Fe2 Ni38'
_cell_volume   591.73531858
_cell_formula_units_Z   2
loop_
 _symmetry_equiv_pos_site_id
 _symmetry_equiv_pos_as_xyz
  1  'x, y, z'
loop_
 _atom_site_type_symbol
 _atom_site_label
 _atom_site_symmetry_multiplicity
 _atom_site_fract_x
 _atom_site_fract_y
 _atom_site_fract_z
 _atom_site_occupancy
  Ni  Ni0  1  0.00013011  0.99914019  -0.00062639  1
  Ni  Ni1  1  0.16624389  0.16519922  0.16572587  1
  Ni  Ni2  1  0.00078642  0.00137260  0.33243291  1
  Cr  Cr3  1  0.00037372  0.33197956  0.99844156  1
  Ni  Ni4  1  0.16796836  0.49640555  0.16672235  1
  Ni  Ni5  1  0.00008888  0.33072437  0.33087854  1
  Cr  Cr6  1  0.00017984  0.66638495  0.00203422  1
  Fe  Fe7  1  0.16774373  0.83574695  0.16537523  1
  Cr  Cr8  1  0.00269450  0.66702078  0.32968229  1
  Ni  Ni9  1  0.33304121  -0.00073320  -0.00036646  1
  Ni  Ni10  1  0.49737278  0.16217324  0.16659575  1
  Ni  Ni11  1  0.33207071  0.99915854  0.33120220  1
  Ni  Ni12  1  0.33191187  0.33144878  0.99897233  1
  Cr  Cr13  1  0.49709084  0.49941280  0.16558855  1
  Fe  Fe14  1  0.33185318  0.33064200  0.33150162  1
  Ni  Ni15  1  0.33307145  0.66696392  -0.00054082  1
  Ni  Ni16  1  0.49821584  0.83493765  0.16418870  1
  Ni  Ni17  1  0.33113439  0.66705518  0.33191488  1
  Ni  Ni18  1  0.66448433  0.99821950  -0.00010874  1
  Ni  Ni19  1  0.83376820  0.16279438  0.16763464  1
  Ni  Ni20  1  0.66490317  0.00248003  0.33140099  1
  Cr  Cr21  1  0.66407985  0.33088393  -0.00079785  1
  Ni  Ni22  1  0.83340783  0.49806201  0.16652056  1
  Ni  Ni23  1  0.66568950  0.32893634  0.33167377  1
  Ni  Ni24  1  0.66467426  0.66818594  0.99870253  1
  Ni  Ni25  1  0.83035265  0.83695252  0.16512628  1
  Cr  Cr26  1  0.66417914  0.66693976  0.33055446  1
  Ni  Ni27  1  0.16693307  0.16712965  0.49636434  1
  Cr  Cr28  1  0.00120350  -0.00081060  0.66531681  1
  Ni  Ni29  1  0.16851712  0.16563466  0.83505569  1
  Ni  Ni30  1  0.17041471  0.49743164  0.49759443  1
  Cr  Cr31  1  0.00214839  0.33055763  0.66899368  1
  Ni  Ni32  1  0.17082115  0.49930954  0.83286217  1
  Ni  Ni33  1  0.16725785  0.83320645  0.49625308  1
  Cr  Cr34  1  0.00233050  0.66800596  0.66576703  1
  Ni  Ni35  1  0.16773920  0.83277145  0.83564936  1
  Ni  Ni36  1  0.49678735  0.16797824  0.49487357  1
  Cr  Cr37  1  0.33184607  0.00114275  0.66704599  1
  Ni  Ni38  1  0.49567859  0.16548930  0.83578435  1
  Ni  Ni39  1  0.49443919  0.49729304  0.49888272  1
  Ni  Ni40  1  0.33281673  0.33347063  0.66530255  1
  Ni  Ni41  1  0.49570323  0.50112905  0.83252214  1
  Cr  Cr42  1  0.49925869  0.83132913  0.49899240  1
  Ni  Ni43  1  0.33286494  0.66467790  0.66618857  1
  Ni  Ni44  1  0.49875463  0.83096363  0.83502249  1
  Ni  Ni45  1  0.83347257  0.16381121  0.49484060  1
  Cr  Cr46  1  0.66454132  -0.00001456  0.66602367  1
  Ni  Ni47  1  0.83295528  0.16204424  0.83540869  1
  Cr  Cr48  1  0.83131704  0.49806920  0.49878891  1
  Cr  Cr49  1  0.66130038  0.32998163  0.66778544  1
  Ni  Ni50  1  0.83080224  0.50186186  0.83330012  1
  Ni  Ni51  1  0.83340652  0.83583780  0.49779861  1
  Ni  Ni52  1  0.66334940  0.66515079  0.66811585  1
  Ni  Ni53  1  0.83098590  0.83321653  0.83419299  1
" 