4273,Ni70Fe30_7,-236.532627893546, 205.901003559333,Ni70Fe30,"# generated using pymatgen
 data_Fe37Ni17
_symmetry_space_group_name_H-M   'P 1'
_cell_length_a   7.39758935
_cell_length_b   7.39758935
_cell_length_c   10.46177119
_cell_angle_alpha   90.00000000
_cell_angle_beta   90.00000000
_cell_angle_gamma   90.00000000
_symmetry_Int_Tables_number   1
_chemical_formula_structural   Fe37Ni17
_chemical_formula_sum   'Fe37 Ni17'
_cell_volume   572.51340086
_cell_formula_units_Z   1
loop_
 _symmetry_equiv_pos_site_id
 _symmetry_equiv_pos_as_xyz
  1  'x, y, z'
loop_
 _atom_site_type_symbol
 _atom_site_label
 _atom_site_symmetry_multiplicity
 _atom_site_fract_x
 _atom_site_fract_y
 _atom_site_fract_z
 _atom_site_occupancy
  Fe  Fe0  1  0.00488356  0.00547659  0.00469502  1
  Ni  Ni1  1  0.17132092  0.17196359  0.17203638  1
  Fe  Fe2  1  0.00483688  0.00521173  0.33811665  1
  Ni  Ni3  1  1.00389723  0.33998168  0.00469576  1
  Fe  Fe4  1  0.17150901  0.50485801  0.17153430  1
  Fe  Fe5  1  1.00456479  0.33774204  0.33772897  1
  Ni  Ni6  1  0.00518257  0.67081387  1.00410151  1
  Fe  Fe7  1  0.17157992  0.83816851  0.17121559  1
  Ni  Ni8  1  0.00517948  0.67126296  0.33841348  1
  Ni  Ni9  1  0.33883944  1.00409224  0.00480450  1
  Fe  Fe10  1  0.50416229  0.17090624  0.17196235  1
  Fe  Fe11  1  0.33809661  0.00476157  0.33711862  1
  Fe  Fe12  1  0.33702957  0.33777737  0.00560457  1
  Fe  Fe13  1  0.50401390  0.50408765  0.17144551  1
  Ni  Ni14  1  0.33823990  0.33772921  0.33792759  1
  Fe  Fe15  1  0.33820598  0.67130951  1.00460779  1
  Ni  Ni16  1  0.50443711  0.83790021  0.17158264  1
  Fe  Fe17  1  0.33840949  0.67165400  0.33789630  1
  Fe  Fe18  1  0.67163747  1.00429555  1.00455733  1
  Fe  Fe19  1  0.83764821  0.17098599  0.17165483  1
  Ni  Ni20  1  0.67069006  0.00511798  0.33809655  1
  Ni  Ni21  1  0.67172718  0.33752619  0.00491548  1
  Fe  Fe22  1  0.83856349  0.50478965  0.17074761  1
  Fe  Fe23  1  0.67165639  0.33804240  0.33886799  1
  Fe  Fe24  1  0.67172632  0.67127309  1.00424908  1
  Fe  Fe25  1  0.83841223  0.83831706  0.17132299  1
  Fe  Fe26  1  0.67121918  0.67137655  0.33785866  1
  Fe  Fe27  1  0.17115292  0.17218527  0.50395052  1
  Fe  Fe28  1  1.00344395  0.00529893  0.67127801  1
  Fe  Fe29  1  0.17092847  0.17076412  0.83917383  1
  Fe  Fe30  1  0.17099947  0.50382666  0.50416294  1
  Fe  Fe31  1  1.00314044  0.33765202  0.67166205  1
  Fe  Fe32  1  0.17047429  0.50597711  0.83838371  1
  Fe  Fe33  1  0.17045333  0.83807248  0.50456137  1
  Fe  Fe34  1  1.00306615  0.67113405  0.67149505  1
  Fe  Fe35  1  0.17084172  0.83734632  0.83830668  1
  Ni  Ni36  1  0.50448439  0.17063613  0.50401654  1
  Fe  Fe37  1  0.33935121  0.00513277  0.67204781  1
  Fe  Fe38  1  0.50617390  0.17092217  0.83735272  1
  Fe  Fe39  1  0.50541418  0.50302348  0.50469212  1
  Fe  Fe40  1  0.33912849  0.33728120  0.67036543  1
  Fe  Fe41  1  0.50603635  0.50519925  0.83794299  1
  Fe  Fe42  1  0.50609906  0.83901039  0.50469682  1
  Fe  Fe43  1  0.33937437  0.67166906  0.67157950  1
  Ni  Ni44  1  0.50487544  0.83843562  0.83780883  1
  Ni  Ni45  1  0.83772911  0.17270180  0.50468558  1
  Ni  Ni46  1  0.67089487  0.00557662  0.67206275  1
  Fe  Fe47  1  0.83697796  0.17130029  0.83743345  1
  Ni  Ni48  1  0.83860708  0.50415021  0.50447689  1
  Ni  Ni49  1  0.67127161  0.33686776  0.67046615  1
  Ni  Ni50  1  0.83869868  0.50493233  0.83822291  1
  Fe  Fe51  1  0.83753096  0.83886361  0.50481791  1
  Fe  Fe52  1  0.67164671  0.67135069  0.67197453  1
  Ni  Ni53  1  0.83704703  0.83677955  0.83813620  1
" 