707,Ni70Cr30_13,-211.665395665196, 148.377879304442,Ni70Cr30,"# generated using pymatgen
 data_Cr37Ni17
_symmetry_space_group_name_H-M   'P 1'
_cell_length_a   7.55550076
_cell_length_b   7.55550076
_cell_length_c   10.68509164
_cell_angle_alpha   90.00000000
_cell_angle_beta   90.00000000
_cell_angle_gamma   90.00000000
_symmetry_Int_Tables_number   1
_chemical_formula_structural   Cr37Ni17
_chemical_formula_sum   'Cr37 Ni17'
_cell_volume   609.96477924
_cell_formula_units_Z   1
loop_
 _symmetry_equiv_pos_site_id
 _symmetry_equiv_pos_as_xyz
  1  'x, y, z'
loop_
 _atom_site_type_symbol
 _atom_site_label
 _atom_site_symmetry_multiplicity
 _atom_site_fract_x
 _atom_site_fract_y
 _atom_site_fract_z
 _atom_site_occupancy
  Ni  Ni0  1  -0.00265919  0.99274894  -0.00542868  1
  Cr  Cr1  1  0.15790045  0.15975097  0.16106889  1
  Ni  Ni2  1  0.99253150  0.99322181  0.32713118  1
  Ni  Ni3  1  -0.00401643  0.32747123  -0.00459083  1
  Ni  Ni4  1  0.16229140  0.49732206  0.15958033  1
  Cr  Cr5  1  0.99306198  0.33077602  0.32848786  1
  Cr  Cr6  1  -0.00340712  0.66201455  -0.00487646  1
  Ni  Ni7  1  0.16123858  0.82621869  0.16041456  1
  Cr  Cr8  1  -0.00372776  0.66087970  0.32667989  1
  Cr  Cr9  1  0.32627376  0.99212252  0.99273745  1
  Ni  Ni10  1  0.49544878  0.15919353  0.16164557  1
  Cr  Cr11  1  0.32789021  0.99168856  0.32624200  1
  Cr  Cr12  1  0.32705026  0.32615496  -0.00426974  1
  Cr  Cr13  1  0.49196383  0.49637338  0.15951254  1
  Cr  Cr14  1  0.32698369  0.32892035  0.32425244  1
  Ni  Ni15  1  0.32500793  0.66245195  -0.00467328  1
  Cr  Cr16  1  0.49479832  0.82602281  0.16234950  1
  Ni  Ni17  1  0.32586693  0.66279526  0.32633237  1
  Cr  Cr18  1  0.65779192  0.99407266  0.99350209  1
  Cr  Cr19  1  0.82836975  0.15819391  0.16109294  1
  Ni  Ni20  1  0.66143709  -0.00510268  0.32900511  1
  Cr  Cr21  1  0.65948789  0.32690933  0.99355989  1
  Cr  Cr22  1  0.82735926  0.49406809  0.15758756  1
  Cr  Cr23  1  0.66137383  0.32710914  0.32885711  1
  Ni  Ni24  1  0.65867659  0.66135955  0.99400152  1
  Cr  Cr25  1  0.82792931  0.83051398  0.15976401  1
  Cr  Cr26  1  0.66210131  0.66119748  0.32868428  1
  Cr  Cr27  1  0.15802485  0.15944245  0.49345346  1
  Cr  Cr28  1  -0.00551853  0.99120601  0.66164131  1
  Cr  Cr29  1  0.15890610  0.16014936  0.82807401  1
  Cr  Cr30  1  0.16304580  0.49553489  0.49536825  1
  Cr  Cr31  1  0.99147388  0.33010933  0.65831657  1
  Cr  Cr32  1  0.16191660  0.49563358  0.82654833  1
  Cr  Cr33  1  0.16302917  0.82701896  0.49466350  1
  Ni  Ni34  1  -0.00343297  0.66116667  0.66076731  1
  Ni  Ni35  1  0.16117876  0.82475628  0.82794724  1
  Cr  Cr36  1  0.49379730  0.15842649  0.49279881  1
  Cr  Cr37  1  0.32861011  0.99222313  0.66376458  1
  Ni  Ni38  1  0.49436372  0.16083924  0.82779949  1
  Cr  Cr39  1  0.49145775  0.49832202  0.49453890  1
  Cr  Cr40  1  0.32905835  0.32533422  0.66214627  1
  Cr  Cr41  1  0.49257017  0.49606598  0.82823650  1
  Ni  Ni42  1  0.49314848  0.82640971  0.49301797  1
  Ni  Ni43  1  0.32547040  0.66387923  0.66072592  1
  Cr  Cr44  1  0.49306219  0.82371719  0.82700566  1
  Ni  Ni45  1  0.82718190  0.16009881  0.49174135  1
  Cr  Cr46  1  0.65924683  -0.00490295  0.66018208  1
  Cr  Cr47  1  0.82948718  0.16018270  0.82951895  1
  Ni  Ni48  1  0.82837336  0.49396373  0.49589492  1
  Cr  Cr49  1  0.66145447  0.32642962  0.65997899  1
  Cr  Cr50  1  0.82804444  0.49530204  0.82887721  1
  Cr  Cr51  1  0.82725438  0.82986217  0.49277433  1
  Cr  Cr52  1  0.66403562  0.66118817  0.65930879  1
  Cr  Cr53  1  0.82964336  0.82709995  0.83016697  1
" 