4320,Ni70Fe27Cr1_19,-241.424686462401, 214.470006812867,Ni70Fe27Cr1,"# generated using pymatgen
 data_Cr2Fe15Ni37
_symmetry_space_group_name_H-M   'P 1'
_cell_length_a   7.41906317
_cell_length_b   7.41906317
_cell_length_c   10.49213975
_cell_angle_alpha   90.00000000
_cell_angle_beta   90.00000000
_cell_angle_gamma   90.00000000
_symmetry_Int_Tables_number   1
_chemical_formula_structural   Cr2Fe15Ni37
_chemical_formula_sum   'Cr2 Fe15 Ni37'
_cell_volume   577.51358378
_cell_formula_units_Z   1
loop_
 _symmetry_equiv_pos_site_id
 _symmetry_equiv_pos_as_xyz
  1  'x, y, z'
loop_
 _atom_site_type_symbol
 _atom_site_label
 _atom_site_symmetry_multiplicity
 _atom_site_fract_x
 _atom_site_fract_y
 _atom_site_fract_z
 _atom_site_occupancy
  Ni  Ni0  1  1.00125167  1.00300260  0.00476499  1
  Fe  Fe1  1  0.16921955  0.17026215  0.17009083  1
  Fe  Fe2  1  1.00283040  1.00227425  0.33663231  1
  Ni  Ni3  1  1.00200933  0.33679204  0.00422288  1
  Ni  Ni4  1  0.16946541  0.50406957  0.16928742  1
  Ni  Ni5  1  1.00275837  0.33608679  0.33638434  1
  Ni  Ni6  1  0.00433174  0.66991067  0.00344254  1
  Ni  Ni7  1  0.17003364  0.83605662  0.16977331  1
  Ni  Ni8  1  1.00306028  0.66923559  0.33603200  1
  Fe  Fe9  1  0.33584171  1.00254378  0.00450372  1
  Ni  Ni10  1  0.50315573  0.16960128  0.16925463  1
  Fe  Fe11  1  0.33655530  1.00237583  0.33710100  1
  Fe  Fe12  1  0.33722768  0.33746882  0.00378718  1
  Ni  Ni13  1  0.50285790  0.50376454  0.16960096  1
  Fe  Fe14  1  0.33657230  0.33791094  0.33696991  1
  Ni  Ni15  1  0.33584025  0.66908673  0.00427392  1
  Ni  Ni16  1  0.50226946  0.83634149  0.16990280  1
  Ni  Ni17  1  0.33765930  0.67034706  0.33664666  1
  Ni  Ni18  1  0.67064419  0.00503978  0.00388587  1
  Ni  Ni19  1  0.83709251  0.17017150  0.16978757  1
  Fe  Fe20  1  0.67031379  1.00231540  0.33591318  1
  Fe  Fe21  1  0.67074344  0.33638234  1.00260067  1
  Ni  Ni22  1  0.83738657  0.50317847  0.17008175  1
  Fe  Fe23  1  0.67028607  0.33795921  0.33697962  1
  Fe  Fe24  1  0.67159568  0.66915437  0.00444549  1
  Ni  Ni25  1  0.83740101  0.83634888  0.16897395  1
  Ni  Ni26  1  0.66898397  0.67036456  0.33548896  1
  Ni  Ni27  1  0.16961717  0.16970707  0.50320715  1
  Ni  Ni28  1  1.00259172  1.00298438  0.66916446  1
  Cr  Cr29  1  0.16928678  0.16874697  0.83698819  1
  Fe  Fe30  1  0.16966124  0.50278400  0.50281809  1
  Ni  Ni31  1  1.00175919  0.33641901  0.66909465  1
  Fe  Fe32  1  0.16993211  0.50465004  0.83698985  1
  Fe  Fe33  1  0.16997909  0.83676917  0.50385933  1
  Ni  Ni34  1  1.00319972  0.67030164  0.67022313  1
  Ni  Ni35  1  0.16856491  0.83531008  0.83597531  1
  Ni  Ni36  1  0.50205622  0.16977470  0.50466561  1
  Ni  Ni37  1  0.33683710  0.00350082  0.66854475  1
  Ni  Ni38  1  0.50458554  0.17172833  0.83578073  1
  Ni  Ni39  1  0.50342896  0.50409284  0.50372812  1
  Ni  Ni40  1  0.33849156  0.33672055  0.66914075  1
  Ni  Ni41  1  0.50396158  0.50206479  0.83637175  1
  Ni  Ni42  1  0.50279023  0.83583938  0.50337300  1
  Ni  Ni43  1  0.33653191  0.66947952  0.66877796  1
  Cr  Cr44  1  0.50176055  0.83615302  0.83611521  1
  Ni  Ni45  1  0.83802756  0.17034573  0.50409999  1
  Fe  Fe46  1  0.67059396  0.00451343  0.66918019  1
  Ni  Ni47  1  0.83596542  0.17112422  0.83581851  1
  Ni  Ni48  1  0.83666725  0.50353238  0.50315758  1
  Ni  Ni49  1  0.66945721  0.33610647  0.67013314  1
  Ni  Ni50  1  0.83657664  0.50264828  0.83645822  1
  Ni  Ni51  1  0.83673105  0.83581896  0.50421561  1
  Ni  Ni52  1  0.66997166  0.66863973  0.66928430  1
  Fe  Fe53  1  0.83821492  0.83682778  0.83663447  1
" 