4058,Ni70Fe20Cr8_9,-238.249735706572, 197.67171892,Ni70Fe20Cr8,"# generated using pymatgen
 data_Cr5Fe11Ni38
_symmetry_space_group_name_H-M   'P 1'
_cell_length_a   7.43351194
_cell_length_b   7.43351194
_cell_length_c   10.51257340
_cell_angle_alpha   90.00000000
_cell_angle_beta   90.00000000
_cell_angle_gamma   90.00000000
_symmetry_Int_Tables_number   1
_chemical_formula_structural   Cr5Fe11Ni38
_chemical_formula_sum   'Cr5 Fe11 Ni38'
_cell_volume   580.89431752
_cell_formula_units_Z   1
loop_
 _symmetry_equiv_pos_site_id
 _symmetry_equiv_pos_as_xyz
  1  'x, y, z'
loop_
 _atom_site_type_symbol
 _atom_site_label
 _atom_site_symmetry_multiplicity
 _atom_site_fract_x
 _atom_site_fract_y
 _atom_site_fract_z
 _atom_site_occupancy
  Fe  Fe0  1  0.00233353  0.00246276  1.00207440  1
  Ni  Ni1  1  0.16759739  0.16907067  0.16862086  1
  Fe  Fe2  1  1.00168040  0.00248679  0.33581589  1
  Ni  Ni3  1  0.00241697  0.33631586  0.00256463  1
  Ni  Ni4  1  0.16577472  0.50174949  0.16699746  1
  Ni  Ni5  1  0.99994416  0.33574782  0.33530512  1
  Ni  Ni6  1  1.00157786  0.66881553  0.00299595  1
  Ni  Ni7  1  0.16562413  0.83594862  0.16886647  1
  Ni  Ni8  1  0.99989628  0.66898127  0.33507174  1
  Ni  Ni9  1  0.33503544  0.00386202  1.00171666  1
  Ni  Ni10  1  0.50309841  0.16877783  0.16889646  1
  Ni  Ni11  1  0.33512863  0.00342175  0.33666390  1
  Ni  Ni12  1  0.33509951  0.33296969  1.00182336  1
  Cr  Cr13  1  0.50276237  0.50062785  0.16711309  1
  Cr  Cr14  1  0.33522141  0.33181426  0.33579589  1
  Fe  Fe15  1  0.33370674  0.66779801  1.00016204  1
  Cr  Cr16  1  0.50362291  0.83697829  0.16818194  1
  Cr  Cr17  1  0.33368170  0.67146104  0.33631460  1
  Fe  Fe18  1  0.66963631  0.00341905  1.00156187  1
  Ni  Ni19  1  0.83607458  0.16862661  0.16892162  1
  Fe  Fe20  1  0.67004257  0.00313589  0.33662624  1
  Ni  Ni21  1  0.66925055  0.33498899  1.00199249  1
  Fe  Fe22  1  0.83773988  0.50196417  0.16848666  1
  Ni  Ni23  1  0.67167974  0.33441836  0.33593181  1
  Ni  Ni24  1  0.67148367  0.66874918  1.00029119  1
  Ni  Ni25  1  0.83744377  0.83578294  0.16918830  1
  Ni  Ni26  1  0.67306134  0.66896326  0.33781176  1
  Ni  Ni27  1  0.16790045  0.16908258  0.50268211  1
  Ni  Ni28  1  0.00492657  1.00182095  0.66910729  1
  Ni  Ni29  1  0.16924130  0.16912114  0.83546413  1
  Ni  Ni30  1  0.16804767  0.50162161  0.50376962  1
  Fe  Fe31  1  0.00266847  0.33576565  0.66880382  1
  Ni  Ni32  1  0.16884169  0.50190961  0.83599694  1
  Fe  Fe33  1  0.16884232  0.83688274  0.50342580  1
  Ni  Ni34  1  0.00266525  0.66931457  0.66869809  1
  Ni  Ni35  1  0.16833301  0.83573654  0.83506615  1
  Ni  Ni36  1  0.50218746  0.16914383  0.50119745  1
  Ni  Ni37  1  0.33347849  1.00214871  0.66838737  1
  Ni  Ni38  1  0.50105089  0.16999008  0.83667817  1
  Ni  Ni39  1  0.50334311  0.50286504  0.50424840  1
  Fe  Fe40  1  0.33573936  0.33600617  0.66914393  1
  Ni  Ni41  1  0.50276477  0.50235280  0.83524226  1
  Ni  Ni42  1  0.50349893  0.83476050  0.50196368  1
  Ni  Ni43  1  0.33511660  0.66961774  0.66937866  1
  Ni  Ni44  1  0.50240441  0.83442309  0.83642900  1
  Ni  Ni45  1  0.83668215  0.16892751  0.50159603  1
  Cr  Cr46  1  0.66816356  0.00268391  0.66970357  1
  Fe  Fe47  1  0.83628203  0.17027208  0.83620971  1
  Fe  Fe48  1  0.83473579  0.50191224  0.50233944  1
  Ni  Ni49  1  0.66866097  0.33727453  0.66883977  1
  Ni  Ni50  1  0.83516161  0.50326479  0.83540102  1
  Ni  Ni51  1  0.83544101  0.83490837  0.50099010  1
  Ni  Ni52  1  0.66898588  0.66663621  0.66865965  1
  Ni  Ni53  1  0.83602946  0.83402727  0.83659367  1
" 