1567,Ni70Fe20Cr8_4,-238.621568143868, 197.972937314639,Ni70Fe20Cr8,"# generated using pymatgen
 data_Cr5Fe11Ni38
_symmetry_space_group_name_H-M   'P 1'
_cell_length_a   7.43377853
_cell_length_b   7.43377853
_cell_length_c   10.51295041
_cell_angle_alpha   90.00000000
_cell_angle_beta   90.00000000
_cell_angle_gamma   90.00000000
_symmetry_Int_Tables_number   1
_chemical_formula_structural   Cr5Fe11Ni38
_chemical_formula_sum   'Cr5 Fe11 Ni38'
_cell_volume   580.95681719
_cell_formula_units_Z   1
loop_
 _symmetry_equiv_pos_site_id
 _symmetry_equiv_pos_as_xyz
  1  'x, y, z'
loop_
 _atom_site_type_symbol
 _atom_site_label
 _atom_site_symmetry_multiplicity
 _atom_site_fract_x
 _atom_site_fract_y
 _atom_site_fract_z
 _atom_site_occupancy
  Fe  Fe0  1  0.00377564  0.00238284  1.00197973  1
  Fe  Fe1  1  0.17067814  0.16964508  0.16806508  1
  Ni  Ni2  1  1.00169439  0.00292707  0.33374642  1
  Ni  Ni3  1  0.00291239  0.33557553  1.00149338  1
  Ni  Ni4  1  0.16974735  0.50419696  0.16952215  1
  Fe  Fe5  1  0.00285815  0.33373851  0.33504217  1
  Ni  Ni6  1  0.00384423  0.66835583  1.00035216  1
  Ni  Ni7  1  0.16838286  0.83485303  0.16917580  1
  Ni  Ni8  1  1.00175109  0.66997631  0.33553072  1
  Ni  Ni9  1  0.33358334  1.00031133  0.00259511  1
  Ni  Ni10  1  0.50310760  0.16979647  0.16985730  1
  Ni  Ni11  1  0.33580830  0.00356688  0.33562741  1
  Ni  Ni12  1  0.33361520  0.33724728  1.00194499  1
  Ni  Ni13  1  0.50093439  0.50133404  0.16872856  1
  Ni  Ni14  1  0.33657430  0.33492666  0.33522900  1
  Ni  Ni15  1  0.33516977  0.66932625  0.00262332  1
  Ni  Ni16  1  0.50012364  0.83567945  0.17181540  1
  Ni  Ni17  1  0.33672445  0.66807393  0.33328434  1
  Cr  Cr18  1  0.66922777  1.00096956  0.00310214  1
  Ni  Ni19  1  0.83509417  0.16826537  0.17016441  1
  Ni  Ni20  1  0.66932891  0.00284783  0.33655133  1
  Ni  Ni21  1  0.67031019  0.33708647  1.00186543  1
  Cr  Cr22  1  0.83512822  0.50180385  0.16969550  1
  Ni  Ni23  1  0.66780297  0.33467803  0.33614939  1
  Ni  Ni24  1  0.66751768  0.66829877  1.00052602  1
  Fe  Fe25  1  0.83492877  0.83444294  0.17017397  1
  Ni  Ni26  1  0.66768301  0.66898496  0.33737639  1
  Fe  Fe27  1  0.16973599  0.16807132  0.50321626  1
  Ni  Ni28  1  1.00098149  0.00398963  0.67119918  1
  Ni  Ni29  1  0.16735282  0.16848059  0.83498442  1
  Cr  Cr30  1  0.16919956  0.50301767  0.50142509  1
  Ni  Ni31  1  1.00060525  0.33512147  0.66890484  1
  Ni  Ni32  1  0.16848159  0.50257625  0.83508634  1
  Cr  Cr33  1  0.16755543  0.83627145  0.50255349  1
  Fe  Fe34  1  1.00055830  0.67010560  0.67040698  1
  Ni  Ni35  1  0.16864477  0.83553746  0.83531195  1
  Ni  Ni36  1  0.50370928  0.16920755  0.50194669  1
  Ni  Ni37  1  0.33548654  1.00036221  0.66862931  1
  Cr  Cr38  1  0.50239821  0.16990248  0.83568869  1
  Ni  Ni39  1  0.50312286  0.49999586  0.50180618  1
  Fe  Fe40  1  0.33590840  0.33468588  0.66889446  1
  Ni  Ni41  1  0.50236299  0.50312744  0.83623318  1
  Fe  Fe42  1  0.50283275  0.83495337  0.50200988  1
  Ni  Ni43  1  0.33708582  0.66834046  0.67109965  1
  Ni  Ni44  1  0.50130544  0.83421741  0.83331046  1
  Fe  Fe45  1  0.83531676  0.16853440  0.50240363  1
  Ni  Ni46  1  0.67031704  1.00212186  0.66735061  1
  Ni  Ni47  1  0.83722086  0.16962552  0.83466705  1
  Fe  Fe48  1  0.83333860  0.50277033  0.50221396  1
  Ni  Ni49  1  0.67123737  0.33650884  0.66893356  1
  Ni  Ni50  1  0.83585071  0.50177673  0.83443592  1
  Ni  Ni51  1  0.83563764  0.83708927  0.50112837  1
  Fe  Fe52  1  0.66926642  0.66965961  0.66901679  1
  Ni  Ni53  1  0.83701581  0.83549375  0.83576106  1
" 