2943,Ni70Fe20Cr8_5,-238.656340376067, 199.796566565288,Ni70Fe20Cr8,"# generated using pymatgen
 data_Cr5Fe11Ni38
_symmetry_space_group_name_H-M   'P 1'
_cell_length_a   7.43380487
_cell_length_b   7.43380487
_cell_length_c   10.51298766
_cell_angle_alpha   90.00000000
_cell_angle_beta   90.00000000
_cell_angle_gamma   90.00000000
_symmetry_Int_Tables_number   1
_chemical_formula_structural   Cr5Fe11Ni38
_chemical_formula_sum   'Cr5 Fe11 Ni38'
_cell_volume   580.96299274
_cell_formula_units_Z   1
loop_
 _symmetry_equiv_pos_site_id
 _symmetry_equiv_pos_as_xyz
  1  'x, y, z'
loop_
 _atom_site_type_symbol
 _atom_site_label
 _atom_site_symmetry_multiplicity
 _atom_site_fract_x
 _atom_site_fract_y
 _atom_site_fract_z
 _atom_site_occupancy
  Fe  Fe0  1  1.00186106  1.00217993  0.00233305  1
  Ni  Ni1  1  0.16735091  0.16949287  0.16930703  1
  Ni  Ni2  1  1.00194375  0.00355049  0.33423696  1
  Fe  Fe3  1  0.00229935  0.33604990  0.00278283  1
  Ni  Ni4  1  0.16905789  0.50191423  0.16876720  1
  Ni  Ni5  1  0.00251026  0.33416418  0.33580765  1
  Ni  Ni6  1  1.00201974  0.66922776  0.00255118  1
  Fe  Fe7  1  0.16698057  0.83507797  0.16922727  1
  Fe  Fe8  1  0.00244924  0.66731813  0.33494381  1
  Ni  Ni9  1  0.33397087  0.00314058  1.00034193  1
  Cr  Cr10  1  0.50205053  0.17029409  0.16906238  1
  Fe  Fe11  1  0.33363749  0.00359096  0.33605077  1
  Ni  Ni12  1  0.33504336  0.33635088  1.00197893  1
  Ni  Ni13  1  0.50142700  0.50294069  0.16920655  1
  Ni  Ni14  1  0.33480010  0.33746980  0.33610170  1
  Ni  Ni15  1  0.33449553  0.66721518  1.00096125  1
  Cr  Cr16  1  0.50340419  0.83411627  0.16910175  1
  Ni  Ni17  1  0.33470109  0.66621560  0.33582855  1
  Ni  Ni18  1  0.67105446  0.00254623  1.00040444  1
  Ni  Ni19  1  0.83760743  0.16786869  0.16878903  1
  Ni  Ni20  1  0.67216593  0.00365706  0.33578487  1
  Ni  Ni21  1  0.66904792  0.33601268  1.00126265  1
  Ni  Ni22  1  0.83622118  0.50321591  0.16904267  1
  Ni  Ni23  1  0.66939539  0.33626864  0.33734367  1
  Ni  Ni24  1  0.67018929  0.66814828  1.00163477  1
  Ni  Ni25  1  0.83658828  0.83562134  0.16936993  1
  Ni  Ni26  1  0.66885816  0.66678074  0.33432705  1
  Fe  Fe27  1  0.16867042  0.16968031  0.50191415  1
  Ni  Ni28  1  1.00189666  0.00279617  0.66993383  1
  Ni  Ni29  1  0.16984598  0.16897458  0.83533254  1
  Ni  Ni30  1  0.16931528  0.50307215  0.50258710  1
  Fe  Fe31  1  0.00228721  0.33599961  0.66866554  1
  Ni  Ni32  1  0.16961795  0.50262015  0.83535302  1
  Ni  Ni33  1  0.16911976  0.83462140  0.50218000  1
  Ni  Ni34  1  0.00498831  0.66906626  0.66862001  1
  Fe  Fe35  1  0.16835883  0.83504705  0.83487993  1
  Ni  Ni36  1  0.50264075  0.17019769  0.50217275  1
  Fe  Fe37  1  0.33452056  0.00270047  0.67005949  1
  Ni  Ni38  1  0.50191581  0.16825002  0.83553800  1
  Ni  Ni39  1  0.50034418  0.49951320  0.50071340  1
  Ni  Ni40  1  0.33538832  0.33622162  0.66862834  1
  Ni  Ni41  1  0.50047250  0.50166695  0.83679139  1
  Cr  Cr42  1  0.50022199  0.83680044  0.50138036  1
  Ni  Ni43  1  0.33254338  0.66654133  0.66991964  1
  Fe  Fe44  1  0.50211104  0.83640000  0.83682601  1
  Ni  Ni45  1  0.83466087  0.16999613  0.50228977  1
  Ni  Ni46  1  0.67054558  0.00564191  0.67052159  1
  Ni  Ni47  1  0.83494601  0.16729055  0.83563338  1
  Ni  Ni48  1  0.83704962  0.49978813  0.50142369  1
  Fe  Fe49  1  0.66887005  0.33410261  0.66881606  1
  Ni  Ni50  1  0.83661815  0.50286372  0.83624440  1
  Cr  Cr51  1  0.83773375  0.83628676  0.50077197  1
  Cr  Cr52  1  0.66903081  0.66761560  0.67066818  1
  Ni  Ni53  1  0.83589478  0.83655562  0.83632512  1
" 