4239,Ni70Fe30_3,-236.705523771586, 202.724263370277,Ni70Fe30,"# generated using pymatgen
 data_Fe37Ni17
_symmetry_space_group_name_H-M   'P 1'
_cell_length_a   7.39521378
_cell_length_b   7.39521378
_cell_length_c   10.45841162
_cell_angle_alpha   90.00000000
_cell_angle_beta   90.00000000
_cell_angle_gamma   90.00000000
_symmetry_Int_Tables_number   1
_chemical_formula_structural   Fe37Ni17
_chemical_formula_sum   'Fe37 Ni17'
_cell_volume   571.96202751
_cell_formula_units_Z   1
loop_
 _symmetry_equiv_pos_site_id
 _symmetry_equiv_pos_as_xyz
  1  'x, y, z'
loop_
 _atom_site_type_symbol
 _atom_site_label
 _atom_site_symmetry_multiplicity
 _atom_site_fract_x
 _atom_site_fract_y
 _atom_site_fract_z
 _atom_site_occupancy
  Fe  Fe0  1  1.00465515  1.00428740  1.00449938  1
  Ni  Ni1  1  0.17270384  0.17152284  0.17247351  1
  Fe  Fe2  1  0.00543794  0.00491793  0.33833403  1
  Fe  Fe3  1  1.00442169  0.33914360  1.00479239  1
  Fe  Fe4  1  0.17078594  0.50505318  0.17175640  1
  Fe  Fe5  1  0.00552510  0.33821470  0.33766879  1
  Fe  Fe6  1  1.00410328  0.67112848  0.00522093  1
  Fe  Fe7  1  0.17061640  0.83799946  0.17175197  1
  Ni  Ni8  1  0.00557362  0.67190894  0.33773044  1
  Fe  Fe9  1  0.33856090  1.00421123  0.00498905  1
  Fe  Fe10  1  0.50543453  0.17159969  0.17248547  1
  Ni  Ni11  1  0.33792456  0.00512091  0.33782477  1
  Fe  Fe12  1  0.33808861  0.33854230  0.00537032  1
  Fe  Fe13  1  0.50528861  0.50469966  0.17196598  1
  Ni  Ni14  1  0.33867601  0.33792249  0.33782450  1
  Fe  Fe15  1  0.33849664  0.67182650  1.00436524  1
  Fe  Fe16  1  0.50536550  0.83827304  0.17130436  1
  Ni  Ni17  1  0.33656553  0.67152591  0.33732816  1
  Fe  Fe18  1  0.67136101  1.00388417  0.00544306  1
  Fe  Fe19  1  0.83821927  0.17143456  0.17187773  1
  Ni  Ni20  1  0.67155645  0.00599314  0.33809432  1
  Fe  Fe21  1  0.67206169  0.33908295  1.00477379  1
  Ni  Ni22  1  0.83761436  0.50562301  0.17287445  1
  Ni  Ni23  1  0.67118405  0.33743196  0.33713122  1
  Ni  Ni24  1  0.67199325  0.67112978  0.00514462  1
  Ni  Ni25  1  0.83722778  0.83704600  0.17190682  1
  Fe  Fe26  1  0.67092644  0.67161200  0.33767893  1
  Fe  Fe27  1  0.17174560  0.17122193  0.50420963  1
  Ni  Ni28  1  0.00594612  1.00455427  0.67218302  1
  Fe  Fe29  1  0.17130943  0.17122310  0.83856885  1
  Fe  Fe30  1  0.17190870  0.50515932  0.50461031  1
  Fe  Fe31  1  1.00382405  0.33860061  0.67211985  1
  Ni  Ni32  1  0.17035893  0.50484012  0.83790734  1
  Fe  Fe33  1  0.17144534  0.83818848  0.50500098  1
  Fe  Fe34  1  1.00412739  0.67116620  0.67159516  1
  Ni  Ni35  1  0.17284716  0.83819250  0.83802264  1
  Fe  Fe36  1  0.50516959  0.17192305  0.50410793  1
  Fe  Fe37  1  0.33877416  1.00442695  0.67161271  1
  Fe  Fe38  1  0.50448659  0.17190088  0.83797619  1
  Fe  Fe39  1  0.50499769  0.50446670  0.50469797  1
  Fe  Fe40  1  0.33831796  0.33832899  0.67123340  1
  Fe  Fe41  1  0.50491848  0.50605777  0.83789771  1
  Fe  Fe42  1  0.50477075  0.83818391  0.50498518  1
  Fe  Fe43  1  0.33840977  0.67182356  0.67176180  1
  Ni  Ni44  1  0.50453341  0.83907648  0.83752853  1
  Fe  Fe45  1  0.83766006  0.17145685  0.50519833  1
  Fe  Fe46  1  0.67176390  1.00471253  0.67115180  1
  Fe  Fe47  1  0.83877612  0.17144050  0.83750368  1
  Fe  Fe48  1  0.83765478  0.50476372  0.50500048  1
  Ni  Ni49  1  0.67119166  0.33932952  0.67304520  1
  Ni  Ni50  1  0.83846237  0.50436104  0.83733319  1
  Fe  Fe51  1  0.83835524  0.83835124  0.50434415  1
  Ni  Ni52  1  0.67158417  0.67030229  0.67158524  1
  Fe  Fe53  1  0.83855846  0.83707769  0.83847417  1
" 