5548,Ni70Fe5Cr23_9,-229.618250893473, 156.135985538938,Ni70Fe5Cr23,"# generated using pymatgen
 data_Cr7FeNi19
_symmetry_space_group_name_H-M   'P 1'
_cell_length_a   7.47491614
_cell_length_b   7.47491614
_cell_length_c   10.57112778
_cell_angle_alpha   90.00000000
_cell_angle_beta   90.00000000
_cell_angle_gamma   90.00000000
_symmetry_Int_Tables_number   1
_chemical_formula_structural   Cr7FeNi19
_chemical_formula_sum   'Cr14 Fe2 Ni38'
_cell_volume   590.65511879
_cell_formula_units_Z   2
loop_
 _symmetry_equiv_pos_site_id
 _symmetry_equiv_pos_as_xyz
  1  'x, y, z'
loop_
 _atom_site_type_symbol
 _atom_site_label
 _atom_site_symmetry_multiplicity
 _atom_site_fract_x
 _atom_site_fract_y
 _atom_site_fract_z
 _atom_site_occupancy
  Ni  Ni0  1  0.00089129  0.00134440  0.00014353  1
  Ni  Ni1  1  0.16421514  0.16666566  0.16395228  1
  Ni  Ni2  1  0.99936196  0.99848739  0.33380683  1
  Ni  Ni3  1  -0.00036747  0.33308469  0.99937480  1
  Ni  Ni4  1  0.16551996  0.49923778  0.16617505  1
  Cr  Cr5  1  0.00115722  0.33177996  0.33312406  1
  Ni  Ni6  1  -0.00016917  0.66392654  -0.00017245  1
  Ni  Ni7  1  0.16478412  0.83249824  0.16607610  1
  Ni  Ni8  1  0.00065078  0.66709750  0.33239418  1
  Ni  Ni9  1  0.33100759  0.00117396  -0.00010032  1
  Cr  Cr10  1  0.50010257  0.16701946  0.16554780  1
  Cr  Cr11  1  0.33133217  -0.00005173  0.33247681  1
  Ni  Ni12  1  0.33103181  0.33171080  0.99766231  1
  Cr  Cr13  1  0.49944958  0.49798654  0.16866536  1
  Ni  Ni14  1  0.33247742  0.33372623  0.33488158  1
  Cr  Cr15  1  0.33287804  0.66675224  0.00022911  1
  Ni  Ni16  1  0.49840093  0.83236369  0.16787087  1
  Fe  Fe17  1  0.33189745  0.66578347  0.33379537  1
  Cr  Cr18  1  0.66463533  -0.00009316  0.99714023  1
  Ni  Ni19  1  0.83440089  0.16688056  0.16672122  1
  Ni  Ni20  1  0.66669527  0.99907158  0.33522462  1
  Ni  Ni21  1  0.66806680  0.33277036  0.99872855  1
  Fe  Fe22  1  0.83463959  0.49833208  0.16609955  1
  Ni  Ni23  1  0.66543272  0.33233922  0.33311067  1
  Cr  Cr24  1  0.66724175  0.66403519  0.99702406  1
  Cr  Cr25  1  0.83413148  0.83401598  0.16759711  1
  Ni  Ni26  1  0.66575282  0.66697417  0.33381274  1
  Ni  Ni27  1  0.16627195  0.16806998  0.49966473  1
  Cr  Cr28  1  0.99728935  0.00263231  0.66364273  1
  Ni  Ni29  1  0.16588534  0.16990733  0.83493630  1
  Ni  Ni30  1  0.16948384  0.49942551  0.49988751  1
  Ni  Ni31  1  0.00203353  0.33237841  0.66700255  1
  Ni  Ni32  1  0.16659118  0.49633735  0.83243846  1
  Ni  Ni33  1  0.16560285  0.83083577  0.49693426  1
  Cr  Cr34  1  0.99899621  0.66377260  0.66666858  1
  Cr  Cr35  1  0.16536558  0.83334341  0.83486454  1
  Ni  Ni36  1  0.50045628  0.16746434  0.49844074  1
  Cr  Cr37  1  0.33507840  0.00101906  0.66587320  1
  Ni  Ni38  1  0.49878628  0.16778292  0.83403579  1
  Ni  Ni39  1  0.49714032  0.49991023  0.49863790  1
  Ni  Ni40  1  0.33152240  0.33418536  0.66586273  1
  Ni  Ni41  1  0.49838877  0.49802557  0.83142864  1
  Ni  Ni42  1  0.50153011  0.83103835  0.49923443  1
  Ni  Ni43  1  0.33535941  0.66398822  0.66424325  1
  Ni  Ni44  1  0.50075426  0.83271595  0.83103996  1
  Ni  Ni45  1  0.83163451  0.16349631  0.49805722  1
  Ni  Ni46  1  0.66553247  0.99784937  0.66564884  1
  Ni  Ni47  1  0.83378509  0.16670699  0.83363282  1
  Cr  Cr48  1  0.83166311  0.50039012  0.49828930  1
  Cr  Cr49  1  0.66639967  0.33175626  0.66693840  1
  Ni  Ni50  1  0.83379902  0.49824049  0.83494576  1
  Ni  Ni51  1  0.83121929  0.83421645  0.49827952  1
  Ni  Ni52  1  0.66368645  0.66796717  0.66752806  1
  Ni  Ni53  1  0.83170454  0.83320963  0.83205998  1
" 