4714,Ni70Fe30_2,-236.458227664286, 207.862643080113,Ni70Fe30,"# generated using pymatgen
 data_Fe37Ni17
_symmetry_space_group_name_H-M   'P 1'
_cell_length_a   7.39608568
_cell_length_b   7.39608568
_cell_length_c   10.45964468
_cell_angle_alpha   90.00000000
_cell_angle_beta   90.00000000
_cell_angle_gamma   90.00000000
_symmetry_Int_Tables_number   1
_chemical_formula_structural   Fe37Ni17
_chemical_formula_sum   'Fe37 Ni17'
_cell_volume   572.16435563
_cell_formula_units_Z   1
loop_
 _symmetry_equiv_pos_site_id
 _symmetry_equiv_pos_as_xyz
  1  'x, y, z'
loop_
 _atom_site_type_symbol
 _atom_site_label
 _atom_site_symmetry_multiplicity
 _atom_site_fract_x
 _atom_site_fract_y
 _atom_site_fract_z
 _atom_site_occupancy
  Ni  Ni0  1  0.00494715  0.00499817  1.00467531  1
  Fe  Fe1  1  0.17031454  0.17127762  0.17146153  1
  Fe  Fe2  1  0.00493247  1.00447964  0.33696244  1
  Fe  Fe3  1  1.00422484  0.33765275  0.00536913  1
  Ni  Ni4  1  0.17158580  0.50574486  0.17144596  1
  Ni  Ni5  1  1.00352278  0.33791999  0.33695592  1
  Fe  Fe6  1  1.00463020  0.67147684  1.00471547  1
  Ni  Ni7  1  0.17157692  0.83695746  0.17138657  1
  Fe  Fe8  1  0.00553035  0.67082976  0.33883458  1
  Fe  Fe9  1  0.33853463  0.00520209  1.00382266  1
  Fe  Fe10  1  0.50449143  0.17170251  0.17057521  1
  Fe  Fe11  1  0.33751603  1.00472805  0.33835831  1
  Fe  Fe12  1  0.33823573  0.33757702  1.00479690  1
  Fe  Fe13  1  0.50431787  0.50489119  0.17192842  1
  Fe  Fe14  1  0.33749217  0.33933788  0.33827879  1
  Fe  Fe15  1  0.33789293  0.67161199  0.00531050  1
  Fe  Fe16  1  0.50389555  0.83780112  0.17123793  1
  Ni  Ni17  1  0.33864916  0.67220791  0.33836444  1
  Fe  Fe18  1  0.67179891  0.00560900  1.00456244  1
  Ni  Ni19  1  0.83734245  0.17124875  0.17114234  1
  Fe  Fe20  1  0.67193987  0.00479922  0.33812889  1
  Ni  Ni21  1  0.67166114  0.33794085  0.00541389  1
  Fe  Fe22  1  0.83907490  0.50421078  0.17174223  1
  Fe  Fe23  1  0.67143710  0.33874461  0.33762766  1
  Fe  Fe24  1  0.67187257  0.67178044  1.00446562  1
  Fe  Fe25  1  0.83950128  0.83847724  0.17168905  1
  Fe  Fe26  1  0.67168793  0.67084964  0.33894352  1
  Fe  Fe27  1  0.17056879  0.17274117  0.50513358  1
  Fe  Fe28  1  0.00559913  1.00390977  0.67187321  1
  Fe  Fe29  1  0.17235156  0.17048578  0.83779294  1
  Ni  Ni30  1  0.17169080  0.50478629  0.50513699  1
  Ni  Ni31  1  1.00317047  0.33875276  0.67221131  1
  Fe  Fe32  1  0.17233735  0.50503965  0.83741112  1
  Fe  Fe33  1  0.17155889  0.83614934  0.50471997  1
  Ni  Ni34  1  0.00541075  0.67028779  0.67070779  1
  Fe  Fe35  1  0.17268200  0.83886343  0.83839032  1
  Fe  Fe36  1  0.50520720  0.17216458  0.50559700  1
  Ni  Ni37  1  0.33931623  1.00311792  0.67134084  1
  Ni  Ni38  1  0.50511317  0.17043564  0.83833726  1
  Ni  Ni39  1  0.50380959  0.50436375  0.50576435  1
  Fe  Fe40  1  0.33723306  0.33873894  0.67132130  1
  Fe  Fe41  1  0.50497951  0.50479943  0.83794319  1
  Fe  Fe42  1  0.50465139  0.83629669  0.50549959  1
  Ni  Ni43  1  0.33837282  0.67304453  0.67148107  1
  Ni  Ni44  1  0.50470603  0.83947793  0.83793163  1
  Fe  Fe45  1  0.83861112  0.17315484  0.50396524  1
  Fe  Fe46  1  0.67121806  1.00391579  0.67170063  1
  Fe  Fe47  1  0.83724202  0.17124166  0.83929672  1
  Ni  Ni48  1  0.83888648  0.50533042  0.50435546  1
  Fe  Fe49  1  0.67105321  0.33883329  0.67196584  1
  Fe  Fe50  1  0.83707112  0.50446716  0.83742866  1
  Ni  Ni51  1  0.83846408  0.83826694  0.50490533  1
  Fe  Fe52  1  0.67165113  0.67164612  0.67098383  1
  Fe  Fe53  1  0.83748952  0.83868320  0.83766130  1
" 