3645,Ni70Fe20Cr8_14,-238.478944869691, 199.975123284906,Ni70Fe20Cr8,"# generated using pymatgen
 data_Cr5Fe11Ni38
_symmetry_space_group_name_H-M   'P 1'
_cell_length_a   7.43223182
_cell_length_b   7.43223182
_cell_length_c   10.51076304
_cell_angle_alpha   90.00000000
_cell_angle_beta   90.00000000
_cell_angle_gamma   90.00000000
_symmetry_Int_Tables_number   1
_chemical_formula_structural   Cr5Fe11Ni38
_chemical_formula_sum   'Cr5 Fe11 Ni38'
_cell_volume   580.59426299
_cell_formula_units_Z   1
loop_
 _symmetry_equiv_pos_site_id
 _symmetry_equiv_pos_as_xyz
  1  'x, y, z'
loop_
 _atom_site_type_symbol
 _atom_site_label
 _atom_site_symmetry_multiplicity
 _atom_site_fract_x
 _atom_site_fract_y
 _atom_site_fract_z
 _atom_site_occupancy
  Fe  Fe0  1  1.00138082  0.00238948  0.00238307  1
  Fe  Fe1  1  0.16857717  0.16891965  0.16968372  1
  Ni  Ni2  1  0.00274930  1.00141574  0.33595402  1
  Ni  Ni3  1  1.00227302  0.33583484  0.00261776  1
  Fe  Fe4  1  0.16848072  0.50339150  0.16896901  1
  Ni  Ni5  1  0.00358834  0.33559310  0.33598575  1
  Ni  Ni6  1  0.00277130  0.66908942  1.00225711  1
  Ni  Ni7  1  0.16971372  0.83593528  0.16935814  1
  Ni  Ni8  1  0.00302136  0.67001832  0.33616524  1
  Fe  Fe9  1  0.33640329  1.00209331  0.00234752  1
  Fe  Fe10  1  0.50242850  0.16796272  0.16768641  1
  Ni  Ni11  1  0.33460715  0.00244091  0.33489467  1
  Ni  Ni12  1  0.33610392  0.33591823  0.00249522  1
  Ni  Ni13  1  0.50110234  0.50406407  0.16833773  1
  Ni  Ni14  1  0.33487037  0.33567085  0.33628857  1
  Ni  Ni15  1  0.33564439  0.66904512  1.00212011  1
  Ni  Ni16  1  0.50196698  0.83461791  0.16883153  1
  Ni  Ni17  1  0.33440499  0.66891616  0.33509973  1
  Ni  Ni18  1  0.66868984  0.00256406  0.00260662  1
  Ni  Ni19  1  0.83746074  0.16827850  0.16822017  1
  Fe  Fe20  1  0.67036548  1.00142411  0.33469108  1
  Ni  Ni21  1  0.66864861  0.33479584  1.00165897  1
  Ni  Ni22  1  0.83614013  0.50249527  0.16790999  1
  Cr  Cr23  1  0.66929892  0.33568190  0.33587972  1
  Ni  Ni24  1  0.66860847  0.66966505  0.00269043  1
  Ni  Ni25  1  0.83534546  0.83625194  0.16977675  1
  Fe  Fe26  1  0.66976948  0.66944194  0.33480120  1
  Ni  Ni27  1  0.16654186  0.17030159  0.50053240  1
  Ni  Ni28  1  0.99990332  1.00202536  0.66890835  1
  Ni  Ni29  1  0.16708967  0.17022293  0.83731324  1
  Ni  Ni30  1  0.16816859  0.50059983  0.49997747  1
  Ni  Ni31  1  0.99982144  0.33545346  0.66842420  1
  Ni  Ni32  1  0.16872486  0.50129094  0.83739569  1
  Fe  Fe33  1  0.16487552  0.83520957  0.49985026  1
  Ni  Ni34  1  1.00022334  0.66954667  0.66860301  1
  Fe  Fe35  1  0.16774203  0.83565433  0.83750160  1
  Fe  Fe36  1  0.50344103  0.17064962  0.50206758  1
  Cr  Cr37  1  0.33500063  0.00307440  0.67031358  1
  Ni  Ni38  1  0.50345715  0.16888573  0.83665325  1
  Ni  Ni39  1  0.50189889  0.50243117  0.50193963  1
  Cr  Cr40  1  0.33652715  0.33568174  0.66814614  1
  Ni  Ni41  1  0.50233297  0.50314017  0.83674944  1
  Cr  Cr42  1  0.50451091  0.83454226  0.50077061  1
  Cr  Cr43  1  0.33452654  0.66827142  0.67003669  1
  Ni  Ni44  1  0.50453609  0.83500040  0.83759993  1
  Ni  Ni45  1  0.83831585  0.16789379  0.50389301  1
  Ni  Ni46  1  0.67192736  0.00350797  0.66913718  1
  Ni  Ni47  1  0.83647884  0.16801790  0.83491181  1
  Ni  Ni48  1  0.83695979  0.50273585  0.50410609  1
  Ni  Ni49  1  0.67077737  0.33521019  0.66942483  1
  Fe  Fe50  1  0.83532638  0.50187399  0.83564850  1
  Ni  Ni51  1  0.83648239  0.83639721  0.50199607  1
  Ni  Ni52  1  0.67184635  0.66830901  0.66961631  1
  Ni  Ni53  1  0.83462856  0.83663702  0.83525258  1
" 