8002,Ni70Fe28Cr1_15,-241.949962960837, 215.010526763094,Ni70Fe28Cr1,"# generated using pymatgen
 data_CrFe15Ni38
_symmetry_space_group_name_H-M   'P 1'
_cell_length_a   7.41286498
_cell_length_b   7.41286498
_cell_length_c   10.48337418
_cell_angle_alpha   90.00000000
_cell_angle_beta   90.00000000
_cell_angle_gamma   90.00000000
_symmetry_Int_Tables_number   1
_chemical_formula_structural   CrFe15Ni38
_chemical_formula_sum   'Cr1 Fe15 Ni38'
_cell_volume   576.06735710
_cell_formula_units_Z   1
loop_
 _symmetry_equiv_pos_site_id
 _symmetry_equiv_pos_as_xyz
  1  'x, y, z'
loop_
 _atom_site_type_symbol
 _atom_site_label
 _atom_site_symmetry_multiplicity
 _atom_site_fract_x
 _atom_site_fract_y
 _atom_site_fract_z
 _atom_site_occupancy
  Ni  Ni0  1  1.00322516  1.00333174  0.00383029  1
  Ni  Ni1  1  0.16943913  0.17055020  0.17027173  1
  Fe  Fe2  1  1.00244554  0.00474970  0.33530651  1
  Ni  Ni3  1  0.00428415  0.33785546  0.00380347  1
  Ni  Ni4  1  0.17087821  0.50281524  0.17085790  1
  Ni  Ni5  1  0.00433191  0.33867826  0.33708888  1
  Fe  Fe6  1  0.00408814  0.67087362  0.00396744  1
  Ni  Ni7  1  0.16986623  0.83760033  0.16991650  1
  Ni  Ni8  1  1.00221231  0.66868851  0.33595181  1
  Ni  Ni9  1  0.33760648  1.00332489  1.00329213  1
  Fe  Fe10  1  0.50301580  0.16962524  0.17045964  1
  Ni  Ni11  1  0.33861894  0.00433009  0.33595006  1
  Ni  Ni12  1  0.33598262  0.33729340  1.00320356  1
  Ni  Ni13  1  0.50300602  0.50363130  0.17014133  1
  Ni  Ni14  1  0.33593911  0.33665165  0.33768474  1
  Fe  Fe15  1  0.33676293  0.67048435  1.00336376  1
  Ni  Ni16  1  0.50411377  0.83687404  0.17056871  1
  Fe  Fe17  1  0.33840733  0.66890345  0.33637890  1
  Ni  Ni18  1  0.67013160  1.00228179  0.00378365  1
  Ni  Ni19  1  0.83780352  0.16944262  0.17032354  1
  Ni  Ni20  1  0.66939943  1.00221079  0.33708862  1
  Fe  Fe21  1  0.67011306  0.33591106  1.00332954  1
  Fe  Fe22  1  0.83768315  0.50388125  0.17099292  1
  Ni  Ni23  1  0.67069238  0.33738804  0.33665723  1
  Fe  Fe24  1  0.67011458  0.67099906  0.00381941  1
  Ni  Ni25  1  0.83698444  0.83831467  0.17056889  1
  Ni  Ni26  1  0.67142344  0.67136584  0.33768447  1
  Ni  Ni27  1  0.17087003  0.17248333  0.50378884  1
  Fe  Fe28  1  1.00316468  0.00495526  0.67132867  1
  Fe  Fe29  1  0.17087664  0.17091645  0.83723111  1
  Ni  Ni30  1  0.17010129  0.50086495  0.50352689  1
  Ni  Ni31  1  0.00380974  0.33832431  0.67007564  1
  Ni  Ni32  1  0.17012098  0.50275335  0.83657761  1
  Cr  Cr33  1  0.17023477  0.83744229  0.50324806  1
  Fe  Fe34  1  1.00293531  0.66884261  0.67066635  1
  Fe  Fe35  1  0.17116467  0.83642975  0.83724381  1
  Ni  Ni36  1  0.50315943  0.17056737  0.50312332  1
  Ni  Ni37  1  0.33887911  1.00343966  0.67172045  1
  Ni  Ni38  1  0.50322040  0.17008031  0.83757148  1
  Ni  Ni39  1  0.50389512  0.50274067  0.50439467  1
  Ni  Ni40  1  0.33617429  0.33769356  0.67007683  1
  Ni  Ni41  1  0.50319936  0.50283376  0.83642783  1
  Ni  Ni42  1  0.50606579  0.83765172  0.50381671  1
  Ni  Ni43  1  0.33753764  0.66982887  0.67086849  1
  Ni  Ni44  1  0.50431439  0.83804605  0.83658010  1
  Fe  Fe45  1  0.83631997  0.17104863  0.50328034  1
  Ni  Ni46  1  0.66966594  1.00276258  0.67009227  1
  Fe  Fe47  1  0.83607828  0.17081623  0.83754699  1
  Ni  Ni48  1  0.83696792  0.50377073  0.50330477  1
  Ni  Ni49  1  0.67097826  0.33697854  0.67061182  1
  Ni  Ni50  1  0.83764187  0.50384577  0.83757576  1
  Ni  Ni51  1  0.83505158  0.83688626  0.50349495  1
  Fe  Fe52  1  0.66954228  0.66996972  0.66999147  1
  Ni  Ni53  1  0.83681115  0.83732096  0.83689944  1
" 