8104,Ni70Fe30_15,-237.001563744831, 207.695696339277,Ni70Fe30,"# generated using pymatgen
 data_Fe37Ni17
_symmetry_space_group_name_H-M   'P 1'
_cell_length_a   7.40120440
_cell_length_b   7.40120440
_cell_length_c   10.46688364
_cell_angle_alpha   90.00000000
_cell_angle_beta   90.00000000
_cell_angle_gamma   90.00000000
_symmetry_Int_Tables_number   1
_chemical_formula_structural   Fe37Ni17
_chemical_formula_sum   'Fe37 Ni17'
_cell_volume   573.35313608
_cell_formula_units_Z   1
loop_
 _symmetry_equiv_pos_site_id
 _symmetry_equiv_pos_as_xyz
  1  'x, y, z'
loop_
 _atom_site_type_symbol
 _atom_site_label
 _atom_site_symmetry_multiplicity
 _atom_site_fract_x
 _atom_site_fract_y
 _atom_site_fract_z
 _atom_site_occupancy
  Fe  Fe0  1  0.00534577  0.00534417  0.00457692  1
  Ni  Ni1  1  0.17158589  0.17130704  0.17079429  1
  Fe  Fe2  1  0.00465712  0.00473533  0.33721861  1
  Fe  Fe3  1  0.00549438  0.33696093  0.00479741  1
  Fe  Fe4  1  0.17075835  0.50388804  0.17130303  1
  Fe  Fe5  1  0.00478062  0.33752285  0.33764258  1
  Fe  Fe6  1  0.00489727  0.67104054  0.00487280  1
  Fe  Fe7  1  0.17091886  0.83910301  0.17111349  1
  Fe  Fe8  1  0.00449499  0.67108564  0.33770735  1
  Ni  Ni9  1  0.33725620  0.00524474  0.00476830  1
  Ni  Ni10  1  0.50317326  0.16979966  0.17059424  1
  Ni  Ni11  1  0.33745291  1.00444117  0.33753968  1
  Ni  Ni12  1  0.33760467  0.33654159  0.00496678  1
  Fe  Fe13  1  0.50528322  0.50368889  0.17115543  1
  Fe  Fe14  1  0.33756135  0.33728701  0.33730767  1
  Fe  Fe15  1  0.33799464  0.67125276  1.00396573  1
  Ni  Ni16  1  0.50467407  0.83838459  0.17039641  1
  Fe  Fe17  1  0.33813539  0.67161345  0.33897287  1
  Fe  Fe18  1  0.67021586  0.00477173  0.00529540  1
  Ni  Ni19  1  0.83858505  0.17130823  0.17025089  1
  Fe  Fe20  1  0.67047514  1.00416130  0.33706921  1
  Fe  Fe21  1  0.67043042  0.33717274  0.00453821  1
  Ni  Ni22  1  0.83824361  0.50481410  0.17074285  1
  Fe  Fe23  1  0.67100390  0.33744999  0.33811293  1
  Fe  Fe24  1  0.67045286  0.67139798  0.00460834  1
  Ni  Ni25  1  0.83673843  0.83722204  0.17103751  1
  Fe  Fe26  1  0.67071504  0.67173297  0.33818017  1
  Fe  Fe27  1  0.17172620  0.17172178  0.50423973  1
  Fe  Fe28  1  1.00403929  1.00426072  0.67154536  1
  Ni  Ni29  1  0.17138073  0.17129463  0.83742224  1
  Ni  Ni30  1  0.17074932  0.50391116  0.50557463  1
  Fe  Fe31  1  1.00416437  0.33886035  0.67090507  1
  Fe  Fe32  1  0.17153952  0.50409881  0.83738321  1
  Fe  Fe33  1  0.17196132  0.83634009  0.50452431  1
  Fe  Fe34  1  1.00389950  0.67022172  0.67076838  1
  Fe  Fe35  1  0.17139140  0.83828021  0.83770680  1
  Fe  Fe36  1  0.50452226  0.17213708  0.50397623  1
  Fe  Fe37  1  0.33872784  1.00395548  0.67118738  1
  Fe  Fe38  1  0.50381450  0.17140087  0.83853863  1
  Ni  Ni39  1  0.50454684  0.50576311  0.50489210  1
  Fe  Fe40  1  0.33839772  0.33896246  0.67152380  1
  Fe  Fe41  1  0.50397724  0.50390233  0.83681008  1
  Ni  Ni42  1  0.50453986  0.83746925  0.50543130  1
  Ni  Ni43  1  0.33802890  0.67147673  0.67092988  1
  Fe  Fe44  1  0.50369179  0.83804089  0.83749444  1
  Fe  Fe45  1  0.83709670  0.17229502  0.50440916  1
  Fe  Fe46  1  0.67057778  1.00368854  0.67097689  1
  Fe  Fe47  1  0.83806579  0.17125326  0.83774613  1
  Ni  Ni48  1  0.83804886  0.50459850  0.50552461  1
  Ni  Ni49  1  0.67190588  0.33872819  0.67093184  1
  Fe  Fe50  1  0.83782899  0.50397724  0.83736025  1
  Fe  Fe51  1  0.83729256  0.83620046  0.50433535  1
  Ni  Ni52  1  0.67109485  0.66997549  0.67049039  1
  Fe  Fe53  1  0.83826038  0.83811278  0.83804235  1
" 