1013,Ni70Cr30_15,-211.200488380088, 139.945549550554,Ni70Cr30,"# generated using pymatgen
 data_Cr37Ni17
_symmetry_space_group_name_H-M   'P 1'
_cell_length_a   7.56975856
_cell_length_b   7.56975856
_cell_length_c   10.70525521
_cell_angle_alpha   90.00000000
_cell_angle_beta   90.00000000
_cell_angle_gamma   90.00000000
_symmetry_Int_Tables_number   1
_chemical_formula_structural   Cr37Ni17
_chemical_formula_sum   'Cr37 Ni17'
_cell_volume   613.42444739
_cell_formula_units_Z   1
loop_
 _symmetry_equiv_pos_site_id
 _symmetry_equiv_pos_as_xyz
  1  'x, y, z'
loop_
 _atom_site_type_symbol
 _atom_site_label
 _atom_site_symmetry_multiplicity
 _atom_site_fract_x
 _atom_site_fract_y
 _atom_site_fract_z
 _atom_site_occupancy
  Cr  Cr0  1  -0.00650813  0.99275322  -0.00668262  1
  Cr  Cr1  1  0.16227515  0.15845865  0.16203123  1
  Ni  Ni2  1  -0.00148788  0.99284537  0.32739235  1
  Cr  Cr3  1  0.99156527  0.32681240  0.99105675  1
  Cr  Cr4  1  0.16043391  0.49337260  0.15764370  1
  Cr  Cr5  1  0.99261294  0.32442201  0.32839483  1
  Ni  Ni6  1  0.99218772  0.66045146  -0.00571702  1
  Ni  Ni7  1  0.15860230  0.82749640  0.16116959  1
  Cr  Cr8  1  -0.00487897  0.66216828  0.32589506  1
  Cr  Cr9  1  0.32597590  0.99250797  -0.00542745  1
  Cr  Cr10  1  0.49163162  0.16246188  0.16101932  1
  Ni  Ni11  1  0.32142911  -0.00548156  0.32728507  1
  Ni  Ni12  1  0.32873202  0.32712042  -0.00678211  1
  Cr  Cr13  1  0.49404432  0.48996883  0.15930203  1
  Ni  Ni14  1  0.32745488  0.32303135  0.32747900  1
  Cr  Cr15  1  0.32609091  0.66023877  -0.00534292  1
  Cr  Cr16  1  0.49248477  0.82725750  0.15953350  1
  Cr  Cr17  1  0.32567515  0.66229214  0.32628343  1
  Cr  Cr18  1  0.66022464  -0.00556313  0.99064938  1
  Cr  Cr19  1  0.82567483  0.16011306  0.16099688  1
  Cr  Cr20  1  0.65952164  -0.00542618  0.32691075  1
  Ni  Ni21  1  0.65922002  0.32794066  0.99279135  1
  Cr  Cr22  1  0.82508357  0.49413509  0.15867519  1
  Ni  Ni23  1  0.65789332  0.32589650  0.32590935  1
  Ni  Ni24  1  0.66174846  0.65735700  0.99316071  1
  Cr  Cr25  1  0.82927134  0.82538525  0.15891582  1
  Cr  Cr26  1  0.65889023  0.65753525  0.32619514  1
  Ni  Ni27  1  0.16201338  0.15790994  0.49098720  1
  Cr  Cr28  1  0.99244789  -0.00578413  0.65928579  1
  Cr  Cr29  1  0.16093616  0.16230328  0.82684843  1
  Cr  Cr30  1  0.16140564  0.49258588  0.49629821  1
  Cr  Cr31  1  -0.00605724  0.32597995  0.66021056  1
  Cr  Cr32  1  0.16078106  0.49347446  0.82567748  1
  Ni  Ni33  1  0.15964651  0.82857648  0.49261312  1
  Ni  Ni34  1  -0.00566855  0.66101360  0.65916476  1
  Cr  Cr35  1  0.15821160  0.82387716  0.82637416  1
  Cr  Cr36  1  0.49042113  0.16074116  0.49140149  1
  Cr  Cr37  1  0.32679431  0.99223367  0.65866288  1
  Cr  Cr38  1  0.49370508  0.16117555  0.82720987  1
  Cr  Cr39  1  0.49226536  0.49197911  0.49374069  1
  Ni  Ni40  1  0.32576021  0.32801745  0.65893893  1
  Cr  Cr41  1  0.49204913  0.49283906  0.82657959  1
  Cr  Cr42  1  0.49293208  0.82688423  0.49598935  1
  Ni  Ni43  1  0.32581074  0.65918778  0.65896277  1
  Cr  Cr44  1  0.49568050  0.82558778  0.82410814  1
  Cr  Cr45  1  0.82715574  0.15824466  0.49171910  1
  Ni  Ni46  1  0.66077412  0.99178797  0.66129765  1
  Ni  Ni47  1  0.82419756  0.15974669  0.82669970  1
  Cr  Cr48  1  0.82597608  0.49513703  0.49314758  1
  Cr  Cr49  1  0.66054673  0.32542742  0.66045445  1
  Cr  Cr50  1  0.82682617  0.49543349  0.82776319  1
  Cr  Cr51  1  0.82792903  0.82623268  0.49530623  1
  Ni  Ni52  1  0.65951549  0.66177445  0.66011553  1
  Cr  Cr53  1  0.82574313  0.82573014  0.82535292  1
" 