5872,Ni70Cr30_17,-211.51388929665, 142.737258301064,Ni70Cr30,"# generated using pymatgen
 data_Cr37Ni17
_symmetry_space_group_name_H-M   'P 1'
_cell_length_a   7.56190993
_cell_length_b   7.56190993
_cell_length_c   10.69415558
_cell_angle_alpha   90.00000000
_cell_angle_beta   90.00000000
_cell_angle_gamma   90.00000000
_symmetry_Int_Tables_number   1
_chemical_formula_structural   Cr37Ni17
_chemical_formula_sum   'Cr37 Ni17'
_cell_volume   611.51835640
_cell_formula_units_Z   1
loop_
 _symmetry_equiv_pos_site_id
 _symmetry_equiv_pos_as_xyz
  1  'x, y, z'
loop_
 _atom_site_type_symbol
 _atom_site_label
 _atom_site_symmetry_multiplicity
 _atom_site_fract_x
 _atom_site_fract_y
 _atom_site_fract_z
 _atom_site_occupancy
  Cr  Cr0  1  -0.00472668  -0.00448991  -0.00604449  1
  Ni  Ni1  1  0.15774875  0.15685697  0.16273439  1
  Ni  Ni2  1  0.99358657  -0.00166781  0.32473204  1
  Cr  Cr3  1  0.99326414  0.32187341  -0.00551277  1
  Cr  Cr4  1  0.15821638  0.49067237  0.16154204  1
  Ni  Ni5  1  0.99133316  0.32209666  0.32721867  1
  Cr  Cr6  1  -0.00546963  0.66403816  -0.00576973  1
  Cr  Cr7  1  0.15938520  0.83078361  0.16217919  1
  Cr  Cr8  1  0.99163261  0.66013510  0.32592677  1
  Ni  Ni9  1  0.32595356  0.99340500  0.99288051  1
  Cr  Cr10  1  0.49281658  0.15867131  0.15941154  1
  Ni  Ni11  1  0.32470266  -0.00572799  0.32358425  1
  Cr  Cr12  1  0.32340467  0.32332929  0.99347794  1
  Cr  Cr13  1  0.49471252  0.49166514  0.15732507  1
  Cr  Cr14  1  0.32302931  0.32595210  0.32673047  1
  Cr  Cr15  1  0.32660193  0.66348941  0.99338178  1
  Ni  Ni16  1  0.49315170  0.83129560  0.16008289  1
  Cr  Cr17  1  0.32835166  0.66120860  0.32591806  1
  Cr  Cr18  1  0.66369753  -0.00580564  0.99367579  1
  Ni  Ni19  1  0.82974299  0.15911416  0.16174254  1
  Cr  Cr20  1  0.66391934  -0.00582950  0.32719323  1
  Ni  Ni21  1  0.66383329  0.32307044  -0.00591615  1
  Cr  Cr22  1  0.82750994  0.49213408  0.15826440  1
  Cr  Cr23  1  0.66394510  0.32604357  0.32841842  1
  Cr  Cr24  1  0.65985341  0.66314176  -0.00303756  1
  Ni  Ni25  1  0.82611715  0.83177730  0.16222295  1
  Cr  Cr26  1  0.66047418  0.66123062  0.32578687  1
  Cr  Cr27  1  0.15940324  0.15871008  0.49069929  1
  Cr  Cr28  1  0.99353887  -0.00281043  0.66305054  1
  Ni  Ni29  1  0.15825848  0.15789489  0.82754340  1
  Cr  Cr30  1  0.15617381  0.49362610  0.49430144  1
  Ni  Ni31  1  0.99139155  0.32635046  0.66002448  1
  Cr  Cr32  1  0.15657221  0.49456450  0.82547269  1
  Cr  Cr33  1  0.15894039  0.82934307  0.49269388  1
  Ni  Ni34  1  0.99356996  0.65902960  0.66051959  1
  Ni  Ni35  1  0.16175731  0.83027210  0.82653249  1
  Cr  Cr36  1  0.49374365  0.15851533  0.49230716  1
  Cr  Cr37  1  0.32613806  0.99361340  0.66389789  1
  Cr  Cr38  1  0.49498047  0.15942407  0.82903376  1
  Cr  Cr39  1  0.49524000  0.49203536  0.49377071  1
  Cr  Cr40  1  0.32266990  0.32570618  0.66089103  1
  Cr  Cr41  1  0.49605617  0.49213403  0.82994311  1
  Cr  Cr42  1  0.49215310  0.83031124  0.49237920  1
  Cr  Cr43  1  0.32579044  0.66148333  0.66218397  1
  Ni  Ni44  1  0.49098883  0.82907317  0.82911040  1
  Ni  Ni45  1  0.83203441  0.16320275  0.49281655  1
  Cr  Cr46  1  0.66257967  -0.00502663  0.66087976  1
  Ni  Ni47  1  0.83012777  0.16231977  0.82698938  1
  Ni  Ni48  1  0.83161179  0.49061941  0.49490269  1
  Cr  Cr49  1  0.66362102  0.32453691  0.65823307  1
  Cr  Cr50  1  0.82728912  0.49231235  0.82714961  1
  Cr  Cr51  1  0.83086943  0.82794580  0.49363307  1
  Cr  Cr52  1  0.66010875  0.66114304  0.65826099  1
  Cr  Cr53  1  0.82889516  0.82649788  0.82592233  1
" 