4432,Ni70Fe30_17,-236.411587663124, 205.164834060058,Ni70Fe30,"# generated using pymatgen
 data_Fe37Ni17
_symmetry_space_group_name_H-M   'P 1'
_cell_length_a   7.39787585
_cell_length_b   7.39787585
_cell_length_c   10.46217635
_cell_angle_alpha   90.00000000
_cell_angle_beta   90.00000000
_cell_angle_gamma   90.00000000
_symmetry_Int_Tables_number   1
_chemical_formula_structural   Fe37Ni17
_chemical_formula_sum   'Fe37 Ni17'
_cell_volume   572.57991982
_cell_formula_units_Z   1
loop_
 _symmetry_equiv_pos_site_id
 _symmetry_equiv_pos_as_xyz
  1  'x, y, z'
loop_
 _atom_site_type_symbol
 _atom_site_label
 _atom_site_symmetry_multiplicity
 _atom_site_fract_x
 _atom_site_fract_y
 _atom_site_fract_z
 _atom_site_occupancy
  Fe  Fe0  1  1.00459389  1.00467371  0.00500108  1
  Ni  Ni1  1  0.17013939  0.17142823  0.17093156  1
  Ni  Ni2  1  0.00621903  0.00559330  0.33707908  1
  Fe  Fe3  1  1.00467303  0.33858668  0.00566429  1
  Ni  Ni4  1  0.17013513  0.50451511  0.17163932  1
  Fe  Fe5  1  0.00488460  0.33738545  0.33722757  1
  Ni  Ni6  1  1.00420872  0.67108925  1.00458671  1
  Fe  Fe7  1  0.17001686  0.83821752  0.17138537  1
  Fe  Fe8  1  0.00473346  0.67176199  0.33687794  1
  Fe  Fe9  1  0.33790090  1.00431704  0.00487595  1
  Fe  Fe10  1  0.50445921  0.17218083  0.17131072  1
  Ni  Ni11  1  0.33672001  0.00596841  0.33819116  1
  Fe  Fe12  1  0.33744852  0.33856976  1.00451667  1
  Fe  Fe13  1  0.50495458  0.50382730  0.17154763  1
  Fe  Fe14  1  0.33771536  0.33738449  0.33829943  1
  Fe  Fe15  1  0.33763940  0.67113704  1.00432032  1
  Fe  Fe16  1  0.50466887  0.83801389  0.17176697  1
  Fe  Fe17  1  0.33823850  0.67213534  0.33821528  1
  Fe  Fe18  1  0.67153457  1.00447594  1.00431517  1
  Ni  Ni19  1  0.83931002  0.17141055  0.17162198  1
  Fe  Fe20  1  0.67105000  1.00436111  0.33805434  1
  Fe  Fe21  1  0.67190383  0.33832963  1.00460021  1
  Ni  Ni22  1  0.83896116  0.50486084  0.17115666  1
  Fe  Fe23  1  0.67141937  0.33744402  0.33792626  1
  Fe  Fe24  1  0.67154353  0.67121786  1.00439997  1
  Fe  Fe25  1  0.83933721  0.83772181  0.17147464  1
  Ni  Ni26  1  0.67109481  0.66994496  0.33715520  1
  Ni  Ni27  1  0.17074638  0.17090608  0.50469699  1
  Ni  Ni28  1  0.00560439  0.00540019  0.67199873  1
  Fe  Fe29  1  0.17260939  0.17105805  0.83764440  1
  Fe  Fe30  1  0.17281115  0.50417985  0.50434350  1
  Fe  Fe31  1  1.00439542  0.33787691  0.67113372  1
  Fe  Fe32  1  0.17260207  0.50495918  0.83886326  1
  Fe  Fe33  1  0.17243386  0.83922229  0.50454466  1
  Fe  Fe34  1  1.00424813  0.67168727  0.67206732  1
  Fe  Fe35  1  0.17223850  0.83801254  0.83809241  1
  Ni  Ni36  1  0.50404191  0.17052750  0.50464923  1
  Fe  Fe37  1  0.33863202  1.00439972  0.67072199  1
  Ni  Ni38  1  0.50467033  0.17071939  0.83764888  1
  Ni  Ni39  1  0.50523742  0.50585707  0.50464430  1
  Fe  Fe40  1  0.33849377  0.33788337  0.67120667  1
  Ni  Ni41  1  0.50502264  0.50564307  0.83823269  1
  Ni  Ni42  1  0.50525301  0.83762950  0.50537033  1
  Fe  Fe43  1  0.33869999  0.67174261  0.67150052  1
  Ni  Ni44  1  0.50502699  0.83765540  0.83739613  1
  Fe  Fe45  1  0.83761793  0.17090511  0.50434368  1
  Fe  Fe46  1  0.67109356  1.00424320  0.67165594  1
  Fe  Fe47  1  0.83675434  0.17105549  0.83828989  1
  Fe  Fe48  1  0.83652656  0.50469764  0.50426403  1
  Fe  Fe49  1  0.67113089  0.33793671  0.67149786  1
  Fe  Fe50  1  0.83654468  0.50516397  0.83850201  1
  Fe  Fe51  1  0.83718957  0.83841168  0.50483184  1
  Ni  Ni52  1  0.67041417  0.67032752  0.67245561  1
  Fe  Fe53  1  0.83691291  0.83780254  0.83771785  1
" 