7522,Ni70Cr30_3,-211.523880675921, 144.110510798494,Ni70Cr30,"# generated using pymatgen
 data_Cr37Ni17
_symmetry_space_group_name_H-M   'P 1'
_cell_length_a   7.55947187
_cell_length_b   7.55947187
_cell_length_c   10.69070764
_cell_angle_alpha   90.00000000
_cell_angle_beta   90.00000000
_cell_angle_gamma   90.00000000
_symmetry_Int_Tables_number   1
_chemical_formula_structural   Cr37Ni17
_chemical_formula_sum   'Cr37 Ni17'
_cell_volume   610.92706285
_cell_formula_units_Z   1
loop_
 _symmetry_equiv_pos_site_id
 _symmetry_equiv_pos_as_xyz
  1  'x, y, z'
loop_
 _atom_site_type_symbol
 _atom_site_label
 _atom_site_symmetry_multiplicity
 _atom_site_fract_x
 _atom_site_fract_y
 _atom_site_fract_z
 _atom_site_occupancy
  Ni  Ni0  1  0.99121605  0.99161158  -0.00409687  1
  Ni  Ni1  1  0.15865690  0.15902482  0.15934252  1
  Cr  Cr2  1  0.99251036  -0.00526278  0.32428091  1
  Cr  Cr3  1  0.99206070  0.32799083  -0.00513232  1
  Cr  Cr4  1  0.15870275  0.49553245  0.15889789  1
  Cr  Cr5  1  0.99224186  0.32812082  0.32620923  1
  Ni  Ni6  1  0.98773507  0.66243952  0.99355634  1
  Cr  Cr7  1  0.15766993  0.82591267  0.16007843  1
  Cr  Cr8  1  0.98976806  0.65879320  0.32645858  1
  Cr  Cr9  1  0.32728459  0.99341591  -0.00497577  1
  Ni  Ni10  1  0.49660865  0.16010646  0.15961067  1
  Cr  Cr11  1  0.32808398  -0.00595523  0.32381448  1
  Cr  Cr12  1  0.32722861  0.32519205  -0.00442510  1
  Cr  Cr13  1  0.49699348  0.49405206  0.15885591  1
  Cr  Cr14  1  0.32683059  0.32674592  0.32587910  1
  Cr  Cr15  1  0.33009482  0.66330674  0.99361666  1
  Ni  Ni16  1  0.49772378  0.82784921  0.15912196  1
  Cr  Cr17  1  0.33006733  0.66084751  0.32742922  1
  Cr  Cr18  1  0.66071285  0.99045986  0.99384870  1
  Ni  Ni19  1  0.82632781  0.16040779  0.15882391  1
  Cr  Cr20  1  0.66099718  0.99213408  0.32456830  1
  Ni  Ni21  1  0.66371784  0.32890352  -0.00401413  1
  Ni  Ni22  1  0.82569662  0.49490433  0.15760266  1
  Cr  Cr23  1  0.66252111  0.32932926  0.32744925  1
  Ni  Ni24  1  0.66467548  0.66076672  -0.00596025  1
  Ni  Ni25  1  0.82585218  0.82645625  0.15754131  1
  Cr  Cr26  1  0.66193277  0.66027419  0.32603227  1
  Cr  Cr27  1  0.15991875  0.15909871  0.49392819  1
  Cr  Cr28  1  0.99211177  0.99213274  0.66211290  1
  Cr  Cr29  1  0.15877598  0.15971161  0.82822756  1
  Cr  Cr30  1  0.16116716  0.49669191  0.49488922  1
  Cr  Cr31  1  0.99214403  0.33089756  0.66009761  1
  Cr  Cr32  1  0.15881252  0.49691318  0.82749608  1
  Cr  Cr33  1  0.15954248  0.82596995  0.49505847  1
  Ni  Ni34  1  0.99216226  0.65944695  0.66164948  1
  Cr  Cr35  1  0.15769937  0.82522060  0.82689181  1
  Cr  Cr36  1  0.49553162  0.16164509  0.49417984  1
  Cr  Cr37  1  0.32877619  0.99181848  0.66257449  1
  Cr  Cr38  1  0.49667112  0.16172890  0.82796493  1
  Ni  Ni39  1  0.49530426  0.49521763  0.49519024  1
  Cr  Cr40  1  0.32699838  0.32905236  0.66055201  1
  Cr  Cr41  1  0.49657817  0.49435041  0.82916454  1
  Cr  Cr42  1  0.49342754  0.82599850  0.49393307  1
  Ni  Ni43  1  0.32780764  0.66051897  0.66043800  1
  Ni  Ni44  1  0.49633393  0.82398170  0.82726261  1
  Cr  Cr45  1  0.82617891  0.16014243  0.49413553  1
  Cr  Cr46  1  0.66066740  0.99030205  0.66224382  1
  Cr  Cr47  1  0.82617410  0.16053244  0.82837282  1
  Ni  Ni48  1  0.82615067  0.49577427  0.49525570  1
  Cr  Cr49  1  0.66234987  0.33065472  0.66008695  1
  Ni  Ni50  1  0.82682391  0.49807660  0.82916919  1
  Cr  Cr51  1  0.82864318  0.82691467  0.49407917  1
  Cr  Cr52  1  0.66191322  0.66051771  0.66135531  1
  Ni  Ni53  1  0.82731452  0.82322040  0.82916690  1
" 