930,Ni70Fe28Cr1_6,-242.465564284643, 214.339676683399,Ni70Fe28Cr1,"# generated using pymatgen
 data_CrFe15Ni38
_symmetry_space_group_name_H-M   'P 1'
_cell_length_a   7.41739008
_cell_length_b   7.41739008
_cell_length_c   10.48977365
_cell_angle_alpha   90.00000000
_cell_angle_beta   90.00000000
_cell_angle_gamma   90.00000000
_symmetry_Int_Tables_number   1
_chemical_formula_structural   CrFe15Ni38
_chemical_formula_sum   'Cr1 Fe15 Ni38'
_cell_volume   577.12296422
_cell_formula_units_Z   1
loop_
 _symmetry_equiv_pos_site_id
 _symmetry_equiv_pos_as_xyz
  1  'x, y, z'
loop_
 _atom_site_type_symbol
 _atom_site_label
 _atom_site_symmetry_multiplicity
 _atom_site_fract_x
 _atom_site_fract_y
 _atom_site_fract_z
 _atom_site_occupancy
  Ni  Ni0  1  0.00406068  1.00303038  0.00375762  1
  Ni  Ni1  1  0.16780556  0.17107273  0.16862555  1
  Ni  Ni2  1  1.00159139  1.00318870  0.33665731  1
  Ni  Ni3  1  1.00298451  0.33741885  0.00372061  1
  Fe  Fe4  1  0.16984933  0.50300272  0.17036382  1
  Fe  Fe5  1  1.00317413  0.33553277  0.33702120  1
  Ni  Ni6  1  1.00265594  0.66959766  0.00346397  1
  Fe  Fe7  1  0.16874729  0.83683388  0.16861164  1
  Fe  Fe8  1  1.00283597  0.67092578  0.33689836  1
  Ni  Ni9  1  0.33656761  1.00298620  0.00341540  1
  Fe  Fe10  1  0.50466938  0.17014868  0.16947475  1
  Cr  Cr11  1  0.33664475  0.00407193  0.33831952  1
  Fe  Fe12  1  0.33685351  0.33648318  0.00401262  1
  Ni  Ni13  1  0.50259033  0.50432500  0.17005751  1
  Ni  Ni14  1  0.33627474  0.33874958  0.33710819  1
  Fe  Fe15  1  0.33738796  0.67074436  1.00264541  1
  Ni  Ni16  1  0.50463682  0.83431270  0.16859478  1
  Fe  Fe17  1  0.33769853  0.66880796  0.33757716  1
  Ni  Ni18  1  0.66941700  1.00265989  0.00407957  1
  Ni  Ni19  1  0.83848595  0.16902946  0.17000316  1
  Ni  Ni20  1  0.67217208  1.00197705  0.33658159  1
  Ni  Ni21  1  0.67046962  0.33780837  0.00410431  1
  Fe  Fe22  1  0.83602845  0.50365748  0.16917261  1
  Fe  Fe23  1  0.66976026  0.33612223  0.33708168  1
  Ni  Ni24  1  0.67042723  0.66957239  1.00286768  1
  Ni  Ni25  1  0.83615107  0.83813621  0.16930273  1
  Ni  Ni26  1  0.67033512  0.66994311  0.33719631  1
  Ni  Ni27  1  0.16886173  0.17096171  0.50479050  1
  Ni  Ni28  1  0.00352704  0.00341139  0.66962525  1
  Fe  Fe29  1  0.16937111  0.16930779  0.83664663  1
  Ni  Ni30  1  0.17107186  0.50265892  0.50330060  1
  Ni  Ni31  1  1.00324305  0.33692391  0.66931575  1
  Fe  Fe32  1  0.16921506  0.50421144  0.83602027  1
  Ni  Ni33  1  0.16950311  0.83642026  0.50356048  1
  Fe  Fe34  1  0.00377844  0.67018234  0.67027130  1
  Ni  Ni35  1  0.17041171  0.83746796  0.83758698  1
  Ni  Ni36  1  0.50373863  0.17128621  0.50385491  1
  Ni  Ni37  1  0.33649328  1.00255521  0.66905694  1
  Fe  Fe38  1  0.50455940  0.16928542  0.83595378  1
  Ni  Ni39  1  0.50251961  0.50332669  0.50327972  1
  Ni  Ni40  1  0.33652098  0.33752058  0.66979685  1
  Ni  Ni41  1  0.50341102  0.50372856  0.83670465  1
  Ni  Ni42  1  0.50376603  0.83542765  0.50439685  1
  Ni  Ni43  1  0.33683233  0.66996548  0.66897909  1
  Ni  Ni44  1  0.50255407  0.83566399  0.83704791  1
  Ni  Ni45  1  0.83744223  0.16971335  0.50290519  1
  Ni  Ni46  1  0.67002422  1.00309594  0.66937728  1
  Ni  Ni47  1  0.83772506  0.17034716  0.83713331  1
  Ni  Ni48  1  0.83645118  0.50268429  0.50303116  1
  Ni  Ni49  1  0.67027763  0.33726349  0.66901360  1
  Ni  Ni50  1  0.83591785  0.50222627  0.83763419  1
  Ni  Ni51  1  0.83677381  0.83764019  0.50356182  1
  Fe  Fe52  1  0.66941542  0.66987394  0.67001921  1
  Ni  Ni53  1  0.83707703  0.83746873  0.83717884  1
" 