8180,Ni70Fe28Cr1_19,-242.653367784859, 215.660041117966,Ni70Fe28Cr1,"# generated using pymatgen
 data_CrFe15Ni38
_symmetry_space_group_name_H-M   'P 1'
_cell_length_a   7.41839838
_cell_length_b   7.41839838
_cell_length_c   10.49119960
_cell_angle_alpha   90.00000000
_cell_angle_beta   90.00000000
_cell_angle_gamma   90.00000000
_symmetry_Int_Tables_number   1
_chemical_formula_structural   CrFe15Ni38
_chemical_formula_sum   'Cr1 Fe15 Ni38'
_cell_volume   577.35835276
_cell_formula_units_Z   1
loop_
 _symmetry_equiv_pos_site_id
 _symmetry_equiv_pos_as_xyz
  1  'x, y, z'
loop_
 _atom_site_type_symbol
 _atom_site_label
 _atom_site_symmetry_multiplicity
 _atom_site_fract_x
 _atom_site_fract_y
 _atom_site_fract_z
 _atom_site_occupancy
  Ni  Ni0  1  0.00452302  0.00462380  1.00323577  1
  Ni  Ni1  1  0.17023356  0.16950433  0.16989117  1
  Ni  Ni2  1  0.00520428  0.00381992  0.33666266  1
  Ni  Ni3  1  0.00376555  0.33638715  0.00385950  1
  Ni  Ni4  1  0.16819591  0.50324724  0.16917248  1
  Ni  Ni5  1  1.00290723  0.33677516  0.33662750  1
  Fe  Fe6  1  1.00297593  0.67059261  0.00350683  1
  Ni  Ni7  1  0.17025676  0.83708868  0.16984599  1
  Ni  Ni8  1  1.00290295  0.66924207  0.33611870  1
  Ni  Ni9  1  0.33682041  1.00321509  1.00300559  1
  Ni  Ni10  1  0.50312078  0.16919594  0.16952672  1
  Ni  Ni11  1  0.33617879  1.00321502  0.33653345  1
  Fe  Fe12  1  0.33661287  0.33515901  0.00380991  1
  Ni  Ni13  1  0.50490171  0.50330862  0.16961081  1
  Fe  Fe14  1  0.33596656  0.33639353  0.33618395  1
  Fe  Fe15  1  0.33659560  0.67133655  1.00327826  1
  Ni  Ni16  1  0.50314990  0.83732815  0.16957150  1
  Fe  Fe17  1  0.33584224  0.67010224  0.33671524  1
  Ni  Ni18  1  0.66849664  1.00241130  0.00414691  1
  Fe  Fe19  1  0.83714092  0.17047133  0.17028990  1
  Fe  Fe20  1  0.67036343  0.00334040  0.33679142  1
  Fe  Fe21  1  0.67019088  0.33581890  0.00342233  1
  Ni  Ni22  1  0.83673395  0.50328128  0.17023937  1
  Ni  Ni23  1  0.67022280  0.33791261  0.33602532  1
  Ni  Ni24  1  0.66887376  0.66986020  1.00302569  1
  Fe  Fe25  1  0.83654853  0.83608409  0.17028953  1
  Ni  Ni26  1  0.66961430  0.66870996  0.33713684  1
  Ni  Ni27  1  0.17004442  0.16969785  0.50385910  1
  Ni  Ni28  1  0.00643595  0.00402119  0.66994197  1
  Ni  Ni29  1  0.17049269  0.16878568  0.83608699  1
  Ni  Ni30  1  0.16799966  0.50337132  0.50375206  1
  Ni  Ni31  1  1.00298176  0.33678732  0.66934874  1
  Fe  Fe32  1  0.17001927  0.50321078  0.83615442  1
  Ni  Ni33  1  0.17006247  0.83676719  0.50388627  1
  Ni  Ni34  1  0.00377680  0.66902766  0.67015959  1
  Ni  Ni35  1  0.17054556  0.83771815  0.83610370  1
  Ni  Ni36  1  0.50266800  0.16978378  0.50273609  1
  Ni  Ni37  1  0.33467302  1.00262316  0.67029786  1
  Ni  Ni38  1  0.50208070  0.16958946  0.83757661  1
  Fe  Fe39  1  0.50404691  0.50350352  0.50312519  1
  Fe  Fe40  1  0.33616622  0.33626163  0.66983973  1
  Fe  Fe41  1  0.50334298  0.50380308  0.83660209  1
  Ni  Ni42  1  0.50263358  0.83669517  0.50276058  1
  Ni  Ni43  1  0.33694168  0.67080961  0.66973799  1
  Ni  Ni44  1  0.50208190  0.83685119  0.83750631  1
  Ni  Ni45  1  0.83712749  0.17183922  0.50297041  1
  Cr  Cr46  1  0.66920014  1.00311636  0.66920702  1
  Fe  Fe47  1  0.83788228  0.17027728  0.83701450  1
  Ni  Ni48  1  0.83704931  0.50333933  0.50355767  1
  Ni  Ni49  1  0.67051589  0.33906111  0.67048394  1
  Ni  Ni50  1  0.83640320  0.50334056  0.83604022  1
  Ni  Ni51  1  0.83714313  0.83465807  0.50304302  1
  Ni  Ni52  1  0.66911830  0.66735628  0.66967410  1
  Fe  Fe53  1  0.83729113  0.83634258  0.83707424  1
" 