3129,Ni70Cr30_4,-211.647897991828, 146.670303486126,Ni70Cr30,"# generated using pymatgen
 data_Cr37Ni17
_symmetry_space_group_name_H-M   'P 1'
_cell_length_a   7.55775611
_cell_length_b   7.55775611
_cell_length_c   10.68828119
_cell_angle_alpha   90.00000000
_cell_angle_beta   90.00000000
_cell_angle_gamma   90.00000000
_symmetry_Int_Tables_number   1
_chemical_formula_structural   Cr37Ni17
_chemical_formula_sum   'Cr37 Ni17'
_cell_volume   610.51117389
_cell_formula_units_Z   1
loop_
 _symmetry_equiv_pos_site_id
 _symmetry_equiv_pos_as_xyz
  1  'x, y, z'
loop_
 _atom_site_type_symbol
 _atom_site_label
 _atom_site_symmetry_multiplicity
 _atom_site_fract_x
 _atom_site_fract_y
 _atom_site_fract_z
 _atom_site_occupancy
  Cr  Cr0  1  -0.00565286  0.99317270  0.99182388  1
  Cr  Cr1  1  0.16272819  0.16109834  0.16037070  1
  Cr  Cr2  1  -0.00443463  -0.00483892  0.32832537  1
  Cr  Cr3  1  -0.00229798  0.32861252  -0.00502338  1
  Ni  Ni4  1  0.16519684  0.49602984  0.15902691  1
  Cr  Cr5  1  -0.00396369  0.32892999  0.32799362  1
  Ni  Ni6  1  -0.00173613  0.66035514  0.99378154  1
  Cr  Cr7  1  0.16242206  0.82558904  0.16095348  1
  Cr  Cr8  1  -0.00347337  0.65761575  0.32704464  1
  Cr  Cr9  1  0.32651535  -0.00582449  0.99071178  1
  Cr  Cr10  1  0.49222342  0.16298403  0.16156038  1
  Ni  Ni11  1  0.32739269  -0.00514002  0.32989395  1
  Ni  Ni12  1  0.32596820  0.33066372  -0.00514627  1
  Ni  Ni13  1  0.48946214  0.49384930  0.16052755  1
  Cr  Cr14  1  0.32589781  0.32925642  0.32911046  1
  Ni  Ni15  1  0.32433432  0.65783127  -0.00439205  1
  Cr  Cr16  1  0.48936683  0.82617380  0.16203587  1
  Ni  Ni17  1  0.32633652  0.65880123  0.32599522  1
  Cr  Cr18  1  0.66072152  0.99260841  -0.00542853  1
  Cr  Cr19  1  0.82697045  0.16185298  0.16178495  1
  Cr  Cr20  1  0.65882031  -0.00568858  0.32641646  1
  Cr  Cr21  1  0.65883186  0.32846928  -0.00474065  1
  Cr  Cr22  1  0.82842405  0.49306641  0.16057488  1
  Ni  Ni23  1  0.65752636  0.32797929  0.32751442  1
  Cr  Cr24  1  0.65976861  0.66095863  -0.00491076  1
  Cr  Cr25  1  0.83032458  0.82708123  0.16018191  1
  Cr  Cr26  1  0.65879065  0.65886193  0.32631627  1
  Ni  Ni27  1  0.16269165  0.16012557  0.49426063  1
  Ni  Ni28  1  -0.00307032  0.99336745  0.66186354  1
  Ni  Ni29  1  0.16063905  0.15910147  0.82725768  1
  Ni  Ni30  1  0.16100911  0.49441269  0.49365553  1
  Cr  Cr31  1  -0.00212789  0.32655992  0.65908786  1
  Cr  Cr32  1  0.16114040  0.49573874  0.82937506  1
  Cr  Cr33  1  0.16090150  0.82686348  0.49316090  1
  Ni  Ni34  1  -0.00474720  0.66225246  0.66086958  1
  Ni  Ni35  1  0.15862624  0.82691398  0.82734688  1
  Ni  Ni36  1  0.49278605  0.16198964  0.49275210  1
  Cr  Cr37  1  0.32505513  -0.00420323  0.66059829  1
  Cr  Cr38  1  0.49250634  0.16412636  0.82766121  1
  Cr  Cr39  1  0.49450809  0.49312883  0.49517664  1
  Cr  Cr40  1  0.32622603  0.32600115  0.65965407  1
  Cr  Cr41  1  0.49369520  0.49341911  0.82730978  1
  Cr  Cr42  1  0.49205690  0.82740083  0.49227050  1
  Cr  Cr43  1  0.32606572  0.66021415  0.66019851  1
  Cr  Cr44  1  0.49079291  0.82430179  0.82719916  1
  Cr  Cr45  1  0.82629194  0.16192533  0.49366607  1
  Cr  Cr46  1  0.65942433  0.99346609  0.66097585  1
  Cr  Cr47  1  0.82837436  0.16234328  0.82643762  1
  Cr  Cr48  1  0.82737526  0.49389027  0.49738578  1
  Ni  Ni49  1  0.65977485  0.32761786  0.65897922  1
  Cr  Cr50  1  0.82761996  0.49434250  0.82386466  1
  Cr  Cr51  1  0.82896613  0.82619536  0.49655569  1
  Ni  Ni52  1  0.66243364  0.65890659  0.66080904  1
  Cr  Cr53  1  0.83046542  0.82519400  0.82527039  1
" 