1342,Ni70Fe9Cr20_1,-231.937158490945, 167.968592835495,Ni70Fe9Cr20,"# generated using pymatgen
 data_Cr6Fe2Ni19
_symmetry_space_group_name_H-M   'P 1'
_cell_length_a   7.46732279
_cell_length_b   7.46732279
_cell_length_c   10.56038916
_cell_angle_alpha   90.00000000
_cell_angle_beta   90.00000000
_cell_angle_gamma   90.00000000
_symmetry_Int_Tables_number   1
_chemical_formula_structural   Cr6Fe2Ni19
_chemical_formula_sum   'Cr12 Fe4 Ni38'
_cell_volume   588.85690574
_cell_formula_units_Z   2
loop_
 _symmetry_equiv_pos_site_id
 _symmetry_equiv_pos_as_xyz
  1  'x, y, z'
loop_
 _atom_site_type_symbol
 _atom_site_label
 _atom_site_symmetry_multiplicity
 _atom_site_fract_x
 _atom_site_fract_y
 _atom_site_fract_z
 _atom_site_occupancy
  Ni  Ni0  1  0.00046967  0.00094163  0.00067924  1
  Fe  Fe1  1  0.17002255  0.16662145  0.16470330  1
  Cr  Cr2  1  0.00131395  0.99952676  0.33429646  1
  Ni  Ni3  1  0.00065350  0.33254395  0.00179042  1
  Ni  Ni4  1  0.16858310  0.50135301  0.16643924  1
  Cr  Cr5  1  0.00117214  0.33284686  0.33119818  1
  Ni  Ni6  1  0.99951246  0.66652576  0.00089508  1
  Ni  Ni7  1  0.16924495  0.83062615  0.16638936  1
  Ni  Ni8  1  0.00258719  0.66718889  0.33382639  1
  Fe  Fe9  1  0.33500585  0.00106948  0.00118579  1
  Ni  Ni10  1  0.50171586  0.16728956  0.16784278  1
  Ni  Ni11  1  0.33424053  0.00050724  0.33149210  1
  Ni  Ni12  1  0.33448701  0.33293297  0.00016122  1
  Ni  Ni13  1  0.49818189  0.49939076  0.16707942  1
  Ni  Ni14  1  0.33558289  0.33378551  0.33449529  1
  Ni  Ni15  1  0.33550444  0.66594082  0.00177217  1
  Ni  Ni16  1  0.49810918  0.83326961  0.16638686  1
  Ni  Ni17  1  0.33244835  0.66567404  0.33257851  1
  Ni  Ni18  1  0.66551969  0.00006362  0.99938660  1
  Ni  Ni19  1  0.83033213  0.16815687  0.16498762  1
  Ni  Ni20  1  0.66506595  0.00206333  0.33402819  1
  Ni  Ni21  1  0.66491882  0.33372820  0.00108044  1
  Fe  Fe22  1  0.83129583  0.50007426  0.16510300  1
  Ni  Ni23  1  0.66336419  0.33205468  0.33203937  1
  Ni  Ni24  1  0.66473452  0.66632900  0.99780862  1
  Cr  Cr25  1  0.83182147  0.83396438  0.16672459  1
  Ni  Ni26  1  0.66477183  0.66590806  0.33236451  1
  Ni  Ni27  1  0.16773001  0.16704634  0.50221183  1
  Ni  Ni28  1  0.00038403  0.00216554  0.66446847  1
  Ni  Ni29  1  0.16844303  0.16712676  0.83374914  1
  Ni  Ni30  1  0.16991351  0.49818044  0.49915310  1
  Ni  Ni31  1  0.00305973  0.32944744  0.66611261  1
  Cr  Cr32  1  0.16652720  0.49548813  0.83348856  1
  Ni  Ni33  1  0.16645239  0.83467612  0.49844099  1
  Cr  Cr34  1  0.99870118  0.66797415  0.66506768  1
  Cr  Cr35  1  0.16684913  0.83684495  0.83510652  1
  Fe  Fe36  1  0.49837902  0.16687066  0.49881600  1
  Ni  Ni37  1  0.33280000  0.00407007  0.66762210  1
  Ni  Ni38  1  0.49788984  0.16588087  0.83315325  1
  Ni  Ni39  1  0.49637043  0.49730830  0.49694812  1
  Ni  Ni40  1  0.33231204  0.32974550  0.66540426  1
  Ni  Ni41  1  0.50021078  0.49848685  0.83615723  1
  Cr  Cr42  1  0.50003367  0.83450237  0.49708251  1
  Cr  Cr43  1  0.33521330  0.66516856  0.66603122  1
  Ni  Ni44  1  0.50214010  0.83565029  0.83608514  1
  Ni  Ni45  1  0.83285499  0.16388453  0.50088608  1
  Ni  Ni46  1  0.66679187  0.00013004  0.66637594  1
  Cr  Cr47  1  0.83508088  0.16609552  0.83355269  1
  Cr  Cr48  1  0.83278224  0.49903254  0.49708829  1
  Cr  Cr49  1  0.66383278  0.33276609  0.66701625  1
  Ni  Ni50  1  0.83256586  0.50023121  0.83765255  1
  Ni  Ni51  1  0.83373956  0.83719636  0.49956130  1
  Cr  Cr52  1  0.66599599  0.66833570  0.67085590  1
  Ni  Ni53  1  0.83129151  0.83432284  0.83418253  1
" 