6945,Ni70Fe30_9,-236.206522240457, 203.662531163446,Ni70Fe30,"# generated using pymatgen
 data_Fe37Ni17
_symmetry_space_group_name_H-M   'P 1'
_cell_length_a   7.39602792
_cell_length_b   7.39602792
_cell_length_c   10.45956299
_cell_angle_alpha   90.00000000
_cell_angle_beta   90.00000000
_cell_angle_gamma   90.00000000
_symmetry_Int_Tables_number   1
_chemical_formula_structural   Fe37Ni17
_chemical_formula_sum   'Fe37 Ni17'
_cell_volume   572.15095075
_cell_formula_units_Z   1
loop_
 _symmetry_equiv_pos_site_id
 _symmetry_equiv_pos_as_xyz
  1  'x, y, z'
loop_
 _atom_site_type_symbol
 _atom_site_label
 _atom_site_symmetry_multiplicity
 _atom_site_fract_x
 _atom_site_fract_y
 _atom_site_fract_z
 _atom_site_occupancy
  Ni  Ni0  1  0.00606288  0.00587096  0.00522879  1
  Fe  Fe1  1  0.17185812  0.17256182  0.17083455  1
  Fe  Fe2  1  0.00509651  0.00500226  0.33767614  1
  Fe  Fe3  1  0.00503712  0.33790439  0.00503314  1
  Ni  Ni4  1  0.17105659  0.50534013  0.17070246  1
  Ni  Ni5  1  1.00406965  0.33857216  0.33768972  1
  Fe  Fe6  1  1.00469188  0.67276170  0.00489049  1
  Fe  Fe7  1  0.17243599  0.83792006  0.17077653  1
  Fe  Fe8  1  0.00558639  0.67101906  0.33790085  1
  Ni  Ni9  1  0.33728472  1.00459379  1.00414948  1
  Ni  Ni10  1  0.50489231  0.17142379  0.17112765  1
  Ni  Ni11  1  0.33877465  1.00437263  0.33867900  1
  Fe  Fe12  1  0.33840412  0.33757253  0.00526675  1
  Ni  Ni13  1  0.50488370  0.50354842  0.17209034  1
  Fe  Fe14  1  0.33821405  0.33803814  0.33813326  1
  Fe  Fe15  1  0.33782420  0.67215900  1.00439587  1
  Fe  Fe16  1  0.50456135  0.83718368  0.17131996  1
  Fe  Fe17  1  0.33731623  0.67044428  0.33894954  1
  Fe  Fe18  1  0.67156047  1.00432301  1.00471064  1
  Fe  Fe19  1  0.83822453  0.17330524  0.17164645  1
  Fe  Fe20  1  0.67116320  0.00590934  0.33849552  1
  Fe  Fe21  1  0.67096520  0.33774884  0.00559763  1
  Ni  Ni22  1  0.83845896  0.50575616  0.17176971  1
  Fe  Fe23  1  0.67059398  0.33755267  0.33789565  1
  Ni  Ni24  1  0.67104679  0.67060794  1.00461004  1
  Fe  Fe25  1  0.83740668  0.83694174  0.17044611  1
  Fe  Fe26  1  0.67150046  0.67094007  0.33726220  1
  Fe  Fe27  1  0.17206716  0.17272710  0.50511209  1
  Fe  Fe28  1  0.00531328  1.00431078  0.67298570  1
  Ni  Ni29  1  0.17192380  0.17038178  0.83781254  1
  Ni  Ni30  1  0.17176000  0.50522417  0.50533441  1
  Ni  Ni31  1  1.00417414  0.33778784  0.67180819  1
  Fe  Fe32  1  0.17083319  0.50525641  0.83730211  1
  Fe  Fe33  1  0.17330049  0.83766655  0.50526132  1
  Fe  Fe34  1  0.00551188  0.67131942  0.67161082  1
  Ni  Ni35  1  0.16971598  0.83902925  0.83793456  1
  Ni  Ni36  1  0.50500760  0.17198810  0.50534477  1
  Fe  Fe37  1  0.33744195  0.00520445  0.67170326  1
  Fe  Fe38  1  0.50409700  0.16996120  0.83836914  1
  Ni  Ni39  1  0.50406466  0.50344189  0.50407654  1
  Fe  Fe40  1  0.33783758  0.33879058  0.67100033  1
  Fe  Fe41  1  0.50443276  0.50608558  0.83804637  1
  Fe  Fe42  1  0.50378733  0.83758320  0.50480227  1
  Ni  Ni43  1  0.33928579  0.67224025  0.67158689  1
  Fe  Fe44  1  0.50401864  0.83835558  0.83828160  1
  Fe  Fe45  1  0.83814015  0.17312282  0.50489270  1
  Fe  Fe46  1  0.67164943  0.00488835  0.67119862  1
  Fe  Fe47  1  0.83989431  0.17045069  0.83786673  1
  Fe  Fe48  1  0.83806034  0.50360370  0.50425303  1
  Fe  Fe49  1  0.67073881  0.33859347  0.67091214  1
  Fe  Fe50  1  0.83913745  0.50517963  0.83868578  1
  Fe  Fe51  1  0.83731949  0.83767570  0.50534935  1
  Fe  Fe52  1  0.67163650  0.67091729  0.67210560  1
  Ni  Ni53  1  0.83914462  0.83810542  0.83834969  1
" 