1755,Ni70Fe27Cr1_7,-241.708024811324, 213.541654973189,Ni70Fe27Cr1,"# generated using pymatgen
 data_Cr2Fe15Ni37
_symmetry_space_group_name_H-M   'P 1'
_cell_length_a   7.41926196
_cell_length_b   7.41926196
_cell_length_c   10.49242089
_cell_angle_alpha   90.00000000
_cell_angle_beta   90.00000000
_cell_angle_gamma   90.00000000
_symmetry_Int_Tables_number   1
_chemical_formula_structural   Cr2Fe15Ni37
_chemical_formula_sum   'Cr2 Fe15 Ni37'
_cell_volume   577.56000868
_cell_formula_units_Z   1
loop_
 _symmetry_equiv_pos_site_id
 _symmetry_equiv_pos_as_xyz
  1  'x, y, z'
loop_
 _atom_site_type_symbol
 _atom_site_label
 _atom_site_symmetry_multiplicity
 _atom_site_fract_x
 _atom_site_fract_y
 _atom_site_fract_z
 _atom_site_occupancy
  Ni  Ni0  1  0.00500324  1.00321971  1.00260980  1
  Fe  Fe1  1  0.16872080  0.16959196  0.16930692  1
  Ni  Ni2  1  1.00205779  1.00250190  0.33684180  1
  Ni  Ni3  1  1.00221886  0.33584168  0.00434141  1
  Ni  Ni4  1  0.17074971  0.50360171  0.16967624  1
  Ni  Ni5  1  1.00311919  0.33692706  0.33679969  1
  Fe  Fe6  1  0.00328630  0.67027656  0.00453949  1
  Ni  Ni7  1  0.17021751  0.83557086  0.16847701  1
  Ni  Ni8  1  0.00454710  0.67023181  0.33656690  1
  Ni  Ni9  1  0.33450835  1.00207627  0.00372797  1
  Fe  Fe10  1  0.50260533  0.17067120  0.17102883  1
  Fe  Fe11  1  0.33599386  0.00345639  0.33722229  1
  Ni  Ni12  1  0.33727002  0.33696395  0.00372411  1
  Fe  Fe13  1  0.50270630  0.50323302  0.17012544  1
  Ni  Ni14  1  0.33689265  0.33805400  0.33680645  1
  Ni  Ni15  1  0.33699853  0.67061929  0.00350812  1
  Fe  Fe16  1  0.50203139  0.83576100  0.17032039  1
  Ni  Ni17  1  0.33576519  0.66940384  0.33737322  1
  Cr  Cr18  1  0.67068355  0.00396272  1.00208488  1
  Ni  Ni19  1  0.83668938  0.17026005  0.17034727  1
  Ni  Ni20  1  0.67047504  0.00363437  0.33733384  1
  Ni  Ni21  1  0.67017426  0.33833602  1.00279611  1
  Fe  Fe22  1  0.83765878  0.50305830  0.16982841  1
  Ni  Ni23  1  0.66964888  0.33556596  0.33666779  1
  Fe  Fe24  1  0.66946954  0.66817764  1.00231396  1
  Ni  Ni25  1  0.83721602  0.83694867  0.16986783  1
  Fe  Fe26  1  0.67052810  0.66973400  0.33756947  1
  Ni  Ni27  1  0.16976001  0.17046033  0.50268404  1
  Ni  Ni28  1  0.00357128  1.00293649  0.67020588  1
  Ni  Ni29  1  0.16932921  0.16860076  0.83802575  1
  Ni  Ni30  1  0.17006084  0.50316603  0.50310504  1
  Ni  Ni31  1  1.00186355  0.33626294  0.66852125  1
  Cr  Cr32  1  0.16930977  0.50226406  0.83610017  1
  Ni  Ni33  1  0.17035652  0.83603663  0.50376480  1
  Ni  Ni34  1  1.00245766  0.67046458  0.66904132  1
  Fe  Fe35  1  0.16953730  0.83901854  0.83676224  1
  Ni  Ni36  1  0.50365886  0.16963115  0.50362377  1
  Ni  Ni37  1  0.33673489  1.00257077  0.66993534  1
  Fe  Fe38  1  0.50269454  0.17081755  0.83553635  1
  Ni  Ni39  1  0.50279984  0.50343135  0.50383127  1
  Fe  Fe40  1  0.33698768  0.33505694  0.66845388  1
  Fe  Fe41  1  0.50551740  0.50257910  0.83664722  1
  Ni  Ni42  1  0.50333256  0.83659870  0.50224928  1
  Fe  Fe43  1  0.33764346  0.67143566  0.66857876  1
  Ni  Ni44  1  0.50253948  0.83604950  0.83649320  1
  Ni  Ni45  1  0.83623960  0.16992584  0.50339391  1
  Ni  Ni46  1  0.66935576  1.00316403  0.66977092  1
  Ni  Ni47  1  0.83747144  0.17115624  0.83591635  1
  Ni  Ni48  1  0.83680310  0.50283804  0.50270971  1
  Ni  Ni49  1  0.67021332  0.33687654  0.67020635  1
  Ni  Ni50  1  0.83494388  0.50216003  0.83787689  1
  Ni  Ni51  1  0.83597325  0.83689576  0.50363004  1
  Ni  Ni52  1  0.66985572  0.66961978  0.66984479  1
  Fe  Fe53  1  0.83765384  0.83620315  0.83518624  1
" 