6766,Ni70Fe28Cr1_9,-242.374860799773, 217.170207948395,Ni70Fe28Cr1,"# generated using pymatgen
 data_CrFe15Ni38
_symmetry_space_group_name_H-M   'P 1'
_cell_length_a   7.41895985
_cell_length_b   7.41895985
_cell_length_c   10.49199364
_cell_angle_alpha   90.00000000
_cell_angle_beta   90.00000000
_cell_angle_gamma   90.00000000
_symmetry_Int_Tables_number   1
_chemical_formula_structural   CrFe15Ni38
_chemical_formula_sum   'Cr1 Fe15 Ni38'
_cell_volume   577.48945733
_cell_formula_units_Z   1
loop_
 _symmetry_equiv_pos_site_id
 _symmetry_equiv_pos_as_xyz
  1  'x, y, z'
loop_
 _atom_site_type_symbol
 _atom_site_label
 _atom_site_symmetry_multiplicity
 _atom_site_fract_x
 _atom_site_fract_y
 _atom_site_fract_z
 _atom_site_occupancy
  Ni  Ni0  1  1.00311175  1.00175648  0.00343752  1
  Ni  Ni1  1  0.17075541  0.16941282  0.17129984  1
  Ni  Ni2  1  1.00255762  1.00300419  0.33600913  1
  Cr  Cr3  1  1.00317954  0.33551935  0.00432450  1
  Ni  Ni4  1  0.17029962  0.50388432  0.17009210  1
  Fe  Fe5  1  1.00293714  0.33553871  0.33656669  1
  Fe  Fe6  1  0.00441581  0.67195238  0.00324714  1
  Ni  Ni7  1  0.17020058  0.83643282  0.16945674  1
  Fe  Fe8  1  1.00317116  0.66974033  0.33637931  1
  Ni  Ni9  1  0.33613941  1.00234453  0.00451225  1
  Ni  Ni10  1  0.50332358  0.16979292  0.16937262  1
  Fe  Fe11  1  0.33719498  0.00418204  0.33659033  1
  Ni  Ni12  1  0.33816249  0.33740860  1.00315993  1
  Fe  Fe13  1  0.50278738  0.50270666  0.16981749  1
  Ni  Ni14  1  0.33704504  0.33757362  0.33611798  1
  Ni  Ni15  1  0.33729744  0.66997346  0.00387224  1
  Ni  Ni16  1  0.50303136  0.83689867  0.16989934  1
  Fe  Fe17  1  0.33681624  0.67010653  0.33687207  1
  Fe  Fe18  1  0.66925402  1.00313432  0.00365354  1
  Ni  Ni19  1  0.83563583  0.16968649  0.17050476  1
  Ni  Ni20  1  0.67096556  0.00359199  0.33612332  1
  Fe  Fe21  1  0.66794119  0.33622681  1.00323762  1
  Ni  Ni22  1  0.83610320  0.50358220  0.17099504  1
  Ni  Ni23  1  0.66930705  0.33641528  0.33559934  1
  Fe  Fe24  1  0.66934918  0.67035606  1.00254201  1
  Ni  Ni25  1  0.83649371  0.83644995  0.16947404  1
  Fe  Fe26  1  0.66973638  0.67015512  0.33663247  1
  Ni  Ni27  1  0.16909769  0.16999084  0.50307181  1
  Ni  Ni28  1  0.00329124  0.00356772  0.67026942  1
  Ni  Ni29  1  0.16986620  0.16852497  0.83534572  1
  Ni  Ni30  1  0.17023102  0.50338727  0.50430890  1
  Ni  Ni31  1  1.00246588  0.33656849  0.66902404  1
  Fe  Fe32  1  0.17041905  0.50468872  0.83571884  1
  Ni  Ni33  1  0.17050608  0.83634605  0.50350650  1
  Ni  Ni34  1  0.00360069  0.66959302  0.67066029  1
  Ni  Ni35  1  0.17018421  0.83729302  0.83677793  1
  Ni  Ni36  1  0.50408960  0.17002786  0.50418926  1
  Ni  Ni37  1  0.33644140  1.00216650  0.66939593  1
  Fe  Fe38  1  0.50353805  0.16933561  0.83655794  1
  Ni  Ni39  1  0.50325865  0.50365727  0.50294208  1
  Fe  Fe40  1  0.33649571  0.33663699  0.66934708  1
  Ni  Ni41  1  0.50391647  0.50389351  0.83689621  1
  Ni  Ni42  1  0.50295473  0.83604574  0.50374097  1
  Ni  Ni43  1  0.33680833  0.67029949  0.66978804  1
  Ni  Ni44  1  0.50278039  0.83534748  0.83608721  1
  Ni  Ni45  1  0.83653648  0.17030756  0.50338459  1
  Ni  Ni46  1  0.66999296  0.00330240  0.66999324  1
  Ni  Ni47  1  0.83674618  0.16965935  0.83582785  1
  Fe  Fe48  1  0.83633898  0.50255585  0.50392364  1
  Ni  Ni49  1  0.67070493  0.33693272  0.67015683  1
  Ni  Ni50  1  0.83480732  0.50358263  0.83498219  1
  Fe  Fe51  1  0.83664844  0.83750127  0.50351849  1
  Ni  Ni52  1  0.66931492  0.66948545  0.66943419  1
  Ni  Ni53  1  0.83675866  0.83648250  0.83636836  1
" 