5417,Ni70Cr30_14,-211.49476055721, 146.158489186669,Ni70Cr30,"# generated using pymatgen
 data_Cr37Ni17
_symmetry_space_group_name_H-M   'P 1'
_cell_length_a   7.56214643
_cell_length_b   7.56214643
_cell_length_c   10.69449005
_cell_angle_alpha   90.00000000
_cell_angle_beta   90.00000000
_cell_angle_gamma   90.00000000
_symmetry_Int_Tables_number   1
_chemical_formula_structural   Cr37Ni17
_chemical_formula_sum   'Cr37 Ni17'
_cell_volume   611.57573548
_cell_formula_units_Z   1
loop_
 _symmetry_equiv_pos_site_id
 _symmetry_equiv_pos_as_xyz
  1  'x, y, z'
loop_
 _atom_site_type_symbol
 _atom_site_label
 _atom_site_symmetry_multiplicity
 _atom_site_fract_x
 _atom_site_fract_y
 _atom_site_fract_z
 _atom_site_occupancy
  Ni  Ni0  1  0.99007482  -0.00585640  0.99266861  1
  Cr  Cr1  1  0.15889556  0.15812076  0.15918503  1
  Ni  Ni2  1  0.99345416  -0.00553622  0.32931831  1
  Ni  Ni3  1  0.99284247  0.32406860  0.99351064  1
  Cr  Cr4  1  0.15769284  0.49414103  0.15868073  1
  Cr  Cr5  1  -0.00559258  0.32589396  0.33144001  1
  Cr  Cr6  1  0.99257678  0.66477391  0.99328984  1
  Cr  Cr7  1  0.15856715  0.82914277  0.16479829  1
  Ni  Ni8  1  -0.00490538  0.66150706  0.32862668  1
  Cr  Cr9  1  0.32827737  0.99148515  0.99303524  1
  Cr  Cr10  1  0.49512616  0.15713843  0.16171796  1
  Ni  Ni11  1  0.32584299  -0.00488444  0.32837086  1
  Cr  Cr12  1  0.32693792  0.32649920  -0.00486756  1
  Cr  Cr13  1  0.49427949  0.49291671  0.16096745  1
  Cr  Cr14  1  0.32699503  0.32610843  0.32908985  1
  Cr  Cr15  1  0.32899551  0.66236492  0.99365361  1
  Cr  Cr16  1  0.49455240  0.83073612  0.16306186  1
  Cr  Cr17  1  0.32685262  0.65973488  0.32671760  1
  Ni  Ni18  1  0.66299742  0.99134524  0.99193640  1
  Cr  Cr19  1  0.82701605  0.15870616  0.16013034  1
  Ni  Ni20  1  0.66201656  -0.00532881  0.32826350  1
  Cr  Cr21  1  0.66010087  0.32580798  -0.00481634  1
  Cr  Cr22  1  0.82922650  0.49370342  0.15980630  1
  Cr  Cr23  1  0.65984316  0.32621109  0.32970319  1
  Cr  Cr24  1  0.65950818  0.66438801  0.99268494  1
  Cr  Cr25  1  0.82829302  0.82934209  0.16401106  1
  Cr  Cr26  1  0.66042180  0.66054891  0.32671148  1
  Ni  Ni27  1  0.16040073  0.15806896  0.49265334  1
  Cr  Cr28  1  0.99240827  -0.00547755  0.65961696  1
  Cr  Cr29  1  0.16003738  0.15980305  0.82863568  1
  Ni  Ni30  1  0.16244849  0.49447004  0.49391753  1
  Cr  Cr31  1  -0.00544468  0.32480263  0.65636820  1
  Cr  Cr32  1  0.15984661  0.49350921  0.82739541  1
  Cr  Cr33  1  0.16177083  0.82767825  0.49145795  1
  Cr  Cr34  1  0.99290572  0.66263854  0.66000787  1
  Cr  Cr35  1  0.16207263  0.82810206  0.82508666  1
  Cr  Cr36  1  0.49442626  0.15574140  0.49361967  1
  Ni  Ni37  1  0.32884818  0.99113158  0.65994076  1
  Cr  Cr38  1  0.49452360  0.15678313  0.82610533  1
  Ni  Ni39  1  0.49144479  0.49552692  0.49627306  1
  Cr  Cr40  1  0.32563708  0.32537136  0.65659701  1
  Cr  Cr41  1  0.49353811  0.49551877  0.82351468  1
  Cr  Cr42  1  0.49373970  0.82719907  0.49492425  1
  Ni  Ni43  1  0.32982194  0.66213106  0.65929009  1
  Ni  Ni44  1  0.49673696  0.82874377  0.82320983  1
  Ni  Ni45  1  0.82783282  0.15650426  0.49241079  1
  Ni  Ni46  1  0.65990034  0.99018936  0.66143241  1
  Cr  Cr47  1  0.82626471  0.15978776  0.82826426  1
  Cr  Cr48  1  0.82626799  0.49612959  0.49401430  1
  Cr  Cr49  1  0.66107201  0.32544532  0.65612147  1
  Cr  Cr50  1  0.82712661  0.49477611  0.82741816  1
  Cr  Cr51  1  0.82562549  0.82863949  0.49198279  1
  Ni  Ni52  1  0.65740764  0.66424941  0.66167950  1
  Ni  Ni53  1  0.82290868  0.82991522  0.82682392  1
" 