27,Ni70Fe30_10,-236.686565635638, 204.070344579941,Ni70Fe30,"# generated using pymatgen
 data_Fe37Ni17
_symmetry_space_group_name_H-M   'P 1'
_cell_length_a   7.39785555
_cell_length_b   7.39785555
_cell_length_c   10.46214766
_cell_angle_alpha   90.00000000
_cell_angle_beta   90.00000000
_cell_angle_gamma   90.00000000
_symmetry_Int_Tables_number   1
_chemical_formula_structural   Fe37Ni17
_chemical_formula_sum   'Fe37 Ni17'
_cell_volume   572.57520848
_cell_formula_units_Z   1
loop_
 _symmetry_equiv_pos_site_id
 _symmetry_equiv_pos_as_xyz
  1  'x, y, z'
loop_
 _atom_site_type_symbol
 _atom_site_label
 _atom_site_symmetry_multiplicity
 _atom_site_fract_x
 _atom_site_fract_y
 _atom_site_fract_z
 _atom_site_occupancy
  Fe  Fe0  1  0.00511569  1.00356714  0.00474637  1
  Fe  Fe1  1  0.17033042  0.17227291  0.17060920  1
  Fe  Fe2  1  1.00309887  0.00567392  0.33843972  1
  Ni  Ni3  1  1.00371865  0.33767300  1.00309162  1
  Fe  Fe4  1  0.17064211  0.50262451  0.17076018  1
  Ni  Ni5  1  1.00463013  0.33814233  0.34016965  1
  Fe  Fe6  1  0.00552771  0.67159273  1.00390754  1
  Fe  Fe7  1  0.17216817  0.83932575  0.17173274  1
  Fe  Fe8  1  1.00407642  0.67190146  0.33941733  1
  Ni  Ni9  1  0.33875707  1.00429197  1.00453619  1
  Ni  Ni10  1  0.50481045  0.17213306  0.17000737  1
  Fe  Fe11  1  0.33795912  0.00594290  0.33760183  1
  Fe  Fe12  1  0.33824904  0.33906624  1.00436907  1
  Fe  Fe13  1  0.50526503  0.50468281  0.17143747  1
  Fe  Fe14  1  0.33919237  0.33688134  0.33812699  1
  Ni  Ni15  1  0.33918706  0.67285656  1.00416927  1
  Fe  Fe16  1  0.50551338  0.83959325  0.17002811  1
  Fe  Fe17  1  0.33787237  0.67139380  0.33777114  1
  Fe  Fe18  1  0.67105307  1.00407669  0.00510612  1
  Ni  Ni19  1  0.83766022  0.17156445  0.17078061  1
  Ni  Ni20  1  0.66988487  1.00452255  0.33852378  1
  Fe  Fe21  1  0.67029274  0.33866785  0.00472494  1
  Fe  Fe22  1  0.83823838  0.50269316  0.17155652  1
  Fe  Fe23  1  0.67200728  0.33611136  0.33851444  1
  Ni  Ni24  1  0.67101179  0.67167571  0.00475921  1
  Fe  Fe25  1  0.83647843  0.83912358  0.17144994  1
  Fe  Fe26  1  0.67228369  0.67069549  0.33803946  1
  Fe  Fe27  1  0.17058128  0.17133690  0.50498425  1
  Fe  Fe28  1  1.00391573  1.00303724  0.67113294  1
  Fe  Fe29  1  0.17142493  0.16979432  0.83879604  1
  Fe  Fe30  1  0.17033484  0.50467612  0.50489367  1
  Fe  Fe31  1  1.00406132  0.33826456  0.67145353  1
  Fe  Fe32  1  0.17106701  0.50619086  0.83854807  1
  Ni  Ni33  1  0.17157896  0.83753321  0.50538874  1
  Ni  Ni34  1  1.00421845  0.67031171  0.67149574  1
  Fe  Fe35  1  0.17182351  0.83791581  0.83722378  1
  Ni  Ni36  1  0.50423433  0.17230975  0.50515968  1
  Fe  Fe37  1  0.33750256  1.00397875  0.67174187  1
  Fe  Fe38  1  0.50510521  0.16941684  0.83779025  1
  Ni  Ni39  1  0.50416115  0.50420708  0.50443748  1
  Fe  Fe40  1  0.33784811  0.33880178  0.67112241  1
  Fe  Fe41  1  0.50549550  0.50645772  0.83755400  1
  Fe  Fe42  1  0.50650614  0.83808884  0.50520428  1
  Fe  Fe43  1  0.33764768  0.67124086  0.67147447  1
  Ni  Ni44  1  0.50514701  0.83819485  0.83763339  1
  Ni  Ni45  1  0.83727244  0.17118846  0.50521646  1
  Fe  Fe46  1  0.67274486  1.00340309  0.67036380  1
  Fe  Fe47  1  0.83745669  0.17019134  0.83827035  1
  Ni  Ni48  1  0.83712212  0.50493514  0.50483787  1
  Fe  Fe49  1  0.67179455  0.33881307  0.67028684  1
  Fe  Fe50  1  0.83742315  0.50613522  0.83780720  1
  Ni  Ni51  1  0.84013485  0.83767838  0.50432919  1
  Fe  Fe52  1  0.67263461  0.67169780  0.67178525  1
  Ni  Ni53  1  0.83826917  0.83798445  0.83922229  1
" 