7297,Ni70Fe28Cr1_17,-242.305464091973, 215.91239436585,Ni70Fe28Cr1,"# generated using pymatgen
 data_CrFe15Ni38
_symmetry_space_group_name_H-M   'P 1'
_cell_length_a   7.41749472
_cell_length_b   7.41749472
_cell_length_c   10.48992164
_cell_angle_alpha   90.00000000
_cell_angle_beta   90.00000000
_cell_angle_gamma   90.00000000
_symmetry_Int_Tables_number   1
_chemical_formula_structural   CrFe15Ni38
_chemical_formula_sum   'Cr1 Fe15 Ni38'
_cell_volume   577.14739001
_cell_formula_units_Z   1
loop_
 _symmetry_equiv_pos_site_id
 _symmetry_equiv_pos_as_xyz
  1  'x, y, z'
loop_
 _atom_site_type_symbol
 _atom_site_label
 _atom_site_symmetry_multiplicity
 _atom_site_fract_x
 _atom_site_fract_y
 _atom_site_fract_z
 _atom_site_occupancy
  Ni  Ni0  1  1.00305328  0.00363117  0.00342033  1
  Fe  Fe1  1  0.17024170  0.17022155  0.16977028  1
  Ni  Ni2  1  1.00194329  0.00339213  0.33647276  1
  Ni  Ni3  1  1.00291450  0.33564130  1.00269752  1
  Ni  Ni4  1  0.16981426  0.50311115  0.17120350  1
  Ni  Ni5  1  0.00406024  0.33608156  0.33690027  1
  Fe  Fe6  1  1.00263984  0.66977438  1.00318892  1
  Ni  Ni7  1  0.16772455  0.83681604  0.17132767  1
  Ni  Ni8  1  0.00351917  0.67054753  0.33603081  1
  Ni  Ni9  1  0.33611630  0.00454360  1.00320974  1
  Ni  Ni10  1  0.50302033  0.17112176  0.17017688  1
  Fe  Fe11  1  0.33665660  1.00287846  0.33608227  1
  Ni  Ni12  1  0.33718675  0.33565418  1.00315088  1
  Ni  Ni13  1  0.50276066  0.50076257  0.17106355  1
  Ni  Ni14  1  0.33658611  0.33792395  0.33564341  1
  Cr  Cr15  1  0.33725521  0.66947147  1.00291153  1
  Fe  Fe16  1  0.50361123  0.83688144  0.17121012  1
  Ni  Ni17  1  0.33729582  0.66887721  0.33682495  1
  Fe  Fe18  1  0.66976576  0.00465507  1.00303873  1
  Fe  Fe19  1  0.83723425  0.16996543  0.16994932  1
  Ni  Ni20  1  0.67105166  1.00268291  0.33637803  1
  Ni  Ni21  1  0.66991760  0.33664743  0.00359671  1
  Fe  Fe22  1  0.83688601  0.50364242  0.17014039  1
  Fe  Fe23  1  0.67002802  0.33705131  0.33704804  1
  Fe  Fe24  1  0.67149745  0.66951698  1.00303473  1
  Ni  Ni25  1  0.83847582  0.83707814  0.17002439  1
  Ni  Ni26  1  0.66920556  0.67099229  0.33666667  1
  Fe  Fe27  1  0.16974176  0.17028197  0.50300948  1
  Ni  Ni28  1  1.00199124  1.00268044  0.67012748  1
  Fe  Fe29  1  0.16996275  0.16994284  0.83723923  1
  Fe  Fe30  1  0.17028182  0.50337448  0.50300573  1
  Fe  Fe31  1  1.00224169  0.33738721  0.67015535  1
  Ni  Ni32  1  0.16934440  0.50313551  0.83588767  1
  Fe  Fe33  1  0.16957808  0.83636603  0.50333585  1
  Ni  Ni34  1  0.00356192  0.67127544  0.67056985  1
  Ni  Ni35  1  0.16872496  0.83682003  0.83582012  1
  Ni  Ni36  1  0.50349601  0.17031274  0.50325159  1
  Fe  Fe37  1  0.33776243  1.00260138  0.67074571  1
  Ni  Ni38  1  0.50347628  0.17040930  0.83659623  1
  Ni  Ni39  1  0.50287495  0.50274359  0.50325369  1
  Ni  Ni40  1  0.33776159  0.33792262  0.67122960  1
  Ni  Ni41  1  0.50322664  0.50148816  0.83570631  1
  Ni  Ni42  1  0.50324366  0.83696472  0.50253009  1
  Ni  Ni43  1  0.33700801  0.66890655  0.66999321  1
  Ni  Ni44  1  0.50350338  0.83812818  0.83641052  1
  Ni  Ni45  1  0.83652632  0.16966032  0.50275010  1
  Ni  Ni46  1  0.67130474  0.00343244  0.67081083  1
  Ni  Ni47  1  0.83614228  0.16978495  0.83674686  1
  Ni  Ni48  1  0.83711554  0.50336569  0.50274766  1
  Ni  Ni49  1  0.66893842  0.33635354  0.66955096  1
  Ni  Ni50  1  0.83745193  0.50316229  0.83720845  1
  Ni  Ni51  1  0.83740059  0.83699934  0.50352449  1
  Ni  Ni52  1  0.66945272  0.67023427  0.67053056  1
  Ni  Ni53  1  0.83779858  0.83707719  0.83647462  1
" 