210,Ni70Fe20Cr8_13,-238.67617074778, 200.043641406828,Ni70Fe20Cr8,"# generated using pymatgen
 data_Cr5Fe11Ni38
_symmetry_space_group_name_H-M   'P 1'
_cell_length_a   7.43424632
_cell_length_b   7.43424632
_cell_length_c   10.51361198
_cell_angle_alpha   90.00000000
_cell_angle_beta   90.00000000
_cell_angle_gamma   90.00000000
_symmetry_Int_Tables_number   1
_chemical_formula_structural   Cr5Fe11Ni38
_chemical_formula_sum   'Cr5 Fe11 Ni38'
_cell_volume   581.06650017
_cell_formula_units_Z   1
loop_
 _symmetry_equiv_pos_site_id
 _symmetry_equiv_pos_as_xyz
  1  'x, y, z'
loop_
 _atom_site_type_symbol
 _atom_site_label
 _atom_site_symmetry_multiplicity
 _atom_site_fract_x
 _atom_site_fract_y
 _atom_site_fract_z
 _atom_site_occupancy
  Ni  Ni0  1  0.00284253  0.00259236  0.00283312  1
  Ni  Ni1  1  0.16960484  0.16879089  0.16863338  1
  Fe  Fe2  1  0.00244297  1.00064890  0.33556639  1
  Ni  Ni3  1  0.00288388  0.33583122  1.00162727  1
  Ni  Ni4  1  0.16918868  0.50350857  0.16761474  1
  Cr  Cr5  1  0.00324160  0.33626864  0.33586319  1
  Ni  Ni6  1  1.00110468  0.66819743  0.00249632  1
  Ni  Ni7  1  0.16928555  0.83431498  0.16915961  1
  Ni  Ni8  1  0.00259318  0.66965700  0.33513795  1
  Ni  Ni9  1  0.33576712  0.00285910  0.00222058  1
  Ni  Ni10  1  0.50308635  0.16867192  0.16907220  1
  Ni  Ni11  1  0.33670843  0.00337661  0.33523810  1
  Ni  Ni12  1  0.33393235  0.33378366  0.00306711  1
  Fe  Fe13  1  0.50020531  0.50102477  0.16758977  1
  Ni  Ni14  1  0.33612928  0.33382950  0.33561787  1
  Ni  Ni15  1  0.33545193  0.66997251  0.00348454  1
  Ni  Ni16  1  0.50111794  0.83672960  0.16773001  1
  Fe  Fe17  1  0.33345048  0.66969185  0.33562066  1
  Fe  Fe18  1  0.66830911  1.00171717  0.00235476  1
  Ni  Ni19  1  0.83392231  0.16876920  0.16803354  1
  Ni  Ni20  1  0.66746617  0.00269329  0.33553570  1
  Fe  Fe21  1  0.66965136  0.33496475  0.00261237  1
  Fe  Fe22  1  0.83635522  0.50219836  0.16706437  1
  Fe  Fe23  1  0.66739343  0.33294931  0.33616305  1
  Ni  Ni24  1  0.67006207  0.67002724  0.00256122  1
  Fe  Fe25  1  0.83685331  0.83690780  0.16805521  1
  Cr  Cr26  1  0.67021814  0.66997219  0.33637781  1
  Fe  Fe27  1  0.16858827  0.16869607  0.50245570  1
  Ni  Ni28  1  1.00028678  0.00415069  0.66787227  1
  Ni  Ni29  1  0.16830424  0.16999654  0.83602087  1
  Ni  Ni30  1  0.16988737  0.50302168  0.50272622  1
  Ni  Ni31  1  1.00213334  0.33443566  0.66929019  1
  Ni  Ni32  1  0.16754960  0.50129433  0.83628166  1
  Ni  Ni33  1  0.16891218  0.83398392  0.50011807  1
  Cr  Cr34  1  1.00132966  0.66839115  0.66954247  1
  Ni  Ni35  1  0.16859021  0.83532828  0.83734337  1
  Ni  Ni36  1  0.50423180  0.16947221  0.50089079  1
  Cr  Cr37  1  0.33595871  0.00232125  0.66976267  1
  Ni  Ni38  1  0.50272523  0.16789789  0.83665684  1
  Fe  Fe39  1  0.50174837  0.50176006  0.50375371  1
  Ni  Ni40  1  0.33455714  0.33589778  0.66793273  1
  Cr  Cr41  1  0.50164371  0.50229711  0.83452979  1
  Ni  Ni42  1  0.50222008  0.83618414  0.50297482  1
  Ni  Ni43  1  0.33703319  0.66802717  0.66748170  1
  Ni  Ni44  1  0.50325910  0.83659960  0.83592307  1
  Ni  Ni45  1  0.83341802  0.16849511  0.50376036  1
  Ni  Ni46  1  0.66993274  1.00167447  0.66908632  1
  Fe  Fe47  1  0.83641690  0.16852021  0.83497921  1
  Ni  Ni48  1  0.83561558  0.50101392  0.50306292  1
  Ni  Ni49  1  0.66992903  0.33507459  0.66712610  1
  Ni  Ni50  1  0.83686314  0.50182351  0.83636949  1
  Ni  Ni51  1  0.83548327  0.83710411  0.50177886  1
  Ni  Ni52  1  0.66847206  0.66986905  0.66795201  1
  Ni  Ni53  1  0.83477113  0.83584978  0.83612598  1
" 