2992,Ni70Fe9Cr20_3,-231.712549947931, 164.629355618962,Ni70Fe9Cr20,"# generated using pymatgen
 data_Cr6Fe2Ni19
_symmetry_space_group_name_H-M   'P 1'
_cell_length_a   7.46513753
_cell_length_b   7.46513753
_cell_length_c   10.55729875
_cell_angle_alpha   90.00000000
_cell_angle_beta   90.00000000
_cell_angle_gamma   90.00000000
_symmetry_Int_Tables_number   1
_chemical_formula_structural   Cr6Fe2Ni19
_chemical_formula_sum   'Cr12 Fe4 Ni38'
_cell_volume   588.34008385
_cell_formula_units_Z   2
loop_
 _symmetry_equiv_pos_site_id
 _symmetry_equiv_pos_as_xyz
  1  'x, y, z'
loop_
 _atom_site_type_symbol
 _atom_site_label
 _atom_site_symmetry_multiplicity
 _atom_site_fract_x
 _atom_site_fract_y
 _atom_site_fract_z
 _atom_site_occupancy
  Ni  Ni0  1  0.00142474  0.99975693  0.00040928  1
  Ni  Ni1  1  0.16641097  0.16669727  0.16791973  1
  Ni  Ni2  1  0.99924021  0.00137764  0.33063496  1
  Ni  Ni3  1  0.99972155  0.33150345  0.00210332  1
  Ni  Ni4  1  0.16611108  0.49640660  0.16529162  1
  Ni  Ni5  1  0.00227099  0.33276257  0.33289673  1
  Ni  Ni6  1  0.99854567  0.66873266  0.00209321  1
  Ni  Ni7  1  0.16409645  0.83735642  0.16601758  1
  Cr  Cr8  1  0.99987674  0.66577572  0.33212224  1
  Ni  Ni9  1  0.33079524  0.00377757  0.99926187  1
  Ni  Ni10  1  0.49851557  0.16844892  0.16802287  1
  Ni  Ni11  1  0.33363782  0.00276427  0.33332393  1
  Ni  Ni12  1  0.33362579  0.32988747  0.00278510  1
  Ni  Ni13  1  0.50088228  0.49755766  0.16513412  1
  Ni  Ni14  1  0.33249065  0.33200442  0.33379967  1
  Cr  Cr15  1  0.32983878  0.66976212  0.00158223  1
  Cr  Cr16  1  0.50092350  0.83563614  0.16783038  1
  Cr  Cr17  1  0.33220942  0.66478412  0.33237112  1
  Cr  Cr18  1  0.66785447  0.00295897  0.99742964  1
  Ni  Ni19  1  0.83507615  0.16656604  0.16638820  1
  Ni  Ni20  1  0.66692535  0.99991370  0.33415920  1
  Ni  Ni21  1  0.66706829  0.33244354  0.00196473  1
  Ni  Ni22  1  0.83343716  0.49964678  0.16542993  1
  Cr  Cr23  1  0.66655707  0.33291166  0.33291448  1
  Ni  Ni24  1  0.67003367  0.66656569  0.00275004  1
  Ni  Ni25  1  0.83462307  0.83447757  0.16772671  1
  Fe  Fe26  1  0.66698104  0.66749385  0.33402078  1
  Ni  Ni27  1  0.16773589  0.16940075  0.49980080  1
  Ni  Ni28  1  0.99975765  1.00003396  0.66896776  1
  Ni  Ni29  1  0.16678103  0.16456316  0.83284476  1
  Ni  Ni30  1  0.16896755  0.49689445  0.50293592  1
  Ni  Ni31  1  0.00256134  0.33231060  0.66541953  1
  Cr  Cr32  1  0.16653349  0.49820086  0.83207268  1
  Cr  Cr33  1  0.16592656  0.83850136  0.50093292  1
  Ni  Ni34  1  1.00006299  0.66841774  0.66536123  1
  Ni  Ni35  1  0.16469972  0.83665088  0.83243873  1
  Fe  Fe36  1  0.49733009  0.16364404  0.49976361  1
  Ni  Ni37  1  0.33398285  0.00078595  0.66775240  1
  Ni  Ni38  1  0.49785315  0.16629891  0.83261211  1
  Ni  Ni39  1  0.49867118  0.50158825  0.50082205  1
  Ni  Ni40  1  0.33262177  0.33165390  0.66414511  1
  Cr  Cr41  1  0.50000668  0.50017412  0.83606425  1
  Ni  Ni42  1  0.50249291  0.83288983  0.50142397  1
  Ni  Ni43  1  0.33366075  0.66796685  0.66621748  1
  Fe  Fe44  1  0.49979874  0.83530179  0.83176496  1
  Cr  Cr45  1  0.83834182  0.16233599  0.50026638  1
  Ni  Ni46  1  0.66619550  0.99738165  0.66803947  1
  Ni  Ni47  1  0.83558427  0.16448920  0.83364188  1
  Fe  Fe48  1  0.83559855  0.50140678  0.50102347  1
  Cr  Cr49  1  0.66657132  0.33008821  0.66620862  1
  Cr  Cr50  1  0.83380784  0.50049882  0.83392769  1
  Ni  Ni51  1  0.83032534  0.83383944  0.50019323  1
  Ni  Ni52  1  0.66714056  0.66928004  0.66393635  1
  Ni  Ni53  1  0.83472513  0.83434110  0.83194736  1
" 