7176,Ni70Fe5Cr23_1,-229.899958280678, 161.090349071228,Ni70Fe5Cr23,"# generated using pymatgen
 data_Cr7FeNi19
_symmetry_space_group_name_H-M   'P 1'
_cell_length_a   7.47660618
_cell_length_b   7.47660618
_cell_length_c   10.57351787
_cell_angle_alpha   90.00000000
_cell_angle_beta   90.00000000
_cell_angle_gamma   90.00000000
_symmetry_Int_Tables_number   1
_chemical_formula_structural   Cr7FeNi19
_chemical_formula_sum   'Cr14 Fe2 Ni38'
_cell_volume   591.05584274
_cell_formula_units_Z   2
loop_
 _symmetry_equiv_pos_site_id
 _symmetry_equiv_pos_as_xyz
  1  'x, y, z'
loop_
 _atom_site_type_symbol
 _atom_site_label
 _atom_site_symmetry_multiplicity
 _atom_site_fract_x
 _atom_site_fract_y
 _atom_site_fract_z
 _atom_site_occupancy
  Cr  Cr0  1  0.99800538  0.99679757  0.99894915  1
  Cr  Cr1  1  0.16684520  0.16447937  0.16829148  1
  Fe  Fe2  1  0.99831699  -0.00048803  0.33317009  1
  Cr  Cr3  1  0.99889011  0.33393685  0.99877019  1
  Cr  Cr4  1  0.16670518  0.50183610  0.16573967  1
  Ni  Ni5  1  0.99710440  0.33240280  0.33453364  1
  Ni  Ni6  1  -0.00050968  0.66808871  -0.00044762  1
  Ni  Ni7  1  0.16667851  0.83147749  0.16636987  1
  Ni  Ni8  1  0.99894525  0.66553840  0.33199383  1
  Ni  Ni9  1  0.33552082  0.99606291  0.99839320  1
  Cr  Cr10  1  0.49950620  0.16560196  0.16586483  1
  Ni  Ni11  1  0.33222651  0.99749940  0.33225228  1
  Ni  Ni12  1  0.33370364  0.33356540  0.99842593  1
  Ni  Ni13  1  0.49966474  0.50103949  0.16606351  1
  Ni  Ni14  1  0.33221836  0.33347424  0.33458633  1
  Ni  Ni15  1  0.33281358  0.66848932  -0.00018377  1
  Ni  Ni16  1  0.49861690  0.83186929  0.16473824  1
  Ni  Ni17  1  0.33262260  0.66707126  0.33261393  1
  Ni  Ni18  1  0.66488043  0.99646735  0.99874817  1
  Ni  Ni19  1  0.83137935  0.16514217  0.16871898  1
  Fe  Fe20  1  0.66704098  0.99912049  0.33266235  1
  Cr  Cr21  1  0.66582133  0.33135600  0.00073818  1
  Ni  Ni22  1  0.83182806  0.50068571  0.16665903  1
  Ni  Ni23  1  0.66874638  0.33286436  0.33242596  1
  Ni  Ni24  1  0.66584626  0.66992129  0.00146233  1
  Ni  Ni25  1  0.83274412  0.83216349  0.16536006  1
  Cr  Cr26  1  0.66512360  0.66574696  0.33300889  1
  Ni  Ni27  1  0.16522682  0.16724676  0.49842568  1
  Ni  Ni28  1  0.99737122  -0.00025659  0.66552907  1
  Cr  Cr29  1  0.16924637  0.16527830  0.83170861  1
  Ni  Ni30  1  0.16778397  0.49754938  0.49782098  1
  Cr  Cr31  1  -0.00054914  0.33096648  0.66480678  1
  Ni  Ni32  1  0.16890735  0.50222079  0.83393027  1
  Cr  Cr33  1  0.16674677  0.83352305  0.49837273  1
  Cr  Cr34  1  -0.00039658  0.66743489  0.66647242  1
  Ni  Ni35  1  0.16751512  0.83108372  0.83330398  1
  Cr  Cr36  1  0.49904342  0.16603552  0.49999280  1
  Ni  Ni37  1  0.33390943  0.99834427  0.66744798  1
  Ni  Ni38  1  0.50009875  0.16322764  0.83225085  1
  Ni  Ni39  1  0.49855805  0.49981931  0.50025528  1
  Ni  Ni40  1  0.33362145  0.33319658  0.66505664  1
  Cr  Cr41  1  0.49753587  0.49980625  0.83174423  1
  Ni  Ni42  1  0.50010002  0.83151398  0.50066859  1
  Ni  Ni43  1  0.33497572  0.66650752  0.66559573  1
  Ni  Ni44  1  0.49946451  0.83489219  0.83274680  1
  Ni  Ni45  1  0.83357723  0.16558873  0.49863616  1
  Ni  Ni46  1  0.66676628  0.99837986  0.66708375  1
  Ni  Ni47  1  0.82888362  0.16195196  0.83072029  1
  Ni  Ni48  1  0.83177415  0.49848895  0.49830890  1
  Ni  Ni49  1  0.66538260  0.33130910  0.66490232  1
  Cr  Cr50  1  0.83231629  0.50208928  0.83316136  1
  Ni  Ni51  1  0.83118425  0.83399231  0.49999403  1
  Ni  Ni52  1  0.66400894  0.66837446  0.66390119  1
  Ni  Ni53  1  0.83114381  0.83470640  0.83273529  1
" 