1849,Ni70Fe27Cr1_5,-241.30881584632, 213.588467047339,Ni70Fe27Cr1,"# generated using pymatgen
 data_Cr2Fe15Ni37
_symmetry_space_group_name_H-M   'P 1'
_cell_length_a   7.41826390
_cell_length_b   7.41826390
_cell_length_c   10.49100941
_cell_angle_alpha   90.00000000
_cell_angle_beta   90.00000000
_cell_angle_gamma   90.00000000
_symmetry_Int_Tables_number   1
_chemical_formula_structural   Cr2Fe15Ni37
_chemical_formula_sum   'Cr2 Fe15 Ni37'
_cell_volume   577.32695389
_cell_formula_units_Z   1
loop_
 _symmetry_equiv_pos_site_id
 _symmetry_equiv_pos_as_xyz
  1  'x, y, z'
loop_
 _atom_site_type_symbol
 _atom_site_label
 _atom_site_symmetry_multiplicity
 _atom_site_fract_x
 _atom_site_fract_y
 _atom_site_fract_z
 _atom_site_occupancy
  Fe  Fe0  1  1.00164959  0.00367812  0.00355711  1
  Ni  Ni1  1  0.16820570  0.17094964  0.17060042  1
  Ni  Ni2  1  0.00371431  1.00281769  0.33647424  1
  Ni  Ni3  1  1.00327709  0.33717784  0.00389749  1
  Ni  Ni4  1  0.17093990  0.50294432  0.16956814  1
  Fe  Fe5  1  0.00471278  0.33740813  0.33663080  1
  Ni  Ni6  1  0.00353813  0.66946955  0.00379085  1
  Ni  Ni7  1  0.16954850  0.83597713  0.17056811  1
  Ni  Ni8  1  0.00377049  0.67095867  0.33682185  1
  Cr  Cr9  1  0.33679161  1.00319909  1.00296047  1
  Fe  Fe10  1  0.50350370  0.17011588  0.16982103  1
  Fe  Fe11  1  0.33609520  1.00230844  0.33622554  1
  Ni  Ni12  1  0.33675700  0.33810829  0.00409767  1
  Ni  Ni13  1  0.50221371  0.50535384  0.16863659  1
  Fe  Fe14  1  0.33458806  0.33763773  0.33706182  1
  Ni  Ni15  1  0.33628330  0.66831763  1.00325595  1
  Ni  Ni16  1  0.50467208  0.83463286  0.17115233  1
  Ni  Ni17  1  0.33637609  0.67010503  0.33655597  1
  Ni  Ni18  1  0.67098096  0.00369582  0.00447418  1
  Ni  Ni19  1  0.83805349  0.16848506  0.16929695  1
  Fe  Fe20  1  0.67074369  1.00047549  0.33672605  1
  Ni  Ni21  1  0.66982904  0.33616945  1.00253233  1
  Ni  Ni22  1  0.83670950  0.50401240  0.16884230  1
  Cr  Cr23  1  0.67006269  0.33697883  0.33692345  1
  Ni  Ni24  1  0.67004856  0.66999750  0.00381235  1
  Ni  Ni25  1  0.83564468  0.83736496  0.16912157  1
  Ni  Ni26  1  0.66971540  0.67105883  0.33680491  1
  Ni  Ni27  1  0.16956163  0.17041195  0.50358957  1
  Ni  Ni28  1  1.00274746  1.00323692  0.67049471  1
  Ni  Ni29  1  0.16774504  0.17074892  0.83567688  1
  Ni  Ni30  1  0.17046622  0.50267259  0.50314210  1
  Ni  Ni31  1  0.00414283  0.33658932  0.66868519  1
  Ni  Ni32  1  0.17122421  0.50312535  0.83715769  1
  Fe  Fe33  1  0.16880362  0.83640899  0.50301586  1
  Ni  Ni34  1  0.00360984  0.67003563  0.66924597  1
  Ni  Ni35  1  0.16982940  0.83599168  0.83579537  1
  Ni  Ni36  1  0.50256522  0.16934312  0.50459885  1
  Fe  Fe37  1  0.33549933  0.00393564  0.67035750  1
  Fe  Fe38  1  0.50332993  0.17076995  0.83554500  1
  Ni  Ni39  1  0.50225411  0.50433385  0.50425350  1
  Ni  Ni40  1  0.33666817  0.33640644  0.66963847  1
  Ni  Ni41  1  0.50256948  0.50447337  0.83697793  1
  Fe  Fe42  1  0.50407545  0.83652582  0.50305137  1
  Fe  Fe43  1  0.33579157  0.66961568  0.67052886  1
  Ni  Ni44  1  0.50401816  0.83470831  0.83561074  1
  Ni  Ni45  1  0.83773576  0.16824281  0.50408191  1
  Ni  Ni46  1  0.66990793  0.00373580  0.66898441  1
  Ni  Ni47  1  0.83736411  0.16929028  0.83648100  1
  Ni  Ni48  1  0.83714613  0.50453111  0.50446258  1
  Fe  Fe49  1  0.67085838  0.33613187  0.66960563  1
  Fe  Fe50  1  0.83757789  0.50335662  0.83705075  1
  Ni  Ni51  1  0.83606773  0.83708757  0.50331943  1
  Fe  Fe52  1  0.67056658  0.66975825  0.66959074  1
  Fe  Fe53  1  0.83700496  0.83669032  0.83640393  1
" 