2914,Ni70Cr30_11,-211.635777732994, 145.42537687139,Ni70Cr30,"# generated using pymatgen
 data_Cr37Ni17
_symmetry_space_group_name_H-M   'P 1'
_cell_length_a   7.55465476
_cell_length_b   7.55465476
_cell_length_c   10.68389523
_cell_angle_alpha   90.00000000
_cell_angle_beta   90.00000000
_cell_angle_gamma   90.00000000
_symmetry_Int_Tables_number   1
_chemical_formula_structural   Cr37Ni17
_chemical_formula_sum   'Cr37 Ni17'
_cell_volume   609.75990722
_cell_formula_units_Z   1
loop_
 _symmetry_equiv_pos_site_id
 _symmetry_equiv_pos_as_xyz
  1  'x, y, z'
loop_
 _atom_site_type_symbol
 _atom_site_label
 _atom_site_symmetry_multiplicity
 _atom_site_fract_x
 _atom_site_fract_y
 _atom_site_fract_z
 _atom_site_occupancy
  Ni  Ni0  1  -0.00503568  0.99146139  0.99290078  1
  Cr  Cr1  1  0.16115438  0.16079187  0.16121298  1
  Cr  Cr2  1  0.99254667  0.99393435  0.32931351  1
  Ni  Ni3  1  0.99125703  0.32817473  0.99334084  1
  Cr  Cr4  1  0.15711248  0.49362976  0.16294958  1
  Ni  Ni5  1  -0.00430708  0.32830149  0.32855276  1
  Ni  Ni6  1  0.99209594  0.66297659  0.99227949  1
  Cr  Cr7  1  0.15944625  0.82814680  0.15994154  1
  Ni  Ni8  1  0.99270439  0.66104710  0.32743065  1
  Ni  Ni9  1  0.32444446  0.99346350  0.99326791  1
  Cr  Cr10  1  0.49272174  0.15969622  0.16001964  1
  Ni  Ni11  1  0.32721974  -0.00378476  0.32723814  1
  Cr  Cr12  1  0.32777706  0.32674163  -0.00554337  1
  Cr  Cr13  1  0.49514784  0.49296589  0.16121669  1
  Ni  Ni14  1  0.32644538  0.32688197  0.32921926  1
  Cr  Cr15  1  0.32538830  0.66250960  0.99326317  1
  Cr  Cr16  1  0.49389158  0.82992797  0.16119874  1
  Cr  Cr17  1  0.32723503  0.65907561  0.32794467  1
  Cr  Cr18  1  0.66272834  -0.00557713  -0.00498121  1
  Cr  Cr19  1  0.82875261  0.16206053  0.15918364  1
  Cr  Cr20  1  0.66288105  0.99340756  0.32876787  1
  Ni  Ni21  1  0.66385898  0.32829722  0.99287399  1
  Cr  Cr22  1  0.83039607  0.49487274  0.15905172  1
  Cr  Cr23  1  0.66050874  0.32724541  0.32840568  1
  Cr  Cr24  1  0.66370336  0.65980776  0.99387439  1
  Ni  Ni25  1  0.83018320  0.82634595  0.16023775  1
  Cr  Cr26  1  0.66229943  0.66198928  0.32817002  1
  Cr  Cr27  1  0.16091899  0.16258307  0.49276567  1
  Cr  Cr28  1  0.99222410  0.99303351  0.66057816  1
  Cr  Cr29  1  0.16111463  0.15915664  0.82869149  1
  Cr  Cr30  1  0.16142665  0.49274558  0.49216497  1
  Cr  Cr31  1  -0.00547417  0.32637905  0.66052443  1
  Cr  Cr32  1  0.15764716  0.49506197  0.82751104  1
  Cr  Cr33  1  0.15977675  0.82721899  0.49309982  1
  Cr  Cr34  1  0.99335403  0.66321549  0.66290022  1
  Ni  Ni35  1  0.15797030  0.82829907  0.83055970  1
  Cr  Cr36  1  0.49333651  0.16194168  0.49422071  1
  Cr  Cr37  1  0.32573044  -0.00522421  0.66264137  1
  Cr  Cr38  1  0.49366122  0.16081175  0.82840676  1
  Ni  Ni39  1  0.49264809  0.49204400  0.49446670  1
  Ni  Ni40  1  0.32902991  0.32872277  0.65927131  1
  Cr  Cr41  1  0.49657112  0.49279325  0.82630779  1
  Cr  Cr42  1  0.49503428  0.82724452  0.49360008  1
  Cr  Cr43  1  0.32753133  0.65849369  0.66138937  1
  Cr  Cr44  1  0.49310924  0.82899287  0.82783805  1
  Ni  Ni45  1  0.82804324  0.16013216  0.49332445  1
  Cr  Cr46  1  0.66461694  0.99364377  0.65877276  1
  Cr  Cr47  1  0.82785961  0.16256281  0.82950581  1
  Cr  Cr48  1  0.82835138  0.49448860  0.49280538  1
  Cr  Cr49  1  0.65997882  0.32813543  0.66060377  1
  Ni  Ni50  1  0.82865789  0.49553178  0.83069777  1
  Ni  Ni51  1  0.82801837  0.82833841  0.49323657  1
  Cr  Cr52  1  0.66174052  0.66085957  0.66052351  1
  Ni  Ni53  1  0.83146128  0.82529869  0.82915745  1
" 