8324,Ni70Fe28Cr1_0,-242.320916222029, 215.172790518617,Ni70Fe28Cr1,"# generated using pymatgen
 data_CrFe15Ni38
_symmetry_space_group_name_H-M   'P 1'
_cell_length_a   7.41776700
_cell_length_b   7.41776700
_cell_length_c   10.49030670
_cell_angle_alpha   90.00000000
_cell_angle_beta   90.00000000
_cell_angle_gamma   90.00000000
_symmetry_Int_Tables_number   1
_chemical_formula_structural   CrFe15Ni38
_chemical_formula_sum   'Cr1 Fe15 Ni38'
_cell_volume   577.21094981
_cell_formula_units_Z   1
loop_
 _symmetry_equiv_pos_site_id
 _symmetry_equiv_pos_as_xyz
  1  'x, y, z'
loop_
 _atom_site_type_symbol
 _atom_site_label
 _atom_site_symmetry_multiplicity
 _atom_site_fract_x
 _atom_site_fract_y
 _atom_site_fract_z
 _atom_site_occupancy
  Fe  Fe0  1  0.00472667  1.00224100  0.00429276  1
  Ni  Ni1  1  0.16954265  0.16939396  0.16985422  1
  Ni  Ni2  1  0.00383713  1.00310107  0.33661943  1
  Ni  Ni3  1  0.00489260  0.33822875  0.00399382  1
  Ni  Ni4  1  0.17110940  0.50360587  0.17024146  1
  Ni  Ni5  1  0.00416862  0.33679765  0.33689341  1
  Ni  Ni6  1  0.00347105  0.66938989  1.00214424  1
  Ni  Ni7  1  0.16913944  0.83696247  0.17056477  1
  Ni  Ni8  1  1.00306102  0.67005795  0.33731242  1
  Ni  Ni9  1  0.33685890  0.00349566  1.00216468  1
  Fe  Fe10  1  0.50195522  0.17026222  0.16990819  1
  Ni  Ni11  1  0.33643480  0.00390685  0.33739646  1
  Ni  Ni12  1  0.33553473  0.33604528  1.00237485  1
  Ni  Ni13  1  0.50345555  0.50329997  0.16996081  1
  Ni  Ni14  1  0.33588448  0.33576916  0.33682202  1
  Ni  Ni15  1  0.33580633  0.67042648  0.00346630  1
  Fe  Fe16  1  0.50209322  0.83648456  0.16976933  1
  Fe  Fe17  1  0.33666305  0.66952994  0.33620685  1
  Ni  Ni18  1  0.66851057  1.00207740  0.00398706  1
  Fe  Fe19  1  0.83733866  0.17074027  0.17056007  1
  Ni  Ni20  1  0.66969016  1.00279923  0.33702421  1
  Ni  Ni21  1  0.66954294  0.33716641  0.00338640  1
  Fe  Fe22  1  0.83770783  0.50330452  0.16950842  1
  Ni  Ni23  1  0.66991500  0.33655762  0.33730268  1
  Ni  Ni24  1  0.67069030  0.67072136  1.00228328  1
  Fe  Fe25  1  0.83728268  0.83592184  0.17031838  1
  Ni  Ni26  1  0.67072270  0.67060862  0.33691801  1
  Ni  Ni27  1  0.16971442  0.16968182  0.50306883  1
  Fe  Fe28  1  0.00360367  1.00291358  0.66866952  1
  Ni  Ni29  1  0.17211640  0.16957324  0.83703849  1
  Fe  Fe30  1  0.16993017  0.50195523  0.50337791  1
  Ni  Ni31  1  0.00478490  0.33719115  0.66908042  1
  Ni  Ni32  1  0.17106348  0.50397233  0.83713266  1
  Fe  Fe33  1  0.17006596  0.83756351  0.50280492  1
  Fe  Fe34  1  1.00260847  0.66948664  0.67074819  1
  Ni  Ni35  1  0.16910404  0.83641963  0.83685217  1
  Ni  Ni36  1  0.50370954  0.17135938  0.50266495  1
  Fe  Fe37  1  0.33722349  0.00449383  0.67023518  1
  Ni  Ni38  1  0.50179761  0.17120989  0.83687358  1
  Ni  Ni39  1  0.50347635  0.50287159  0.50298588  1
  Ni  Ni40  1  0.33558136  0.33658599  0.67077036  1
  Ni  Ni41  1  0.50342110  0.50292021  0.83701714  1
  Fe  Fe42  1  0.50428748  0.83763509  0.50331607  1
  Ni  Ni43  1  0.33663108  0.66990568  0.67002153  1
  Fe  Fe44  1  0.50326342  0.83627769  0.83687969  1
  Ni  Ni45  1  0.83654258  0.16856564  0.50271519  1
  Ni  Ni46  1  0.66938461  1.00203018  0.66895259  1
  Cr  Cr47  1  0.83599846  0.16970188  0.83656215  1
  Fe  Fe48  1  0.83602953  0.50214817  0.50351904  1
  Ni  Ni49  1  0.66959906  0.33692271  0.66927075  1
  Ni  Ni50  1  0.83547946  0.50592227  0.83666951  1
  Ni  Ni51  1  0.83682050  0.83736455  0.50286531  1
  Ni  Ni52  1  0.66999602  0.67101552  0.67076583  1
  Ni  Ni53  1  0.83710806  0.83479354  0.83724454  1
" 