8782,Ni70Cr30_16,-211.669440316723, 145.905504534445,Ni70Cr30,"# generated using pymatgen
 data_Cr37Ni17
_symmetry_space_group_name_H-M   'P 1'
_cell_length_a   7.55940660
_cell_length_b   7.55940660
_cell_length_c   10.69061534
_cell_angle_alpha   90.00000000
_cell_angle_beta   90.00000000
_cell_angle_gamma   90.00000000
_symmetry_Int_Tables_number   1
_chemical_formula_structural   Cr37Ni17
_chemical_formula_sum   'Cr37 Ni17'
_cell_volume   610.91123815
_cell_formula_units_Z   1
loop_
 _symmetry_equiv_pos_site_id
 _symmetry_equiv_pos_as_xyz
  1  'x, y, z'
loop_
 _atom_site_type_symbol
 _atom_site_label
 _atom_site_symmetry_multiplicity
 _atom_site_fract_x
 _atom_site_fract_y
 _atom_site_fract_z
 _atom_site_occupancy
  Ni  Ni0  1  -0.00329683  -0.00605077  -0.00552875  1
  Cr  Cr1  1  0.15985978  0.15971709  0.15938817  1
  Ni  Ni2  1  0.99194702  0.99233869  0.32691059  1
  Cr  Cr3  1  -0.00366413  0.32771446  0.98932550  1
  Cr  Cr4  1  0.15854081  0.49468204  0.16268414  1
  Cr  Cr5  1  0.99346052  0.32652424  0.32975203  1
  Cr  Cr6  1  -0.00569046  0.66057785  0.99298293  1
  Cr  Cr7  1  0.15797496  0.82733390  0.16181345  1
  Ni  Ni8  1  0.99117193  0.66257676  0.32726459  1
  Ni  Ni9  1  0.32451437  -0.00422717  0.99365637  1
  Ni  Ni10  1  0.49325786  0.15885009  0.15927024  1
  Cr  Cr11  1  0.32641635  -0.00488629  0.32623300  1
  Cr  Cr12  1  0.32626953  0.32665121  -0.00569538  1
  Cr  Cr13  1  0.49456269  0.49228939  0.16087849  1
  Cr  Cr14  1  0.32870716  0.32630564  0.32568791  1
  Cr  Cr15  1  0.32595543  0.65917498  0.99203151  1
  Cr  Cr16  1  0.49433045  0.82786846  0.15883339  1
  Cr  Cr17  1  0.32665676  0.65980226  0.32837121  1
  Cr  Cr18  1  0.66074824  0.99387936  -0.00439303  1
  Cr  Cr19  1  0.82795179  0.16009778  0.16038640  1
  Cr  Cr20  1  0.66120716  -0.00492282  0.32770267  1
  Cr  Cr21  1  0.65937718  0.32805170  0.99358977  1
  Cr  Cr22  1  0.82855935  0.49538959  0.16111307  1
  Cr  Cr23  1  0.65955994  0.32628589  0.32861284  1
  Cr  Cr24  1  0.66110143  0.65958640  0.99183911  1
  Ni  Ni25  1  0.83003801  0.82861132  0.16148555  1
  Cr  Cr26  1  0.66094221  0.66034508  0.32852546  1
  Cr  Cr27  1  0.15983407  0.16112528  0.49616006  1
  Cr  Cr28  1  -0.00559594  -0.00307458  0.66047066  1
  Ni  Ni29  1  0.16192663  0.16212512  0.82620459  1
  Cr  Cr30  1  0.16083203  0.49405838  0.49396163  1
  Ni  Ni31  1  -0.00420488  0.32839868  0.66139417  1
  Ni  Ni32  1  0.16183017  0.49090960  0.82409606  1
  Cr  Cr33  1  0.16085628  0.82668874  0.49356450  1
  Cr  Cr34  1  -0.00562640  0.65761825  0.66178195  1
  Cr  Cr35  1  0.16209933  0.82908987  0.82633112  1
  Cr  Cr36  1  0.49290195  0.16211302  0.49546794  1
  Ni  Ni37  1  0.32528325  -0.00434712  0.66208173  1
  Cr  Cr38  1  0.49153365  0.16059593  0.82721325  1
  Ni  Ni39  1  0.49392395  0.49311509  0.49637179  1
  Ni  Ni40  1  0.32547198  0.32906954  0.66242829  1
  Ni  Ni41  1  0.49174897  0.49289861  0.82484113  1
  Cr  Cr42  1  0.49130295  0.82540842  0.49824152  1
  Ni  Ni43  1  0.32729261  0.65677202  0.66150068  1
  Cr  Cr44  1  0.49194186  0.82709273  0.82462141  1
  Ni  Ni45  1  0.82949430  0.16344831  0.49357740  1
  Cr  Cr46  1  0.66157782  -0.00526249  0.65833312  1
  Cr  Cr47  1  0.82972184  0.16173059  0.82646456  1
  Ni  Ni48  1  0.82746394  0.49190985  0.49396199  1
  Cr  Cr49  1  0.66255983  0.32839553  0.65935475  1
  Ni  Ni50  1  0.82821803  0.49220953  0.82588492  1
  Cr  Cr51  1  0.82903825  0.82711326  0.49207154  1
  Cr  Cr52  1  0.66079881  0.65848701  0.66166141  1
  Cr  Cr53  1  0.82743576  0.82786425  0.82935716  1
" 