3001,Ni70Fe5Cr23_13,-229.79838659142, 157.213642217373,Ni70Fe5Cr23,"# generated using pymatgen
 data_Cr7FeNi19
_symmetry_space_group_name_H-M   'P 1'
_cell_length_a   7.47467727
_cell_length_b   7.47467727
_cell_length_c   10.57078996
_cell_angle_alpha   90.00000000
_cell_angle_beta   90.00000000
_cell_angle_gamma   90.00000000
_symmetry_Int_Tables_number   1
_chemical_formula_structural   Cr7FeNi19
_chemical_formula_sum   'Cr14 Fe2 Ni38'
_cell_volume   590.59849449
_cell_formula_units_Z   2
loop_
 _symmetry_equiv_pos_site_id
 _symmetry_equiv_pos_as_xyz
  1  'x, y, z'
loop_
 _atom_site_type_symbol
 _atom_site_label
 _atom_site_symmetry_multiplicity
 _atom_site_fract_x
 _atom_site_fract_y
 _atom_site_fract_z
 _atom_site_occupancy
  Cr  Cr0  1  0.00198195  0.00000702  0.00051238  1
  Ni  Ni1  1  0.16672706  0.16641571  0.16586790  1
  Ni  Ni2  1  0.99944438  0.00089196  0.33438174  1
  Cr  Cr3  1  0.99875386  0.33504807  0.00036980  1
  Ni  Ni4  1  0.16445190  0.49928098  0.16602226  1
  Ni  Ni5  1  0.99647282  0.33204267  0.33301210  1
  Ni  Ni6  1  0.99847478  0.66335135  0.00021138  1
  Ni  Ni7  1  0.16590678  0.83277787  0.16588849  1
  Ni  Ni8  1  0.99815570  0.66552885  0.33330129  1
  Ni  Ni9  1  0.33478025  0.00284880  0.00158181  1
  Ni  Ni10  1  0.50084562  0.16645107  0.16317631  1
  Cr  Cr11  1  0.33103515  0.99741675  0.33101098  1
  Ni  Ni12  1  0.33502720  0.33070876  0.99834500  1
  Ni  Ni13  1  0.50188241  0.49815945  0.16518698  1
  Cr  Cr14  1  0.33239340  0.33383379  0.33252851  1
  Cr  Cr15  1  0.33259452  0.66543528  0.00235680  1
  Ni  Ni16  1  0.50047867  0.83389550  0.16509862  1
  Cr  Cr17  1  0.33363608  0.66731729  0.33307387  1
  Ni  Ni18  1  0.66196497  0.00162811  0.00134967  1
  Ni  Ni19  1  0.83085876  0.16776475  0.16850138  1
  Fe  Fe20  1  0.66858647  0.99929692  0.33290128  1
  Ni  Ni21  1  0.66350729  0.33391995  0.00061612  1
  Ni  Ni22  1  0.83205699  0.49883798  0.16655857  1
  Ni  Ni23  1  0.66957633  0.33459807  0.33127250  1
  Ni  Ni24  1  0.66636434  0.66292179  -0.00030805  1
  Cr  Cr25  1  0.83254670  0.83128977  0.16582108  1
  Ni  Ni26  1  0.66685065  0.66400698  0.33415211  1
  Ni  Ni27  1  0.16158213  0.16712553  0.50078604  1
  Ni  Ni28  1  0.99947668  0.00093150  0.66326450  1
  Ni  Ni29  1  0.16925208  0.16948109  0.83168650  1
  Ni  Ni30  1  0.16427387  0.49974612  0.50155674  1
  Ni  Ni31  1  0.00113613  0.33338247  0.66498344  1
  Ni  Ni32  1  0.16625376  0.49739122  0.83088434  1
  Ni  Ni33  1  0.16314854  0.83164354  0.50021789  1
  Ni  Ni34  1  -0.00028154  0.66414031  0.66492559  1
  Cr  Cr35  1  0.16441245  0.83146692  0.83288768  1
  Cr  Cr36  1  0.50113259  0.16712593  0.49932782  1
  Cr  Cr37  1  0.33177252  0.99918985  0.66563343  1
  Ni  Ni38  1  0.49757175  0.16821624  0.83554990  1
  Ni  Ni39  1  0.50022728  0.50251187  0.50059853  1
  Fe  Fe40  1  0.33048489  0.33554720  0.66731880  1
  Ni  Ni41  1  0.49906065  0.49736074  0.83269964  1
  Ni  Ni42  1  0.50245349  0.83008479  0.50051326  1
  Ni  Ni43  1  0.33310770  0.66379677  0.66366769  1
  Cr  Cr44  1  0.50196816  0.83329213  0.83314225  1
  Ni  Ni45  1  0.83558989  0.16494633  0.49828392  1
  Ni  Ni46  1  0.66747492  0.99813770  0.66392669  1
  Cr  Cr47  1  0.83156194  0.16565928  0.83195672  1
  Ni  Ni48  1  0.83394777  0.50073309  0.49842822  1
  Cr  Cr49  1  0.66771892  0.33505672  0.66682284  1
  Ni  Ni50  1  0.83303055  0.50131964  0.83349841  1
  Ni  Ni51  1  0.83302057  0.83273847  0.50042210  1
  Ni  Ni52  1  0.66559586  0.66551040  0.66461708  1
  Cr  Cr53  1  0.83211162  0.83022887  0.83204927  1
" 