5778,Ni70Fe27Cr1_4,-241.230913797774, 214.326167548289,Ni70Fe27Cr1,"# generated using pymatgen
 data_Cr2Fe15Ni37
_symmetry_space_group_name_H-M   'P 1'
_cell_length_a   7.41707024
_cell_length_b   7.41707024
_cell_length_c   10.48932132
_cell_angle_alpha   90.00000000
_cell_angle_beta   90.00000000
_cell_angle_gamma   90.00000000
_symmetry_Int_Tables_number   1
_chemical_formula_structural   Cr2Fe15Ni37
_chemical_formula_sum   'Cr2 Fe15 Ni37'
_cell_volume   577.04830884
_cell_formula_units_Z   1
loop_
 _symmetry_equiv_pos_site_id
 _symmetry_equiv_pos_as_xyz
  1  'x, y, z'
loop_
 _atom_site_type_symbol
 _atom_site_label
 _atom_site_symmetry_multiplicity
 _atom_site_fract_x
 _atom_site_fract_y
 _atom_site_fract_z
 _atom_site_occupancy
  Ni  Ni0  1  1.00275307  0.00381737  1.00334363  1
  Fe  Fe1  1  0.16981170  0.16903931  0.16931713  1
  Ni  Ni2  1  0.00362398  1.00247318  0.33702006  1
  Ni  Ni3  1  0.00494353  0.33625369  0.00379507  1
  Ni  Ni4  1  0.16939551  0.50399095  0.16989106  1
  Ni  Ni5  1  0.00422141  0.33718568  0.33701857  1
  Fe  Fe6  1  0.00364829  0.67026518  1.00332558  1
  Ni  Ni7  1  0.16942933  0.83627152  0.17019992  1
  Ni  Ni8  1  0.00394547  0.67045200  0.33616298  1
  Fe  Fe9  1  0.33669702  1.00300569  0.00391021  1
  Ni  Ni10  1  0.50403434  0.16898425  0.16861780  1
  Ni  Ni11  1  0.33716327  1.00157821  0.33612150  1
  Ni  Ni12  1  0.33613051  0.33812969  1.00325455  1
  Ni  Ni13  1  0.50292945  0.50437767  0.16853332  1
  Cr  Cr14  1  0.33540480  0.33640875  0.33705198  1
  Ni  Ni15  1  0.33775103  0.66870224  0.00369254  1
  Ni  Ni16  1  0.50375487  0.83674659  0.17110342  1
  Fe  Fe17  1  0.33608196  0.67244705  0.33602082  1
  Ni  Ni18  1  0.67037339  1.00219087  1.00331857  1
  Fe  Fe19  1  0.83739331  0.16842527  0.16937984  1
  Ni  Ni20  1  0.66932070  1.00129745  0.33707527  1
  Fe  Fe21  1  0.66967322  0.33692121  1.00302118  1
  Fe  Fe22  1  0.83749400  0.50505790  0.16910272  1
  Cr  Cr23  1  0.67032044  0.33602711  0.33610018  1
  Ni  Ni24  1  0.66849639  0.67088939  0.00357251  1
  Ni  Ni25  1  0.83692209  0.83737730  0.17075659  1
  Fe  Fe26  1  0.67015638  0.67232191  0.33641737  1
  Ni  Ni27  1  0.16777772  0.16903664  0.50309743  1
  Ni  Ni28  1  0.00337376  1.00331277  0.66974066  1
  Ni  Ni29  1  0.16848936  0.17023169  0.83692220  1
  Fe  Fe30  1  0.16930680  0.50357957  0.50390432  1
  Ni  Ni31  1  0.00395055  0.33675837  0.66929253  1
  Ni  Ni32  1  0.16992157  0.50297533  0.83622497  1
  Ni  Ni33  1  0.16996117  0.83722730  0.50282655  1
  Ni  Ni34  1  0.00367272  0.67003750  0.67125779  1
  Ni  Ni35  1  0.16959551  0.83690003  0.83708037  1
  Ni  Ni36  1  0.50427364  0.16898690  0.50530960  1
  Fe  Fe37  1  0.33640980  1.00310319  0.66908740  1
  Fe  Fe38  1  0.50374589  0.17002990  0.83676885  1
  Ni  Ni39  1  0.50397757  0.50494537  0.50454864  1
  Fe  Fe40  1  0.33684559  0.33676287  0.67022468  1
  Ni  Ni41  1  0.50375335  0.50380301  0.83702601  1
  Ni  Ni42  1  0.50318792  0.83617924  0.50197405  1
  Fe  Fe43  1  0.33698185  0.67023912  0.67063398  1
  Ni  Ni44  1  0.50379965  0.83579123  0.83702480  1
  Ni  Ni45  1  0.83805329  0.16982883  0.50351486  1
  Ni  Ni46  1  0.66977905  1.00321551  0.66971490  1
  Ni  Ni47  1  0.83754013  0.17018608  0.83680714  1
  Fe  Fe48  1  0.83745182  0.50358983  0.50492911  1
  Ni  Ni49  1  0.66925243  0.33681052  0.67075355  1
  Ni  Ni50  1  0.83643354  0.50269995  0.83696234  1
  Fe  Fe51  1  0.83638332  0.83775687  0.50344357  1
  Ni  Ni52  1  0.66943210  0.67008350  0.66962912  1
  Ni  Ni53  1  0.83671062  0.83722167  0.83610641  1
" 