6040,Ni70Fe9Cr20_0,-232.039158242154, 166.492560199339,Ni70Fe9Cr20,"# generated using pymatgen
 data_Cr6Fe2Ni19
_symmetry_space_group_name_H-M   'P 1'
_cell_length_a   7.46397214
_cell_length_b   7.46397214
_cell_length_c   10.55565063
_cell_angle_alpha   90.00000000
_cell_angle_beta   90.00000000
_cell_angle_gamma   90.00000000
_symmetry_Int_Tables_number   1
_chemical_formula_structural   Cr6Fe2Ni19
_chemical_formula_sum   'Cr12 Fe4 Ni38'
_cell_volume   588.06458642
_cell_formula_units_Z   2
loop_
 _symmetry_equiv_pos_site_id
 _symmetry_equiv_pos_as_xyz
  1  'x, y, z'
loop_
 _atom_site_type_symbol
 _atom_site_label
 _atom_site_symmetry_multiplicity
 _atom_site_fract_x
 _atom_site_fract_y
 _atom_site_fract_z
 _atom_site_occupancy
  Cr  Cr0  1  0.99991651  0.99916772  0.99984461  1
  Fe  Fe1  1  0.16617671  0.16677481  0.16736475  1
  Ni  Ni2  1  0.00068949  0.00055660  0.33355744  1
  Fe  Fe3  1  0.00048613  0.33544241  1.00001290  1
  Ni  Ni4  1  0.16554523  0.50177290  0.16544812  1
  Ni  Ni5  1  0.99890126  0.33121825  0.32998813  1
  Ni  Ni6  1  0.00042760  0.66504508  1.00008109  1
  Ni  Ni7  1  0.16837009  0.83234534  0.16810257  1
  Cr  Cr8  1  0.00123244  0.66867863  0.33307544  1
  Ni  Ni9  1  0.33606017  0.00027669  0.00031293  1
  Ni  Ni10  1  0.50232878  0.16485161  0.16667443  1
  Ni  Ni11  1  0.33269965  0.99966811  0.33270337  1
  Ni  Ni12  1  0.33325218  0.33268650  0.99998739  1
  Cr  Cr13  1  0.49953317  0.49988899  0.16622403  1
  Cr  Cr14  1  0.33321985  0.33121408  0.33378940  1
  Ni  Ni15  1  0.33084641  0.66765775  0.00060094  1
  Fe  Fe16  1  0.49936671  0.83613644  0.16590860  1
  Ni  Ni17  1  0.33155749  0.67007807  0.33209295  1
  Ni  Ni18  1  0.66502790  0.00097639  1.00020324  1
  Ni  Ni19  1  0.83135705  0.16767148  0.16895127  1
  Ni  Ni20  1  0.66722922  0.00225161  0.33191003  1
  Ni  Ni21  1  0.66763641  0.33179020  0.00049218  1
  Ni  Ni22  1  0.83541228  0.49793061  0.16573154  1
  Ni  Ni23  1  0.66846190  0.33007857  0.33252942  1
  Fe  Fe24  1  0.66833137  0.66868605  0.99994464  1
  Ni  Ni25  1  0.83376222  0.83501536  0.16695350  1
  Cr  Cr26  1  0.66762796  0.66789703  0.33210770  1
  Ni  Ni27  1  0.16785511  0.16376247  0.50010666  1
  Ni  Ni28  1  0.00101806  0.99866200  0.66665715  1
  Ni  Ni29  1  0.16784776  0.16765956  0.83260512  1
  Cr  Cr30  1  0.16751795  0.50108113  0.50208499  1
  Ni  Ni31  1  0.00122194  0.33330672  0.67000046  1
  Ni  Ni32  1  0.16529905  0.50083208  0.83337773  1
  Ni  Ni33  1  0.16635599  0.83585891  0.50088404  1
  Ni  Ni34  1  0.00171291  0.66865008  0.66820337  1
  Ni  Ni35  1  0.16788618  0.83212662  0.83163271  1
  Ni  Ni36  1  0.49973048  0.16620717  0.50114973  1
  Ni  Ni37  1  0.33248628  0.00166050  0.66759965  1
  Ni  Ni38  1  0.50073853  0.16507640  0.83279579  1
  Cr  Cr39  1  0.49913728  0.49762955  0.50093530  1
  Ni  Ni40  1  0.33294689  0.33097237  0.66729872  1
  Cr  Cr41  1  0.49874025  0.49935244  0.83346037  1
  Cr  Cr42  1  0.49799130  0.83627034  0.49926551  1
  Ni  Ni43  1  0.32945524  0.66798581  0.66792353  1
  Ni  Ni44  1  0.49900669  0.83640332  0.83529298  1
  Cr  Cr45  1  0.83324455  0.16513402  0.49977728  1
  Ni  Ni46  1  0.66711453  0.00215291  0.66850563  1
  Ni  Ni47  1  0.83203297  0.16766079  0.83221239  1
  Cr  Cr48  1  0.83396516  0.49869037  0.50053888  1
  Ni  Ni49  1  0.66644922  0.33027792  0.66759688  1
  Ni  Ni50  1  0.83630997  0.49910144  0.83452206  1
  Ni  Ni51  1  0.83652767  0.83669026  0.50088983  1
  Cr  Cr52  1  0.66935291  0.66830644  0.66844014  1
  Ni  Ni53  1  0.83372411  0.83385619  0.83277561  1
" 