1873,Ni70Fe30_6,-236.488768653601, 208.083416014111,Ni70Fe30,"# generated using pymatgen
 data_Fe37Ni17
_symmetry_space_group_name_H-M   'P 1'
_cell_length_a   7.39652682
_cell_length_b   7.39652682
_cell_length_c   10.46026854
_cell_angle_alpha   90.00000000
_cell_angle_beta   90.00000000
_cell_angle_gamma   90.00000000
_symmetry_Int_Tables_number   1
_chemical_formula_structural   Fe37Ni17
_chemical_formula_sum   'Fe37 Ni17'
_cell_volume   572.26674156
_cell_formula_units_Z   1
loop_
 _symmetry_equiv_pos_site_id
 _symmetry_equiv_pos_as_xyz
  1  'x, y, z'
loop_
 _atom_site_type_symbol
 _atom_site_label
 _atom_site_symmetry_multiplicity
 _atom_site_fract_x
 _atom_site_fract_y
 _atom_site_fract_z
 _atom_site_occupancy
  Fe  Fe0  1  0.00573590  0.00500045  0.00538365  1
  Ni  Ni1  1  0.17207808  0.17257910  0.17087910  1
  Fe  Fe2  1  1.00353912  0.00554073  0.33728888  1
  Fe  Fe3  1  0.00611704  0.33896187  0.00494297  1
  Ni  Ni4  1  0.17183590  0.50389369  0.17184183  1
  Ni  Ni5  1  1.00401610  0.33808698  0.33845190  1
  Fe  Fe6  1  0.00580630  0.67055882  0.00499291  1
  Fe  Fe7  1  0.17159959  0.83734168  0.17129487  1
  Fe  Fe8  1  1.00334985  0.67060153  0.33814122  1
  Fe  Fe9  1  0.33813882  0.00544057  0.00477826  1
  Fe  Fe10  1  0.50470001  0.17231450  0.17129103  1
  Fe  Fe11  1  0.33810770  0.00658074  0.33828388  1
  Ni  Ni12  1  0.33798878  0.33923308  0.00479134  1
  Ni  Ni13  1  0.50387032  0.50430262  0.17131624  1
  Fe  Fe14  1  0.33805565  0.33784545  0.33695636  1
  Ni  Ni15  1  0.33737792  0.67139624  1.00457428  1
  Fe  Fe16  1  0.50338288  0.83722887  0.17203319  1
  Fe  Fe17  1  0.33845485  0.66991606  0.33751693  1
  Fe  Fe18  1  0.67022415  1.00446480  1.00387783  1
  Fe  Fe19  1  0.83876903  0.17268865  0.17077927  1
  Fe  Fe20  1  0.67273279  0.00511593  0.33909513  1
  Fe  Fe21  1  0.67016472  0.33882706  1.00407512  1
  Fe  Fe22  1  0.83848291  0.50418601  0.17128224  1
  Ni  Ni23  1  0.67211705  0.33747271  0.33745130  1
  Fe  Fe24  1  0.67034345  0.67069534  0.00562108  1
  Ni  Ni25  1  0.83731788  0.83855561  0.17086369  1
  Fe  Fe26  1  0.67255352  0.67075890  0.33768671  1
  Fe  Fe27  1  0.17129070  0.17022788  0.50329958  1
  Fe  Fe28  1  1.00340059  0.00548769  0.67157846  1
  Fe  Fe29  1  0.17060470  0.17302287  0.83932465  1
  Fe  Fe30  1  0.17199885  0.50533749  0.50475205  1
  Fe  Fe31  1  1.00363875  0.33784848  0.67156253  1
  Ni  Ni32  1  0.17148651  0.50524797  0.83791878  1
  Fe  Fe33  1  0.17258950  0.83872471  0.50500841  1
  Fe  Fe34  1  1.00316551  0.67102200  0.67176450  1
  Fe  Fe35  1  0.17109622  0.83831287  0.83804358  1
  Ni  Ni36  1  0.50428291  0.17211403  0.50379327  1
  Fe  Fe37  1  0.34030490  0.00596138  0.67085236  1
  Ni  Ni38  1  0.50449765  0.17029479  0.83872358  1
  Fe  Fe39  1  0.50623345  0.50485125  0.50370050  1
  Fe  Fe40  1  0.33962842  0.33696531  0.67250785  1
  Fe  Fe41  1  0.50559818  0.50303037  0.83932666  1
  Ni  Ni42  1  0.50612456  0.83896545  0.50405443  1
  Fe  Fe43  1  0.33978856  0.67138200  0.67208129  1
  Fe  Fe44  1  0.50524637  0.83742513  0.83730769  1
  Fe  Fe45  1  0.83633660  0.17098310  0.50530937  1
  Ni  Ni46  1  0.67140060  0.00541228  0.67121581  1
  Ni  Ni47  1  0.83701624  0.17138710  0.83832420  1
  Fe  Fe48  1  0.83621949  0.50406282  0.50527381  1
  Ni  Ni49  1  0.67126069  0.33724359  0.67201421  1
  Ni  Ni50  1  0.83944069  0.50502391  0.83894756  1
  Ni  Ni51  1  0.83822928  0.83773933  0.50573728  1
  Fe  Fe52  1  0.67176417  0.67129326  0.67133170  1
  Fe  Fe53  1  0.83792201  0.83847134  0.83818111  1
" 