2817,Ni70Fe27Cr1_6,-241.602196130727, 212.97193791395,Ni70Fe27Cr1,"# generated using pymatgen
 data_Cr2Fe15Ni37
_symmetry_space_group_name_H-M   'P 1'
_cell_length_a   7.41791918
_cell_length_b   7.41791918
_cell_length_c   10.49052191
_cell_angle_alpha   90.00000000
_cell_angle_beta   90.00000000
_cell_angle_gamma   90.00000000
_symmetry_Int_Tables_number   1
_chemical_formula_structural   Cr2Fe15Ni37
_chemical_formula_sum   'Cr2 Fe15 Ni37'
_cell_volume   577.24647530
_cell_formula_units_Z   1
loop_
 _symmetry_equiv_pos_site_id
 _symmetry_equiv_pos_as_xyz
  1  'x, y, z'
loop_
 _atom_site_type_symbol
 _atom_site_label
 _atom_site_symmetry_multiplicity
 _atom_site_fract_x
 _atom_site_fract_y
 _atom_site_fract_z
 _atom_site_occupancy
  Fe  Fe0  1  0.00446160  1.00310231  1.00300614  1
  Ni  Ni1  1  0.17098877  0.16988917  0.17033375  1
  Fe  Fe2  1  0.00345778  1.00304367  0.33733170  1
  Ni  Ni3  1  0.00527198  0.33908041  1.00325146  1
  Ni  Ni4  1  0.16927462  0.50292232  0.17132011  1
  Ni  Ni5  1  1.00256308  0.33800622  0.33857941  1
  Ni  Ni6  1  0.00348429  0.66931965  0.00368749  1
  Ni  Ni7  1  0.16984740  0.83722396  0.16878090  1
  Ni  Ni8  1  0.00435545  0.66989034  0.33670115  1
  Ni  Ni9  1  0.33714088  0.00354799  1.00131888  1
  Ni  Ni10  1  0.50209314  0.16975584  0.16998533  1
  Ni  Ni11  1  0.33651683  0.00354892  0.33817065  1
  Ni  Ni12  1  0.33571797  0.33550124  0.00422637  1
  Ni  Ni13  1  0.50260042  0.50228784  0.16761218  1
  Fe  Fe14  1  0.33719057  0.33689191  0.33641355  1
  Ni  Ni15  1  0.33585552  0.67088413  0.00397562  1
  Ni  Ni16  1  0.50217840  0.83800747  0.17066360  1
  Fe  Fe17  1  0.33547098  0.66914568  0.33564558  1
  Ni  Ni18  1  0.66707710  1.00190494  0.00582025  1
  Fe  Fe19  1  0.83723935  0.17124878  0.17017583  1
  Fe  Fe20  1  0.67105348  0.00481029  0.33659670  1
  Ni  Ni21  1  0.66910464  0.33731449  0.00423333  1
  Ni  Ni22  1  0.83791442  0.50320814  0.16857524  1
  Ni  Ni23  1  0.67010016  0.33597518  0.33631815  1
  Ni  Ni24  1  0.67051696  0.67075145  1.00211557  1
  Ni  Ni25  1  0.83794057  0.83666690  0.16886945  1
  Cr  Cr26  1  0.67186367  0.66887782  0.33699579  1
  Fe  Fe27  1  0.16922036  0.16988696  0.50346495  1
  Ni  Ni28  1  0.00399911  1.00091835  0.66917267  1
  Ni  Ni29  1  0.17253974  0.17118693  0.83538385  1
  Fe  Fe30  1  0.16912144  0.50356321  0.50394455  1
  Fe  Fe31  1  1.00318019  0.33609656  0.66980323  1
  Ni  Ni32  1  0.16995800  0.50296029  0.83628094  1
  Ni  Ni33  1  0.17009464  0.83585937  0.50353056  1
  Ni  Ni34  1  0.00363502  0.67070279  0.66958603  1
  Fe  Fe35  1  0.16913549  0.83633733  0.83653878  1
  Ni  Ni36  1  0.50315769  0.17107662  0.50312643  1
  Fe  Fe37  1  0.33648709  0.00410744  0.66958230  1
  Ni  Ni38  1  0.50168662  0.16907487  0.83672030  1
  Ni  Ni39  1  0.50230540  0.50148026  0.50459006  1
  Ni  Ni40  1  0.33734097  0.33593763  0.66928491  1
  Fe  Fe41  1  0.50328130  0.50217686  0.83738386  1
  Fe  Fe42  1  0.50358313  0.83722678  0.50377338  1
  Fe  Fe43  1  0.33666390  0.66976363  0.67057468  1
  Ni  Ni44  1  0.50401221  0.83766247  0.83540715  1
  Ni  Ni45  1  0.83557515  0.17033048  0.50311012  1
  Ni  Ni46  1  0.66944948  0.00339155  0.66738364  1
  Cr  Cr47  1  0.83538299  0.16976955  0.83778506  1
  Ni  Ni48  1  0.83671670  0.50267660  0.50566056  1
  Ni  Ni49  1  0.66766764  0.33649991  0.66949988  1
  Ni  Ni50  1  0.83779615  0.50544955  0.83580359  1
  Ni  Ni51  1  0.83918423  0.83702547  0.50446765  1
  Fe  Fe52  1  0.67083780  0.66980142  0.67000554  1
  Ni  Ni53  1  0.83552688  0.83504942  0.83625051  1
" 