5525,Ni70Fe30_16,-236.241067897419, 203.604932515166,Ni70Fe30,"# generated using pymatgen
 data_Fe37Ni17
_symmetry_space_group_name_H-M   'P 1'
_cell_length_a   7.39679492
_cell_length_b   7.39679492
_cell_length_c   10.46064769
_cell_angle_alpha   90.00000000
_cell_angle_beta   90.00000000
_cell_angle_gamma   90.00000000
_symmetry_Int_Tables_number   1
_chemical_formula_structural   Fe37Ni17
_chemical_formula_sum   'Fe37 Ni17'
_cell_volume   572.32897170
_cell_formula_units_Z   1
loop_
 _symmetry_equiv_pos_site_id
 _symmetry_equiv_pos_as_xyz
  1  'x, y, z'
loop_
 _atom_site_type_symbol
 _atom_site_label
 _atom_site_symmetry_multiplicity
 _atom_site_fract_x
 _atom_site_fract_y
 _atom_site_fract_z
 _atom_site_occupancy
  Ni  Ni0  1  1.00434753  1.00350012  1.00357344  1
  Fe  Fe1  1  0.17092453  0.17062581  0.17177617  1
  Ni  Ni2  1  1.00421190  1.00422578  0.33810296  1
  Fe  Fe3  1  1.00392208  0.33715071  1.00474797  1
  Fe  Fe4  1  0.17113678  0.50449038  0.17149856  1
  Fe  Fe5  1  1.00402864  0.33814446  0.33825899  1
  Ni  Ni6  1  1.00434618  0.67181340  0.00517810  1
  Ni  Ni7  1  0.17237660  0.83807497  0.17215133  1
  Fe  Fe8  1  0.00491614  0.67115961  0.33761831  1
  Ni  Ni9  1  0.33828425  0.00572154  1.00436282  1
  Fe  Fe10  1  0.50433972  0.17099214  0.17053780  1
  Fe  Fe11  1  0.33806432  1.00403473  0.33762124  1
  Fe  Fe12  1  0.33785923  0.33682909  1.00459926  1
  Fe  Fe13  1  0.50456975  0.50457339  0.17224928  1
  Ni  Ni14  1  0.33808076  0.33858007  0.33804742  1
  Fe  Fe15  1  0.33718136  0.67398475  1.00461013  1
  Fe  Fe16  1  0.50525081  0.83869284  0.17136015  1
  Fe  Fe17  1  0.33810513  0.67205688  0.33808167  1
  Ni  Ni18  1  0.67161586  1.00444620  0.00529945  1
  Ni  Ni19  1  0.83786177  0.17277505  0.17150918  1
  Fe  Fe20  1  0.67124337  0.00491807  0.33825852  1
  Fe  Fe21  1  0.67246476  0.33681908  1.00459754  1
  Fe  Fe22  1  0.83853981  0.50540515  0.17141274  1
  Fe  Fe23  1  0.67213380  0.33818417  0.33789548  1
  Fe  Fe24  1  0.67188510  0.67271953  0.00491192  1
  Fe  Fe25  1  0.83890163  0.83890514  0.17136297  1
  Ni  Ni26  1  0.67194427  0.67144980  0.33826388  1
  Fe  Fe27  1  0.17166304  0.17192396  0.50441722  1
  Fe  Fe28  1  0.00524900  0.00523982  0.67129113  1
  Fe  Fe29  1  0.17230667  0.17097631  0.83804740  1
  Fe  Fe30  1  0.17215127  0.50455680  0.50484230  1
  Fe  Fe31  1  1.00400830  0.33818322  0.67123493  1
  Fe  Fe32  1  0.17212826  0.50514424  0.83791387  1
  Fe  Fe33  1  0.17081755  0.83777008  0.50442353  1
  Fe  Fe34  1  1.00458605  0.67080852  0.67229770  1
  Ni  Ni35  1  0.17295514  0.83840260  0.83763823  1
  Fe  Fe36  1  0.50487419  0.17191854  0.50572328  1
  Fe  Fe37  1  0.33913388  1.00467383  0.67243400  1
  Ni  Ni38  1  0.50488080  0.17016353  0.83818194  1
  Fe  Fe39  1  0.50481290  0.50499270  0.50414360  1
  Ni  Ni40  1  0.33807236  0.33892797  0.67197530  1
  Fe  Fe41  1  0.50426828  0.50488960  0.83785547  1
  Ni  Ni42  1  0.50336011  0.83883450  0.50420507  1
  Fe  Fe43  1  0.33878849  0.67239710  0.67155825  1
  Ni  Ni44  1  0.50267848  0.83975862  0.83895018  1
  Fe  Fe45  1  0.83770905  0.17058083  0.50410460  1
  Ni  Ni46  1  0.67195840  1.00387128  0.67109562  1
  Fe  Fe47  1  0.83727171  0.16997102  0.83886697  1
  Ni  Ni48  1  0.83851146  0.50336789  0.50338289  1
  Fe  Fe49  1  0.67145294  0.33783828  0.67175026  1
  Ni  Ni50  1  0.83861004  0.50347876  0.83883112  1
  Fe  Fe51  1  0.83726880  0.83782244  0.50441781  1
  Fe  Fe52  1  0.67086435  0.67115459  0.67050540  1
  Fe  Fe53  1  0.83752087  0.83851857  0.83846311  1
" 