5527,Ni70Fe28Cr1_11,-242.461447742589, 216.6827267685,Ni70Fe28Cr1,"# generated using pymatgen
 data_CrFe15Ni38
_symmetry_space_group_name_H-M   'P 1'
_cell_length_a   7.41777798
_cell_length_b   7.41777798
_cell_length_c   10.49032222
_cell_angle_alpha   90.00000000
_cell_angle_beta   90.00000000
_cell_angle_gamma   90.00000000
_symmetry_Int_Tables_number   1
_chemical_formula_structural   CrFe15Ni38
_chemical_formula_sum   'Cr1 Fe15 Ni38'
_cell_volume   577.21351263
_cell_formula_units_Z   1
loop_
 _symmetry_equiv_pos_site_id
 _symmetry_equiv_pos_as_xyz
  1  'x, y, z'
loop_
 _atom_site_type_symbol
 _atom_site_label
 _atom_site_symmetry_multiplicity
 _atom_site_fract_x
 _atom_site_fract_y
 _atom_site_fract_z
 _atom_site_occupancy
  Ni  Ni0  1  1.00292229  0.00614622  1.00289573  1
  Ni  Ni1  1  0.16948057  0.17044488  0.17109581  1
  Fe  Fe2  1  1.00255787  1.00241960  0.33569454  1
  Ni  Ni3  1  0.00511275  0.33660605  1.00322438  1
  Ni  Ni4  1  0.16833847  0.50292494  0.17014693  1
  Ni  Ni5  1  0.00362389  0.33665715  0.33651524  1
  Fe  Fe6  1  1.00180194  0.67068958  1.00284409  1
  Ni  Ni7  1  0.16972656  0.83651904  0.16818955  1
  Ni  Ni8  1  1.00227092  0.66835363  0.33578893  1
  Fe  Fe9  1  0.33685740  0.00401480  0.00383715  1
  Ni  Ni10  1  0.50422714  0.16881518  0.17034867  1
  Ni  Ni11  1  0.33732542  0.00416274  0.33551166  1
  Fe  Fe12  1  0.33677911  0.33566835  1.00240902  1
  Fe  Fe13  1  0.50316787  0.50186641  0.16949997  1
  Fe  Fe14  1  0.33801421  0.33578237  0.33721201  1
  Fe  Fe15  1  0.33589072  0.67031838  1.00299795  1
  Ni  Ni16  1  0.50388046  0.83680070  0.16973671  1
  Cr  Cr17  1  0.33666244  0.67151824  0.33838262  1
  Ni  Ni18  1  0.66971137  1.00249461  1.00313438  1
  Ni  Ni19  1  0.83671999  0.17070626  0.16993135  1
  Ni  Ni20  1  0.66859506  0.00332136  0.33626070  1
  Fe  Fe21  1  0.67170519  0.33511772  1.00328655  1
  Fe  Fe22  1  0.83678409  0.50278109  0.17008263  1
  Ni  Ni23  1  0.67194615  0.33569714  0.33613484  1
  Ni  Ni24  1  0.66855874  0.67088490  0.00426134  1
  Fe  Fe25  1  0.83701505  0.83840946  0.16880632  1
  Ni  Ni26  1  0.67151443  0.67094897  0.33614759  1
  Ni  Ni27  1  0.16926028  0.16799632  0.50160692  1
  Fe  Fe28  1  0.00407629  1.00316559  0.67092510  1
  Ni  Ni29  1  0.16972392  0.17050890  0.83711018  1
  Fe  Fe30  1  0.16922813  0.50203280  0.50458298  1
  Ni  Ni31  1  0.00383696  0.33643391  0.67061617  1
  Ni  Ni32  1  0.16976781  0.50333088  0.83601029  1
  Ni  Ni33  1  0.16929720  0.83750217  0.50492170  1
  Ni  Ni34  1  1.00280305  0.66736430  0.67093809  1
  Fe  Fe35  1  0.16967537  0.83699000  0.83624260  1
  Ni  Ni36  1  0.50350810  0.16929502  0.50282016  1
  Ni  Ni37  1  0.33829527  0.00419531  0.67118559  1
  Ni  Ni38  1  0.50365177  0.16958033  0.83639898  1
  Ni  Ni39  1  0.50613437  0.50350691  0.50370352  1
  Ni  Ni40  1  0.33476802  0.33573980  0.66916522  1
  Ni  Ni41  1  0.50366583  0.50438245  0.83673860  1
  Ni  Ni42  1  0.50285518  0.83722335  0.50417957  1
  Ni  Ni43  1  0.33713101  0.66981892  0.67070229  1
  Ni  Ni44  1  0.50382629  0.83604362  0.83667653  1
  Ni  Ni45  1  0.83721175  0.17132439  0.50386380  1
  Ni  Ni46  1  0.66887998  1.00330175  0.67046621  1
  Ni  Ni47  1  0.83681445  0.17010693  0.83591037  1
  Ni  Ni48  1  0.83669253  0.50344627  0.50292976  1
  Fe  Fe49  1  0.66914741  0.33750227  0.66957667  1
  Ni  Ni50  1  0.83642000  0.50368054  0.83750910  1
  Fe  Fe51  1  0.83584588  0.83714764  0.50405149  1
  Ni  Ni52  1  0.66993278  0.67141770  0.66963078  1
  Ni  Ni53  1  0.83569702  0.83622886  0.83649738  1
" 