2643,Ni70Fe27Cr1_10,-241.609334229428, 215.401021922333,Ni70Fe27Cr1,"# generated using pymatgen
 data_Cr2Fe15Ni37
_symmetry_space_group_name_H-M   'P 1'
_cell_length_a   7.41900034
_cell_length_b   7.41900034
_cell_length_c   10.49205090
_cell_angle_alpha   90.00000000
_cell_angle_beta   90.00000000
_cell_angle_gamma   90.00000000
_symmetry_Int_Tables_number   1
_chemical_formula_structural   Cr2Fe15Ni37
_chemical_formula_sum   'Cr2 Fe15 Ni37'
_cell_volume   577.49891219
_cell_formula_units_Z   1
loop_
 _symmetry_equiv_pos_site_id
 _symmetry_equiv_pos_as_xyz
  1  'x, y, z'
loop_
 _atom_site_type_symbol
 _atom_site_label
 _atom_site_symmetry_multiplicity
 _atom_site_fract_x
 _atom_site_fract_y
 _atom_site_fract_z
 _atom_site_occupancy
  Ni  Ni0  1  0.00419995  0.00329571  1.00322138  1
  Ni  Ni1  1  0.16936881  0.17127599  0.16995036  1
  Ni  Ni2  1  0.00369676  1.00293554  0.33515979  1
  Ni  Ni3  1  0.00380359  0.33564366  1.00285376  1
  Ni  Ni4  1  0.17031460  0.50312456  0.17091736  1
  Ni  Ni5  1  1.00178027  0.33647929  0.33638191  1
  Ni  Ni6  1  1.00162510  0.67067746  0.00384265  1
  Fe  Fe7  1  0.17014572  0.83747969  0.16978057  1
  Ni  Ni8  1  1.00173249  0.67047060  0.33598437  1
  Ni  Ni9  1  0.33635114  0.00522466  1.00308327  1
  Ni  Ni10  1  0.50319986  0.17140816  0.17070203  1
  Ni  Ni11  1  0.33648505  0.00366444  0.33564505  1
  Ni  Ni12  1  0.33738750  0.33452744  0.00330493  1
  Ni  Ni13  1  0.50119839  0.50248662  0.17041674  1
  Ni  Ni14  1  0.33801844  0.33596613  0.33616382  1
  Fe  Fe15  1  0.33355819  0.66921879  1.00298805  1
  Fe  Fe16  1  0.50284924  0.83796768  0.17051061  1
  Ni  Ni17  1  0.33777176  0.67066040  0.33561514  1
  Fe  Fe18  1  0.67118003  0.00495355  1.00269424  1
  Ni  Ni19  1  0.83739355  0.16831375  0.17045092  1
  Fe  Fe20  1  0.66947838  0.00337278  0.33621831  1
  Fe  Fe21  1  0.67036700  0.33378773  1.00297098  1
  Fe  Fe22  1  0.83778824  0.50117772  0.17013151  1
  Ni  Ni23  1  0.66960086  0.33786220  0.33525661  1
  Cr  Cr24  1  0.67025035  0.66887149  1.00259086  1
  Ni  Ni25  1  0.83811061  0.83734435  0.17098330  1
  Ni  Ni26  1  0.67009214  0.66867430  0.33663996  1
  Cr  Cr27  1  0.16992171  0.16938278  0.50302210  1
  Ni  Ni28  1  0.00363390  1.00232370  0.67123426  1
  Fe  Fe29  1  0.17034708  0.16915873  0.83705799  1
  Fe  Fe30  1  0.17259567  0.50539191  0.50199938  1
  Fe  Fe31  1  0.00349701  0.33804714  0.67099834  1
  Fe  Fe32  1  0.16988742  0.50372421  0.83746371  1
  Ni  Ni33  1  0.16896276  0.83525666  0.50211408  1
  Ni  Ni34  1  1.00226836  0.67151069  0.67004363  1
  Ni  Ni35  1  0.16908154  0.83605193  0.83748052  1
  Ni  Ni36  1  0.50467671  0.17085471  0.50276188  1
  Ni  Ni37  1  0.33580012  0.00324639  0.67082635  1
  Ni  Ni38  1  0.50380824  0.17050170  0.83624304  1
  Ni  Ni39  1  0.50381767  0.50328691  0.50324910  1
  Ni  Ni40  1  0.33901535  0.33615780  0.67063467  1
  Ni  Ni41  1  0.50253189  0.50234579  0.83608161  1
  Ni  Ni42  1  0.50230987  0.83563079  0.50319882  1
  Ni  Ni43  1  0.33691195  0.67036303  0.67103015  1
  Ni  Ni44  1  0.50180831  0.83671745  0.83598305  1
  Fe  Fe45  1  0.83439443  0.16928641  0.50309217  1
  Fe  Fe46  1  0.66829049  1.00267721  0.67045363  1
  Ni  Ni47  1  0.83706999  0.16989194  0.83594980  1
  Fe  Fe48  1  0.83575793  0.50344077  0.50370759  1
  Ni  Ni49  1  0.66917425  0.33762313  0.67115447  1
  Ni  Ni50  1  0.83725103  0.50254608  0.83658646  1
  Fe  Fe51  1  0.83590058  0.83679700  0.50297633  1
  Ni  Ni52  1  0.67022248  0.66860775  0.67018487  1
  Ni  Ni53  1  0.83817389  0.83717134  0.83487216  1
" 