8685,Ni70Fe9Cr20_10,-231.996620490134, 170.338181231222,Ni70Fe9Cr20,"# generated using pymatgen
 data_Cr6Fe2Ni19
_symmetry_space_group_name_H-M   'P 1'
_cell_length_a   7.46449630
_cell_length_b   7.46449630
_cell_length_c   10.55639191
_cell_angle_alpha   90.00000000
_cell_angle_beta   90.00000000
_cell_angle_gamma   90.00000000
_symmetry_Int_Tables_number   1
_chemical_formula_structural   Cr6Fe2Ni19
_chemical_formula_sum   'Cr12 Fe4 Ni38'
_cell_volume   588.18848670
_cell_formula_units_Z   2
loop_
 _symmetry_equiv_pos_site_id
 _symmetry_equiv_pos_as_xyz
  1  'x, y, z'
loop_
 _atom_site_type_symbol
 _atom_site_label
 _atom_site_symmetry_multiplicity
 _atom_site_fract_x
 _atom_site_fract_y
 _atom_site_fract_z
 _atom_site_occupancy
  Ni  Ni0  1  0.00153687  0.00166620  0.99850736  1
  Ni  Ni1  1  0.16894532  0.16811641  0.16519296  1
  Cr  Cr2  1  0.00036438  0.00125727  0.33592156  1
  Ni  Ni3  1  1.00013759  0.33126764  0.00017094  1
  Cr  Cr4  1  0.16533632  0.49743306  0.16715058  1
  Ni  Ni5  1  1.00011031  0.33333362  0.33309709  1
  Ni  Ni6  1  0.99657497  0.66757814  0.99826861  1
  Cr  Cr7  1  0.16773261  0.83514726  0.16708839  1
  Ni  Ni8  1  0.00019894  0.66565968  0.33517164  1
  Ni  Ni9  1  0.33273722  0.00266614  0.99922348  1
  Ni  Ni10  1  0.49850325  0.16616437  0.16777952  1
  Ni  Ni11  1  0.33481925  0.00159836  0.33324791  1
  Ni  Ni12  1  0.33265798  0.32878747  0.00137393  1
  Ni  Ni13  1  0.50256080  0.49945483  0.16864843  1
  Ni  Ni14  1  0.33484066  0.33304044  0.33380233  1
  Cr  Cr15  1  0.33560548  0.66819547  0.00033871  1
  Ni  Ni16  1  0.50191858  0.83489529  0.16671855  1
  Ni  Ni17  1  0.33467419  0.66587448  0.33447143  1
  Fe  Fe18  1  0.66605223  0.99928068  0.99958909  1
  Fe  Fe19  1  0.83316210  0.16892310  0.16766183  1
  Ni  Ni20  1  0.66534738  0.00168848  0.33316048  1
  Cr  Cr21  1  0.66714674  0.33445978  0.00118615  1
  Ni  Ni22  1  0.83241823  0.50026971  0.16691432  1
  Ni  Ni23  1  0.66556106  0.33318620  0.33294809  1
  Ni  Ni24  1  0.66872016  0.66766007  0.00045235  1
  Cr  Cr25  1  0.83135471  0.83156044  0.16692521  1
  Ni  Ni26  1  0.66563970  0.66563972  0.33190501  1
  Ni  Ni27  1  0.16790013  0.16766871  0.49934376  1
  Cr  Cr28  1  0.00057048  1.00001778  0.66568308  1
  Ni  Ni29  1  0.16798020  0.16470506  0.83597383  1
  Ni  Ni30  1  0.16711248  0.50092631  0.49951799  1
  Ni  Ni31  1  0.99813727  0.33356179  0.66724523  1
  Cr  Cr32  1  0.16331095  0.49966926  0.83368436  1
  Ni  Ni33  1  0.16647046  0.83191739  0.50035166  1
  Ni  Ni34  1  1.00000954  0.66723890  0.66707497  1
  Ni  Ni35  1  0.16557141  0.83573868  0.83350355  1
  Ni  Ni36  1  0.50069611  0.16740581  0.49946425  1
  Ni  Ni37  1  0.33412842  0.99915056  0.66804145  1
  Ni  Ni38  1  0.49931288  0.16360409  0.83327008  1
  Ni  Ni39  1  0.49921020  0.49891825  0.49909278  1
  Cr  Cr40  1  0.33402996  0.33247773  0.66512386  1
  Cr  Cr41  1  0.50251107  0.49979629  0.83208562  1
  Cr  Cr42  1  0.50063823  0.83434218  0.50043227  1
  Ni  Ni43  1  0.33293835  0.66913960  0.66576459  1
  Fe  Fe44  1  0.50060153  0.83574137  0.83271223  1
  Ni  Ni45  1  0.83191537  0.16676015  0.50039048  1
  Ni  Ni46  1  0.66622805  0.00102190  0.66794859  1
  Fe  Fe47  1  0.83426925  0.16702578  0.83267768  1
  Cr  Cr48  1  0.83379794  0.50058655  0.50071074  1
  Ni  Ni49  1  0.66812687  0.33237306  0.66656245  1
  Ni  Ni50  1  0.83435641  0.50243530  0.83303415  1
  Ni  Ni51  1  0.83392592  0.83340498  0.50011491  1
  Ni  Ni52  1  0.66756333  0.66711817  0.66815405  1
  Ni  Ni53  1  0.83325858  0.83167843  0.83435381  1
" 