2574,Ni70Fe27Cr1_1,-241.267896954019, 214.5989025586,Ni70Fe27Cr1,"# generated using pymatgen
 data_Cr2Fe15Ni37
_symmetry_space_group_name_H-M   'P 1'
_cell_length_a   7.41839408
_cell_length_b   7.41839408
_cell_length_c   10.49119352
_cell_angle_alpha   90.00000000
_cell_angle_beta   90.00000000
_cell_angle_gamma   90.00000000
_symmetry_Int_Tables_number   1
_chemical_formula_structural   Cr2Fe15Ni37
_chemical_formula_sum   'Cr2 Fe15 Ni37'
_cell_volume   577.35734887
_cell_formula_units_Z   1
loop_
 _symmetry_equiv_pos_site_id
 _symmetry_equiv_pos_as_xyz
  1  'x, y, z'
loop_
 _atom_site_type_symbol
 _atom_site_label
 _atom_site_symmetry_multiplicity
 _atom_site_fract_x
 _atom_site_fract_y
 _atom_site_fract_z
 _atom_site_occupancy
  Ni  Ni0  1  0.00339587  0.00365752  1.00294087  1
  Ni  Ni1  1  0.16992145  0.17040761  0.16955972  1
  Ni  Ni2  1  1.00262297  0.00393858  0.33618693  1
  Ni  Ni3  1  1.00238629  0.33613413  0.00394279  1
  Ni  Ni4  1  0.16968623  0.50325056  0.16972642  1
  Ni  Ni5  1  0.00342865  0.33595454  0.33708010  1
  Ni  Ni6  1  0.00335780  0.67004825  0.00510785  1
  Ni  Ni7  1  0.17044415  0.83617643  0.16904106  1
  Fe  Fe8  1  1.00283577  0.66944740  0.33665937  1
  Ni  Ni9  1  0.33685613  1.00260206  0.00384751  1
  Fe  Fe10  1  0.50362409  0.16922565  0.17011326  1
  Fe  Fe11  1  0.33672493  0.00372027  0.33660153  1
  Fe  Fe12  1  0.33630540  0.33522076  0.00346084  1
  Fe  Fe13  1  0.50297472  0.50411484  0.17011632  1
  Ni  Ni14  1  0.33629534  0.33775948  0.33624090  1
  Ni  Ni15  1  0.33721060  0.67078316  0.00366017  1
  Ni  Ni16  1  0.50369928  0.83669942  0.16957393  1
  Ni  Ni17  1  0.33711192  0.66921245  0.33694783  1
  Ni  Ni18  1  0.66958976  0.00357084  1.00317703  1
  Ni  Ni19  1  0.83647810  0.16986266  0.16968196  1
  Ni  Ni20  1  0.67084392  1.00311706  0.33699944  1
  Fe  Fe21  1  0.67037350  0.33625994  0.00334547  1
  Ni  Ni22  1  0.83699292  0.50350961  0.16924046  1
  Ni  Ni23  1  0.67011233  0.33670305  0.33644183  1
  Fe  Fe24  1  0.67040766  0.67073744  0.00348379  1
  Ni  Ni25  1  0.83569801  0.83646611  0.16988781  1
  Ni  Ni26  1  0.66904057  0.67001872  0.33619264  1
  Ni  Ni27  1  0.17071244  0.17061926  0.50429523  1
  Ni  Ni28  1  0.00393604  1.00323353  0.67071139  1
  Ni  Ni29  1  0.17064188  0.16874808  0.83598051  1
  Ni  Ni30  1  0.16969094  0.50320153  0.50389260  1
  Ni  Ni31  1  0.00477387  0.33606871  0.66881565  1
  Cr  Cr32  1  0.16990266  0.50264258  0.83593019  1
  Ni  Ni33  1  0.16964454  0.83602012  0.50393648  1
  Ni  Ni34  1  1.00236588  0.67053751  0.66861171  1
  Fe  Fe35  1  0.17074235  0.83861695  0.83689907  1
  Ni  Ni36  1  0.50271108  0.16900998  0.50269070  1
  Ni  Ni37  1  0.33633126  0.00374621  0.66981154  1
  Ni  Ni38  1  0.50236040  0.16896418  0.83776612  1
  Fe  Fe39  1  0.50247922  0.50362415  0.50259831  1
  Ni  Ni40  1  0.33553079  0.33559407  0.66944590  1
  Ni  Ni41  1  0.50399121  0.50390958  0.83728310  1
  Fe  Fe42  1  0.50379142  0.83698498  0.50284385  1
  Fe  Fe43  1  0.33686064  0.67071826  0.66912806  1
  Fe  Fe44  1  0.50272186  0.83725945  0.83716419  1
  Ni  Ni45  1  0.83641807  0.16896964  0.50322138  1
  Ni  Ni46  1  0.66957295  1.00134260  0.66966836  1
  Fe  Fe47  1  0.83737761  0.16948572  0.83750249  1
  Ni  Ni48  1  0.83765167  0.50463029  0.50331774  1
  Cr  Cr49  1  0.66997094  0.33662128  0.66909962  1
  Fe  Fe50  1  0.83600887  0.50332199  0.83711665  1
  Ni  Ni51  1  0.83604269  0.83623638  0.50338719  1
  Ni  Ni52  1  0.67005461  0.67134251  0.67044130  1
  Fe  Fe53  1  0.83637525  0.83703142  0.83626232  1
" 