4375,Ni70Fe28Cr1_16,-242.051955664249, 212.848336981756,Ni70Fe28Cr1,"# generated using pymatgen
 data_CrFe15Ni38
_symmetry_space_group_name_H-M   'P 1'
_cell_length_a   7.41832720
_cell_length_b   7.41832720
_cell_length_c   10.49109893
_cell_angle_alpha   90.00000000
_cell_angle_beta   90.00000000
_cell_angle_gamma   90.00000000
_symmetry_Int_Tables_number   1
_chemical_formula_structural   CrFe15Ni38
_chemical_formula_sum   'Cr1 Fe15 Ni38'
_cell_volume   577.34173352
_cell_formula_units_Z   1
loop_
 _symmetry_equiv_pos_site_id
 _symmetry_equiv_pos_as_xyz
  1  'x, y, z'
loop_
 _atom_site_type_symbol
 _atom_site_label
 _atom_site_symmetry_multiplicity
 _atom_site_fract_x
 _atom_site_fract_y
 _atom_site_fract_z
 _atom_site_occupancy
  Ni  Ni0  1  0.00402592  0.00459275  1.00242229  1
  Ni  Ni1  1  0.16960864  0.16981259  0.17038333  1
  Ni  Ni2  1  0.00388450  0.00390246  0.33693576  1
  Ni  Ni3  1  1.00252038  0.33677240  1.00321844  1
  Ni  Ni4  1  0.17041972  0.50323956  0.16957354  1
  Ni  Ni5  1  1.00237999  0.33716225  0.33673356  1
  Fe  Fe6  1  0.00410229  0.67044619  1.00214127  1
  Ni  Ni7  1  0.17107241  0.83679710  0.17000609  1
  Ni  Ni8  1  0.00538115  0.66878374  0.33737584  1
  Ni  Ni9  1  0.33747395  1.00199456  0.00347976  1
  Ni  Ni10  1  0.50347127  0.17041008  0.17032616  1
  Ni  Ni11  1  0.33751088  1.00203208  0.33621266  1
  Fe  Fe12  1  0.33644345  0.33487052  0.00386909  1
  Ni  Ni13  1  0.50295751  0.50293260  0.17041578  1
  Ni  Ni14  1  0.33749322  0.33751391  0.33675938  1
  Fe  Fe15  1  0.33626230  0.67091516  0.00376652  1
  Ni  Ni16  1  0.50170660  0.83649917  0.16921379  1
  Ni  Ni17  1  0.33636970  0.67030555  0.33586699  1
  Ni  Ni18  1  0.66835100  0.00410057  1.00183706  1
  Ni  Ni19  1  0.83676861  0.17106474  0.16913586  1
  Ni  Ni20  1  0.66845599  0.00503018  0.33746322  1
  Fe  Fe21  1  0.66990294  0.33531491  1.00311050  1
  Fe  Fe22  1  0.83715248  0.50080423  0.17021809  1
  Ni  Ni23  1  0.66997922  0.33602074  0.33557145  1
  Fe  Fe24  1  0.66948868  0.66989317  1.00207480  1
  Cr  Cr25  1  0.83755039  0.83783061  0.17132478  1
  Fe  Fe26  1  0.66846590  0.66894074  0.33749941  1
  Ni  Ni27  1  0.16933474  0.16945315  0.50284919  1
  Ni  Ni28  1  1.00314914  1.00316477  0.67049608  1
  Ni  Ni29  1  0.17027627  0.16868002  0.83661882  1
  Ni  Ni30  1  0.16936774  0.50375050  0.50412045  1
  Ni  Ni31  1  1.00194454  0.33684459  0.66989805  1
  Fe  Fe32  1  0.16948826  0.50334087  0.83621418  1
  Ni  Ni33  1  0.16962079  0.83664934  0.50263603  1
  Ni  Ni34  1  0.00455721  0.66984333  0.67070837  1
  Ni  Ni35  1  0.16812289  0.83766589  0.83721169  1
  Ni  Ni36  1  0.50367838  0.17012008  0.50283708  1
  Fe  Fe37  1  0.33535668  0.00353155  0.66991221  1
  Ni  Ni38  1  0.50270157  0.17095318  0.83668298  1
  Ni  Ni39  1  0.50394432  0.50337598  0.50320008  1
  Fe  Fe40  1  0.33601140  0.33685220  0.66949105  1
  Ni  Ni41  1  0.50464458  0.50237405  0.83623574  1
  Ni  Ni42  1  0.50302045  0.83635400  0.50346196  1
  Ni  Ni43  1  0.33658161  0.67017061  0.67042854  1
  Fe  Fe44  1  0.50313301  0.83678157  0.83700108  1
  Ni  Ni45  1  0.83683332  0.17037468  0.50379690  1
  Fe  Fe46  1  0.67066484  0.00344128  0.66978476  1
  Fe  Fe47  1  0.83702111  0.16992981  0.83670453  1
  Ni  Ni48  1  0.83654112  0.50309637  0.50252050  1
  Ni  Ni49  1  0.67015131  0.33654693  0.67068600  1
  Ni  Ni50  1  0.83572760  0.50453221  0.83725353  1
  Fe  Fe51  1  0.83726139  0.83691627  0.50346881  1
  Fe  Fe52  1  0.67099270  0.66887238  0.67027786  1
  Ni  Ni53  1  0.83799845  0.83572635  0.83589258  1
" 