4831,Ni70Fe28Cr1_4,-242.809123535608, 215.845827630889,Ni70Fe28Cr1,"# generated using pymatgen
 data_CrFe15Ni38
_symmetry_space_group_name_H-M   'P 1'
_cell_length_a   7.42014876
_cell_length_b   7.42014876
_cell_length_c   10.49367502
_cell_angle_alpha   90.00000000
_cell_angle_beta   90.00000000
_cell_angle_gamma   90.00000000
_symmetry_Int_Tables_number   1
_chemical_formula_structural   CrFe15Ni38
_chemical_formula_sum   'Cr1 Fe15 Ni38'
_cell_volume   577.76713562
_cell_formula_units_Z   1
loop_
 _symmetry_equiv_pos_site_id
 _symmetry_equiv_pos_as_xyz
  1  'x, y, z'
loop_
 _atom_site_type_symbol
 _atom_site_label
 _atom_site_symmetry_multiplicity
 _atom_site_fract_x
 _atom_site_fract_y
 _atom_site_fract_z
 _atom_site_occupancy
  Ni  Ni0  1  0.00512288  0.00339916  0.00383259  1
  Ni  Ni1  1  0.16921119  0.16957231  0.16939794  1
  Fe  Fe2  1  0.00346349  0.00339102  0.33671158  1
  Ni  Ni3  1  0.99994826  0.33638964  0.00410857  1
  Ni  Ni4  1  0.17058025  0.50334519  0.16857831  1
  Fe  Fe5  1  0.00545935  0.33684373  0.33688969  1
  Ni  Ni6  1  1.00302091  0.66971815  1.00282918  1
  Ni  Ni7  1  0.16905358  0.83749848  0.17030036  1
  Ni  Ni8  1  1.00296725  0.66965454  0.33612649  1
  Ni  Ni9  1  0.33613738  0.00453847  0.00326382  1
  Fe  Fe10  1  0.50310316  0.17033892  0.17055391  1
  Ni  Ni11  1  0.33596722  0.00421043  0.33733714  1
  Fe  Fe12  1  0.33515194  0.33821051  0.00400586  1
  Ni  Ni13  1  0.50278298  0.50188139  0.16995477  1
  Ni  Ni14  1  0.33777406  0.33629668  0.33622825  1
  Ni  Ni15  1  0.33550931  0.67140982  1.00248932  1
  Cr  Cr16  1  0.50221428  0.83400231  0.17031290  1
  Ni  Ni17  1  0.33268850  0.66900286  0.33751789  1
  Fe  Fe18  1  0.67240772  1.00244214  0.00346719  1
  Ni  Ni19  1  0.83774756  0.16984943  0.17031196  1
  Ni  Ni20  1  0.67076086  0.00586284  0.33719221  1
  Ni  Ni21  1  0.66945797  0.33538835  0.00453426  1
  Ni  Ni22  1  0.83574711  0.50236406  0.17062655  1
  Ni  Ni23  1  0.67082819  0.33598962  0.33619367  1
  Ni  Ni24  1  0.67088449  0.66606722  0.00370797  1
  Ni  Ni25  1  0.83811127  0.83735874  0.16876219  1
  Fe  Fe26  1  0.66971343  0.66962216  0.33718285  1
  Ni  Ni27  1  0.16979877  0.16914911  0.50424543  1
  Ni  Ni28  1  0.00528625  0.00329238  0.66938028  1
  Fe  Fe29  1  0.16851317  0.17144826  0.83615591  1
  Ni  Ni30  1  0.17081309  0.50367401  0.50498002  1
  Ni  Ni31  1  1.00017587  0.33633547  0.66866713  1
  Fe  Fe32  1  0.16731120  0.50398260  0.83616209  1
  Ni  Ni33  1  0.17012153  0.83731499  0.50246099  1
  Ni  Ni34  1  0.00316707  0.66978013  0.67048373  1
  Ni  Ni35  1  0.17170894  0.83877409  0.83686346  1
  Fe  Fe36  1  0.50317544  0.17071776  0.50257921  1
  Ni  Ni37  1  0.33721455  0.00331059  0.66888536  1
  Fe  Fe38  1  0.50354266  0.17029236  0.83631691  1
  Ni  Ni39  1  0.50289509  0.50369535  0.50248595  1
  Fe  Fe40  1  0.33565975  0.33843377  0.66894744  1
  Ni  Ni41  1  0.50252718  0.50333931  0.83680935  1
  Fe  Fe42  1  0.50320197  0.83639793  0.50194599  1
  Ni  Ni43  1  0.33667441  0.67254666  0.66955902  1
  Fe  Fe44  1  0.50469511  0.83555051  0.83699975  1
  Ni  Ni45  1  0.83721853  0.16944875  0.50336456  1
  Fe  Fe46  1  0.67179280  1.00193011  0.66881916  1
  Ni  Ni47  1  0.83646816  0.16895989  0.83600773  1
  Ni  Ni48  1  0.83545822  0.50268925  0.50293301  1
  Ni  Ni49  1  0.66951822  0.33583867  0.66877477  1
  Ni  Ni50  1  0.83324259  0.50043553  0.83581828  1
  Ni  Ni51  1  0.83754306  0.83705026  0.50399030  1
  Ni  Ni52  1  0.66950280  0.66734630  0.66824426  1
  Fe  Fe53  1  0.83761171  0.83427053  0.83635523  1
" 