4444,Ni70Cr30_1,-211.564342729595, 143.848825821672,Ni70Cr30,"# generated using pymatgen
 data_Cr37Ni17
_symmetry_space_group_name_H-M   'P 1'
_cell_length_a   7.55892449
_cell_length_b   7.55892449
_cell_length_c   10.68993353
_cell_angle_alpha   90.00000000
_cell_angle_beta   90.00000000
_cell_angle_gamma   90.00000000
_symmetry_Int_Tables_number   1
_chemical_formula_structural   Cr37Ni17
_chemical_formula_sum   'Cr37 Ni17'
_cell_volume   610.79436027
_cell_formula_units_Z   1
loop_
 _symmetry_equiv_pos_site_id
 _symmetry_equiv_pos_as_xyz
  1  'x, y, z'
loop_
 _atom_site_type_symbol
 _atom_site_label
 _atom_site_symmetry_multiplicity
 _atom_site_fract_x
 _atom_site_fract_y
 _atom_site_fract_z
 _atom_site_occupancy
  Cr  Cr0  1  0.99287881  0.99297251  -0.00505932  1
  Ni  Ni1  1  0.15895468  0.15768120  0.16218241  1
  Ni  Ni2  1  0.99168012  0.99206123  0.32291151  1
  Cr  Cr3  1  0.99244636  0.32304864  0.99226825  1
  Cr  Cr4  1  0.15875677  0.49475503  0.16096593  1
  Cr  Cr5  1  0.99327879  0.32407896  0.32700913  1
  Cr  Cr6  1  0.99373538  0.66561319  0.99188524  1
  Ni  Ni7  1  0.15654664  0.82931917  0.16273925  1
  Ni  Ni8  1  0.99367385  0.66515996  0.32522881  1
  Cr  Cr9  1  0.32448849  0.99345815  -0.00395614  1
  Ni  Ni10  1  0.49642159  0.16169021  0.16075307  1
  Cr  Cr11  1  0.32741464  -0.00513157  0.32418976  1
  Cr  Cr12  1  0.32845802  0.32650069  -0.00277676  1
  Ni  Ni13  1  0.49633519  0.49213579  0.15834993  1
  Cr  Cr14  1  0.32914203  0.32658688  0.32522837  1
  Cr  Cr15  1  0.32653426  0.66175594  0.99385648  1
  Cr  Cr16  1  0.49608360  0.82714650  0.15998028  1
  Cr  Cr17  1  0.32730146  0.66048773  0.32624943  1
  Cr  Cr18  1  0.66441158  -0.00530124  -0.00529901  1
  Ni  Ni19  1  0.82640671  0.15813645  0.16157547  1
  Ni  Ni20  1  0.66354827  -0.00515380  0.32499978  1
  Ni  Ni21  1  0.66101503  0.32607601  -0.00365924  1
  Cr  Cr22  1  0.82659189  0.49543286  0.15965427  1
  Cr  Cr23  1  0.65934051  0.32494337  0.32588231  1
  Ni  Ni24  1  0.66212323  0.66061489  -0.00490576  1
  Ni  Ni25  1  0.82896143  0.82924870  0.16259776  1
  Cr  Cr26  1  0.66075820  0.66185377  0.32641672  1
  Cr  Cr27  1  0.16029450  0.15796764  0.49379867  1
  Cr  Cr28  1  0.99193730  0.99282491  0.66384962  1
  Cr  Cr29  1  0.16150894  0.16001700  0.82630398  1
  Cr  Cr30  1  0.15797917  0.49472840  0.49306384  1
  Cr  Cr31  1  0.99304593  0.32712286  0.66250240  1
  Ni  Ni32  1  0.16039735  0.49581487  0.82674886  1
  Cr  Cr33  1  0.15958292  0.82902173  0.49206351  1
  Cr  Cr34  1  0.99372320  0.66166614  0.66259428  1
  Ni  Ni35  1  0.15966758  0.82701349  0.82594250  1
  Cr  Cr36  1  0.49426469  0.15656680  0.49602914  1
  Ni  Ni37  1  0.32730653  0.99253800  0.66167818  1
  Cr  Cr38  1  0.49503907  0.15926268  0.82627853  1
  Cr  Cr39  1  0.49439704  0.49437376  0.49340478  1
  Cr  Cr40  1  0.32679129  0.32823601  0.65970044  1
  Cr  Cr41  1  0.49497279  0.49371809  0.83095482  1
  Cr  Cr42  1  0.49478238  0.83096328  0.49624963  1
  Cr  Cr43  1  0.32609860  0.66141010  0.66147152  1
  Cr  Cr44  1  0.49454867  0.82895734  0.82574483  1
  Cr  Cr45  1  0.82716182  0.15757745  0.49366697  1
  Ni  Ni46  1  0.66149826  0.99379849  0.66225703  1
  Ni  Ni47  1  0.82503655  0.15841316  0.82720711  1
  Cr  Cr48  1  0.82936354  0.49527987  0.49215099  1
  Cr  Cr49  1  0.66219813  0.32585044  0.66018322  1
  Cr  Cr50  1  0.82673266  0.49335361  0.82966967  1
  Cr  Cr51  1  0.82736605  0.82881251  0.49099481  1
  Cr  Cr52  1  0.66209630  0.66249625  0.66068775  1
  Ni  Ni53  1  0.82674280  0.82886552  0.82735657  1
" 