7903,Ni70Fe5Cr23_2,-229.640702439759, 153.321545665761,Ni70Fe5Cr23,"# generated using pymatgen
 data_Cr7FeNi19
_symmetry_space_group_name_H-M   'P 1'
_cell_length_a   7.47627839
_cell_length_b   7.47627839
_cell_length_c   10.57305430
_cell_angle_alpha   90.00000000
_cell_angle_beta   90.00000000
_cell_angle_gamma   90.00000000
_symmetry_Int_Tables_number   1
_chemical_formula_structural   Cr7FeNi19
_chemical_formula_sum   'Cr14 Fe2 Ni38'
_cell_volume   590.97810609
_cell_formula_units_Z   2
loop_
 _symmetry_equiv_pos_site_id
 _symmetry_equiv_pos_as_xyz
  1  'x, y, z'
loop_
 _atom_site_type_symbol
 _atom_site_label
 _atom_site_symmetry_multiplicity
 _atom_site_fract_x
 _atom_site_fract_y
 _atom_site_fract_z
 _atom_site_occupancy
  Ni  Ni0  1  0.99898462  0.00137404  0.99789371  1
  Ni  Ni1  1  0.16531796  0.16913328  0.16583667  1
  Ni  Ni2  1  0.00005333  0.00031107  0.33357301  1
  Ni  Ni3  1  0.00098694  0.33083668  -0.00032694  1
  Ni  Ni4  1  0.16644717  0.49564956  0.16577350  1
  Ni  Ni5  1  0.00170693  0.33383901  0.33345224  1
  Cr  Cr6  1  0.00003551  0.66562431  0.99907689  1
  Cr  Cr7  1  0.16523241  0.83454812  0.16602192  1
  Ni  Ni8  1  0.99732533  0.66401160  0.33296053  1
  Ni  Ni9  1  0.33331553  -0.00057541  0.99771299  1
  Cr  Cr10  1  0.49638377  0.16688278  0.16277372  1
  Cr  Cr11  1  0.33122707  0.00111088  0.33434523  1
  Ni  Ni12  1  0.33110580  0.33269529  0.00013107  1
  Ni  Ni13  1  0.49960805  0.50139851  0.16504046  1
  Ni  Ni14  1  0.32966904  0.33351214  0.33332189  1
  Ni  Ni15  1  0.33501022  0.66601865  0.99924923  1
  Ni  Ni16  1  0.50240313  0.82934163  0.16329242  1
  Cr  Cr17  1  0.33314826  0.66417226  0.33294043  1
  Ni  Ni18  1  0.66582713  0.99757362  0.99746472  1
  Cr  Cr19  1  0.83639325  0.16565037  0.16493655  1
  Cr  Cr20  1  0.66624575  0.99720286  0.33385401  1
  Ni  Ni21  1  0.66599960  0.33247131  0.99932254  1
  Ni  Ni22  1  0.83208851  0.50131123  0.16641676  1
  Cr  Cr23  1  0.66601788  0.33537008  0.33532827  1
  Ni  Ni24  1  0.66405473  0.66804998  0.00232915  1
  Ni  Ni25  1  0.83033752  0.83049054  0.16628139  1
  Ni  Ni26  1  0.66743398  0.66526698  0.33113844  1
  Ni  Ni27  1  0.16594332  0.16745199  0.49938740  1
  Ni  Ni28  1  0.00222091  0.00017256  0.66674350  1
  Ni  Ni29  1  0.16534705  0.16577879  0.83293317  1
  Ni  Ni30  1  0.16498299  0.49804372  0.50064110  1
  Ni  Ni31  1  0.00206497  0.33212999  0.66504642  1
  Ni  Ni32  1  0.16747740  0.49807168  0.83165653  1
  Ni  Ni33  1  0.16688536  0.83267489  0.50175387  1
  Ni  Ni34  1  0.00352552  0.66586747  0.66583135  1
  Ni  Ni35  1  0.16751983  0.83426980  0.83081128  1
  Ni  Ni36  1  0.49655226  0.16661310  0.50105686  1
  Ni  Ni37  1  0.33082374  0.99891124  0.66564367  1
  Fe  Fe38  1  0.49705825  0.16412713  0.83414054  1
  Fe  Fe39  1  0.49704367  0.49903835  0.49912795  1
  Ni  Ni40  1  0.32954509  0.33197880  0.66466958  1
  Cr  Cr41  1  0.49614631  0.49984198  0.83417885  1
  Ni  Ni42  1  0.49694704  0.83241697  0.50004294  1
  Ni  Ni43  1  0.32938737  0.66723378  0.66535910  1
  Ni  Ni44  1  0.49761335  0.83402656  0.83477637  1
  Ni  Ni45  1  0.83561632  0.16837694  0.49960131  1
  Cr  Cr46  1  0.66533245  0.00073903  0.66700057  1
  Ni  Ni47  1  0.83505245  0.16407492  0.83415310  1
  Ni  Ni48  1  0.83538650  0.49823162  0.49823725  1
  Cr  Cr49  1  0.66685720  0.33042004  0.66394627  1
  Cr  Cr50  1  0.83470689  0.49818973  0.83310604  1
  Cr  Cr51  1  0.83545037  0.83168299  0.49798421  1
  Cr  Cr52  1  0.66576863  0.66690955  0.66485124  1
  Ni  Ni53  1  0.83304908  0.83611873  0.83384246  1
" 