4858,Ni70Fe5Cr23_16,-229.635003947189, 156.048538243411,Ni70Fe5Cr23,"# generated using pymatgen
 data_Cr7FeNi19
_symmetry_space_group_name_H-M   'P 1'
_cell_length_a   7.47558314
_cell_length_b   7.47558314
_cell_length_c   10.57207106
_cell_angle_alpha   90.00000000
_cell_angle_beta   90.00000000
_cell_angle_gamma   90.00000000
_symmetry_Int_Tables_number   1
_chemical_formula_structural   Cr7FeNi19
_chemical_formula_sum   'Cr14 Fe2 Ni38'
_cell_volume   590.81324852
_cell_formula_units_Z   2
loop_
 _symmetry_equiv_pos_site_id
 _symmetry_equiv_pos_as_xyz
  1  'x, y, z'
loop_
 _atom_site_type_symbol
 _atom_site_label
 _atom_site_symmetry_multiplicity
 _atom_site_fract_x
 _atom_site_fract_y
 _atom_site_fract_z
 _atom_site_occupancy
  Ni  Ni0  1  0.99743678  -0.00025813  0.99942657  1
  Cr  Cr1  1  0.16574121  0.16532125  0.16606439  1
  Ni  Ni2  1  -0.00031848  -0.00016341  0.33450683  1
  Ni  Ni3  1  0.99767739  0.33399765  -0.00018196  1
  Ni  Ni4  1  0.16525238  0.50119803  0.16597289  1
  Ni  Ni5  1  0.00021476  0.33129918  0.33148867  1
  Ni  Ni6  1  0.00087533  0.66447931  0.99858837  1
  Ni  Ni7  1  0.16555277  0.83070939  0.16603460  1
  Ni  Ni8  1  0.00090126  0.66722516  0.33236959  1
  Ni  Ni9  1  0.33222184  0.99689540  0.99907308  1
  Cr  Cr10  1  0.50021102  0.16557308  0.16425714  1
  Ni  Ni11  1  0.33051400  0.99695521  0.33483456  1
  Ni  Ni12  1  0.33246090  0.33715140  0.99897207  1
  Ni  Ni13  1  0.49795182  0.49939429  0.16686535  1
  Ni  Ni14  1  0.33075488  0.33483407  0.33359186  1
  Ni  Ni15  1  0.33143927  0.66423778  -0.00012674  1
  Cr  Cr16  1  0.49736530  0.83327940  0.16650238  1
  Ni  Ni17  1  0.33273920  0.66646309  0.33220130  1
  Ni  Ni18  1  0.66880425  0.00062664  0.99729310  1
  Ni  Ni19  1  0.83368883  0.16665876  0.16498003  1
  Ni  Ni20  1  0.66822948  0.99778637  0.33455272  1
  Ni  Ni21  1  0.66822821  0.33331121  0.99911468  1
  Ni  Ni22  1  0.83501416  0.49870189  0.16615478  1
  Cr  Cr23  1  0.66742785  0.33319589  0.33090664  1
  Cr  Cr24  1  0.66511541  0.66472478  0.99821176  1
  Cr  Cr25  1  0.83515828  0.83266814  0.16762812  1
  Ni  Ni26  1  0.66449450  0.66675606  0.33400644  1
  Ni  Ni27  1  0.16521453  0.16351532  0.49877118  1
  Ni  Ni28  1  0.99770470  0.99872995  0.66417562  1
  Cr  Cr29  1  0.16665822  0.16662880  0.83310024  1
  Cr  Cr30  1  0.16615265  0.49970262  0.49830214  1
  Cr  Cr31  1  0.99902065  0.33015042  0.66703954  1
  Ni  Ni32  1  0.16552844  0.49958411  0.83464372  1
  Ni  Ni33  1  0.16563121  0.83486670  0.49803852  1
  Fe  Fe34  1  0.99807247  0.66805389  0.66717512  1
  Cr  Cr35  1  0.16483037  0.83233056  0.83484459  1
  Cr  Cr36  1  0.49879486  0.16607553  0.50065732  1
  Ni  Ni37  1  0.33209781  0.99811986  0.66427653  1
  Cr  Cr38  1  0.50020788  0.16542567  0.83300419  1
  Ni  Ni39  1  0.49995665  0.50168497  0.49938488  1
  Ni  Ni40  1  0.33377945  0.33371784  0.66573183  1
  Ni  Ni41  1  0.49995985  0.49908930  0.83225862  1
  Ni  Ni42  1  0.49983474  0.83245436  0.49863471  1
  Cr  Cr43  1  0.33480811  0.66652274  0.66710219  1
  Ni  Ni44  1  0.50107925  0.83309335  0.83296413  1
  Ni  Ni45  1  0.83388226  0.16391715  0.49909615  1
  Ni  Ni46  1  0.66831725  0.99737234  0.66629331  1
  Ni  Ni47  1  0.83176417  0.16553788  0.83401196  1
  Cr  Cr48  1  0.83154968  0.50169081  0.49929502  1
  Ni  Ni49  1  0.66637583  0.33396254  0.66748648  1
  Ni  Ni50  1  0.83276925  0.49997884  0.83281016  1
  Fe  Fe51  1  0.83238143  0.83378377  0.49943800  1
  Ni  Ni52  1  0.66549990  0.66718644  0.66653635  1
  Ni  Ni53  1  0.83214751  0.83297406  0.83080996  1
" 