6533,Ni70Fe30_5,-236.180221685656, 201.928967521443,Ni70Fe30,"# generated using pymatgen
 data_Fe37Ni17
_symmetry_space_group_name_H-M   'P 1'
_cell_length_a   7.39217166
_cell_length_b   7.39217166
_cell_length_c   10.45410941
_cell_angle_alpha   90.00000000
_cell_angle_beta   90.00000000
_cell_angle_gamma   90.00000000
_symmetry_Int_Tables_number   1
_chemical_formula_structural   Fe37Ni17
_chemical_formula_sum   'Fe37 Ni17'
_cell_volume   571.25646467
_cell_formula_units_Z   1
loop_
 _symmetry_equiv_pos_site_id
 _symmetry_equiv_pos_as_xyz
  1  'x, y, z'
loop_
 _atom_site_type_symbol
 _atom_site_label
 _atom_site_symmetry_multiplicity
 _atom_site_fract_x
 _atom_site_fract_y
 _atom_site_fract_z
 _atom_site_occupancy
  Fe  Fe0  1  1.00459202  1.00411844  0.00601604  1
  Ni  Ni1  1  0.17236785  0.17163540  0.17263715  1
  Ni  Ni2  1  0.00623702  0.00658097  0.33821481  1
  Fe  Fe3  1  1.00452535  0.33847161  1.00482681  1
  Fe  Fe4  1  0.17141180  0.50490304  0.17212246  1
  Ni  Ni5  1  0.00660406  0.33706540  0.33800185  1
  Ni  Ni6  1  1.00479204  0.67144921  0.00569851  1
  Ni  Ni7  1  0.17037641  0.83856437  0.17116977  1
  Fe  Fe8  1  0.00513829  0.67221199  0.33839627  1
  Fe  Fe9  1  0.33866928  1.00440530  0.00510380  1
  Ni  Ni10  1  0.50507171  0.17245950  0.17111601  1
  Fe  Fe11  1  0.33760109  0.00513943  0.33807670  1
  Fe  Fe12  1  0.33882172  0.33826928  0.00526437  1
  Fe  Fe13  1  0.50499286  0.50546244  0.17180960  1
  Fe  Fe14  1  0.33804065  0.33820077  0.33811889  1
  Fe  Fe15  1  0.33886901  0.67252174  1.00498430  1
  Fe  Fe16  1  0.50527013  0.83907134  0.17098157  1
  Fe  Fe17  1  0.33725047  0.67185504  0.33883471  1
  Ni  Ni18  1  0.67048155  1.00434632  0.00562594  1
  Fe  Fe19  1  0.83907253  0.17065462  0.17208825  1
  Fe  Fe20  1  0.67260528  0.00537225  0.33760418  1
  Fe  Fe21  1  0.67184704  0.33867427  0.00526466  1
  Fe  Fe22  1  0.83878791  0.50539255  0.17165307  1
  Fe  Fe23  1  0.67224889  0.33805007  0.33827782  1
  Ni  Ni24  1  0.67164895  0.67299586  1.00489926  1
  Ni  Ni25  1  0.83858444  0.83739758  0.17174246  1
  Ni  Ni26  1  0.67074007  0.67228681  0.33794723  1
  Fe  Fe27  1  0.17113432  0.17201090  0.50494814  1
  Fe  Fe28  1  1.00499085  1.00467125  0.67118067  1
  Ni  Ni29  1  0.17135801  0.17234810  0.83767734  1
  Ni  Ni30  1  0.17109377  0.50550975  0.50522206  1
  Ni  Ni31  1  0.00660171  0.33839328  0.67181619  1
  Fe  Fe32  1  0.17160001  0.50510054  0.83764737  1
  Ni  Ni33  1  0.17108574  0.83742237  0.50579510  1
  Ni  Ni34  1  1.00468823  0.67083290  0.67082243  1
  Fe  Fe35  1  0.17188806  0.83847684  0.83831700  1
  Fe  Fe36  1  0.50412139  0.17172901  0.50459410  1
  Fe  Fe37  1  0.33780833  1.00439283  0.67201371  1
  Fe  Fe38  1  0.50478150  0.17104907  0.83906870  1
  Fe  Fe39  1  0.50459500  0.50601704  0.50498576  1
  Fe  Fe40  1  0.33768109  0.33934011  0.67180964  1
  Fe  Fe41  1  0.50499459  0.50539433  0.83839823  1
  Fe  Fe42  1  0.50459507  0.83744939  0.50577679  1
  Fe  Fe43  1  0.33772873  0.67146029  0.67137583  1
  Ni  Ni44  1  0.50622705  0.83775259  0.83869675  1
  Fe  Fe45  1  0.83994324  0.17201182  0.50494659  1
  Fe  Fe46  1  0.67239517  1.00462304  0.67248157  1
  Fe  Fe47  1  0.83832825  0.17133820  0.83815891  1
  Fe  Fe48  1  0.83938855  0.50565487  0.50542241  1
  Fe  Fe49  1  0.67260758  0.33919252  0.67165004  1
  Fe  Fe50  1  0.83860021  0.50558846  0.83811609  1
  Fe  Fe51  1  0.83910471  0.83752677  0.50458992  1
  Ni  Ni52  1  0.67146012  0.67237768  0.67234822  1
  Fe  Fe53  1  0.83803565  0.83826580  0.83914930  1
" 