3728,Ni70Fe28Cr1_10,-242.174705967314, 214.587107937833,Ni70Fe28Cr1,"# generated using pymatgen
 data_CrFe15Ni38
_symmetry_space_group_name_H-M   'P 1'
_cell_length_a   7.41757782
_cell_length_b   7.41757782
_cell_length_c   10.49003915
_cell_angle_alpha   90.00000000
_cell_angle_beta   90.00000000
_cell_angle_gamma   90.00000000
_symmetry_Int_Tables_number   1
_chemical_formula_structural   CrFe15Ni38
_chemical_formula_sum   'Cr1 Fe15 Ni38'
_cell_volume   577.16678610
_cell_formula_units_Z   1
loop_
 _symmetry_equiv_pos_site_id
 _symmetry_equiv_pos_as_xyz
  1  'x, y, z'
loop_
 _atom_site_type_symbol
 _atom_site_label
 _atom_site_symmetry_multiplicity
 _atom_site_fract_x
 _atom_site_fract_y
 _atom_site_fract_z
 _atom_site_occupancy
  Ni  Ni0  1  0.00426944  1.00320972  1.00179905  1
  Fe  Fe1  1  0.17093752  0.17032816  0.16949235  1
  Cr  Cr2  1  0.00449192  0.00382323  0.33670335  1
  Ni  Ni3  1  0.00418694  0.33699749  1.00283262  1
  Ni  Ni4  1  0.17173224  0.50303567  0.17061577  1
  Ni  Ni5  1  0.00361279  0.33783556  0.33747143  1
  Ni  Ni6  1  1.00175401  0.66987716  1.00313974  1
  Ni  Ni7  1  0.17140089  0.83476074  0.16801775  1
  Fe  Fe8  1  0.00399951  0.66941493  0.33595627  1
  Ni  Ni9  1  0.33644163  0.00395774  1.00302072  1
  Fe  Fe10  1  0.50362852  0.16948113  0.17085119  1
  Ni  Ni11  1  0.33726634  1.00272730  0.33766883  1
  Ni  Ni12  1  0.33634239  0.33559382  1.00285739  1
  Ni  Ni13  1  0.50152042  0.50302332  0.16947547  1
  Ni  Ni14  1  0.33611046  0.33681506  0.33756063  1
  Fe  Fe15  1  0.33708051  0.66959952  0.00418563  1
  Ni  Ni16  1  0.50332453  0.83623815  0.17094301  1
  Ni  Ni17  1  0.33803979  0.67012129  0.33834634  1
  Ni  Ni18  1  0.66920117  1.00231286  1.00238630  1
  Ni  Ni19  1  0.83514411  0.17033730  0.16881259  1
  Ni  Ni20  1  0.66901408  1.00204068  0.33824551  1
  Ni  Ni21  1  0.66957875  0.33798360  1.00208628  1
  Fe  Fe22  1  0.83626070  0.50439975  0.16978816  1
  Ni  Ni23  1  0.67022071  0.33819456  0.33758159  1
  Ni  Ni24  1  0.67069522  0.67004000  1.00302418  1
  Ni  Ni25  1  0.83548987  0.83926351  0.16835172  1
  Ni  Ni26  1  0.66998364  0.66983637  0.33693343  1
  Ni  Ni27  1  0.17088164  0.17078454  0.50333380  1
  Fe  Fe28  1  1.00315685  1.00320138  0.66960437  1
  Fe  Fe29  1  0.17021445  0.17050942  0.83610455  1
  Ni  Ni30  1  0.17113758  0.50348161  0.50292604  1
  Fe  Fe31  1  1.00332794  0.33744070  0.66959630  1
  Ni  Ni32  1  0.17155329  0.50293526  0.83697978  1
  Ni  Ni33  1  0.17068630  0.83557375  0.50441744  1
  Fe  Fe34  1  0.00386824  0.66934112  0.67081439  1
  Fe  Fe35  1  0.16970355  0.83566564  0.83692644  1
  Ni  Ni36  1  0.50345244  0.17058646  0.50243564  1
  Ni  Ni37  1  0.33541163  0.00441980  0.66898343  1
  Fe  Fe38  1  0.50368638  0.17048127  0.83627006  1
  Ni  Ni39  1  0.50245072  0.50224301  0.50381039  1
  Ni  Ni40  1  0.33560833  0.33569554  0.66921716  1
  Ni  Ni41  1  0.50154981  0.50419570  0.83711048  1
  Fe  Fe42  1  0.50353099  0.83641558  0.50372062  1
  Fe  Fe43  1  0.33805390  0.66925488  0.66958414  1
  Ni  Ni44  1  0.50270019  0.83642912  0.83681190  1
  Ni  Ni45  1  0.83520484  0.17006476  0.50463267  1
  Fe  Fe46  1  0.66842536  1.00322914  0.67022662  1
  Ni  Ni47  1  0.83705690  0.16914596  0.83630726  1
  Ni  Ni48  1  0.83675743  0.50328323  0.50251888  1
  Fe  Fe49  1  0.66847218  0.33755192  0.67011556  1
  Ni  Ni50  1  0.83705938  0.50245955  0.83779547  1
  Ni  Ni51  1  0.83660060  0.83667005  0.50402011  1
  Ni  Ni52  1  0.67204990  0.66936698  0.67025352  1
  Ni  Ni53  1  0.83574126  0.83839517  0.83740577  1
" 