3265,Ni70Cr30_6,-211.4900415843, 140.882976496682,Ni70Cr30,"# generated using pymatgen
 data_Cr37Ni17
_symmetry_space_group_name_H-M   'P 1'
_cell_length_a   7.55998220
_cell_length_b   7.55998220
_cell_length_c   10.69142936
_cell_angle_alpha   90.00000000
_cell_angle_beta   90.00000000
_cell_angle_gamma   90.00000000
_symmetry_Int_Tables_number   1
_chemical_formula_structural   Cr37Ni17
_chemical_formula_sum   'Cr37 Ni17'
_cell_volume   611.05079904
_cell_formula_units_Z   1
loop_
 _symmetry_equiv_pos_site_id
 _symmetry_equiv_pos_as_xyz
  1  'x, y, z'
loop_
 _atom_site_type_symbol
 _atom_site_label
 _atom_site_symmetry_multiplicity
 _atom_site_fract_x
 _atom_site_fract_y
 _atom_site_fract_z
 _atom_site_occupancy
  Cr  Cr0  1  0.99340280  -0.00411864  0.99378517  1
  Ni  Ni1  1  0.16159845  0.16127983  0.16166339  1
  Cr  Cr2  1  -0.00509989  -0.00436998  0.32714564  1
  Cr  Cr3  1  -0.00439215  0.32669020  -0.00588965  1
  Cr  Cr4  1  0.15946495  0.49193324  0.15936670  1
  Ni  Ni5  1  0.99018110  0.32680587  0.32753494  1
  Cr  Cr6  1  -0.00601439  0.65901913  -0.00529525  1
  Cr  Cr7  1  0.16282970  0.82884071  0.16117047  1
  Cr  Cr8  1  0.99159125  0.65814640  0.32847821  1
  Cr  Cr9  1  0.32777550  0.99357704  -0.00405580  1
  Cr  Cr10  1  0.49168801  0.16024577  0.16263639  1
  Ni  Ni11  1  0.32718739  -0.00579373  0.32524403  1
  Ni  Ni12  1  0.32629540  0.33045496  0.99260788  1
  Cr  Cr13  1  0.49612803  0.49473176  0.15876352  1
  Cr  Cr14  1  0.32650377  0.32504440  0.32603828  1
  Ni  Ni15  1  0.33123310  0.65877847  0.99141787  1
  Ni  Ni16  1  0.49261763  0.82638476  0.15938912  1
  Cr  Cr17  1  0.32778616  0.66269864  0.32719341  1
  Cr  Cr18  1  0.66032082  0.99184550  0.99198389  1
  Cr  Cr19  1  0.82827149  0.16357023  0.16110346  1
  Cr  Cr20  1  0.65950458  -0.00559353  0.32832944  1
  Cr  Cr21  1  0.65987258  0.32895422  0.99329218  1
  Ni  Ni22  1  0.82629550  0.49293181  0.16224826  1
  Ni  Ni23  1  0.66534041  0.32785781  0.32854704  1
  Ni  Ni24  1  0.65617371  0.66063280  -0.00602022  1
  Cr  Cr25  1  0.82532771  0.82430730  0.15848708  1
  Cr  Cr26  1  0.66216272  0.65884006  0.32715290  1
  Cr  Cr27  1  0.15932498  0.16078798  0.49268975  1
  Cr  Cr28  1  0.99100230  -0.00404083  0.66050780  1
  Cr  Cr29  1  0.15895348  0.16327681  0.82722644  1
  Cr  Cr30  1  0.15762046  0.49288666  0.49508598  1
  Ni  Ni31  1  0.99202330  0.32698329  0.66026840  1
  Ni  Ni32  1  0.16370088  0.49283065  0.82787987  1
  Cr  Cr33  1  0.15984589  0.82787659  0.49324056  1
  Cr  Cr34  1  0.99379797  0.65844495  0.65841664  1
  Cr  Cr35  1  0.16171993  0.82486846  0.82715652  1
  Cr  Cr36  1  0.49510918  0.16081358  0.49177133  1
  Cr  Cr37  1  0.32829623  0.99298731  0.66010708  1
  Cr  Cr38  1  0.49491629  0.16167477  0.82715773  1
  Cr  Cr39  1  0.49628606  0.49240290  0.49332345  1
  Cr  Cr40  1  0.32593447  0.32951230  0.66325171  1
  Ni  Ni41  1  0.49083517  0.49672094  0.83006813  1
  Cr  Cr42  1  0.49390190  0.82832675  0.49300062  1
  Cr  Cr43  1  0.32780274  0.65907790  0.66293346  1
  Ni  Ni44  1  0.49368365  0.82329313  0.82928744  1
  Ni  Ni45  1  0.82820427  0.16332431  0.49350089  1
  Cr  Cr46  1  0.66223326  -0.00587853  0.66110857  1
  Ni  Ni47  1  0.82805629  0.16158733  0.82560939  1
  Ni  Ni48  1  0.82821827  0.49103683  0.49227595  1
  Cr  Cr49  1  0.66283437  0.32667449  0.65979127  1
  Cr  Cr50  1  0.82714708  0.49282171  0.82771811  1
  Ni  Ni51  1  0.82722174  0.82717016  0.49410432  1
  Cr  Cr52  1  0.65994143  0.66077261  0.65998235  1
  Cr  Cr53  1  0.82543207  0.82816190  0.82830786  1
" 