1726,Ni70Cr30_2,-211.620208379389, 145.096640462221,Ni70Cr30,"# generated using pymatgen
 data_Cr37Ni17
_symmetry_space_group_name_H-M   'P 1'
_cell_length_a   7.56229862
_cell_length_b   7.56229862
_cell_length_c   10.69470527
_cell_angle_alpha   90.00000000
_cell_angle_beta   90.00000000
_cell_angle_gamma   90.00000000
_symmetry_Int_Tables_number   1
_chemical_formula_structural   Cr37Ni17
_chemical_formula_sum   'Cr37 Ni17'
_cell_volume   611.61265917
_cell_formula_units_Z   1
loop_
 _symmetry_equiv_pos_site_id
 _symmetry_equiv_pos_as_xyz
  1  'x, y, z'
loop_
 _atom_site_type_symbol
 _atom_site_label
 _atom_site_symmetry_multiplicity
 _atom_site_fract_x
 _atom_site_fract_y
 _atom_site_fract_z
 _atom_site_occupancy
  Cr  Cr0  1  -0.00275601  -0.00592619  -0.00550124  1
  Ni  Ni1  1  0.16248900  0.16093124  0.16029220  1
  Cr  Cr2  1  -0.00395485  0.99291470  0.32580888  1
  Cr  Cr3  1  0.99246073  0.32842174  -0.00528588  1
  Ni  Ni4  1  0.16007833  0.49452375  0.16414278  1
  Cr  Cr5  1  -0.00389615  0.32796161  0.32265272  1
  Cr  Cr6  1  0.99358479  0.65894889  -0.00283942  1
  Ni  Ni7  1  0.16178350  0.82570969  0.16189119  1
  Ni  Ni8  1  -0.00246283  0.65944066  0.32270744  1
  Ni  Ni9  1  0.32694447  -0.00594379  -0.00349317  1
  Cr  Cr10  1  0.49474788  0.16046110  0.15848621  1
  Cr  Cr11  1  0.32743100  -0.00458618  0.32520883  1
  Cr  Cr12  1  0.32454603  0.32593267  -0.00335551  1
  Cr  Cr13  1  0.49312447  0.49221609  0.16063315  1
  Ni  Ni14  1  0.32698990  0.32912546  0.32701104  1
  Cr  Cr15  1  0.32446188  0.66244358  -0.00474905  1
  Cr  Cr16  1  0.49426472  0.82858755  0.15805077  1
  Ni  Ni17  1  0.32448312  0.65827651  0.32632522  1
  Ni  Ni18  1  0.66084500  -0.00356285  0.99283310  1
  Cr  Cr19  1  0.82479161  0.16049139  0.15962552  1
  Ni  Ni20  1  0.65835594  -0.00485890  0.32861395  1
  Ni  Ni21  1  0.66355175  0.32605916  0.99240922  1
  Ni  Ni22  1  0.82931586  0.49336955  0.16040091  1
  Cr  Cr23  1  0.65837324  0.32730873  0.32942601  1
  Cr  Cr24  1  0.66314296  0.65760211  0.99263466  1
  Cr  Cr25  1  0.82650678  0.82775054  0.16375820  1
  Cr  Cr26  1  0.66025438  0.65964609  0.32756579  1
  Cr  Cr27  1  0.15985822  0.16206061  0.49458571  1
  Ni  Ni28  1  0.99213037  -0.00544818  0.66180878  1
  Cr  Cr29  1  0.15920327  0.15967111  0.82644570  1
  Cr  Cr30  1  0.16239486  0.49469044  0.49258725  1
  Cr  Cr31  1  0.99118732  0.32504566  0.66388634  1
  Cr  Cr32  1  0.16086596  0.49432290  0.82418512  1
  Cr  Cr33  1  0.15890072  0.82470189  0.49591830  1
  Cr  Cr34  1  0.99153238  0.66019608  0.66230730  1
  Cr  Cr35  1  0.16159562  0.82678572  0.82427727  1
  Ni  Ni36  1  0.49313605  0.16267659  0.49026491  1
  Cr  Cr37  1  0.32733859  -0.00612586  0.66001384  1
  Cr  Cr38  1  0.49504262  0.16028086  0.83244654  1
  Ni  Ni39  1  0.49045622  0.49281911  0.49236483  1
  Cr  Cr40  1  0.32990340  0.32684925  0.65660618  1
  Cr  Cr41  1  0.49250758  0.49301783  0.82741836  1
  Cr  Cr42  1  0.49280772  0.82532726  0.49220195  1
  Ni  Ni43  1  0.32819660  0.65950414  0.65854983  1
  Cr  Cr44  1  0.49262286  0.82742755  0.83048220  1
  Cr  Cr45  1  0.82689202  0.15845296  0.49351464  1
  Cr  Cr46  1  0.65968050  -0.00480679  0.65799578  1
  Ni  Ni47  1  0.82531577  0.16117680  0.82807378  1
  Cr  Cr48  1  0.82941842  0.49433909  0.49165015  1
  Cr  Cr49  1  0.65995732  0.32767743  0.65980010  1
  Ni  Ni50  1  0.82586036  0.49005202  0.82911356  1
  Cr  Cr51  1  0.82882780  0.82819329  0.49097415  1
  Cr  Cr52  1  0.65816174  0.65799646  0.66083497  1
  Cr  Cr53  1  0.82666947  0.82979210  0.82636019  1
" 