7446,Ni70Fe20Cr8_7,-238.436259937639, 198.1581578338,Ni70Fe20Cr8,"# generated using pymatgen
 data_Cr5Fe11Ni38
_symmetry_space_group_name_H-M   'P 1'
_cell_length_a   7.43218999
_cell_length_b   7.43218999
_cell_length_c   10.51070388
_cell_angle_alpha   90.00000000
_cell_angle_beta   90.00000000
_cell_angle_gamma   90.00000000
_symmetry_Int_Tables_number   1
_chemical_formula_structural   Cr5Fe11Ni38
_chemical_formula_sum   'Cr5 Fe11 Ni38'
_cell_volume   580.58445983
_cell_formula_units_Z   1
loop_
 _symmetry_equiv_pos_site_id
 _symmetry_equiv_pos_as_xyz
  1  'x, y, z'
loop_
 _atom_site_type_symbol
 _atom_site_label
 _atom_site_symmetry_multiplicity
 _atom_site_fract_x
 _atom_site_fract_y
 _atom_site_fract_z
 _atom_site_occupancy
  Ni  Ni0  1  0.00394936  0.00454437  0.00249173  1
  Ni  Ni1  1  0.16917802  0.16881222  0.16892245  1
  Fe  Fe2  1  0.00390583  0.00430075  0.33596252  1
  Ni  Ni3  1  1.00200500  0.33504692  1.00222240  1
  Ni  Ni4  1  0.16963236  0.50257678  0.16921923  1
  Ni  Ni5  1  0.00249092  0.33627661  0.33630697  1
  Fe  Fe6  1  0.00414346  0.66723295  1.00228563  1
  Ni  Ni7  1  0.17091278  0.83564564  0.16868950  1
  Ni  Ni8  1  0.00373387  0.66760906  0.33689428  1
  Ni  Ni9  1  0.33519945  1.00179048  1.00151950  1
  Ni  Ni10  1  0.50271843  0.16931362  0.16913555  1
  Ni  Ni11  1  0.33569104  0.00307863  0.33630725  1
  Ni  Ni12  1  0.33496053  0.33561415  0.00281496  1
  Ni  Ni13  1  0.50169129  0.50150264  0.16823014  1
  Ni  Ni14  1  0.33428325  0.33326018  0.33473558  1
  Ni  Ni15  1  0.33648421  0.66963066  0.00274301  1
  Ni  Ni16  1  0.49991338  0.83622001  0.16754035  1
  Fe  Fe17  1  0.33286690  0.66920593  0.33479157  1
  Ni  Ni18  1  0.66788420  0.00302217  0.00306588  1
  Ni  Ni19  1  0.83513859  0.17059504  0.16870274  1
  Fe  Fe20  1  0.66772617  0.00586813  0.33670139  1
  Ni  Ni21  1  0.67006938  0.33632871  1.00204025  1
  Ni  Ni22  1  0.83571201  0.49977434  0.16758735  1
  Ni  Ni23  1  0.67026069  0.33370096  0.33540880  1
  Ni  Ni24  1  0.66731843  0.66768513  1.00196992  1
  Cr  Cr25  1  0.83659787  0.83695676  0.16783194  1
  Cr  Cr26  1  0.66977127  0.66880056  0.33608928  1
  Ni  Ni27  1  0.16865859  0.16829634  0.50239694  1
  Fe  Fe28  1  0.00374943  0.00280802  0.66890015  1
  Ni  Ni29  1  0.16883973  0.16850795  0.83571569  1
  Ni  Ni30  1  0.16718789  0.50346241  0.50270214  1
  Fe  Fe31  1  0.00252287  0.33635976  0.66901596  1
  Ni  Ni32  1  0.17019563  0.50281471  0.83511453  1
  Ni  Ni33  1  0.16921805  0.83527487  0.50252742  1
  Ni  Ni34  1  0.00453198  0.66794645  0.66798900  1
  Ni  Ni35  1  0.17057668  0.83570995  0.83581582  1
  Ni  Ni36  1  0.50337163  0.16686990  0.50265197  1
  Fe  Fe37  1  0.33545801  1.00150671  0.66829653  1
  Fe  Fe38  1  0.50212832  0.16987370  0.83589930  1
  Cr  Cr39  1  0.50053922  0.50078006  0.50162827  1
  Ni  Ni40  1  0.33393643  0.33475786  0.66948497  1
  Ni  Ni41  1  0.50159759  0.50174375  0.83660413  1
  Ni  Ni42  1  0.50057235  0.83893962  0.50278137  1
  Ni  Ni43  1  0.33276877  0.66936235  0.66881425  1
  Fe  Fe44  1  0.49995746  0.83581002  0.83675156  1
  Ni  Ni45  1  0.83500512  0.16889872  0.50238454  1
  Ni  Ni46  1  0.66838646  0.00415343  0.66714525  1
  Ni  Ni47  1  0.83542481  0.17014462  0.83594878  1
  Ni  Ni48  1  0.83866788  0.50066405  0.50273574  1
  Fe  Fe49  1  0.66978079  0.33405675  0.66965258  1
  Ni  Ni50  1  0.83524278  0.50001155  0.83671356  1
  Fe  Fe51  1  0.83756746  0.83713346  0.50275981  1
  Cr  Cr52  1  0.66970412  0.66959087  0.66877898  1
  Cr  Cr53  1  0.83680363  0.83676105  0.83721293  1
" 