1050,Ni70Fe30_19,-236.546640932304, 201.018312543055,Ni70Fe30,"# generated using pymatgen
 data_Fe37Ni17
_symmetry_space_group_name_H-M   'P 1'
_cell_length_a   7.39745459
_cell_length_b   7.39745459
_cell_length_c   10.46158061
_cell_angle_alpha   90.00000000
_cell_angle_beta   90.00000000
_cell_angle_gamma   90.00000000
_symmetry_Int_Tables_number   1
_chemical_formula_structural   Fe37Ni17
_chemical_formula_sum   'Fe37 Ni17'
_cell_volume   572.48211348
_cell_formula_units_Z   1
loop_
 _symmetry_equiv_pos_site_id
 _symmetry_equiv_pos_as_xyz
  1  'x, y, z'
loop_
 _atom_site_type_symbol
 _atom_site_label
 _atom_site_symmetry_multiplicity
 _atom_site_fract_x
 _atom_site_fract_y
 _atom_site_fract_z
 _atom_site_occupancy
  Fe  Fe0  1  1.00443227  0.00486703  1.00453820  1
  Fe  Fe1  1  0.17255655  0.17203103  0.17150920  1
  Fe  Fe2  1  1.00420942  1.00456649  0.33851726  1
  Fe  Fe3  1  1.00393322  0.33872350  1.00467494  1
  Fe  Fe4  1  0.17255207  0.50501799  0.17141679  1
  Fe  Fe5  1  1.00403913  0.33861148  0.33789839  1
  Ni  Ni6  1  0.00529677  0.67217360  0.00471998  1
  Fe  Fe7  1  0.17225387  0.83706606  0.17111586  1
  Fe  Fe8  1  1.00381256  0.67093645  0.33751396  1
  Fe  Fe9  1  0.33846631  1.00438666  0.00475962  1
  Ni  Ni10  1  0.50411073  0.17136675  0.17149500  1
  Fe  Fe11  1  0.33973205  0.00470489  0.33733433  1
  Fe  Fe12  1  0.33815875  0.33839024  0.00489488  1
  Ni  Ni13  1  0.50542054  0.50451409  0.17076711  1
  Ni  Ni14  1  0.33803191  0.33873514  0.33681034  1
  Fe  Fe15  1  0.33854772  0.67133528  0.00527886  1
  Ni  Ni16  1  0.50449651  0.83822591  0.17238714  1
  Ni  Ni17  1  0.33763599  0.67036923  0.33793890  1
  Fe  Fe18  1  0.67120639  1.00447581  1.00467579  1
  Fe  Fe19  1  0.83585440  0.17205345  0.17142299  1
  Ni  Ni20  1  0.67218570  1.00461001  0.33732649  1
  Ni  Ni21  1  0.67063552  0.33733235  1.00420389  1
  Ni  Ni22  1  0.83814485  0.50450281  0.17218082  1
  Ni  Ni23  1  0.67047693  0.33745364  0.33894795  1
  Fe  Fe24  1  0.67154310  0.67083497  0.00490172  1
  Fe  Fe25  1  0.83657926  0.83744428  0.17210971  1
  Ni  Ni26  1  0.67127140  0.67204640  0.33693180  1
  Fe  Fe27  1  0.17166322  0.17191272  0.50495763  1
  Fe  Fe28  1  1.00412065  1.00465225  0.67105677  1
  Fe  Fe29  1  0.17211664  0.17107169  0.83764151  1
  Fe  Fe30  1  0.17197789  0.50490989  0.50473814  1
  Fe  Fe31  1  1.00426700  0.33787147  0.67154524  1
  Fe  Fe32  1  0.17180866  0.50523378  0.83795276  1
  Fe  Fe33  1  0.17133322  0.83728683  0.50447488  1
  Fe  Fe34  1  1.00403078  0.67159054  0.67184102  1
  Fe  Fe35  1  0.17151547  0.83781027  0.83852071  1
  Fe  Fe36  1  0.50535886  0.17160581  0.50413407  1
  Fe  Fe37  1  0.33907592  1.00449749  0.67201948  1
  Fe  Fe38  1  0.50484275  0.17105602  0.83833091  1
  Ni  Ni39  1  0.50450867  0.50431142  0.50480501  1
  Ni  Ni40  1  0.33714108  0.33794619  0.67208238  1
  Fe  Fe41  1  0.50475970  0.50484829  0.83755030  1
  Fe  Fe42  1  0.50594039  0.83735424  0.50472734  1
  Fe  Fe43  1  0.33947217  0.67143550  0.67101427  1
  Ni  Ni44  1  0.50471206  0.83811740  0.83714897  1
  Fe  Fe45  1  0.83708555  0.17095603  0.50465496  1
  Ni  Ni46  1  0.67206913  1.00362735  0.67195545  1
  Fe  Fe47  1  0.83714609  0.17076253  0.83803567  1
  Fe  Fe48  1  0.83714911  0.50548437  0.50412712  1
  Fe  Fe49  1  0.67076620  0.33826915  0.67140308  1
  Fe  Fe50  1  0.83754177  0.50545665  0.83904734  1
  Ni  Ni51  1  0.83840408  0.83833282  0.50496801  1
  Ni  Ni52  1  0.67208013  0.67293603  0.67196178  1
  Fe  Fe53  1  0.83753669  0.83789555  0.83704113  1
" 