7796,Ni70Fe30_14,-236.568277915598, 202.570850692112,Ni70Fe30,"# generated using pymatgen
 data_Fe37Ni17
_symmetry_space_group_name_H-M   'P 1'
_cell_length_a   7.39875756
_cell_length_b   7.39875756
_cell_length_c   10.46342329
_cell_angle_alpha   90.00000000
_cell_angle_beta   90.00000000
_cell_angle_gamma   90.00000000
_symmetry_Int_Tables_number   1
_chemical_formula_structural   Fe37Ni17
_chemical_formula_sum   'Fe37 Ni17'
_cell_volume   572.78467381
_cell_formula_units_Z   1
loop_
 _symmetry_equiv_pos_site_id
 _symmetry_equiv_pos_as_xyz
  1  'x, y, z'
loop_
 _atom_site_type_symbol
 _atom_site_label
 _atom_site_symmetry_multiplicity
 _atom_site_fract_x
 _atom_site_fract_y
 _atom_site_fract_z
 _atom_site_occupancy
  Fe  Fe0  1  0.00588142  0.00641987  0.00599378  1
  Ni  Ni1  1  0.17077049  0.17178045  0.17217832  1
  Ni  Ni2  1  1.00408355  1.00215095  0.33772442  1
  Ni  Ni3  1  0.00567556  0.33754189  1.00446647  1
  Ni  Ni4  1  0.17147473  0.50218539  0.17176988  1
  Fe  Fe5  1  1.00364903  0.33588920  0.33711703  1
  Fe  Fe6  1  0.00500798  0.66978395  0.00490753  1
  Fe  Fe7  1  0.17195562  0.83687449  0.17166447  1
  Fe  Fe8  1  1.00382297  0.66996983  0.33730386  1
  Fe  Fe9  1  0.33711098  0.00643593  1.00454118  1
  Fe  Fe10  1  0.50367717  0.17184858  0.17087022  1
  Fe  Fe11  1  0.33922390  0.00594321  0.33772286  1
  Ni  Ni12  1  0.33769491  0.33825089  1.00425612  1
  Ni  Ni13  1  0.50425668  0.50534751  0.17068749  1
  Ni  Ni14  1  0.33906538  0.33987197  0.33780890  1
  Fe  Fe15  1  0.33759334  0.67040656  0.00587989  1
  Ni  Ni16  1  0.50641949  0.83787264  0.17145268  1
  Fe  Fe17  1  0.33980803  0.67164899  0.33761182  1
  Fe  Fe18  1  0.67066199  0.00603887  0.00549381  1
  Fe  Fe19  1  0.83744381  0.17147806  0.17224475  1
  Ni  Ni20  1  0.67183870  1.00398717  0.33806039  1
  Fe  Fe21  1  0.67121963  0.33829180  1.00437881  1
  Fe  Fe22  1  0.83785917  0.50463038  0.17011243  1
  Ni  Ni23  1  0.66904787  0.33848119  0.33725553  1
  Fe  Fe24  1  0.67135811  0.66981558  0.00472640  1
  Ni  Ni25  1  0.83714563  0.83788782  0.17113081  1
  Fe  Fe26  1  0.67040763  0.67072262  0.33779240  1
  Fe  Fe27  1  0.17311491  0.17171770  0.50408969  1
  Fe  Fe28  1  0.00571010  0.00572341  0.67010788  1
  Ni  Ni29  1  0.17128656  0.17104751  0.83724519  1
  Fe  Fe30  1  0.17338255  0.50478051  0.50379117  1
  Fe  Fe31  1  0.00509292  0.33812271  0.67265685  1
  Fe  Fe32  1  0.17159719  0.50282900  0.83887852  1
  Fe  Fe33  1  0.17236881  0.83729939  0.50455868  1
  Fe  Fe34  1  0.00510047  0.67014512  0.67177420  1
  Fe  Fe35  1  0.17100615  0.83825893  0.83752748  1
  Fe  Fe36  1  0.50462959  0.17230318  0.50497713  1
  Fe  Fe37  1  0.33827617  0.00518662  0.67156474  1
  Ni  Ni38  1  0.50330522  0.17093530  0.83765564  1
  Ni  Ni39  1  0.50506802  0.50535810  0.50524967  1
  Ni  Ni40  1  0.33788454  0.33902126  0.67177489  1
  Fe  Fe41  1  0.50426455  0.50255264  0.83784808  1
  Ni  Ni42  1  0.50535900  0.83790202  0.50464347  1
  Fe  Fe43  1  0.33848668  0.67123240  0.67058162  1
  Fe  Fe44  1  0.50479073  0.83841232  0.83812768  1
  Fe  Fe45  1  0.83611333  0.17111110  0.50326029  1
  Fe  Fe46  1  0.66984217  0.00525558  0.67062222  1
  Fe  Fe47  1  0.83768581  0.17245812  0.83816415  1
  Fe  Fe48  1  0.83645437  0.50469170  0.50553318  1
  Fe  Fe49  1  0.67071106  0.33830868  0.67114141  1
  Ni  Ni50  1  0.83797906  0.50554817  0.83801114  1
  Fe  Fe51  1  0.83701198  0.83743215  0.50372723  1
  Fe  Fe52  1  0.67046841  0.67047489  0.67170372  1
  Fe  Fe53  1  0.83806413  0.83954390  0.83884004  1
" 