186,Ni70Fe27Cr1_2,-241.416885143157, 212.454486279906,Ni70Fe27Cr1,"# generated using pymatgen
 data_Cr2Fe15Ni37
_symmetry_space_group_name_H-M   'P 1'
_cell_length_a   7.42199283
_cell_length_b   7.42199283
_cell_length_c   10.49628292
_cell_angle_alpha   90.00000000
_cell_angle_beta   90.00000000
_cell_angle_gamma   90.00000000
_symmetry_Int_Tables_number   1
_chemical_formula_structural   Cr2Fe15Ni37
_chemical_formula_sum   'Cr2 Fe15 Ni37'
_cell_volume   578.19800542
_cell_formula_units_Z   1
loop_
 _symmetry_equiv_pos_site_id
 _symmetry_equiv_pos_as_xyz
  1  'x, y, z'
loop_
 _atom_site_type_symbol
 _atom_site_label
 _atom_site_symmetry_multiplicity
 _atom_site_fract_x
 _atom_site_fract_y
 _atom_site_fract_z
 _atom_site_occupancy
  Ni  Ni0  1  0.00362215  1.00270609  1.00303444  1
  Ni  Ni1  1  0.16859934  0.16965224  0.16858358  1
  Fe  Fe2  1  0.00368396  0.00369865  0.33698083  1
  Ni  Ni3  1  1.00251059  0.33618641  1.00241351  1
  Fe  Fe4  1  0.17070410  0.50343884  0.16912593  1
  Ni  Ni5  1  0.00312123  0.33701824  0.33655239  1
  Ni  Ni6  1  1.00285590  0.67033812  0.00345396  1
  Ni  Ni7  1  0.16903921  0.83723130  0.17000738  1
  Ni  Ni8  1  0.00322024  0.66972623  0.33618282  1
  Ni  Ni9  1  0.33418027  1.00288070  1.00244431  1
  Fe  Fe10  1  0.50117099  0.17025244  0.16975130  1
  Ni  Ni11  1  0.33645855  0.00376749  0.33759799  1
  Ni  Ni12  1  0.33577302  0.33661457  0.00414818  1
  Ni  Ni13  1  0.50478361  0.50260123  0.16966050  1
  Ni  Ni14  1  0.33602541  0.33571403  0.33635056  1
  Ni  Ni15  1  0.33574147  0.66966097  1.00241647  1
  Cr  Cr16  1  0.50220781  0.83431211  0.16894206  1
  Ni  Ni17  1  0.33525050  0.66948324  0.33684364  1
  Fe  Fe18  1  0.67160233  1.00287587  1.00281349  1
  Fe  Fe19  1  0.83661668  0.16987223  0.16967303  1
  Ni  Ni20  1  0.66983283  0.00372594  0.33658724  1
  Ni  Ni21  1  0.67090265  0.33747356  0.00459580  1
  Fe  Fe22  1  0.83712672  0.50367982  0.17038317  1
  Ni  Ni23  1  0.66989241  0.33569774  0.33616504  1
  Ni  Ni24  1  0.67103598  0.66862590  1.00094636  1
  Fe  Fe25  1  0.83753913  0.83562036  0.17034302  1
  Ni  Ni26  1  0.67072214  0.66951893  0.33785305  1
  Ni  Ni27  1  0.16904937  0.17006929  0.50436360  1
  Ni  Ni28  1  1.00272368  1.00253044  0.66896351  1
  Ni  Ni29  1  0.16793527  0.16982113  0.83607390  1
  Fe  Fe30  1  0.16778953  0.50369894  0.50367640  1
  Ni  Ni31  1  1.00255479  0.33646312  0.67042727  1
  Ni  Ni32  1  0.16955622  0.50336440  0.83715394  1
  Ni  Ni33  1  0.17024506  0.83678733  0.50239812  1
  Ni  Ni34  1  0.00350115  0.67024939  0.66962376  1
  Ni  Ni35  1  0.16994947  0.83588762  0.83671727  1
  Fe  Fe36  1  0.50367683  0.16834906  0.50343771  1
  Ni  Ni37  1  0.33568242  1.00200880  0.66914113  1
  Cr  Cr38  1  0.50268981  0.17021358  0.83716183  1
  Fe  Fe39  1  0.50268462  0.50295012  0.50198967  1
  Ni  Ni40  1  0.33585805  0.33712881  0.66886911  1
  Fe  Fe41  1  0.50170635  0.50287647  0.83708560  1
  Ni  Ni42  1  0.50290138  0.83525786  0.50346562  1
  Ni  Ni43  1  0.33567707  0.67000429  0.66983001  1
  Fe  Fe44  1  0.50174549  0.83585465  0.83580549  1
  Ni  Ni45  1  0.83709256  0.17082709  0.50289254  1
  Ni  Ni46  1  0.67089068  1.00293885  0.66940058  1
  Ni  Ni47  1  0.83723207  0.17063136  0.83650744  1
  Ni  Ni48  1  0.83560098  0.50240836  0.50318544  1
  Ni  Ni49  1  0.67054980  0.33624615  0.66855259  1
  Fe  Fe50  1  0.83801502  0.50207161  0.83596081  1
  Ni  Ni51  1  0.83603502  0.83588890  0.50245912  1
  Fe  Fe52  1  0.66982529  0.66966100  0.66911320  1
  Fe  Fe53  1  0.83851478  0.83734007  0.83579625  1
" 