3110,Ni70Fe28Cr1_8,-242.135960930772, 215.637033469288,Ni70Fe28Cr1,"# generated using pymatgen
 data_CrFe15Ni38
_symmetry_space_group_name_H-M   'P 1'
_cell_length_a   7.41340259
_cell_length_b   7.41340259
_cell_length_c   10.48413449
_cell_angle_alpha   90.00000000
_cell_angle_beta   90.00000000
_cell_angle_gamma   90.00000000
_symmetry_Int_Tables_number   1
_chemical_formula_structural   CrFe15Ni38
_chemical_formula_sum   'Cr1 Fe15 Ni38'
_cell_volume   576.19270318
_cell_formula_units_Z   1
loop_
 _symmetry_equiv_pos_site_id
 _symmetry_equiv_pos_as_xyz
  1  'x, y, z'
loop_
 _atom_site_type_symbol
 _atom_site_label
 _atom_site_symmetry_multiplicity
 _atom_site_fract_x
 _atom_site_fract_y
 _atom_site_fract_z
 _atom_site_occupancy
  Ni  Ni0  1  1.00345967  0.00377381  1.00353320  1
  Ni  Ni1  1  0.16913935  0.17185724  0.17066045  1
  Fe  Fe2  1  0.00439865  1.00248245  0.33605023  1
  Ni  Ni3  1  0.00427621  0.33660798  0.00382603  1
  Ni  Ni4  1  0.17113906  0.50216800  0.17065816  1
  Fe  Fe5  1  0.00466527  0.33793936  0.33596467  1
  Fe  Fe6  1  1.00264102  0.66984812  0.00361912  1
  Fe  Fe7  1  0.17022518  0.83689109  0.17125427  1
  Ni  Ni8  1  0.00372565  0.67043065  0.33680749  1
  Fe  Fe9  1  0.33753526  0.00480359  1.00335100  1
  Fe  Fe10  1  0.50390478  0.17055430  0.17063286  1
  Ni  Ni11  1  0.33715134  0.00383734  0.33682523  1
  Ni  Ni12  1  0.33664564  0.33739265  1.00312016  1
  Ni  Ni13  1  0.50276683  0.50453223  0.17044083  1
  Ni  Ni14  1  0.33713365  0.33658408  0.33780798  1
  Fe  Fe15  1  0.33790406  0.66926868  1.00355528  1
  Ni  Ni16  1  0.50514982  0.83578878  0.17026622  1
  Ni  Ni17  1  0.33614286  0.67043435  0.33658663  1
  Ni  Ni18  1  0.67071785  1.00327091  0.00361956  1
  Ni  Ni19  1  0.83798749  0.16947496  0.16999959  1
  Ni  Ni20  1  0.66917914  1.00302803  0.33605342  1
  Ni  Ni21  1  0.66993003  0.33707817  0.00391218  1
  Fe  Fe22  1  0.83659564  0.50353714  0.17086518  1
  Ni  Ni23  1  0.66918444  0.33737925  0.33532600  1
  Ni  Ni24  1  0.66993334  0.67050518  1.00342715  1
  Ni  Ni25  1  0.83562344  0.83779110  0.17126014  1
  Ni  Ni26  1  0.67098566  0.67044725  0.33782544  1
  Ni  Ni27  1  0.17205573  0.17057770  0.50370646  1
  Ni  Ni28  1  0.00460934  1.00256305  0.67068476  1
  Ni  Ni29  1  0.16998393  0.17176841  0.83648871  1
  Fe  Fe30  1  0.16994440  0.50447664  0.50361715  1
  Ni  Ni31  1  0.00387949  0.33804888  0.67106258  1
  Ni  Ni32  1  0.17052674  0.50210776  0.83657998  1
  Ni  Ni33  1  0.17044763  0.83702057  0.50363265  1
  Ni  Ni34  1  0.00452968  0.67024328  0.67064701  1
  Fe  Fe35  1  0.17101442  0.83703692  0.83571494  1
  Ni  Ni36  1  0.50143197  0.16999185  0.50312083  1
  Ni  Ni37  1  0.33706195  1.00293446  0.67042691  1
  Ni  Ni38  1  0.50319780  0.17044566  0.83740510  1
  Fe  Fe39  1  0.50389661  0.50375555  0.50308133  1
  Fe  Fe40  1  0.33639564  0.33601407  0.67085942  1
  Ni  Ni41  1  0.50295351  0.50372730  0.83661134  1
  Ni  Ni42  1  0.50386914  0.83676562  0.50381904  1
  Ni  Ni43  1  0.33602650  0.67098433  0.67013771  1
  Ni  Ni44  1  0.50531565  0.83668181  0.83676884  1
  Cr  Cr45  1  0.83744102  0.16972005  0.50401257  1
  Ni  Ni46  1  0.66918454  1.00358581  0.67118276  1
  Fe  Fe47  1  0.83645691  0.17036127  0.83733581  1
  Ni  Ni48  1  0.83712046  0.50569862  0.50332709  1
  Ni  Ni49  1  0.66992544  0.33701373  0.67161497  1
  Fe  Fe50  1  0.83651467  0.50310012  0.83631321  1
  Ni  Ni51  1  0.83653828  0.83468795  0.50339850  1
  Fe  Fe52  1  0.67086484  0.67113710  0.67038271  1
  Ni  Ni53  1  0.83605035  0.83722279  0.83619714  1
" 