8705,Ni70Fe9Cr20_17,-232.023786292696, 170.152828864561,Ni70Fe9Cr20,"# generated using pymatgen
 data_Cr6Fe2Ni19
_symmetry_space_group_name_H-M   'P 1'
_cell_length_a   7.46169760
_cell_length_b   7.46169760
_cell_length_c   10.55243394
_cell_angle_alpha   90.00000000
_cell_angle_beta   90.00000000
_cell_angle_gamma   90.00000000
_symmetry_Int_Tables_number   1
_chemical_formula_structural   Cr6Fe2Ni19
_chemical_formula_sum   'Cr12 Fe4 Ni38'
_cell_volume   587.52713660
_cell_formula_units_Z   2
loop_
 _symmetry_equiv_pos_site_id
 _symmetry_equiv_pos_as_xyz
  1  'x, y, z'
loop_
 _atom_site_type_symbol
 _atom_site_label
 _atom_site_symmetry_multiplicity
 _atom_site_fract_x
 _atom_site_fract_y
 _atom_site_fract_z
 _atom_site_occupancy
  Ni  Ni0  1  1.00032654  0.99861403  0.99895581  1
  Ni  Ni1  1  0.16848504  0.16528553  0.16589873  1
  Cr  Cr2  1  0.99963211  0.00218075  0.33368985  1
  Cr  Cr3  1  0.00157012  0.33047228  0.00243969  1
  Ni  Ni4  1  0.16803956  0.50195507  0.16834897  1
  Ni  Ni5  1  0.99990381  0.33314381  0.33409373  1
  Ni  Ni6  1  0.99918140  0.67232298  0.00156949  1
  Ni  Ni7  1  0.16712862  0.83389873  0.16683207  1
  Ni  Ni8  1  0.99826287  0.66688053  0.33268780  1
  Ni  Ni9  1  0.33364108  0.00214111  0.00060604  1
  Ni  Ni10  1  0.50040687  0.16484751  0.16490469  1
  Ni  Ni11  1  0.33600341  0.99927782  0.33281002  1
  Ni  Ni12  1  0.33680848  0.33113655  0.00132079  1
  Ni  Ni13  1  0.49966492  0.50089624  0.16552378  1
  Cr  Cr14  1  0.33343569  0.33196863  0.33205207  1
  Cr  Cr15  1  0.33537744  0.66844351  0.00070973  1
  Ni  Ni16  1  0.50103792  0.83530502  0.16809733  1
  Ni  Ni17  1  0.33704340  0.66904067  0.33299306  1
  Ni  Ni18  1  0.66716515  0.99981708  0.00112003  1
  Ni  Ni19  1  0.83203828  0.16413232  0.16554967  1
  Fe  Fe20  1  0.66588636  0.99853765  0.33364563  1
  Ni  Ni21  1  0.66299317  0.33212676  0.99910658  1
  Cr  Cr22  1  0.83316294  0.50204488  0.16617752  1
  Cr  Cr23  1  0.66802009  0.33378978  0.33545733  1
  Ni  Ni24  1  0.66649863  0.66909815  0.00037805  1
  Ni  Ni25  1  0.83287366  0.83458558  0.16585143  1
  Ni  Ni26  1  0.66583844  0.66913723  0.33452051  1
  Ni  Ni27  1  0.16763001  0.16672545  0.50060374  1
  Ni  Ni28  1  0.99763891  0.99930494  0.66851894  1
  Ni  Ni29  1  0.16884668  0.16370867  0.83462080  1
  Cr  Cr30  1  0.16702670  0.50165435  0.49973984  1
  Cr  Cr31  1  1.00002060  0.32986762  0.66489301  1
  Cr  Cr32  1  0.16920608  0.50171898  0.83295735  1
  Cr  Cr33  1  0.16714593  0.83372706  0.50050877  1
  Ni  Ni34  1  0.99611502  0.67041437  0.66687691  1
  Ni  Ni35  1  0.16406941  0.83588305  0.83371282  1
  Ni  Ni36  1  0.50144337  0.16575066  0.50109986  1
  Cr  Cr37  1  0.33433471  0.00220499  0.66797562  1
  Ni  Ni38  1  0.50142505  0.16817007  0.83487214  1
  Ni  Ni39  1  0.50222166  0.50166527  0.50309466  1
  Ni  Ni40  1  0.33728657  0.33300459  0.66705514  1
  Ni  Ni41  1  0.50119217  0.49829108  0.83236652  1
  Ni  Ni42  1  0.50335069  0.83355491  0.49929084  1
  Fe  Fe43  1  0.33637329  0.66778257  0.66747624  1
  Fe  Fe44  1  0.50305812  0.83529012  0.83405255  1
  Ni  Ni45  1  0.83199992  0.16550485  0.50176932  1
  Ni  Ni46  1  0.66837205  0.99844581  0.66584360  1
  Ni  Ni47  1  0.83073421  0.16214125  0.83375300  1
  Ni  Ni48  1  0.83187010  0.50241899  0.50044760  1
  Fe  Fe49  1  0.66560515  0.33189285  0.66665305  1
  Cr  Cr50  1  0.83009241  0.50230500  0.83461631  1
  Ni  Ni51  1  0.83119931  0.83288229  0.50123668  1
  Ni  Ni52  1  0.66641131  0.66825668  0.66617341  1
  Ni  Ni53  1  0.83426349  0.83571222  0.83380982  1
" 