2131,Ni70Fe27Cr1_0,-240.868196004012, 211.812181180855,Ni70Fe27Cr1,"# generated using pymatgen
 data_Cr2Fe15Ni37
_symmetry_space_group_name_H-M   'P 1'
_cell_length_a   7.41508611
_cell_length_b   7.41508611
_cell_length_c   10.48651534
_cell_angle_alpha   90.00000000
_cell_angle_beta   90.00000000
_cell_angle_gamma   90.00000000
_symmetry_Int_Tables_number   1
_chemical_formula_structural   Cr2Fe15Ni37
_chemical_formula_sum   'Cr2 Fe15 Ni37'
_cell_volume   576.58533638
_cell_formula_units_Z   1
loop_
 _symmetry_equiv_pos_site_id
 _symmetry_equiv_pos_as_xyz
  1  'x, y, z'
loop_
 _atom_site_type_symbol
 _atom_site_label
 _atom_site_symmetry_multiplicity
 _atom_site_fract_x
 _atom_site_fract_y
 _atom_site_fract_z
 _atom_site_occupancy
  Ni  Ni0  1  0.00574319  0.00459845  1.00215121  1
  Ni  Ni1  1  0.17102231  0.17112096  0.16994237  1
  Ni  Ni2  1  0.00422782  0.00401393  0.33801930  1
  Fe  Fe3  1  0.00377637  0.33625170  0.00357500  1
  Ni  Ni4  1  0.16988914  0.50314132  0.16979395  1
  Fe  Fe5  1  0.00391045  0.33753766  0.33730621  1
  Fe  Fe6  1  0.00429671  0.66924877  1.00293395  1
  Fe  Fe7  1  0.17184675  0.83765875  0.17031197  1
  Ni  Ni8  1  0.00365069  0.67012149  0.33740993  1
  Ni  Ni9  1  0.33424004  0.00373621  0.00356054  1
  Ni  Ni10  1  0.50163842  0.16977194  0.17074070  1
  Ni  Ni11  1  0.33602177  0.00391801  0.33617412  1
  Ni  Ni12  1  0.33751354  0.33718210  0.00364745  1
  Fe  Fe13  1  0.50386362  0.50271684  0.16938440  1
  Ni  Ni14  1  0.33798963  0.33665431  0.33679581  1
  Ni  Ni15  1  0.33720361  0.66959318  0.00428402  1
  Ni  Ni16  1  0.50131169  0.83613686  0.16995724  1
  Ni  Ni17  1  0.33687742  0.66993782  0.33642567  1
  Cr  Cr18  1  0.67022271  0.00543400  0.00379444  1
  Ni  Ni19  1  0.83785275  0.17269169  0.17082187  1
  Fe  Fe20  1  0.66826204  0.00415223  0.33806978  1
  Ni  Ni21  1  0.67023293  0.33898596  1.00339899  1
  Ni  Ni22  1  0.83774093  0.50281515  0.16910147  1
  Ni  Ni23  1  0.67007940  0.33723173  0.33638961  1
  Ni  Ni24  1  0.66936848  0.66661796  1.00252125  1
  Cr  Cr25  1  0.83585345  0.83542250  0.17199306  1
  Ni  Ni26  1  0.66998417  0.66815280  0.33759088  1
  Ni  Ni27  1  0.17047180  0.17105756  0.50374944  1
  Ni  Ni28  1  1.00225964  0.00377733  0.67034222  1
  Ni  Ni29  1  0.17053823  0.17006980  0.83681988  1
  Ni  Ni30  1  0.16931006  0.50352742  0.50412945  1
  Ni  Ni31  1  1.00336734  0.33667610  0.66985470  1
  Fe  Fe32  1  0.17076196  0.50267036  0.83622538  1
  Fe  Fe33  1  0.17006236  0.83726298  0.50348342  1
  Ni  Ni34  1  1.00334281  0.67005809  0.67034027  1
  Fe  Fe35  1  0.17019823  0.83805974  0.83671646  1
  Ni  Ni36  1  0.50278669  0.16842644  0.50396805  1
  Ni  Ni37  1  0.33731799  0.00410160  0.67077663  1
  Ni  Ni38  1  0.50174720  0.17114259  0.83580357  1
  Fe  Fe39  1  0.50309429  0.50251448  0.50359464  1
  Ni  Ni40  1  0.33686324  0.33700503  0.67006661  1
  Ni  Ni41  1  0.50293782  0.50408475  0.83696647  1
  Ni  Ni42  1  0.50368938  0.83709298  0.50417644  1
  Ni  Ni43  1  0.33656156  0.66940464  0.66979949  1
  Fe  Fe44  1  0.50279671  0.83681712  0.83606033  1
  Ni  Ni45  1  0.83725166  0.17015355  0.50341466  1
  Ni  Ni46  1  0.67093431  0.00407764  0.66983531  1
  Ni  Ni47  1  0.83822711  0.16952308  0.83627656  1
  Ni  Ni48  1  0.83841903  0.50442893  0.50391101  1
  Fe  Fe49  1  0.67030401  0.33579678  0.67026301  1
  Fe  Fe50  1  0.83614000  0.50267954  0.83695346  1
  Fe  Fe51  1  0.83739270  0.83726190  0.50393270  1
  Fe  Fe52  1  0.67023416  0.67087244  0.67033207  1
  Ni  Ni53  1  0.83757321  0.83581635  0.83531609  1
" 