331,Ni70Fe9Cr20_14,-231.765245097474, 165.273199745628,Ni70Fe9Cr20,"# generated using pymatgen
 data_Cr6Fe2Ni19
_symmetry_space_group_name_H-M   'P 1'
_cell_length_a   7.46451712
_cell_length_b   7.46451712
_cell_length_c   10.55642134
_cell_angle_alpha   90.00000000
_cell_angle_beta   90.00000000
_cell_angle_gamma   90.00000000
_symmetry_Int_Tables_number   1
_chemical_formula_structural   Cr6Fe2Ni19
_chemical_formula_sum   'Cr12 Fe4 Ni38'
_cell_volume   588.19340756
_cell_formula_units_Z   2
loop_
 _symmetry_equiv_pos_site_id
 _symmetry_equiv_pos_as_xyz
  1  'x, y, z'
loop_
 _atom_site_type_symbol
 _atom_site_label
 _atom_site_symmetry_multiplicity
 _atom_site_fract_x
 _atom_site_fract_y
 _atom_site_fract_z
 _atom_site_occupancy
  Ni  Ni0  1  0.00133861  0.00222641  0.00087733  1
  Ni  Ni1  1  0.16587566  0.16854113  0.16345868  1
  Cr  Cr2  1  0.99799093  0.00080158  0.33268087  1
  Fe  Fe3  1  0.00030687  0.33337189  0.00050723  1
  Ni  Ni4  1  0.16697191  0.49916755  0.16611017  1
  Ni  Ni5  1  0.99732155  0.33649739  0.33248551  1
  Ni  Ni6  1  0.99925529  0.66521547  0.00123996  1
  Cr  Cr7  1  0.16653725  0.83273604  0.16596560  1
  Ni  Ni8  1  0.99984251  0.66325095  0.33418143  1
  Ni  Ni9  1  0.33174411  0.00138090  0.00105433  1
  Fe  Fe10  1  0.50132787  0.16806301  0.16634229  1
  Cr  Cr11  1  0.33643905  0.99878005  0.33355756  1
  Ni  Ni12  1  0.33270587  0.33421400  0.00111866  1
  Ni  Ni13  1  0.50114971  0.50137822  0.16569115  1
  Cr  Cr14  1  0.33294507  0.33497587  0.33198415  1
  Ni  Ni15  1  0.33497388  0.66491336  1.00016919  1
  Ni  Ni16  1  0.50165712  0.83128716  0.16645667  1
  Ni  Ni17  1  0.33346053  0.66677991  0.33396650  1
  Cr  Cr18  1  0.66760172  0.99961352  0.00187351  1
  Ni  Ni19  1  0.83390012  0.16803139  0.16698319  1
  Ni  Ni20  1  0.66622665  0.00073311  0.33317789  1
  Ni  Ni21  1  0.66712078  0.33629578  0.00080482  1
  Ni  Ni22  1  0.83238552  0.50009401  0.16716566  1
  Ni  Ni23  1  0.66975291  0.33280922  0.33328036  1
  Ni  Ni24  1  0.66627818  0.66425417  0.00116528  1
  Ni  Ni25  1  0.83168673  0.83238362  0.16671024  1
  Ni  Ni26  1  0.66720582  0.66696648  0.33103548  1
  Cr  Cr27  1  0.16634025  0.16704900  0.50287538  1
  Ni  Ni28  1  0.00034874  0.00224770  0.66709882  1
  Ni  Ni29  1  0.16575049  0.16703975  0.83387659  1
  Ni  Ni30  1  0.16481772  0.50335284  0.50132608  1
  Ni  Ni31  1  0.99937367  0.33372741  0.66776997  1
  Fe  Fe32  1  0.16671065  0.49826837  0.83309591  1
  Ni  Ni33  1  0.16872811  0.83027066  0.50186998  1
  Ni  Ni34  1  0.00296110  0.66453106  0.66508824  1
  Cr  Cr35  1  0.16751692  0.83473506  0.83321993  1
  Ni  Ni36  1  0.50342154  0.16502525  0.50149739  1
  Ni  Ni37  1  0.33413420  0.99955681  0.66577285  1
  Cr  Cr38  1  0.49907735  0.16887567  0.83207931  1
  Cr  Cr39  1  0.50033098  0.49943682  0.49980055  1
  Ni  Ni40  1  0.33241531  0.33372457  0.66765662  1
  Ni  Ni41  1  0.50017273  0.50029612  0.83460754  1
  Ni  Ni42  1  0.49783852  0.83537395  0.50086387  1
  Ni  Ni43  1  0.33151926  0.66722618  0.66637367  1
  Fe  Fe44  1  0.49886668  0.83220438  0.83349960  1
  Ni  Ni45  1  0.83069776  0.16893640  0.50169720  1
  Ni  Ni46  1  0.66602558  0.00314634  0.66521636  1
  Ni  Ni47  1  0.83586466  0.16921349  0.83182858  1
  Ni  Ni48  1  0.83580223  0.49776851  0.49914459  1
  Ni  Ni49  1  0.66871913  0.33111217  0.66642166  1
  Ni  Ni50  1  0.83253294  0.49815603  0.83419921  1
  Cr  Cr51  1  0.83431505  0.83354422  0.49961300  1
  Cr  Cr52  1  0.66627856  0.66614509  0.66862693  1
  Cr  Cr53  1  0.83459070  0.83342703  0.83398954  1
" 