7542,Ni70Fe9Cr20_12,-231.588931010583, 166.420132303439,Ni70Fe9Cr20,"# generated using pymatgen
 data_Cr6Fe2Ni19
_symmetry_space_group_name_H-M   'P 1'
_cell_length_a   7.46505655
_cell_length_b   7.46505655
_cell_length_c   10.55718422
_cell_angle_alpha   90.00000000
_cell_angle_beta   90.00000000
_cell_angle_gamma   90.00000000
_symmetry_Int_Tables_number   1
_chemical_formula_structural   Cr6Fe2Ni19
_chemical_formula_sum   'Cr12 Fe4 Ni38'
_cell_volume   588.32093644
_cell_formula_units_Z   2
loop_
 _symmetry_equiv_pos_site_id
 _symmetry_equiv_pos_as_xyz
  1  'x, y, z'
loop_
 _atom_site_type_symbol
 _atom_site_label
 _atom_site_symmetry_multiplicity
 _atom_site_fract_x
 _atom_site_fract_y
 _atom_site_fract_z
 _atom_site_occupancy
  Ni  Ni0  1  0.99941670  0.00027363  0.99918648  1
  Fe  Fe1  1  0.16505365  0.16503346  0.16700546  1
  Ni  Ni2  1  0.00176678  0.00139955  0.33267073  1
  Ni  Ni3  1  0.99793612  0.33180461  0.00193310  1
  Ni  Ni4  1  0.16462668  0.50202966  0.16774344  1
  Ni  Ni5  1  0.00029151  0.33236025  0.33209632  1
  Ni  Ni6  1  0.99993740  0.66831899  0.00175022  1
  Ni  Ni7  1  0.16698427  0.83294939  0.16754399  1
  Ni  Ni8  1  0.00035200  0.66663867  0.33026279  1
  Ni  Ni9  1  0.33295700  0.99752362  0.00088794  1
  Ni  Ni10  1  0.50077458  0.16523413  0.16582333  1
  Ni  Ni11  1  0.33228728  0.99864144  0.33314178  1
  Cr  Cr12  1  0.33362758  0.33419684  0.00112706  1
  Ni  Ni13  1  0.50098536  0.50187141  0.16628727  1
  Cr  Cr14  1  0.33272006  0.33351923  0.33320647  1
  Ni  Ni15  1  0.33460966  0.66889435  0.00078880  1
  Ni  Ni16  1  0.49881240  0.83329420  0.16666061  1
  Ni  Ni17  1  0.33479968  0.66829612  0.33207671  1
  Ni  Ni18  1  0.66802446  0.99952430  0.00083279  1
  Ni  Ni19  1  0.83444463  0.16759275  0.16562715  1
  Cr  Cr20  1  0.66614566  0.99875001  0.33271900  1
  Ni  Ni21  1  0.66860013  0.33345990  0.00167523  1
  Ni  Ni22  1  0.83478800  0.50006692  0.16665916  1
  Cr  Cr23  1  0.66751810  0.33451883  0.33271914  1
  Ni  Ni24  1  0.66585217  0.66741599  0.00051538  1
  Ni  Ni25  1  0.83460288  0.83274000  0.16646098  1
  Ni  Ni26  1  0.66524648  0.66681977  0.33269370  1
  Ni  Ni27  1  0.16726069  0.16541392  0.49973294  1
  Ni  Ni28  1  0.99959376  0.99985406  0.66853809  1
  Ni  Ni29  1  0.16502558  0.16316785  0.83335019  1
  Cr  Cr30  1  0.16772724  0.49994145  0.49998639  1
  Cr  Cr31  1  0.00043184  0.33065867  0.66691192  1
  Cr  Cr32  1  0.16813310  0.50153785  0.83285001  1
  Cr  Cr33  1  0.16811801  0.83532591  0.49978601  1
  Ni  Ni34  1  0.00081095  0.67018232  0.66838601  1
  Ni  Ni35  1  0.16649586  0.83541286  0.83260139  1
  Fe  Fe36  1  0.49863410  0.16593524  0.50257364  1
  Ni  Ni37  1  0.33377662  0.99972102  0.66637021  1
  Cr  Cr38  1  0.50077420  0.16623340  0.83303670  1
  Ni  Ni39  1  0.50050969  0.50091902  0.50222738  1
  Ni  Ni40  1  0.33654084  0.33362606  0.66552996  1
  Ni  Ni41  1  0.50087516  0.50211445  0.83188574  1
  Ni  Ni42  1  0.49942048  0.83315962  0.50052171  1
  Ni  Ni43  1  0.33582523  0.66705167  0.66753432  1
  Ni  Ni44  1  0.49978395  0.83236191  0.83321958  1
  Fe  Fe45  1  0.83424812  0.16599375  0.50108929  1
  Ni  Ni46  1  0.66702864  0.00057245  0.66665397  1
  Ni  Ni47  1  0.83441473  0.16426222  0.83349658  1
  Cr  Cr48  1  0.83237889  0.50052591  0.49943059  1
  Ni  Ni49  1  0.66390132  0.33241128  0.66581310  1
  Cr  Cr50  1  0.83145251  0.50049559  0.83462046  1
  Cr  Cr51  1  0.83306403  0.83366317  0.50052638  1
  Fe  Fe52  1  0.66369520  0.66799399  0.66750569  1
  Ni  Ni53  1  0.83411936  0.83549767  0.83292807  1
" 