4328,Ni70Fe27Cr1_16,-241.190802060686, 214.622542962911,Ni70Fe27Cr1,"# generated using pymatgen
 data_Cr2Fe15Ni37
_symmetry_space_group_name_H-M   'P 1'
_cell_length_a   7.41537801
_cell_length_b   7.41537801
_cell_length_c   10.48692816
_cell_angle_alpha   90.00000000
_cell_angle_beta   90.00000000
_cell_angle_gamma   90.00000000
_symmetry_Int_Tables_number   1
_chemical_formula_structural   Cr2Fe15Ni37
_chemical_formula_sum   'Cr2 Fe15 Ni37'
_cell_volume   576.65343433
_cell_formula_units_Z   1
loop_
 _symmetry_equiv_pos_site_id
 _symmetry_equiv_pos_as_xyz
  1  'x, y, z'
loop_
 _atom_site_type_symbol
 _atom_site_label
 _atom_site_symmetry_multiplicity
 _atom_site_fract_x
 _atom_site_fract_y
 _atom_site_fract_z
 _atom_site_occupancy
  Ni  Ni0  1  0.00395949  0.00446438  0.00395764  1
  Fe  Fe1  1  0.16762808  0.17065191  0.17001431  1
  Ni  Ni2  1  1.00300327  0.00417073  0.33642685  1
  Ni  Ni3  1  1.00221126  0.33587980  0.00423686  1
  Ni  Ni4  1  0.17027541  0.50393257  0.16980212  1
  Ni  Ni5  1  1.00304911  0.33713831  0.33691139  1
  Fe  Fe6  1  1.00172384  0.67110873  0.00489773  1
  Fe  Fe7  1  0.16956013  0.83643178  0.17005444  1
  Ni  Ni8  1  0.00429341  0.66914360  0.33693164  1
  Ni  Ni9  1  0.33581103  1.00186340  1.00189219  1
  Cr  Cr10  1  0.50423301  0.16958423  0.16984119  1
  Ni  Ni11  1  0.33676617  1.00161760  0.33849275  1
  Fe  Fe12  1  0.33729072  0.33634139  1.00317938  1
  Ni  Ni13  1  0.50251875  0.50505564  0.16993741  1
  Fe  Fe14  1  0.33525580  0.33748308  0.33826270  1
  Fe  Fe15  1  0.33823646  0.67108977  0.00393028  1
  Fe  Fe16  1  0.50424991  0.83503867  0.17009323  1
  Ni  Ni17  1  0.33707206  0.67010164  0.33624405  1
  Ni  Ni18  1  0.67068112  1.00244075  1.00264996  1
  Ni  Ni19  1  0.83826743  0.16904769  0.17036194  1
  Ni  Ni20  1  0.67068133  1.00285985  0.33719146  1
  Ni  Ni21  1  0.67166637  0.33866324  1.00237968  1
  Ni  Ni22  1  0.83765688  0.50391678  0.16993805  1
  Fe  Fe23  1  0.67132270  0.33729796  0.33758801  1
  Ni  Ni24  1  0.66906605  0.66934689  0.00349177  1
  Ni  Ni25  1  0.83714633  0.83748984  0.16943596  1
  Fe  Fe26  1  0.67075051  0.67088518  0.33646184  1
  Ni  Ni27  1  0.17024325  0.17056809  0.50308414  1
  Ni  Ni28  1  1.00297169  0.00405547  0.67006765  1
  Ni  Ni29  1  0.16953451  0.16801948  0.83762144  1
  Ni  Ni30  1  0.17034915  0.50301703  0.50366966  1
  Ni  Ni31  1  1.00263903  0.33586580  0.66930443  1
  Cr  Cr32  1  0.16996077  0.50296951  0.83674842  1
  Fe  Fe33  1  0.17020418  0.83667216  0.50346759  1
  Fe  Fe34  1  1.00258730  0.67021329  0.66884900  1
  Ni  Ni35  1  0.17105218  0.83904910  0.83673568  1
  Ni  Ni36  1  0.50307330  0.16934599  0.50423450  1
  Fe  Fe37  1  0.33673958  0.00431841  0.67034508  1
  Fe  Fe38  1  0.50366193  0.17026691  0.83668572  1
  Ni  Ni39  1  0.50251468  0.50378642  0.50330068  1
  Ni  Ni40  1  0.33752107  0.33786141  0.66935321  1
  Ni  Ni41  1  0.50501565  0.50417599  0.83721185  1
  Ni  Ni42  1  0.50374056  0.83732006  0.50257732  1
  Ni  Ni43  1  0.33783996  0.67012573  0.66950691  1
  Ni  Ni44  1  0.50305193  0.83700136  0.83770434  1
  Ni  Ni45  1  0.83713375  0.16934231  0.50279399  1
  Ni  Ni46  1  0.67069836  0.00373630  0.67061128  1
  Ni  Ni47  1  0.83713725  0.16998221  0.83729570  1
  Ni  Ni48  1  0.83758835  0.50368331  0.50327136  1
  Ni  Ni49  1  0.67029160  0.33692545  0.67034952  1
  Ni  Ni50  1  0.83508715  0.50265513  0.83724296  1
  Ni  Ni51  1  0.83636703  0.83742679  0.50391589  1
  Fe  Fe52  1  0.66990486  0.66945611  0.67050342  1
  Fe  Fe53  1  0.83684752  0.83724800  0.83707665  1
" 