4552,Ni70Fe27Cr1_3,-241.549583592178, 212.338517708922,Ni70Fe27Cr1,"# generated using pymatgen
 data_Cr2Fe15Ni37
_symmetry_space_group_name_H-M   'P 1'
_cell_length_a   7.41838000
_cell_length_b   7.41838000
_cell_length_c   10.49117361
_cell_angle_alpha   90.00000000
_cell_angle_beta   90.00000000
_cell_angle_gamma   90.00000000
_symmetry_Int_Tables_number   1
_chemical_formula_structural   Cr2Fe15Ni37
_chemical_formula_sum   'Cr2 Fe15 Ni37'
_cell_volume   577.35406164
_cell_formula_units_Z   1
loop_
 _symmetry_equiv_pos_site_id
 _symmetry_equiv_pos_as_xyz
  1  'x, y, z'
loop_
 _atom_site_type_symbol
 _atom_site_label
 _atom_site_symmetry_multiplicity
 _atom_site_fract_x
 _atom_site_fract_y
 _atom_site_fract_z
 _atom_site_occupancy
  Ni  Ni0  1  0.00434425  0.00390329  1.00178025  1
  Ni  Ni1  1  0.17101095  0.17028924  0.16813277  1
  Ni  Ni2  1  0.00387167  0.00382439  0.33652725  1
  Ni  Ni3  1  1.00256050  0.33473846  1.00274479  1
  Ni  Ni4  1  0.16898197  0.50102448  0.17266843  1
  Ni  Ni5  1  1.00217481  0.33476779  0.33661820  1
  Cr  Cr6  1  0.00559253  0.66972468  1.00273819  1
  Ni  Ni7  1  0.17044840  0.83846838  0.17172637  1
  Ni  Ni8  1  1.00322913  0.67107216  0.33769349  1
  Ni  Ni9  1  0.33625290  1.00293450  1.00246608  1
  Ni  Ni10  1  0.50252386  0.16958270  0.17025999  1
  Ni  Ni11  1  0.33584778  0.00396359  0.33680450  1
  Ni  Ni12  1  0.33738033  0.33655124  1.00216031  1
  Fe  Fe13  1  0.50071006  0.50235320  0.16971228  1
  Ni  Ni14  1  0.33708563  0.33515561  0.33776835  1
  Ni  Ni15  1  0.33776020  0.67109686  0.00440173  1
  Ni  Ni16  1  0.50214272  0.83961831  0.16911467  1
  Ni  Ni17  1  0.33551244  0.67165372  0.33647397  1
  Fe  Fe18  1  0.66936144  0.00404618  1.00286995  1
  Fe  Fe19  1  0.83776642  0.16863920  0.16873190  1
  Fe  Fe20  1  0.67029289  1.00310739  0.33660167  1
  Ni  Ni21  1  0.66964742  0.33624565  0.00395882  1
  Ni  Ni22  1  0.83712455  0.50096956  0.16952205  1
  Ni  Ni23  1  0.67057704  0.33410419  0.33681533  1
  Fe  Fe24  1  0.66898706  0.66939575  1.00327706  1
  Ni  Ni25  1  0.83665251  0.83723048  0.16867613  1
  Cr  Cr26  1  0.66972027  0.66849176  0.33560029  1
  Ni  Ni27  1  0.16971584  0.17073881  0.50429054  1
  Fe  Fe28  1  1.00312793  1.00262447  0.67034347  1
  Fe  Fe29  1  0.17015215  0.17140230  0.83665347  1
  Fe  Fe30  1  0.16968341  0.50526710  0.50285814  1
  Ni  Ni31  1  1.00171426  0.33582344  0.67047177  1
  Ni  Ni32  1  0.17058191  0.50332788  0.83453587  1
  Ni  Ni33  1  0.17016003  0.83972180  0.50223831  1
  Ni  Ni34  1  0.00370592  0.67012385  0.66936138  1
  Ni  Ni35  1  0.17241975  0.83806608  0.83527185  1
  Fe  Fe36  1  0.50366053  0.16927263  0.50225050  1
  Fe  Fe37  1  0.33698131  0.00400156  0.66943657  1
  Fe  Fe38  1  0.50361519  0.17143358  0.83760379  1
  Ni  Ni39  1  0.50435165  0.50286793  0.50342009  1
  Fe  Fe40  1  0.33665142  0.34005512  0.66947365  1
  Ni  Ni41  1  0.50329896  0.50444501  0.83788013  1
  Ni  Ni42  1  0.50302833  0.83700125  0.50366269  1
  Ni  Ni43  1  0.33728545  0.67267520  0.66913379  1
  Ni  Ni44  1  0.50220606  0.83704160  0.83715007  1
  Fe  Fe45  1  0.83686505  0.16883940  0.50437479  1
  Fe  Fe46  1  0.67018801  1.00184226  0.67077436  1
  Ni  Ni47  1  0.83674197  0.17049558  0.83708004  1
  Ni  Ni48  1  0.83621619  0.50155369  0.50511193  1
  Ni  Ni49  1  0.66918830  0.33540699  0.66960238  1
  Ni  Ni50  1  0.83565257  0.50003065  0.83551243  1
  Ni  Ni51  1  0.83655261  0.83605757  0.50549160  1
  Ni  Ni52  1  0.66909027  0.66874212  0.67165516  1
  Fe  Fe53  1  0.83673624  0.83532043  0.83564747  1
" 