8057,Ni70Fe9Cr20_9,-231.630789979102, 165.60261108566,Ni70Fe9Cr20,"# generated using pymatgen
 data_Cr6Fe2Ni19
_symmetry_space_group_name_H-M   'P 1'
_cell_length_a   7.46714654
_cell_length_b   7.46714654
_cell_length_c   10.56013991
_cell_angle_alpha   90.00000000
_cell_angle_beta   90.00000000
_cell_angle_gamma   90.00000000
_symmetry_Int_Tables_number   1
_chemical_formula_structural   Cr6Fe2Ni19
_chemical_formula_sum   'Cr12 Fe4 Ni38'
_cell_volume   588.81521069
_cell_formula_units_Z   2
loop_
 _symmetry_equiv_pos_site_id
 _symmetry_equiv_pos_as_xyz
  1  'x, y, z'
loop_
 _atom_site_type_symbol
 _atom_site_label
 _atom_site_symmetry_multiplicity
 _atom_site_fract_x
 _atom_site_fract_y
 _atom_site_fract_z
 _atom_site_occupancy
  Ni  Ni0  1  0.99828128  0.00079532  0.00145674  1
  Ni  Ni1  1  0.16349594  0.16487371  0.16827872  1
  Ni  Ni2  1  0.99813885  0.00291380  0.33222705  1
  Ni  Ni3  1  0.99794890  0.33328263  0.99976728  1
  Ni  Ni4  1  0.16221129  0.49867058  0.16600032  1
  Ni  Ni5  1  0.99973645  0.33190018  0.33386792  1
  Ni  Ni6  1  0.99879921  0.66585047  0.00123655  1
  Ni  Ni7  1  0.16557703  0.83645151  0.16508227  1
  Cr  Cr8  1  0.99858308  0.66621098  0.33070771  1
  Ni  Ni9  1  0.33354363  0.00025225  0.00001000  1
  Cr  Cr10  1  0.50130886  0.16483040  0.16711261  1
  Ni  Ni11  1  0.33416411  0.00202793  0.33331070  1
  Cr  Cr12  1  0.33179305  0.33207160  0.99837660  1
  Cr  Cr13  1  0.50316110  0.49877847  0.16915673  1
  Ni  Ni14  1  0.33190445  0.33197018  0.33559156  1
  Cr  Cr15  1  0.33101774  0.66784009  0.00060384  1
  Ni  Ni16  1  0.50004704  0.83608074  0.16725278  1
  Cr  Cr17  1  0.33331944  0.66587853  0.33217585  1
  Ni  Ni18  1  0.66815661  0.00116144  0.99859038  1
  Ni  Ni19  1  0.83577525  0.16712515  0.16610422  1
  Ni  Ni20  1  0.66764086  0.00025386  0.33421612  1
  Ni  Ni21  1  0.67052642  0.33101602  0.99780363  1
  Ni  Ni22  1  0.83565526  0.49804998  0.16631492  1
  Ni  Ni23  1  0.66835573  0.33209984  0.33502562  1
  Cr  Cr24  1  0.66931430  0.66834153  0.99975170  1
  Ni  Ni25  1  0.83431182  0.83487539  0.16686001  1
  Fe  Fe26  1  0.66752669  0.66771785  0.33449193  1
  Ni  Ni27  1  0.16540088  0.16672737  0.49879219  1
  Ni  Ni28  1  0.99965394  0.00066354  0.66626971  1
  Ni  Ni29  1  0.16482452  0.16522247  0.83290874  1
  Ni  Ni30  1  0.16534068  0.49779546  0.50171284  1
  Fe  Fe31  1  0.99990729  0.33306339  0.66629611  1
  Fe  Fe32  1  0.16374385  0.49943517  0.83256434  1
  Cr  Cr33  1  0.16729095  0.83602756  0.50268025  1
  Ni  Ni34  1  0.99831107  0.66541366  0.66721179  1
  Cr  Cr35  1  0.16592908  0.83512730  0.83231152  1
  Ni  Ni36  1  0.49924319  0.16570604  0.49705036  1
  Ni  Ni37  1  0.33305332  0.00001867  0.66665184  1
  Ni  Ni38  1  0.49972650  0.16519157  0.83568985  1
  Ni  Ni39  1  0.50184998  0.50128977  0.49899370  1
  Cr  Cr40  1  0.33265791  0.33294887  0.66623530  1
  Ni  Ni41  1  0.50258869  0.50106342  0.83189729  1
  Ni  Ni42  1  0.50056602  0.83296002  0.50039282  1
  Ni  Ni43  1  0.33452925  0.66580866  0.66693001  1
  Ni  Ni44  1  0.49993625  0.83370425  0.83228343  1
  Ni  Ni45  1  0.83532505  0.16804627  0.49803322  1
  Cr  Cr46  1  0.66734993  0.99945962  0.66749717  1
  Ni  Ni47  1  0.83541849  0.16761843  0.83594569  1
  Ni  Ni48  1  0.83269017  0.49909092  0.49992486  1
  Cr  Cr49  1  0.66719452  0.33341429  0.66770976  1
  Ni  Ni50  1  0.83386225  0.49977258  0.83368188  1
  Fe  Fe51  1  0.83202051  0.83363023  0.50036395  1
  Ni  Ni52  1  0.66708053  0.66661693  0.66566725  1
  Ni  Ni53  1  0.83385309  0.83250542  0.83257266  1
" 