8064,Ni70Fe28Cr1_12,-242.216418243636, 216.053084377561,Ni70Fe28Cr1,"# generated using pymatgen
 data_CrFe15Ni38
_symmetry_space_group_name_H-M   'P 1'
_cell_length_a   7.41306065
_cell_length_b   7.41306065
_cell_length_c   10.48365091
_cell_angle_alpha   90.00000000
_cell_angle_beta   90.00000000
_cell_angle_gamma   90.00000000
_symmetry_Int_Tables_number   1
_chemical_formula_structural   CrFe15Ni38
_chemical_formula_sum   'Cr1 Fe15 Ni38'
_cell_volume   576.11297663
_cell_formula_units_Z   1
loop_
 _symmetry_equiv_pos_site_id
 _symmetry_equiv_pos_as_xyz
  1  'x, y, z'
loop_
 _atom_site_type_symbol
 _atom_site_label
 _atom_site_symmetry_multiplicity
 _atom_site_fract_x
 _atom_site_fract_y
 _atom_site_fract_z
 _atom_site_occupancy
  Ni  Ni0  1  1.00334223  1.00352879  0.00368502  1
  Ni  Ni1  1  0.17010182  0.17067968  0.17089959  1
  Ni  Ni2  1  0.00376529  1.00332635  0.33703902  1
  Fe  Fe3  1  0.00539150  0.33569263  0.00397370  1
  Ni  Ni4  1  0.17047388  0.50307204  0.16952315  1
  Ni  Ni5  1  0.00409320  0.33728416  0.33685165  1
  Fe  Fe6  1  0.00520545  0.67187165  0.00489240  1
  Ni  Ni7  1  0.16965778  0.83717259  0.16976249  1
  Fe  Fe8  1  0.00411317  0.67066424  0.33697324  1
  Ni  Ni9  1  0.33633267  1.00350927  0.00403300  1
  Ni  Ni10  1  0.50368232  0.17038605  0.16957980  1
  Ni  Ni11  1  0.33660701  1.00335620  0.33643830  1
  Ni  Ni12  1  0.33631120  0.33827354  1.00361358  1
  Ni  Ni13  1  0.50332463  0.50337842  0.16979832  1
  Ni  Ni14  1  0.33661139  0.33758506  0.33702066  1
  Ni  Ni15  1  0.33767552  0.66914246  1.00346821  1
  Ni  Ni16  1  0.50443461  0.83715773  0.17080594  1
  Fe  Fe17  1  0.33679251  0.67018370  0.33659798  1
  Ni  Ni18  1  0.67124890  1.00216496  1.00339290  1
  Fe  Fe19  1  0.83703549  0.16956514  0.17069704  1
  Ni  Ni20  1  0.67055324  1.00277359  0.33705601  1
  Fe  Fe21  1  0.66838787  0.33587971  0.00435813  1
  Fe  Fe22  1  0.83676899  0.50397093  0.17033233  1
  Ni  Ni23  1  0.67021977  0.33784194  0.33686659  1
  Ni  Ni24  1  0.66912630  0.67126130  0.00494286  1
  Ni  Ni25  1  0.83683308  0.83753001  0.16961142  1
  Fe  Fe26  1  0.67001701  0.67066350  0.33691459  1
  Fe  Fe27  1  0.17074739  0.16980990  0.50369706  1
  Ni  Ni28  1  1.00353820  0.00370444  0.67020355  1
  Ni  Ni29  1  0.16915274  0.17070246  0.83641471  1
  Ni  Ni30  1  0.17048953  0.50357499  0.50419715  1
  Ni  Ni31  1  0.00493180  0.33633389  0.66935239  1
  Ni  Ni32  1  0.17208934  0.50277459  0.83720150  1
  Ni  Ni33  1  0.16969397  0.83651906  0.50387017  1
  Fe  Fe34  1  0.00442015  0.67096583  0.66905687  1
  Fe  Fe35  1  0.17068817  0.83747695  0.83718347  1
  Ni  Ni36  1  0.50494040  0.17053338  0.50445026  1
  Ni  Ni37  1  0.33642098  0.00366604  0.67045206  1
  Fe  Fe38  1  0.50311501  0.17077305  0.83676916  1
  Ni  Ni39  1  0.50312071  0.50314604  0.50421242  1
  Ni  Ni40  1  0.33639954  0.33774867  0.67029044  1
  Ni  Ni41  1  0.50179645  0.50457595  0.83691295  1
  Ni  Ni42  1  0.50421260  0.83724538  0.50311630  1
  Fe  Fe43  1  0.33753446  0.67002232  0.67055828  1
  Ni  Ni44  1  0.50399837  0.83667833  0.83700132  1
  Ni  Ni45  1  0.83658782  0.16973949  0.50371757  1
  Ni  Ni46  1  0.67096567  1.00236993  0.67047836  1
  Ni  Ni47  1  0.83780950  0.16849654  0.83728335  1
  Fe  Fe48  1  0.83633520  0.50357895  0.50402518  1
  Ni  Ni49  1  0.66959202  0.33764873  0.66968400  1
  Cr  Cr50  1  0.83679040  0.50272164  0.83642458  1
  Ni  Ni51  1  0.83701800  0.83833442  0.50469377  1
  Ni  Ni52  1  0.66955347  0.67090685  0.66916216  1
  Fe  Fe53  1  0.83658371  0.83866897  0.83709547  1
" 