7,Ni71Fe20Cr7_16,-238.436987086918, 201.097704531396,Ni71Fe20Cr7,"# generated using pymatgen
 data_Cr5Fe11Ni38
_symmetry_space_group_name_H-M   'P 1'
_cell_length_a   7.42806548
_cell_length_b   7.42806548
_cell_length_c   10.50487094
_cell_angle_alpha   90.00000000
_cell_angle_beta   90.00000000
_cell_angle_gamma   90.00000000
_symmetry_Int_Tables_number   1
_chemical_formula_structural   Cr5Fe11Ni38
_chemical_formula_sum   'Cr5 Fe11 Ni38'
_cell_volume   579.61840548
_cell_formula_units_Z   1
loop_
 _symmetry_equiv_pos_site_id
 _symmetry_equiv_pos_as_xyz
  1  'x, y, z'
loop_
 _atom_site_type_symbol
 _atom_site_label
 _atom_site_symmetry_multiplicity
 _atom_site_fract_x
 _atom_site_fract_y
 _atom_site_fract_z
 _atom_site_occupancy
  Ni  Ni0  1  0.00294104  1.00221046  0.00302844  1
  Fe  Fe1  1  0.17029199  0.16811661  0.16840442  1
  Ni  Ni2  1  0.00346667  1.00035085  0.33567344  1
  Ni  Ni3  1  1.00139127  0.33615885  1.00215787  1
  Ni  Ni4  1  0.16966968  0.50249573  0.16880640  1
  Cr  Cr5  1  0.00298291  0.33547257  0.33566253  1
  Ni  Ni6  1  0.00365301  0.66923637  1.00254413  1
  Ni  Ni7  1  0.16992912  0.83598553  0.16874340  1
  Ni  Ni8  1  0.00441794  0.67189595  0.33519560  1
  Ni  Ni9  1  0.33613754  1.00137280  1.00210602  1
  Fe  Fe10  1  0.50257565  0.16841351  0.16976375  1
  Ni  Ni11  1  0.33552711  1.00258676  0.33582523  1
  Fe  Fe12  1  0.33469759  0.33587777  0.00292067  1
  Ni  Ni13  1  0.50137112  0.50158253  0.16825716  1
  Ni  Ni14  1  0.33777475  0.33548205  0.33579871  1
  Ni  Ni15  1  0.33593246  0.66985486  0.00316344  1
  Ni  Ni16  1  0.50212065  0.83794570  0.16879236  1
  Fe  Fe17  1  0.33484705  0.66979256  0.33497812  1
  Ni  Ni18  1  0.66858600  0.00382468  1.00210672  1
  Fe  Fe19  1  0.83484589  0.16808493  0.16854094  1
  Ni  Ni20  1  0.66871715  0.00354938  0.33691962  1
  Ni  Ni21  1  0.66921801  0.33624868  0.00359230  1
  Ni  Ni22  1  0.83642405  0.50228678  0.16693411  1
  Ni  Ni23  1  0.66658749  0.33430146  0.33508793  1
  Fe  Fe24  1  0.66944306  0.67059407  0.00289708  1
  Ni  Ni25  1  0.83592497  0.83727959  0.16844604  1
  Cr  Cr26  1  0.66865703  0.66912021  0.33422838  1
  Ni  Ni27  1  0.17177697  0.17003659  0.50249970  1
  Cr  Cr28  1  0.00389047  0.00304802  0.66899739  1
  Ni  Ni29  1  0.17039617  0.17143977  0.83708563  1
  Ni  Ni30  1  0.17155092  0.50267624  0.50330129  1
  Ni  Ni31  1  0.00410747  0.33590240  0.67003372  1
  Ni  Ni32  1  0.16919835  0.50131711  0.83559335  1
  Ni  Ni33  1  0.17104906  0.83505961  0.50192905  1
  Ni  Ni34  1  0.00319912  0.66940780  0.67022106  1
  Fe  Fe35  1  0.16894864  0.83500772  0.83693639  1
  Ni  Ni36  1  0.50099334  0.16724527  0.50237083  1
  Ni  Ni37  1  0.33663539  1.00241055  0.67001975  1
  Fe  Fe38  1  0.50244797  0.16884523  0.83660285  1
  Fe  Fe39  1  0.50043278  0.50274827  0.50208381  1
  Ni  Ni40  1  0.33535090  0.33558992  0.66972095  1
  Fe  Fe41  1  0.50220853  0.50365375  0.83732134  1
  Ni  Ni42  1  0.50185601  0.83812824  0.50296178  1
  Ni  Ni43  1  0.33647049  0.66981534  0.66838029  1
  Ni  Ni44  1  0.50234779  0.83671836  0.83619886  1
  Ni  Ni45  1  0.83471028  0.16717054  0.50143195  1
  Fe  Fe46  1  0.66821151  1.00104013  0.66947349  1
  Ni  Ni47  1  0.83670985  0.16950895  0.83738423  1
  Cr  Cr48  1  0.83849191  0.50387895  0.50368986  1
  Cr  Cr49  1  0.66909317  0.33511607  0.66879458  1
  Ni  Ni50  1  0.83775003  0.50296526  0.83730568  1
  Ni  Ni51  1  0.83469751  0.83717813  0.50286374  1
  Ni  Ni52  1  0.66802430  0.67028854  0.67110893  1
  Ni  Ni53  1  0.83301455  0.83537669  0.83680937  1
" 