7728,Ni71Fe20Cr7_17,-238.560154329589, 199.314510691309,Ni71Fe20Cr7,"# generated using pymatgen
 data_Cr5Fe11Ni38
_symmetry_space_group_name_H-M   'P 1'
_cell_length_a   7.43220682
_cell_length_b   7.43220682
_cell_length_c   10.51072769
_cell_angle_alpha   90.00000000
_cell_angle_beta   90.00000000
_cell_angle_gamma   90.00000000
_symmetry_Int_Tables_number   1
_chemical_formula_structural   Cr5Fe11Ni38
_chemical_formula_sum   'Cr5 Fe11 Ni38'
_cell_volume   580.58840485
_cell_formula_units_Z   1
loop_
 _symmetry_equiv_pos_site_id
 _symmetry_equiv_pos_as_xyz
  1  'x, y, z'
loop_
 _atom_site_type_symbol
 _atom_site_label
 _atom_site_symmetry_multiplicity
 _atom_site_fract_x
 _atom_site_fract_y
 _atom_site_fract_z
 _atom_site_occupancy
  Ni  Ni0  1  1.00181004  1.00154580  1.00174527  1
  Ni  Ni1  1  0.16927071  0.16790803  0.17083245  1
  Ni  Ni2  1  0.00373747  0.00358583  0.33630929  1
  Cr  Cr3  1  0.00384629  0.33533084  0.00274793  1
  Ni  Ni4  1  0.17009669  0.50362126  0.16991029  1
  Ni  Ni5  1  0.00242327  0.33537376  0.33615957  1
  Ni  Ni6  1  1.00199032  0.67011708  1.00102643  1
  Ni  Ni7  1  0.16850198  0.83550311  0.16851774  1
  Ni  Ni8  1  1.00218183  0.66807308  0.33660768  1
  Ni  Ni9  1  0.33642513  0.00243701  1.00194694  1
  Ni  Ni10  1  0.50251189  0.17024862  0.16765397  1
  Ni  Ni11  1  0.33329894  1.00163747  0.33512752  1
  Ni  Ni12  1  0.33628588  0.33561359  1.00132247  1
  Ni  Ni13  1  0.50226964  0.50186056  0.16934948  1
  Ni  Ni14  1  0.33397207  0.33667795  0.33569357  1
  Ni  Ni15  1  0.33649017  0.66898115  1.00179358  1
  Ni  Ni16  1  0.50151791  0.83492124  0.16870090  1
  Ni  Ni17  1  0.33616271  0.66871508  0.33616776  1
  Ni  Ni18  1  0.66879529  1.00134371  1.00157624  1
  Ni  Ni19  1  0.83524595  0.16865706  0.16914404  1
  Cr  Cr20  1  0.66941677  1.00085740  0.33490827  1
  Fe  Fe21  1  0.66666843  0.33531952  0.00302401  1
  Fe  Fe22  1  0.83495313  0.50295969  0.17059765  1
  Ni  Ni23  1  0.67063486  0.33823132  0.33535179  1
  Ni  Ni24  1  0.66854864  0.67025425  1.00217284  1
  Fe  Fe25  1  0.83654196  0.83524161  0.16793355  1
  Ni  Ni26  1  0.66868667  0.66739646  0.33640469  1
  Fe  Fe27  1  0.16787093  0.16872463  0.50143333  1
  Fe  Fe28  1  0.00285430  1.00047738  0.66894107  1
  Ni  Ni29  1  0.17122167  0.16763915  0.83514921  1
  Ni  Ni30  1  0.16909293  0.50345587  0.50055984  1
  Cr  Cr31  1  0.00336615  0.33560619  0.66862016  1
  Ni  Ni32  1  0.17022693  0.50317575  0.83656148  1
  Ni  Ni33  1  0.16678666  0.83573873  0.50159369  1
  Fe  Fe34  1  1.00169606  0.67053785  0.66880225  1
  Ni  Ni35  1  0.16686581  0.83621646  0.83691780  1
  Cr  Cr36  1  0.50194435  0.17111624  0.50257492  1
  Ni  Ni37  1  0.33541910  0.00333165  0.66995757  1
  Ni  Ni38  1  0.50213777  0.16993984  0.83620303  1
  Ni  Ni39  1  0.50319479  0.50200032  0.50136861  1
  Ni  Ni40  1  0.33532687  0.33440627  0.67001598  1
  Ni  Ni41  1  0.50270013  0.50044456  0.83631484  1
  Fe  Fe42  1  0.50266418  0.83321591  0.50221768  1
  Cr  Cr43  1  0.33699184  0.66910041  0.66917271  1
  Ni  Ni44  1  0.50376476  0.83664751  0.83593840  1
  Ni  Ni45  1  0.83638894  0.16863373  0.50251736  1
  Fe  Fe46  1  0.66904586  1.00153557  0.67023576  1
  Fe  Fe47  1  0.83439251  0.16676119  0.83607035  1
  Ni  Ni48  1  0.83474273  0.50351581  0.50128180  1
  Fe  Fe49  1  0.66706125  0.33664272  0.66888904  1
  Fe  Fe50  1  0.83412419  0.50495758  0.83533660  1
  Ni  Ni51  1  0.83784448  0.83487979  0.50288430  1
  Ni  Ni52  1  0.67015836  0.66980420  0.66845426  1
  Ni  Ni53  1  0.83640273  0.83565310  0.83583295  1
" 