2783,Ni71Fe2Cr26_2,-228.922339140383, 155.880824831881,Ni71Fe2Cr26,"# generated using pymatgen
 data_Cr15FeNi38
_symmetry_space_group_name_H-M   'P 1'
_cell_length_a   7.47781857
_cell_length_b   7.47781857
_cell_length_c   10.57523243
_cell_angle_alpha   90.00000000
_cell_angle_beta   90.00000000
_cell_angle_gamma   90.00000000
_symmetry_Int_Tables_number   1
_chemical_formula_structural   Cr15FeNi38
_chemical_formula_sum   'Cr15 Fe1 Ni38'
_cell_volume   591.34342040
_cell_formula_units_Z   1
loop_
 _symmetry_equiv_pos_site_id
 _symmetry_equiv_pos_as_xyz
  1  'x, y, z'
loop_
 _atom_site_type_symbol
 _atom_site_label
 _atom_site_symmetry_multiplicity
 _atom_site_fract_x
 _atom_site_fract_y
 _atom_site_fract_z
 _atom_site_occupancy
  Cr  Cr0  1  -0.00056365  0.99896912  0.99898369  1
  Ni  Ni1  1  0.16582635  0.16672630  0.16728991  1
  Ni  Ni2  1  0.00274955  0.00001334  0.33300596  1
  Ni  Ni3  1  0.00268467  0.33313527  -0.00003850  1
  Ni  Ni4  1  0.16377296  0.49742049  0.16494337  1
  Ni  Ni5  1  -0.00044683  0.33109078  0.33061439  1
  Ni  Ni6  1  0.00066916  0.66528480  0.00029382  1
  Ni  Ni7  1  0.16488619  0.83354626  0.16743606  1
  Cr  Cr8  1  0.99780146  0.66724631  0.33080266  1
  Ni  Ni9  1  0.33147450  0.00117186  -0.00061328  1
  Ni  Ni10  1  0.49751162  0.16571384  0.16589640  1
  Ni  Ni11  1  0.32904539  0.00169274  0.33240151  1
  Ni  Ni12  1  0.32787563  0.32951814  -0.00010382  1
  Cr  Cr13  1  0.49709584  0.49804789  0.16867316  1
  Ni  Ni14  1  0.33233278  0.33061892  0.33285207  1
  Cr  Cr15  1  0.32772560  0.66638160  0.99651259  1
  Cr  Cr16  1  0.49724928  0.83510325  0.16593967  1
  Ni  Ni17  1  0.33130407  0.66557264  0.33391643  1
  Ni  Ni18  1  0.66615867  -0.00069307  0.99843281  1
  Ni  Ni19  1  0.83449814  0.16643799  0.16634800  1
  Cr  Cr20  1  0.66831853  0.00106977  0.33210014  1
  Cr  Cr21  1  0.66868073  0.32969954  0.00221237  1
  Ni  Ni22  1  0.83623128  0.49765895  0.16753577  1
  Ni  Ni23  1  0.66586318  0.33431317  0.33322005  1
  Cr  Cr24  1  0.67075319  0.66837501  0.00026029  1
  Ni  Ni25  1  0.83454809  0.83345954  0.16612614  1
  Ni  Ni26  1  0.66720551  0.66328626  0.33366864  1
  Ni  Ni27  1  0.16640155  0.16548548  0.49804750  1
  Ni  Ni28  1  -0.00055169  0.99765607  0.66603579  1
  Ni  Ni29  1  0.16390861  0.16741753  0.83233434  1
  Cr  Cr30  1  0.16467288  0.49779949  0.50024036  1
  Ni  Ni31  1  0.00096106  0.33216101  0.66736525  1
  Ni  Ni32  1  0.16445709  0.49816593  0.83212448  1
  Ni  Ni33  1  0.16353765  0.83443648  0.49846161  1
  Ni  Ni34  1  0.99837904  0.66742477  0.66669922  1
  Ni  Ni35  1  0.16461033  0.83214197  0.83142410  1
  Ni  Ni36  1  0.49813524  0.16896557  0.49864040  1
  Cr  Cr37  1  0.32998117  0.00136321  0.66529682  1
  Cr  Cr38  1  0.50012617  0.16492011  0.83415528  1
  Ni  Ni39  1  0.50026777  0.49761382  0.49922450  1
  Ni  Ni40  1  0.33138336  0.33286355  0.66512058  1
  Cr  Cr41  1  0.49699747  0.49986764  0.82975368  1
  Cr  Cr42  1  0.49877879  0.83165397  0.49835073  1
  Fe  Fe43  1  0.33089000  0.66601336  0.66581271  1
  Ni  Ni44  1  0.49992757  0.83389504  0.83223451  1
  Cr  Cr45  1  0.83612054  0.16659535  0.50192591  1
  Ni  Ni46  1  0.66762864  0.99811344  0.66789825  1
  Ni  Ni47  1  0.83522534  0.16372197  0.83047985  1
  Ni  Ni48  1  0.83070740  0.49955925  0.49982827  1
  Ni  Ni49  1  0.66546315  0.33301072  0.66324383  1
  Cr  Cr50  1  0.83631202  0.49747678  0.83131520  1
  Ni  Ni51  1  0.83439932  0.83133287  0.50133871  1
  Ni  Ni52  1  0.66798214  0.66649219  0.66431229  1
  Ni  Ni53  1  0.83315508  0.83410128  0.83073506  1
" 