3191,Ni71Fe27Cr0_0,-242.237667859794, 214.82586084139,Ni71Fe27Cr0,"# generated using pymatgen
 data_CrFe15Ni38
_symmetry_space_group_name_H-M   'P 1'
_cell_length_a   7.41742427
_cell_length_b   7.41742427
_cell_length_c   10.48982201
_cell_angle_alpha   90.00000000
_cell_angle_beta   90.00000000
_cell_angle_gamma   90.00000000
_symmetry_Int_Tables_number   1
_chemical_formula_structural   CrFe15Ni38
_chemical_formula_sum   'Cr1 Fe15 Ni38'
_cell_volume   577.13094518
_cell_formula_units_Z   1
loop_
 _symmetry_equiv_pos_site_id
 _symmetry_equiv_pos_as_xyz
  1  'x, y, z'
loop_
 _atom_site_type_symbol
 _atom_site_label
 _atom_site_symmetry_multiplicity
 _atom_site_fract_x
 _atom_site_fract_y
 _atom_site_fract_z
 _atom_site_occupancy
  Fe  Fe0  1  0.00555183  0.00480585  0.00353956  1
  Ni  Ni1  1  0.17054235  0.17059037  0.17084827  1
  Ni  Ni2  1  1.00243545  0.00363988  0.33509830  1
  Ni  Ni3  1  1.00258533  0.33757134  1.00312161  1
  Ni  Ni4  1  0.16961075  0.50173303  0.16964603  1
  Ni  Ni5  1  1.00298443  0.33706006  0.33731219  1
  Fe  Fe6  1  0.00376172  0.67005730  1.00302792  1
  Fe  Fe7  1  0.17114482  0.83593171  0.17028602  1
  Fe  Fe8  1  0.00383153  0.66957470  0.33744690  1
  Ni  Ni9  1  0.33831971  1.00224782  0.00377260  1
  Ni  Ni10  1  0.50173930  0.16908210  0.16916138  1
  Ni  Ni11  1  0.33676641  1.00260335  0.33576401  1
  Ni  Ni12  1  0.33486199  0.33759764  0.00414614  1
  Ni  Ni13  1  0.50269186  0.50420184  0.17009890  1
  Ni  Ni14  1  0.33636847  0.33799343  0.33537209  1
  Ni  Ni15  1  0.33688424  0.67005691  1.00285944  1
  Ni  Ni16  1  0.50488556  0.83678122  0.17076152  1
  Ni  Ni17  1  0.33608130  0.66885522  0.33685809  1
  Ni  Ni18  1  0.67077666  1.00243271  1.00318981  1
  Ni  Ni19  1  0.83784050  0.16913295  0.16972530  1
  Ni  Ni20  1  0.67064796  0.00398848  0.33729758  1
  Fe  Fe21  1  0.66850172  0.33681141  0.00435497  1
  Ni  Ni22  1  0.83737412  0.50483091  0.17007912  1
  Ni  Ni23  1  0.67054926  0.33626471  0.33495685  1
  Fe  Fe24  1  0.66832466  0.66981516  1.00299410  1
  Ni  Ni25  1  0.83586549  0.83632373  0.16904467  1
  Fe  Fe26  1  0.66967839  0.66981675  0.33674046  1
  Ni  Ni27  1  0.17137886  0.16954852  0.50263340  1
  Ni  Ni28  1  1.00230370  1.00269946  0.67084693  1
  Ni  Ni29  1  0.17126606  0.16996214  0.83645281  1
  Ni  Ni30  1  0.17031107  0.50127956  0.50515219  1
  Fe  Fe31  1  0.00384035  0.33621629  0.67020741  1
  Fe  Fe32  1  0.17036164  0.50386377  0.83716002  1
  Fe  Fe33  1  0.17008953  0.83632738  0.50355556  1
  Ni  Ni34  1  0.00464282  0.67024684  0.67049938  1
  Fe  Fe35  1  0.17094209  0.83618520  0.83620405  1
  Ni  Ni36  1  0.50072230  0.17008808  0.50414354  1
  Ni  Ni37  1  0.33626885  1.00299614  0.67033176  1
  Fe  Fe38  1  0.50352534  0.16972686  0.83670065  1
  Ni  Ni39  1  0.50218028  0.50097250  0.50234290  1
  Ni  Ni40  1  0.33738334  0.33766825  0.67086714  1
  Ni  Ni41  1  0.50253898  0.50316897  0.83728829  1
  Fe  Fe42  1  0.50142548  0.83725897  0.50270659  1
  Ni  Ni43  1  0.33444971  0.66908353  0.67054010  1
  Ni  Ni44  1  0.50364969  0.83753232  0.83571923  1
  Fe  Fe45  1  0.83631204  0.17158943  0.50229855  1
  Ni  Ni46  1  0.67134329  0.00527788  0.66938392  1
  Fe  Fe47  1  0.83590381  0.17012364  0.83778184  1
  Ni  Ni48  1  0.83766148  0.50487740  0.50282085  1
  Ni  Ni49  1  0.67057777  0.33547395  0.67078833  1
  Ni  Ni50  1  0.83714817  0.50430160  0.83709197  1
  Ni  Ni51  1  0.83772785  0.83774023  0.50298395  1
  Cr  Cr52  1  0.66924883  0.66966223  0.66889287  1
  Ni  Ni53  1  0.83682371  0.83696109  0.83773477  1
" 