4500,Ni71Fe2Cr26_7,-228.487239604685, 148.322953196033,Ni71Fe2Cr26,"# generated using pymatgen
 data_Cr15FeNi38
_symmetry_space_group_name_H-M   'P 1'
_cell_length_a   7.48342752
_cell_length_b   7.48342752
_cell_length_c   10.58316469
_cell_angle_alpha   90.00000000
_cell_angle_beta   90.00000000
_cell_angle_gamma   90.00000000
_symmetry_Int_Tables_number   1
_chemical_formula_structural   Cr15FeNi38
_chemical_formula_sum   'Cr15 Fe1 Ni38'
_cell_volume   592.67508054
_cell_formula_units_Z   1
loop_
 _symmetry_equiv_pos_site_id
 _symmetry_equiv_pos_as_xyz
  1  'x, y, z'
loop_
 _atom_site_type_symbol
 _atom_site_label
 _atom_site_symmetry_multiplicity
 _atom_site_fract_x
 _atom_site_fract_y
 _atom_site_fract_z
 _atom_site_occupancy
  Cr  Cr0  1  0.99863943  0.99864499  -0.00086708  1
  Cr  Cr1  1  0.16653466  0.16655221  0.16133669  1
  Cr  Cr2  1  0.99766297  0.99734364  0.33217015  1
  Ni  Ni3  1  0.00071583  0.33409533  0.99860410  1
  Ni  Ni4  1  0.16670057  0.50195353  0.16478788  1
  Cr  Cr5  1  0.99615405  0.33426893  0.33298232  1
  Cr  Cr6  1  0.99817546  0.66426367  0.99873296  1
  Ni  Ni7  1  0.16727978  0.82839642  0.16636029  1
  Ni  Ni8  1  0.00146741  0.66467872  0.33154206  1
  Ni  Ni9  1  0.33461731  0.99819208  0.99769169  1
  Ni  Ni10  1  0.50194971  0.16457481  0.16510865  1
  Cr  Cr11  1  0.33478181  0.99673002  0.33402435  1
  Ni  Ni12  1  0.33175929  0.33305130  0.99782149  1
  Ni  Ni13  1  0.49791876  0.50003912  0.16470940  1
  Cr  Cr14  1  0.33499170  0.33366167  0.33217669  1
  Ni  Ni15  1  0.33368829  0.66544649  -0.00009920  1
  Ni  Ni16  1  0.49917531  0.83211085  0.16345344  1
  Ni  Ni17  1  0.32945347  0.66673369  0.33111684  1
  Ni  Ni18  1  0.66277591  0.99654475  0.00052928  1
  Ni  Ni19  1  0.82830381  0.16515629  0.16613000  1
  Ni  Ni20  1  0.66468188  0.00151200  0.33115909  1
  Cr  Cr21  1  0.66458944  0.33354762  0.00126151  1
  Ni  Ni22  1  0.83211190  0.49925960  0.16573750  1
  Ni  Ni23  1  0.66670039  0.32964755  0.33157396  1
  Ni  Ni24  1  0.66379632  0.66707706  0.99818847  1
  Ni  Ni25  1  0.83018377  0.83227292  0.16545265  1
  Cr  Cr26  1  0.66494435  0.66478605  0.33039134  1
  Ni  Ni27  1  0.16655936  0.16642498  0.50280985  1
  Cr  Cr28  1  0.00141272  -0.00001994  0.66538295  1
  Ni  Ni29  1  0.16960710  0.16711419  0.83201396  1
  Ni  Ni30  1  0.16402871  0.49894614  0.49853796  1
  Ni  Ni31  1  -0.00048890  0.33302833  0.66474456  1
  Ni  Ni32  1  0.16705578  0.49649857  0.83331827  1
  Ni  Ni33  1  0.16817285  0.83136520  0.49719966  1
  Cr  Cr34  1  0.99807565  0.66341020  0.66609570  1
  Ni  Ni35  1  0.16771455  0.83313681  0.83319303  1
  Ni  Ni36  1  0.50076152  0.16382065  0.50054454  1
  Ni  Ni37  1  0.33407474  0.00110060  0.66524881  1
  Ni  Ni38  1  0.49599886  0.16522448  0.83118264  1
  Cr  Cr39  1  0.49967521  0.49839602  0.49948275  1
  Ni  Ni40  1  0.33174644  0.32940359  0.66659036  1
  Ni  Ni41  1  0.49872317  0.49857865  0.83242278  1
  Ni  Ni42  1  0.49787340  0.83512994  0.50036586  1
  Cr  Cr43  1  0.33292170  0.66659692  0.66563928  1
  Fe  Fe44  1  0.49937650  0.83280074  0.83309085  1
  Ni  Ni45  1  0.82945789  0.16784603  0.49930776  1
  Ni  Ni46  1  0.66204306  -0.00065167  0.66509245  1
  Cr  Cr47  1  0.83169377  0.16576974  0.83160795  1
  Ni  Ni48  1  0.83328073  0.49621151  0.50026567  1
  Ni  Ni49  1  0.66551789  0.33221418  0.66453720  1
  Ni  Ni50  1  0.83093928  0.50047772  0.83068487  1
  Cr  Cr51  1  0.83032212  0.83198794  0.49899433  1
  Ni  Ni52  1  0.66573300  0.66513969  0.66807293  1
  Ni  Ni53  1  0.82887109  0.83040921  0.83239820  1
" 