8259,Ni71Fe27Cr0_3,-242.384015539627, 215.858591813,Ni71Fe27Cr0,"# generated using pymatgen
 data_CrFe15Ni38
_symmetry_space_group_name_H-M   'P 1'
_cell_length_a   7.41424464
_cell_length_b   7.41424464
_cell_length_c   10.48532532
_cell_angle_alpha   90.00000000
_cell_angle_beta   90.00000000
_cell_angle_gamma   90.00000000
_symmetry_Int_Tables_number   1
_chemical_formula_structural   CrFe15Ni38
_chemical_formula_sum   'Cr1 Fe15 Ni38'
_cell_volume   576.38906505
_cell_formula_units_Z   1
loop_
 _symmetry_equiv_pos_site_id
 _symmetry_equiv_pos_as_xyz
  1  'x, y, z'
loop_
 _atom_site_type_symbol
 _atom_site_label
 _atom_site_symmetry_multiplicity
 _atom_site_fract_x
 _atom_site_fract_y
 _atom_site_fract_z
 _atom_site_occupancy
  Fe  Fe0  1  1.00310087  0.00493980  1.00312064  1
  Ni  Ni1  1  0.17147107  0.16966100  0.16967299  1
  Fe  Fe2  1  0.00420210  1.00163822  0.33770202  1
  Ni  Ni3  1  1.00325680  0.33742931  1.00297830  1
  Fe  Fe4  1  0.17057320  0.50365538  0.16988150  1
  Cr  Cr5  1  0.00359862  0.33724799  0.33787464  1
  Fe  Fe6  1  1.00277179  0.66947161  0.00401911  1
  Fe  Fe7  1  0.17012013  0.83773924  0.17082316  1
  Ni  Ni8  1  1.00344256  0.67122148  0.33728746  1
  Ni  Ni9  1  0.33764327  1.00348281  1.00344875  1
  Ni  Ni10  1  0.50308263  0.16995670  0.17034651  1
  Ni  Ni11  1  0.33831313  1.00296206  0.33734358  1
  Ni  Ni12  1  0.33597446  0.33630181  1.00328475  1
  Fe  Fe13  1  0.50430618  0.50291315  0.17015764  1
  Ni  Ni14  1  0.33782102  0.33682573  0.33730634  1
  Fe  Fe15  1  0.33809450  0.67005482  1.00276981  1
  Ni  Ni16  1  0.50388876  0.83697898  0.17097883  1
  Ni  Ni17  1  0.33642772  0.67089594  0.33648610  1
  Ni  Ni18  1  0.66975547  1.00270030  1.00274725  1
  Ni  Ni19  1  0.83612795  0.16963436  0.16950727  1
  Ni  Ni20  1  0.66971755  1.00293419  0.33706681  1
  Ni  Ni21  1  0.67145145  0.33711572  0.00427258  1
  Ni  Ni22  1  0.83617851  0.50489344  0.17009109  1
  Fe  Fe23  1  0.66774697  0.33653086  0.33701988  1
  Ni  Ni24  1  0.67088088  0.67086672  0.00377375  1
  Ni  Ni25  1  0.83647736  0.83615487  0.16993390  1
  Fe  Fe26  1  0.66977537  0.67076560  0.33608489  1
  Ni  Ni27  1  0.17125105  0.16943871  0.50458742  1
  Ni  Ni28  1  0.00369322  0.00403226  0.66968941  1
  Ni  Ni29  1  0.17017666  0.17018073  0.83642280  1
  Ni  Ni30  1  0.17204028  0.50489886  0.50441943  1
  Ni  Ni31  1  1.00290945  0.33670208  0.67035971  1
  Ni  Ni32  1  0.17017714  0.50384104  0.83693453  1
  Ni  Ni33  1  0.16933378  0.83634423  0.50252078  1
  Fe  Fe34  1  0.00491398  0.66986827  0.66961174  1
  Ni  Ni35  1  0.17098169  0.83666156  0.83729988  1
  Ni  Ni36  1  0.50345168  0.17136459  0.50318122  1
  Ni  Ni37  1  0.33647920  1.00270154  0.66989024  1
  Ni  Ni38  1  0.50367517  0.17019027  0.83715443  1
  Ni  Ni39  1  0.50264685  0.50296383  0.50284874  1
  Ni  Ni40  1  0.33644245  0.33720877  0.67009300  1
  Ni  Ni41  1  0.50370460  0.50385923  0.83772109  1
  Fe  Fe42  1  0.50249758  0.83751268  0.50321267  1
  Ni  Ni43  1  0.33696341  0.67077389  0.67047475  1
  Ni  Ni44  1  0.50289181  0.83663338  0.83633663  1
  Ni  Ni45  1  0.83597700  0.16865301  0.50366010  1
  Fe  Fe46  1  0.66995070  0.00491143  0.67003902  1
  Ni  Ni47  1  0.83682961  0.17099455  0.83751688  1
  Fe  Fe48  1  0.83681671  0.50370152  0.50447915  1
  Ni  Ni49  1  0.67133200  0.33718534  0.67013795  1
  Ni  Ni50  1  0.83680414  0.50305977  0.83633969  1
  Ni  Ni51  1  0.83791504  0.83714626  0.50328989  1
  Fe  Fe52  1  0.66955857  0.66950106  0.67097643  1
  Fe  Fe53  1  0.83667525  0.83698844  0.83711217  1
" 