1919,Ni71Fe9Cr19_10,-232.738031517597, 171.082522337834,Ni71Fe9Cr19,"# generated using pymatgen
 data_Cr11Fe5Ni38
_symmetry_space_group_name_H-M   'P 1'
_cell_length_a   7.45952933
_cell_length_b   7.45952933
_cell_length_c   10.54936754
_cell_angle_alpha   90.00000000
_cell_angle_beta   90.00000000
_cell_angle_gamma   90.00000000
_symmetry_Int_Tables_number   1
_chemical_formula_structural   Cr11Fe5Ni38
_chemical_formula_sum   'Cr11 Fe5 Ni38'
_cell_volume   587.01510257
_cell_formula_units_Z   1
loop_
 _symmetry_equiv_pos_site_id
 _symmetry_equiv_pos_as_xyz
  1  'x, y, z'
loop_
 _atom_site_type_symbol
 _atom_site_label
 _atom_site_symmetry_multiplicity
 _atom_site_fract_x
 _atom_site_fract_y
 _atom_site_fract_z
 _atom_site_occupancy
  Ni  Ni0  1  0.00167213  0.00237082  0.00080724  1
  Ni  Ni1  1  0.16604497  0.16714985  0.16507043  1
  Fe  Fe2  1  0.00090404  0.00187845  0.33492107  1
  Ni  Ni3  1  0.00260222  0.33314619  0.00101841  1
  Ni  Ni4  1  0.16469469  0.49933228  0.16633639  1
  Ni  Ni5  1  0.99790180  0.33459351  0.33345136  1
  Fe  Fe6  1  0.00174781  0.66649926  0.99927663  1
  Ni  Ni7  1  0.16629515  0.83507584  0.16648320  1
  Ni  Ni8  1  0.99931485  0.66532443  0.33429946  1
  Ni  Ni9  1  0.33311312  0.00172270  0.00141796  1
  Ni  Ni10  1  0.49999805  0.16773114  0.16563917  1
  Cr  Cr11  1  0.33142534  0.00120485  0.33240574  1
  Ni  Ni12  1  0.33104463  0.33215477  0.00116667  1
  Ni  Ni13  1  0.50162347  0.49910087  0.16856058  1
  Cr  Cr14  1  0.33201657  0.33200954  0.33223394  1
  Cr  Cr15  1  0.33260086  0.66678294  0.00098290  1
  Ni  Ni16  1  0.49980072  0.83473910  0.16562175  1
  Cr  Cr17  1  0.33196843  0.66819047  0.33208720  1
  Ni  Ni18  1  0.66673854  0.00096387  0.99941826  1
  Ni  Ni19  1  0.83553080  0.16912036  0.16681112  1
  Cr  Cr20  1  0.66796959  0.00262156  0.33408637  1
  Cr  Cr21  1  0.66839599  0.33275163  0.00103177  1
  Ni  Ni22  1  0.83513490  0.49900074  0.16946422  1
  Ni  Ni23  1  0.67117540  0.33470799  0.33271547  1
  Cr  Cr24  1  0.66744069  0.66770439  1.00001484  1
  Cr  Cr25  1  0.83590945  0.83349636  0.16782411  1
  Ni  Ni26  1  0.67052526  0.66477805  0.33234160  1
  Ni  Ni27  1  0.16554109  0.16608633  0.50221736  1
  Ni  Ni28  1  0.00067026  1.00049284  0.66583114  1
  Ni  Ni29  1  0.16877154  0.16668775  0.83429207  1
  Fe  Fe30  1  0.16305181  0.49994514  0.50237517  1
  Ni  Ni31  1  0.00062251  0.33389629  0.66700073  1
  Ni  Ni32  1  0.16650050  0.49950762  0.83222666  1
  Ni  Ni33  1  0.16273700  0.83483823  0.50221991  1
  Ni  Ni34  1  0.00247977  0.66713391  0.66746002  1
  Ni  Ni35  1  0.16479676  0.83531451  0.83281805  1
  Ni  Ni36  1  0.50085322  0.16880788  0.50333099  1
  Ni  Ni37  1  0.33267978  0.00127741  0.66786288  1
  Ni  Ni38  1  0.49872106  0.16720164  0.83247928  1
  Cr  Cr39  1  0.50218896  0.49721362  0.50119094  1
  Ni  Ni40  1  0.33246630  0.33279860  0.66803982  1
  Ni  Ni41  1  0.49905624  0.49710319  0.83180482  1
  Cr  Cr42  1  0.50042322  0.83488545  0.50300750  1
  Ni  Ni43  1  0.32981351  0.66742355  0.66855569  1
  Fe  Fe44  1  0.49863777  0.83622882  0.83329575  1
  Ni  Ni45  1  0.83508080  0.16840356  0.50194754  1
  Ni  Ni46  1  0.66817034  0.00320675  0.66851520  1
  Fe  Fe47  1  0.83590339  0.16680862  0.83300119  1
  Ni  Ni48  1  0.83570984  0.49995031  0.49896288  1
  Ni  Ni49  1  0.66839483  0.33107769  0.66736398  1
  Ni  Ni50  1  0.83600214  0.50108678  0.83305108  1
  Ni  Ni51  1  0.83841545  0.83323962  0.50024256  1
  Cr  Cr52  1  0.66945512  0.66741536  0.66915259  1
  Ni  Ni53  1  0.83647997  0.83502922  0.83347900  1
" 