730,Ni71Fe27Cr0_9,-242.026812897635, 214.779138271445,Ni71Fe27Cr0,"# generated using pymatgen
 data_CrFe15Ni38
_symmetry_space_group_name_H-M   'P 1'
_cell_length_a   7.41606678
_cell_length_b   7.41606678
_cell_length_c   10.48790222
_cell_angle_alpha   90.00000000
_cell_angle_beta   90.00000000
_cell_angle_gamma   90.00000000
_symmetry_Int_Tables_number   1
_chemical_formula_structural   CrFe15Ni38
_chemical_formula_sum   'Cr1 Fe15 Ni38'
_cell_volume   576.81413421
_cell_formula_units_Z   1
loop_
 _symmetry_equiv_pos_site_id
 _symmetry_equiv_pos_as_xyz
  1  'x, y, z'
loop_
 _atom_site_type_symbol
 _atom_site_label
 _atom_site_symmetry_multiplicity
 _atom_site_fract_x
 _atom_site_fract_y
 _atom_site_fract_z
 _atom_site_occupancy
  Fe  Fe0  1  1.00305814  0.00408569  1.00323043  1
  Ni  Ni1  1  0.17082455  0.17002192  0.17050460  1
  Ni  Ni2  1  1.00341216  0.00449504  0.33612201  1
  Fe  Fe3  1  1.00226854  0.33597971  0.00400688  1
  Ni  Ni4  1  0.17041284  0.50189430  0.16832343  1
  Ni  Ni5  1  1.00319023  0.33511956  0.33632808  1
  Fe  Fe6  1  0.00368298  0.67012723  1.00308210  1
  Ni  Ni7  1  0.17135681  0.83852795  0.16942853  1
  Cr  Cr8  1  1.00267019  0.67101099  0.33655171  1
  Ni  Ni9  1  0.33631232  0.00482327  1.00297702  1
  Ni  Ni10  1  0.50300112  0.16997544  0.16879733  1
  Ni  Ni11  1  0.33581446  0.00444111  0.33672435  1
  Ni  Ni12  1  0.33697676  0.33630323  0.00383618  1
  Ni  Ni13  1  0.50415359  0.50249559  0.17103984  1
  Ni  Ni14  1  0.33706741  0.33605462  0.33628673  1
  Fe  Fe15  1  0.33995544  0.67042693  0.00368861  1
  Ni  Ni16  1  0.50331747  0.83800800  0.17060330  1
  Ni  Ni17  1  0.33806064  0.66988805  0.33591901  1
  Ni  Ni18  1  0.66964816  1.00303944  0.00344912  1
  Fe  Fe19  1  0.83615656  0.17007404  0.16940947  1
  Fe  Fe20  1  0.66944905  0.00349268  0.33698540  1
  Ni  Ni21  1  0.66894460  0.33756216  1.00298496  1
  Ni  Ni22  1  0.83594141  0.50200319  0.16905026  1
  Ni  Ni23  1  0.67001922  0.33728987  0.33667267  1
  Ni  Ni24  1  0.67153845  0.66955927  1.00338310  1
  Ni  Ni25  1  0.83583336  0.83725109  0.16847731  1
  Ni  Ni26  1  0.66990581  0.66972626  0.33682982  1
  Fe  Fe27  1  0.17033078  0.16927625  0.50266685  1
  Ni  Ni28  1  0.00364335  1.00288128  0.67095395  1
  Fe  Fe29  1  0.17050743  0.17048979  0.83729027  1
  Ni  Ni30  1  0.16957374  0.50253119  0.50471943  1
  Fe  Fe31  1  0.00365378  0.33664961  0.66981950  1
  Fe  Fe32  1  0.17083904  0.50394483  0.83630022  1
  Ni  Ni33  1  0.17144799  0.83724284  0.50430163  1
  Ni  Ni34  1  1.00264174  0.67069258  0.67098502  1
  Ni  Ni35  1  0.17103726  0.83766238  0.83640351  1
  Ni  Ni36  1  0.50344301  0.16990278  0.50476538  1
  Ni  Ni37  1  0.33624788  0.00483649  0.67068230  1
  Fe  Fe38  1  0.50413522  0.16995240  0.83715955  1
  Fe  Fe39  1  0.50291616  0.50507017  0.50336417  1
  Ni  Ni40  1  0.33671554  0.33610967  0.67024861  1
  Ni  Ni41  1  0.50463469  0.50350227  0.83570603  1
  Ni  Ni42  1  0.50263732  0.83886741  0.50363204  1
  Ni  Ni43  1  0.33669882  0.66970360  0.67018135  1
  Ni  Ni44  1  0.50192280  0.83710029  0.83621532  1
  Fe  Fe45  1  0.83700630  0.16875349  0.50396594  1
  Ni  Ni46  1  0.67039335  1.00285604  0.67106162  1
  Ni  Ni47  1  0.83682754  0.17124490  0.83645277  1
  Ni  Ni48  1  0.83684451  0.50161991  0.50482893  1
  Fe  Fe49  1  0.66940485  0.33636561  0.67032488  1
  Ni  Ni50  1  0.83672546  0.50131981  0.83629894  1
  Ni  Ni51  1  0.83613562  0.83694957  0.50576331  1
  Ni  Ni52  1  0.67086554  0.67020183  0.67023655  1
  Fe  Fe53  1  0.83540613  0.83620450  0.83658784  1
" 