1934,Ni71Fe27Cr0_15,-242.312802894324, 215.234881399416,Ni71Fe27Cr0,"# generated using pymatgen
 data_CrFe15Ni38
_symmetry_space_group_name_H-M   'P 1'
_cell_length_a   7.41876065
_cell_length_b   7.41876065
_cell_length_c   10.49171192
_cell_angle_alpha   90.00000000
_cell_angle_beta   90.00000000
_cell_angle_gamma   90.00000000
_symmetry_Int_Tables_number   1
_chemical_formula_structural   CrFe15Ni38
_chemical_formula_sum   'Cr1 Fe15 Ni38'
_cell_volume   577.44294090
_cell_formula_units_Z   1
loop_
 _symmetry_equiv_pos_site_id
 _symmetry_equiv_pos_as_xyz
  1  'x, y, z'
loop_
 _atom_site_type_symbol
 _atom_site_label
 _atom_site_symmetry_multiplicity
 _atom_site_fract_x
 _atom_site_fract_y
 _atom_site_fract_z
 _atom_site_occupancy
  Ni  Ni0  1  0.00492935  1.00281114  1.00312108  1
  Ni  Ni1  1  0.16902109  0.17092805  0.16971089  1
  Ni  Ni2  1  0.00467051  1.00255574  0.33712809  1
  Ni  Ni3  1  0.00343750  0.33676870  0.00492473  1
  Ni  Ni4  1  0.16867103  0.50270875  0.16884191  1
  Fe  Fe5  1  0.00428527  0.33612917  0.33663314  1
  Ni  Ni6  1  1.00190728  0.67019350  0.00396131  1
  Ni  Ni7  1  0.16894085  0.83612055  0.16915748  1
  Ni  Ni8  1  1.00172606  0.67042911  0.33629049  1
  Ni  Ni9  1  0.33609074  0.00429280  0.00437075  1
  Ni  Ni10  1  0.50376847  0.16918471  0.16916210  1
  Ni  Ni11  1  0.33619368  0.00489788  0.33629204  1
  Ni  Ni12  1  0.33603784  0.33373622  1.00198081  1
  Cr  Cr13  1  0.50199750  0.50339527  0.16948028  1
  Ni  Ni14  1  0.33614400  0.33377776  0.33805953  1
  Fe  Fe15  1  0.33510924  0.67074348  1.00205293  1
  Ni  Ni16  1  0.50417453  0.83753854  0.16948256  1
  Fe  Fe17  1  0.33503648  0.67125714  0.33819401  1
  Fe  Fe18  1  0.67047241  0.00333489  1.00325139  1
  Ni  Ni19  1  0.83699353  0.16944563  0.16881823  1
  Fe  Fe20  1  0.67004403  1.00277193  0.33706576  1
  Ni  Ni21  1  0.67029022  0.33675288  1.00306907  1
  Fe  Fe22  1  0.83850304  0.50381013  0.16924304  1
  Fe  Fe23  1  0.67043496  0.33497557  0.33762628  1
  Ni  Ni24  1  0.67178207  0.67023569  1.00217017  1
  Ni  Ni25  1  0.83665382  0.83720088  0.16907968  1
  Ni  Ni26  1  0.67190286  0.67047259  0.33816716  1
  Ni  Ni27  1  0.16926052  0.17102928  0.50339239  1
  Fe  Fe28  1  1.00279756  1.00264693  0.66975342  1
  Ni  Ni29  1  0.16936960  0.17080447  0.83666716  1
  Ni  Ni30  1  0.17096046  0.50291372  0.50395961  1
  Ni  Ni31  1  1.00280989  0.33710752  0.66919279  1
  Fe  Fe32  1  0.16931723  0.50425929  0.83661367  1
  Ni  Ni33  1  0.16923509  0.83582428  0.50397691  1
  Ni  Ni34  1  1.00297260  0.66941752  0.66950787  1
  Ni  Ni35  1  0.16939168  0.83667902  0.83662728  1
  Ni  Ni36  1  0.50389020  0.17127804  0.50372115  1
  Ni  Ni37  1  0.33704598  1.00305325  0.66909926  1
  Fe  Fe38  1  0.50270188  0.16844402  0.83667039  1
  Ni  Ni39  1  0.50277140  0.50323593  0.50421786  1
  Fe  Fe40  1  0.33684234  0.33704707  0.66913960  1
  Fe  Fe41  1  0.50343932  0.50422932  0.83634886  1
  Ni  Ni42  1  0.50423339  0.83525257  0.50343834  1
  Ni  Ni43  1  0.33656649  0.67143300  0.66916406  1
  Ni  Ni44  1  0.50429632  0.83523699  0.83683949  1
  Ni  Ni45  1  0.83661640  0.16955765  0.50424348  1
  Ni  Ni46  1  0.66840437  1.00320415  0.66948696  1
  Fe  Fe47  1  0.83708084  0.16912413  0.83651610  1
  Fe  Fe48  1  0.83650485  0.50366799  0.50384944  1
  Ni  Ni49  1  0.67042134  0.33661602  0.66918064  1
  Fe  Fe50  1  0.83700540  0.50422328  0.83667516  1
  Ni  Ni51  1  0.83628688  0.83694902  0.50414140  1
  Ni  Ni52  1  0.67022481  0.66993605  0.66943382  1
  Ni  Ni53  1  0.83607140  0.83609743  0.83654461  1
" 