323,Ni71Fe27Cr0_14,-242.109307913753, 210.196532619168,Ni71Fe27Cr0,"# generated using pymatgen
 data_CrFe15Ni38
_symmetry_space_group_name_H-M   'P 1'
_cell_length_a   7.42050248
_cell_length_b   7.42050248
_cell_length_c   10.49417525
_cell_angle_alpha   90.00000000
_cell_angle_beta   90.00000000
_cell_angle_gamma   90.00000000
_symmetry_Int_Tables_number   1
_chemical_formula_structural   CrFe15Ni38
_chemical_formula_sum   'Cr1 Fe15 Ni38'
_cell_volume   577.84976571
_cell_formula_units_Z   1
loop_
 _symmetry_equiv_pos_site_id
 _symmetry_equiv_pos_as_xyz
  1  'x, y, z'
loop_
 _atom_site_type_symbol
 _atom_site_label
 _atom_site_symmetry_multiplicity
 _atom_site_fract_x
 _atom_site_fract_y
 _atom_site_fract_z
 _atom_site_occupancy
  Ni  Ni0  1  1.00202607  1.00245603  0.00349287  1
  Ni  Ni1  1  0.16944926  0.17051818  0.16896807  1
  Ni  Ni2  1  1.00116446  1.00188766  0.33649059  1
  Ni  Ni3  1  0.00333501  0.33650624  0.00330967  1
  Ni  Ni4  1  0.16929148  0.50303725  0.16961469  1
  Ni  Ni5  1  0.00334988  0.33685695  0.33745193  1
  Ni  Ni6  1  1.00288360  0.67070130  1.00211038  1
  Ni  Ni7  1  0.16954277  0.83607357  0.16847359  1
  Ni  Ni8  1  0.00319125  0.67080189  0.33742658  1
  Ni  Ni9  1  0.33727878  1.00300341  1.00273909  1
  Ni  Ni10  1  0.50279939  0.16998517  0.16907966  1
  Fe  Fe11  1  0.33584846  0.00488142  0.33519764  1
  Ni  Ni12  1  0.33708755  0.33689828  0.00321706  1
  Ni  Ni13  1  0.50308060  0.50328383  0.16887631  1
  Ni  Ni14  1  0.33758106  0.33776182  0.33665657  1
  Ni  Ni15  1  0.33690412  0.66971920  1.00255937  1
  Ni  Ni16  1  0.50321636  0.83614516  0.16938748  1
  Fe  Fe17  1  0.33666362  0.66976651  0.33499367  1
  Ni  Ni18  1  0.67008103  1.00254998  1.00249403  1
  Ni  Ni19  1  0.83696497  0.17046617  0.16964248  1
  Ni  Ni20  1  0.67012111  1.00245555  0.33748275  1
  Ni  Ni21  1  0.66901365  0.33580844  1.00227697  1
  Ni  Ni22  1  0.83716405  0.50304634  0.16921858  1
  Ni  Ni23  1  0.66852933  0.33558769  0.33823880  1
  Ni  Ni24  1  0.66960309  0.67080748  0.00387429  1
  Ni  Ni25  1  0.83665187  0.83569977  0.16928816  1
  Fe  Fe26  1  0.67167275  0.66885290  0.33585674  1
  Ni  Ni27  1  0.16888277  0.16930709  0.50208571  1
  Ni  Ni28  1  1.00215383  1.00214759  0.66927488  1
  Ni  Ni29  1  0.16838610  0.17070697  0.83825283  1
  Fe  Fe30  1  0.16917390  0.50309095  0.50136669  1
  Ni  Ni31  1  0.00359339  0.33592595  0.66879760  1
  Fe  Fe32  1  0.16837313  0.50300395  0.83832463  1
  Fe  Fe33  1  0.16933466  0.83762021  0.50222727  1
  Fe  Fe34  1  1.00284720  0.66946168  0.66983108  1
  Fe  Fe35  1  0.16919762  0.83944752  0.83781143  1
  Ni  Ni36  1  0.50242757  0.16875144  0.50325535  1
  Fe  Fe37  1  0.33489121  1.00282018  0.67071658  1
  Ni  Ni38  1  0.50313528  0.16837318  0.83718620  1
  Ni  Ni39  1  0.50406126  0.50529578  0.50313305  1
  Cr  Cr40  1  0.33725215  0.33699233  0.66992296  1
  Fe  Fe41  1  0.50501699  0.50303156  0.83792406  1
  Ni  Ni42  1  0.50282099  0.83558161  0.50358906  1
  Fe  Fe43  1  0.33543711  0.67181836  0.67038421  1
  Ni  Ni44  1  0.50363772  0.83543681  0.83625645  1
  Ni  Ni45  1  0.83808742  0.16993156  0.50371543  1
  Fe  Fe46  1  0.67041613  0.00391502  0.66987656  1
  Ni  Ni47  1  0.83815346  0.16949506  0.83612253  1
  Ni  Ni48  1  0.83667754  0.50358007  0.50396056  1
  Fe  Fe49  1  0.67236642  0.33511850  0.66918197  1
  Fe  Fe50  1  0.83605739  0.50184936  0.83721115  1
  Ni  Ni51  1  0.83573813  0.83549484  0.50360284  1
  Fe  Fe52  1  0.67092048  0.66996212  0.67017841  1
  Ni  Ni53  1  0.83582216  0.83563971  0.83675012  1
" 