5877,Ni71Fe27Cr0_7,-242.00358997138, 215.695193671072,Ni71Fe27Cr0,"# generated using pymatgen
 data_CrFe15Ni38
_symmetry_space_group_name_H-M   'P 1'
_cell_length_a   7.41326418
_cell_length_b   7.41326418
_cell_length_c   10.48393875
_cell_angle_alpha   90.00000000
_cell_angle_beta   90.00000000
_cell_angle_gamma   90.00000000
_symmetry_Int_Tables_number   1
_chemical_formula_structural   CrFe15Ni38
_chemical_formula_sum   'Cr1 Fe15 Ni38'
_cell_volume   576.16043114
_cell_formula_units_Z   1
loop_
 _symmetry_equiv_pos_site_id
 _symmetry_equiv_pos_as_xyz
  1  'x, y, z'
loop_
 _atom_site_type_symbol
 _atom_site_label
 _atom_site_symmetry_multiplicity
 _atom_site_fract_x
 _atom_site_fract_y
 _atom_site_fract_z
 _atom_site_occupancy
  Ni  Ni0  1  0.00483337  0.00409592  0.00392821  1
  Ni  Ni1  1  0.16924498  0.17007618  0.16870019  1
  Fe  Fe2  1  1.00304829  0.00409691  0.33686184  1
  Ni  Ni3  1  0.00391679  0.33651254  0.00366069  1
  Ni  Ni4  1  0.16877766  0.50435305  0.16936147  1
  Ni  Ni5  1  1.00218869  0.33637949  0.33739848  1
  Fe  Fe6  1  1.00304425  0.67048086  1.00330707  1
  Ni  Ni7  1  0.17113478  0.83645222  0.17160039  1
  Fe  Fe8  1  1.00347247  0.66902693  0.33698646  1
  Ni  Ni9  1  0.33603031  1.00351080  0.00440014  1
  Ni  Ni10  1  0.50501762  0.16861475  0.17007400  1
  Fe  Fe11  1  0.33750553  1.00201238  0.33637388  1
  Fe  Fe12  1  0.33738128  0.33602017  1.00327623  1
  Fe  Fe13  1  0.50517265  0.50472095  0.16999971  1
  Cr  Cr14  1  0.33658656  0.33686691  0.33564425  1
  Fe  Fe15  1  0.33705811  0.67102486  0.00397533  1
  Ni  Ni16  1  0.50349219  0.83754292  0.17042772  1
  Ni  Ni17  1  0.33739380  0.67231532  0.33721024  1
  Ni  Ni18  1  0.67002015  1.00299259  0.00382979  1
  Ni  Ni19  1  0.83662315  0.17097565  0.17064639  1
  Fe  Fe20  1  0.67032634  1.00352520  0.33679964  1
  Ni  Ni21  1  0.67063737  0.33792134  0.00447387  1
  Ni  Ni22  1  0.83771754  0.50283146  0.17137305  1
  Ni  Ni23  1  0.67248723  0.33784557  0.33663139  1
  Ni  Ni24  1  0.67004796  0.66996742  0.00384438  1
  Ni  Ni25  1  0.83625496  0.83707498  0.16951484  1
  Ni  Ni26  1  0.66988755  0.67027617  0.33688777  1
  Ni  Ni27  1  0.16834861  0.17068435  0.50515155  1
  Ni  Ni28  1  0.00459894  1.00269677  0.67048491  1
  Fe  Fe29  1  0.17090959  0.17024601  0.83689323  1
  Ni  Ni30  1  0.17029814  0.50363109  0.50482819  1
  Fe  Fe31  1  1.00330043  0.33647709  0.67013618  1
  Ni  Ni32  1  0.16999814  0.50435290  0.83668872  1
  Fe  Fe33  1  0.17025149  0.83709773  0.50412405  1
  Ni  Ni34  1  1.00318771  0.67101960  0.67000943  1
  Ni  Ni35  1  0.17113331  0.83630851  0.83615933  1
  Fe  Fe36  1  0.50451252  0.16980243  0.50517060  1
  Ni  Ni37  1  0.33610041  0.00453644  0.66955086  1
  Ni  Ni38  1  0.50499420  0.16960150  0.83591989  1
  Ni  Ni39  1  0.50347931  0.50557648  0.50461559  1
  Ni  Ni40  1  0.33721634  0.33639682  0.67053034  1
  Ni  Ni41  1  0.50357757  0.50385448  0.83721960  1
  Ni  Ni42  1  0.50423773  0.83605813  0.50382409  1
  Fe  Fe43  1  0.33754196  0.67045379  0.66995151  1
  Ni  Ni44  1  0.50306010  0.83742693  0.83663089  1
  Ni  Ni45  1  0.83761047  0.16992778  0.50318868  1
  Ni  Ni46  1  0.67018349  1.00317183  0.67049944  1
  Ni  Ni47  1  0.83619083  0.17073288  0.83705046  1
  Fe  Fe48  1  0.83643377  0.50367231  0.50346939  1
  Ni  Ni49  1  0.66911043  0.33780899  0.66977957  1
  Ni  Ni50  1  0.83730631  0.50242058  0.83585895  1
  Ni  Ni51  1  0.83566715  0.83800451  0.50428090  1
  Ni  Ni52  1  0.67095190  0.66990123  0.67015101  1
  Fe  Fe53  1  0.83638329  0.83651099  0.83653095  1
" 