4014,Ni71Fe27Cr0_1,-242.045628078733, 215.863229213622,Ni71Fe27Cr0,"# generated using pymatgen
 data_CrFe15Ni38
_symmetry_space_group_name_H-M   'P 1'
_cell_length_a   7.41418890
_cell_length_b   7.41418890
_cell_length_c   10.48524650
_cell_angle_alpha   90.00000000
_cell_angle_beta   90.00000000
_cell_angle_gamma   90.00000000
_symmetry_Int_Tables_number   1
_chemical_formula_structural   CrFe15Ni38
_chemical_formula_sum   'Cr1 Fe15 Ni38'
_cell_volume   576.37606711
_cell_formula_units_Z   1
loop_
 _symmetry_equiv_pos_site_id
 _symmetry_equiv_pos_as_xyz
  1  'x, y, z'
loop_
 _atom_site_type_symbol
 _atom_site_label
 _atom_site_symmetry_multiplicity
 _atom_site_fract_x
 _atom_site_fract_y
 _atom_site_fract_z
 _atom_site_occupancy
  Ni  Ni0  1  0.00376512  0.00481070  1.00353853  1
  Ni  Ni1  1  0.17060639  0.17016688  0.17013285  1
  Ni  Ni2  1  1.00272868  1.00272602  0.33741821  1
  Ni  Ni3  1  0.00399342  0.33666064  1.00329356  1
  Fe  Fe4  1  0.17027862  0.50345925  0.17029310  1
  Fe  Fe5  1  1.00333999  0.33712099  0.33698325  1
  Fe  Fe6  1  0.00450034  0.66974746  0.00407025  1
  Fe  Fe7  1  0.16967052  0.83650615  0.17014680  1
  Ni  Ni8  1  0.00372554  0.67112130  0.33627800  1
  Ni  Ni9  1  0.33696380  1.00330798  1.00349298  1
  Fe  Fe10  1  0.50395079  0.17077204  0.16986021  1
  Fe  Fe11  1  0.33691458  1.00313375  0.33731263  1
  Ni  Ni12  1  0.33625127  0.33767836  1.00300300  1
  Ni  Ni13  1  0.50390580  0.50353166  0.17027588  1
  Ni  Ni14  1  0.33728228  0.33788990  0.33702132  1
  Ni  Ni15  1  0.33772212  0.66970658  1.00287691  1
  Fe  Fe16  1  0.50433186  0.83620906  0.16994652  1
  Ni  Ni17  1  0.33659027  0.66904178  0.33717704  1
  Ni  Ni18  1  0.66996667  1.00333943  0.00414620  1
  Fe  Fe19  1  0.83694426  0.17016358  0.17021014  1
  Ni  Ni20  1  0.67142438  1.00341994  0.33698889  1
  Fe  Fe21  1  0.66987515  0.33694260  1.00312811  1
  Ni  Ni22  1  0.83584659  0.50449358  0.17040753  1
  Ni  Ni23  1  0.66934583  0.33689352  0.33645984  1
  Ni  Ni24  1  0.66894707  0.66993635  0.00413798  1
  Ni  Ni25  1  0.83658808  0.83658915  0.17052787  1
  Ni  Ni26  1  0.67037890  0.67038029  0.33748426  1
  Ni  Ni27  1  0.16973987  0.17079058  0.50414719  1
  Ni  Ni28  1  0.00407367  0.00364454  0.66973760  1
  Fe  Fe29  1  0.17054761  0.17055014  0.83713775  1
  Ni  Ni30  1  0.17076482  0.50290938  0.50250885  1
  Ni  Ni31  1  0.00359136  0.33743144  0.66985526  1
  Ni  Ni32  1  0.17079393  0.50338119  0.83782795  1
  Ni  Ni33  1  0.17020757  0.83699428  0.50302153  1
  Ni  Ni34  1  0.00441155  0.66961904  0.66996298  1
  Ni  Ni35  1  0.17211072  0.83680057  0.83703546  1
  Fe  Fe36  1  0.50333641  0.16959528  0.50420005  1
  Ni  Ni37  1  0.33702479  1.00356198  0.67036248  1
  Ni  Ni38  1  0.50368703  0.17048622  0.83711599  1
  Fe  Fe39  1  0.50303015  0.50350020  0.50284616  1
  Ni  Ni40  1  0.33699972  0.33700811  0.67067106  1
  Ni  Ni41  1  0.50295500  0.50295843  0.83688946  1
  Ni  Ni42  1  0.50416230  0.83672423  0.50322262  1
  Fe  Fe43  1  0.33621587  0.67051907  0.67046009  1
  Ni  Ni44  1  0.50166632  0.83724877  0.83757468  1
  Ni  Ni45  1  0.83730192  0.16952592  0.50282344  1
  Ni  Ni46  1  0.66959530  0.00438130  0.66955898  1
  Ni  Ni47  1  0.83649579  0.17180277  0.83773772  1
  Fe  Fe48  1  0.83780624  0.50408599  0.50358455  1
  Ni  Ni49  1  0.67010350  0.33666992  0.67115160  1
  Ni  Ni50  1  0.83694397  0.50135898  0.83685589  1
  Ni  Ni51  1  0.83632447  0.83774994  0.50339415  1
  Fe  Fe52  1  0.66972306  0.66966693  0.66978690  1
  Cr  Cr53  1  0.83704246  0.83777958  0.83641152  1
" 