4071,Ni71Fe9Cr19_5,-232.777064685934, 172.051414570184,Ni71Fe9Cr19,"# generated using pymatgen
 data_Cr11Fe5Ni38
_symmetry_space_group_name_H-M   'P 1'
_cell_length_a   7.45830485
_cell_length_b   7.45830485
_cell_length_c   10.54763588
_cell_angle_alpha   90.00000000
_cell_angle_beta   90.00000000
_cell_angle_gamma   90.00000000
_symmetry_Int_Tables_number   1
_chemical_formula_structural   Cr11Fe5Ni38
_chemical_formula_sum   'Cr11 Fe5 Ni38'
_cell_volume   586.72607675
_cell_formula_units_Z   1
loop_
 _symmetry_equiv_pos_site_id
 _symmetry_equiv_pos_as_xyz
  1  'x, y, z'
loop_
 _atom_site_type_symbol
 _atom_site_label
 _atom_site_symmetry_multiplicity
 _atom_site_fract_x
 _atom_site_fract_y
 _atom_site_fract_z
 _atom_site_occupancy
  Ni  Ni0  1  0.00369492  0.99958928  0.99960642  1
  Ni  Ni1  1  0.16830284  0.16544980  0.16819121  1
  Ni  Ni2  1  0.00116140  0.00114635  0.33506466  1
  Cr  Cr3  1  0.00135560  0.33437985  0.00121010  1
  Ni  Ni4  1  0.16835143  0.50184879  0.16989438  1
  Ni  Ni5  1  0.00206367  0.33511269  0.33410666  1
  Cr  Cr6  1  0.00174848  0.66697162  1.00008773  1
  Ni  Ni7  1  0.16972872  0.83443741  0.16791313  1
  Ni  Ni8  1  0.00247617  0.66548512  0.33496517  1
  Ni  Ni9  1  0.33362023  0.99887958  1.00042225  1
  Ni  Ni10  1  0.49948482  0.16772909  0.16881026  1
  Ni  Ni11  1  0.33523665  0.00119952  0.33363876  1
  Cr  Cr12  1  0.33463924  0.33396297  1.00034134  1
  Ni  Ni13  1  0.50057084  0.50076344  0.16612304  1
  Ni  Ni14  1  0.33232442  0.33309310  0.33270412  1
  Ni  Ni15  1  0.33566598  0.66874178  0.00117489  1
  Ni  Ni16  1  0.49698222  0.83326796  0.16729553  1
  Ni  Ni17  1  0.33186656  0.66745504  0.33245201  1
  Cr  Cr18  1  0.66471303  1.00016049  1.00025193  1
  Cr  Cr19  1  0.83451071  0.16835417  0.16853963  1
  Ni  Ni20  1  0.66538634  0.00165021  0.33563912  1
  Ni  Ni21  1  0.66565391  0.33653533  0.00080407  1
  Ni  Ni22  1  0.83280813  0.49932043  0.16811225  1
  Fe  Fe23  1  0.66693104  0.33193761  0.33299045  1
  Fe  Fe24  1  0.66449774  0.66497133  0.99960479  1
  Cr  Cr25  1  0.83557611  0.83420349  0.16693863  1
  Cr  Cr26  1  0.66730210  0.66909078  0.33345455  1
  Ni  Ni27  1  0.16622632  0.16703558  0.50123026  1
  Ni  Ni28  1  0.00197948  1.00044191  0.66707140  1
  Ni  Ni29  1  0.16810792  0.16487005  0.83234573  1
  Ni  Ni30  1  0.16506063  0.50018547  0.49971970  1
  Ni  Ni31  1  0.00211236  0.33527625  0.66684514  1
  Ni  Ni32  1  0.16713954  0.50122244  0.83215500  1
  Ni  Ni33  1  0.16560197  0.83454357  0.49950351  1
  Ni  Ni34  1  0.99815395  0.66602983  0.66694870  1
  Ni  Ni35  1  0.16759260  0.83564643  0.83432137  1
  Ni  Ni36  1  0.50067828  0.16645039  0.49994018  1
  Ni  Ni37  1  0.33348830  0.00315273  0.66770238  1
  Ni  Ni38  1  0.49866833  0.16813919  0.83299648  1
  Cr  Cr39  1  0.49938987  0.49956247  0.50114234  1
  Ni  Ni40  1  0.33233825  0.33155696  0.66873894  1
  Ni  Ni41  1  0.50280066  0.50117616  0.83464517  1
  Ni  Ni42  1  0.50038990  0.83599111  0.49951887  1
  Cr  Cr43  1  0.33331417  0.66759351  0.66752349  1
  Ni  Ni44  1  0.49908362  0.83243317  0.83494648  1
  Ni  Ni45  1  0.83486236  0.16698078  0.49927452  1
  Cr  Cr46  1  0.66557493  0.99882145  0.66553773  1
  Cr  Cr47  1  0.83552651  0.16814590  0.83407945  1
  Fe  Fe48  1  0.83690100  0.50031512  0.50155643  1
  Fe  Fe49  1  0.66731927  0.33500722  0.66817508  1
  Ni  Ni50  1  0.83180249  0.50164858  0.83209754  1
  Ni  Ni51  1  0.83577074  0.83489089  0.50142767  1
  Ni  Ni52  1  0.67000263  0.66716362  0.66946425  1
  Fe  Fe53  1  0.83511047  0.83163183  0.83240499  1
" 