7866,Ni71Fe20Cr7_12,-238.572030685127, 199.649047219422,Ni71Fe20Cr7,"# generated using pymatgen
 data_Cr5Fe11Ni38
_symmetry_space_group_name_H-M   'P 1'
_cell_length_a   7.43192834
_cell_length_b   7.43192834
_cell_length_c   10.51033385
_cell_angle_alpha   90.00000000
_cell_angle_beta   90.00000000
_cell_angle_gamma   90.00000000
_symmetry_Int_Tables_number   1
_chemical_formula_structural   Cr5Fe11Ni38
_chemical_formula_sum   'Cr5 Fe11 Ni38'
_cell_volume   580.52314239
_cell_formula_units_Z   1
loop_
 _symmetry_equiv_pos_site_id
 _symmetry_equiv_pos_as_xyz
  1  'x, y, z'
loop_
 _atom_site_type_symbol
 _atom_site_label
 _atom_site_symmetry_multiplicity
 _atom_site_fract_x
 _atom_site_fract_y
 _atom_site_fract_z
 _atom_site_occupancy
  Fe  Fe0  1  1.00227003  0.00331501  0.00327106  1
  Ni  Ni1  1  0.16996879  0.16881812  0.16824570  1
  Ni  Ni2  1  1.00162265  0.00384012  0.33549726  1
  Ni  Ni3  1  0.00325635  0.33468931  0.00310120  1
  Ni  Ni4  1  0.16811274  0.50284381  0.16874025  1
  Ni  Ni5  1  0.00246946  0.33501024  0.33485324  1
  Fe  Fe6  1  1.00133544  0.66841420  0.00374931  1
  Ni  Ni7  1  0.16871841  0.83542798  0.16969340  1
  Fe  Fe8  1  0.00242146  0.66947679  0.33562608  1
  Ni  Ni9  1  0.33601943  0.00277574  0.00316090  1
  Ni  Ni10  1  0.50080894  0.16712462  0.17026687  1
  Ni  Ni11  1  0.33599765  1.00232516  0.33564900  1
  Ni  Ni12  1  0.33284413  0.33409354  1.00207514  1
  Cr  Cr13  1  0.50111318  0.50200670  0.17034917  1
  Ni  Ni14  1  0.33377822  0.33515417  0.33562240  1
  Ni  Ni15  1  0.33736131  0.67022005  0.00327449  1
  Fe  Fe16  1  0.50213170  0.83718239  0.16969641  1
  Ni  Ni17  1  0.33625140  0.66960849  0.33600319  1
  Fe  Fe18  1  0.66849751  1.00150616  0.00236574  1
  Ni  Ni19  1  0.83630823  0.16773226  0.17030719  1
  Ni  Ni20  1  0.66946718  1.00136719  0.33456418  1
  Cr  Cr21  1  0.67122483  0.33577084  1.00164781  1
  Ni  Ni22  1  0.83806075  0.50403586  0.16946501  1
  Fe  Fe23  1  0.66967816  0.33407174  0.33614591  1
  Ni  Ni24  1  0.66953084  0.67133868  1.00070847  1
  Ni  Ni25  1  0.83636867  0.83532142  0.16903934  1
  Ni  Ni26  1  0.66932290  0.67045676  0.33625161  1
  Ni  Ni27  1  0.17026007  0.16896042  0.50314113  1
  Ni  Ni28  1  1.00087305  0.00425754  0.66874537  1
  Ni  Ni29  1  0.17035089  0.16898886  0.83570231  1
  Fe  Fe30  1  0.16793862  0.50067542  0.50139333  1
  Ni  Ni31  1  1.00172493  0.33433024  0.66913577  1
  Cr  Cr32  1  0.16898008  0.50014757  0.83713362  1
  Fe  Fe33  1  0.16798909  0.83773728  0.50147105  1
  Ni  Ni34  1  0.99783887  0.66850186  0.66754077  1
  Cr  Cr35  1  0.16760163  0.83796512  0.83535178  1
  Ni  Ni36  1  0.50097514  0.16857315  0.50244845  1
  Ni  Ni37  1  0.33652605  0.00537671  0.66827780  1
  Ni  Ni38  1  0.50089626  0.16913266  0.83437335  1
  Fe  Fe39  1  0.50368009  0.50161738  0.50173610  1
  Ni  Ni40  1  0.33539356  0.33293493  0.66939254  1
  Ni  Ni41  1  0.50393558  0.50182436  0.83491270  1
  Ni  Ni42  1  0.50300114  0.83647142  0.50162623  1
  Cr  Cr43  1  0.33818704  0.66908925  0.66768587  1
  Fe  Fe44  1  0.50524540  0.83654373  0.83601136  1
  Ni  Ni45  1  0.83585015  0.16887142  0.50245913  1
  Ni  Ni46  1  0.66968871  1.00148299  0.66998684  1
  Ni  Ni47  1  0.83583995  0.16790214  0.83432325  1
  Ni  Ni48  1  0.83580876  0.50363833  0.50275521  1
  Fe  Fe49  1  0.66949872  0.33524320  0.66956885  1
  Ni  Ni50  1  0.83395807  0.50421103  0.83486679  1
  Ni  Ni51  1  0.83542369  0.83457828  0.50297143  1
  Ni  Ni52  1  0.67108547  0.66963079  0.67012891  1
  Ni  Ni53  1  0.83409605  0.83497396  0.83507714  1
" 