6048,Ni71Fe20Cr7_1,-238.698461762726, 200.980829715584,Ni71Fe20Cr7,"# generated using pymatgen
 data_Cr5Fe11Ni38
_symmetry_space_group_name_H-M   'P 1'
_cell_length_a   7.43169775
_cell_length_b   7.43169775
_cell_length_c   10.51000775
_cell_angle_alpha   90.00000000
_cell_angle_beta   90.00000000
_cell_angle_gamma   90.00000000
_symmetry_Int_Tables_number   1
_chemical_formula_structural   Cr5Fe11Ni38
_chemical_formula_sum   'Cr5 Fe11 Ni38'
_cell_volume   580.46911020
_cell_formula_units_Z   1
loop_
 _symmetry_equiv_pos_site_id
 _symmetry_equiv_pos_as_xyz
  1  'x, y, z'
loop_
 _atom_site_type_symbol
 _atom_site_label
 _atom_site_symmetry_multiplicity
 _atom_site_fract_x
 _atom_site_fract_y
 _atom_site_fract_z
 _atom_site_occupancy
  Ni  Ni0  1  0.00320432  1.00080290  0.00301687  1
  Ni  Ni1  1  0.16809460  0.16995658  0.16835291  1
  Fe  Fe2  1  0.99984568  0.00291811  0.33441967  1
  Fe  Fe3  1  1.00209568  0.33454451  0.00268919  1
  Ni  Ni4  1  0.16997132  0.50135114  0.16913018  1
  Ni  Ni5  1  1.00172902  0.33622710  0.33458476  1
  Fe  Fe6  1  0.00238536  0.66972232  0.00251280  1
  Ni  Ni7  1  0.16745447  0.83582542  0.16774571  1
  Cr  Cr8  1  0.00261952  0.66881855  0.33473106  1
  Ni  Ni9  1  0.33341190  0.00449751  1.00211225  1
  Ni  Ni10  1  0.50340563  0.17137710  0.16765745  1
  Cr  Cr11  1  0.33577073  0.00257140  0.33488064  1
  Ni  Ni12  1  0.33638526  0.33520945  0.00277402  1
  Ni  Ni13  1  0.50256545  0.50096356  0.16997979  1
  Ni  Ni14  1  0.33641221  0.33805867  0.33448046  1
  Fe  Fe15  1  0.33478664  0.66772887  0.00281776  1
  Cr  Cr16  1  0.50369546  0.83491641  0.16862016  1
  Ni  Ni17  1  0.33553460  0.66665854  0.33640606  1
  Ni  Ni18  1  0.67051968  0.00347950  0.00259262  1
  Ni  Ni19  1  0.83563133  0.16886075  0.17081234  1
  Ni  Ni20  1  0.67093651  0.00318798  0.33608063  1
  Ni  Ni21  1  0.66775252  0.33643576  0.00265745  1
  Ni  Ni22  1  0.83459904  0.50160514  0.16814138  1
  Ni  Ni23  1  0.66899286  0.33565308  0.33526149  1
  Ni  Ni24  1  0.67144739  0.66721922  0.00269947  1
  Ni  Ni25  1  0.83602192  0.83666768  0.16810699  1
  Ni  Ni26  1  0.66909728  0.66829419  0.33657836  1
  Cr  Cr27  1  0.16854155  0.17039528  0.50335468  1
  Ni  Ni28  1  1.00225672  0.99997939  0.66930717  1
  Ni  Ni29  1  0.16864375  0.16902910  0.83532933  1
  Ni  Ni30  1  0.16936884  0.50349652  0.50304072  1
  Ni  Ni31  1  1.00204523  0.33780291  0.67023017  1
  Ni  Ni32  1  0.16912324  0.50225010  0.83496377  1
  Ni  Ni33  1  0.16874664  0.83376384  0.50417245  1
  Ni  Ni34  1  0.00286017  0.66935292  0.66947908  1
  Ni  Ni35  1  0.16765950  0.83585267  0.83521524  1
  Ni  Ni36  1  0.50479621  0.16940381  0.50361635  1
  Ni  Ni37  1  0.33556252  0.00266428  0.66972290  1
  Ni  Ni38  1  0.50297931  0.17049038  0.83586041  1
  Fe  Fe39  1  0.50218324  0.50238647  0.50180852  1
  Ni  Ni40  1  0.33665125  0.33599331  0.66988014  1
  Ni  Ni41  1  0.50244372  0.50072982  0.83530058  1
  Fe  Fe42  1  0.50318285  0.83498122  0.50275557  1
  Fe  Fe43  1  0.33362494  0.66819561  0.66808552  1
  Cr  Cr44  1  0.50244541  0.83647603  0.83564434  1
  Fe  Fe45  1  0.83457808  0.16921919  0.50263842  1
  Ni  Ni46  1  0.66931609  0.00347970  0.66846274  1
  Ni  Ni47  1  0.83551075  0.16902590  0.83451538  1
  Ni  Ni48  1  0.83491041  0.50264661  0.50350538  1
  Ni  Ni49  1  0.66843833  0.33538984  0.66921725  1
  Fe  Fe50  1  0.83569926  0.50142917  0.83535629  1
  Ni  Ni51  1  0.83443774  0.83570755  0.50328538  1
  Fe  Fe52  1  0.67058107  0.66811987  0.66810835  1
  Fe  Fe53  1  0.83747586  0.83661616  0.83573049  1
" 