5284,Ni71Fe20Cr7_3,-238.670153205786, 199.407153259561,Ni71Fe20Cr7,"# generated using pymatgen
 data_Cr5Fe11Ni38
_symmetry_space_group_name_H-M   'P 1'
_cell_length_a   7.43430026
_cell_length_b   7.43430026
_cell_length_c   10.51368826
_cell_angle_alpha   90.00000000
_cell_angle_beta   90.00000000
_cell_angle_gamma   90.00000000
_symmetry_Int_Tables_number   1
_chemical_formula_structural   Cr5Fe11Ni38
_chemical_formula_sum   'Cr5 Fe11 Ni38'
_cell_volume   581.07914801
_cell_formula_units_Z   1
loop_
 _symmetry_equiv_pos_site_id
 _symmetry_equiv_pos_as_xyz
  1  'x, y, z'
loop_
 _atom_site_type_symbol
 _atom_site_label
 _atom_site_symmetry_multiplicity
 _atom_site_fract_x
 _atom_site_fract_y
 _atom_site_fract_z
 _atom_site_occupancy
  Ni  Ni0  1  0.00239108  0.00250972  0.00339417  1
  Ni  Ni1  1  0.17058453  0.16719386  0.16725733  1
  Fe  Fe2  1  0.00449110  0.00338315  0.33395347  1
  Ni  Ni3  1  1.00160452  0.33520923  0.00256771  1
  Fe  Fe4  1  0.17062116  0.50176033  0.16787623  1
  Cr  Cr5  1  1.00090733  0.33354383  0.33324019  1
  Ni  Ni6  1  0.00289817  0.66939040  0.00321138  1
  Ni  Ni7  1  0.17026407  0.83605789  0.16979845  1
  Fe  Fe8  1  0.00361011  0.66869744  0.33292750  1
  Ni  Ni9  1  0.33566522  1.00129645  1.00151284  1
  Ni  Ni10  1  0.50123707  0.16776552  0.16887220  1
  Ni  Ni11  1  0.33585403  1.00115656  0.33666330  1
  Ni  Ni12  1  0.33578114  0.33482679  0.00345646  1
  Fe  Fe13  1  0.50165891  0.50075547  0.16830893  1
  Ni  Ni14  1  0.33785954  0.33432106  0.33465065  1
  Ni  Ni15  1  0.33518755  0.66997314  0.00222327  1
  Ni  Ni16  1  0.50087974  0.83532465  0.16743767  1
  Ni  Ni17  1  0.33657818  0.67092854  0.33462487  1
  Ni  Ni18  1  0.66850164  0.00301920  0.00253745  1
  Ni  Ni19  1  0.83462734  0.17027052  0.16772583  1
  Fe  Fe20  1  0.66588547  0.00447953  0.33397970  1
  Ni  Ni21  1  0.66927841  0.33456537  0.00287037  1
  Ni  Ni22  1  0.83398511  0.50346058  0.16771391  1
  Ni  Ni23  1  0.66825506  0.33481401  0.33519600  1
  Ni  Ni24  1  0.66850760  0.66923789  0.00283210  1
  Fe  Fe25  1  0.83519249  0.83780446  0.16741419  1
  Fe  Fe26  1  0.66503672  0.66782136  0.33347694  1
  Ni  Ni27  1  0.16968790  0.16734955  0.50283404  1
  Ni  Ni28  1  0.00234687  0.00297523  0.66817016  1
  Ni  Ni29  1  0.16897329  0.16852045  0.83614034  1
  Cr  Cr30  1  0.17049596  0.50042774  0.50289598  1
  Ni  Ni31  1  1.00164546  0.33317187  0.67115770  1
  Fe  Fe32  1  0.16930099  0.50105846  0.83665726  1
  Fe  Fe33  1  0.16945860  0.83691296  0.50181705  1
  Ni  Ni34  1  1.00110545  0.67033411  0.67103994  1
  Ni  Ni35  1  0.16747647  0.83772200  0.83545514  1
  Fe  Fe36  1  0.50293779  0.16927766  0.50198625  1
  Ni  Ni37  1  0.33592425  0.00339064  0.66828190  1
  Ni  Ni38  1  0.50154699  0.16940446  0.83536462  1
  Ni  Ni39  1  0.50236517  0.50288459  0.50027568  1
  Ni  Ni40  1  0.33711583  0.33363336  0.66811342  1
  Ni  Ni41  1  0.50346228  0.50106103  0.83712504  1
  Ni  Ni42  1  0.50219541  0.83556032  0.50217607  1
  Cr  Cr43  1  0.33719146  0.67116914  0.67078548  1
  Ni  Ni44  1  0.50332544  0.83612749  0.83708329  1
  Ni  Ni45  1  0.83629039  0.16793603  0.50264498  1
  Ni  Ni46  1  0.66854463  0.00272455  0.66917776  1
  Ni  Ni47  1  0.83602297  0.16810031  0.83567144  1
  Cr  Cr48  1  0.83298960  0.50145664  0.50549522  1
  Ni  Ni49  1  0.66811360  0.33422639  0.66892883  1
  Fe  Fe50  1  0.83472497  0.50208991  0.83661469  1
  Cr  Cr51  1  0.83422494  0.83671250  0.50013844  1
  Ni  Ni52  1  0.66845809  0.66943020  0.67038079  1
  Ni  Ni53  1  0.83566421  0.83570777  0.83679766  1
" 