5331,Ni71Fe2Cr26_10,-228.637729948784, 149.013693310823,Ni71Fe2Cr26,"# generated using pymatgen
 data_Cr15FeNi38
_symmetry_space_group_name_H-M   'P 1'
_cell_length_a   7.48279072
_cell_length_b   7.48279072
_cell_length_c   10.58226412
_cell_angle_alpha   90.00000000
_cell_angle_beta   90.00000000
_cell_angle_gamma   90.00000000
_symmetry_Int_Tables_number   1
_chemical_formula_structural   Cr15FeNi38
_chemical_formula_sum   'Cr15 Fe1 Ni38'
_cell_volume   592.52379395
_cell_formula_units_Z   1
loop_
 _symmetry_equiv_pos_site_id
 _symmetry_equiv_pos_as_xyz
  1  'x, y, z'
loop_
 _atom_site_type_symbol
 _atom_site_label
 _atom_site_symmetry_multiplicity
 _atom_site_fract_x
 _atom_site_fract_y
 _atom_site_fract_z
 _atom_site_occupancy
  Ni  Ni0  1  0.99601562  0.99695815  0.99813570  1
  Cr  Cr1  1  0.16755404  0.16460806  0.16674403  1
  Ni  Ni2  1  0.99698231  -0.00071999  0.33418903  1
  Cr  Cr3  1  0.99682876  0.33140308  0.99734085  1
  Cr  Cr4  1  0.16598090  0.49761853  0.16677201  1
  Ni  Ni5  1  0.99825961  0.32905588  0.33369901  1
  Fe  Fe6  1  0.99615735  0.66827534  0.99626520  1
  Cr  Cr7  1  0.16393174  0.83457667  0.16529372  1
  Ni  Ni8  1  0.99680238  0.66853230  0.33258449  1
  Ni  Ni9  1  0.33455228  0.99894624  0.99770128  1
  Ni  Ni10  1  0.50039076  0.16566900  0.16517584  1
  Ni  Ni11  1  0.33349070  0.00043153  0.33435560  1
  Ni  Ni12  1  0.33622047  0.33222208  0.99832986  1
  Ni  Ni13  1  0.50116877  0.49683156  0.16582375  1
  Ni  Ni14  1  0.33451783  0.33022687  0.33264543  1
  Cr  Cr15  1  0.33435310  0.66476971  0.99736358  1
  Ni  Ni16  1  0.50275605  0.83432089  0.16569098  1
  Cr  Cr17  1  0.33534428  0.66587935  0.33341768  1
  Ni  Ni18  1  0.66630438  0.99862417  -0.00095211  1
  Ni  Ni19  1  0.82937527  0.16307556  0.16659080  1
  Ni  Ni20  1  0.66638783  0.99889298  0.33187550  1
  Ni  Ni21  1  0.66321109  0.33137519  0.99770988  1
  Cr  Cr22  1  0.82974874  0.50048052  0.16725499  1
  Ni  Ni23  1  0.66409102  0.33048133  0.33215772  1
  Ni  Ni24  1  0.66524617  0.66686349  0.99814164  1
  Ni  Ni25  1  0.83014315  0.83370637  0.16574217  1
  Ni  Ni26  1  0.66528010  0.66746018  0.33239644  1
  Ni  Ni27  1  0.16530004  0.16430787  0.49587693  1
  Cr  Cr28  1  0.99746959  -0.00099253  0.66421470  1
  Cr  Cr29  1  0.16689518  0.16503594  0.83387384  1
  Cr  Cr30  1  0.16381344  0.49783213  0.49798287  1
  Ni  Ni31  1  0.99604779  0.33341635  0.66634003  1
  Ni  Ni32  1  0.16347142  0.50072837  0.83221638  1
  Ni  Ni33  1  0.16398860  0.83467953  0.49743360  1
  Ni  Ni34  1  0.99754963  0.66532594  0.66843941  1
  Ni  Ni35  1  0.16378264  0.83040686  0.83388158  1
  Ni  Ni36  1  0.49906835  0.16608017  0.49627254  1
  Cr  Cr37  1  0.33310268  0.99718239  0.66436296  1
  Ni  Ni38  1  0.50119730  0.16661019  0.83534416  1
  Ni  Ni39  1  0.50166336  0.49790261  0.49794815  1
  Cr  Cr40  1  0.33381506  0.33306498  0.66578176  1
  Ni  Ni41  1  0.50185186  0.49798532  0.83304746  1
  Ni  Ni42  1  0.50046564  0.83285743  0.49722361  1
  Cr  Cr43  1  0.33350654  0.66657187  0.66604684  1
  Ni  Ni44  1  0.50053101  0.83226493  0.83389171  1
  Ni  Ni45  1  0.83246300  0.16570206  0.49722115  1
  Cr  Cr46  1  0.66626632  -0.00071787  0.66558326  1
  Ni  Ni47  1  0.82970972  0.16696919  0.83299691  1
  Cr  Cr48  1  0.83036211  0.49951019  0.49962814  1
  Ni  Ni49  1  0.66714768  0.33365304  0.66700944  1
  Ni  Ni50  1  0.83144573  0.50016298  0.83070593  1
  Ni  Ni51  1  0.83240718  0.83200723  0.49683459  1
  Ni  Ni52  1  0.66632909  0.66435343  0.66629862  1
  Ni  Ni53  1  0.83244882  0.82972881  0.83429282  1
" 