1085,Ni71Fe2Cr26_0,-228.756868304203, 154.427887750101,Ni71Fe2Cr26,"# generated using pymatgen
 data_Cr15FeNi38
_symmetry_space_group_name_H-M   'P 1'
_cell_length_a   7.47711365
_cell_length_b   7.47711365
_cell_length_c   10.57423553
_cell_angle_alpha   90.00000000
_cell_angle_beta   90.00000000
_cell_angle_gamma   90.00000000
_symmetry_Int_Tables_number   1
_chemical_formula_structural   Cr15FeNi38
_chemical_formula_sum   'Cr15 Fe1 Ni38'
_cell_volume   591.17620265
_cell_formula_units_Z   1
loop_
 _symmetry_equiv_pos_site_id
 _symmetry_equiv_pos_as_xyz
  1  'x, y, z'
loop_
 _atom_site_type_symbol
 _atom_site_label
 _atom_site_symmetry_multiplicity
 _atom_site_fract_x
 _atom_site_fract_y
 _atom_site_fract_z
 _atom_site_occupancy
  Ni  Ni0  1  0.99725893  0.99928727  0.99791303  1
  Ni  Ni1  1  0.16658768  0.16917008  0.16662990  1
  Ni  Ni2  1  0.99786613  0.00076012  0.33342729  1
  Cr  Cr3  1  0.00066108  0.33235813  0.99846720  1
  Ni  Ni4  1  0.16811737  0.49546301  0.16858245  1
  Ni  Ni5  1  0.00200442  0.33181404  0.33375852  1
  Cr  Cr6  1  0.99661003  0.66700601  0.99784971  1
  Cr  Cr7  1  0.16331071  0.83359078  0.16654506  1
  Cr  Cr8  1  0.99733775  0.66526194  0.33302934  1
  Cr  Cr9  1  0.33013785  0.00336682  0.99876403  1
  Ni  Ni10  1  0.49841522  0.16917437  0.16488970  1
  Cr  Cr11  1  0.33324119  0.00183289  0.33452948  1
  Ni  Ni12  1  0.33396941  0.33316621  0.00119242  1
  Ni  Ni13  1  0.49908810  0.49763943  0.16536106  1
  Ni  Ni14  1  0.33111533  0.33402770  0.33116005  1
  Cr  Cr15  1  0.33295736  0.66176042  0.99827888  1
  Cr  Cr16  1  0.50326466  0.83144771  0.16702356  1
  Ni  Ni17  1  0.33442123  0.66254756  0.33472833  1
  Ni  Ni18  1  0.66953091  -0.00060378  -0.00049800  1
  Cr  Cr19  1  0.83331376  0.16427130  0.16628766  1
  Ni  Ni20  1  0.66771525  0.99740900  0.33455468  1
  Ni  Ni21  1  0.66400228  0.33453391  0.99869253  1
  Ni  Ni22  1  0.83083090  0.50076923  0.16574505  1
  Cr  Cr23  1  0.66481361  0.33348402  0.33390917  1
  Ni  Ni24  1  0.66803185  0.66411748  0.00014197  1
  Ni  Ni25  1  0.83088240  0.83265547  0.16577719  1
  Ni  Ni26  1  0.66537902  0.66679416  0.33247534  1
  Ni  Ni27  1  0.16478629  0.16625976  0.49776196  1
  Cr  Cr28  1  -0.00066208  0.99917399  0.66687737  1
  Ni  Ni29  1  0.16384748  0.16617147  0.83355486  1
  Fe  Fe30  1  0.16588707  0.49921570  0.49935074  1
  Ni  Ni31  1  0.99747066  0.33426491  0.66586225  1
  Ni  Ni32  1  0.16578149  0.49944473  0.83027604  1
  Ni  Ni33  1  0.16724095  0.83220720  0.50081564  1
  Ni  Ni34  1  0.00085974  0.66456715  0.66667837  1
  Ni  Ni35  1  0.16408852  0.83235022  0.83063451  1
  Ni  Ni36  1  0.50003761  0.16523523  0.50023966  1
  Ni  Ni37  1  0.33235527  0.99769521  0.66440993  1
  Cr  Cr38  1  0.50171370  0.16744203  0.83268395  1
  Ni  Ni39  1  0.49888665  0.50055372  0.49818189  1
  Cr  Cr40  1  0.33275637  0.33253186  0.66565653  1
  Ni  Ni41  1  0.50005985  0.49859548  0.83446820  1
  Ni  Ni42  1  0.49869800  0.83213809  0.49930686  1
  Ni  Ni43  1  0.33016917  0.66695656  0.66516093  1
  Cr  Cr44  1  0.49945672  0.83182770  0.83124817  1
  Ni  Ni45  1  0.83316963  0.16654721  0.49974387  1
  Ni  Ni46  1  0.66597505  0.00102086  0.66384116  1
  Ni  Ni47  1  0.83309325  0.16645296  0.83226696  1
  Ni  Ni48  1  0.83311702  0.49809735  0.50042185  1
  Ni  Ni49  1  0.66847581  0.33198586  0.66574735  1
  Ni  Ni50  1  0.83215991  0.49818133  0.83182122  1
  Ni  Ni51  1  0.83204368  0.83337351  0.49755038  1
  Cr  Cr52  1  0.66734572  0.66483788  0.66524807  1
  Ni  Ni53  1  0.83397338  0.83341806  0.83462700  1
" 