7710,Ni71Fe9Cr19_2,-232.745047694549, 172.656023697667,Ni71Fe9Cr19,"# generated using pymatgen
 data_Cr11Fe5Ni38
_symmetry_space_group_name_H-M   'P 1'
_cell_length_a   7.46182932
_cell_length_b   7.46182932
_cell_length_c   10.55262022
_cell_angle_alpha   90.00000000
_cell_angle_beta   90.00000000
_cell_angle_gamma   90.00000000
_symmetry_Int_Tables_number   1
_chemical_formula_structural   Cr11Fe5Ni38
_chemical_formula_sum   'Cr11 Fe5 Ni38'
_cell_volume   587.55825143
_cell_formula_units_Z   1
loop_
 _symmetry_equiv_pos_site_id
 _symmetry_equiv_pos_as_xyz
  1  'x, y, z'
loop_
 _atom_site_type_symbol
 _atom_site_label
 _atom_site_symmetry_multiplicity
 _atom_site_fract_x
 _atom_site_fract_y
 _atom_site_fract_z
 _atom_site_occupancy
  Cr  Cr0  1  0.00098470  0.99858585  0.00057686  1
  Ni  Ni1  1  0.16820181  0.16775990  0.17003507  1
  Ni  Ni2  1  0.00328735  1.00012609  0.33361608  1
  Cr  Cr3  1  0.00177881  0.33264760  0.99531391  1
  Cr  Cr4  1  0.16715506  0.49976795  0.16769789  1
  Ni  Ni5  1  0.00078260  0.33246268  0.33616223  1
  Ni  Ni6  1  0.00117084  0.66872917  0.99832523  1
  Fe  Fe7  1  0.16748977  0.83367500  0.16825134  1
  Ni  Ni8  1  0.00212134  0.66920053  0.33600904  1
  Cr  Cr9  1  0.33285767  0.99934507  1.00034352  1
  Ni  Ni10  1  0.49784919  0.16336083  0.16716236  1
  Ni  Ni11  1  0.33166733  0.99826078  0.33401401  1
  Ni  Ni12  1  0.33460878  0.33406893  1.00014990  1
  Fe  Fe13  1  0.49954005  0.49982669  0.16725486  1
  Fe  Fe14  1  0.33291940  0.33292062  0.33539127  1
  Ni  Ni15  1  0.33360712  0.66638511  0.00066824  1
  Ni  Ni16  1  0.50051533  0.83191559  0.16700923  1
  Ni  Ni17  1  0.33375283  0.66950875  0.33402455  1
  Ni  Ni18  1  0.66716828  0.99915081  0.00167171  1
  Ni  Ni19  1  0.83493112  0.16553826  0.16833536  1
  Cr  Cr20  1  0.66536297  0.99934369  0.33406614  1
  Cr  Cr21  1  0.66552990  0.33222125  0.99843991  1
  Cr  Cr22  1  0.83599884  0.50264055  0.16834541  1
  Cr  Cr23  1  0.66636112  0.33440364  0.33704108  1
  Ni  Ni24  1  0.66632355  0.66835692  0.00156496  1
  Fe  Fe25  1  0.83393676  0.83430217  0.16798608  1
  Ni  Ni26  1  0.66529972  0.66741684  0.33442969  1
  Ni  Ni27  1  0.16773356  0.16725449  0.49911886  1
  Ni  Ni28  1  0.00104510  0.99850744  0.66706489  1
  Ni  Ni29  1  0.16985441  0.16704230  0.83176912  1
  Ni  Ni30  1  0.16728891  0.50071875  0.49951602  1
  Cr  Cr31  1  0.00110482  0.33517309  0.66849202  1
  Ni  Ni32  1  0.16933719  0.50253839  0.83403174  1
  Fe  Fe33  1  0.16705837  0.83386676  0.50140407  1
  Ni  Ni34  1  0.00089903  0.66926296  0.66730881  1
  Ni  Ni35  1  0.16605748  0.83148558  0.83180801  1
  Ni  Ni36  1  0.49651093  0.16436967  0.50171135  1
  Ni  Ni37  1  0.33191214  1.00032088  0.66566177  1
  Ni  Ni38  1  0.49876014  0.16687104  0.83248102  1
  Ni  Ni39  1  0.49717096  0.50399495  0.49880796  1
  Ni  Ni40  1  0.33403427  0.33462800  0.66677563  1
  Ni  Ni41  1  0.49788834  0.50206051  0.83514736  1
  Ni  Ni42  1  0.50003114  0.83304424  0.50179527  1
  Ni  Ni43  1  0.33262262  0.66622412  0.66609166  1
  Cr  Cr44  1  0.50197306  0.83423688  0.83066790  1
  Ni  Ni45  1  0.83650429  0.16417152  0.50012882  1
  Ni  Ni46  1  0.66799469  1.00007570  0.66563626  1
  Ni  Ni47  1  0.83262547  0.16272009  0.83240749  1
  Ni  Ni48  1  0.83603286  0.50445760  0.49899979  1
  Cr  Cr49  1  0.66548638  0.33569402  0.66560311  1
  Ni  Ni50  1  0.83364585  0.50580375  0.83347571  1
  Ni  Ni51  1  0.83324574  0.83260466  0.50015882  1
  Ni  Ni52  1  0.66730179  0.66723953  0.66487775  1
  Ni  Ni53  1  0.83356018  0.83259374  0.83405479  1
" 