4108,Ni71Fe20Cr7_9,-238.173079896662, 198.062082914683,Ni71Fe20Cr7,"# generated using pymatgen
 data_Cr5Fe11Ni38
_symmetry_space_group_name_H-M   'P 1'
_cell_length_a   7.42874416
_cell_length_b   7.42874416
_cell_length_c   10.50583074
_cell_angle_alpha   90.00000000
_cell_angle_beta   90.00000000
_cell_angle_gamma   90.00000000
_symmetry_Int_Tables_number   1
_chemical_formula_structural   Cr5Fe11Ni38
_chemical_formula_sum   'Cr5 Fe11 Ni38'
_cell_volume   579.77729426
_cell_formula_units_Z   1
loop_
 _symmetry_equiv_pos_site_id
 _symmetry_equiv_pos_as_xyz
  1  'x, y, z'
loop_
 _atom_site_type_symbol
 _atom_site_label
 _atom_site_symmetry_multiplicity
 _atom_site_fract_x
 _atom_site_fract_y
 _atom_site_fract_z
 _atom_site_occupancy
  Fe  Fe0  1  0.00432433  0.00279308  0.00272007  1
  Fe  Fe1  1  0.16844258  0.16979892  0.16854087  1
  Ni  Ni2  1  1.00132651  0.00276217  0.33498484  1
  Ni  Ni3  1  0.00320377  0.33673920  1.00201913  1
  Fe  Fe4  1  0.16931699  0.50265101  0.16924555  1
  Ni  Ni5  1  1.00227792  0.33527125  0.33637311  1
  Ni  Ni6  1  0.00334893  0.66885630  1.00250556  1
  Ni  Ni7  1  0.16827433  0.83534415  0.16814780  1
  Fe  Fe8  1  1.00242998  0.66867613  0.33568561  1
  Ni  Ni9  1  0.33409416  0.00318545  1.00177956  1
  Ni  Ni10  1  0.50289245  0.17144394  0.16895404  1
  Cr  Cr11  1  0.33485291  0.00261876  0.33668790  1
  Ni  Ni12  1  0.33527300  0.33490325  0.00307015  1
  Ni  Ni13  1  0.50244400  0.50070991  0.17050049  1
  Ni  Ni14  1  0.33573218  0.33762600  0.33578174  1
  Fe  Fe15  1  0.33438909  0.66873221  1.00231711  1
  Ni  Ni16  1  0.50132198  0.83558099  0.17003671  1
  Ni  Ni17  1  0.33719530  0.66788954  0.33569728  1
  Cr  Cr18  1  0.66855881  0.00280009  0.00277719  1
  Ni  Ni19  1  0.83601165  0.17067518  0.17025341  1
  Fe  Fe20  1  0.67038102  0.00271161  0.33589271  1
  Ni  Ni21  1  0.66925803  0.33672137  1.00209021  1
  Ni  Ni22  1  0.83625171  0.50126727  0.16973099  1
  Ni  Ni23  1  0.66972421  0.33760225  0.33556022  1
  Cr  Cr24  1  0.67001492  0.66789695  1.00211274  1
  Ni  Ni25  1  0.83813787  0.83579521  0.17137297  1
  Ni  Ni26  1  0.66918780  0.66883902  0.33559987  1
  Ni  Ni27  1  0.16887693  0.16958039  0.50210334  1
  Ni  Ni28  1  0.00299378  1.00218432  0.67005190  1
  Ni  Ni29  1  0.16950266  0.16832750  0.83721526  1
  Ni  Ni30  1  0.16763939  0.50298130  0.50148710  1
  Fe  Fe31  1  1.00150529  0.33568018  0.66918806  1
  Ni  Ni32  1  0.16783280  0.50323526  0.83699818  1
  Ni  Ni33  1  0.16866535  0.83517348  0.50426316  1
  Fe  Fe34  1  0.00400151  0.66999699  0.66984037  1
  Ni  Ni35  1  0.16920502  0.83617270  0.83532423  1
  Ni  Ni36  1  0.50356498  0.16888773  0.50264745  1
  Ni  Ni37  1  0.33494197  1.00063556  0.66944855  1
  Ni  Ni38  1  0.50228392  0.16942048  0.83612668  1
  Fe  Fe39  1  0.50204442  0.50310617  0.50059267  1
  Cr  Cr40  1  0.33574746  0.33592670  0.66851313  1
  Ni  Ni41  1  0.50256484  0.50075221  0.83653909  1
  Ni  Ni42  1  0.50243757  0.83721615  0.50270508  1
  Ni  Ni43  1  0.33460879  0.67141836  0.66986831  1
  Ni  Ni44  1  0.50010021  0.83756063  0.83499149  1
  Fe  Fe45  1  0.83647566  0.16877690  0.50213056  1
  Ni  Ni46  1  0.66980529  0.00331732  0.66868304  1
  Fe  Fe47  1  0.83632858  0.17024629  0.83537176  1
  Ni  Ni48  1  0.83733326  0.50185068  0.50173743  1
  Ni  Ni49  1  0.67090898  0.33490190  0.67008596  1
  Ni  Ni50  1  0.83733524  0.50104840  0.83626451  1
  Ni  Ni51  1  0.83663330  0.83597140  0.50101336  1
  Cr  Cr52  1  0.66878123  0.66907193  0.67023940  1
  Ni  Ni53  1  0.83843022  0.83588295  0.83534716  1
" 