1051,Ni71Fe9Cr19_8,-232.855785069235, 173.29576957215,Ni71Fe9Cr19,"# generated using pymatgen
 data_Cr11Fe5Ni38
_symmetry_space_group_name_H-M   'P 1'
_cell_length_a   7.45683875
_cell_length_b   7.45683875
_cell_length_c   10.54556249
_cell_angle_alpha   90.00000000
_cell_angle_beta   90.00000000
_cell_angle_gamma   90.00000000
_symmetry_Int_Tables_number   1
_chemical_formula_structural   Cr11Fe5Ni38
_chemical_formula_sum   'Cr11 Fe5 Ni38'
_cell_volume   586.38014045
_cell_formula_units_Z   1
loop_
 _symmetry_equiv_pos_site_id
 _symmetry_equiv_pos_as_xyz
  1  'x, y, z'
loop_
 _atom_site_type_symbol
 _atom_site_label
 _atom_site_symmetry_multiplicity
 _atom_site_fract_x
 _atom_site_fract_y
 _atom_site_fract_z
 _atom_site_occupancy
  Ni  Ni0  1  0.00186991  0.00097933  1.00067911  1
  Ni  Ni1  1  0.16633950  0.16675038  0.16727762  1
  Ni  Ni2  1  0.99917972  0.00199884  0.33364336  1
  Ni  Ni3  1  0.99996168  0.33308566  0.00273987  1
  Ni  Ni4  1  0.16653882  0.50060754  0.16759033  1
  Ni  Ni5  1  0.00155609  0.33187173  0.33184371  1
  Ni  Ni6  1  0.99943643  0.66798795  0.00291606  1
  Ni  Ni7  1  0.16807073  0.83469568  0.16602925  1
  Cr  Cr8  1  0.00333737  0.66789280  0.33413882  1
  Ni  Ni9  1  0.33305078  1.00030318  0.00155378  1
  Ni  Ni10  1  0.50077916  0.16753577  0.16924907  1
  Fe  Fe11  1  0.33498902  1.00048413  0.33310116  1
  Cr  Cr12  1  0.33412619  0.33283108  1.00062095  1
  Ni  Ni13  1  0.50136589  0.50060783  0.16654200  1
  Ni  Ni14  1  0.33468255  0.33527421  0.33427912  1
  Fe  Fe15  1  0.33515993  0.66896911  0.00272958  1
  Ni  Ni16  1  0.49904669  0.83391124  0.16691913  1
  Ni  Ni17  1  0.33384066  0.66634094  0.33385487  1
  Cr  Cr18  1  0.66702829  1.00004970  1.00046219  1
  Ni  Ni19  1  0.83493421  0.16906805  0.16782251  1
  Ni  Ni20  1  0.66765536  0.00284260  0.33448627  1
  Ni  Ni21  1  0.66791719  0.33541278  0.00147581  1
  Ni  Ni22  1  0.83414982  0.49887415  0.16514119  1
  Ni  Ni23  1  0.66581583  0.33049814  0.33322726  1
  Ni  Ni24  1  0.66723927  0.66686201  0.00093724  1
  Ni  Ni25  1  0.83493542  0.83411156  0.16613225  1
  Cr  Cr26  1  0.66505951  0.66898757  0.33356420  1
  Cr  Cr27  1  0.16810270  0.16636676  0.50009152  1
  Ni  Ni28  1  0.00103524  0.99887984  0.66773066  1
  Ni  Ni29  1  0.16835511  0.16555471  0.83416633  1
  Ni  Ni30  1  0.17004495  0.50272261  0.50090841  1
  Cr  Cr31  1  0.00121472  0.33253916  0.66719110  1
  Cr  Cr32  1  0.16722362  0.50055444  0.83361401  1
  Ni  Ni33  1  0.16786458  0.83286491  0.50236907  1
  Ni  Ni34  1  0.00145003  0.67030539  0.66526408  1
  Cr  Cr35  1  0.16712156  0.83620613  0.83401293  1
  Ni  Ni36  1  0.50180360  0.16827575  0.50002607  1
  Ni  Ni37  1  0.33402152  1.00007034  0.66744685  1
  Ni  Ni38  1  0.49935436  0.16759096  0.83277756  1
  Ni  Ni39  1  0.49883669  0.49996217  0.50280328  1
  Fe  Fe40  1  0.33681539  0.33410697  0.66688183  1
  Fe  Fe41  1  0.50209560  0.50164263  0.83305230  1
  Ni  Ni42  1  0.49920331  0.83381581  0.50106478  1
  Ni  Ni43  1  0.33532613  0.66739380  0.66572351  1
  Ni  Ni44  1  0.50110554  0.83383907  0.83406985  1
  Ni  Ni45  1  0.83222685  0.16609808  0.49962776  1
  Cr  Cr46  1  0.66762295  1.00045578  0.66716498  1
  Fe  Fe47  1  0.83477708  0.16619307  0.83477757  1
  Cr  Cr48  1  0.83328440  0.50008935  0.50116018  1
  Ni  Ni49  1  0.66408661  0.33417289  0.66735055  1
  Cr  Cr50  1  0.83202418  0.50210139  0.83515574  1
  Ni  Ni51  1  0.83498619  0.83583266  0.50245399  1
  Ni  Ni52  1  0.66527802  0.66743358  0.66765446  1
  Ni  Ni53  1  0.83363770  0.83306241  0.83346857  1
" 