3205,Ni71Fe2Cr26_15,-228.471293456605, 147.841253177461,Ni71Fe2Cr26,"# generated using pymatgen
 data_Cr15FeNi38
_symmetry_space_group_name_H-M   'P 1'
_cell_length_a   7.48393555
_cell_length_b   7.48393555
_cell_length_c   10.58388315
_cell_angle_alpha   90.00000000
_cell_angle_beta   90.00000000
_cell_angle_gamma   90.00000000
_symmetry_Int_Tables_number   1
_chemical_formula_structural   Cr15FeNi38
_chemical_formula_sum   'Cr15 Fe1 Ni38'
_cell_volume   592.79579468
_cell_formula_units_Z   1
loop_
 _symmetry_equiv_pos_site_id
 _symmetry_equiv_pos_as_xyz
  1  'x, y, z'
loop_
 _atom_site_type_symbol
 _atom_site_label
 _atom_site_symmetry_multiplicity
 _atom_site_fract_x
 _atom_site_fract_y
 _atom_site_fract_z
 _atom_site_occupancy
  Ni  Ni0  1  0.00174445  0.00158772  -0.00073318  1
  Ni  Ni1  1  0.16826920  0.16458443  0.16404386  1
  Ni  Ni2  1  0.00165392  0.99669731  0.33068858  1
  Ni  Ni3  1  0.00043040  0.33328439  0.99764886  1
  Ni  Ni4  1  0.16553193  0.49993177  0.16460137  1
  Cr  Cr5  1  0.00052119  0.33293797  0.32920616  1
  Ni  Ni6  1  -0.00053493  0.66206430  0.00039977  1
  Ni  Ni7  1  0.16726374  0.83213991  0.16558031  1
  Ni  Ni8  1  0.00083242  0.66687561  0.32974366  1
  Ni  Ni9  1  0.33130302  -0.00096340  0.00088119  1
  Ni  Ni10  1  0.49516757  0.16474206  0.16719719  1
  Ni  Ni11  1  0.33368435  0.99774271  0.33110283  1
  Ni  Ni12  1  0.32880189  0.33243969  -0.00077781  1
  Cr  Cr13  1  0.49831405  0.49837768  0.16509605  1
  Ni  Ni14  1  0.33484365  0.33144402  0.33148383  1
  Ni  Ni15  1  0.33281777  0.66509005  0.99853957  1
  Ni  Ni16  1  0.49601703  0.83249733  0.16562261  1
  Ni  Ni17  1  0.33280132  0.66742094  0.33214121  1
  Cr  Cr18  1  0.66369339  0.99700428  -0.00049061  1
  Cr  Cr19  1  0.83090503  0.16630417  0.16593505  1
  Ni  Ni20  1  0.66153702  0.99848990  0.33243758  1
  Fe  Fe21  1  0.66616748  0.33385376  0.99820043  1
  Ni  Ni22  1  0.83270655  0.49988532  0.16466807  1
  Ni  Ni23  1  0.66217379  0.33220116  0.33150095  1
  Ni  Ni24  1  0.66448236  0.66357537  0.99752131  1
  Cr  Cr25  1  0.83311683  0.82957443  0.16698281  1
  Ni  Ni26  1  0.66337270  0.66596246  0.33212491  1
  Cr  Cr27  1  0.16741906  0.16263429  0.49962616  1
  Ni  Ni28  1  -0.00037286  0.00017384  0.66681688  1
  Ni  Ni29  1  0.16344770  0.16645453  0.83317858  1
  Cr  Cr30  1  0.16666212  0.50202249  0.49736195  1
  Ni  Ni31  1  0.99689802  0.33244001  0.66993585  1
  Ni  Ni32  1  0.16431134  0.49752812  0.83426470  1
  Ni  Ni33  1  0.16694043  0.83321489  0.49786291  1
  Ni  Ni34  1  0.99808691  0.66414854  0.66637715  1
  Cr  Cr35  1  0.16690606  0.83337487  0.83330182  1
  Ni  Ni36  1  0.49944480  0.16513631  0.49727861  1
  Ni  Ni37  1  0.33372520  0.99809624  0.66486252  1
  Cr  Cr38  1  0.49699400  0.16555109  0.83307573  1
  Ni  Ni39  1  0.50060826  0.49872769  0.49702367  1
  Cr  Cr40  1  0.33183341  0.33283758  0.66532821  1
  Ni  Ni41  1  0.50028633  0.49999147  0.83394143  1
  Ni  Ni42  1  0.49828896  0.83288667  0.49839487  1
  Cr  Cr43  1  0.33431217  0.66679378  0.66563042  1
  Ni  Ni44  1  0.49898213  0.83032295  0.83255190  1
  Cr  Cr45  1  0.82985820  0.16474212  0.50022432  1
  Ni  Ni46  1  0.66360093  0.99886346  0.66530859  1
  Ni  Ni47  1  0.83421777  0.16805620  0.83082993  1
  Cr  Cr48  1  0.83001633  0.49972148  0.49867205  1
  Ni  Ni49  1  0.66607193  0.33295874  0.66699153  1
  Ni  Ni50  1  0.83179890  0.49771889  0.83263298  1
  Cr  Cr51  1  0.83417242  0.83212213  0.49873089  1
  Ni  Ni52  1  0.66465487  0.66496469  0.66656054  1
  Cr  Cr53  1  0.83228943  0.83184452  0.83096216  1
" 