5271,Ni71Fe9Cr19_16,-232.63717908568, 170.422689647861,Ni71Fe9Cr19,"# generated using pymatgen
 data_Cr11Fe5Ni38
_symmetry_space_group_name_H-M   'P 1'
_cell_length_a   7.45970603
_cell_length_b   7.45970603
_cell_length_c   10.54961745
_cell_angle_alpha   90.00000000
_cell_angle_beta   90.00000000
_cell_angle_gamma   90.00000000
_symmetry_Int_Tables_number   1
_chemical_formula_structural   Cr11Fe5Ni38
_chemical_formula_sum   'Cr11 Fe5 Ni38'
_cell_volume   587.05682096
_cell_formula_units_Z   1
loop_
 _symmetry_equiv_pos_site_id
 _symmetry_equiv_pos_as_xyz
  1  'x, y, z'
loop_
 _atom_site_type_symbol
 _atom_site_label
 _atom_site_symmetry_multiplicity
 _atom_site_fract_x
 _atom_site_fract_y
 _atom_site_fract_z
 _atom_site_occupancy
  Ni  Ni0  1  0.00191077  0.00288023  0.99895430  1
  Cr  Cr1  1  0.16819692  0.16825821  0.16637012  1
  Cr  Cr2  1  0.00325744  0.99878412  0.33333414  1
  Ni  Ni3  1  0.99974053  0.33335447  0.99968751  1
  Ni  Ni4  1  0.16843841  0.50106852  0.16873800  1
  Ni  Ni5  1  0.00084602  0.33830887  0.33354513  1
  Cr  Cr6  1  0.00243677  0.66452406  0.00081083  1
  Ni  Ni7  1  0.17097183  0.83207953  0.16700135  1
  Ni  Ni8  1  0.00067538  0.66447010  0.33553791  1
  Ni  Ni9  1  0.33466605  0.99949472  0.99973095  1
  Ni  Ni10  1  0.50088264  0.16863859  0.16686897  1
  Ni  Ni11  1  0.33450111  0.99996385  0.33486025  1
  Ni  Ni12  1  0.33430742  0.33452738  0.99869431  1
  Ni  Ni13  1  0.50024770  0.50014808  0.16723298  1
  Ni  Ni14  1  0.33458438  0.33386050  0.33561914  1
  Ni  Ni15  1  0.33518414  0.66744408  1.00035482  1
  Ni  Ni16  1  0.49742039  0.83265541  0.16654235  1
  Fe  Fe17  1  0.33406919  0.66689798  0.33346433  1
  Ni  Ni18  1  0.66485210  0.00222582  1.00002813  1
  Ni  Ni19  1  0.83228517  0.17134081  0.16487660  1
  Cr  Cr20  1  0.66333447  0.99980602  0.33393532  1
  Ni  Ni21  1  0.66738552  0.33395376  1.00037982  1
  Ni  Ni22  1  0.83280294  0.49755154  0.16876842  1
  Ni  Ni23  1  0.66609079  0.33723963  0.33316152  1
  Ni  Ni24  1  0.66390136  0.66526069  1.00035920  1
  Cr  Cr25  1  0.83304100  0.83303853  0.16632699  1
  Ni  Ni26  1  0.66740932  0.66452281  0.33504767  1
  Fe  Fe27  1  0.16824773  0.16808074  0.49958921  1
  Fe  Fe28  1  0.00116074  0.00064277  0.66785799  1
  Ni  Ni29  1  0.16526132  0.16757612  0.83481591  1
  Fe  Fe30  1  0.16694905  0.50177766  0.49984434  1
  Ni  Ni31  1  0.00130014  0.33527345  0.66804523  1
  Ni  Ni32  1  0.16776376  0.50036571  0.83306055  1
  Ni  Ni33  1  0.16744975  0.83193332  0.50034329  1
  Fe  Fe34  1  0.00277922  0.66578498  0.66614375  1
  Ni  Ni35  1  0.16931008  0.83368122  0.83419042  1
  Ni  Ni36  1  0.49890465  0.16774799  0.49848096  1
  Cr  Cr37  1  0.33534861  0.99952071  0.66721903  1
  Ni  Ni38  1  0.50130654  0.16644064  0.83626761  1
  Ni  Ni39  1  0.49958723  0.50115587  0.49793930  1
  Cr  Cr40  1  0.33258643  0.33537148  0.66790957  1
  Ni  Ni41  1  0.49882075  0.50152136  0.83646574  1
  Ni  Ni42  1  0.49873968  0.83258989  0.49968030  1
  Ni  Ni43  1  0.33189397  0.66803367  0.66711614  1
  Ni  Ni44  1  0.49830613  0.83350740  0.83526328  1
  Cr  Cr45  1  0.83397570  0.16854861  0.50104435  1
  Ni  Ni46  1  0.66683013  0.99964866  0.66675088  1
  Ni  Ni47  1  0.83496571  0.16814758  0.83484266  1
  Ni  Ni48  1  0.83536377  0.50169305  0.49857803  1
  Cr  Cr49  1  0.66719743  0.33358751  0.66862455  1
  Ni  Ni50  1  0.83485804  0.49729904  0.83456014  1
  Ni  Ni51  1  0.83550225  0.83121964  0.50182968  1
  Cr  Cr52  1  0.66544328  0.66751057  0.66679323  1
  Cr  Cr53  1  0.83328057  0.83561446  0.83308523  1
" 