4172,Ni71Fe27Cr0_18,-242.569970988842, 214.628080517027,Ni71Fe27Cr0,"# generated using pymatgen
 data_CrFe15Ni38
_symmetry_space_group_name_H-M   'P 1'
_cell_length_a   7.42144141
_cell_length_b   7.42144141
_cell_length_c   10.49550309
_cell_angle_alpha   90.00000000
_cell_angle_beta   90.00000000
_cell_angle_gamma   90.00000000
_symmetry_Int_Tables_number   1
_chemical_formula_structural   CrFe15Ni38
_chemical_formula_sum   'Cr1 Fe15 Ni38'
_cell_volume   578.06914264
_cell_formula_units_Z   1
loop_
 _symmetry_equiv_pos_site_id
 _symmetry_equiv_pos_as_xyz
  1  'x, y, z'
loop_
 _atom_site_type_symbol
 _atom_site_label
 _atom_site_symmetry_multiplicity
 _atom_site_fract_x
 _atom_site_fract_y
 _atom_site_fract_z
 _atom_site_occupancy
  Fe  Fe0  1  0.00369813  0.00337149  1.00269128  1
  Ni  Ni1  1  0.16911671  0.16923208  0.17003953  1
  Ni  Ni2  1  0.00312513  1.00250626  0.33563133  1
  Fe  Fe3  1  0.00355271  0.33688615  0.00307885  1
  Ni  Ni4  1  0.16905587  0.50346151  0.17041983  1
  Ni  Ni5  1  1.00245368  0.33722299  0.33506930  1
  Ni  Ni6  1  1.00291217  0.66995868  0.00311041  1
  Ni  Ni7  1  0.17075883  0.83652369  0.16937412  1
  Ni  Ni8  1  0.00332511  0.66948810  0.33588116  1
  Fe  Fe9  1  0.33584448  1.00277607  0.00334997  1
  Ni  Ni10  1  0.50352065  0.16923181  0.17012483  1
  Ni  Ni11  1  0.33742603  1.00304819  0.33562866  1
  Ni  Ni12  1  0.33695296  0.33609528  0.00384762  1
  Ni  Ni13  1  0.50381785  0.50369680  0.16970652  1
  Fe  Fe14  1  0.33616632  0.33522794  0.33591506  1
  Fe  Fe15  1  0.33581234  0.66949610  1.00296467  1
  Ni  Ni16  1  0.50211712  0.83628838  0.17026928  1
  Fe  Fe17  1  0.33622486  0.67062582  0.33651244  1
  Fe  Fe18  1  0.66967602  1.00301366  0.00335933  1
  Ni  Ni19  1  0.83658101  0.17093517  0.17009665  1
  Ni  Ni20  1  0.66866663  0.00391639  0.33559467  1
  Fe  Fe21  1  0.67021323  0.33685395  0.00364729  1
  Ni  Ni22  1  0.83634518  0.50205785  0.16967271  1
  Ni  Ni23  1  0.66952572  0.33561964  0.33562858  1
  Fe  Fe24  1  0.66961502  0.66934864  1.00251729  1
  Fe  Fe25  1  0.83687795  0.83634246  0.16955078  1
  Fe  Fe26  1  0.67015719  0.66976139  0.33683589  1
  Ni  Ni27  1  0.16907837  0.16826176  0.50343236  1
  Ni  Ni28  1  0.00492938  1.00256066  0.67011061  1
  Ni  Ni29  1  0.16908750  0.16946521  0.83574418  1
  Fe  Fe30  1  0.16979763  0.50266138  0.50354429  1
  Ni  Ni31  1  0.00316936  0.33698309  0.67063929  1
  Ni  Ni32  1  0.16905209  0.50310487  0.83554005  1
  Ni  Ni33  1  0.17078821  0.83749263  0.50409994  1
  Ni  Ni34  1  0.00319586  0.66967405  0.67022561  1
  Ni  Ni35  1  0.17071903  0.83664806  0.83574564  1
  Ni  Ni36  1  0.50253286  0.17021794  0.50255985  1
  Ni  Ni37  1  0.33496720  0.00310347  0.67058248  1
  Fe  Fe38  1  0.50186185  0.17047693  0.83692252  1
  Ni  Ni39  1  0.50478892  0.50372758  0.50377062  1
  Ni  Ni40  1  0.33666504  0.33638009  0.66949674  1
  Fe  Fe41  1  0.50285504  0.50324046  0.83574021  1
  Ni  Ni42  1  0.50109432  0.83527254  0.50238515  1
  Ni  Ni43  1  0.33609733  0.66973291  0.67069866  1
  Ni  Ni44  1  0.50178435  0.83523395  0.83656395  1
  Ni  Ni45  1  0.83760463  0.17195912  0.50255181  1
  Cr  Cr46  1  0.66960975  0.00332859  0.66901284  1
  Ni  Ni47  1  0.83778390  0.17147317  0.83656423  1
  Ni  Ni48  1  0.83538396  0.50202162  0.50380013  1
  Ni  Ni49  1  0.66938230  0.33811502  0.67055317  1
  Ni  Ni50  1  0.83636858  0.50254346  0.83574587  1
  Fe  Fe51  1  0.83714698  0.83607757  0.50274255  1
  Ni  Ni52  1  0.66992400  0.66797402  0.67010175  1
  Ni  Ni53  1  0.83671290  0.83520361  0.83652769  1
" 