3315,Ni71Fe2Cr26_17,-228.625357289727, 150.044894936,Ni71Fe2Cr26,"# generated using pymatgen
 data_Cr15FeNi38
_symmetry_space_group_name_H-M   'P 1'
_cell_length_a   7.48331874
_cell_length_b   7.48331874
_cell_length_c   10.58301086
_cell_angle_alpha   90.00000000
_cell_angle_beta   90.00000000
_cell_angle_gamma   90.00000000
_symmetry_Int_Tables_number   1
_chemical_formula_structural   Cr15FeNi38
_chemical_formula_sum   'Cr15 Fe1 Ni38'
_cell_volume   592.64923708
_cell_formula_units_Z   1
loop_
 _symmetry_equiv_pos_site_id
 _symmetry_equiv_pos_as_xyz
  1  'x, y, z'
loop_
 _atom_site_type_symbol
 _atom_site_label
 _atom_site_symmetry_multiplicity
 _atom_site_fract_x
 _atom_site_fract_y
 _atom_site_fract_z
 _atom_site_occupancy
  Cr  Cr0  1  0.99442440  0.99871307  0.99884154  1
  Cr  Cr1  1  0.16542703  0.16848939  0.16732821  1
  Ni  Ni2  1  -0.00067377  0.99856281  0.33419907  1
  Ni  Ni3  1  0.99718167  0.33597626  0.99888673  1
  Ni  Ni4  1  0.16555056  0.49859364  0.16497781  1
  Ni  Ni5  1  -0.00075580  0.33237238  0.33229025  1
  Ni  Ni6  1  0.99716740  0.66203402  0.99874662  1
  Cr  Cr7  1  0.16419644  0.82947553  0.16710237  1
  Ni  Ni8  1  0.99753780  0.66579688  0.33224897  1
  Cr  Cr9  1  0.33609256  -0.00017155  0.99874079  1
  Ni  Ni10  1  0.49975261  0.16835650  0.16451798  1
  Ni  Ni11  1  0.33082937  -0.00034582  0.33552132  1
  Ni  Ni12  1  0.33384666  0.33582256  -0.00089060  1
  Ni  Ni13  1  0.49815053  0.49806280  0.16421664  1
  Ni  Ni14  1  0.33099701  0.33137417  0.33103938  1
  Ni  Ni15  1  0.33282900  0.66113522  0.99770244  1
  Cr  Cr16  1  0.50064366  0.83067657  0.16579203  1
  Ni  Ni17  1  0.33170075  0.66572261  0.33227915  1
  Ni  Ni18  1  0.66663788  -0.00023914  0.99762257  1
  Ni  Ni19  1  0.83132589  0.16681267  0.16409231  1
  Cr  Cr20  1  0.66588696  0.99845484  0.33240778  1
  Ni  Ni21  1  0.66573063  0.33208405  0.99877667  1
  Ni  Ni22  1  0.83301782  0.49962219  0.16512620  1
  Cr  Cr23  1  0.66587989  0.33329483  0.33162667  1
  Ni  Ni24  1  0.66677271  0.66488462  0.99849725  1
  Ni  Ni25  1  0.83190140  0.83032405  0.16514510  1
  Ni  Ni26  1  0.66750769  0.66565392  0.33229469  1
  Ni  Ni27  1  0.16721324  0.16353550  0.49720185  1
  Cr  Cr28  1  0.99757974  0.99861221  0.66395386  1
  Cr  Cr29  1  0.16691429  0.16891117  0.83204111  1
  Cr  Cr30  1  0.16550574  0.49866758  0.49748987  1
  Cr  Cr31  1  0.99713893  0.33256043  0.66536431  1
  Ni  Ni32  1  0.16670075  0.49908777  0.83437611  1
  Ni  Ni33  1  0.16738511  0.83422377  0.49745463  1
  Cr  Cr34  1  0.99890559  0.66555664  0.66584272  1
  Cr  Cr35  1  0.16737825  0.82906210  0.83233573  1
  Ni  Ni36  1  0.49713980  0.16345280  0.50099807  1
  Ni  Ni37  1  0.33592933  -0.00093074  0.66324125  1
  Ni  Ni38  1  0.50164935  0.16570050  0.83124128  1
  Cr  Cr39  1  0.49954261  0.49905850  0.49918207  1
  Ni  Ni40  1  0.33489405  0.33092259  0.66658667  1
  Fe  Fe41  1  0.49890626  0.49805037  0.83338104  1
  Ni  Ni42  1  0.49716530  0.83419354  0.49925861  1
  Ni  Ni43  1  0.33317023  0.66672589  0.66675202  1
  Ni  Ni44  1  0.50067438  0.83277122  0.83186992  1
  Ni  Ni45  1  0.83236188  0.16539215  0.49951464  1
  Ni  Ni46  1  0.66333273  0.00075943  0.66617964  1
  Ni  Ni47  1  0.82738157  0.16692416  0.83309755  1
  Ni  Ni48  1  0.83236491  0.49888456  0.49713873  1
  Ni  Ni49  1  0.66447766  0.32926879  0.66632456  1
  Ni  Ni50  1  0.83215054  0.49803968  0.83447798  1
  Ni  Ni51  1  0.83220012  0.83244938  0.49717393  1
  Cr  Cr52  1  0.66548410  0.66613228  0.66532889  1
  Ni  Ni53  1  0.82818812  0.83174199  0.83435635  1
" 