8850,Ni71Fe9Cr19_3,-232.558233309927, 169.765653200061,Ni71Fe9Cr19,"# generated using pymatgen
 data_Cr11Fe5Ni38
_symmetry_space_group_name_H-M   'P 1'
_cell_length_a   7.46099759
_cell_length_b   7.46099759
_cell_length_c   10.55144398
_cell_angle_alpha   90.00000000
_cell_angle_beta   90.00000000
_cell_angle_gamma   90.00000000
_symmetry_Int_Tables_number   1
_chemical_formula_structural   Cr11Fe5Ni38
_chemical_formula_sum   'Cr11 Fe5 Ni38'
_cell_volume   587.36179819
_cell_formula_units_Z   1
loop_
 _symmetry_equiv_pos_site_id
 _symmetry_equiv_pos_as_xyz
  1  'x, y, z'
loop_
 _atom_site_type_symbol
 _atom_site_label
 _atom_site_symmetry_multiplicity
 _atom_site_fract_x
 _atom_site_fract_y
 _atom_site_fract_z
 _atom_site_occupancy
  Ni  Ni0  1  0.99949375  0.00126199  0.99958726  1
  Cr  Cr1  1  0.16803531  0.16671761  0.16685083  1
  Ni  Ni2  1  0.00268003  0.99941452  0.33331810  1
  Ni  Ni3  1  1.00023845  0.33518938  0.99886694  1
  Ni  Ni4  1  0.16758642  0.50248384  0.16762953  1
  Ni  Ni5  1  0.00229056  0.33568522  0.33389155  1
  Ni  Ni6  1  0.99951940  0.66476677  0.00119924  1
  Ni  Ni7  1  0.16699818  0.83181514  0.16692096  1
  Ni  Ni8  1  0.00341489  0.66608275  0.33186369  1
  Ni  Ni9  1  0.33521542  0.99922972  0.99915329  1
  Cr  Cr10  1  0.49992923  0.16763970  0.16672213  1
  Ni  Ni11  1  0.33376790  0.99903332  0.33528898  1
  Fe  Fe12  1  0.33310894  0.33579648  0.99952334  1
  Ni  Ni13  1  0.49911832  0.50118593  0.16654215  1
  Ni  Ni14  1  0.33360318  0.33543909  0.33559636  1
  Ni  Ni15  1  0.33545422  0.66629288  0.00191613  1
  Ni  Ni16  1  0.49944510  0.83318633  0.16654601  1
  Ni  Ni17  1  0.33254678  0.66676387  0.33332006  1
  Ni  Ni18  1  0.66649028  0.99862121  0.99845244  1
  Cr  Cr19  1  0.83319597  0.16654681  0.16895714  1
  Ni  Ni20  1  0.66453638  1.00022797  0.33403566  1
  Fe  Fe21  1  0.66793602  0.33526570  0.99951775  1
  Ni  Ni22  1  0.83444202  0.50139535  0.16609184  1
  Ni  Ni23  1  0.66536428  0.33456420  0.33278040  1
  Ni  Ni24  1  0.66620586  0.66704579  1.00001976  1
  Ni  Ni25  1  0.83476803  0.83310935  0.16596070  1
  Cr  Cr26  1  0.66508407  0.66601368  0.33143785  1
  Ni  Ni27  1  0.16916850  0.16874919  0.49903068  1
  Cr  Cr28  1  0.00120506  0.00301954  0.66874946  1
  Ni  Ni29  1  0.16751318  0.17081546  0.83524118  1
  Ni  Ni30  1  0.16846195  0.50034076  0.49971185  1
  Ni  Ni31  1  0.00137335  0.33504242  0.66824635  1
  Ni  Ni32  1  0.16757839  0.49842525  0.83388249  1
  Ni  Ni33  1  0.16676910  0.83221669  0.49742547  1
  Ni  Ni34  1  1.00014453  0.66340540  0.66844503  1
  Cr  Cr35  1  0.16594541  0.83114646  0.83709033  1
  Ni  Ni36  1  0.49992012  0.16906846  0.49981477  1
  Cr  Cr37  1  0.33526886  0.00250571  0.66659812  1
  Ni  Ni38  1  0.50151026  0.16862076  0.83440863  1
  Ni  Ni39  1  0.49887024  0.49770523  0.50026760  1
  Fe  Fe40  1  0.33414316  0.33402253  0.66685796  1
  Ni  Ni41  1  0.50024417  0.49967369  0.83444265  1
  Fe  Fe42  1  0.49970609  0.83400119  0.49955410  1
  Cr  Cr43  1  0.33458816  0.66613459  0.66543054  1
  Ni  Ni44  1  0.50382823  0.83319230  0.83448484  1
  Cr  Cr45  1  0.83200566  0.16766135  0.49796748  1
  Ni  Ni46  1  0.66487586  0.00140891  0.66859747  1
  Ni  Ni47  1  0.83239359  0.16707314  0.83414079  1
  Cr  Cr48  1  0.83388790  0.50047230  0.50170396  1
  Ni  Ni49  1  0.66641925  0.33377598  0.66883434  1
  Fe  Fe50  1  0.83356818  0.50046602  0.83407762  1
  Cr  Cr51  1  0.83461497  0.83312552  0.50141687  1
  Ni  Ni52  1  0.66595536  0.66591595  0.66935468  1
  Ni  Ni53  1  0.83146542  0.83313454  0.83412859  1
" 