7553,Ni71Fe27Cr0_4,-242.55816476679, 215.352429258505,Ni71Fe27Cr0,"# generated using pymatgen
 data_CrFe15Ni38
_symmetry_space_group_name_H-M   'P 1'
_cell_length_a   7.41853396
_cell_length_b   7.41853396
_cell_length_c   10.49139134
_cell_angle_alpha   90.00000000
_cell_angle_beta   90.00000000
_cell_angle_gamma   90.00000000
_symmetry_Int_Tables_number   1
_chemical_formula_structural   CrFe15Ni38
_chemical_formula_sum   'Cr1 Fe15 Ni38'
_cell_volume   577.39001035
_cell_formula_units_Z   1
loop_
 _symmetry_equiv_pos_site_id
 _symmetry_equiv_pos_as_xyz
  1  'x, y, z'
loop_
 _atom_site_type_symbol
 _atom_site_label
 _atom_site_symmetry_multiplicity
 _atom_site_fract_x
 _atom_site_fract_y
 _atom_site_fract_z
 _atom_site_occupancy
  Ni  Ni0  1  0.00398524  1.00281733  0.00474994  1
  Fe  Fe1  1  0.17035423  0.17176907  0.16969947  1
  Fe  Fe2  1  1.00186657  0.00414704  0.33635333  1
  Ni  Ni3  1  1.00220131  0.33827786  0.00380967  1
  Ni  Ni4  1  0.17018079  0.50695732  0.16906983  1
  Ni  Ni5  1  1.00168969  0.33860378  0.33470865  1
  Ni  Ni6  1  0.00409877  0.66897547  1.00224592  1
  Ni  Ni7  1  0.17004213  0.83664543  0.17062440  1
  Ni  Ni8  1  1.00309837  0.66913020  0.33676745  1
  Ni  Ni9  1  0.33794740  1.00186093  1.00323328  1
  Ni  Ni10  1  0.50521546  0.17001948  0.16969837  1
  Ni  Ni11  1  0.33773001  1.00269916  0.33672256  1
  Fe  Fe12  1  0.33648578  0.33544914  1.00270781  1
  Ni  Ni13  1  0.50425177  0.50267281  0.17011754  1
  Fe  Fe14  1  0.33752767  0.33540259  0.33608397  1
  Fe  Fe15  1  0.33657677  0.67016647  1.00251655  1
  Fe  Fe16  1  0.50369556  0.83634575  0.17053711  1
  Fe  Fe17  1  0.33773668  0.67004828  0.33655268  1
  Ni  Ni18  1  0.66792756  0.00402333  1.00313987  1
  Ni  Ni19  1  0.83478822  0.16959813  0.16930472  1
  Ni  Ni20  1  0.66714675  0.00422885  0.33673910  1
  Ni  Ni21  1  0.66997977  0.33668676  1.00278918  1
  Ni  Ni22  1  0.83606314  0.50270946  0.16960248  1
  Ni  Ni23  1  0.67050078  0.33623009  0.33752504  1
  Fe  Fe24  1  0.67119346  0.66994583  1.00231706  1
  Fe  Fe25  1  0.83634018  0.83573726  0.16942502  1
  Fe  Fe26  1  0.67078186  0.66944715  0.33765409  1
  Ni  Ni27  1  0.16920331  0.16739458  0.50210313  1
  Ni  Ni28  1  0.00386450  0.00421489  0.66877804  1
  Ni  Ni29  1  0.16916897  0.16774568  0.83782925  1
  Cr  Cr30  1  0.16985162  0.50445048  0.50477113  1
  Ni  Ni31  1  1.00246815  0.33618351  0.67148520  1
  Ni  Ni32  1  0.16994058  0.50490857  0.83669220  1
  Ni  Ni33  1  0.17003509  0.83791107  0.50349536  1
  Ni  Ni34  1  1.00245488  0.66925317  0.67092490  1
  Ni  Ni35  1  0.16975888  0.83684724  0.83558162  1
  Ni  Ni36  1  0.50426348  0.16924394  0.50405459  1
  Ni  Ni37  1  0.33708298  1.00325920  0.66956894  1
  Ni  Ni38  1  0.50447571  0.16954046  0.83625567  1
  Ni  Ni39  1  0.50567023  0.50334916  0.50332908  1
  Fe  Fe40  1  0.33651129  0.33551174  0.67127853  1
  Ni  Ni41  1  0.50399655  0.50341032  0.83634671  1
  Ni  Ni42  1  0.50209221  0.83684758  0.50310876  1
  Ni  Ni43  1  0.33779088  0.67134192  0.67037969  1
  Fe  Fe44  1  0.50330312  0.83699585  0.83533032  1
  Ni  Ni45  1  0.83602929  0.17010940  0.50343837  1
  Ni  Ni46  1  0.66851162  1.00315756  0.66977221  1
  Ni  Ni47  1  0.83616406  0.16907661  0.83734444  1
  Ni  Ni48  1  0.83548834  0.50225206  0.50368063  1
  Fe  Fe49  1  0.67040503  0.33649952  0.67029047  1
  Ni  Ni50  1  0.83615891  0.50276801  0.83659085  1
  Fe  Fe51  1  0.83579329  0.83690086  0.50390285  1
  Ni  Ni52  1  0.66939841  0.66939610  0.66925596  1
  Fe  Fe53  1  0.83727973  0.83740257  0.83628305  1
" 