4846,Ni71Fe2Cr26_11,-228.59993669684, 146.978777574806,Ni71Fe2Cr26,"# generated using pymatgen
 data_Cr15FeNi38
_symmetry_space_group_name_H-M   'P 1'
_cell_length_a   7.48064774
_cell_length_b   7.48064774
_cell_length_c   10.57923349
_cell_angle_alpha   90.00000000
_cell_angle_beta   90.00000000
_cell_angle_gamma   90.00000000
_symmetry_Int_Tables_number   1
_chemical_formula_structural   Cr15FeNi38
_chemical_formula_sum   'Cr15 Fe1 Ni38'
_cell_volume   592.01486410
_cell_formula_units_Z   1
loop_
 _symmetry_equiv_pos_site_id
 _symmetry_equiv_pos_as_xyz
  1  'x, y, z'
loop_
 _atom_site_type_symbol
 _atom_site_label
 _atom_site_symmetry_multiplicity
 _atom_site_fract_x
 _atom_site_fract_y
 _atom_site_fract_z
 _atom_site_occupancy
  Cr  Cr0  1  -0.00075384  0.99649140  0.00038643  1
  Ni  Ni1  1  0.16663582  0.16485747  0.16807020  1
  Ni  Ni2  1  0.99892744  0.00258656  0.33005966  1
  Cr  Cr3  1  0.99841226  0.33459880  -0.00030928  1
  Ni  Ni4  1  0.16580410  0.49874414  0.16724594  1
  Ni  Ni5  1  -0.00074696  0.33072860  0.33262983  1
  Ni  Ni6  1  -0.00050909  0.66604842  0.99889722  1
  Ni  Ni7  1  0.16497690  0.83367662  0.16579848  1
  Cr  Cr8  1  -0.00088069  0.66446140  0.33028801  1
  Ni  Ni9  1  0.33142539  0.99819434  -0.00020835  1
  Ni  Ni10  1  0.49804812  0.16677309  0.16813040  1
  Ni  Ni11  1  0.33269858  0.00083101  0.33195100  1
  Cr  Cr12  1  0.33285702  0.33265150  0.00084389  1
  Ni  Ni13  1  0.49927062  0.49716637  0.16856414  1
  Ni  Ni14  1  0.33163566  0.33172577  0.33065155  1
  Cr  Cr15  1  0.33009621  0.66596080  0.99779055  1
  Cr  Cr16  1  0.49846353  0.83283974  0.16826579  1
  Ni  Ni17  1  0.33349764  0.66471030  0.33152766  1
  Cr  Cr18  1  0.66614720  -0.00070754  0.99889089  1
  Ni  Ni19  1  0.83258570  0.16595538  0.16878312  1
  Ni  Ni20  1  0.66565294  0.00069811  0.33215432  1
  Cr  Cr21  1  0.66599567  0.33285648  -0.00048807  1
  Ni  Ni22  1  0.83220424  0.49887222  0.16720062  1
  Ni  Ni23  1  0.66639416  0.33153324  0.33083923  1
  Cr  Cr24  1  0.66816389  0.66512419  0.99846841  1
  Ni  Ni25  1  0.83414032  0.83245777  0.16706423  1
  Ni  Ni26  1  0.66466258  0.66502555  0.33117283  1
  Ni  Ni27  1  0.16425949  0.16657354  0.49805071  1
  Ni  Ni28  1  0.99790675  -0.00003051  0.66708933  1
  Cr  Cr29  1  0.16422457  0.16407990  0.83158992  1
  Ni  Ni30  1  0.16468955  0.49652420  0.49931304  1
  Ni  Ni31  1  0.99647039  0.33330986  0.66493194  1
  Ni  Ni32  1  0.16409177  0.50276333  0.83071298  1
  Cr  Cr33  1  0.16832922  0.83348389  0.49994729  1
  Ni  Ni34  1  -0.00088507  0.66398153  0.66859003  1
  Ni  Ni35  1  0.16604111  0.83071330  0.83129298  1
  Fe  Fe36  1  0.49995269  0.16389694  0.49787740  1
  Ni  Ni37  1  0.33336048  0.99618254  0.66556978  1
  Cr  Cr38  1  0.50030641  0.16448965  0.83172755  1
  Cr  Cr39  1  0.50023188  0.50112791  0.49781259  1
  Cr  Cr40  1  0.33122312  0.33368100  0.66511612  1
  Ni  Ni41  1  0.50032063  0.50195856  0.83058197  1
  Ni  Ni42  1  0.49884598  0.83359663  0.49951815  1
  Ni  Ni43  1  0.33243663  0.66749596  0.66790622  1
  Ni  Ni44  1  0.49818242  0.83134495  0.82951848  1
  Ni  Ni45  1  0.83326432  0.16764738  0.49948769  1
  Ni  Ni46  1  0.66601303  0.99882500  0.66624010  1
  Ni  Ni47  1  0.83221503  0.16593189  0.82900441  1
  Ni  Ni48  1  0.83267199  0.49562681  0.50019149  1
  Ni  Ni49  1  0.66952661  0.33238272  0.66668087  1
  Ni  Ni50  1  0.83286423  0.50009963  0.82990618  1
  Cr  Cr51  1  0.82979211  0.83304519  0.49928479  1
  Ni  Ni52  1  0.66572092  0.66606812  0.66786296  1
  Ni  Ni53  1  0.83305125  0.83125124  0.83043920  1
" 