4450,Ni71Fe9Cr19_13,-232.81142933163, 171.839802669656,Ni71Fe9Cr19,"# generated using pymatgen
 data_Cr11Fe5Ni38
_symmetry_space_group_name_H-M   'P 1'
_cell_length_a   7.45823775
_cell_length_b   7.45823775
_cell_length_c   10.54754098
_cell_angle_alpha   90.00000000
_cell_angle_beta   90.00000000
_cell_angle_gamma   90.00000000
_symmetry_Int_Tables_number   1
_chemical_formula_structural   Cr11Fe5Ni38
_chemical_formula_sum   'Cr11 Fe5 Ni38'
_cell_volume   586.71024008
_cell_formula_units_Z   1
loop_
 _symmetry_equiv_pos_site_id
 _symmetry_equiv_pos_as_xyz
  1  'x, y, z'
loop_
 _atom_site_type_symbol
 _atom_site_label
 _atom_site_symmetry_multiplicity
 _atom_site_fract_x
 _atom_site_fract_y
 _atom_site_fract_z
 _atom_site_occupancy
  Fe  Fe0  1  0.99962008  0.99987481  0.99976125  1
  Ni  Ni1  1  0.16810004  0.16880274  0.16894210  1
  Ni  Ni2  1  1.00028518  0.00169233  0.33309955  1
  Ni  Ni3  1  0.00339297  0.33551321  0.00061134  1
  Ni  Ni4  1  0.16814760  0.49928385  0.16696031  1
  Ni  Ni5  1  0.00279568  0.33105329  0.33237889  1
  Ni  Ni6  1  0.99988615  0.66698565  0.00073275  1
  Ni  Ni7  1  0.16729548  0.83368385  0.16778755  1
  Cr  Cr8  1  0.99968593  0.66830761  0.33255787  1
  Cr  Cr9  1  0.33456751  0.00131886  1.00043126  1
  Ni  Ni10  1  0.49779183  0.16671600  0.16819068  1
  Fe  Fe11  1  0.33415281  0.99971962  0.33104475  1
  Ni  Ni12  1  0.33193162  0.33421874  0.00110156  1
  Ni  Ni13  1  0.49860369  0.50222657  0.16812876  1
  Ni  Ni14  1  0.33312655  0.33432752  0.33128840  1
  Fe  Fe15  1  0.33402915  0.66546205  0.00064806  1
  Ni  Ni16  1  0.50154209  0.83282646  0.16887351  1
  Ni  Ni17  1  0.33734853  0.66728377  0.33211187  1
  Ni  Ni18  1  0.66726134  0.99787420  1.00046397  1
  Cr  Cr19  1  0.83542958  0.16616043  0.16734481  1
  Fe  Fe20  1  0.66749341  0.99746482  0.33397696  1
  Cr  Cr21  1  0.66613291  0.33443480  0.99923223  1
  Ni  Ni22  1  0.83502094  0.50303047  0.16675262  1
  Cr  Cr23  1  0.66642815  0.33516623  0.33369324  1
  Ni  Ni24  1  0.66855467  0.66938857  0.00122896  1
  Ni  Ni25  1  0.83293454  0.83287445  0.16686302  1
  Ni  Ni26  1  0.66431696  0.66979625  0.33338077  1
  Cr  Cr27  1  0.16598749  0.16720592  0.49935431  1
  Ni  Ni28  1  0.99869716  0.99876513  0.66885080  1
  Ni  Ni29  1  0.16718737  0.16773867  0.83373751  1
  Cr  Cr30  1  0.17001003  0.50051560  0.50054407  1
  Cr  Cr31  1  0.99981742  0.33305824  0.66857400  1
  Ni  Ni32  1  0.16796281  0.50094685  0.83452039  1
  Cr  Cr33  1  0.16770204  0.83404832  0.50198927  1
  Ni  Ni34  1  1.00037505  0.67057749  0.66914715  1
  Ni  Ni35  1  0.16606552  0.83308532  0.83238318  1
  Cr  Cr36  1  0.50142074  0.16717482  0.50157793  1
  Fe  Fe37  1  0.33504713  0.99936086  0.67003558  1
  Ni  Ni38  1  0.50065279  0.16766255  0.83209292  1
  Ni  Ni39  1  0.50012248  0.50305964  0.50136348  1
  Ni  Ni40  1  0.33663895  0.33497367  0.66938262  1
  Ni  Ni41  1  0.49961884  0.50076049  0.83227805  1
  Ni  Ni42  1  0.50282972  0.83186543  0.50015159  1
  Ni  Ni43  1  0.33554229  0.66706309  0.66861440  1
  Ni  Ni44  1  0.50158955  0.83334616  0.83274473  1
  Ni  Ni45  1  0.83399292  0.16405368  0.50057507  1
  Ni  Ni46  1  0.66839464  0.99986227  0.66730289  1
  Ni  Ni47  1  0.83393099  0.16576766  0.83313834  1
  Cr  Cr48  1  0.83202440  0.50117110  0.50140826  1
  Ni  Ni49  1  0.66488142  0.33329369  0.66862781  1
  Ni  Ni50  1  0.83419117  0.50188362  0.83383835  1
  Ni  Ni51  1  0.83136388  0.83642899  0.50125060  1
  Ni  Ni52  1  0.66585389  0.66861573  0.66716309  1
  Ni  Ni53  1  0.83411704  0.83412093  0.83365967  1
" 