7150,Ni71Fe9Cr19_4,-232.867951451531, 172.150123050582,Ni71Fe9Cr19,"# generated using pymatgen
 data_Cr11Fe5Ni38
_symmetry_space_group_name_H-M   'P 1'
_cell_length_a   7.45946857
_cell_length_b   7.45946857
_cell_length_c   10.54928162
_cell_angle_alpha   90.00000000
_cell_angle_beta   90.00000000
_cell_angle_gamma   90.00000000
_symmetry_Int_Tables_number   1
_chemical_formula_structural   Cr11Fe5Ni38
_chemical_formula_sum   'Cr11 Fe5 Ni38'
_cell_volume   587.00075971
_cell_formula_units_Z   1
loop_
 _symmetry_equiv_pos_site_id
 _symmetry_equiv_pos_as_xyz
  1  'x, y, z'
loop_
 _atom_site_type_symbol
 _atom_site_label
 _atom_site_symmetry_multiplicity
 _atom_site_fract_x
 _atom_site_fract_y
 _atom_site_fract_z
 _atom_site_occupancy
  Ni  Ni0  1  0.00218627  0.00184212  0.00119318  1
  Ni  Ni1  1  0.16613548  0.16807476  0.16539109  1
  Fe  Fe2  1  0.99918835  0.00206375  0.33444695  1
  Ni  Ni3  1  0.00168491  0.33208493  0.99854190  1
  Ni  Ni4  1  0.16776608  0.49977914  0.16781882  1
  Ni  Ni5  1  0.00168501  0.33376642  0.33521475  1
  Fe  Fe6  1  0.00171048  0.66715455  0.99905104  1
  Fe  Fe7  1  0.16636264  0.83439336  0.16741864  1
  Ni  Ni8  1  0.00299162  0.66706146  0.33380194  1
  Ni  Ni9  1  0.33040059  0.00133000  0.00089844  1
  Ni  Ni10  1  0.50036259  0.16803475  0.16692098  1
  Cr  Cr11  1  0.33357397  0.00232207  0.33345662  1
  Ni  Ni12  1  0.33045768  0.33226638  0.00337439  1
  Ni  Ni13  1  0.49780336  0.49829358  0.16863269  1
  Ni  Ni14  1  0.33249092  0.33529978  0.33317716  1
  Cr  Cr15  1  0.33261719  0.66756048  0.00132828  1
  Ni  Ni16  1  0.49899763  0.83520127  0.16686117  1
  Ni  Ni17  1  0.33085871  0.66491561  0.33334093  1
  Cr  Cr18  1  0.66868197  1.00046031  0.00137694  1
  Ni  Ni19  1  0.83507509  0.16620423  0.16786366  1
  Ni  Ni20  1  0.66951163  0.00284977  0.33265852  1
  Ni  Ni21  1  0.66931642  0.33316899  0.00199002  1
  Cr  Cr22  1  0.83681326  0.49758425  0.16609319  1
  Ni  Ni23  1  0.66725077  0.33099802  0.33432825  1
  Cr  Cr24  1  0.66937758  0.66705899  0.00062784  1
  Fe  Fe25  1  0.83646247  0.83654381  0.16857083  1
  Cr  Cr26  1  0.66758818  0.66721238  0.33349880  1
  Ni  Ni27  1  0.16387179  0.16780672  0.49982600  1
  Ni  Ni28  1  0.99848475  0.00056592  0.66630424  1
  Ni  Ni29  1  0.16326846  0.16602128  0.83629661  1
  Ni  Ni30  1  0.16583505  0.50234110  0.49940832  1
  Ni  Ni31  1  0.99844044  0.33385103  0.66780013  1
  Ni  Ni32  1  0.16365179  0.50139826  0.83421294  1
  Ni  Ni33  1  0.16323904  0.83148434  0.50003033  1
  Ni  Ni34  1  1.00011029  0.66709403  0.66793134  1
  Ni  Ni35  1  0.16415874  0.83408988  0.83428985  1
  Ni  Ni36  1  0.50375598  0.16964506  0.49881062  1
  Cr  Cr37  1  0.33022976  1.00015870  0.66841746  1
  Cr  Cr38  1  0.50116660  0.16718745  0.83527608  1
  Ni  Ni39  1  0.50043603  0.49891510  0.49944781  1
  Cr  Cr40  1  0.32926445  0.33492584  0.66397364  1
  Cr  Cr41  1  0.50154208  0.49957589  0.83264721  1
  Cr  Cr42  1  0.50105452  0.83310958  0.50393487  1
  Ni  Ni43  1  0.33141391  0.66723694  0.66663453  1
  Fe  Fe44  1  0.50051793  0.83369476  0.83225142  1
  Ni  Ni45  1  0.83372858  0.16690279  0.50063743  1
  Ni  Ni46  1  0.67158919  1.00013167  0.66737665  1
  Ni  Ni47  1  0.83662452  0.16721265  0.83310551  1
  Ni  Ni48  1  0.83519870  0.50005395  0.50219628  1
  Ni  Ni49  1  0.67164481  0.33410629  0.66504549  1
  Ni  Ni50  1  0.83650396  0.50018617  0.83319501  1
  Ni  Ni51  1  0.83702615  0.83476668  0.50046765  1
  Ni  Ni52  1  0.67002393  0.66732294  0.66750439  1
  Ni  Ni53  1  0.83730050  0.83412261  0.83253396  1
" 