8184,Ni71Fe20Cr7_13,-238.495572708206, 198.087660589661,Ni71Fe20Cr7,"# generated using pymatgen
 data_Cr5Fe11Ni38
_symmetry_space_group_name_H-M   'P 1'
_cell_length_a   7.43243748
_cell_length_b   7.43243748
_cell_length_c   10.51105389
_cell_angle_alpha   90.00000000
_cell_angle_beta   90.00000000
_cell_angle_gamma   90.00000000
_symmetry_Int_Tables_number   1
_chemical_formula_structural   Cr5Fe11Ni38
_chemical_formula_sum   'Cr5 Fe11 Ni38'
_cell_volume   580.64246170
_cell_formula_units_Z   1
loop_
 _symmetry_equiv_pos_site_id
 _symmetry_equiv_pos_as_xyz
  1  'x, y, z'
loop_
 _atom_site_type_symbol
 _atom_site_label
 _atom_site_symmetry_multiplicity
 _atom_site_fract_x
 _atom_site_fract_y
 _atom_site_fract_z
 _atom_site_occupancy
  Ni  Ni0  1  0.00284449  1.00102061  0.00278859  1
  Ni  Ni1  1  0.16974083  0.16941926  0.17019134  1
  Ni  Ni2  1  0.00339382  0.00464293  0.33551541  1
  Cr  Cr3  1  1.00228286  0.33388403  1.00134979  1
  Ni  Ni4  1  0.16977480  0.50153463  0.16821023  1
  Ni  Ni5  1  1.00146379  0.33296690  0.33720432  1
  Fe  Fe6  1  0.00290482  0.67114789  0.00244366  1
  Ni  Ni7  1  0.16879692  0.83603110  0.16716023  1
  Cr  Cr8  1  1.00124144  0.67014376  0.33541303  1
  Ni  Ni9  1  0.33460694  1.00155407  1.00139179  1
  Ni  Ni10  1  0.50270533  0.16921878  0.16856101  1
  Ni  Ni11  1  0.33420115  0.00343122  0.33648800  1
  Ni  Ni12  1  0.33703013  0.33614985  0.00279000  1
  Fe  Fe13  1  0.50308458  0.50173899  0.16739842  1
  Fe  Fe14  1  0.33499366  0.33369221  0.33576642  1
  Ni  Ni15  1  0.33610072  0.66928298  1.00191042  1
  Ni  Ni16  1  0.50369552  0.83618623  0.16810085  1
  Cr  Cr17  1  0.33735637  0.67025027  0.33594792  1
  Ni  Ni18  1  0.66953443  1.00195656  1.00190595  1
  Ni  Ni19  1  0.83453735  0.16823734  0.17020496  1
  Fe  Fe20  1  0.66938873  0.00249522  0.33580376  1
  Ni  Ni21  1  0.66749099  0.33613097  1.00171298  1
  Fe  Fe22  1  0.83403727  0.50210611  0.16988830  1
  Ni  Ni23  1  0.66991640  0.33616567  0.33581521  1
  Ni  Ni24  1  0.66802205  0.66890010  1.00227270  1
  Ni  Ni25  1  0.83449207  0.83621993  0.16846933  1
  Ni  Ni26  1  0.66870941  0.66797812  0.33638143  1
  Ni  Ni27  1  0.16989333  0.17104539  0.50095472  1
  Cr  Cr28  1  0.00232947  0.00266121  0.66874415  1
  Ni  Ni29  1  0.17042573  0.17030128  0.83583812  1
  Ni  Ni30  1  0.16814734  0.50050615  0.50422397  1
  Fe  Fe31  1  0.00346146  0.33688475  0.66837729  1
  Ni  Ni32  1  0.17021056  0.50270106  0.83454927  1
  Ni  Ni33  1  0.16989053  0.83543523  0.50270497  1
  Fe  Fe34  1  1.00199231  0.66765098  0.66854994  1
  Ni  Ni35  1  0.16937999  0.83398270  0.83711925  1
  Ni  Ni36  1  0.50185544  0.16779227  0.50157930  1
  Fe  Fe37  1  0.33812061  0.00250629  0.66877069  1
  Ni  Ni38  1  0.50229175  0.16878129  0.83684209  1
  Fe  Fe39  1  0.50289282  0.50239045  0.50280512  1
  Ni  Ni40  1  0.33393207  0.33635514  0.66857433  1
  Ni  Ni41  1  0.50101753  0.50274374  0.83682354  1
  Ni  Ni42  1  0.50392292  0.83662246  0.50332844  1
  Fe  Fe43  1  0.33621414  0.66910638  0.66947749  1
  Ni  Ni44  1  0.50337615  0.83546114  0.83555221  1
  Ni  Ni45  1  0.83523784  0.16953049  0.50025172  1
  Ni  Ni46  1  0.66839501  1.00021250  0.66853613  1
  Ni  Ni47  1  0.83427104  0.16794374  0.83652937  1
  Ni  Ni48  1  0.83643095  0.50257263  0.50225839  1
  Cr  Cr49  1  0.66867887  0.33562097  0.67007976  1
  Fe  Fe50  1  0.83494050  0.50390869  0.83532914  1
  Ni  Ni51  1  0.83317812  0.83488095  0.50196980  1
  Ni  Ni52  1  0.66866234  0.67039236  0.66833305  1
  Ni  Ni53  1  0.83423339  0.83525312  0.83654076  1
" 