1449,Ni71Fe2Cr26_19,-228.707870886763, 152.175181318066,Ni71Fe2Cr26,"# generated using pymatgen
 data_Cr15FeNi38
_symmetry_space_group_name_H-M   'P 1'
_cell_length_a   7.47876133
_cell_length_b   7.47876133
_cell_length_c   10.57656570
_cell_angle_alpha   90.00000000
_cell_angle_beta   90.00000000
_cell_angle_gamma   90.00000000
_symmetry_Int_Tables_number   1
_chemical_formula_structural   Cr15FeNi38
_chemical_formula_sum   'Cr15 Fe1 Ni38'
_cell_volume   591.56710914
_cell_formula_units_Z   1
loop_
 _symmetry_equiv_pos_site_id
 _symmetry_equiv_pos_as_xyz
  1  'x, y, z'
loop_
 _atom_site_type_symbol
 _atom_site_label
 _atom_site_symmetry_multiplicity
 _atom_site_fract_x
 _atom_site_fract_y
 _atom_site_fract_z
 _atom_site_occupancy
  Ni  Ni0  1  0.00033882  0.99620469  0.99890407  1
  Ni  Ni1  1  0.16695778  0.16470680  0.16680559  1
  Cr  Cr2  1  0.00133938  0.00048030  0.33145241  1
  Cr  Cr3  1  0.99917550  0.33280308  0.99821901  1
  Cr  Cr4  1  0.16675167  0.49851799  0.16616185  1
  Ni  Ni5  1  0.00027877  0.33181205  0.33370097  1
  Ni  Ni6  1  0.99811723  0.66863737  0.99868159  1
  Ni  Ni7  1  0.16535340  0.83367137  0.16438463  1
  Cr  Cr8  1  0.99804385  0.66538009  0.33063738  1
  Ni  Ni9  1  0.33009283  0.00036370  0.99892070  1
  Cr  Cr10  1  0.49719470  0.16539693  0.16452858  1
  Ni  Ni11  1  0.33260234  -0.00052333  0.33444196  1
  Ni  Ni12  1  0.33315752  0.33055274  0.99820065  1
  Cr  Cr13  1  0.49903753  0.50007394  0.16459978  1
  Ni  Ni14  1  0.33020633  0.32970164  0.33256171  1
  Ni  Ni15  1  0.33008855  0.66673690  0.99869656  1
  Cr  Cr16  1  0.50002111  0.83220239  0.16676553  1
  Ni  Ni17  1  0.33365193  0.66846805  0.33356066  1
  Ni  Ni18  1  0.66722245  -0.00073673  0.99793350  1
  Cr  Cr19  1  0.83362185  0.16416536  0.16527892  1
  Ni  Ni20  1  0.66347624  0.99761082  0.33425219  1
  Ni  Ni21  1  0.66528775  0.33281240  0.99743778  1
  Ni  Ni22  1  0.83194673  0.50211997  0.16615356  1
  Cr  Cr23  1  0.66747488  0.33284266  0.33409363  1
  Ni  Ni24  1  0.66943919  0.66556468  0.00036606  1
  Ni  Ni25  1  0.83249588  0.83073709  0.16382759  1
  Ni  Ni26  1  0.66552191  0.66714227  0.33198718  1
  Ni  Ni27  1  0.16535759  0.16499598  0.49806542  1
  Ni  Ni28  1  0.00013944  -0.00023484  0.66685560  1
  Ni  Ni29  1  0.16543379  0.16481606  0.83279653  1
  Cr  Cr30  1  0.16499257  0.49901464  0.49916366  1
  Ni  Ni31  1  0.99622895  0.33199867  0.66575561  1
  Ni  Ni32  1  0.16433641  0.50078463  0.83268394  1
  Ni  Ni33  1  0.16951023  0.83382398  0.50081011  1
  Ni  Ni34  1  0.99913464  0.66588981  0.66805244  1
  Ni  Ni35  1  0.16381509  0.83205506  0.83242728  1
  Ni  Ni36  1  0.49986077  0.16267826  0.49886282  1
  Ni  Ni37  1  0.33164690  0.99809336  0.66425652  1
  Ni  Ni38  1  0.50048886  0.16569505  0.83367486  1
  Cr  Cr39  1  0.49941980  0.50162819  0.49873758  1
  Cr  Cr40  1  0.33237120  0.32972301  0.66760561  1
  Cr  Cr41  1  0.49901574  0.49861392  0.83433601  1
  Ni  Ni42  1  0.49806308  0.83383635  0.49840853  1
  Ni  Ni43  1  0.33057823  0.66960925  0.66538517  1
  Cr  Cr44  1  0.49959422  0.83369703  0.83195507  1
  Ni  Ni45  1  0.83243616  0.16698843  0.50077866  1
  Ni  Ni46  1  0.66587083  0.00099607  0.66544013  1
  Ni  Ni47  1  0.83174002  0.16514052  0.83138594  1
  Fe  Fe48  1  0.83261666  0.49742964  0.50096395  1
  Ni  Ni49  1  0.66960703  0.33094982  0.66603249  1
  Ni  Ni50  1  0.83353767  0.49971819  0.83108868  1
  Cr  Cr51  1  0.83062051  0.83383913  0.50086803  1
  Ni  Ni52  1  0.66795844  0.66569570  0.66530082  1
  Ni  Ni53  1  0.83443993  0.83278975  0.83346532  1
" 