8767,Ni71Fe27Cr0_16,-241.871657235303, 214.526242776305,Ni71Fe27Cr0,"# generated using pymatgen
 data_CrFe15Ni38
_symmetry_space_group_name_H-M   'P 1'
_cell_length_a   7.41374171
_cell_length_b   7.41374171
_cell_length_c   10.48461407
_cell_angle_alpha   90.00000000
_cell_angle_beta   90.00000000
_cell_angle_gamma   90.00000000
_symmetry_Int_Tables_number   1
_chemical_formula_structural   CrFe15Ni38
_chemical_formula_sum   'Cr1 Fe15 Ni38'
_cell_volume   576.27177910
_cell_formula_units_Z   1
loop_
 _symmetry_equiv_pos_site_id
 _symmetry_equiv_pos_as_xyz
  1  'x, y, z'
loop_
 _atom_site_type_symbol
 _atom_site_label
 _atom_site_symmetry_multiplicity
 _atom_site_fract_x
 _atom_site_fract_y
 _atom_site_fract_z
 _atom_site_occupancy
  Ni  Ni0  1  0.00434387  0.00560371  0.00413932  1
  Ni  Ni1  1  0.17127858  0.16963593  0.17011776  1
  Ni  Ni2  1  0.00425603  0.00424908  0.33712400  1
  Ni  Ni3  1  0.00447129  0.33621350  1.00270267  1
  Ni  Ni4  1  0.17053693  0.50347246  0.17043433  1
  Ni  Ni5  1  1.00321037  0.33684607  0.33707053  1
  Fe  Fe6  1  0.00383664  0.66922021  0.00469815  1
  Ni  Ni7  1  0.16893363  0.83767801  0.17046609  1
  Ni  Ni8  1  0.00393234  0.66969054  0.33648757  1
  Fe  Fe9  1  0.33671565  0.00477359  0.00365793  1
  Ni  Ni10  1  0.50268111  0.17037048  0.17085609  1
  Ni  Ni11  1  0.33660919  1.00320414  0.33611816  1
  Ni  Ni12  1  0.33587208  0.33694903  1.00318509  1
  Ni  Ni13  1  0.50373960  0.50305430  0.17043380  1
  Fe  Fe14  1  0.33671248  0.33708185  0.33607550  1
  Fe  Fe15  1  0.33669018  0.66959661  0.00372334  1
  Fe  Fe16  1  0.50354085  0.83647469  0.17105925  1
  Ni  Ni17  1  0.33693069  0.67073732  0.33695703  1
  Ni  Ni18  1  0.66982882  0.00380098  0.00382394  1
  Fe  Fe19  1  0.83759948  0.17041156  0.17039139  1
  Ni  Ni20  1  0.66992112  0.00392762  0.33744100  1
  Fe  Fe21  1  0.67038953  0.33663193  1.00316619  1
  Ni  Ni22  1  0.83650797  0.50540026  0.17014752  1
  Ni  Ni23  1  0.67096954  0.33716922  0.33590998  1
  Ni  Ni24  1  0.66908595  0.66971253  0.00403597  1
  Ni  Ni25  1  0.83724172  0.83662275  0.17097079  1
  Ni  Ni26  1  0.66992115  0.66969046  0.33754664  1
  Ni  Ni27  1  0.17012939  0.17034595  0.50340261  1
  Fe  Fe28  1  0.00416205  0.00403742  0.66943526  1
  Ni  Ni29  1  0.17104393  0.17042437  0.83726234  1
  Ni  Ni30  1  0.17086479  0.50299891  0.50319129  1
  Fe  Fe31  1  0.00365413  0.33780314  0.67035102  1
  Ni  Ni32  1  0.17104570  0.50302960  0.83715982  1
  Fe  Fe33  1  0.17012913  0.83632525  0.50314057  1
  Ni  Ni34  1  0.00444335  0.66894805  0.66994157  1
  Fe  Fe35  1  0.17179140  0.83699151  0.83683030  1
  Fe  Fe36  1  0.50432099  0.17037877  0.50344185  1
  Ni  Ni37  1  0.33650113  1.00328087  0.67143180  1
  Ni  Ni38  1  0.50280886  0.17042576  0.83620722  1
  Ni  Ni39  1  0.50331363  0.50479970  0.50351170  1
  Fe  Fe40  1  0.33714546  0.33804593  0.67117681  1
  Ni  Ni41  1  0.50312771  0.50334963  0.83684193  1
  Ni  Ni42  1  0.50483843  0.83637882  0.50342895  1
  Ni  Ni43  1  0.33682622  0.67111813  0.67111701  1
  Fe  Fe44  1  0.50227718  0.83677203  0.83613808  1
  Ni  Ni45  1  0.83767081  0.16882466  0.50342166  1
  Fe  Fe46  1  0.66924289  1.00358471  0.66943321  1
  Ni  Ni47  1  0.83693265  0.17071162  0.83753003  1
  Ni  Ni48  1  0.83660820  0.50484517  0.50394927  1
  Ni  Ni49  1  0.67095102  0.33744844  0.67175297  1
  Ni  Ni50  1  0.83661217  0.50306045  0.83668726  1
  Ni  Ni51  1  0.83587092  0.83711243  0.50324144  1
  Ni  Ni52  1  0.66951673  0.66820358  0.66920070  1
  Cr  Cr53  1  0.83654828  0.83667022  0.83616729  1
" 