4877,Ni71Fe20Cr7_14,-238.455871449633, 200.453936490723,Ni71Fe20Cr7,"# generated using pymatgen
 data_Cr5Fe11Ni38
_symmetry_space_group_name_H-M   'P 1'
_cell_length_a   7.43005237
_cell_length_b   7.43005237
_cell_length_c   10.50768083
_cell_angle_alpha   90.00000000
_cell_angle_beta   90.00000000
_cell_angle_gamma   90.00000000
_symmetry_Int_Tables_number   1
_chemical_formula_structural   Cr5Fe11Ni38
_chemical_formula_sum   'Cr5 Fe11 Ni38'
_cell_volume   580.08364643
_cell_formula_units_Z   1
loop_
 _symmetry_equiv_pos_site_id
 _symmetry_equiv_pos_as_xyz
  1  'x, y, z'
loop_
 _atom_site_type_symbol
 _atom_site_label
 _atom_site_symmetry_multiplicity
 _atom_site_fract_x
 _atom_site_fract_y
 _atom_site_fract_z
 _atom_site_occupancy
  Ni  Ni0  1  0.00381102  0.00438384  0.00295899  1
  Fe  Fe1  1  0.16974443  0.16924519  0.16900627  1
  Ni  Ni2  1  0.00337401  0.00266015  0.33582657  1
  Ni  Ni3  1  0.00326054  0.33413670  0.00278909  1
  Ni  Ni4  1  0.17147831  0.50197128  0.16996908  1
  Fe  Fe5  1  0.00277000  0.33544826  0.33530450  1
  Cr  Cr6  1  0.00261842  0.66818182  0.00288257  1
  Ni  Ni7  1  0.16857633  0.83546009  0.16949035  1
  Ni  Ni8  1  0.00287170  0.66906848  0.33541459  1
  Ni  Ni9  1  0.33526952  0.00323780  0.00282957  1
  Ni  Ni10  1  0.50220204  0.17003573  0.16974871  1
  Ni  Ni11  1  0.33453719  0.00420167  0.33544632  1
  Ni  Ni12  1  0.33501837  0.33510628  1.00229438  1
  Ni  Ni13  1  0.49969676  0.50268136  0.16955642  1
  Ni  Ni14  1  0.33642686  0.33506784  0.33600986  1
  Ni  Ni15  1  0.33698566  0.66928800  1.00230938  1
  Fe  Fe16  1  0.50176168  0.83581303  0.16934089  1
  Ni  Ni17  1  0.33429457  0.66816596  0.33564777  1
  Fe  Fe18  1  0.66807565  0.00266321  0.00319432  1
  Ni  Ni19  1  0.83670275  0.16685115  0.16960780  1
  Ni  Ni20  1  0.66943205  0.00479641  0.33415982  1
  Cr  Cr21  1  0.66873648  0.33653837  1.00163031  1
  Fe  Fe22  1  0.83589468  0.50205203  0.17089737  1
  Fe  Fe23  1  0.66837846  0.33540791  0.33636915  1
  Ni  Ni24  1  0.66775927  0.66895566  0.00339319  1
  Ni  Ni25  1  0.83599600  0.83759915  0.17011468  1
  Ni  Ni26  1  0.67007710  0.66720363  0.33412353  1
  Ni  Ni27  1  0.16913994  0.16933631  0.50151859  1
  Fe  Fe28  1  0.00464676  0.00454954  0.66886416  1
  Ni  Ni29  1  0.16893812  0.17109131  0.83746594  1
  Fe  Fe30  1  0.16962092  0.50187512  0.50239659  1
  Fe  Fe31  1  0.00302360  0.33563196  0.66970298  1
  Ni  Ni32  1  0.17120310  0.50096874  0.83520286  1
  Ni  Ni33  1  0.16860316  0.83576909  0.50317636  1
  Ni  Ni34  1  0.00404858  0.66752715  0.66891418  1
  Fe  Fe35  1  0.17214482  0.83726630  0.83534715  1
  Ni  Ni36  1  0.50216817  0.17141475  0.50269808  1
  Ni  Ni37  1  0.33525431  0.00431703  0.66947440  1
  Ni  Ni38  1  0.50143042  0.16910212  0.83476152  1
  Ni  Ni39  1  0.50193219  0.50096938  0.50270192  1
  Ni  Ni40  1  0.33660249  0.33461348  0.66943359  1
  Ni  Ni41  1  0.49970413  0.50337942  0.83495570  1
  Cr  Cr42  1  0.50142590  0.83505494  0.50163632  1
  Ni  Ni43  1  0.33434460  0.66864876  0.66974702  1
  Ni  Ni44  1  0.50226675  0.83489973  0.83685456  1
  Ni  Ni45  1  0.83635308  0.17050952  0.50269342  1
  Ni  Ni46  1  0.66765049  0.00598775  0.67021722  1
  Ni  Ni47  1  0.83738984  0.16868651  0.83485910  1
  Ni  Ni48  1  0.83559647  0.50127787  0.50229528  1
  Ni  Ni49  1  0.66891497  0.33509908  0.66831051  1
  Fe  Fe50  1  0.83549131  0.50022143  0.83370187  1
  Cr  Cr51  1  0.83677238  0.83649133  0.50262299  1
  Ni  Ni52  1  0.66918821  0.66613085  0.67009225  1
  Cr  Cr53  1  0.83483211  0.83739621  0.83447660  1
" 