8296,Ni71Fe20Cr7_6,-238.253858977245, 199.661852590123,Ni71Fe20Cr7,"# generated using pymatgen
 data_Cr5Fe11Ni38
_symmetry_space_group_name_H-M   'P 1'
_cell_length_a   7.43114814
_cell_length_b   7.43114814
_cell_length_c   10.50923048
_cell_angle_alpha   90.00000000
_cell_angle_beta   90.00000000
_cell_angle_gamma   90.00000000
_symmetry_Int_Tables_number   1
_chemical_formula_structural   Cr5Fe11Ni38
_chemical_formula_sum   'Cr5 Fe11 Ni38'
_cell_volume   580.34033316
_cell_formula_units_Z   1
loop_
 _symmetry_equiv_pos_site_id
 _symmetry_equiv_pos_as_xyz
  1  'x, y, z'
loop_
 _atom_site_type_symbol
 _atom_site_label
 _atom_site_symmetry_multiplicity
 _atom_site_fract_x
 _atom_site_fract_y
 _atom_site_fract_z
 _atom_site_occupancy
  Cr  Cr0  1  0.00279742  0.00270043  1.00153693  1
  Ni  Ni1  1  0.17144091  0.17019826  0.16921737  1
  Fe  Fe2  1  0.00293397  1.00192489  0.33611451  1
  Ni  Ni3  1  1.00229103  0.33518306  0.00389118  1
  Ni  Ni4  1  0.16901863  0.50199871  0.16888485  1
  Fe  Fe5  1  0.00418181  0.33599288  0.33536337  1
  Fe  Fe6  1  1.00240525  0.66914722  0.00372326  1
  Ni  Ni7  1  0.16999930  0.83503859  0.16929096  1
  Fe  Fe8  1  0.00262387  0.66932007  0.33604108  1
  Ni  Ni9  1  0.33589575  1.00220507  1.00227526  1
  Fe  Fe10  1  0.50122525  0.16808690  0.16833068  1
  Ni  Ni11  1  0.33478862  1.00225273  0.33600554  1
  Ni  Ni12  1  0.33587292  0.33572953  0.00348156  1
  Fe  Fe13  1  0.50110503  0.50386818  0.16841841  1
  Ni  Ni14  1  0.33288987  0.33527121  0.33496342  1
  Ni  Ni15  1  0.33634698  0.66932029  0.00308964  1
  Fe  Fe16  1  0.50195306  0.83528955  0.16966922  1
  Ni  Ni17  1  0.33426218  0.66972882  0.33549386  1
  Ni  Ni18  1  0.66889962  1.00235235  0.00253404  1
  Fe  Fe19  1  0.83687202  0.16898670  0.16862858  1
  Ni  Ni20  1  0.66988333  1.00082077  0.33597336  1
  Ni  Ni21  1  0.66910036  0.33575620  0.00319327  1
  Ni  Ni22  1  0.83608031  0.50392777  0.16792120  1
  Cr  Cr23  1  0.66983051  0.33551422  0.33539749  1
  Ni  Ni24  1  0.66835832  0.66913113  0.00322266  1
  Ni  Ni25  1  0.83410644  0.83403509  0.16952355  1
  Ni  Ni26  1  0.67035958  0.67110116  0.33555278  1
  Ni  Ni27  1  0.17003388  0.16933297  0.50266702  1
  Ni  Ni28  1  1.00239274  1.00194330  0.66901095  1
  Ni  Ni29  1  0.17132226  0.16816777  0.83532293  1
  Ni  Ni30  1  0.16783626  0.50224143  0.50199655  1
  Fe  Fe31  1  1.00238297  0.33413714  0.66786825  1
  Cr  Cr32  1  0.17012392  0.50248245  0.83603139  1
  Ni  Ni33  1  0.16951250  0.83565819  0.50239397  1
  Ni  Ni34  1  0.00246454  0.67129034  0.66753978  1
  Ni  Ni35  1  0.17007330  0.83646375  0.83552104  1
  Ni  Ni36  1  0.50160299  0.16670527  0.50282656  1
  Ni  Ni37  1  0.33448854  0.00266091  0.66897357  1
  Ni  Ni38  1  0.50235195  0.16879572  0.83611568  1
  Cr  Cr39  1  0.50175010  0.50306239  0.50379963  1
  Ni  Ni40  1  0.33586632  0.33452672  0.66879728  1
  Fe  Fe41  1  0.50238805  0.50197880  0.83563709  1
  Ni  Ni42  1  0.50281802  0.83760552  0.50219731  1
  Ni  Ni43  1  0.33483259  0.67006331  0.66869062  1
  Fe  Fe44  1  0.50243473  0.83665779  0.83539551  1
  Ni  Ni45  1  0.83565007  0.16834678  0.50315479  1
  Ni  Ni46  1  0.67035972  0.00289831  0.66877585  1
  Ni  Ni47  1  0.83356705  0.16813916  0.83580680  1
  Ni  Ni48  1  0.83756645  0.50347764  0.50324900  1
  Ni  Ni49  1  0.66920142  0.33447587  0.66914602  1
  Cr  Cr50  1  0.83452658  0.50292796  0.83560841  1
  Ni  Ni51  1  0.83492934  0.83540523  0.50242143  1
  Ni  Ni52  1  0.66994636  0.66988291  0.66849293  1
  Ni  Ni53  1  0.83449054  0.83622610  0.83525713  1
" 