3394,Ni71Fe9Cr19_11,-232.758552392772, 172.667906779989,Ni71Fe9Cr19,"# generated using pymatgen
 data_Cr11Fe5Ni38
_symmetry_space_group_name_H-M   'P 1'
_cell_length_a   7.45691520
_cell_length_b   7.45691520
_cell_length_c   10.54567060
_cell_angle_alpha   90.00000000
_cell_angle_beta   90.00000000
_cell_angle_gamma   90.00000000
_symmetry_Int_Tables_number   1
_chemical_formula_structural   Cr11Fe5Ni38
_chemical_formula_sum   'Cr11 Fe5 Ni38'
_cell_volume   586.39817512
_cell_formula_units_Z   1
loop_
 _symmetry_equiv_pos_site_id
 _symmetry_equiv_pos_as_xyz
  1  'x, y, z'
loop_
 _atom_site_type_symbol
 _atom_site_label
 _atom_site_symmetry_multiplicity
 _atom_site_fract_x
 _atom_site_fract_y
 _atom_site_fract_z
 _atom_site_occupancy
  Ni  Ni0  1  0.00392642  0.00100705  1.00048443  1
  Ni  Ni1  1  0.16918046  0.16836702  0.16728007  1
  Ni  Ni2  1  0.00271764  0.99991337  0.33528815  1
  Ni  Ni3  1  0.00303505  0.33586611  0.00101626  1
  Ni  Ni4  1  0.16654678  0.50030775  0.16691839  1
  Ni  Ni5  1  0.00327784  0.33503855  0.33275574  1
  Ni  Ni6  1  0.00300640  0.66515036  1.00066953  1
  Fe  Fe7  1  0.16879796  0.83366136  0.16728636  1
  Ni  Ni8  1  0.00294467  0.66701489  0.33380345  1
  Ni  Ni9  1  0.33377548  1.00030754  0.00210166  1
  Ni  Ni10  1  0.49811968  0.16598429  0.16735607  1
  Ni  Ni11  1  0.33392959  0.00146439  0.33266403  1
  Ni  Ni12  1  0.33141421  0.33377203  0.00078958  1
  Cr  Cr13  1  0.49774448  0.50022678  0.16876461  1
  Ni  Ni14  1  0.33332169  0.33345217  0.33552472  1
  Ni  Ni15  1  0.33223780  0.66802627  1.00000005  1
  Ni  Ni16  1  0.49794598  0.83583652  0.16732801  1
  Ni  Ni17  1  0.33172310  0.66721215  0.33364918  1
  Ni  Ni18  1  0.66460452  1.00053753  0.00146398  1
  Cr  Cr19  1  0.83522391  0.16867383  0.16594653  1
  Ni  Ni20  1  0.66561828  0.00125559  0.33399693  1
  Fe  Fe21  1  0.66671992  0.33447036  0.00125463  1
  Ni  Ni22  1  0.83705226  0.50036086  0.16791443  1
  Ni  Ni23  1  0.66558473  0.33313730  0.33317787  1
  Cr  Cr24  1  0.66626387  0.66791228  1.00042544  1
  Cr  Cr25  1  0.83539547  0.83336674  0.16880314  1
  Fe  Fe26  1  0.66648732  0.66771095  0.33414601  1
  Ni  Ni27  1  0.17029995  0.16652514  0.50004206  1
  Ni  Ni28  1  0.00370923  0.99829400  0.66637602  1
  Ni  Ni29  1  0.16888325  0.16644342  0.83457276  1
  Ni  Ni30  1  0.17005220  0.50205066  0.50023766  1
  Cr  Cr31  1  0.00387708  0.33440815  0.66722568  1
  Fe  Fe32  1  0.16828707  0.50148353  0.83469949  1
  Ni  Ni33  1  0.16652745  0.83339490  0.50053804  1
  Ni  Ni34  1  0.00217854  0.66849546  0.66750533  1
  Ni  Ni35  1  0.16951810  0.83399049  0.83480620  1
  Ni  Ni36  1  0.49857373  0.16880892  0.50039575  1
  Ni  Ni37  1  0.33245063  1.00065683  0.66730898  1
  Cr  Cr38  1  0.49809656  0.16653439  0.83416053  1
  Ni  Ni39  1  0.49833265  0.49937206  0.50148998  1
  Ni  Ni40  1  0.33493597  0.33452633  0.66572752  1
  Fe  Fe41  1  0.49855328  0.50154169  0.83260923  1
  Cr  Cr42  1  0.49955439  0.83340319  0.50091921  1
  Ni  Ni43  1  0.33324081  0.66684126  0.66869917  1
  Ni  Ni44  1  0.49751982  0.83326406  0.83366053  1
  Cr  Cr45  1  0.83344733  0.16513109  0.50081214  1
  Ni  Ni46  1  0.66592050  0.99973509  0.66657450  1
  Cr  Cr47  1  0.83546503  0.16797452  0.83521150  1
  Cr  Cr48  1  0.83373421  0.50304577  0.49869255  1
  Ni  Ni49  1  0.66459173  0.33590412  0.66818214  1
  Ni  Ni50  1  0.83446547  0.50102021  0.83488104  1
  Ni  Ni51  1  0.83585346  0.83351904  0.50146743  1
  Ni  Ni52  1  0.66658248  0.66653493  0.66738193  1
  Cr  Cr53  1  0.83544103  0.83375418  0.83170084  1
" 