4768,Ni71Fe20Cr7_11,-238.561059440951, 201.357241182394,Ni71Fe20Cr7,"# generated using pymatgen
 data_Cr5Fe11Ni38
_symmetry_space_group_name_H-M   'P 1'
_cell_length_a   7.42946029
_cell_length_b   7.42946029
_cell_length_c   10.50684351
_cell_angle_alpha   90.00000000
_cell_angle_beta   90.00000000
_cell_angle_gamma   90.00000000
_symmetry_Int_Tables_number   1
_chemical_formula_structural   Cr5Fe11Ni38
_chemical_formula_sum   'Cr5 Fe11 Ni38'
_cell_volume   579.94498284
_cell_formula_units_Z   1
loop_
 _symmetry_equiv_pos_site_id
 _symmetry_equiv_pos_as_xyz
  1  'x, y, z'
loop_
 _atom_site_type_symbol
 _atom_site_label
 _atom_site_symmetry_multiplicity
 _atom_site_fract_x
 _atom_site_fract_y
 _atom_site_fract_z
 _atom_site_occupancy
  Ni  Ni0  1  0.00347668  1.00083768  1.00240906  1
  Ni  Ni1  1  0.16974276  0.16670336  0.17115576  1
  Ni  Ni2  1  0.00261794  0.00349129  0.33568824  1
  Cr  Cr3  1  1.00248888  0.33669532  0.00511426  1
  Ni  Ni4  1  0.16938171  0.50363006  0.16892559  1
  Fe  Fe5  1  1.00230719  0.33427611  0.33595906  1
  Ni  Ni6  1  1.00109555  0.67021715  1.00233719  1
  Ni  Ni7  1  0.16900405  0.83745582  0.16749853  1
  Cr  Cr8  1  0.00261411  0.66958301  0.33567379  1
  Ni  Ni9  1  0.33722460  0.00324799  0.00345214  1
  Ni  Ni10  1  0.50272832  0.16810834  0.16860913  1
  Ni  Ni11  1  0.33626773  0.00348938  0.33605952  1
  Fe  Fe12  1  0.33660593  0.33550643  1.00226687  1
  Cr  Cr13  1  0.50349064  0.50329712  0.16987729  1
  Ni  Ni14  1  0.33590194  0.33434705  0.33620774  1
  Fe  Fe15  1  0.33413704  0.67097161  1.00123502  1
  Fe  Fe16  1  0.50285899  0.83699158  0.16983157  1
  Ni  Ni17  1  0.33574404  0.67000812  0.33606954  1
  Fe  Fe18  1  0.67006550  1.00188511  0.00265457  1
  Ni  Ni19  1  0.83528451  0.16733605  0.16946954  1
  Ni  Ni20  1  0.66856795  0.00366558  0.33404563  1
  Fe  Fe21  1  0.66927891  0.33464809  1.00216294  1
  Ni  Ni22  1  0.83457875  0.50325447  0.17019046  1
  Ni  Ni23  1  0.66856337  0.33407691  0.33627789  1
  Ni  Ni24  1  0.67005129  0.66958286  1.00176690  1
  Ni  Ni25  1  0.83593022  0.83640100  0.16829695  1
  Ni  Ni26  1  0.66865433  0.67013589  0.33777330  1
  Ni  Ni27  1  0.16887489  0.16804285  0.50245161  1
  Fe  Fe28  1  1.00095700  0.00260827  0.66732928  1
  Cr  Cr29  1  0.16955967  0.16728631  0.83269210  1
  Ni  Ni30  1  0.17107624  0.50159674  0.50255681  1
  Ni  Ni31  1  1.00210081  0.33615943  0.66724383  1
  Ni  Ni32  1  0.16949196  0.50406597  0.83629149  1
  Ni  Ni33  1  0.17194379  0.83783645  0.50336159  1
  Cr  Cr34  1  1.00217721  0.66852496  0.66943271  1
  Ni  Ni35  1  0.16954861  0.83614115  0.83651780  1
  Ni  Ni36  1  0.50335570  0.16880726  0.50296546  1
  Fe  Fe37  1  0.33936232  1.00151866  0.66844873  1
  Ni  Ni38  1  0.50429422  0.16879315  0.83639865  1
  Ni  Ni39  1  0.50341212  0.50295891  0.50360501  1
  Ni  Ni40  1  0.33685139  0.33633378  0.66924314  1
  Ni  Ni41  1  0.50441375  0.50311728  0.83524245  1
  Ni  Ni42  1  0.50215282  0.83572075  0.50116322  1
  Ni  Ni43  1  0.33707094  0.66909826  0.67038730  1
  Ni  Ni44  1  0.50223481  0.83577679  0.83687568  1
  Ni  Ni45  1  0.83520802  0.16937978  0.50294502  1
  Ni  Ni46  1  0.66821226  1.00249316  0.67035398  1
  Fe  Fe47  1  0.83499486  0.16906854  0.83478330  1
  Ni  Ni48  1  0.83278858  0.50000670  0.50180851  1
  Ni  Ni49  1  0.66861989  0.33486929  0.67054319  1
  Ni  Ni50  1  0.83368520  0.50256157  0.83596866  1
  Fe  Fe51  1  0.83374044  0.83803824  0.50146002  1
  Ni  Ni52  1  0.66761791  0.67036418  0.66826208  1
  Fe  Fe53  1  0.83419072  0.83558731  0.83725899  1
" 