8652,Ni71Fe2Cr26_16,-228.532988347845, 149.825699502844,Ni71Fe2Cr26,"# generated using pymatgen
 data_Cr15FeNi38
_symmetry_space_group_name_H-M   'P 1'
_cell_length_a   7.48013814
_cell_length_b   7.48013814
_cell_length_c   10.57851280
_cell_angle_alpha   90.00000000
_cell_angle_beta   90.00000000
_cell_angle_gamma   90.00000000
_symmetry_Int_Tables_number   1
_chemical_formula_structural   Cr15FeNi38
_chemical_formula_sum   'Cr15 Fe1 Ni38'
_cell_volume   591.89388320
_cell_formula_units_Z   1
loop_
 _symmetry_equiv_pos_site_id
 _symmetry_equiv_pos_as_xyz
  1  'x, y, z'
loop_
 _atom_site_type_symbol
 _atom_site_label
 _atom_site_symmetry_multiplicity
 _atom_site_fract_x
 _atom_site_fract_y
 _atom_site_fract_z
 _atom_site_occupancy
  Cr  Cr0  1  0.99885607  -0.00025028  0.99812072  1
  Ni  Ni1  1  0.16612912  0.16536857  0.16753365  1
  Ni  Ni2  1  0.99903517  0.00053915  0.33266233  1
  Cr  Cr3  1  0.99792102  0.33117092  0.00108036  1
  Ni  Ni4  1  0.16454221  0.49864934  0.16644971  1
  Ni  Ni5  1  0.99780026  0.33075587  0.33043805  1
  Ni  Ni6  1  0.99555086  0.66629095  0.99824982  1
  Cr  Cr7  1  0.16680721  0.83287374  0.16624119  1
  Cr  Cr8  1  0.99830463  0.66652215  0.33397947  1
  Ni  Ni9  1  0.33297578  -0.00028839  0.99778078  1
  Ni  Ni10  1  0.49931774  0.16368862  0.16769280  1
  Ni  Ni11  1  0.33203651  -0.00024806  0.33252688  1
  Cr  Cr12  1  0.33350818  0.32899444  0.99904254  1
  Ni  Ni13  1  0.50041383  0.49984633  0.16666690  1
  Cr  Cr14  1  0.33353572  0.33265167  0.33237323  1
  Cr  Cr15  1  0.33519929  0.66664157  -0.00007530  1
  Ni  Ni16  1  0.50003922  0.83383549  0.16622233  1
  Ni  Ni17  1  0.33326393  0.66656152  0.33167398  1
  Cr  Cr18  1  0.66526386  0.99816724  0.99884284  1
  Ni  Ni19  1  0.83188729  0.16591893  0.16958016  1
  Ni  Ni20  1  0.66630027  0.00026838  0.33079276  1
  Cr  Cr21  1  0.66575393  0.33297911  0.99903192  1
  Ni  Ni22  1  0.83236827  0.49911486  0.16561132  1
  Ni  Ni23  1  0.66643416  0.33208035  0.33195892  1
  Ni  Ni24  1  0.66740577  0.66595538  0.99892159  1
  Ni  Ni25  1  0.83085031  0.83246228  0.16582156  1
  Cr  Cr26  1  0.66530001  0.66497188  0.33229389  1
  Ni  Ni27  1  0.16604733  0.16358598  0.49995794  1
  Ni  Ni28  1  -0.00033558  0.99886061  0.66626196  1
  Ni  Ni29  1  0.16656124  0.16354997  0.82990482  1
  Cr  Cr30  1  0.16453127  0.49756417  0.49965959  1
  Ni  Ni31  1  0.99819169  0.33024306  0.66662194  1
  Cr  Cr32  1  0.16374954  0.49894082  0.83204061  1
  Ni  Ni33  1  0.16472724  0.83613704  0.49914352  1
  Fe  Fe34  1  0.99680997  0.66759999  0.66589078  1
  Ni  Ni35  1  0.16526168  0.83482801  0.83152515  1
  Ni  Ni36  1  0.49877562  0.16625974  0.50029586  1
  Ni  Ni37  1  0.33104322  0.00096155  0.66691241  1
  Ni  Ni38  1  0.49876522  0.16443366  0.82934750  1
  Ni  Ni39  1  0.50169609  0.49674516  0.50004594  1
  Ni  Ni40  1  0.33374271  0.32963870  0.66598384  1
  Ni  Ni41  1  0.50229420  0.49926688  0.83062711  1
  Cr  Cr42  1  0.49968704  0.83577021  0.49781829  1
  Cr  Cr43  1  0.33459393  0.66702142  0.66463161  1
  Ni  Ni44  1  0.49989828  0.83350495  0.83240731  1
  Cr  Cr45  1  0.83110781  0.16597955  0.49824183  1
  Ni  Ni46  1  0.66652578  0.99856130  0.66734581  1
  Ni  Ni47  1  0.83207669  0.16609121  0.82924276  1
  Ni  Ni48  1  0.83089851  0.49823230  0.50120294  1
  Ni  Ni49  1  0.66535296  0.33351840  0.66639472  1
  Ni  Ni50  1  0.83079207  0.50038651  0.83099125  1
  Ni  Ni51  1  0.83352191  0.83326849  0.50103937  1
  Ni  Ni52  1  0.66767645  0.66531790  0.66685745  1
  Ni  Ni53  1  0.83195548  0.83095936  0.83084225  1
" 