8997,Ni71Fe20Cr7_19,-238.314198667131, 199.422672574867,Ni71Fe20Cr7,"# generated using pymatgen
 data_Cr5Fe11Ni38
_symmetry_space_group_name_H-M   'P 1'
_cell_length_a   7.43041099
_cell_length_b   7.43041099
_cell_length_c   10.50818800
_cell_angle_alpha   90.00000000
_cell_angle_beta   90.00000000
_cell_angle_gamma   90.00000000
_symmetry_Int_Tables_number   1
_chemical_formula_structural   Cr5Fe11Ni38
_chemical_formula_sum   'Cr5 Fe11 Ni38'
_cell_volume   580.16764657
_cell_formula_units_Z   1
loop_
 _symmetry_equiv_pos_site_id
 _symmetry_equiv_pos_as_xyz
  1  'x, y, z'
loop_
 _atom_site_type_symbol
 _atom_site_label
 _atom_site_symmetry_multiplicity
 _atom_site_fract_x
 _atom_site_fract_y
 _atom_site_fract_z
 _atom_site_occupancy
  Fe  Fe0  1  1.00224838  1.00214204  1.00123793  1
  Cr  Cr1  1  0.16991863  0.16665553  0.16821993  1
  Ni  Ni2  1  1.00142245  0.00314763  0.33480949  1
  Ni  Ni3  1  1.00085448  0.33738013  1.00022390  1
  Cr  Cr4  1  0.16929793  0.50283160  0.16974664  1
  Ni  Ni5  1  1.00180590  0.33509758  0.33735106  1
  Ni  Ni6  1  0.00269533  0.66947192  1.00214445  1
  Ni  Ni7  1  0.16938453  0.83714504  0.16889658  1
  Fe  Fe8  1  0.99968907  0.67042931  0.33470269  1
  Ni  Ni9  1  0.33785290  1.00071936  1.00101031  1
  Fe  Fe10  1  0.50347628  0.16913342  0.16872144  1
  Ni  Ni11  1  0.33737235  1.00132689  0.33645202  1
  Ni  Ni12  1  0.33745100  0.33663999  1.00160575  1
  Ni  Ni13  1  0.50526912  0.50228304  0.16899266  1
  Fe  Fe14  1  0.33848624  0.33462307  0.33701025  1
  Ni  Ni15  1  0.33562100  0.67001482  0.00251294  1
  Fe  Fe16  1  0.50150029  0.83556809  0.16903600  1
  Fe  Fe17  1  0.33845584  0.66927654  0.33557747  1
  Ni  Ni18  1  0.66866632  0.00255750  0.00325777  1
  Fe  Fe19  1  0.83465964  0.17059720  0.16947421  1
  Ni  Ni20  1  0.66869355  1.00208706  0.33624737  1
  Ni  Ni21  1  0.66923594  0.33472571  0.00298166  1
  Ni  Ni22  1  0.83348704  0.50223373  0.16868868  1
  Ni  Ni23  1  0.66905567  0.33546077  0.33499886  1
  Fe  Fe24  1  0.66821346  0.66803682  1.00207290  1
  Fe  Fe25  1  0.83588305  0.83490086  0.16919340  1
  Ni  Ni26  1  0.66719778  0.66988493  0.33473192  1
  Ni  Ni27  1  0.16996286  0.17062746  0.50121490  1
  Cr  Cr28  1  0.99990904  0.00384950  0.67030989  1
  Ni  Ni29  1  0.17061397  0.16925585  0.83707947  1
  Ni  Ni30  1  0.17047282  0.50090373  0.50167005  1
  Ni  Ni31  1  0.00396806  0.33616363  0.66996438  1
  Fe  Fe32  1  0.16970533  0.50262333  0.83551094  1
  Cr  Cr33  1  0.16941477  0.83579285  0.50180525  1
  Ni  Ni34  1  0.00341673  0.66807470  0.66998166  1
  Ni  Ni35  1  0.17017218  0.83586720  0.83749240  1
  Ni  Ni36  1  0.50280306  0.16898181  0.50208591  1
  Fe  Fe37  1  0.33755421  0.00352394  0.67003550  1
  Ni  Ni38  1  0.50241299  0.16946359  0.83640048  1
  Ni  Ni39  1  0.50227256  0.50267131  0.50184077  1
  Ni  Ni40  1  0.33584669  0.33696996  0.66850432  1
  Ni  Ni41  1  0.50386787  0.50216947  0.83649346  1
  Ni  Ni42  1  0.50416130  0.83568196  0.50262130  1
  Ni  Ni43  1  0.33679081  0.66766421  0.66950945  1
  Ni  Ni44  1  0.50241518  0.83568335  0.83599133  1
  Ni  Ni45  1  0.83498408  0.16879047  0.50092732  1
  Ni  Ni46  1  0.66800164  1.00239167  0.66798118  1
  Ni  Ni47  1  0.83460218  0.17041150  0.83723686  1
  Cr  Cr48  1  0.83408136  0.50314461  0.50391278  1
  Ni  Ni49  1  0.66781580  0.33415427  0.66983978  1
  Ni  Ni50  1  0.83449933  0.50244321  0.83597402  1
  Ni  Ni51  1  0.83325454  0.83631473  0.50111302  1
  Ni  Ni52  1  0.66739696  0.67080953  0.67064533  1
  Ni  Ni53  1  0.83483655  0.83432864  0.83708700  1
" 