5299,Ni71Fe20Cr7_15,-238.88136751631, 201.402729457684,Ni71Fe20Cr7,"# generated using pymatgen
 data_Cr5Fe11Ni38
_symmetry_space_group_name_H-M   'P 1'
_cell_length_a   7.43210077
_cell_length_b   7.43210077
_cell_length_c   10.51057770
_cell_angle_alpha   90.00000000
_cell_angle_beta   90.00000000
_cell_angle_gamma   90.00000000
_symmetry_Int_Tables_number   1
_chemical_formula_structural   Cr5Fe11Ni38
_chemical_formula_sum   'Cr5 Fe11 Ni38'
_cell_volume   580.56355074
_cell_formula_units_Z   1
loop_
 _symmetry_equiv_pos_site_id
 _symmetry_equiv_pos_as_xyz
  1  'x, y, z'
loop_
 _atom_site_type_symbol
 _atom_site_label
 _atom_site_symmetry_multiplicity
 _atom_site_fract_x
 _atom_site_fract_y
 _atom_site_fract_z
 _atom_site_occupancy
  Ni  Ni0  1  0.00443132  0.00245445  0.00256985  1
  Ni  Ni1  1  0.17001390  0.17096940  0.16982374  1
  Cr  Cr2  1  1.00165779  0.00324335  0.33760426  1
  Cr  Cr3  1  0.00243911  0.33624957  1.00119722  1
  Ni  Ni4  1  0.17045692  0.50070017  0.16924629  1
  Ni  Ni5  1  0.00399436  0.33765660  0.33519789  1
  Ni  Ni6  1  1.00090570  0.66900784  0.00318784  1
  Cr  Cr7  1  0.16952419  0.83484306  0.16949816  1
  Ni  Ni8  1  0.99983882  0.66572529  0.33584353  1
  Fe  Fe9  1  0.33552676  0.00419223  1.00208097  1
  Fe  Fe10  1  0.50278136  0.16981039  0.16924081  1
  Ni  Ni11  1  0.33905245  0.00454721  0.33630458  1
  Ni  Ni12  1  0.33772242  0.33456872  0.00278458  1
  Ni  Ni13  1  0.50203101  0.50299247  0.16999180  1
  Fe  Fe14  1  0.33604367  0.33647526  0.33631847  1
  Fe  Fe15  1  0.33502220  0.66527595  1.00225253  1
  Ni  Ni16  1  0.50379957  0.83450781  0.16835441  1
  Fe  Fe17  1  0.33629382  0.66927073  0.33672218  1
  Fe  Fe18  1  0.67029811  0.00555621  0.00333539  1
  Ni  Ni19  1  0.83557184  0.16948267  0.16879967  1
  Ni  Ni20  1  0.66614147  1.00040326  0.33482340  1
  Ni  Ni21  1  0.66630571  0.33809031  0.00262148  1
  Ni  Ni22  1  0.83465299  0.50231534  0.17081590  1
  Fe  Fe23  1  0.67045516  0.33451082  0.33628865  1
  Ni  Ni24  1  0.66861737  0.66654651  0.00438499  1
  Ni  Ni25  1  0.83329099  0.83530262  0.16769912  1
  Ni  Ni26  1  0.66852769  0.66901968  0.33559647  1
  Ni  Ni27  1  0.16945825  0.17196211  0.50298425  1
  Ni  Ni28  1  0.00431897  0.00261122  0.66777393  1
  Ni  Ni29  1  0.16973066  0.16779236  0.83450269  1
  Ni  Ni30  1  0.16926140  0.50132580  0.50243236  1
  Ni  Ni31  1  0.00343087  0.33611218  0.66964900  1
  Fe  Fe32  1  0.16943896  0.50247282  0.83461295  1
  Fe  Fe33  1  0.17039859  0.83571394  0.50337789  1
  Ni  Ni34  1  1.00205101  0.66820493  0.66795364  1
  Ni  Ni35  1  0.16901039  0.83588624  0.83462703  1
  Ni  Ni36  1  0.50251106  0.16935194  0.50206933  1
  Ni  Ni37  1  0.33565373  0.00445819  0.66806854  1
  Ni  Ni38  1  0.50207004  0.17141348  0.83571724  1
  Ni  Ni39  1  0.50118330  0.50252030  0.50252466  1
  Ni  Ni40  1  0.33633790  0.33442085  0.66920564  1
  Ni  Ni41  1  0.50235268  0.50096058  0.83513148  1
  Ni  Ni42  1  0.50358401  0.83515419  0.50264048  1
  Fe  Fe43  1  0.33520172  0.66782591  0.66773169  1
  Cr  Cr44  1  0.50171965  0.83437299  0.83542895  1
  Ni  Ni45  1  0.83552769  0.16892395  0.50441413  1
  Ni  Ni46  1  0.66731627  0.00343895  0.66774984  1
  Ni  Ni47  1  0.83548773  0.17057631  0.83370580  1
  Fe  Fe48  1  0.83515487  0.50081491  0.50258081  1
  Ni  Ni49  1  0.66708582  0.33640318  0.66892865  1
  Ni  Ni50  1  0.83340503  0.50188296  0.83396518  1
  Ni  Ni51  1  0.83396437  0.83521454  0.50303618  1
  Ni  Ni52  1  0.66918059  0.66711079  0.66724958  1
  Cr  Cr53  1  0.83672575  0.83631449  0.83631190  1
" 