3864,Ni71Fe20Cr7_4,-238.235711436736, 200.711401558078,Ni71Fe20Cr7,"# generated using pymatgen
 data_Cr5Fe11Ni38
_symmetry_space_group_name_H-M   'P 1'
_cell_length_a   7.43046165
_cell_length_b   7.43046165
_cell_length_c   10.50825964
_cell_angle_alpha   90.00000000
_cell_angle_beta   90.00000000
_cell_angle_gamma   90.00000000
_symmetry_Int_Tables_number   1
_chemical_formula_structural   Cr5Fe11Ni38
_chemical_formula_sum   'Cr5 Fe11 Ni38'
_cell_volume   580.17951214
_cell_formula_units_Z   1
loop_
 _symmetry_equiv_pos_site_id
 _symmetry_equiv_pos_as_xyz
  1  'x, y, z'
loop_
 _atom_site_type_symbol
 _atom_site_label
 _atom_site_symmetry_multiplicity
 _atom_site_fract_x
 _atom_site_fract_y
 _atom_site_fract_z
 _atom_site_occupancy
  Ni  Ni0  1  1.00201733  1.00122895  1.00231721  1
  Ni  Ni1  1  0.16826503  0.16900016  0.16842741  1
  Fe  Fe2  1  1.00220567  0.00272711  0.33588217  1
  Ni  Ni3  1  1.00232968  0.33650990  1.00232506  1
  Fe  Fe4  1  0.16837219  0.50280863  0.16946793  1
  Ni  Ni5  1  0.00358438  0.33573722  0.33534233  1
  Ni  Ni6  1  1.00183868  0.66965033  1.00244470  1
  Ni  Ni7  1  0.16949649  0.83619419  0.16856630  1
  Ni  Ni8  1  0.00492545  0.66960308  0.33573029  1
  Ni  Ni9  1  0.33576375  0.00353691  0.00352086  1
  Fe  Fe10  1  0.50316956  0.16883818  0.16884940  1
  Fe  Fe11  1  0.33581942  1.00245858  0.33603942  1
  Ni  Ni12  1  0.33656778  0.33532428  1.00222348  1
  Ni  Ni13  1  0.50205807  0.50233493  0.16790282  1
  Ni  Ni14  1  0.33476841  0.33527816  0.33543855  1
  Fe  Fe15  1  0.33486667  0.66820683  0.00337603  1
  Ni  Ni16  1  0.50138895  0.83530442  0.16835754  1
  Ni  Ni17  1  0.33297752  0.66959838  0.33568904  1
  Ni  Ni18  1  0.66961112  0.00304630  0.00309216  1
  Ni  Ni19  1  0.83664574  0.16966849  0.16941984  1
  Ni  Ni20  1  0.66902841  0.00384621  0.33663950  1
  Ni  Ni21  1  0.66848719  0.33549314  0.00247719  1
  Ni  Ni22  1  0.83575165  0.50110720  0.16759614  1
  Ni  Ni23  1  0.66903165  0.33184600  0.33452183  1
  Fe  Fe24  1  0.67029894  0.66844632  0.00319616  1
  Ni  Ni25  1  0.83649815  0.83660968  0.16821535  1
  Cr  Cr26  1  0.66979033  0.67162742  0.33422316  1
  Ni  Ni27  1  0.16863614  0.16924220  0.50354369  1
  Ni  Ni28  1  1.00218539  0.00387498  0.66893040  1
  Fe  Fe29  1  0.16934913  0.16945672  0.83579578  1
  Ni  Ni30  1  0.17028443  0.50175367  0.50067774  1
  Ni  Ni31  1  0.00363425  0.33338027  0.66971798  1
  Ni  Ni32  1  0.17059390  0.50120594  0.83667011  1
  Ni  Ni33  1  0.17021911  0.83639473  0.50220135  1
  Cr  Cr34  1  0.00254752  0.66993334  0.66880004  1
  Fe  Fe35  1  0.16844919  0.83688983  0.83654104  1
  Ni  Ni36  1  0.50233209  0.16736604  0.50217789  1
  Ni  Ni37  1  0.33565519  0.00363034  0.66762754  1
  Ni  Ni38  1  0.50273657  0.17138192  0.83622117  1
  Cr  Cr39  1  0.49963752  0.50238489  0.50411185  1
  Ni  Ni40  1  0.33532841  0.33474980  0.66972310  1
  Ni  Ni41  1  0.50114618  0.50094801  0.83526368  1
  Ni  Ni42  1  0.50128413  0.83773118  0.50365477  1
  Ni  Ni43  1  0.33683559  0.66900806  0.66863851  1
  Cr  Cr44  1  0.50242604  0.83535295  0.83557152  1
  Ni  Ni45  1  0.83641823  0.16729631  0.50242583  1
  Fe  Fe46  1  0.66982235  0.00307645  0.66810639  1
  Ni  Ni47  1  0.83644151  0.16872113  0.83554520  1
  Cr  Cr48  1  0.83748826  0.50057523  0.50281884  1
  Fe  Fe49  1  0.66854099  0.33396821  0.67085368  1
  Fe  Fe50  1  0.83463354  0.50131903  0.83697667  1
  Ni  Ni51  1  0.83588467  0.83938102  0.50239984  1
  Ni  Ni52  1  0.66818255  0.67045941  0.66989160  1
  Ni  Ni53  1  0.83669093  0.83742941  0.83677399  1
" 