2385,Ni71Fe9Cr19_0,-232.754014597746, 170.668851769417,Ni71Fe9Cr19,"# generated using pymatgen
 data_Cr11Fe5Ni38
_symmetry_space_group_name_H-M   'P 1'
_cell_length_a   7.45782362
_cell_length_b   7.45782362
_cell_length_c   10.54695531
_cell_angle_alpha   90.00000000
_cell_angle_beta   90.00000000
_cell_angle_gamma   90.00000000
_symmetry_Int_Tables_number   1
_chemical_formula_structural   Cr11Fe5Ni38
_chemical_formula_sum   'Cr11 Fe5 Ni38'
_cell_volume   586.61251248
_cell_formula_units_Z   1
loop_
 _symmetry_equiv_pos_site_id
 _symmetry_equiv_pos_as_xyz
  1  'x, y, z'
loop_
 _atom_site_type_symbol
 _atom_site_label
 _atom_site_symmetry_multiplicity
 _atom_site_fract_x
 _atom_site_fract_y
 _atom_site_fract_z
 _atom_site_occupancy
  Ni  Ni0  1  0.00219755  0.00093274  0.99948383  1
  Ni  Ni1  1  0.16907340  0.16754894  0.16873831  1
  Ni  Ni2  1  0.00480447  1.00014779  0.33397128  1
  Ni  Ni3  1  0.00132606  0.33402345  0.99974190  1
  Ni  Ni4  1  0.16618805  0.49951990  0.16858328  1
  Ni  Ni5  1  0.00384739  0.33488509  0.33375661  1
  Fe  Fe6  1  0.99968680  0.66651894  0.99969323  1
  Ni  Ni7  1  0.16667480  0.83478644  0.16858354  1
  Ni  Ni8  1  0.99995512  0.66682080  0.33236994  1
  Ni  Ni9  1  0.33274587  0.00302917  1.00014750  1
  Ni  Ni10  1  0.49718309  0.16892206  0.16597684  1
  Ni  Ni11  1  0.33134582  0.00218709  0.33390624  1
  Ni  Ni12  1  0.33399208  0.33230348  0.00152386  1
  Ni  Ni13  1  0.50078410  0.49885977  0.16834741  1
  Ni  Ni14  1  0.33251750  0.33306740  0.33248732  1
  Cr  Cr15  1  0.33362154  0.66628843  0.99935277  1
  Cr  Cr16  1  0.49926597  0.83455253  0.16700264  1
  Ni  Ni17  1  0.33437400  0.66659952  0.33367426  1
  Ni  Ni18  1  0.66691065  0.00110018  0.99785978  1
  Cr  Cr19  1  0.83488262  0.16895066  0.16522659  1
  Cr  Cr20  1  0.66620661  0.99893171  0.33565448  1
  Ni  Ni21  1  0.66653604  0.33510453  0.99997834  1
  Ni  Ni22  1  0.83488400  0.50125886  0.16708544  1
  Cr  Cr23  1  0.66538016  0.33729719  0.33357115  1
  Ni  Ni24  1  0.66863386  0.66565127  0.99964599  1
  Cr  Cr25  1  0.83561318  0.83176034  0.16750726  1
  Ni  Ni26  1  0.66752806  0.66564788  0.33575182  1
  Ni  Ni27  1  0.16879843  0.16717497  0.49810563  1
  Cr  Cr28  1  0.00126652  1.00059165  0.66830900  1
  Ni  Ni29  1  0.16768515  0.16717662  0.83501108  1
  Cr  Cr30  1  0.16513176  0.49964540  0.50028787  1
  Ni  Ni31  1  0.99944673  0.33618883  0.66835793  1
  Ni  Ni32  1  0.16462364  0.50043765  0.83351328  1
  Cr  Cr33  1  0.16903986  0.83458731  0.49953410  1
  Ni  Ni34  1  0.99822979  0.66560470  0.66934072  1
  Ni  Ni35  1  0.16721930  0.83424285  0.83388592  1
  Ni  Ni36  1  0.49904911  0.16486325  0.50109566  1
  Ni  Ni37  1  0.33632063  1.00016535  0.66780105  1
  Ni  Ni38  1  0.50121964  0.16569327  0.83478077  1
  Fe  Fe39  1  0.50223014  0.50169596  0.50023511  1
  Cr  Cr40  1  0.33425045  0.33279453  0.66797427  1
  Ni  Ni41  1  0.50287289  0.50051634  0.83335826  1
  Ni  Ni42  1  0.50152685  0.83437075  0.50163452  1
  Fe  Fe43  1  0.33570201  0.66905589  0.66903019  1
  Ni  Ni44  1  0.50175977  0.83564779  0.83258517  1
  Cr  Cr45  1  0.83476156  0.16920140  0.50185113  1
  Ni  Ni46  1  0.66440649  0.99895016  0.66804321  1
  Fe  Fe47  1  0.83311290  0.16812829  0.83483447  1
  Ni  Ni48  1  0.83346795  0.50224488  0.50108784  1
  Ni  Ni49  1  0.66776750  0.33561872  0.66804332  1
  Ni  Ni50  1  0.83435857  0.50097928  0.83368104  1
  Fe  Fe51  1  0.83224338  0.83124959  0.50085279  1
  Ni  Ni52  1  0.66786942  0.66728612  0.66645846  1
  Ni  Ni53  1  0.83287489  0.83258643  0.83407974  1
" 