2070,Ni71Fe27Cr0_13,-241.893028952207, 213.950381453467,Ni71Fe27Cr0,"# generated using pymatgen
 data_CrFe15Ni38
_symmetry_space_group_name_H-M   'P 1'
_cell_length_a   7.41311399
_cell_length_b   7.41311399
_cell_length_c   10.48372635
_cell_angle_alpha   90.00000000
_cell_angle_beta   90.00000000
_cell_angle_gamma   90.00000000
_symmetry_Int_Tables_number   1
_chemical_formula_structural   CrFe15Ni38
_chemical_formula_sum   'Cr1 Fe15 Ni38'
_cell_volume   576.12541395
_cell_formula_units_Z   1
loop_
 _symmetry_equiv_pos_site_id
 _symmetry_equiv_pos_as_xyz
  1  'x, y, z'
loop_
 _atom_site_type_symbol
 _atom_site_label
 _atom_site_symmetry_multiplicity
 _atom_site_fract_x
 _atom_site_fract_y
 _atom_site_fract_z
 _atom_site_occupancy
  Fe  Fe0  1  0.00412476  1.00360569  0.00394842  1
  Ni  Ni1  1  0.17029846  0.16899998  0.17122287  1
  Ni  Ni2  1  1.00318019  1.00307465  0.33672046  1
  Ni  Ni3  1  1.00123458  0.33810478  1.00353110  1
  Fe  Fe4  1  0.16954448  0.50548625  0.17061507  1
  Ni  Ni5  1  1.00309606  0.33727064  0.33684576  1
  Ni  Ni6  1  0.00440606  0.67008702  0.00386420  1
  Ni  Ni7  1  0.16975570  0.83787549  0.17005731  1
  Ni  Ni8  1  0.00506050  0.67056775  0.33701583  1
  Ni  Ni9  1  0.33834789  1.00099211  0.00440761  1
  Ni  Ni10  1  0.50338719  0.17041425  0.17152117  1
  Fe  Fe11  1  0.33606753  0.00404306  0.33679069  1
  Cr  Cr12  1  0.33717329  0.33663106  1.00346096  1
  Ni  Ni13  1  0.50588131  0.50368504  0.17062223  1
  Fe  Fe14  1  0.33701402  0.33650484  0.33745075  1
  Ni  Ni15  1  0.33577976  0.67330782  1.00248751  1
  Ni  Ni16  1  0.50357780  0.83681412  0.17119643  1
  Ni  Ni17  1  0.33607395  0.67091034  0.33729612  1
  Ni  Ni18  1  0.66924270  0.00415885  1.00310312  1
  Fe  Fe19  1  0.83613442  0.17020683  0.17016568  1
  Ni  Ni20  1  0.66993823  0.00453492  0.33754379  1
  Ni  Ni21  1  0.67246256  0.33553378  1.00324810  1
  Ni  Ni22  1  0.83616515  0.50422883  0.17065816  1
  Ni  Ni23  1  0.67028201  0.33555535  0.33677126  1
  Fe  Fe24  1  0.67033793  0.67033381  1.00338558  1
  Ni  Ni25  1  0.83758003  0.83538025  0.17011798  1
  Fe  Fe26  1  0.67132672  0.67023747  0.33713357  1
  Ni  Ni27  1  0.17113198  0.16996597  0.50396565  1
  Fe  Fe28  1  0.00390634  0.00381506  0.66979098  1
  Ni  Ni29  1  0.17011641  0.16995914  0.83572672  1
  Fe  Fe30  1  0.17037271  0.50370578  0.50411389  1
  Ni  Ni31  1  0.00369798  0.33780419  0.67053584  1
  Ni  Ni32  1  0.16860663  0.50412713  0.83590292  1
  Ni  Ni33  1  0.16856743  0.83763047  0.50368992  1
  Ni  Ni34  1  1.00326498  0.67014813  0.67003293  1
  Ni  Ni35  1  0.17032194  0.83682694  0.83716469  1
  Ni  Ni36  1  0.50273568  0.17221551  0.50341213  1
  Ni  Ni37  1  0.33744679  0.00405099  0.67028898  1
  Ni  Ni38  1  0.50404816  0.16977274  0.83598243  1
  Ni  Ni39  1  0.50449980  0.50217886  0.50401039  1
  Ni  Ni40  1  0.33714738  0.33553658  0.67025300  1
  Fe  Fe41  1  0.50464918  0.50425911  0.83575928  1
  Fe  Fe42  1  0.50309443  0.83744872  0.50370599  1
  Fe  Fe43  1  0.33687499  0.66942285  0.67042215  1
  Ni  Ni44  1  0.50350652  0.83734983  0.83664147  1
  Fe  Fe45  1  0.83690403  0.17030209  0.50346199  1
  Fe  Fe46  1  0.67032987  0.00397900  0.67075059  1
  Ni  Ni47  1  0.83675047  0.17148687  0.83709144  1
  Fe  Fe48  1  0.83721986  0.50332053  0.50392853  1
  Ni  Ni49  1  0.67006840  0.33684871  0.67089364  1
  Ni  Ni50  1  0.83727040  0.50358625  0.83660681  1
  Ni  Ni51  1  0.83818273  0.83586504  0.50360829  1
  Ni  Ni52  1  0.67116140  0.67044374  0.67032766  1
  Ni  Ni53  1  0.83708695  0.83584148  0.83718666  1
" 