7677,Ni71Fe9Cr19_17,-232.957046536976, 175.486636071934,Ni71Fe9Cr19,"# generated using pymatgen
 data_Cr11Fe5Ni38
_symmetry_space_group_name_H-M   'P 1'
_cell_length_a   7.45868135
_cell_length_b   7.45868135
_cell_length_c   10.54816833
_cell_angle_alpha   90.00000000
_cell_angle_beta   90.00000000
_cell_angle_gamma   90.00000000
_symmetry_Int_Tables_number   1
_chemical_formula_structural   Cr11Fe5Ni38
_chemical_formula_sum   'Cr11 Fe5 Ni38'
_cell_volume   586.81493612
_cell_formula_units_Z   1
loop_
 _symmetry_equiv_pos_site_id
 _symmetry_equiv_pos_as_xyz
  1  'x, y, z'
loop_
 _atom_site_type_symbol
 _atom_site_label
 _atom_site_symmetry_multiplicity
 _atom_site_fract_x
 _atom_site_fract_y
 _atom_site_fract_z
 _atom_site_occupancy
  Ni  Ni0  1  0.99870690  0.00116886  0.00133222  1
  Ni  Ni1  1  0.16780683  0.16718250  0.16634142  1
  Cr  Cr2  1  0.00064012  0.99991890  0.33237486  1
  Ni  Ni3  1  1.00010518  0.33107731  0.99869533  1
  Cr  Cr4  1  0.16890493  0.50039800  0.16600136  1
  Cr  Cr5  1  0.99901350  0.33240540  0.33533223  1
  Fe  Fe6  1  0.00086296  0.66872088  0.99892822  1
  Ni  Ni7  1  0.16542660  0.83403115  0.16634731  1
  Ni  Ni8  1  0.99854287  0.66965896  0.33385331  1
  Cr  Cr9  1  0.33241646  0.99885786  0.00118870  1
  Ni  Ni10  1  0.50183489  0.16866656  0.16808548  1
  Cr  Cr11  1  0.33405968  0.00121498  0.33406897  1
  Ni  Ni12  1  0.33376155  0.33641242  0.00174871  1
  Ni  Ni13  1  0.50037838  0.49899981  0.16703263  1
  Ni  Ni14  1  0.33783951  0.33246651  0.33292883  1
  Ni  Ni15  1  0.33498279  0.66656502  1.00015911  1
  Ni  Ni16  1  0.50274438  0.83401571  0.16695859  1
  Cr  Cr17  1  0.33608659  0.66765454  0.33352157  1
  Ni  Ni18  1  0.67068037  0.99994950  0.00241305  1
  Ni  Ni19  1  0.83204087  0.16481822  0.16560378  1
  Fe  Fe20  1  0.66636443  0.00143463  0.33301019  1
  Ni  Ni21  1  0.66781644  0.33376763  0.00091041  1
  Cr  Cr22  1  0.83271069  0.50146630  0.16769458  1
  Ni  Ni23  1  0.66506650  0.33420664  0.33493402  1
  Fe  Fe24  1  0.66598725  0.66777101  0.99978676  1
  Ni  Ni25  1  0.83351053  0.83549199  0.16708733  1
  Ni  Ni26  1  0.66697000  0.66632397  0.33369692  1
  Fe  Fe27  1  0.16913013  0.16782130  0.50194010  1
  Cr  Cr28  1  0.00107228  0.00184137  0.66828482  1
  Ni  Ni29  1  0.16532711  0.16940645  0.83353344  1
  Cr  Cr30  1  0.16641385  0.50140424  0.50137818  1
  Ni  Ni31  1  0.99959795  0.33390998  0.66793708  1
  Ni  Ni32  1  0.16688122  0.50065063  0.83400100  1
  Ni  Ni33  1  0.16860880  0.83303214  0.50162506  1
  Ni  Ni34  1  0.00113421  0.66627557  0.66834390  1
  Ni  Ni35  1  0.16680329  0.83162587  0.83371022  1
  Ni  Ni36  1  0.50174395  0.16809853  0.50064388  1
  Fe  Fe37  1  0.33496113  0.99930160  0.66635315  1
  Cr  Cr38  1  0.50154985  0.16767459  0.83304138  1
  Ni  Ni39  1  0.50227945  0.49871535  0.50064964  1
  Ni  Ni40  1  0.33404109  0.33466808  0.66700305  1
  Ni  Ni41  1  0.49984578  0.50199120  0.83399938  1
  Ni  Ni42  1  0.50014491  0.83486972  0.50229466  1
  Ni  Ni43  1  0.33519024  0.66820306  0.66781017  1
  Ni  Ni44  1  0.50133043  0.83169057  0.83243079  1
  Ni  Ni45  1  0.83064007  0.16978754  0.50114952  1
  Ni  Ni46  1  0.66611735  1.00035029  0.66665505  1
  Ni  Ni47  1  0.83489044  0.16792132  0.83493260  1
  Ni  Ni48  1  0.83248168  0.49939928  0.50110366  1
  Ni  Ni49  1  0.66804299  0.33475458  0.66583848  1
  Ni  Ni50  1  0.83495595  0.50051428  0.83286931  1
  Cr  Cr51  1  0.83293269  0.83190987  0.49969344  1
  Ni  Ni52  1  0.66535751  0.66657688  0.66811311  1
  Ni  Ni53  1  0.83354977  0.83324584  0.83491439  1
" 