2648,Ni71Fe2Cr26_12,-228.762308272779, 153.920383502606,Ni71Fe2Cr26,"# generated using pymatgen
 data_Cr15FeNi38
_symmetry_space_group_name_H-M   'P 1'
_cell_length_a   7.47919496
_cell_length_b   7.47919496
_cell_length_c   10.57717894
_cell_angle_alpha   90.00000000
_cell_angle_beta   90.00000000
_cell_angle_gamma   90.00000000
_symmetry_Int_Tables_number   1
_chemical_formula_structural   Cr15FeNi38
_chemical_formula_sum   'Cr15 Fe1 Ni38'
_cell_volume   591.67001413
_cell_formula_units_Z   1
loop_
 _symmetry_equiv_pos_site_id
 _symmetry_equiv_pos_as_xyz
  1  'x, y, z'
loop_
 _atom_site_type_symbol
 _atom_site_label
 _atom_site_symmetry_multiplicity
 _atom_site_fract_x
 _atom_site_fract_y
 _atom_site_fract_z
 _atom_site_occupancy
  Ni  Ni0  1  0.99677511  0.99868515  0.00064924  1
  Ni  Ni1  1  0.16681142  0.16292755  0.16686564  1
  Ni  Ni2  1  -0.00003629  0.99860769  0.33093774  1
  Cr  Cr3  1  -0.00024726  0.32874713  -0.00060445  1
  Cr  Cr4  1  0.16830199  0.50112886  0.16433101  1
  Cr  Cr5  1  0.99876356  0.33093524  0.33258503  1
  Ni  Ni6  1  0.99749607  0.66794893  -0.00029782  1
  Ni  Ni7  1  0.16578451  0.83425632  0.16614277  1
  Cr  Cr8  1  0.99822272  0.66772654  0.33393300  1
  Cr  Cr9  1  0.33330483  0.00143262  -0.00057749  1
  Ni  Ni10  1  0.50051384  0.16489568  0.16717223  1
  Ni  Ni11  1  0.33278032  -0.00051604  0.33318437  1
  Ni  Ni12  1  0.33438422  0.33169380  0.99704287  1
  Cr  Cr13  1  0.49923426  0.49809230  0.16481625  1
  Ni  Ni14  1  0.33297039  0.32892176  0.33325153  1
  Ni  Ni15  1  0.33431556  0.66606595  0.99799024  1
  Ni  Ni16  1  0.49905241  0.83444276  0.16590034  1
  Ni  Ni17  1  0.33217880  0.66914430  0.33357204  1
  Ni  Ni18  1  0.66691569  0.99899159  0.99822540  1
  Ni  Ni19  1  0.83016476  0.16323625  0.16563048  1
  Ni  Ni20  1  0.66474346  -0.00055010  0.33250281  1
  Ni  Ni21  1  0.66444556  0.33072669  -0.00049255  1
  Ni  Ni22  1  0.83067592  0.49891013  0.16446757  1
  Ni  Ni23  1  0.66527409  0.32988127  0.33150169  1
  Ni  Ni24  1  0.66571010  0.66779974  -0.00065524  1
  Ni  Ni25  1  0.83258111  0.83517559  0.16373686  1
  Cr  Cr26  1  0.66684262  0.66785244  0.33229725  1
  Ni  Ni27  1  0.16767948  0.16455235  0.49828133  1
  Cr  Cr28  1  0.00077811  -0.00034135  0.66654063  1
  Ni  Ni29  1  0.16548469  0.16680717  0.83251785  1
  Ni  Ni30  1  0.16464064  0.49942259  0.50000065  1
  Ni  Ni31  1  0.99899698  0.33328095  0.66571530  1
  Ni  Ni32  1  0.16647582  0.49889147  0.83300026  1
  Ni  Ni33  1  0.16643385  0.83365879  0.49790274  1
  Ni  Ni34  1  0.99832056  0.66494562  0.66384149  1
  Cr  Cr35  1  0.16422758  0.83133563  0.83428811  1
  Ni  Ni36  1  0.49856472  0.16321358  0.49847887  1
  Ni  Ni37  1  0.33472873  0.00033683  0.66465695  1
  Ni  Ni38  1  0.50147995  0.16579385  0.83200048  1
  Cr  Cr39  1  0.49941584  0.49620096  0.49630752  1
  Cr  Cr40  1  0.33171468  0.32921743  0.66781546  1
  Ni  Ni41  1  0.49882495  0.49817695  0.83585462  1
  Ni  Ni42  1  0.49807660  0.83699793  0.49832319  1
  Cr  Cr43  1  0.33273621  0.66816628  0.66577242  1
  Ni  Ni44  1  0.50120709  0.83383802  0.83311273  1
  Cr  Cr45  1  0.82996173  0.16570638  0.49959699  1
  Fe  Fe46  1  0.66407060  -0.00013560  0.66674286  1
  Ni  Ni47  1  0.83064738  0.16427618  0.83268613  1
  Ni  Ni48  1  0.83397535  0.49849821  0.50091772  1
  Ni  Ni49  1  0.66631871  0.33107946  0.66660217  1
  Cr  Cr50  1  0.83282704  0.49927689  0.83234699  1
  Ni  Ni51  1  0.83308036  0.83352032  0.49950088  1
  Cr  Cr52  1  0.66640879  0.66782356  0.66515387  1
  Ni  Ni53  1  0.83111174  0.83444731  0.83408089  1
" 