1957,Ni71Fe27Cr0_6,-242.159751310234, 214.816727692082,Ni71Fe27Cr0,"# generated using pymatgen
 data_CrFe15Ni38
_symmetry_space_group_name_H-M   'P 1'
_cell_length_a   7.41399524
_cell_length_b   7.41399524
_cell_length_c   10.48497262
_cell_angle_alpha   90.00000000
_cell_angle_beta   90.00000000
_cell_angle_gamma   90.00000000
_symmetry_Int_Tables_number   1
_chemical_formula_structural   CrFe15Ni38
_chemical_formula_sum   'Cr1 Fe15 Ni38'
_cell_volume   576.33090241
_cell_formula_units_Z   1
loop_
 _symmetry_equiv_pos_site_id
 _symmetry_equiv_pos_as_xyz
  1  'x, y, z'
loop_
 _atom_site_type_symbol
 _atom_site_label
 _atom_site_symmetry_multiplicity
 _atom_site_fract_x
 _atom_site_fract_y
 _atom_site_fract_z
 _atom_site_occupancy
  Ni  Ni0  1  0.00383097  0.00359083  1.00291044  1
  Ni  Ni1  1  0.16844087  0.16950972  0.17108472  1
  Ni  Ni2  1  1.00344857  0.00480159  0.33756006  1
  Ni  Ni3  1  1.00244289  0.33741656  1.00316692  1
  Ni  Ni4  1  0.16846693  0.50416688  0.17061582  1
  Ni  Ni5  1  0.00473997  0.33656015  0.33677377  1
  Ni  Ni6  1  1.00305574  0.66972772  0.00430599  1
  Ni  Ni7  1  0.17138589  0.83705924  0.17036314  1
  Fe  Fe8  1  1.00355451  0.67063013  0.33697699  1
  Ni  Ni9  1  0.33729086  1.00236312  0.00392062  1
  Fe  Fe10  1  0.50429260  0.16910227  0.17055465  1
  Fe  Fe11  1  0.33676302  1.00295874  0.33704202  1
  Cr  Cr12  1  0.33621481  0.33634479  1.00338995  1
  Fe  Fe13  1  0.50422977  0.50478064  0.17110127  1
  Fe  Fe14  1  0.33656564  0.33701442  0.33733936  1
  Fe  Fe15  1  0.33697337  0.67255564  0.00420814  1
  Ni  Ni16  1  0.50308160  0.83673479  0.17001149  1
  Ni  Ni17  1  0.33797754  0.66946295  0.33690224  1
  Ni  Ni18  1  0.66961291  1.00297554  1.00334000  1
  Ni  Ni19  1  0.83736506  0.17165245  0.16981534  1
  Ni  Ni20  1  0.67005381  1.00267126  0.33705472  1
  Ni  Ni21  1  0.67159298  0.33743591  0.00371080  1
  Ni  Ni22  1  0.83704006  0.50232164  0.17024313  1
  Fe  Fe23  1  0.67058717  0.33697138  0.33643979  1
  Ni  Ni24  1  0.67036609  0.67032374  1.00322138  1
  Fe  Fe25  1  0.83752275  0.83712637  0.17022064  1
  Ni  Ni26  1  0.66854225  0.67075241  0.33754710  1
  Ni  Ni27  1  0.17014003  0.17039280  0.50320558  1
  Ni  Ni28  1  0.00386199  0.00382322  0.67026378  1
  Ni  Ni29  1  0.16896802  0.16885494  0.83644278  1
  Ni  Ni30  1  0.17016645  0.50321804  0.50359997  1
  Ni  Ni31  1  0.00439685  0.33760513  0.67079216  1
  Fe  Fe32  1  0.16866031  0.50431724  0.83605478  1
  Ni  Ni33  1  0.16972254  0.83712246  0.50312867  1
  Ni  Ni34  1  0.00384366  0.66930503  0.66916402  1
  Ni  Ni35  1  0.17034993  0.83776978  0.83723973  1
  Ni  Ni36  1  0.50345162  0.17035272  0.50315988  1
  Ni  Ni37  1  0.33782176  0.00378773  0.66961427  1
  Ni  Ni38  1  0.50445389  0.16959353  0.83673096  1
  Ni  Ni39  1  0.50372600  0.50355524  0.50288701  1
  Fe  Fe40  1  0.33631636  0.33582763  0.67002607  1
  Ni  Ni41  1  0.50552558  0.50439994  0.83674600  1
  Ni  Ni42  1  0.50420468  0.83682346  0.50398377  1
  Fe  Fe43  1  0.33619173  0.67118075  0.66942006  1
  Ni  Ni44  1  0.50335835  0.83674288  0.83673901  1
  Fe  Fe45  1  0.83727618  0.16939380  0.50339374  1
  Ni  Ni46  1  0.66904938  1.00323432  0.67033827  1
  Ni  Ni47  1  0.83731207  0.17102176  0.83713919  1
  Fe  Fe48  1  0.83733676  0.50400021  0.50357357  1
  Fe  Fe49  1  0.67054252  0.33610100  0.67119767  1
  Ni  Ni50  1  0.83628746  0.50301512  0.83715683  1
  Ni  Ni51  1  0.83680558  0.83684791  0.50291924  1
  Fe  Fe52  1  0.67097094  0.67121001  0.67039012  1
  Ni  Ni53  1  0.83702478  0.83669654  0.83807646  1
" 