7470,Ni71Fe20Cr7_5,-238.348483268595, 200.29351175456,Ni71Fe20Cr7,"# generated using pymatgen
 data_Cr5Fe11Ni38
_symmetry_space_group_name_H-M   'P 1'
_cell_length_a   7.42921249
_cell_length_b   7.42921249
_cell_length_c   10.50649305
_cell_angle_alpha   90.00000000
_cell_angle_beta   90.00000000
_cell_angle_gamma   90.00000000
_symmetry_Int_Tables_number   1
_chemical_formula_structural   Cr5Fe11Ni38
_chemical_formula_sum   'Cr5 Fe11 Ni38'
_cell_volume   579.88695301
_cell_formula_units_Z   1
loop_
 _symmetry_equiv_pos_site_id
 _symmetry_equiv_pos_as_xyz
  1  'x, y, z'
loop_
 _atom_site_type_symbol
 _atom_site_label
 _atom_site_symmetry_multiplicity
 _atom_site_fract_x
 _atom_site_fract_y
 _atom_site_fract_z
 _atom_site_occupancy
  Ni  Ni0  1  0.00344995  1.00217522  0.00333494  1
  Fe  Fe1  1  0.16855653  0.16926923  0.16904831  1
  Ni  Ni2  1  1.00173919  0.00422133  0.33445351  1
  Ni  Ni3  1  0.00300180  0.33678782  0.00265817  1
  Ni  Ni4  1  0.17017954  0.50171205  0.16897041  1
  Ni  Ni5  1  1.00246524  0.33518074  0.33623706  1
  Fe  Fe6  1  1.00231724  0.66975868  1.00224593  1
  Ni  Ni7  1  0.16950528  0.83653732  0.16909917  1
  Cr  Cr8  1  0.00373049  0.66843763  0.33412278  1
  Ni  Ni9  1  0.33597731  1.00191265  1.00224260  1
  Ni  Ni10  1  0.50345575  0.16954934  0.16907271  1
  Fe  Fe11  1  0.33660154  1.00101089  0.33511813  1
  Fe  Fe12  1  0.33566780  0.33475769  0.00307757  1
  Ni  Ni13  1  0.50238965  0.50230050  0.16984546  1
  Ni  Ni14  1  0.33624244  0.33777151  0.33452757  1
  Ni  Ni15  1  0.33543512  0.67018031  0.00317424  1
  Ni  Ni16  1  0.50290278  0.83578877  0.16938140  1
  Ni  Ni17  1  0.33751668  0.66826979  0.33707140  1
  Ni  Ni18  1  0.66821214  1.00166370  0.00265416  1
  Ni  Ni19  1  0.83581965  0.16887571  0.17042045  1
  Ni  Ni20  1  0.66889825  0.00294626  0.33516468  1
  Ni  Ni21  1  0.66971404  0.33624373  0.00473559  1
  Ni  Ni22  1  0.83507058  0.50116229  0.16801312  1
  Fe  Fe23  1  0.66945657  0.33643268  0.33556986  1
  Ni  Ni24  1  0.66945370  0.66973268  0.00301692  1
  Ni  Ni25  1  0.83523014  0.83760323  0.16824574  1
  Ni  Ni26  1  0.66630995  0.66899680  0.33539999  1
  Cr  Cr27  1  0.16824846  0.16896033  0.50231318  1
  Ni  Ni28  1  0.00343054  1.00041983  0.66984977  1
  Ni  Ni29  1  0.17031973  0.16929039  0.83645762  1
  Ni  Ni30  1  0.17034164  0.50248327  0.50352593  1
  Fe  Fe31  1  0.00292921  0.33691198  0.66914344  1
  Ni  Ni32  1  0.16820389  0.50202562  0.83514370  1
  Ni  Ni33  1  0.17135850  0.83559786  0.50360130  1
  Ni  Ni34  1  0.00369133  0.66862787  0.67054078  1
  Ni  Ni35  1  0.16855055  0.83632349  0.83493879  1
  Fe  Fe36  1  0.50360578  0.16961216  0.50325487  1
  Ni  Ni37  1  0.33679622  1.00213527  0.66989137  1
  Ni  Ni38  1  0.50115583  0.16776737  0.83522913  1
  Ni  Ni39  1  0.50269650  0.50268425  0.50187416  1
  Ni  Ni40  1  0.33650063  0.33583197  0.67022954  1
  Cr  Cr41  1  0.50209101  0.50220312  0.83656645  1
  Ni  Ni42  1  0.50147782  0.83519682  0.50256085  1
  Fe  Fe43  1  0.33483623  0.67055974  0.66816127  1
  Ni  Ni44  1  0.50309154  0.83768178  0.83569769  1
  Fe  Fe45  1  0.83463692  0.17052307  0.50220111  1
  Ni  Ni46  1  0.66741154  0.00314352  0.66981901  1
  Cr  Cr47  1  0.83583206  0.16799700  0.83519408  1
  Ni  Ni48  1  0.83460197  0.49994006  0.50391648  1
  Ni  Ni49  1  0.66845452  0.33557034  0.66668783  1
  Fe  Fe50  1  0.83741562  0.50410561  0.83597893  1
  Cr  Cr51  1  0.83533156  0.83723803  0.50284659  1
  Fe  Fe52  1  0.66919824  0.66982882  0.66888130  1
  Ni  Ni53  1  0.83599709  0.83556613  0.83609722  1
" 