5931,Ni71Fe2Cr26_5,-228.713988394169, 153.213795814701,Ni71Fe2Cr26,"# generated using pymatgen
 data_Cr15FeNi38
_symmetry_space_group_name_H-M   'P 1'
_cell_length_a   7.48452835
_cell_length_b   7.48452835
_cell_length_c   10.58472150
_cell_angle_alpha   90.00000000
_cell_angle_beta   90.00000000
_cell_angle_gamma   90.00000000
_symmetry_Int_Tables_number   1
_chemical_formula_structural   Cr15FeNi38
_chemical_formula_sum   'Cr15 Fe1 Ni38'
_cell_volume   592.93667177
_cell_formula_units_Z   1
loop_
 _symmetry_equiv_pos_site_id
 _symmetry_equiv_pos_as_xyz
  1  'x, y, z'
loop_
 _atom_site_type_symbol
 _atom_site_label
 _atom_site_symmetry_multiplicity
 _atom_site_fract_x
 _atom_site_fract_y
 _atom_site_fract_z
 _atom_site_occupancy
  Ni  Ni0  1  0.99818324  -0.00110674  0.99751772  1
  Ni  Ni1  1  0.16514725  0.16672115  0.16536724  1
  Cr  Cr2  1  0.99601232  -0.00115379  0.33366278  1
  Fe  Fe3  1  0.00032280  0.33151026  0.99793992  1
  Ni  Ni4  1  0.16409432  0.49879506  0.16649055  1
  Ni  Ni5  1  0.99807239  0.33484946  0.33189869  1
  Ni  Ni6  1  -0.00018078  0.66681443  -0.00087930  1
  Cr  Cr7  1  0.16553744  0.83166825  0.16779624  1
  Ni  Ni8  1  0.99756383  0.66292299  0.33342905  1
  Cr  Cr9  1  0.33254000  0.00081911  0.99870938  1
  Ni  Ni10  1  0.49966737  0.16366280  0.16784655  1
  Ni  Ni11  1  0.33669905  0.99849943  0.33068621  1
  Cr  Cr12  1  0.33055141  0.33278809  0.00004277  1
  Ni  Ni13  1  0.49963690  0.50077731  0.16728887  1
  Cr  Cr14  1  0.33233749  0.33320843  0.32937516  1
  Cr  Cr15  1  0.33303192  0.66297030  0.99764720  1
  Ni  Ni16  1  0.50218732  0.83204725  0.16706503  1
  Ni  Ni17  1  0.33389321  0.66426529  0.33216013  1
  Ni  Ni18  1  0.66620493  0.99784952  -0.00094881  1
  Cr  Cr19  1  0.83113132  0.16533177  0.16466149  1
  Ni  Ni20  1  0.66379393  0.99782338  0.33269111  1
  Cr  Cr21  1  0.66041497  0.33147267  0.99660409  1
  Cr  Cr22  1  0.83151013  0.50101422  0.16507207  1
  Ni  Ni23  1  0.66508665  0.33240475  0.33485959  1
  Ni  Ni24  1  0.66469672  0.66784662  0.00004942  1
  Ni  Ni25  1  0.82955576  0.83140290  0.16439054  1
  Ni  Ni26  1  0.66509147  0.66620546  0.33248296  1
  Cr  Cr27  1  0.16772861  0.16674344  0.50016064  1
  Ni  Ni28  1  -0.00067101  -0.00041919  0.66661900  1
  Ni  Ni29  1  0.16440461  0.16561140  0.83083474  1
  Ni  Ni30  1  0.16487901  0.49936264  0.49947172  1
  Ni  Ni31  1  -0.00101153  0.33223649  0.66597031  1
  Ni  Ni32  1  0.16517080  0.49871725  0.83025171  1
  Cr  Cr33  1  0.16910303  0.83042354  0.50101884  1
  Ni  Ni34  1  0.00109747  0.66451057  0.66409835  1
  Ni  Ni35  1  0.16566690  0.83226031  0.82968230  1
  Ni  Ni36  1  0.50052288  0.16548973  0.49869213  1
  Ni  Ni37  1  0.33276317  -0.00080428  0.66782355  1
  Ni  Ni38  1  0.49870067  0.16535796  0.82986376  1
  Ni  Ni39  1  0.49872750  0.49867120  0.49907058  1
  Ni  Ni40  1  0.33292095  0.33342008  0.66693731  1
  Ni  Ni41  1  0.49728169  0.49873188  0.83008246  1
  Ni  Ni42  1  0.49836376  0.83208335  0.49662757  1
  Ni  Ni43  1  0.33139213  0.66380944  0.66689782  1
  Ni  Ni44  1  0.49671362  0.83235945  0.83269628  1
  Ni  Ni45  1  0.83079156  0.16837998  0.49937697  1
  Cr  Cr46  1  0.66688296  -0.00004661  0.66420824  1
  Ni  Ni47  1  0.83353418  0.16564316  0.83194786  1
  Ni  Ni48  1  0.83275931  0.49726839  0.49780934  1
  Ni  Ni49  1  0.66463156  0.33126895  0.66427804  1
  Cr  Cr50  1  0.83218950  0.49742948  0.83276835  1
  Ni  Ni51  1  0.83171354  0.83062401  0.49708613  1
  Cr  Cr52  1  0.66472534  0.66422501  0.66364720  1
  Cr  Cr53  1  0.83317369  0.83217124  0.83511142  1
" 