755,Ni71Fe27Cr0_17,-242.573435769057, 216.688743459738,Ni71Fe27Cr0,"# generated using pymatgen
 data_CrFe15Ni38
_symmetry_space_group_name_H-M   'P 1'
_cell_length_a   7.41765932
_cell_length_b   7.41765932
_cell_length_c   10.49015441
_cell_angle_alpha   90.00000000
_cell_angle_beta   90.00000000
_cell_angle_gamma   90.00000000
_symmetry_Int_Tables_number   1
_chemical_formula_structural   CrFe15Ni38
_chemical_formula_sum   'Cr1 Fe15 Ni38'
_cell_volume   577.18581206
_cell_formula_units_Z   1
loop_
 _symmetry_equiv_pos_site_id
 _symmetry_equiv_pos_as_xyz
  1  'x, y, z'
loop_
 _atom_site_type_symbol
 _atom_site_label
 _atom_site_symmetry_multiplicity
 _atom_site_fract_x
 _atom_site_fract_y
 _atom_site_fract_z
 _atom_site_occupancy
  Ni  Ni0  1  1.00322683  0.00390417  1.00180348  1
  Fe  Fe1  1  0.17019126  0.16959315  0.17004804  1
  Ni  Ni2  1  1.00279364  0.00537507  0.33725327  1
  Ni  Ni3  1  0.00651863  0.33661548  0.00372760  1
  Fe  Fe4  1  0.16950096  0.50362575  0.17128408  1
  Ni  Ni5  1  0.00426501  0.33692387  0.33687140  1
  Ni  Ni6  1  1.00201578  0.66937910  0.00472843  1
  Fe  Fe7  1  0.16924584  0.83736029  0.16941439  1
  Fe  Fe8  1  0.00426107  0.67165420  0.33704773  1
  Ni  Ni9  1  0.33758907  0.00538137  0.00385880  1
  Fe  Fe10  1  0.50526398  0.16941753  0.17018726  1
  Ni  Ni11  1  0.33715625  0.00360728  0.33627381  1
  Ni  Ni12  1  0.33560433  0.33719262  1.00298411  1
  Ni  Ni13  1  0.50237053  0.50386797  0.17045035  1
  Ni  Ni14  1  0.33506845  0.33693725  0.33698662  1
  Fe  Fe15  1  0.33574699  0.67119253  0.00393774  1
  Ni  Ni16  1  0.50249002  0.83577694  0.16990351  1
  Ni  Ni17  1  0.33873724  0.66953507  0.33714096  1
  Ni  Ni18  1  0.66941096  1.00080784  1.00229215  1
  Ni  Ni19  1  0.83895439  0.16950283  0.16941997  1
  Ni  Ni20  1  0.67017996  1.00077698  0.33653705  1
  Fe  Fe21  1  0.66989838  0.33511497  0.00451651  1
  Ni  Ni22  1  0.83632432  0.50291433  0.17178954  1
  Fe  Fe23  1  0.66960341  0.33470792  0.33613717  1
  Ni  Ni24  1  0.66909270  0.67096179  0.00395518  1
  Ni  Ni25  1  0.83620364  0.83728539  0.16964238  1
  Ni  Ni26  1  0.66999838  0.67043881  0.33706628  1
  Ni  Ni27  1  0.16993895  0.17168211  0.50287090  1
  Ni  Ni28  1  0.00333233  0.00430224  0.67060728  1
  Ni  Ni29  1  0.17017051  0.16935868  0.83641563  1
  Ni  Ni30  1  0.17037842  0.50309752  0.50326414  1
  Ni  Ni31  1  0.00592791  0.33598890  0.66984571  1
  Fe  Fe32  1  0.17074755  0.50398317  0.83581940  1
  Fe  Fe33  1  0.17024945  0.83956707  0.50377519  1
  Ni  Ni34  1  1.00213335  0.66979085  0.66818177  1
  Ni  Ni35  1  0.17010990  0.83730748  0.83628077  1
  Ni  Ni36  1  0.50276235  0.16875433  0.50181865  1
  Ni  Ni37  1  0.33796165  0.00528829  0.66945217  1
  Ni  Ni38  1  0.50230622  0.17003273  0.83752547  1
  Fe  Fe39  1  0.50362614  0.50256940  0.50284175  1
  Fe  Fe40  1  0.33692746  0.33559051  0.66973768  1
  Ni  Ni41  1  0.50119666  0.50411374  0.83605770  1
  Ni  Ni42  1  0.50345106  0.83662903  0.50297678  1
  Fe  Fe43  1  0.33553499  0.67222530  0.66890387  1
  Ni  Ni44  1  0.50190993  0.83580901  0.83711290  1
  Ni  Ni45  1  0.83737799  0.16895983  0.50375644  1
  Ni  Ni46  1  0.66870648  1.00140647  0.67102317  1
  Ni  Ni47  1  0.83787399  0.16860365  0.83672731  1
  Fe  Fe48  1  0.83677169  0.50235615  0.50309145  1
  Fe  Fe49  1  0.67030257  0.33350256  0.66971781  1
  Cr  Cr50  1  0.83606657  0.50324699  0.83717957  1
  Ni  Ni51  1  0.83599986  0.83714681  0.50313213  1
  Ni  Ni52  1  0.66872835  0.67137410  0.66936914  1
  Ni  Ni53  1  0.83756719  0.83723408  0.83702895  1
" 