1507,Ni71Fe9Cr19_7,-232.708066823588, 171.022014827167,Ni71Fe9Cr19,"# generated using pymatgen
 data_Cr11Fe5Ni38
_symmetry_space_group_name_H-M   'P 1'
_cell_length_a   7.45847083
_cell_length_b   7.45847083
_cell_length_c   10.54787061
_cell_angle_alpha   90.00000000
_cell_angle_beta   90.00000000
_cell_angle_gamma   90.00000000
_symmetry_Int_Tables_number   1
_chemical_formula_structural   Cr11Fe5Ni38
_chemical_formula_sum   'Cr11 Fe5 Ni38'
_cell_volume   586.76524891
_cell_formula_units_Z   1
loop_
 _symmetry_equiv_pos_site_id
 _symmetry_equiv_pos_as_xyz
  1  'x, y, z'
loop_
 _atom_site_type_symbol
 _atom_site_label
 _atom_site_symmetry_multiplicity
 _atom_site_fract_x
 _atom_site_fract_y
 _atom_site_fract_z
 _atom_site_occupancy
  Ni  Ni0  1  0.00080448  0.00384000  0.00083574  1
  Ni  Ni1  1  0.16872672  0.16767274  0.16606984  1
  Cr  Cr2  1  0.00306904  0.00269397  0.33465305  1
  Ni  Ni3  1  0.00267752  0.33211474  0.00130601  1
  Ni  Ni4  1  0.16841122  0.50050911  0.16819513  1
  Ni  Ni5  1  1.00028571  0.33545873  0.33284794  1
  Cr  Cr6  1  0.00151068  0.66500467  1.00051312  1
  Ni  Ni7  1  0.17037039  0.83353344  0.16727712  1
  Ni  Ni8  1  0.99892461  0.66426587  0.33303940  1
  Ni  Ni9  1  0.33470607  0.00152865  0.00216196  1
  Ni  Ni10  1  0.49915912  0.16788012  0.16754719  1
  Ni  Ni11  1  0.33374396  0.00118662  0.33236554  1
  Ni  Ni12  1  0.33191139  0.33356394  1.00038752  1
  Ni  Ni13  1  0.49869137  0.49961244  0.16865837  1
  Ni  Ni14  1  0.33284134  0.33242790  0.33130652  1
  Ni  Ni15  1  0.33448920  0.66666499  0.00229425  1
  Fe  Fe16  1  0.49755555  0.83410289  0.16700544  1
  Fe  Fe17  1  0.33465061  0.66729152  0.33153660  1
  Ni  Ni18  1  0.66616043  0.00129109  0.99970719  1
  Ni  Ni19  1  0.83385050  0.16974583  0.16606141  1
  Cr  Cr20  1  0.66527848  0.00072538  0.33407436  1
  Cr  Cr21  1  0.66737431  0.33306543  0.00115183  1
  Ni  Ni22  1  0.83455781  0.49808731  0.17049058  1
  Ni  Ni23  1  0.66857171  0.33667934  0.33202548  1
  Cr  Cr24  1  0.66532682  0.66770322  0.99901853  1
  Cr  Cr25  1  0.83516303  0.83448929  0.16598282  1
  Ni  Ni26  1  0.66766456  0.66499831  0.33425913  1
  Ni  Ni27  1  0.16623728  0.16721712  0.50203321  1
  Ni  Ni28  1  0.99895384  0.00222246  0.66678397  1
  Fe  Fe29  1  0.16660817  0.16828873  0.83388050  1
  Cr  Cr30  1  0.16545268  0.49953944  0.50034008  1
  Ni  Ni31  1  1.00002165  0.33326797  0.66757127  1
  Ni  Ni32  1  0.16774951  0.49925538  0.83317645  1
  Cr  Cr33  1  0.16858879  0.83403739  0.50152165  1
  Ni  Ni34  1  0.99773508  0.66622002  0.66770875  1
  Cr  Cr35  1  0.16775202  0.83347455  0.83364760  1
  Cr  Cr36  1  0.50034382  0.16700259  0.50133425  1
  Ni  Ni37  1  0.33485732  0.00138070  0.66721790  1
  Ni  Ni38  1  0.50091722  0.16577971  0.83287537  1
  Cr  Cr39  1  0.50236906  0.50108324  0.50137505  1
  Ni  Ni40  1  0.33270250  0.33293675  0.67008015  1
  Fe  Fe41  1  0.49961000  0.50068448  0.83244616  1
  Ni  Ni42  1  0.50078364  0.83369409  0.50097626  1
  Ni  Ni43  1  0.33591237  0.66737459  0.66871630  1
  Ni  Ni44  1  0.50089837  0.83593875  0.83358253  1
  Ni  Ni45  1  0.83491449  0.16966793  0.50206709  1
  Ni  Ni46  1  0.66773663  0.99913266  0.66800991  1
  Ni  Ni47  1  0.83294697  0.16664677  0.83372053  1
  Ni  Ni48  1  0.83394915  0.49997047  0.49994090  1
  Ni  Ni49  1  0.66896197  0.33426053  0.66835224  1
  Ni  Ni50  1  0.83582734  0.49922804  0.83116530  1
  Fe  Fe51  1  0.83248373  0.83238393  0.50263749  1
  Ni  Ni52  1  0.66809297  0.66836893  0.66774681  1
  Ni  Ni53  1  0.83216512  0.83585355  0.83136848  1
" 