3442,Ni71Fe20Cr7_2,-238.721174602026, 200.849002159394,Ni71Fe20Cr7,"# generated using pymatgen
 data_Cr5Fe11Ni38
_symmetry_space_group_name_H-M   'P 1'
_cell_length_a   7.43307715
_cell_length_b   7.43307715
_cell_length_c   10.51195852
_cell_angle_alpha   90.00000000
_cell_angle_beta   90.00000000
_cell_angle_gamma   90.00000000
_symmetry_Int_Tables_number   1
_chemical_formula_structural   Cr5Fe11Ni38
_chemical_formula_sum   'Cr5 Fe11 Ni38'
_cell_volume   580.79239388
_cell_formula_units_Z   1
loop_
 _symmetry_equiv_pos_site_id
 _symmetry_equiv_pos_as_xyz
  1  'x, y, z'
loop_
 _atom_site_type_symbol
 _atom_site_label
 _atom_site_symmetry_multiplicity
 _atom_site_fract_x
 _atom_site_fract_y
 _atom_site_fract_z
 _atom_site_occupancy
  Ni  Ni0  1  0.00284752  0.00246209  1.00128260  1
  Fe  Fe1  1  0.16913760  0.17000489  0.16892726  1
  Cr  Cr2  1  1.00163508  1.00156973  0.33579321  1
  Ni  Ni3  1  0.00350631  0.33581399  0.00247943  1
  Ni  Ni4  1  0.16886252  0.50098373  0.16942203  1
  Ni  Ni5  1  1.00193739  0.33701264  0.33591373  1
  Ni  Ni6  1  0.00284162  0.66835511  0.00256431  1
  Fe  Fe7  1  0.16824287  0.83292611  0.16804926  1
  Ni  Ni8  1  0.00239097  0.66724459  0.33552296  1
  Ni  Ni9  1  0.33431925  1.00216620  1.00134749  1
  Fe  Fe10  1  0.50332588  0.17016903  0.16984513  1
  Ni  Ni11  1  0.33605599  0.00261843  0.33713933  1
  Fe  Fe12  1  0.33396974  0.33659638  0.00233067  1
  Ni  Ni13  1  0.50002360  0.50285927  0.16919965  1
  Ni  Ni14  1  0.33542921  0.33611015  0.33497287  1
  Ni  Ni15  1  0.33439794  0.66867019  1.00080535  1
  Cr  Cr16  1  0.50350611  0.83550783  0.16913804  1
  Ni  Ni17  1  0.33451544  0.66812021  0.33723334  1
  Ni  Ni18  1  0.66966141  1.00201185  1.00164268  1
  Ni  Ni19  1  0.83717329  0.16848487  0.16870395  1
  Ni  Ni20  1  0.66882224  0.00335784  0.33639625  1
  Cr  Cr21  1  0.66985305  0.33779120  1.00124645  1
  Ni  Ni22  1  0.83762291  0.50297329  0.16981267  1
  Ni  Ni23  1  0.66959826  0.33595673  0.33695164  1
  Ni  Ni24  1  0.66953988  0.66920464  1.00093996  1
  Ni  Ni25  1  0.83596236  0.83540824  0.16763546  1
  Ni  Ni26  1  0.66983601  0.66772196  0.33618805  1
  Ni  Ni27  1  0.16898507  0.16951590  0.50238186  1
  Fe  Fe28  1  0.00282467  1.00174506  0.66871906  1
  Fe  Fe29  1  0.16784996  0.16845175  0.83546406  1
  Fe  Fe30  1  0.16831726  0.50193621  0.50149045  1
  Ni  Ni31  1  1.00078112  0.33574718  0.66885068  1
  Ni  Ni32  1  0.16733914  0.50172528  0.83617670  1
  Fe  Fe33  1  0.16979105  0.83490751  0.50259212  1
  Fe  Fe34  1  1.00149351  0.66842772  0.66925313  1
  Fe  Fe35  1  0.16984982  0.83388183  0.83611709  1
  Ni  Ni36  1  0.50083182  0.16852359  0.49944472  1
  Ni  Ni37  1  0.33388445  0.99993882  0.66846723  1
  Ni  Ni38  1  0.49968700  0.16692045  0.83703764  1
  Ni  Ni39  1  0.50293544  0.50374866  0.50179732  1
  Cr  Cr40  1  0.33711990  0.33622983  0.66935137  1
  Ni  Ni41  1  0.50120631  0.50434735  0.83582595  1
  Ni  Ni42  1  0.50173115  0.83463693  0.50170301  1
  Ni  Ni43  1  0.33575958  0.67103899  0.66905789  1
  Ni  Ni44  1  0.50210115  0.83577517  0.83632600  1
  Ni  Ni45  1  0.83717910  0.17065203  0.50297902  1
  Cr  Cr46  1  0.66759641  0.00261227  0.66844921  1
  Fe  Fe47  1  0.83606390  0.17012387  0.83581536  1
  Ni  Ni48  1  0.83631861  0.50254646  0.50200239  1
  Ni  Ni49  1  0.67098874  0.33755468  0.66868144  1
  Ni  Ni50  1  0.83827085  0.50422807  0.83504478  1
  Ni  Ni51  1  0.83480568  0.83346366  0.50145810  1
  Ni  Ni52  1  0.66846429  0.66760964  0.66982899  1
  Ni  Ni53  1  0.83620431  0.83500460  0.83759538  1
" 