4829,Ni71Fe9Cr19_19,-232.566323893293, 170.735020957533,Ni71Fe9Cr19,"# generated using pymatgen
 data_Cr11Fe5Ni38
_symmetry_space_group_name_H-M   'P 1'
_cell_length_a   7.45834015
_cell_length_b   7.45834015
_cell_length_c   10.54768579
_cell_angle_alpha   90.00000000
_cell_angle_beta   90.00000000
_cell_angle_gamma   90.00000000
_symmetry_Int_Tables_number   1
_chemical_formula_structural   Cr11Fe5Ni38
_chemical_formula_sum   'Cr11 Fe5 Ni38'
_cell_volume   586.73440683
_cell_formula_units_Z   1
loop_
 _symmetry_equiv_pos_site_id
 _symmetry_equiv_pos_as_xyz
  1  'x, y, z'
loop_
 _atom_site_type_symbol
 _atom_site_label
 _atom_site_symmetry_multiplicity
 _atom_site_fract_x
 _atom_site_fract_y
 _atom_site_fract_z
 _atom_site_occupancy
  Ni  Ni0  1  0.99950464  0.99999268  0.00153138  1
  Ni  Ni1  1  0.16595048  0.16691368  0.16649281  1
  Ni  Ni2  1  0.99955108  0.99970061  0.33303907  1
  Ni  Ni3  1  0.00088918  0.33380851  0.00078516  1
  Ni  Ni4  1  0.16616450  0.49894639  0.16817594  1
  Ni  Ni5  1  0.00095155  0.33407143  0.33379127  1
  Ni  Ni6  1  1.00036203  0.66793104  0.99888437  1
  Ni  Ni7  1  0.16618661  0.83588185  0.16817601  1
  Ni  Ni8  1  0.00215697  0.66794428  0.33562125  1
  Ni  Ni9  1  0.33354299  0.00155335  0.00084033  1
  Cr  Cr10  1  0.49966665  0.16596934  0.16699815  1
  Ni  Ni11  1  0.33335912  0.99934653  0.33325365  1
  Ni  Ni12  1  0.33220960  0.33233209  1.00031254  1
  Cr  Cr13  1  0.50089118  0.50196293  0.16802129  1
  Ni  Ni14  1  0.33202561  0.33449651  0.33380215  1
  Cr  Cr15  1  0.33134934  0.66799092  0.00272979  1
  Ni  Ni16  1  0.50200091  0.83490569  0.16790961  1
  Ni  Ni17  1  0.33108862  0.66791896  0.33285127  1
  Ni  Ni18  1  0.66874401  0.00103992  0.00060209  1
  Fe  Fe19  1  0.83618183  0.16514321  0.16722105  1
  Ni  Ni20  1  0.66886101  1.00057678  0.33386539  1
  Ni  Ni21  1  0.66872235  0.33146106  0.99784591  1
  Cr  Cr22  1  0.83473618  0.50103432  0.16715305  1
  Ni  Ni23  1  0.66878988  0.33184695  0.33663741  1
  Ni  Ni24  1  0.67030129  0.66928315  0.00069308  1
  Ni  Ni25  1  0.83360194  0.83503319  0.16677355  1
  Ni  Ni26  1  0.66849860  0.66929674  0.33371287  1
  Cr  Cr27  1  0.16698044  0.16597139  0.49991532  1
  Ni  Ni28  1  0.99811375  0.99667957  0.66721019  1
  Cr  Cr29  1  0.16735826  0.16601744  0.83537902  1
  Ni  Ni30  1  0.16647433  0.50240382  0.49962987  1
  Cr  Cr31  1  0.99921633  0.33563016  0.66685249  1
  Ni  Ni32  1  0.16575947  0.50201439  0.83396786  1
  Ni  Ni33  1  0.16525668  0.83279422  0.50110036  1
  Ni  Ni34  1  0.00195926  0.66956461  0.66725655  1
  Ni  Ni35  1  0.16453095  0.83316705  0.83250970  1
  Fe  Fe36  1  0.50259133  0.16753564  0.50070977  1
  Fe  Fe37  1  0.33401323  0.99983554  0.66764842  1
  Ni  Ni38  1  0.50303289  0.16778330  0.83284395  1
  Cr  Cr39  1  0.50127888  0.49995813  0.49984864  1
  Ni  Ni40  1  0.33610317  0.33496052  0.66756670  1
  Cr  Cr41  1  0.50184520  0.49872317  0.83395500  1
  Cr  Cr42  1  0.50080799  0.83425476  0.49997829  1
  Ni  Ni43  1  0.33008738  0.66664727  0.66704512  1
  Cr  Cr44  1  0.50137537  0.83551976  0.83384063  1
  Ni  Ni45  1  0.83212931  0.16658114  0.49890245  1
  Ni  Ni46  1  0.66910547  0.00269886  0.66723464  1
  Ni  Ni47  1  0.83152159  0.16660672  0.83555928  1
  Ni  Ni48  1  0.83389064  0.50102128  0.50046367  1
  Ni  Ni49  1  0.66620820  0.33118675  0.66722310  1
  Fe  Fe50  1  0.83480397  0.50095410  0.83457331  1
  Ni  Ni51  1  0.83518136  0.83414568  0.50130176  1
  Ni  Ni52  1  0.66980282  0.66788159  0.66736073  1
  Fe  Fe53  1  0.83580552  0.83460293  0.83392470  1
" 