7898,Ni71Fe2Cr26_4,-228.590717293855, 148.0569016112,Ni71Fe2Cr26,"# generated using pymatgen
 data_Cr15FeNi38
_symmetry_space_group_name_H-M   'P 1'
_cell_length_a   7.48330702
_cell_length_b   7.48330702
_cell_length_c   10.58299429
_cell_angle_alpha   90.00000000
_cell_angle_beta   90.00000000
_cell_angle_gamma   90.00000000
_symmetry_Int_Tables_number   1
_chemical_formula_structural   Cr15FeNi38
_chemical_formula_sum   'Cr15 Fe1 Ni38'
_cell_volume   592.64645259
_cell_formula_units_Z   1
loop_
 _symmetry_equiv_pos_site_id
 _symmetry_equiv_pos_as_xyz
  1  'x, y, z'
loop_
 _atom_site_type_symbol
 _atom_site_label
 _atom_site_symmetry_multiplicity
 _atom_site_fract_x
 _atom_site_fract_y
 _atom_site_fract_z
 _atom_site_occupancy
  Ni  Ni0  1  0.99586343  -0.00041097  0.00015340  1
  Ni  Ni1  1  0.16468139  0.16607011  0.16442302  1
  Cr  Cr2  1  0.99714578  -0.00050140  0.33178090  1
  Ni  Ni3  1  0.99737949  0.33188135  -0.00058819  1
  Ni  Ni4  1  0.16257176  0.49794785  0.16609185  1
  Ni  Ni5  1  0.99765571  0.33380428  0.33206093  1
  Ni  Ni6  1  0.99624275  0.66529410  0.99857451  1
  Cr  Cr7  1  0.16483463  0.83248129  0.16641681  1
  Ni  Ni8  1  0.00164769  0.66346408  0.33304077  1
  Ni  Ni9  1  0.33389464  0.00067983  -0.00065956  1
  Ni  Ni10  1  0.50021904  0.16374326  0.16569630  1
  Ni  Ni11  1  0.33376369  -0.00091862  0.33207363  1
  Cr  Cr12  1  0.33265333  0.33142627  -0.00076122  1
  Cr  Cr13  1  0.50043894  0.49780590  0.16601060  1
  Cr  Cr14  1  0.33263478  0.33293034  0.33137168  1
  Cr  Cr15  1  0.33300691  0.66426341  0.99774675  1
  Cr  Cr16  1  0.50025456  0.83459697  0.16559891  1
  Ni  Ni17  1  0.32873852  0.66510306  0.33415651  1
  Ni  Ni18  1  0.66704414  -0.00045435  0.99841772  1
  Ni  Ni19  1  0.83182907  0.16543764  0.16494420  1
  Ni  Ni20  1  0.66505820  0.00308489  0.33114410  1
  Ni  Ni21  1  0.66701326  0.33030707  0.99765958  1
  Cr  Cr22  1  0.83368969  0.49800554  0.16513655  1
  Ni  Ni23  1  0.66680220  0.32864410  0.33412520  1
  Ni  Ni24  1  0.66826144  0.66686658  0.99627262  1
  Ni  Ni25  1  0.83268505  0.83366091  0.16335395  1
  Cr  Cr26  1  0.66638382  0.66495866  0.33279570  1
  Cr  Cr27  1  0.16632288  0.16566075  0.50033850  1
  Cr  Cr28  1  0.99597421  0.99867033  0.66513665  1
  Cr  Cr29  1  0.16539412  0.16632061  0.83237451  1
  Ni  Ni30  1  0.16437862  0.50127421  0.49982426  1
  Ni  Ni31  1  0.99734950  0.33544873  0.66534686  1
  Fe  Fe32  1  0.16373667  0.49879934  0.83060811  1
  Ni  Ni33  1  0.16761768  0.82883012  0.49847861  1
  Ni  Ni34  1  -0.00090708  0.66262519  0.66513495  1
  Cr  Cr35  1  0.16592135  0.83241752  0.83148732  1
  Ni  Ni36  1  0.50106667  0.16648196  0.49952346  1
  Ni  Ni37  1  0.33556132  0.99888427  0.66534590  1
  Ni  Ni38  1  0.50079687  0.16506368  0.83145436  1
  Ni  Ni39  1  0.49914272  0.49741214  0.50031831  1
  Ni  Ni40  1  0.33422505  0.33421639  0.66568174  1
  Ni  Ni41  1  0.50190177  0.49912881  0.83057283  1
  Cr  Cr42  1  0.49622822  0.83326964  0.49949043  1
  Ni  Ni43  1  0.33237887  0.66362649  0.66489571  1
  Ni  Ni44  1  0.50091066  0.83254550  0.83161147  1
  Ni  Ni45  1  0.82914399  0.16979028  0.49874726  1
  Ni  Ni46  1  0.66401779  0.00062683  0.66715295  1
  Ni  Ni47  1  0.83016621  0.16732805  0.83307712  1
  Ni  Ni48  1  0.83319637  0.49622846  0.49946930  1
  Ni  Ni49  1  0.66511307  0.33220494  0.66496093  1
  Ni  Ni50  1  0.83135006  0.49894191  0.83226517  1
  Cr  Cr51  1  0.83270722  0.83088075  0.49951556  1
  Ni  Ni52  1  0.66529950  0.66397994  0.66768790  1
  Ni  Ni53  1  0.82994731  0.83050654  0.83379813  1
" 