362,Ni71Fe9Cr19_9,-232.503192346284, 168.04932485858,Ni71Fe9Cr19,"# generated using pymatgen
 data_Cr11Fe5Ni38
_symmetry_space_group_name_H-M   'P 1'
_cell_length_a   7.45777040
_cell_length_b   7.45777040
_cell_length_c   10.54688005
_cell_angle_alpha   90.00000000
_cell_angle_beta   90.00000000
_cell_angle_gamma   90.00000000
_symmetry_Int_Tables_number   1
_chemical_formula_structural   Cr11Fe5Ni38
_chemical_formula_sum   'Cr11 Fe5 Ni38'
_cell_volume   586.59995369
_cell_formula_units_Z   1
loop_
 _symmetry_equiv_pos_site_id
 _symmetry_equiv_pos_as_xyz
  1  'x, y, z'
loop_
 _atom_site_type_symbol
 _atom_site_label
 _atom_site_symmetry_multiplicity
 _atom_site_fract_x
 _atom_site_fract_y
 _atom_site_fract_z
 _atom_site_occupancy
  Ni  Ni0  1  1.00052103  0.00205833  0.00079908  1
  Ni  Ni1  1  0.16726985  0.16900520  0.16680121  1
  Cr  Cr2  1  0.00226657  0.99969250  0.33400057  1
  Ni  Ni3  1  0.00233485  0.33295996  0.00086172  1
  Ni  Ni4  1  0.16660807  0.49835615  0.16892765  1
  Fe  Fe5  1  0.00231703  0.33520867  0.33469594  1
  Cr  Cr6  1  0.00079951  0.66781710  1.00037018  1
  Ni  Ni7  1  0.16651834  0.83455589  0.16903254  1
  Ni  Ni8  1  0.00202240  0.66532084  0.33378840  1
  Cr  Cr9  1  0.33229666  0.00251696  0.00096956  1
  Ni  Ni10  1  0.49826216  0.16929704  0.16905176  1
  Ni  Ni11  1  0.33385780  0.00174852  0.33385130  1
  Ni  Ni12  1  0.33166287  0.33312926  0.00102397  1
  Ni  Ni13  1  0.50041646  0.49968228  0.16823184  1
  Ni  Ni14  1  0.33413119  0.33378698  0.33398532  1
  Cr  Cr15  1  0.33372686  0.66647636  0.00240209  1
  Ni  Ni16  1  0.50046768  0.83304611  0.16784703  1
  Ni  Ni17  1  0.33223021  0.66637860  0.33373377  1
  Cr  Cr18  1  0.66755803  0.99960756  0.00109669  1
  Fe  Fe19  1  0.83621364  0.16846021  0.16721729  1
  Cr  Cr20  1  0.66549356  0.00276109  0.33407683  1
  Cr  Cr21  1  0.66636712  0.33402517  0.00184202  1
  Ni  Ni22  1  0.83497570  0.50037520  0.16728459  1
  Fe  Fe23  1  0.66613276  0.33461738  0.33472493  1
  Ni  Ni24  1  0.66865524  0.66775910  0.00106702  1
  Ni  Ni25  1  0.83500454  0.83257945  0.16666589  1
  Cr  Cr26  1  0.66781367  0.66644418  0.33433733  1
  Ni  Ni27  1  0.16750971  0.16763297  0.50208400  1
  Ni  Ni28  1  0.00070637  0.00216066  0.66740487  1
  Ni  Ni29  1  0.16536631  0.16821600  0.83305355  1
  Ni  Ni30  1  0.16782364  0.49986166  0.49971224  1
  Ni  Ni31  1  0.00224419  0.33252726  0.66687937  1
  Ni  Ni32  1  0.16692024  0.49754638  0.83312653  1
  Ni  Ni33  1  0.16960957  0.83438974  0.50010615  1
  Cr  Cr34  1  0.00204231  0.66635208  0.66657141  1
  Ni  Ni35  1  0.16675047  0.83604284  0.83251841  1
  Ni  Ni36  1  0.49912900  0.16688680  0.50092675  1
  Ni  Ni37  1  0.33370674  0.00120615  0.66694234  1
  Ni  Ni38  1  0.49944483  0.16582438  0.83199024  1
  Ni  Ni39  1  0.49925541  0.50123563  0.50043886  1
  Ni  Ni40  1  0.33171059  0.33315654  0.66676917  1
  Cr  Cr41  1  0.49924231  0.50188772  0.83318949  1
  Ni  Ni42  1  0.49843326  0.83387739  0.50251284  1
  Ni  Ni43  1  0.33394593  0.66740714  0.66588112  1
  Ni  Ni44  1  0.50218189  0.83417482  0.83175845  1
  Ni  Ni45  1  0.83527849  0.16851837  0.50082981  1
  Ni  Ni46  1  0.66747968  1.00018154  0.66693237  1
  Ni  Ni47  1  0.83693587  0.16550004  0.83400520  1
  Ni  Ni48  1  0.83487828  0.49929429  0.50055275  1
  Cr  Cr49  1  0.66765314  0.33265387  0.66562028  1
  Fe  Fe50  1  0.83514061  0.50005461  0.83364083  1
  Fe  Fe51  1  0.83417640  0.83427605  0.50191208  1
  Ni  Ni52  1  0.66704423  0.66918606  0.66676213  1
  Ni  Ni53  1  0.83305379  0.83586999  0.83277934  1
" 