5447,Ni71Fe9Cr19_14,-232.764055354141, 171.958794950341,Ni71Fe9Cr19,"# generated using pymatgen
 data_Cr11Fe5Ni38
_symmetry_space_group_name_H-M   'P 1'
_cell_length_a   7.46169913
_cell_length_b   7.46169913
_cell_length_c   10.55243611
_cell_angle_alpha   90.00000000
_cell_angle_beta   90.00000000
_cell_angle_gamma   90.00000000
_symmetry_Int_Tables_number   1
_chemical_formula_structural   Cr11Fe5Ni38
_chemical_formula_sum   'Cr11 Fe5 Ni38'
_cell_volume   587.52749975
_cell_formula_units_Z   1
loop_
 _symmetry_equiv_pos_site_id
 _symmetry_equiv_pos_as_xyz
  1  'x, y, z'
loop_
 _atom_site_type_symbol
 _atom_site_label
 _atom_site_symmetry_multiplicity
 _atom_site_fract_x
 _atom_site_fract_y
 _atom_site_fract_z
 _atom_site_occupancy
  Ni  Ni0  1  0.00127197  0.99877149  0.00042131  1
  Cr  Cr1  1  0.16867004  0.16609444  0.16780913  1
  Ni  Ni2  1  0.99919804  0.99976634  0.33448886  1
  Cr  Cr3  1  1.00032963  0.33313991  0.00186192  1
  Ni  Ni4  1  0.16720896  0.50260957  0.16793648  1
  Ni  Ni5  1  1.00003601  0.33344672  0.33389116  1
  Fe  Fe6  1  0.00213143  0.66966522  0.00292217  1
  Ni  Ni7  1  0.16459384  0.83202240  0.16661418  1
  Ni  Ni8  1  0.00091161  0.66786167  0.33152104  1
  Ni  Ni9  1  0.33316955  0.00038083  0.99804405  1
  Ni  Ni10  1  0.50216067  0.16905662  0.16663912  1
  Ni  Ni11  1  0.33390398  0.00045021  0.33493480  1
  Ni  Ni12  1  0.33682659  0.33340404  0.99963091  1
  Ni  Ni13  1  0.50092369  0.49843918  0.16681196  1
  Ni  Ni14  1  0.33473829  0.33443465  0.33433815  1
  Ni  Ni15  1  0.33507709  0.66729067  0.99988346  1
  Cr  Cr16  1  0.50000367  0.83422538  0.16759534  1
  Ni  Ni17  1  0.33317699  0.66619036  0.33435926  1
  Fe  Fe18  1  0.66568177  0.00118558  0.00168545  1
  Ni  Ni19  1  0.83138509  0.16644243  0.16808189  1
  Ni  Ni20  1  0.66797347  0.00132661  0.33402928  1
  Fe  Fe21  1  0.66313082  0.33372989  0.00226866  1
  Ni  Ni22  1  0.83294274  0.50137562  0.16710011  1
  Ni  Ni23  1  0.66630086  0.33272112  0.33166070  1
  Ni  Ni24  1  0.66576788  0.66610740  1.00026972  1
  Ni  Ni25  1  0.83555455  0.83325766  0.16684191  1
  Ni  Ni26  1  0.66698563  0.66702799  0.33418388  1
  Ni  Ni27  1  0.16690407  0.16764364  0.50089437  1
  Ni  Ni28  1  0.00174511  0.00060640  0.66616449  1
  Ni  Ni29  1  0.16943911  0.16491427  0.83305914  1
  Ni  Ni30  1  0.16842191  0.49973618  0.50095902  1
  Ni  Ni31  1  0.00329606  0.33224742  0.66582250  1
  Cr  Cr32  1  0.16912793  0.50071460  0.83182362  1
  Ni  Ni33  1  0.16580944  0.83369493  0.49990458  1
  Ni  Ni34  1  0.00142932  0.66822047  0.66676122  1
  Ni  Ni35  1  0.16740156  0.83528008  0.83455599  1
  Ni  Ni36  1  0.49888725  0.16752521  0.49792531  1
  Cr  Cr37  1  0.33205725  1.00019390  0.66762501  1
  Ni  Ni38  1  0.49736534  0.16834475  0.83650974  1
  Ni  Ni39  1  0.49838429  0.50086810  0.50030336  1
  Ni  Ni40  1  0.33239571  0.33495606  0.66710628  1
  Ni  Ni41  1  0.49957684  0.50034758  0.83396058  1
  Ni  Ni42  1  0.50111532  0.83268074  0.49992241  1
  Ni  Ni43  1  0.33450296  0.66575223  0.66683401  1
  Fe  Fe44  1  0.49818435  0.83198074  0.83483956  1
  Fe  Fe45  1  0.83544556  0.16528750  0.49846320  1
  Cr  Cr46  1  0.66709128  0.99858435  0.66547757  1
  Cr  Cr47  1  0.83476151  0.16616220  0.83335225  1
  Cr  Cr48  1  0.83433527  0.50192566  0.50088898  1
  Cr  Cr49  1  0.66520188  0.33484670  0.66701479  1
  Cr  Cr50  1  0.83216477  0.50240477  0.83281771  1
  Ni  Ni51  1  0.83415093  0.83420135  0.50011877  1
  Ni  Ni52  1  0.66514148  0.66729933  0.66662397  1
  Cr  Cr53  1  0.83496198  0.83251017  0.83380002  1
" 