5624,Ni71Fe27Cr0_8,-242.379479201792, 214.24174331596,Ni71Fe27Cr0,"# generated using pymatgen
 data_CrFe15Ni38
_symmetry_space_group_name_H-M   'P 1'
_cell_length_a   7.41698194
_cell_length_b   7.41698194
_cell_length_c   10.48919645
_cell_angle_alpha   90.00000000
_cell_angle_beta   90.00000000
_cell_angle_gamma   90.00000000
_symmetry_Int_Tables_number   1
_chemical_formula_structural   CrFe15Ni38
_chemical_formula_sum   'Cr1 Fe15 Ni38'
_cell_volume   577.02770068
_cell_formula_units_Z   1
loop_
 _symmetry_equiv_pos_site_id
 _symmetry_equiv_pos_as_xyz
  1  'x, y, z'
loop_
 _atom_site_type_symbol
 _atom_site_label
 _atom_site_symmetry_multiplicity
 _atom_site_fract_x
 _atom_site_fract_y
 _atom_site_fract_z
 _atom_site_occupancy
  Fe  Fe0  1  1.00277355  1.00247138  1.00311049  1
  Fe  Fe1  1  0.17058737  0.17051714  0.17043472  1
  Ni  Ni2  1  0.00341516  1.00304845  0.33631561  1
  Ni  Ni3  1  0.00347204  0.33693291  0.00430266  1
  Ni  Ni4  1  0.17126241  0.50490514  0.17022820  1
  Fe  Fe5  1  0.00443785  0.33650285  0.33682743  1
  Ni  Ni6  1  0.00351774  0.66896185  1.00297702  1
  Ni  Ni7  1  0.16987410  0.83509626  0.16987027  1
  Ni  Ni8  1  0.00379764  0.67034378  0.33679602  1
  Fe  Fe9  1  0.33659136  1.00212557  1.00321206  1
  Ni  Ni10  1  0.50515291  0.17119256  0.17029648  1
  Ni  Ni11  1  0.33688571  0.00387255  0.33691852  1
  Fe  Fe12  1  0.33655719  0.33795579  0.00374020  1
  Ni  Ni13  1  0.50253957  0.50292736  0.16947284  1
  Ni  Ni14  1  0.33705117  0.33558415  0.33531067  1
  Ni  Ni15  1  0.33670607  0.66978741  0.00341683  1
  Fe  Fe16  1  0.50266952  0.83645334  0.16957106  1
  Ni  Ni17  1  0.33535357  0.67067173  0.33591378  1
  Ni  Ni18  1  0.66992060  0.00343108  0.00392546  1
  Ni  Ni19  1  0.83542040  0.16980572  0.16990595  1
  Fe  Fe20  1  0.66960589  0.00401880  0.33706052  1
  Fe  Fe21  1  0.67081147  0.33737571  0.00448430  1
  Fe  Fe22  1  0.83678880  0.50307664  0.16929024  1
  Ni  Ni23  1  0.67015579  0.33520269  0.33558149  1
  Ni  Ni24  1  0.66990068  0.67092774  0.00397993  1
  Fe  Fe25  1  0.83692989  0.83646041  0.16980699  1
  Fe  Fe26  1  0.67010909  0.67093660  0.33615240  1
  Ni  Ni27  1  0.16948375  0.17026790  0.50242669  1
  Ni  Ni28  1  1.00273815  0.00394524  0.67082610  1
  Ni  Ni29  1  0.16926157  0.17050600  0.83735974  1
  Ni  Ni30  1  0.16917097  0.50378202  0.50327216  1
  Ni  Ni31  1  0.00389811  0.33672566  0.66879184  1
  Ni  Ni32  1  0.17014773  0.50370316  0.83662376  1
  Ni  Ni33  1  0.16976893  0.83607559  0.50404454  1
  Ni  Ni34  1  1.00306854  0.66945421  0.67035275  1
  Ni  Ni35  1  0.17043196  0.83591320  0.83620988  1
  Ni  Ni36  1  0.50414492  0.16854638  0.50354051  1
  Ni  Ni37  1  0.33754284  0.00392053  0.66972640  1
  Fe  Fe38  1  0.50331528  0.16906651  0.83635372  1
  Cr  Cr39  1  0.50161757  0.50363955  0.50407605  1
  Ni  Ni40  1  0.33518338  0.33554680  0.67098265  1
  Fe  Fe41  1  0.50321019  0.50460342  0.83689610  1
  Ni  Ni42  1  0.50350597  0.83814878  0.50244913  1
  Ni  Ni43  1  0.33603747  0.67065643  0.67079066  1
  Ni  Ni44  1  0.50358977  0.83601316  0.83683483  1
  Ni  Ni45  1  0.83650177  0.16914334  0.50366494  1
  Ni  Ni46  1  0.66984292  1.00309406  0.66906793  1
  Ni  Ni47  1  0.83665461  0.17013737  0.83655356  1
  Fe  Fe48  1  0.83882589  0.50367389  0.50401811  1
  Fe  Fe49  1  0.67129238  0.33546047  0.67021273  1
  Ni  Ni50  1  0.83675763  0.50309167  0.83672073  1
  Ni  Ni51  1  0.83685048  0.83783929  0.50347862  1
  Ni  Ni52  1  0.67102140  0.67181816  0.67091797  1
  Ni  Ni53  1  0.83610203  0.83689537  0.83715956  1
" 