1767,Ni71Fe27Cr0_19,-242.199575189213, 216.242972713521,Ni71Fe27Cr0,"# generated using pymatgen
 data_CrFe15Ni38
_symmetry_space_group_name_H-M   'P 1'
_cell_length_a   7.41414764
_cell_length_b   7.41414764
_cell_length_c   10.48518814
_cell_angle_alpha   90.00000000
_cell_angle_beta   90.00000000
_cell_angle_gamma   90.00000000
_symmetry_Int_Tables_number   1
_chemical_formula_structural   CrFe15Ni38
_chemical_formula_sum   'Cr1 Fe15 Ni38'
_cell_volume   576.36644235
_cell_formula_units_Z   1
loop_
 _symmetry_equiv_pos_site_id
 _symmetry_equiv_pos_as_xyz
  1  'x, y, z'
loop_
 _atom_site_type_symbol
 _atom_site_label
 _atom_site_symmetry_multiplicity
 _atom_site_fract_x
 _atom_site_fract_y
 _atom_site_fract_z
 _atom_site_occupancy
  Ni  Ni0  1  0.00391642  0.00361866  1.00355692  1
  Ni  Ni1  1  0.17062743  0.17171369  0.17028103  1
  Ni  Ni2  1  0.00362098  0.00362111  0.33717446  1
  Ni  Ni3  1  0.00393770  0.33642263  1.00288537  1
  Ni  Ni4  1  0.16990260  0.50200529  0.17002844  1
  Ni  Ni5  1  1.00257788  0.33549997  0.33674039  1
  Ni  Ni6  1  1.00288977  0.67066016  1.00331503  1
  Fe  Fe7  1  0.17082097  0.83746168  0.17004681  1
  Fe  Fe8  1  1.00299822  0.67109881  0.33639141  1
  Ni  Ni9  1  0.33657147  0.00359769  0.00367366  1
  Ni  Ni10  1  0.50284382  0.16942009  0.17009297  1
  Ni  Ni11  1  0.33667657  1.00291285  0.33734650  1
  Ni  Ni12  1  0.33681990  0.33671417  0.00372074  1
  Fe  Fe13  1  0.50270677  0.50351038  0.17031434  1
  Ni  Ni14  1  0.33801240  0.33650952  0.33614198  1
  Ni  Ni15  1  0.33788916  0.67039249  1.00276858  1
  Ni  Ni16  1  0.50490401  0.83764437  0.17056429  1
  Ni  Ni17  1  0.33833974  0.67128226  0.33636763  1
  Fe  Fe18  1  0.66996482  1.00282035  0.00439070  1
  Fe  Fe19  1  0.83719780  0.16975185  0.17027257  1
  Ni  Ni20  1  0.67040567  1.00329973  0.33724313  1
  Fe  Fe21  1  0.67029448  0.33732063  1.00308995  1
  Fe  Fe22  1  0.83711545  0.50333928  0.17004690  1
  Ni  Ni23  1  0.67010957  0.33716548  0.33727354  1
  Ni  Ni24  1  0.66992436  0.67041286  0.00367517  1
  Ni  Ni25  1  0.83559918  0.83692072  0.16977717  1
  Fe  Fe26  1  0.66982375  0.67069293  0.33739944  1
  Ni  Ni27  1  0.16992747  0.16894528  0.50324931  1
  Ni  Ni28  1  0.00402423  1.00309442  0.66997101  1
  Ni  Ni29  1  0.16912152  0.17074655  0.83717339  1
  Cr  Cr30  1  0.16980460  0.50197555  0.50448764  1
  Ni  Ni31  1  1.00290344  0.33580473  0.67107778  1
  Ni  Ni32  1  0.16985945  0.50280652  0.83668266  1
  Ni  Ni33  1  0.17021569  0.83953278  0.50254948  1
  Ni  Ni34  1  1.00187930  0.67180266  0.67113915  1
  Ni  Ni35  1  0.17087685  0.83714913  0.83745346  1
  Fe  Fe36  1  0.50346630  0.17045350  0.50258964  1
  Fe  Fe37  1  0.33604332  1.00356466  0.67021182  1
  Fe  Fe38  1  0.50277420  0.17114515  0.83734355  1
  Ni  Ni39  1  0.50586823  0.50383477  0.50285937  1
  Ni  Ni40  1  0.33814337  0.33611762  0.67083974  1
  Ni  Ni41  1  0.50382128  0.50444473  0.83734429  1
  Ni  Ni42  1  0.50455454  0.83688269  0.50301674  1
  Fe  Fe43  1  0.33751446  0.67036953  0.67109724  1
  Ni  Ni44  1  0.50360227  0.83630561  0.83712301  1
  Fe  Fe45  1  0.83720884  0.17012287  0.50379686  1
  Fe  Fe46  1  0.67108681  0.00358820  0.66980162  1
  Ni  Ni47  1  0.83786526  0.17096754  0.83729095  1
  Ni  Ni48  1  0.83488803  0.50354270  0.50325656  1
  Ni  Ni49  1  0.66965508  0.33826279  0.67017981  1
  Ni  Ni50  1  0.83702106  0.50268960  0.83696573  1
  Ni  Ni51  1  0.83593259  0.83689972  0.50412646  1
  Ni  Ni52  1  0.67034824  0.66967702  0.66947235  1
  Fe  Fe53  1  0.83774782  0.83610916  0.83696634  1
" 