4715,Ni71Fe20Cr7_18,-238.475789085964, 199.826068601728,Ni71Fe20Cr7,"# generated using pymatgen
 data_Cr5Fe11Ni38
_symmetry_space_group_name_H-M   'P 1'
_cell_length_a   7.43032746
_cell_length_b   7.43032746
_cell_length_c   10.50806986
_cell_angle_alpha   90.00000000
_cell_angle_beta   90.00000000
_cell_angle_gamma   90.00000000
_symmetry_Int_Tables_number   1
_chemical_formula_structural   Cr5Fe11Ni38
_chemical_formula_sum   'Cr5 Fe11 Ni38'
_cell_volume   580.14807908
_cell_formula_units_Z   1
loop_
 _symmetry_equiv_pos_site_id
 _symmetry_equiv_pos_as_xyz
  1  'x, y, z'
loop_
 _atom_site_type_symbol
 _atom_site_label
 _atom_site_symmetry_multiplicity
 _atom_site_fract_x
 _atom_site_fract_y
 _atom_site_fract_z
 _atom_site_occupancy
  Ni  Ni0  1  0.00333600  0.00454898  1.00213959  1
  Ni  Ni1  1  0.16914228  0.16981505  0.16869658  1
  Ni  Ni2  1  1.00063753  0.00363456  0.33525128  1
  Ni  Ni3  1  0.00360451  0.33405505  1.00181342  1
  Fe  Fe4  1  0.17135339  0.49944144  0.17008210  1
  Ni  Ni5  1  0.00436659  0.33565974  0.33645318  1
  Cr  Cr6  1  1.00100579  0.66902191  1.00063775  1
  Cr  Cr7  1  0.16973195  0.83736049  0.16996292  1
  Ni  Ni8  1  1.00056498  0.66811273  0.33753639  1
  Ni  Ni9  1  0.33543593  0.00374611  1.00163782  1
  Ni  Ni10  1  0.50108266  0.16993930  0.16966365  1
  Ni  Ni11  1  0.33792730  0.00457153  0.33589709  1
  Ni  Ni12  1  0.33593959  0.33562843  1.00186259  1
  Ni  Ni13  1  0.50137305  0.50256213  0.16859380  1
  Ni  Ni14  1  0.33493432  0.33545725  0.33657259  1
  Fe  Fe15  1  0.33852954  0.66787955  1.00102450  1
  Ni  Ni16  1  0.50252554  0.83490645  0.16965672  1
  Fe  Fe17  1  0.33703926  0.66814336  0.33626553  1
  Cr  Cr18  1  0.66894712  1.00181196  0.00285342  1
  Ni  Ni19  1  0.83719261  0.16866333  0.16968290  1
  Ni  Ni20  1  0.66884646  1.00077251  0.33615520  1
  Ni  Ni21  1  0.66787386  0.33738263  1.00222972  1
  Cr  Cr22  1  0.83477627  0.50129303  0.16890774  1
  Fe  Fe23  1  0.66886551  0.33425525  0.33649553  1
  Ni  Ni24  1  0.66706817  0.66830356  1.00129775  1
  Ni  Ni25  1  0.83479316  0.83713459  0.17095255  1
  Ni  Ni26  1  0.66905348  0.67110622  0.33663896  1
  Ni  Ni27  1  0.16941195  0.17089557  0.50251966  1
  Ni  Ni28  1  1.00208859  0.00338975  0.67002016  1
  Fe  Fe29  1  0.16884755  0.16914555  0.83615971  1
  Ni  Ni30  1  0.16821841  0.50099484  0.50140511  1
  Ni  Ni31  1  1.00161353  0.33588458  0.66914448  1
  Ni  Ni32  1  0.16955162  0.50205113  0.83584594  1
  Cr  Cr33  1  0.16931949  0.83604469  0.50214715  1
  Fe  Fe34  1  1.00199830  0.66798605  0.66951160  1
  Fe  Fe35  1  0.17006897  0.83669851  0.83488834  1
  Ni  Ni36  1  0.50212849  0.16857324  0.50226489  1
  Ni  Ni37  1  0.33652743  1.00210797  0.66987287  1
  Ni  Ni38  1  0.50163049  0.16964309  0.83548837  1
  Fe  Fe39  1  0.50281599  0.50225738  0.50245413  1
  Fe  Fe40  1  0.33529641  0.33547955  0.66905850  1
  Ni  Ni41  1  0.50215180  0.50266704  0.83625769  1
  Ni  Ni42  1  0.50344646  0.83648330  0.50200648  1
  Ni  Ni43  1  0.33704493  0.66917793  0.66994107  1
  Ni  Ni44  1  0.50117481  0.83510366  0.83575204  1
  Ni  Ni45  1  0.83587221  0.16981536  0.50198349  1
  Fe  Fe46  1  0.66908240  0.00291311  0.66879567  1
  Ni  Ni47  1  0.83680041  0.17014689  0.83575133  1
  Ni  Ni48  1  0.83683478  0.50231008  0.50289227  1
  Ni  Ni49  1  0.66983562  0.33640576  0.66905569  1
  Ni  Ni50  1  0.83571306  0.50159390  0.83535895  1
  Ni  Ni51  1  0.83451002  0.83528708  0.50179059  1
  Fe  Fe52  1  0.66931582  0.66949316  0.66943314  1
  Ni  Ni53  1  0.83618569  0.83567578  0.83467150  1
" 