8187,Ni71Fe20Cr7_0,-238.667684840319, 199.776813075684,Ni71Fe20Cr7,"# generated using pymatgen
 data_Cr5Fe11Ni38
_symmetry_space_group_name_H-M   'P 1'
_cell_length_a   7.43255436
_cell_length_b   7.43255436
_cell_length_c   10.51121918
_cell_angle_alpha   90.00000000
_cell_angle_beta   90.00000000
_cell_angle_gamma   90.00000000
_symmetry_Int_Tables_number   1
_chemical_formula_structural   Cr5Fe11Ni38
_chemical_formula_sum   'Cr5 Fe11 Ni38'
_cell_volume   580.66985529
_cell_formula_units_Z   1
loop_
 _symmetry_equiv_pos_site_id
 _symmetry_equiv_pos_as_xyz
  1  'x, y, z'
loop_
 _atom_site_type_symbol
 _atom_site_label
 _atom_site_symmetry_multiplicity
 _atom_site_fract_x
 _atom_site_fract_y
 _atom_site_fract_z
 _atom_site_occupancy
  Ni  Ni0  1  1.00228446  1.00187107  1.00223939  1
  Fe  Fe1  1  0.16787842  0.17010036  0.16780390  1
  Fe  Fe2  1  1.00092875  0.00306802  0.33698504  1
  Ni  Ni3  1  0.00360816  0.33653827  0.00258051  1
  Ni  Ni4  1  0.16654493  0.50172167  0.16809825  1
  Ni  Ni5  1  1.00135540  0.33688099  0.33589745  1
  Ni  Ni6  1  1.00047432  0.66855289  1.00128494  1
  Cr  Cr7  1  0.16754935  0.83499264  0.16834883  1
  Ni  Ni8  1  1.00009255  0.66830688  0.33686321  1
  Ni  Ni9  1  0.33550105  0.00478319  1.00011061  1
  Ni  Ni10  1  0.50393507  0.16844874  0.16751316  1
  Ni  Ni11  1  0.33550418  0.00291390  0.33803667  1
  Ni  Ni12  1  0.33466510  0.33411734  1.00215404  1
  Cr  Cr13  1  0.50299009  0.50116117  0.16787298  1
  Cr  Cr14  1  0.33462704  0.33346090  0.33563399  1
  Fe  Fe15  1  0.33473070  0.66803206  0.99938758  1
  Cr  Cr16  1  0.50346519  0.83708821  0.16928014  1
  Fe  Fe17  1  0.33442922  0.66878383  0.33836190  1
  Ni  Ni18  1  0.66917464  1.00164875  1.00180847  1
  Ni  Ni19  1  0.83496412  0.16933832  0.16934602  1
  Fe  Fe20  1  0.67031119  0.00360095  0.33627673  1
  Ni  Ni21  1  0.66868655  0.33592389  1.00155045  1
  Ni  Ni22  1  0.83742611  0.50127161  0.16915372  1
  Ni  Ni23  1  0.67088436  0.33621896  0.33691379  1
  Ni  Ni24  1  0.67159973  0.66938761  1.00088940  1
  Ni  Ni25  1  0.83604640  0.83635902  0.16853479  1
  Ni  Ni26  1  0.67202923  0.66909441  0.33727762  1
  Ni  Ni27  1  0.16866885  0.16758157  0.50222855  1
  Ni  Ni28  1  0.00281024  1.00158520  0.66854204  1
  Ni  Ni29  1  0.16861129  0.16849389  0.83645005  1
  Ni  Ni30  1  0.16912775  0.50381946  0.50294548  1
  Fe  Fe31  1  1.00174486  0.33475346  0.66890917  1
  Ni  Ni32  1  0.16992819  0.50255157  0.83591654  1
  Ni  Ni33  1  0.16911098  0.83555974  0.50232099  1
  Fe  Fe34  1  0.00333036  0.66912604  0.66888053  1
  Ni  Ni35  1  0.16955042  0.83591423  0.83580322  1
  Ni  Ni36  1  0.50352427  0.16891995  0.50334678  1
  Fe  Fe37  1  0.33580923  0.00306931  0.66879712  1
  Fe  Fe38  1  0.50247927  0.16924249  0.83591107  1
  Ni  Ni39  1  0.50221831  0.50163615  0.50175433  1
  Ni  Ni40  1  0.33558014  0.33550158  0.66860727  1
  Ni  Ni41  1  0.50142077  0.50197513  0.83710561  1
  Fe  Fe42  1  0.50173345  0.83656359  0.50150453  1
  Fe  Fe43  1  0.33456796  0.66863919  0.66921534  1
  Ni  Ni44  1  0.50125897  0.83595304  0.83681920  1
  Ni  Ni45  1  0.83476469  0.16890170  0.50217156  1
  Ni  Ni46  1  0.66970330  0.00323735  0.66854193  1
  Ni  Ni47  1  0.83557185  0.16865591  0.83544616  1
  Ni  Ni48  1  0.83561046  0.50119539  0.50077906  1
  Ni  Ni49  1  0.66753684  0.33469357  0.66849560  1
  Ni  Ni50  1  0.83561059  0.50103265  0.83703305  1
  Ni  Ni51  1  0.83695507  0.83686821  0.50089280  1
  Cr  Cr52  1  0.67023454  0.66889725  0.66914565  1
  Ni  Ni53  1  0.83615351  0.83726924  0.83753529  1
" 