804,Ni71Fe2Cr26_13,-228.793211396597, 150.919253644205,Ni71Fe2Cr26,"# generated using pymatgen
 data_Cr15FeNi38
_symmetry_space_group_name_H-M   'P 1'
_cell_length_a   7.48160431
_cell_length_b   7.48160431
_cell_length_c   10.58058628
_cell_angle_alpha   90.00000000
_cell_angle_beta   90.00000000
_cell_angle_gamma   90.00000000
_symmetry_Int_Tables_number   1
_chemical_formula_structural   Cr15FeNi38
_chemical_formula_sum   'Cr15 Fe1 Ni38'
_cell_volume   592.24200001
_cell_formula_units_Z   1
loop_
 _symmetry_equiv_pos_site_id
 _symmetry_equiv_pos_as_xyz
  1  'x, y, z'
loop_
 _atom_site_type_symbol
 _atom_site_label
 _atom_site_symmetry_multiplicity
 _atom_site_fract_x
 _atom_site_fract_y
 _atom_site_fract_z
 _atom_site_occupancy
  Ni  Ni0  1  0.99411712  -0.00064836  -0.00027219  1
  Cr  Cr1  1  0.16407409  0.16592423  0.16552156  1
  Ni  Ni2  1  0.99260133  0.99859728  0.33348893  1
  Ni  Ni3  1  0.99445545  0.33434183  0.99898694  1
  Ni  Ni4  1  0.16431399  0.49906884  0.16570568  1
  Cr  Cr5  1  0.99647387  0.33215552  0.33146392  1
  Ni  Ni6  1  0.99659715  0.66329026  -0.00087813  1
  Cr  Cr7  1  0.16323333  0.83237173  0.16560244  1
  Cr  Cr8  1  0.99752062  0.66620698  0.33333281  1
  Cr  Cr9  1  0.33790332  0.99826448  0.99674419  1
  Ni  Ni10  1  0.50390041  0.16546985  0.16656931  1
  Cr  Cr11  1  0.33682781  0.99808255  0.33318163  1
  Cr  Cr12  1  0.33269291  0.33203963  0.99846640  1
  Cr  Cr13  1  0.50150738  0.49981576  0.16852947  1
  Ni  Ni14  1  0.33448439  0.33465973  0.33352815  1
  Cr  Cr15  1  0.33179346  0.66688089  0.99795207  1
  Ni  Ni16  1  0.50419079  0.83265764  0.16599315  1
  Ni  Ni17  1  0.33438723  0.66394653  0.33412986  1
  Ni  Ni18  1  0.66700540  0.00029935  -0.00002253  1
  Ni  Ni19  1  0.82962462  0.16426157  0.16485325  1
  Ni  Ni20  1  0.66733424  0.99873706  0.33214080  1
  Ni  Ni21  1  0.67019865  0.32981953  -0.00030354  1
  Ni  Ni22  1  0.83124000  0.49982643  0.16288035  1
  Fe  Fe23  1  0.66552058  0.33018602  0.33300955  1
  Ni  Ni24  1  0.66900513  0.66699318  -0.00000238  1
  Ni  Ni25  1  0.82934517  0.83294706  0.16534419  1
  Ni  Ni26  1  0.66462397  0.66903984  0.33241058  1
  Cr  Cr27  1  0.16496030  0.16492433  0.50080339  1
  Ni  Ni28  1  0.99674474  0.99824897  0.66379074  1
  Cr  Cr29  1  0.16291132  0.16423168  0.83019254  1
  Ni  Ni30  1  0.16823207  0.49930752  0.49989238  1
  Ni  Ni31  1  0.99715617  0.33347789  0.66703280  1
  Ni  Ni32  1  0.16140444  0.49936365  0.83151899  1
  Ni  Ni33  1  0.16469409  0.83222808  0.50015330  1
  Ni  Ni34  1  0.99885165  0.66517438  0.66567955  1
  Ni  Ni35  1  0.16339902  0.83234992  0.83128833  1
  Ni  Ni36  1  0.50124693  0.16673901  0.49988638  1
  Ni  Ni37  1  0.33539893  0.99880676  0.66609961  1
  Ni  Ni38  1  0.50301008  0.16444519  0.83039339  1
  Ni  Ni39  1  0.49872707  0.49840026  0.49782521  1
  Ni  Ni40  1  0.33351940  0.33181301  0.66449421  1
  Cr  Cr41  1  0.50495083  0.49828295  0.83065828  1
  Ni  Ni42  1  0.50144616  0.83194816  0.49907193  1
  Cr  Cr43  1  0.33191957  0.66713454  0.66512669  1
  Ni  Ni44  1  0.50135429  0.83472597  0.83176488  1
  Ni  Ni45  1  0.82963670  0.16263738  0.50009417  1
  Ni  Ni46  1  0.66474482  0.00024590  0.66481151  1
  Ni  Ni47  1  0.83060234  0.16687244  0.83228720  1
  Cr  Cr48  1  0.82839007  0.49980749  0.50227991  1
  Ni  Ni49  1  0.66646275  0.32970008  0.66508801  1
  Ni  Ni50  1  0.83340734  0.49768248  0.83268808  1
  Ni  Ni51  1  0.83083554  0.83467497  0.49952441  1
  Ni  Ni52  1  0.66661120  0.66713820  0.66471896  1
  Cr  Cr53  1  0.83187680  0.83187043  0.83194569  1
" 