8016,Ni71Fe2Cr26_18,-228.681236473944, 150.932953200144,Ni71Fe2Cr26,"# generated using pymatgen
 data_Cr15FeNi38
_symmetry_space_group_name_H-M   'P 1'
_cell_length_a   7.47709016
_cell_length_b   7.47709016
_cell_length_c   10.57420231
_cell_angle_alpha   90.00000000
_cell_angle_beta   90.00000000
_cell_angle_gamma   90.00000000
_symmetry_Int_Tables_number   1
_chemical_formula_structural   Cr15FeNi38
_chemical_formula_sum   'Cr15 Fe1 Ni38'
_cell_volume   591.17063105
_cell_formula_units_Z   1
loop_
 _symmetry_equiv_pos_site_id
 _symmetry_equiv_pos_as_xyz
  1  'x, y, z'
loop_
 _atom_site_type_symbol
 _atom_site_label
 _atom_site_symmetry_multiplicity
 _atom_site_fract_x
 _atom_site_fract_y
 _atom_site_fract_z
 _atom_site_occupancy
  Ni  Ni0  1  0.00127437  0.99775726  -0.00028554  1
  Cr  Cr1  1  0.16495858  0.16488850  0.16552242  1
  Ni  Ni2  1  0.99882221  0.99814780  0.33198592  1
  Ni  Ni3  1  0.00055000  0.33154429  0.99842845  1
  Cr  Cr4  1  0.16580230  0.49939297  0.16553249  1
  Ni  Ni5  1  0.99922336  0.33210582  0.33436799  1
  Ni  Ni6  1  0.99704596  0.66871201  0.99836205  1
  Ni  Ni7  1  0.16232552  0.83457565  0.16559254  1
  Ni  Ni8  1  0.99758107  0.66775105  0.33437519  1
  Ni  Ni9  1  0.32958698  0.00040061  0.99595442  1
  Cr  Cr10  1  0.49904067  0.16710943  0.16803030  1
  Ni  Ni11  1  0.33104092  -0.00034295  0.33466020  1
  Ni  Ni12  1  0.33269390  0.33135102  0.99795428  1
  Ni  Ni13  1  0.50051042  0.49829598  0.16665442  1
  Ni  Ni14  1  0.33310183  0.33299081  0.33376801  1
  Cr  Cr15  1  0.33383619  0.66635683  0.99871881  1
  Cr  Cr16  1  0.50014819  0.83215649  0.16715401  1
  Cr  Cr17  1  0.33248504  0.66540702  0.33486054  1
  Cr  Cr18  1  0.66785806  0.99732420  -0.00066646  1
  Ni  Ni19  1  0.83431191  0.16425938  0.16798561  1
  Ni  Ni20  1  0.66810569  0.99802658  0.33220717  1
  Cr  Cr21  1  0.66513148  0.33457165  0.99837522  1
  Cr  Cr22  1  0.83246130  0.50047651  0.16618512  1
  Ni  Ni23  1  0.66571088  0.33420266  0.33266603  1
  Ni  Ni24  1  0.66744390  0.66555236  0.99753658  1
  Ni  Ni25  1  0.83504997  0.83337199  0.16666270  1
  Ni  Ni26  1  0.66719243  0.66574756  0.33398707  1
  Ni  Ni27  1  0.16555957  0.16548803  0.49850236  1
  Ni  Ni28  1  0.00036112  0.99819678  0.66627284  1
  Ni  Ni29  1  0.16758299  0.16350433  0.83394170  1
  Ni  Ni30  1  0.16308976  0.49847294  0.49788607  1
  Ni  Ni31  1  0.99877988  0.33321390  0.66517071  1
  Cr  Cr32  1  0.16254353  0.49870860  0.83448565  1
  Ni  Ni33  1  0.16454885  0.83405101  0.49908070  1
  Ni  Ni34  1  0.99589144  0.66660210  0.66522085  1
  Ni  Ni35  1  0.16474492  0.83642532  0.83330473  1
  Cr  Cr36  1  0.49854094  0.16397256  0.49823925  1
  Ni  Ni37  1  0.33223935  0.99899808  0.66737909  1
  Ni  Ni38  1  0.49622454  0.16469140  0.83222021  1
  Ni  Ni39  1  0.50161610  0.50042956  0.49759573  1
  Cr  Cr40  1  0.33197170  0.33159482  0.66601476  1
  Ni  Ni41  1  0.50288446  0.49932264  0.83367493  1
  Ni  Ni42  1  0.50074604  0.83262817  0.49942093  1
  Cr  Cr43  1  0.33354950  0.66791268  0.66441845  1
  Ni  Ni44  1  0.50021609  0.83396496  0.83173760  1
  Cr  Cr45  1  0.83392129  0.16596491  0.49890642  1
  Ni  Ni46  1  0.66537831  0.99600198  0.66695450  1
  Cr  Cr47  1  0.83448495  0.16627290  0.83082502  1
  Ni  Ni48  1  0.83330056  0.50140567  0.49968749  1
  Fe  Fe49  1  0.66719096  0.33502960  0.66656452  1
  Ni  Ni50  1  0.83169877  0.50211266  0.83182934  1
  Ni  Ni51  1  0.83264876  0.83027139  0.49896115  1
  Ni  Ni52  1  0.66773503  0.66661125  0.66646633  1
  Ni  Ni53  1  0.83299350  0.82975433  0.83239917  1
" 