3548,Ni71Fe2Cr26_9,-228.625273384307, 150.247244873545,Ni71Fe2Cr26,"# generated using pymatgen
 data_Cr15FeNi38
_symmetry_space_group_name_H-M   'P 1'
_cell_length_a   7.48111250
_cell_length_b   7.48111250
_cell_length_c   10.57989076
_cell_angle_alpha   90.00000000
_cell_angle_beta   90.00000000
_cell_angle_gamma   90.00000000
_symmetry_Int_Tables_number   1
_chemical_formula_structural   Cr15FeNi38
_chemical_formula_sum   'Cr15 Fe1 Ni38'
_cell_volume   592.12521431
_cell_formula_units_Z   1
loop_
 _symmetry_equiv_pos_site_id
 _symmetry_equiv_pos_as_xyz
  1  'x, y, z'
loop_
 _atom_site_type_symbol
 _atom_site_label
 _atom_site_symmetry_multiplicity
 _atom_site_fract_x
 _atom_site_fract_y
 _atom_site_fract_z
 _atom_site_occupancy
  Ni  Ni0  1  0.99646131  0.99876157  0.00037411  1
  Ni  Ni1  1  0.16389980  0.16542796  0.16712661  1
  Ni  Ni2  1  0.99847541  0.00107180  0.33205396  1
  Ni  Ni3  1  0.99689646  0.33195805  0.99892619  1
  Cr  Cr4  1  0.16279060  0.49632657  0.16407626  1
  Ni  Ni5  1  0.99683498  0.32891565  0.33262319  1
  Ni  Ni6  1  0.99670199  0.66657649  0.99813968  1
  Ni  Ni7  1  0.16369077  0.83541184  0.16569557  1
  Cr  Cr8  1  0.99660599  0.66772374  0.33229289  1
  Cr  Cr9  1  0.33338583  0.99874990  0.99847016  1
  Cr  Cr10  1  0.50099911  0.16550863  0.16616615  1
  Ni  Ni11  1  0.33103459  0.99884442  0.33266649  1
  Ni  Ni12  1  0.33362031  0.33308020  0.99844296  1
  Fe  Fe13  1  0.50216614  0.49747648  0.16463760  1
  Ni  Ni14  1  0.33278895  0.33064933  0.33173072  1
  Cr  Cr15  1  0.33454662  0.66584693  -0.00029445  1
  Ni  Ni16  1  0.50197755  0.83437618  0.16595417  1
  Cr  Cr17  1  0.33501280  0.66724418  0.33103251  1
  Ni  Ni18  1  0.66829448  0.99847154  0.99823426  1
  Ni  Ni19  1  0.83306281  0.16603768  0.16567416  1
  Ni  Ni20  1  0.66771118  0.99899517  0.33202326  1
  Ni  Ni21  1  0.66702533  0.33299205  0.99776380  1
  Ni  Ni22  1  0.83145388  0.49742822  0.16399350  1
  Ni  Ni23  1  0.66787091  0.33227537  0.33274194  1
  Ni  Ni24  1  0.66737850  0.66570568  -0.00057354  1
  Ni  Ni25  1  0.83163444  0.83365042  0.16369088  1
  Cr  Cr26  1  0.66586363  0.66557559  0.33161325  1
  Ni  Ni27  1  0.16552298  0.16308117  0.49531680  1
  Cr  Cr28  1  0.99868519  -0.00027421  0.66477819  1
  Cr  Cr29  1  0.16529858  0.16551212  0.83449501  1
  Cr  Cr30  1  0.16622219  0.49836727  0.49903003  1
  Cr  Cr31  1  0.99386408  0.33071412  0.66534197  1
  Ni  Ni32  1  0.16527852  0.50125385  0.83442859  1
  Ni  Ni33  1  0.16757903  0.83549995  0.49904459  1
  Cr  Cr34  1  0.99692161  0.66658798  0.66631682  1
  Ni  Ni35  1  0.16548876  0.83012890  0.83236300  1
  Cr  Cr36  1  0.49949128  0.16479750  0.49830804  1
  Ni  Ni37  1  0.33262868  0.99558964  0.66569099  1
  Ni  Ni38  1  0.50224819  0.16622586  0.83329251  1
  Ni  Ni39  1  0.50179621  0.49953761  0.49905761  1
  Cr  Cr40  1  0.33484858  0.33235214  0.66810673  1
  Ni  Ni41  1  0.50153716  0.49969189  0.83322801  1
  Ni  Ni42  1  0.49900645  0.83188766  0.49990068  1
  Ni  Ni43  1  0.33542053  0.66769472  0.66661145  1
  Ni  Ni44  1  0.50089059  0.83130158  0.83119321  1
  Ni  Ni45  1  0.83192922  0.16651031  0.49572270  1
  Cr  Cr46  1  0.66683964  -0.00000627  0.66762535  1
  Ni  Ni47  1  0.82901451  0.16688797  0.83583081  1
  Ni  Ni48  1  0.82849493  0.49755198  0.49912321  1
  Ni  Ni49  1  0.66621244  0.33515413  0.66655997  1
  Ni  Ni50  1  0.83047073  0.49970310  0.83374346  1
  Ni  Ni51  1  0.83067032  0.83324701  0.49793513  1
  Ni  Ni52  1  0.66382494  0.66433672  0.66539903  1
  Ni  Ni53  1  0.83086886  0.83082225  0.83551836  1
" 