2062,Ni71Fe2Cr26_14,-228.72333617747, 151.597097501711,Ni71Fe2Cr26,"# generated using pymatgen
 data_Cr15FeNi38
_symmetry_space_group_name_H-M   'P 1'
_cell_length_a   7.47804641
_cell_length_b   7.47804641
_cell_length_c   10.57555465
_cell_angle_alpha   90.00000000
_cell_angle_beta   90.00000000
_cell_angle_gamma   90.00000000
_symmetry_Int_Tables_number   1
_chemical_formula_structural   Cr15FeNi38
_chemical_formula_sum   'Cr15 Fe1 Ni38'
_cell_volume   591.39747505
_cell_formula_units_Z   1
loop_
 _symmetry_equiv_pos_site_id
 _symmetry_equiv_pos_as_xyz
  1  'x, y, z'
loop_
 _atom_site_type_symbol
 _atom_site_label
 _atom_site_symmetry_multiplicity
 _atom_site_fract_x
 _atom_site_fract_y
 _atom_site_fract_z
 _atom_site_occupancy
  Cr  Cr0  1  0.00110470  -0.00041090  0.00054637  1
  Ni  Ni1  1  0.16738017  0.16725218  0.16575592  1
  Cr  Cr2  1  -0.00045049  -0.00049671  0.33316241  1
  Ni  Ni3  1  -0.00018891  0.33525451  -0.00030612  1
  Ni  Ni4  1  0.16277016  0.49868719  0.16486884  1
  Ni  Ni5  1  0.99918196  0.33316878  0.33176930  1
  Ni  Ni6  1  0.00053385  0.66312722  -0.00052306  1
  Ni  Ni7  1  0.16677185  0.83185470  0.16481114  1
  Ni  Ni8  1  0.99900542  0.66476431  0.33237359  1
  Ni  Ni9  1  0.33354177  -0.00025338  -0.00037291  1
  Ni  Ni10  1  0.49950614  0.16335987  0.16558428  1
  Ni  Ni11  1  0.33330653  0.00109100  0.33176780  1
  Ni  Ni12  1  0.33120156  0.33096846  0.99856609  1
  Cr  Cr13  1  0.50011937  0.49907305  0.16551602  1
  Fe  Fe14  1  0.33211707  0.33037799  0.33376621  1
  Ni  Ni15  1  0.33014458  0.66707827  -0.00050696  1
  Ni  Ni16  1  0.50044910  0.83541133  0.16464142  1
  Cr  Cr17  1  0.33129936  0.66658482  0.33271599  1
  Ni  Ni18  1  0.66282693  0.00047116  0.00142320  1
  Ni  Ni19  1  0.83090794  0.16736121  0.16600287  1
  Ni  Ni20  1  0.66490412  0.00091204  0.33237225  1
  Ni  Ni21  1  0.66678070  0.33185755  -0.00053419  1
  Ni  Ni22  1  0.83446325  0.49962908  0.16532179  1
  Ni  Ni23  1  0.66658977  0.33083241  0.33305116  1
  Ni  Ni24  1  0.66711588  0.66546709  0.00053814  1
  Ni  Ni25  1  0.83057217  0.83080305  0.16624441  1
  Ni  Ni26  1  0.66782086  0.66604860  0.33236970  1
  Ni  Ni27  1  0.16781922  0.16769132  0.49831693  1
  Cr  Cr28  1  -0.00063381  0.99784916  0.66408225  1
  Ni  Ni29  1  0.16951549  0.16801288  0.83371955  1
  Ni  Ni30  1  0.16679251  0.49824994  0.49920956  1
  Cr  Cr31  1  0.00162970  0.33348005  0.66675295  1
  Ni  Ni32  1  0.16413329  0.49895656  0.83371306  1
  Ni  Ni33  1  0.16329890  0.83185026  0.49919840  1
  Ni  Ni34  1  -0.00065158  0.66640352  0.66594234  1
  Ni  Ni35  1  0.16592661  0.83082438  0.83378485  1
  Ni  Ni36  1  0.49907048  0.16738450  0.49849362  1
  Cr  Cr37  1  0.33201434  0.00180880  0.66658001  1
  Ni  Ni38  1  0.49717642  0.16590719  0.83371393  1
  Ni  Ni39  1  0.49832788  0.49678401  0.49937570  1
  Ni  Ni40  1  0.33224925  0.33201679  0.66441939  1
  Cr  Cr41  1  0.49930706  0.49798202  0.83333825  1
  Cr  Cr42  1  0.50221025  0.83321375  0.49892734  1
  Cr  Cr43  1  0.33047643  0.66363727  0.66527574  1
  Cr  Cr44  1  0.49969640  0.83431156  0.83440246  1
  Ni  Ni45  1  0.83090330  0.16389212  0.49800853  1
  Ni  Ni46  1  0.66610657  -0.00071389  0.66399717  1
  Cr  Cr47  1  0.83127308  0.16721211  0.83378897  1
  Cr  Cr48  1  0.83275712  0.50139019  0.49809452  1
  Cr  Cr49  1  0.66358769  0.33194273  0.66570298  1
  Ni  Ni50  1  0.83467830  0.50107530  0.83431853  1
  Ni  Ni51  1  0.83236991  0.83259687  0.50027760  1
  Ni  Ni52  1  0.66830651  0.66665235  0.66488614  1
  Cr  Cr53  1  0.83217096  0.82960147  0.83104164  1
" 