1046,Ni71Fe9Cr19_6,-232.832919949182, 173.276132138916,Ni71Fe9Cr19,"# generated using pymatgen
 data_Cr11Fe5Ni38
_symmetry_space_group_name_H-M   'P 1'
_cell_length_a   7.46234115
_cell_length_b   7.46234115
_cell_length_c   10.55334406
_cell_angle_alpha   90.00000000
_cell_angle_beta   90.00000000
_cell_angle_gamma   90.00000000
_symmetry_Int_Tables_number   1
_chemical_formula_structural   Cr11Fe5Ni38
_chemical_formula_sum   'Cr11 Fe5 Ni38'
_cell_volume   587.67916746
_cell_formula_units_Z   1
loop_
 _symmetry_equiv_pos_site_id
 _symmetry_equiv_pos_as_xyz
  1  'x, y, z'
loop_
 _atom_site_type_symbol
 _atom_site_label
 _atom_site_symmetry_multiplicity
 _atom_site_fract_x
 _atom_site_fract_y
 _atom_site_fract_z
 _atom_site_occupancy
  Ni  Ni0  1  0.00077373  0.00197553  0.00090980  1
  Ni  Ni1  1  0.16570536  0.16773264  0.16702292  1
  Ni  Ni2  1  0.00190944  0.00042052  0.33346459  1
  Ni  Ni3  1  0.99691924  0.33093006  0.00265135  1
  Ni  Ni4  1  0.16633723  0.49801969  0.16928480  1
  Ni  Ni5  1  0.00086910  0.33227521  0.33244716  1
  Cr  Cr6  1  0.99798577  0.66803231  0.00114207  1
  Ni  Ni7  1  0.16465931  0.83519457  0.16875608  1
  Ni  Ni8  1  0.00098173  0.66825037  0.33256230  1
  Ni  Ni9  1  0.33234591  0.00096815  0.99919584  1
  Cr  Cr10  1  0.49891071  0.16735654  0.16628864  1
  Ni  Ni11  1  0.33113465  1.00025243  0.33569274  1
  Fe  Fe12  1  0.33441442  0.33290603  0.00121272  1
  Ni  Ni13  1  0.49950842  0.49923364  0.16576423  1
  Ni  Ni14  1  0.33177988  0.33198090  0.33181300  1
  Cr  Cr15  1  0.33556058  0.66838056  1.00012845  1
  Cr  Cr16  1  0.50133909  0.83385502  0.16764375  1
  Ni  Ni17  1  0.33175988  0.66872331  0.33269282  1
  Fe  Fe18  1  0.66899486  1.00019733  0.99765710  1
  Fe  Fe19  1  0.83721098  0.16695388  0.16598748  1
  Fe  Fe20  1  0.66846071  1.00011412  0.33645986  1
  Ni  Ni21  1  0.66811811  0.33519696  0.99868178  1
  Ni  Ni22  1  0.83508486  0.50033327  0.16609980  1
  Cr  Cr23  1  0.66881908  0.33335211  0.33475149  1
  Ni  Ni24  1  0.66709924  0.66453247  0.99950857  1
  Ni  Ni25  1  0.83563636  0.83411211  0.16695420  1
  Cr  Cr26  1  0.66839611  0.66701724  0.33309309  1
  Ni  Ni27  1  0.16627940  0.16640346  0.49907000  1
  Ni  Ni28  1  0.99788926  0.99990566  0.66657015  1
  Cr  Cr29  1  0.16590737  0.16659690  0.83453496  1
  Cr  Cr30  1  0.16529129  0.50015181  0.50032130  1
  Ni  Ni31  1  0.99749482  0.33291992  0.66585426  1
  Cr  Cr32  1  0.16656092  0.50011794  0.83126253  1
  Ni  Ni33  1  0.16597563  0.83469736  0.49925599  1
  Ni  Ni34  1  0.99792419  0.66812945  0.66701057  1
  Ni  Ni35  1  0.16614356  0.83448683  0.83292558  1
  Ni  Ni36  1  0.50016538  0.16487360  0.50030001  1
  Cr  Cr37  1  0.33391385  0.99950272  0.66610175  1
  Ni  Ni38  1  0.50269508  0.16762065  0.83442186  1
  Cr  Cr39  1  0.49942724  0.50054694  0.50175471  1
  Ni  Ni40  1  0.33542769  0.33351259  0.66746887  1
  Ni  Ni41  1  0.50284774  0.49979979  0.83338731  1
  Ni  Ni42  1  0.50075077  0.83590971  0.49992867  1
  Ni  Ni43  1  0.33527837  0.66780692  0.66786812  1
  Ni  Ni44  1  0.50244414  0.83351855  0.83380798  1
  Ni  Ni45  1  0.83453934  0.16557049  0.50069749  1
  Ni  Ni46  1  0.66830018  1.00003209  0.66683216  1
  Ni  Ni47  1  0.83190444  0.16662004  0.83427739  1
  Ni  Ni48  1  0.83569641  0.50044367  0.50217880  1
  Fe  Fe49  1  0.66818914  0.33296095  0.66822995  1
  Ni  Ni50  1  0.83093267  0.49996479  0.83267140  1
  Ni  Ni51  1  0.83422514  0.83490317  0.50107185  1
  Ni  Ni52  1  0.66774037  0.66740543  0.66844813  1
  Ni  Ni53  1  0.83236962  0.83433039  0.83291033  1
" 