6435,Ni71Fe20Cr7_7,-238.990580645048, 201.2317765691,Ni71Fe20Cr7,"# generated using pymatgen
 data_Cr5Fe11Ni38
_symmetry_space_group_name_H-M   'P 1'
_cell_length_a   7.43324107
_cell_length_b   7.43324107
_cell_length_c   10.51219033
_cell_angle_alpha   90.00000000
_cell_angle_beta   90.00000000
_cell_angle_gamma   90.00000000
_symmetry_Int_Tables_number   1
_chemical_formula_structural   Cr5Fe11Ni38
_chemical_formula_sum   'Cr5 Fe11 Ni38'
_cell_volume   580.83081762
_cell_formula_units_Z   1
loop_
 _symmetry_equiv_pos_site_id
 _symmetry_equiv_pos_as_xyz
  1  'x, y, z'
loop_
 _atom_site_type_symbol
 _atom_site_label
 _atom_site_symmetry_multiplicity
 _atom_site_fract_x
 _atom_site_fract_y
 _atom_site_fract_z
 _atom_site_occupancy
  Ni  Ni0  1  0.00259200  0.00257622  1.00222789  1
  Ni  Ni1  1  0.16919272  0.16920975  0.16859829  1
  Ni  Ni2  1  0.00428340  0.00371489  0.33465290  1
  Fe  Fe3  1  0.00418572  0.33370156  1.00159183  1
  Ni  Ni4  1  0.16998495  0.50111418  0.17057780  1
  Ni  Ni5  1  1.00201687  0.33552815  0.33549521  1
  Ni  Ni6  1  0.00288356  0.66907653  1.00092289  1
  Ni  Ni7  1  0.16809244  0.83649593  0.16968554  1
  Ni  Ni8  1  0.00480950  0.66757998  0.33589338  1
  Ni  Ni9  1  0.33514913  0.00506780  1.00168255  1
  Ni  Ni10  1  0.50184657  0.17088835  0.16921668  1
  Ni  Ni11  1  0.33502996  0.00232833  0.33520962  1
  Ni  Ni12  1  0.33622839  0.33432525  0.00290135  1
  Ni  Ni13  1  0.50101265  0.49939401  0.16962358  1
  Fe  Fe14  1  0.33593107  0.33551224  0.33404843  1
  Cr  Cr15  1  0.33380260  0.66840042  0.00248694  1
  Cr  Cr16  1  0.50176823  0.83662686  0.17020319  1
  Fe  Fe17  1  0.33496048  0.66875083  0.33664317  1
  Ni  Ni18  1  0.66908139  0.00479278  1.00116091  1
  Ni  Ni19  1  0.83578402  0.16899776  0.16934217  1
  Ni  Ni20  1  0.66750862  0.00512085  0.33611314  1
  Fe  Fe21  1  0.66767948  0.33338175  1.00197116  1
  Cr  Cr22  1  0.83573222  0.50108371  0.16909039  1
  Ni  Ni23  1  0.66860178  0.33529428  0.33555476  1
  Fe  Fe24  1  0.66934938  0.66945143  0.99997599  1
  Cr  Cr25  1  0.83725828  0.83753768  0.16982604  1
  Ni  Ni26  1  0.66721736  0.66640691  0.33656296  1
  Fe  Fe27  1  0.16830236  0.16824428  0.50222868  1
  Ni  Ni28  1  0.00352342  0.00333111  0.66994120  1
  Ni  Ni29  1  0.16906237  0.16945338  0.83557819  1
  Fe  Fe30  1  0.16793783  0.50319152  0.50256847  1
  Ni  Ni31  1  1.00130827  0.33602684  0.66926103  1
  Ni  Ni32  1  0.16801371  0.50156475  0.83434061  1
  Ni  Ni33  1  0.17095381  0.83562958  0.50225040  1
  Ni  Ni34  1  0.00378462  0.66746459  0.67000477  1
  Ni  Ni35  1  0.16800932  0.83580270  0.83488762  1
  Fe  Fe36  1  0.50338256  0.16824326  0.50220717  1
  Ni  Ni37  1  0.33584126  1.00113457  0.66992884  1
  Ni  Ni38  1  0.50236610  0.16842806  0.83545959  1
  Ni  Ni39  1  0.50289137  0.50275429  0.50218236  1
  Fe  Fe40  1  0.33561062  0.33579897  0.67010431  1
  Fe  Fe41  1  0.50249299  0.50153054  0.83451137  1
  Ni  Ni42  1  0.50031887  0.83481078  0.50236412  1
  Ni  Ni43  1  0.33556045  0.66967561  0.66861572  1
  Ni  Ni44  1  0.50359451  0.83665233  0.83417244  1
  Ni  Ni45  1  0.83577392  0.17123465  0.50187012  1
  Ni  Ni46  1  0.66745821  0.00361191  0.66954726  1
  Ni  Ni47  1  0.83539535  0.16842345  0.83560663  1
  Ni  Ni48  1  0.83495391  0.49994444  0.50253574  1
  Ni  Ni49  1  0.66966985  0.33574628  0.66889637  1
  Fe  Fe50  1  0.83640470  0.50268768  0.83453501  1
  Cr  Cr51  1  0.83550887  0.83598839  0.50201060  1
  Ni  Ni52  1  0.66747589  0.66746154  0.67041638  1
  Ni  Ni53  1  0.83521868  0.83560269  0.83551281  1
" 