580,Ni71Fe2Cr26_3,-228.664435568743, 148.694658901561,Ni71Fe2Cr26,"# generated using pymatgen
 data_Cr15FeNi38
_symmetry_space_group_name_H-M   'P 1'
_cell_length_a   7.48258086
_cell_length_b   7.48258086
_cell_length_c   10.58196734
_cell_angle_alpha   90.00000000
_cell_angle_beta   90.00000000
_cell_angle_gamma   90.00000000
_symmetry_Int_Tables_number   1
_chemical_formula_structural   Cr15FeNi38
_chemical_formula_sum   'Cr15 Fe1 Ni38'
_cell_volume   592.47394283
_cell_formula_units_Z   1
loop_
 _symmetry_equiv_pos_site_id
 _symmetry_equiv_pos_as_xyz
  1  'x, y, z'
loop_
 _atom_site_type_symbol
 _atom_site_label
 _atom_site_symmetry_multiplicity
 _atom_site_fract_x
 _atom_site_fract_y
 _atom_site_fract_z
 _atom_site_occupancy
  Ni  Ni0  1  -0.00007971  0.99704417  0.99649960  1
  Cr  Cr1  1  0.16433375  0.16494282  0.16481286  1
  Ni  Ni2  1  0.99652926  0.99721359  0.33099776  1
  Cr  Cr3  1  0.99550851  0.33310150  0.99678191  1
  Ni  Ni4  1  0.16516577  0.50222316  0.16867869  1
  Ni  Ni5  1  0.99612782  0.33612641  0.33425401  1
  Cr  Cr6  1  0.99653121  0.66753942  0.99864132  1
  Ni  Ni7  1  0.16437112  0.83072748  0.16536780  1
  Ni  Ni8  1  0.99820846  0.66385847  0.33038173  1
  Ni  Ni9  1  0.33101762  0.99789892  0.99791080  1
  Ni  Ni10  1  0.50186154  0.16726697  0.16531379  1
  Cr  Cr11  1  0.33580733  0.99839977  0.33218444  1
  Cr  Cr12  1  0.33652591  0.33146614  0.00018566  1
  Ni  Ni13  1  0.50165892  0.49954352  0.16522140  1
  Cr  Cr14  1  0.33486459  0.33466554  0.33217538  1
  Ni  Ni15  1  0.33260304  0.66570749  0.00040840  1
  Cr  Cr16  1  0.50088131  0.83032051  0.16590693  1
  Ni  Ni17  1  0.33269664  0.66385414  0.33300243  1
  Cr  Cr18  1  0.66723115  0.00078047  0.99786259  1
  Cr  Cr19  1  0.83138170  0.16719844  0.16946491  1
  Ni  Ni20  1  0.66685037  -0.00003762  0.33409917  1
  Ni  Ni21  1  0.66460820  0.33471946  0.99820045  1
  Ni  Ni22  1  0.82946029  0.50065889  0.16737188  1
  Ni  Ni23  1  0.66604612  0.33351900  0.33320907  1
  Ni  Ni24  1  0.66573570  0.66243195  0.99827629  1
  Ni  Ni25  1  0.83352501  0.83072051  0.16721567  1
  Ni  Ni26  1  0.66618510  0.66410381  0.33265819  1
  Cr  Cr27  1  0.16232914  0.16729527  0.50139910  1
  Ni  Ni28  1  0.99753147  0.00078466  0.66973741  1
  Ni  Ni29  1  0.16539996  0.16271835  0.83032388  1
  Ni  Ni30  1  0.16515087  0.49825955  0.49877754  1
  Ni  Ni31  1  0.99676225  0.33168234  0.66534938  1
  Cr  Cr32  1  0.16961124  0.49810245  0.82912129  1
  Cr  Cr33  1  0.16700493  0.83123252  0.49940560  1
  Cr  Cr34  1  0.99633406  0.66504253  0.66754761  1
  Ni  Ni35  1  0.16600630  0.83575434  0.83238541  1
  Ni  Ni36  1  0.50175699  0.16602153  0.50070308  1
  Ni  Ni37  1  0.33391505  0.00023559  0.66671005  1
  Ni  Ni38  1  0.49925480  0.16675972  0.83103530  1
  Ni  Ni39  1  0.50087754  0.49957036  0.50039844  1
  Ni  Ni40  1  0.33457808  0.33191960  0.66498638  1
  Ni  Ni41  1  0.50262998  0.49742314  0.83160498  1
  Ni  Ni42  1  0.50097707  0.83140006  0.50013505  1
  Ni  Ni43  1  0.33466062  0.66437697  0.66327465  1
  Cr  Cr44  1  0.49835357  0.82857076  0.83007422  1
  Fe  Fe45  1  0.82996713  0.16759122  0.49943822  1
  Ni  Ni46  1  0.66513112  0.00057231  0.66478244  1
  Ni  Ni47  1  0.83201803  0.16608227  0.82906460  1
  Ni  Ni48  1  0.83056549  0.49697560  0.49820754  1
  Ni  Ni49  1  0.66487754  0.33232739  0.66600422  1
  Ni  Ni50  1  0.82729018  0.49760165  0.83116872  1
  Cr  Cr51  1  0.82952833  0.83246669  0.49778608  1
  Ni  Ni52  1  0.66418673  0.66394094  0.66569839  1
  Ni  Ni53  1  0.83161491  0.83324735  0.83174739  1
" 