1007,Ni71Fe20Cr7_8,-238.377384532137, 200.351920140617,Ni71Fe20Cr7,"# generated using pymatgen
 data_Cr5Fe11Ni38
_symmetry_space_group_name_H-M   'P 1'
_cell_length_a   7.42819490
_cell_length_b   7.42819490
_cell_length_c   10.50505397
_cell_angle_alpha   90.00000000
_cell_angle_beta   90.00000000
_cell_angle_gamma   90.00000000
_symmetry_Int_Tables_number   1
_chemical_formula_structural   Cr5Fe11Ni38
_chemical_formula_sum   'Cr5 Fe11 Ni38'
_cell_volume   579.64870288
_cell_formula_units_Z   1
loop_
 _symmetry_equiv_pos_site_id
 _symmetry_equiv_pos_as_xyz
  1  'x, y, z'
loop_
 _atom_site_type_symbol
 _atom_site_label
 _atom_site_symmetry_multiplicity
 _atom_site_fract_x
 _atom_site_fract_y
 _atom_site_fract_z
 _atom_site_occupancy
  Ni  Ni0  1  0.00301270  0.00506675  1.00092770  1
  Ni  Ni1  1  0.16790237  0.17124466  0.16987197  1
  Ni  Ni2  1  1.00047372  0.00650728  0.33643098  1
  Ni  Ni3  1  0.00322581  0.33543152  0.00420315  1
  Ni  Ni4  1  0.16767162  0.50046399  0.17085975  1
  Fe  Fe5  1  1.00117421  0.33718939  0.33639812  1
  Ni  Ni6  1  1.00130350  0.66720801  1.00226198  1
  Cr  Cr7  1  0.16744289  0.83727883  0.17061012  1
  Fe  Fe8  1  0.99962170  0.66723942  0.33662054  1
  Ni  Ni9  1  0.33429554  0.00381400  1.00206006  1
  Cr  Cr10  1  0.50149700  0.17046678  0.16916847  1
  Fe  Fe11  1  0.33838780  0.00376424  0.33757524  1
  Fe  Fe12  1  0.33377124  0.33680727  1.00222220  1
  Ni  Ni13  1  0.50425980  0.50220119  0.17039888  1
  Ni  Ni14  1  0.33422865  0.33841685  0.33701610  1
  Cr  Cr15  1  0.33787246  0.66943341  1.00134749  1
  Ni  Ni16  1  0.50487141  0.83480167  0.17171227  1
  Ni  Ni17  1  0.33748764  0.66601768  0.33632755  1
  Cr  Cr18  1  0.67000690  1.00031405  1.00258775  1
  Ni  Ni19  1  0.83746349  0.17056153  0.17028123  1
  Ni  Ni20  1  0.67254757  1.00236526  0.33693308  1
  Fe  Fe21  1  0.67091259  0.33753164  1.00186258  1
  Ni  Ni22  1  0.83502786  0.50309322  0.16831572  1
  Ni  Ni23  1  0.66977465  0.33656902  0.33644580  1
  Ni  Ni24  1  0.67001262  0.66762306  1.00256819  1
  Ni  Ni25  1  0.83588157  0.83461507  0.17033743  1
  Ni  Ni26  1  0.66770723  0.66909437  0.33558389  1
  Ni  Ni27  1  0.17108675  0.17122350  0.50234575  1
  Fe  Fe28  1  1.00102313  1.00258250  0.66952262  1
  Ni  Ni29  1  0.17034498  0.17019179  0.83560111  1
  Ni  Ni30  1  0.16733514  0.50075376  0.50289705  1
  Ni  Ni31  1  0.00300821  0.33481357  0.66754157  1
  Ni  Ni32  1  0.16798364  0.50075091  0.83447525  1
  Cr  Cr33  1  0.16819712  0.83492427  0.50344159  1
  Ni  Ni34  1  1.00260344  0.66581895  0.67007548  1
  Ni  Ni35  1  0.16686013  0.83674037  0.83445536  1
  Ni  Ni36  1  0.50317884  0.17043573  0.50291514  1
  Ni  Ni37  1  0.33721082  0.00310838  0.66983985  1
  Ni  Ni38  1  0.50153478  0.17096529  0.83551213  1
  Fe  Fe39  1  0.50292289  0.50331535  0.50276143  1
  Fe  Fe40  1  0.33666896  0.33659597  0.66842900  1
  Ni  Ni41  1  0.50456031  0.50043243  0.83388474  1
  Ni  Ni42  1  0.50503065  0.83752826  0.50266892  1
  Ni  Ni43  1  0.33629605  0.66906806  0.66993584  1
  Ni  Ni44  1  0.50391218  0.83677999  0.83378796  1
  Fe  Fe45  1  0.83593884  0.16925977  0.50218073  1
  Ni  Ni46  1  0.66876547  0.00365390  0.66860361  1
  Fe  Fe47  1  0.83693921  0.16995057  0.83534823  1
  Ni  Ni48  1  0.83494972  0.50326344  0.50340429  1
  Ni  Ni49  1  0.67146680  0.33490424  0.66897655  1
  Fe  Fe50  1  0.83639592  0.50220896  0.83523448  1
  Ni  Ni51  1  0.83386951  0.83374054  0.50277756  1
  Ni  Ni52  1  0.66851685  0.66948701  0.66913615  1
  Ni  Ni53  1  0.83678694  0.83360418  0.83454115  1
" 