4962,Ni71Fe20Cr7_10,-238.962349133285, 202.444921892345,Ni71Fe20Cr7,"# generated using pymatgen
 data_Cr5Fe11Ni38
_symmetry_space_group_name_H-M   'P 1'
_cell_length_a   7.43268943
_cell_length_b   7.43268943
_cell_length_c   10.51141019
_cell_angle_alpha   90.00000000
_cell_angle_beta   90.00000000
_cell_angle_gamma   90.00000000
_symmetry_Int_Tables_number   1
_chemical_formula_structural   Cr5Fe11Ni38
_chemical_formula_sum   'Cr5 Fe11 Ni38'
_cell_volume   580.70151149
_cell_formula_units_Z   1
loop_
 _symmetry_equiv_pos_site_id
 _symmetry_equiv_pos_as_xyz
  1  'x, y, z'
loop_
 _atom_site_type_symbol
 _atom_site_label
 _atom_site_symmetry_multiplicity
 _atom_site_fract_x
 _atom_site_fract_y
 _atom_site_fract_z
 _atom_site_occupancy
  Ni  Ni0  1  0.00390313  0.00383485  0.00324031  1
  Fe  Fe1  1  0.16648837  0.16842094  0.16814475  1
  Ni  Ni2  1  0.00268702  0.00289660  0.33479958  1
  Ni  Ni3  1  0.00302238  0.33433053  0.00375781  1
  Ni  Ni4  1  0.16836164  0.50340377  0.16884134  1
  Ni  Ni5  1  1.00076356  0.33524246  0.33502430  1
  Cr  Cr6  1  1.00128330  0.66904625  1.00161002  1
  Ni  Ni7  1  0.17090250  0.83619294  0.16937406  1
  Fe  Fe8  1  1.00186260  0.66902170  0.33563695  1
  Ni  Ni9  1  0.33383961  0.00244336  0.00247932  1
  Cr  Cr10  1  0.50413389  0.16771597  0.16799989  1
  Ni  Ni11  1  0.33470454  1.00017940  0.33629703  1
  Fe  Fe12  1  0.33444767  0.33689860  1.00130518  1
  Ni  Ni13  1  0.50348965  0.50550419  0.16799583  1
  Cr  Cr14  1  0.33500497  0.33572932  0.33639879  1
  Ni  Ni15  1  0.33770811  0.66858581  0.00399199  1
  Ni  Ni16  1  0.50062764  0.83376598  0.16909259  1
  Fe  Fe17  1  0.33627740  0.67100011  0.33517181  1
  Fe  Fe18  1  0.67002916  1.00085618  0.00322791  1
  Ni  Ni19  1  0.83751046  0.17020401  0.16922007  1
  Ni  Ni20  1  0.66954179  1.00083809  0.33585180  1
  Fe  Fe21  1  0.66931001  0.33780019  0.00258736  1
  Ni  Ni22  1  0.83508021  0.49992731  0.16950150  1
  Ni  Ni23  1  0.67142555  0.33733584  0.33606053  1
  Ni  Ni24  1  0.66761165  0.66770206  0.00306507  1
  Fe  Fe25  1  0.83447916  0.83582733  0.16926637  1
  Ni  Ni26  1  0.66871127  0.66875840  0.33497323  1
  Ni  Ni27  1  0.16756240  0.16687941  0.50251814  1
  Ni  Ni28  1  0.00340061  1.00138409  0.66889436  1
  Ni  Ni29  1  0.16941321  0.16794488  0.83642163  1
  Fe  Fe30  1  0.16853795  0.50223901  0.50315270  1
  Ni  Ni31  1  0.00322313  0.33650197  0.66815173  1
  Fe  Fe32  1  0.16918274  0.50200371  0.83508695  1
  Ni  Ni33  1  0.17032420  0.83671074  0.50274120  1
  Ni  Ni34  1  1.00176614  0.66904745  0.66967245  1
  Ni  Ni35  1  0.16873073  0.83731514  0.83482019  1
  Ni  Ni36  1  0.50343664  0.16794900  0.50420549  1
  Ni  Ni37  1  0.33477012  0.00350938  0.66815682  1
  Fe  Fe38  1  0.50073368  0.17004711  0.83474493  1
  Ni  Ni39  1  0.50428366  0.50338104  0.50275512  1
  Ni  Ni40  1  0.33588192  0.33530840  0.66996003  1
  Ni  Ni41  1  0.50300108  0.50174596  0.83618698  1
  Ni  Ni42  1  0.50070987  0.83560614  0.50187597  1
  Ni  Ni43  1  0.33521277  0.66811465  0.66821252  1
  Cr  Cr44  1  0.50115389  0.83459234  0.83539583  1
  Ni  Ni45  1  0.83593270  0.17045059  0.50204468  1
  Ni  Ni46  1  0.66876159  1.00205104  0.66756377  1
  Cr  Cr47  1  0.83681069  0.16957704  0.83505780  1
  Ni  Ni48  1  0.83483035  0.50061762  0.50244112  1
  Ni  Ni49  1  0.66782867  0.33694511  0.66809599  1
  Ni  Ni50  1  0.83422096  0.50242909  0.83499076  1
  Fe  Fe51  1  0.83491060  0.83632473  0.50306849  1
  Ni  Ni52  1  0.66995333  0.66793820  0.66889528  1
  Ni  Ni53  1  0.83702874  0.83473359  0.83478326  1
" 