3361,Ni71Fe27Cr0_11,-242.168594445674, 216.282226033634,Ni71Fe27Cr0,"# generated using pymatgen
 data_CrFe15Ni38
_symmetry_space_group_name_H-M   'P 1'
_cell_length_a   7.41338572
_cell_length_b   7.41338572
_cell_length_c   10.48411062
_cell_angle_alpha   90.00000000
_cell_angle_beta   90.00000000
_cell_angle_gamma   90.00000000
_symmetry_Int_Tables_number   1
_chemical_formula_structural   CrFe15Ni38
_chemical_formula_sum   'Cr1 Fe15 Ni38'
_cell_volume   576.18876898
_cell_formula_units_Z   1
loop_
 _symmetry_equiv_pos_site_id
 _symmetry_equiv_pos_as_xyz
  1  'x, y, z'
loop_
 _atom_site_type_symbol
 _atom_site_label
 _atom_site_symmetry_multiplicity
 _atom_site_fract_x
 _atom_site_fract_y
 _atom_site_fract_z
 _atom_site_occupancy
  Ni  Ni0  1  1.00235745  1.00356488  1.00313495  1
  Ni  Ni1  1  0.17040864  0.16988995  0.17018364  1
  Ni  Ni2  1  1.00328280  0.00420882  0.33714276  1
  Ni  Ni3  1  0.00382692  0.33597142  0.00368041  1
  Fe  Fe4  1  0.17038684  0.50299744  0.17016133  1
  Ni  Ni5  1  0.00392469  0.33573760  0.33648368  1
  Ni  Ni6  1  1.00353173  0.67131942  1.00299901  1
  Ni  Ni7  1  0.16983126  0.83694439  0.17023250  1
  Ni  Ni8  1  1.00278064  0.67090429  0.33709674  1
  Fe  Fe9  1  0.33419140  0.00440071  0.00541627  1
  Ni  Ni10  1  0.50335142  0.17161830  0.16968712  1
  Ni  Ni11  1  0.33687927  0.00393245  0.33678010  1
  Ni  Ni12  1  0.33718874  0.33747811  1.00302082  1
  Ni  Ni13  1  0.50303440  0.50314315  0.17044025  1
  Ni  Ni14  1  0.33659161  0.33637745  0.33716200  1
  Ni  Ni15  1  0.33661400  0.66894634  0.00481487  1
  Fe  Fe16  1  0.50330074  0.83746890  0.17102685  1
  Ni  Ni17  1  0.33801758  0.67055090  0.33685462  1
  Fe  Fe18  1  0.67228702  0.00477434  0.00408620  1
  Ni  Ni19  1  0.83709066  0.16987118  0.17077592  1
  Fe  Fe20  1  0.67045251  1.00339690  0.33759278  1
  Fe  Fe21  1  0.67061266  0.33737229  1.00318226  1
  Fe  Fe22  1  0.83747470  0.50336467  0.17058926  1
  Fe  Fe23  1  0.67020968  0.33702971  0.33716761  1
  Fe  Fe24  1  0.67178874  0.66870422  0.00424714  1
  Ni  Ni25  1  0.83796684  0.83727161  0.16990228  1
  Ni  Ni26  1  0.67006186  0.67120080  0.33696558  1
  Ni  Ni27  1  0.17077661  0.17081162  0.50351003  1
  Fe  Fe28  1  1.00287374  0.00382952  0.67026871  1
  Fe  Fe29  1  0.16924297  0.17131987  0.83731800  1
  Ni  Ni30  1  0.17029864  0.50370235  0.50302137  1
  Ni  Ni31  1  0.00362924  0.33609195  0.67070219  1
  Ni  Ni32  1  0.17088321  0.50388404  0.83769701  1
  Ni  Ni33  1  0.17104639  0.83634037  0.50376574  1
  Fe  Fe34  1  1.00314275  0.66933651  0.67044535  1
  Ni  Ni35  1  0.16880023  0.83612591  0.83685307  1
  Ni  Ni36  1  0.50360429  0.17005336  0.50389886  1
  Fe  Fe37  1  0.33708770  0.00464649  0.66826168  1
  Fe  Fe38  1  0.50414770  0.17267914  0.83648867  1
  Fe  Fe39  1  0.50339785  0.50400227  0.50387295  1
  Ni  Ni40  1  0.33682774  0.33755391  0.67066544  1
  Ni  Ni41  1  0.50305677  0.50181907  0.83609709  1
  Ni  Ni42  1  0.50330703  0.83713948  0.50263570  1
  Ni  Ni43  1  0.33710408  0.66918632  0.66919043  1
  Cr  Cr44  1  0.50303806  0.83590848  0.83781481  1
  Ni  Ni45  1  0.83647709  0.17079709  0.50304021  1
  Ni  Ni46  1  0.67187106  0.00383339  0.66916019  1
  Ni  Ni47  1  0.83690490  0.17081665  0.83704142  1
  Ni  Ni48  1  0.83726497  0.50340279  0.50352814  1
  Ni  Ni49  1  0.67039765  0.33639287  0.67068129  1
  Ni  Ni50  1  0.83692477  0.50273297  0.83757440  1
  Ni  Ni51  1  0.83650452  0.83665359  0.50421116  1
  Ni  Ni52  1  0.67041924  0.67063387  0.67012736  1
  Ni  Ni53  1  0.83896587  0.83730576  0.83674167  1
" 