5605,Ni71Fe9Cr19_1,-232.776676174577, 173.11040807343,Ni71Fe9Cr19,"# generated using pymatgen
 data_Cr11Fe5Ni38
_symmetry_space_group_name_H-M   'P 1'
_cell_length_a   7.45925524
_cell_length_b   7.45925524
_cell_length_c   10.54897992
_cell_angle_alpha   90.00000000
_cell_angle_beta   90.00000000
_cell_angle_gamma   90.00000000
_symmetry_Int_Tables_number   1
_chemical_formula_structural   Cr11Fe5Ni38
_chemical_formula_sum   'Cr11 Fe5 Ni38'
_cell_volume   586.95039831
_cell_formula_units_Z   1
loop_
 _symmetry_equiv_pos_site_id
 _symmetry_equiv_pos_as_xyz
  1  'x, y, z'
loop_
 _atom_site_type_symbol
 _atom_site_label
 _atom_site_symmetry_multiplicity
 _atom_site_fract_x
 _atom_site_fract_y
 _atom_site_fract_z
 _atom_site_occupancy
  Ni  Ni0  1  1.00006308  0.99681404  0.99961641  1
  Fe  Fe1  1  0.16795828  0.16674287  0.16827749  1
  Cr  Cr2  1  0.00212503  0.99697387  0.33409422  1
  Cr  Cr3  1  0.99870218  0.33587565  1.00001102  1
  Ni  Ni4  1  0.16591097  0.50297833  0.16742107  1
  Ni  Ni5  1  0.00093566  0.33630263  0.33307926  1
  Ni  Ni6  1  1.00021796  0.66904031  0.00116460  1
  Ni  Ni7  1  0.16697431  0.83351877  0.16544458  1
  Ni  Ni8  1  0.99817477  0.66659431  0.33288363  1
  Ni  Ni9  1  0.33428038  0.99702521  0.00308068  1
  Ni  Ni10  1  0.49991139  0.16537004  0.16860071  1
  Ni  Ni11  1  0.33568359  0.00181393  0.33372255  1
  Cr  Cr12  1  0.33438848  0.33537014  0.00053012  1
  Cr  Cr13  1  0.50280106  0.50059200  0.16710063  1
  Ni  Ni14  1  0.33419271  0.33153238  0.33439628  1
  Ni  Ni15  1  0.33297899  0.66990159  0.99914690  1
  Fe  Fe16  1  0.50249152  0.83453930  0.16651022  1
  Cr  Cr17  1  0.33301418  0.66999919  0.33353660  1
  Ni  Ni18  1  0.66727601  0.99858755  1.00031913  1
  Cr  Cr19  1  0.83056975  0.16655026  0.16587759  1
  Ni  Ni20  1  0.66452155  0.99859878  0.33388971  1
  Ni  Ni21  1  0.66791261  0.33480226  0.99964384  1
  Ni  Ni22  1  0.83440499  0.50307691  0.16880794  1
  Ni  Ni23  1  0.66646429  0.33463310  0.33437288  1
  Ni  Ni24  1  0.66846297  0.66812917  0.99921282  1
  Ni  Ni25  1  0.83424203  0.83171835  0.16659397  1
  Ni  Ni26  1  0.66975245  0.66804761  0.33574610  1
  Ni  Ni27  1  0.16937176  0.16632622  0.50052609  1
  Ni  Ni28  1  0.99995729  0.99840816  0.66748316  1
  Cr  Cr29  1  0.16575401  0.16356694  0.83197635  1
  Cr  Cr30  1  0.16642498  0.50040847  0.50153105  1
  Ni  Ni31  1  1.00039815  0.33515541  0.66809613  1
  Fe  Fe32  1  0.16654175  0.50403196  0.83252670  1
  Ni  Ni33  1  0.16756874  0.83566772  0.50232662  1
  Ni  Ni34  1  0.99990533  0.66845752  0.66746894  1
  Ni  Ni35  1  0.16732335  0.83286064  0.83372702  1
  Fe  Fe36  1  0.49939650  0.16604123  0.49960523  1
  Ni  Ni37  1  0.33427471  0.99806839  0.66479560  1
  Cr  Cr38  1  0.50145780  0.16510047  0.83389568  1
  Ni  Ni39  1  0.50145933  0.50124540  0.50062842  1
  Ni  Ni40  1  0.33371090  0.33517770  0.66600350  1
  Ni  Ni41  1  0.50069924  0.50378219  0.83381511  1
  Ni  Ni42  1  0.50089104  0.83379669  0.50072999  1
  Ni  Ni43  1  0.33449497  0.66849094  0.66883165  1
  Ni  Ni44  1  0.49982306  0.83193790  0.83491738  1
  Cr  Cr45  1  0.83531853  0.16692011  0.50118099  1
  Ni  Ni46  1  0.66729606  0.99738787  0.66758148  1
  Ni  Ni47  1  0.83407511  0.16543731  0.83437023  1
  Ni  Ni48  1  0.83269260  0.50256399  0.49844403  1
  Cr  Cr49  1  0.66734934  0.33523186  0.66803360  1
  Ni  Ni50  1  0.83297481  0.50253738  0.83438545  1
  Ni  Ni51  1  0.83295801  0.83185002  0.50124254  1
  Fe  Fe52  1  0.66719495  0.66884526  0.66718719  1
  Ni  Ni53  1  0.83448225  0.83377948  0.83381471  1
" 