6136,Ni71Fe9Cr19_18,-232.875314391336, 171.66438659265,Ni71Fe9Cr19,"# generated using pymatgen
 data_Cr11Fe5Ni38
_symmetry_space_group_name_H-M   'P 1'
_cell_length_a   7.46330961
_cell_length_b   7.46330961
_cell_length_c   10.55471366
_cell_angle_alpha   90.00000000
_cell_angle_beta   90.00000000
_cell_angle_gamma   90.00000000
_symmetry_Int_Tables_number   1
_chemical_formula_structural   Cr11Fe5Ni38
_chemical_formula_sum   'Cr11 Fe5 Ni38'
_cell_volume   587.90800303
_cell_formula_units_Z   1
loop_
 _symmetry_equiv_pos_site_id
 _symmetry_equiv_pos_as_xyz
  1  'x, y, z'
loop_
 _atom_site_type_symbol
 _atom_site_label
 _atom_site_symmetry_multiplicity
 _atom_site_fract_x
 _atom_site_fract_y
 _atom_site_fract_z
 _atom_site_occupancy
  Fe  Fe0  1  0.99804265  0.00234006  0.99978097  1
  Ni  Ni1  1  0.16527992  0.16681459  0.16861450  1
  Ni  Ni2  1  0.99993272  0.00114549  0.33248553  1
  Ni  Ni3  1  0.99789773  0.33261814  0.00032560  1
  Ni  Ni4  1  0.16388483  0.49994888  0.16947666  1
  Ni  Ni5  1  0.99984041  0.33328458  0.33222473  1
  Cr  Cr6  1  0.99948353  0.66606283  0.00040984  1
  Ni  Ni7  1  0.16741228  0.83398808  0.16937580  1
  Ni  Ni8  1  0.99895173  0.66632166  0.33189112  1
  Cr  Cr9  1  0.33360478  0.00093107  0.00144113  1
  Ni  Ni10  1  0.50199585  0.16440376  0.16821884  1
  Ni  Ni11  1  0.33460369  0.00114185  0.33270157  1
  Cr  Cr12  1  0.33231396  0.33249643  0.99908995  1
  Cr  Cr13  1  0.50211061  0.50062162  0.16815782  1
  Ni  Ni14  1  0.33301364  0.33160471  0.33361257  1
  Cr  Cr15  1  0.33262506  0.66732335  0.00073184  1
  Ni  Ni16  1  0.50094568  0.83531812  0.16878819  1
  Ni  Ni17  1  0.33390534  0.66800452  0.33202619  1
  Ni  Ni18  1  0.66875746  0.00163439  0.00107745  1
  Ni  Ni19  1  0.83347424  0.16793165  0.16680228  1
  Ni  Ni20  1  0.66621435  0.00025454  0.33333047  1
  Ni  Ni21  1  0.67022126  0.33181036  0.99889505  1
  Ni  Ni22  1  0.83480678  0.49889909  0.16750433  1
  Ni  Ni23  1  0.66789766  0.33258492  0.33418604  1
  Ni  Ni24  1  0.66938732  0.66730734  0.99969620  1
  Fe  Fe25  1  0.83270930  0.83456455  0.16804159  1
  Ni  Ni26  1  0.66789231  0.66791116  0.33460597  1
  Ni  Ni27  1  0.16897998  0.16653369  0.49990727  1
  Ni  Ni28  1  0.00205121  0.99856365  0.66892364  1
  Ni  Ni29  1  0.16658191  0.16683920  0.83222983  1
  Cr  Cr30  1  0.16649692  0.49925244  0.49886218  1
  Cr  Cr31  1  0.00097817  0.33289604  0.66759264  1
  Ni  Ni32  1  0.16616227  0.50011155  0.83204080  1
  Cr  Cr33  1  0.16710860  0.83516102  0.50144631  1
  Ni  Ni34  1  0.99923473  0.66896505  0.66906057  1
  Ni  Ni35  1  0.16492368  0.83380077  0.83020996  1
  Ni  Ni36  1  0.49842313  0.16626397  0.49858288  1
  Ni  Ni37  1  0.33147763  0.00156989  0.66708515  1
  Ni  Ni38  1  0.50009225  0.16832475  0.83394665  1
  Fe  Fe39  1  0.50103624  0.50132031  0.49935723  1
  Ni  Ni40  1  0.33379441  0.33253687  0.66841426  1
  Fe  Fe41  1  0.50110609  0.49934738  0.83278510  1
  Ni  Ni42  1  0.50201406  0.83377306  0.49928058  1
  Ni  Ni43  1  0.33360882  0.66664380  0.66857357  1
  Cr  Cr44  1  0.50100647  0.83330242  0.83276182  1
  Fe  Fe45  1  0.83433929  0.16547667  0.49749315  1
  Cr  Cr46  1  0.66778232  0.99956916  0.66552167  1
  Ni  Ni47  1  0.83407796  0.16708179  0.83595862  1
  Ni  Ni48  1  0.83178270  0.50247357  0.49863979  1
  Cr  Cr49  1  0.66564351  0.33463804  0.66695489  1
  Ni  Ni50  1  0.83335247  0.50100985  0.83460380  1
  Ni  Ni51  1  0.83151782  0.83149450  0.49985817  1
  Ni  Ni52  1  0.66790701  0.66664597  0.66644936  1
  Ni  Ni53  1  0.83483825  0.83265979  0.83349082  1
" 