1974,Ni71Fe27Cr0_10,-242.005392085237, 216.420329394745,Ni71Fe27Cr0,"# generated using pymatgen
 data_CrFe15Ni38
_symmetry_space_group_name_H-M   'P 1'
_cell_length_a   7.41191000
_cell_length_b   7.41191000
_cell_length_c   10.48202364
_cell_angle_alpha   90.00000000
_cell_angle_beta   90.00000000
_cell_angle_gamma   90.00000000
_symmetry_Int_Tables_number   1
_chemical_formula_structural   CrFe15Ni38
_chemical_formula_sum   'Cr1 Fe15 Ni38'
_cell_volume   575.84474599
_cell_formula_units_Z   1
loop_
 _symmetry_equiv_pos_site_id
 _symmetry_equiv_pos_as_xyz
  1  'x, y, z'
loop_
 _atom_site_type_symbol
 _atom_site_label
 _atom_site_symmetry_multiplicity
 _atom_site_fract_x
 _atom_site_fract_y
 _atom_site_fract_z
 _atom_site_occupancy
  Ni  Ni0  1  1.00254580  0.00574720  0.00410515  1
  Ni  Ni1  1  0.17000004  0.16948055  0.17001931  1
  Ni  Ni2  1  0.00379758  1.00314028  0.33640410  1
  Ni  Ni3  1  0.00468400  0.33559350  0.00403124  1
  Ni  Ni4  1  0.17112851  0.50323540  0.17119519  1
  Fe  Fe5  1  1.00271090  0.33662043  0.33658159  1
  Cr  Cr6  1  0.00448959  0.66987523  0.00397848  1
  Ni  Ni7  1  0.17157372  0.83844279  0.17116332  1
  Ni  Ni8  1  1.00334475  0.67019637  0.33687434  1
  Fe  Fe9  1  0.33641823  0.00441200  0.00427374  1
  Ni  Ni10  1  0.50369627  0.16948071  0.17089514  1
  Ni  Ni11  1  0.33697308  0.00472698  0.33639637  1
  Ni  Ni12  1  0.33703783  0.33798901  0.00436427  1
  Ni  Ni13  1  0.50398248  0.50464976  0.16980890  1
  Fe  Fe14  1  0.33733214  0.33677610  0.33696614  1
  Ni  Ni15  1  0.33839280  0.66845097  0.00394211  1
  Ni  Ni16  1  0.50354186  0.83703032  0.16989755  1
  Fe  Fe17  1  0.33754661  0.67096542  0.33640981  1
  Ni  Ni18  1  0.67080554  0.00439260  0.00441011  1
  Ni  Ni19  1  0.83745933  0.16992274  0.16969080  1
  Ni  Ni20  1  0.67038765  0.00442652  0.33722840  1
  Fe  Fe21  1  0.67041676  0.33702494  0.00444651  1
  Ni  Ni22  1  0.83604845  0.50307575  0.17148310  1
  Ni  Ni23  1  0.66978103  0.33729581  0.33670198  1
  Fe  Fe24  1  0.66892659  0.66994106  1.00359333  1
  Fe  Fe25  1  0.83630408  0.83828918  0.17149803  1
  Ni  Ni26  1  0.67136425  0.66943830  0.33620847  1
  Ni  Ni27  1  0.17026466  0.16986810  0.50367179  1
  Ni  Ni28  1  1.00313819  1.00330458  0.67065008  1
  Ni  Ni29  1  0.17111148  0.17006923  0.83747105  1
  Ni  Ni30  1  0.17100092  0.50348115  0.50398664  1
  Fe  Fe31  1  0.00449362  0.33728615  0.67064667  1
  Ni  Ni32  1  0.17149922  0.50253379  0.83597709  1
  Fe  Fe33  1  0.16922935  0.83681775  0.50342337  1
  Ni  Ni34  1  1.00342117  0.67013934  0.67049341  1
  Fe  Fe35  1  0.17109175  0.83728330  0.83632729  1
  Fe  Fe36  1  0.50416698  0.17090537  0.50378473  1
  Ni  Ni37  1  0.33716174  0.00495500  0.67124114  1
  Ni  Ni38  1  0.50249836  0.17005305  0.83661198  1
  Ni  Ni39  1  0.50362129  0.50453914  0.50397098  1
  Ni  Ni40  1  0.33716620  0.33747672  0.67024629  1
  Ni  Ni41  1  0.50352403  0.50396889  0.83737645  1
  Fe  Fe42  1  0.50436064  0.83683880  0.50348427  1
  Ni  Ni43  1  0.33664468  0.66872482  0.67023846  1
  Fe  Fe44  1  0.50382420  0.83657779  0.83709952  1
  Ni  Ni45  1  0.83761036  0.16881191  0.50466502  1
  Ni  Ni46  1  0.67085852  0.00382775  0.66952034  1
  Fe  Fe47  1  0.83722291  0.17052177  0.83747791  1
  Ni  Ni48  1  0.83653664  0.50487690  0.50424261  1
  Fe  Fe49  1  0.66982263  0.33754027  0.66986890  1
  Ni  Ni50  1  0.83613621  0.50469651  0.83543191  1
  Ni  Ni51  1  0.83655502  0.83746793  0.50307907  1
  Ni  Ni52  1  0.67109060  0.67014149  0.67085499  1
  Ni  Ni53  1  0.83611326  0.83752714  0.83644507  1
" 