4443,Ni71Fe27Cr0_2,-242.273770964667, 215.574171234152,Ni71Fe27Cr0,"# generated using pymatgen
 data_CrFe15Ni38
_symmetry_space_group_name_H-M   'P 1'
_cell_length_a   7.41718040
_cell_length_b   7.41718040
_cell_length_c   10.48947711
_cell_angle_alpha   90.00000000
_cell_angle_beta   90.00000000
_cell_angle_gamma   90.00000000
_symmetry_Int_Tables_number   1
_chemical_formula_structural   CrFe15Ni38
_chemical_formula_sum   'Cr1 Fe15 Ni38'
_cell_volume   577.07402125
_cell_formula_units_Z   1
loop_
 _symmetry_equiv_pos_site_id
 _symmetry_equiv_pos_as_xyz
  1  'x, y, z'
loop_
 _atom_site_type_symbol
 _atom_site_label
 _atom_site_symmetry_multiplicity
 _atom_site_fract_x
 _atom_site_fract_y
 _atom_site_fract_z
 _atom_site_occupancy
  Ni  Ni0  1  1.00286549  0.00413308  1.00278528  1
  Ni  Ni1  1  0.17097279  0.16970790  0.16939145  1
  Ni  Ni2  1  1.00257267  0.00415421  0.33713966  1
  Fe  Fe3  1  0.00351793  0.33651749  1.00312131  1
  Fe  Fe4  1  0.16970878  0.50188878  0.17003235  1
  Ni  Ni5  1  0.00470201  0.33639467  0.33661802  1
  Ni  Ni6  1  1.00254644  0.66998549  1.00273907  1
  Fe  Fe7  1  0.16906196  0.83758380  0.16952770  1
  Ni  Ni8  1  1.00222516  0.66953706  0.33754878  1
  Ni  Ni9  1  0.33618156  0.00406930  0.00441521  1
  Ni  Ni10  1  0.50284688  0.16938640  0.17006433  1
  Fe  Fe11  1  0.33629708  0.00384696  0.33713317  1
  Ni  Ni12  1  0.33586636  0.33705892  1.00320808  1
  Fe  Fe13  1  0.50352021  0.50207823  0.17018009  1
  Ni  Ni14  1  0.33623141  0.33635209  0.33765800  1
  Ni  Ni15  1  0.33758818  0.66895474  1.00296965  1
  Fe  Fe16  1  0.50438318  0.83761163  0.16943937  1
  Fe  Fe17  1  0.33623902  0.67004281  0.33757454  1
  Ni  Ni18  1  0.67103885  1.00240804  0.00348795  1
  Ni  Ni19  1  0.83626650  0.17071476  0.16998186  1
  Ni  Ni20  1  0.67021128  1.00278010  0.33733973  1
  Fe  Fe21  1  0.67092248  0.33721868  0.00438366  1
  Ni  Ni22  1  0.83680134  0.50380542  0.17001531  1
  Fe  Fe23  1  0.67094226  0.33669739  0.33657255  1
  Ni  Ni24  1  0.66995063  0.67029825  1.00278899  1
  Fe  Fe25  1  0.83663675  0.83766514  0.17015620  1
  Ni  Ni26  1  0.67025180  0.67060763  0.33695129  1
  Ni  Ni27  1  0.17117454  0.16997148  0.50329139  1
  Ni  Ni28  1  0.00378956  0.00456848  0.67016083  1
  Ni  Ni29  1  0.16897656  0.16998601  0.83740198  1
  Ni  Ni30  1  0.16926773  0.50341698  0.50263256  1
  Ni  Ni31  1  0.00362053  0.33602040  0.67028544  1
  Ni  Ni32  1  0.16896918  0.50395774  0.83722891  1
  Ni  Ni33  1  0.16986760  0.83669780  0.50320308  1
  Ni  Ni34  1  1.00269771  0.66949547  0.66979707  1
  Ni  Ni35  1  0.17034475  0.83614453  0.83700532  1
  Ni  Ni36  1  0.50247095  0.16964873  0.50258132  1
  Ni  Ni37  1  0.33580338  1.00299773  0.66903651  1
  Cr  Cr38  1  0.50253370  0.16843972  0.83713986  1
  Ni  Ni39  1  0.50386411  0.50322972  0.50329012  1
  Fe  Fe40  1  0.33467989  0.33782946  0.66872376  1
  Fe  Fe41  1  0.50314452  0.50592439  0.83658474  1
  Ni  Ni42  1  0.50358466  0.83720725  0.50311432  1
  Ni  Ni43  1  0.33797726  0.66998633  0.67007060  1
  Ni  Ni44  1  0.50320429  0.83552738  0.83709809  1
  Fe  Fe45  1  0.83727046  0.16974835  0.50316523  1
  Fe  Fe46  1  0.67110204  1.00140483  0.66928622  1
  Ni  Ni47  1  0.83821632  0.17029428  0.83720167  1
  Ni  Ni48  1  0.83695339  0.50452889  0.50298784  1
  Fe  Fe49  1  0.67148889  0.33809205  0.66912960  1
  Ni  Ni50  1  0.83759799  0.50427052  0.83708120  1
  Ni  Ni51  1  0.83663059  0.83530134  0.50291197  1
  Ni  Ni52  1  0.66940983  0.66981572  0.67034450  1
  Ni  Ni53  1  0.83653704  0.83552190  0.83754875  1
" 