7892,Ni71Fe9Cr19_15,-232.928881817193, 174.176478176456,Ni71Fe9Cr19,"# generated using pymatgen
 data_Cr11Fe5Ni38
_symmetry_space_group_name_H-M   'P 1'
_cell_length_a   7.45801644
_cell_length_b   7.45801644
_cell_length_c   10.54722800
_cell_angle_alpha   90.00000000
_cell_angle_beta   90.00000000
_cell_angle_gamma   90.00000000
_symmetry_Int_Tables_number   1
_chemical_formula_structural   Cr11Fe5Ni38
_chemical_formula_sum   'Cr11 Fe5 Ni38'
_cell_volume   586.65801275
_cell_formula_units_Z   1
loop_
 _symmetry_equiv_pos_site_id
 _symmetry_equiv_pos_as_xyz
  1  'x, y, z'
loop_
 _atom_site_type_symbol
 _atom_site_label
 _atom_site_symmetry_multiplicity
 _atom_site_fract_x
 _atom_site_fract_y
 _atom_site_fract_z
 _atom_site_occupancy
  Ni  Ni0  1  0.99890465  0.99843943  0.99972418  1
  Cr  Cr1  1  0.16754575  0.16520396  0.16818770  1
  Ni  Ni2  1  0.00135321  0.00075752  0.33359758  1
  Cr  Cr3  1  0.99745664  0.33304011  0.99932649  1
  Cr  Cr4  1  0.16727302  0.50353055  0.16749224  1
  Ni  Ni5  1  0.99873740  0.33203052  0.33534924  1
  Ni  Ni6  1  0.99966258  0.67027700  0.00065846  1
  Ni  Ni7  1  0.16494105  0.83298287  0.16846932  1
  Ni  Ni8  1  0.00134001  0.66902454  0.33174076  1
  Cr  Cr9  1  0.33363376  0.99908313  0.99910674  1
  Ni  Ni10  1  0.50288500  0.16720934  0.16637355  1
  Ni  Ni11  1  0.33381635  0.99791615  0.33604446  1
  Fe  Fe12  1  0.33872376  0.33475985  0.99933470  1
  Ni  Ni13  1  0.50270790  0.50122956  0.16545693  1
  Cr  Cr14  1  0.33517536  0.33350144  0.33453560  1
  Ni  Ni15  1  0.33532356  0.66722373  0.00080229  1
  Fe  Fe16  1  0.50170757  0.83252302  0.16833407  1
  Ni  Ni17  1  0.33493005  0.67077071  0.33426949  1
  Ni  Ni18  1  0.66869820  0.00198534  1.00050668  1
  Fe  Fe19  1  0.83223795  0.16561955  0.16734943  1
  Ni  Ni20  1  0.66664434  1.00051801  0.33320290  1
  Ni  Ni21  1  0.66564455  0.33420660  0.00078078  1
  Ni  Ni22  1  0.83200261  0.50361687  0.16767004  1
  Cr  Cr23  1  0.66828637  0.33347357  0.33361464  1
  Ni  Ni24  1  0.66683257  0.66562507  1.00007321  1
  Ni  Ni25  1  0.83444558  0.83315828  0.16712945  1
  Ni  Ni26  1  0.66554318  0.66815318  0.33271531  1
  Ni  Ni27  1  0.16693915  0.16537157  0.50119433  1
  Ni  Ni28  1  0.00166334  0.00126769  0.66849349  1
  Ni  Ni29  1  0.16730655  0.16587593  0.83202052  1
  Cr  Cr30  1  0.16772261  0.50103123  0.50052947  1
  Fe  Fe31  1  0.00101124  0.33164261  0.66774316  1
  Cr  Cr32  1  0.16810510  0.50121410  0.83379585  1
  Ni  Ni33  1  0.16914942  0.83578182  0.49975707  1
  Ni  Ni34  1  0.00150447  0.66972321  0.66942004  1
  Ni  Ni35  1  0.16548600  0.83471964  0.83359189  1
  Ni  Ni36  1  0.49931938  0.16478492  0.50112898  1
  Fe  Fe37  1  0.33399031  0.99981554  0.66687309  1
  Ni  Ni38  1  0.50067493  0.16751775  0.83431534  1
  Ni  Ni39  1  0.49928694  0.50275140  0.50115235  1
  Ni  Ni40  1  0.33448202  0.33289702  0.66788118  1
  Ni  Ni41  1  0.50142571  0.50107355  0.83520738  1
  Ni  Ni42  1  0.49919308  0.83427961  0.49948899  1
  Ni  Ni43  1  0.33504950  0.66789086  0.66674125  1
  Ni  Ni44  1  0.50235473  0.83322403  0.83335377  1
  Ni  Ni45  1  0.83555937  0.16546700  0.49927236  1
  Ni  Ni46  1  0.66733266  0.00069977  0.66810384  1
  Ni  Ni47  1  0.83383683  0.16494962  0.83473496  1
  Cr  Cr48  1  0.83420888  0.50148336  0.50043624  1
  Cr  Cr49  1  0.66605351  0.33340413  0.66749806  1
  Ni  Ni50  1  0.83233949  0.50289827  0.83415997  1
  Cr  Cr51  1  0.83300968  0.83504106  0.50078297  1
  Ni  Ni52  1  0.66526003  0.66806044  0.66902727  1
  Ni  Ni53  1  0.83397734  0.83396920  0.83414513  1
" 