2135,Ni71Fe2Cr26_8,-228.815927873906, 151.760499983744,Ni71Fe2Cr26,"# generated using pymatgen
 data_Cr15FeNi38
_symmetry_space_group_name_H-M   'P 1'
_cell_length_a   7.47706683
_cell_length_b   7.47706683
_cell_length_c   10.57416932
_cell_angle_alpha   90.00000000
_cell_angle_beta   90.00000000
_cell_angle_gamma   90.00000000
_symmetry_Int_Tables_number   1
_chemical_formula_structural   Cr15FeNi38
_chemical_formula_sum   'Cr15 Fe1 Ni38'
_cell_volume   591.16509760
_cell_formula_units_Z   1
loop_
 _symmetry_equiv_pos_site_id
 _symmetry_equiv_pos_as_xyz
  1  'x, y, z'
loop_
 _atom_site_type_symbol
 _atom_site_label
 _atom_site_symmetry_multiplicity
 _atom_site_fract_x
 _atom_site_fract_y
 _atom_site_fract_z
 _atom_site_occupancy
  Cr  Cr0  1  0.00272321  0.99856676  -0.00013247  1
  Ni  Ni1  1  0.16827443  0.16372482  0.16757315  1
  Ni  Ni2  1  -0.00042270  0.99632938  0.33377755  1
  Cr  Cr3  1  0.99914832  0.33460553  0.99841815  1
  Ni  Ni4  1  0.16577229  0.50170116  0.16764191  1
  Cr  Cr5  1  0.00155453  0.33231560  0.33234927  1
  Ni  Ni6  1  0.99845130  0.66483124  -0.00002536  1
  Ni  Ni7  1  0.16579592  0.83242353  0.16732279  1
  Ni  Ni8  1  0.00103699  0.66864794  0.33149468  1
  Ni  Ni9  1  0.33120697  0.99685972  -0.00057562  1
  Cr  Cr10  1  0.49724200  0.16630161  0.16717078  1
  Ni  Ni11  1  0.33159256  0.99857200  0.33158559  1
  Cr  Cr12  1  0.33050903  0.33224284  0.00102120  1
  Ni  Ni13  1  0.50122801  0.50088625  0.16810950  1
  Ni  Ni14  1  0.33393315  0.33425970  0.33372023  1
  Cr  Cr15  1  0.33257221  0.66904667  -0.00052230  1
  Ni  Ni16  1  0.49892134  0.83099545  0.16664129  1
  Ni  Ni17  1  0.33151240  0.66503536  0.33200833  1
  Cr  Cr18  1  0.66386109  0.99651265  0.99858847  1
  Cr  Cr19  1  0.83252363  0.16607634  0.16714379  1
  Ni  Ni20  1  0.66685087  0.99866071  0.33394872  1
  Ni  Ni21  1  0.66818354  0.33652971  0.99883378  1
  Ni  Ni22  1  0.83106047  0.50328287  0.16463316  1
  Ni  Ni23  1  0.66349389  0.33291452  0.33354217  1
  Ni  Ni24  1  0.66728833  0.66445667  0.00206562  1
  Ni  Ni25  1  0.83324519  0.82851596  0.16828540  1
  Fe  Fe26  1  0.66528268  0.66663367  0.33081666  1
  Ni  Ni27  1  0.16826810  0.16384489  0.49894441  1
  Ni  Ni28  1  -0.00005022  0.99877246  0.66457419  1
  Ni  Ni29  1  0.16634849  0.16382542  0.83150160  1
  Ni  Ni30  1  0.16958353  0.50147358  0.49973005  1
  Cr  Cr31  1  0.00018410  0.33161606  0.66722197  1
  Ni  Ni32  1  0.16384676  0.50142137  0.83057468  1
  Ni  Ni33  1  0.16397663  0.83263369  0.49976067  1
  Ni  Ni34  1  0.00311556  0.66767002  0.66640136  1
  Ni  Ni35  1  0.16733979  0.83274513  0.83087030  1
  Ni  Ni36  1  0.49921663  0.16783142  0.49956454  1
  Ni  Ni37  1  0.33119664  0.99892079  0.66705475  1
  Cr  Cr38  1  0.49890982  0.16472746  0.83136450  1
  Ni  Ni39  1  0.49635445  0.49582935  0.49837644  1
  Ni  Ni40  1  0.33239668  0.33291782  0.66346350  1
  Cr  Cr41  1  0.50015608  0.49953162  0.83140998  1
  Cr  Cr42  1  0.49757755  0.83372094  0.49929199  1
  Ni  Ni43  1  0.32932052  0.66608051  0.66617213  1
  Ni  Ni44  1  0.49635133  0.83377504  0.83246696  1
  Ni  Ni45  1  0.83053460  0.16251258  0.49996708  1
  Ni  Ni46  1  0.66679435  0.00184587  0.66513240  1
  Ni  Ni47  1  0.83258988  0.16788517  0.83051083  1
  Cr  Cr48  1  0.83256262  0.50104578  0.49870419  1
  Ni  Ni49  1  0.66535495  0.32990781  0.66547481  1
  Ni  Ni50  1  0.83371060  0.49868258  0.83472372  1
  Ni  Ni51  1  0.83607137  0.83571776  0.49816188  1
  Cr  Cr52  1  0.66491096  0.66684562  0.66559471  1
  Cr  Cr53  1  0.83435674  0.83111075  0.83137007  1
" 