1064,Ni71Fe9Cr19_12,-233.018998561237, 175.092105726816,Ni71Fe9Cr19,"# generated using pymatgen
 data_Cr11Fe5Ni38
_symmetry_space_group_name_H-M   'P 1'
_cell_length_a   7.46032355
_cell_length_b   7.46032355
_cell_length_c   10.55049075
_cell_angle_alpha   90.00000000
_cell_angle_beta   90.00000000
_cell_angle_gamma   90.00000000
_symmetry_Int_Tables_number   1
_chemical_formula_structural   Cr11Fe5Ni38
_chemical_formula_sum   'Cr11 Fe5 Ni38'
_cell_volume   587.20262333
_cell_formula_units_Z   1
loop_
 _symmetry_equiv_pos_site_id
 _symmetry_equiv_pos_as_xyz
  1  'x, y, z'
loop_
 _atom_site_type_symbol
 _atom_site_label
 _atom_site_symmetry_multiplicity
 _atom_site_fract_x
 _atom_site_fract_y
 _atom_site_fract_z
 _atom_site_occupancy
  Ni  Ni0  1  0.00129904  1.00008436  0.99916421  1
  Ni  Ni1  1  0.16784155  0.16903989  0.16599215  1
  Cr  Cr2  1  0.00135163  0.99697066  0.33459988  1
  Ni  Ni3  1  0.00308803  0.33188467  0.99884631  1
  Ni  Ni4  1  0.16906319  0.49998255  0.16864773  1
  Ni  Ni5  1  0.00257742  0.33562407  0.33438160  1
  Cr  Cr6  1  0.00153627  0.66890026  0.00079935  1
  Fe  Fe7  1  0.16891954  0.83375345  0.16637035  1
  Ni  Ni8  1  0.99968188  0.66760196  0.33379014  1
  Ni  Ni9  1  0.33389664  0.99962856  1.00005696  1
  Ni  Ni10  1  0.49909388  0.16486317  0.16828291  1
  Cr  Cr11  1  0.33530845  0.00203632  0.33481396  1
  Cr  Cr12  1  0.33439430  0.33340250  1.00028111  1
  Ni  Ni13  1  0.49820023  0.50375621  0.16823447  1
  Ni  Ni14  1  0.33577526  0.33411133  0.33316753  1
  Ni  Ni15  1  0.33498572  0.66814503  0.00072125  1
  Ni  Ni16  1  0.50179842  0.83294236  0.16600379  1
  Fe  Fe17  1  0.33565594  0.66687448  0.33364509  1
  Ni  Ni18  1  0.66608768  0.99843070  1.00004070  1
  Cr  Cr19  1  0.83390691  0.16530113  0.16651293  1
  Ni  Ni20  1  0.66529727  0.99842423  0.33369930  1
  Cr  Cr21  1  0.66400855  0.33291406  1.00030636  1
  Cr  Cr22  1  0.83399389  0.50128000  0.16907922  1
  Ni  Ni23  1  0.66299880  0.33534305  0.33447020  1
  Ni  Ni24  1  0.66445106  0.67004010  0.99914710  1
  Ni  Ni25  1  0.83030268  0.83350110  0.16674391  1
  Ni  Ni26  1  0.66749343  0.66751486  0.33555537  1
  Ni  Ni27  1  0.16921143  0.16727860  0.50275258  1
  Ni  Ni28  1  0.00102127  0.99901423  0.66803198  1
  Ni  Ni29  1  0.16712012  0.16621642  0.83267630  1
  Cr  Cr30  1  0.16833492  0.49916508  0.49946809  1
  Fe  Fe31  1  0.00188891  0.33139954  0.66797869  1
  Ni  Ni32  1  0.16936440  0.49984856  0.83339750  1
  Ni  Ni33  1  0.16900300  0.83382015  0.50097548  1
  Cr  Cr34  1  0.99992360  0.67062911  0.66638155  1
  Ni  Ni35  1  0.17014669  0.83496423  0.83442619  1
  Ni  Ni36  1  0.49969698  0.16714828  0.50053851  1
  Ni  Ni37  1  0.33376997  0.00069544  0.66676887  1
  Ni  Ni38  1  0.50029473  0.16324392  0.83244571  1
  Ni  Ni39  1  0.50136853  0.50102696  0.50094465  1
  Ni  Ni40  1  0.33687037  0.33290780  0.66779485  1
  Fe  Fe41  1  0.49848930  0.50208716  0.83219797  1
  Ni  Ni42  1  0.50092677  0.83351291  0.50150598  1
  Ni  Ni43  1  0.33437332  0.66749599  0.66770590  1
  Ni  Ni44  1  0.49966445  0.83455503  0.83382335  1
  Cr  Cr45  1  0.83305396  0.16806585  0.50061459  1
  Ni  Ni46  1  0.66655154  0.00129679  0.66740736  1
  Ni  Ni47  1  0.83414851  0.16468709  0.83368735  1
  Ni  Ni48  1  0.83170322  0.50124350  0.49914958  1
  Ni  Ni49  1  0.66411400  0.33355179  0.66663861  1
  Cr  Cr50  1  0.83347354  0.49951250  0.83281040  1
  Ni  Ni51  1  0.83129953  0.83252215  0.50038517  1
  Fe  Fe52  1  0.66444873  0.66902009  0.66632856  1
  Ni  Ni53  1  0.83106587  0.83707511  0.83414569  1
" 