742,Ni71Fe2Cr26_1,-228.323085837411, 145.417671174083,Ni71Fe2Cr26,"# generated using pymatgen
 data_Cr15FeNi38
_symmetry_space_group_name_H-M   'P 1'
_cell_length_a   7.48820214
_cell_length_b   7.48820214
_cell_length_c   10.58991703
_cell_angle_alpha   90.00000000
_cell_angle_beta   90.00000000
_cell_angle_gamma   90.00000000
_symmetry_Int_Tables_number   1
_chemical_formula_structural   Cr15FeNi38
_chemical_formula_sum   'Cr15 Fe1 Ni38'
_cell_volume   593.81023238
_cell_formula_units_Z   1
loop_
 _symmetry_equiv_pos_site_id
 _symmetry_equiv_pos_as_xyz
  1  'x, y, z'
loop_
 _atom_site_type_symbol
 _atom_site_label
 _atom_site_symmetry_multiplicity
 _atom_site_fract_x
 _atom_site_fract_y
 _atom_site_fract_z
 _atom_site_occupancy
  Cr  Cr0  1  -0.00066552  -0.00118171  0.00022748  1
  Ni  Ni1  1  0.16691387  0.16316178  0.16478580  1
  Ni  Ni2  1  0.00025315  0.99679098  0.33160909  1
  Cr  Cr3  1  -0.00057106  0.33306902  0.99723375  1
  Ni  Ni4  1  0.16465085  0.50027322  0.16520339  1
  Cr  Cr5  1  0.99774113  0.33190331  0.33267118  1
  Ni  Ni6  1  0.99693525  0.66338011  0.00065245  1
  Ni  Ni7  1  0.16296723  0.83232957  0.16742782  1
  Ni  Ni8  1  0.00039766  0.66710360  0.33133931  1
  Ni  Ni9  1  0.33200078  0.00193253  0.99837969  1
  Ni  Ni10  1  0.49772997  0.16793291  0.16414344  1
  Ni  Ni11  1  0.32915753  0.99779079  0.33255219  1
  Ni  Ni12  1  0.33326816  0.33054325  -0.00140554  1
  Ni  Ni13  1  0.50000843  0.49551070  0.16456217  1
  Cr  Cr14  1  0.33341083  0.33277220  0.33128204  1
  Cr  Cr15  1  0.33235662  0.66337301  0.99836364  1
  Cr  Cr16  1  0.49678609  0.83225873  0.16495577  1
  Ni  Ni17  1  0.32912033  0.66599692  0.33330472  1
  Cr  Cr18  1  0.66403267  -0.00079567  -0.00140886  1
  Ni  Ni19  1  0.83111978  0.16628055  0.16671393  1
  Cr  Cr20  1  0.66605056  0.00024415  0.33235530  1
  Ni  Ni21  1  0.66367298  0.33356256  -0.00107009  1
  Ni  Ni22  1  0.83111220  0.49943005  0.16397613  1
  Ni  Ni23  1  0.66523188  0.33184943  0.33161662  1
  Ni  Ni24  1  0.66685169  0.66216862  0.99817707  1
  Ni  Ni25  1  0.83587678  0.83001890  0.16497967  1
  Cr  Cr26  1  0.66516829  0.66362185  0.33206823  1
  Ni  Ni27  1  0.16662257  0.16230541  0.49799393  1
  Cr  Cr28  1  0.99814180  0.00068906  0.66400129  1
  Ni  Ni29  1  0.16798403  0.16601970  0.83298282  1
  Ni  Ni30  1  0.16541143  0.50106716  0.49798211  1
  Cr  Cr31  1  0.99815761  0.33187431  0.66584924  1
  Ni  Ni32  1  0.16570157  0.49743744  0.83260303  1
  Ni  Ni33  1  0.16642347  0.83241007  0.49641809  1
  Cr  Cr34  1  -0.00093629  0.66320064  0.66427912  1
  Cr  Cr35  1  0.16797066  0.83228682  0.83199740  1
  Ni  Ni36  1  0.49891872  0.16441533  0.49926913  1
  Ni  Ni37  1  0.33485050  0.99762244  0.66482680  1
  Ni  Ni38  1  0.49839439  0.16540313  0.83234888  1
  Ni  Ni39  1  0.50009833  0.49896528  0.49927697  1
  Cr  Cr40  1  0.33208105  0.33277626  0.66587440  1
  Ni  Ni41  1  0.50066870  0.49804200  0.83189788  1
  Ni  Ni42  1  0.49699703  0.83240165  0.50119573  1
  Ni  Ni43  1  0.33490900  0.66616566  0.66408477  1
  Ni  Ni44  1  0.49858751  0.83232438  0.82951703  1
  Fe  Fe45  1  0.83017277  0.16536304  0.49861572  1
  Ni  Ni46  1  0.66266631  -0.00114786  0.66475117  1
  Ni  Ni47  1  0.82936153  0.16813892  0.83025044  1
  Ni  Ni48  1  0.83023871  0.49915146  0.49880211  1
  Ni  Ni49  1  0.66519659  0.33184771  0.66520373  1
  Ni  Ni50  1  0.82941274  0.49753274  0.83298452  1
  Ni  Ni51  1  0.83232508  0.83120870  0.49843994  1
  Ni  Ni52  1  0.66250425  0.66506886  0.66504227  1
  Cr  Cr53  1  0.82928548  0.82983203  0.83253878  1
" 