8183,Ni71Fe2Cr26_6,-228.64399346247, 149.937800154322,Ni71Fe2Cr26,"# generated using pymatgen
 data_Cr15FeNi38
_symmetry_space_group_name_H-M   'P 1'
_cell_length_a   7.48295550
_cell_length_b   7.48295550
_cell_length_c   10.58249715
_cell_angle_alpha   90.00000000
_cell_angle_beta   90.00000000
_cell_angle_gamma   90.00000000
_symmetry_Int_Tables_number   1
_chemical_formula_structural   Cr15FeNi38
_chemical_formula_sum   'Cr15 Fe1 Ni38'
_cell_volume   592.56293877
_cell_formula_units_Z   1
loop_
 _symmetry_equiv_pos_site_id
 _symmetry_equiv_pos_as_xyz
  1  'x, y, z'
loop_
 _atom_site_type_symbol
 _atom_site_label
 _atom_site_symmetry_multiplicity
 _atom_site_fract_x
 _atom_site_fract_y
 _atom_site_fract_z
 _atom_site_occupancy
  Ni  Ni0  1  0.99685760  0.99593288  0.99843334  1
  Ni  Ni1  1  0.16322803  0.16241518  0.16720611  1
  Ni  Ni2  1  0.00134531  0.99698721  0.33360632  1
  Ni  Ni3  1  0.99511438  0.33146246  0.99740845  1
  Cr  Cr4  1  0.16348796  0.50241914  0.16563529  1
  Ni  Ni5  1  0.99712316  0.33015582  0.33480112  1
  Ni  Ni6  1  0.99742259  0.66923268  0.99764955  1
  Ni  Ni7  1  0.16302698  0.83341245  0.16688083  1
  Ni  Ni8  1  -0.00078943  0.66954962  0.33370599  1
  Cr  Cr9  1  0.33080229  0.99695990  0.00018161  1
  Ni  Ni10  1  0.49991981  0.16658506  0.16566116  1
  Ni  Ni11  1  0.32956799  0.99767644  0.33357563  1
  Cr  Cr12  1  0.33199805  0.33222194  0.00148058  1
  Ni  Ni13  1  0.50014716  0.49897899  0.16457097  1
  Cr  Cr14  1  0.33491748  0.32991254  0.33196841  1
  Ni  Ni15  1  0.33217372  0.66821670  -0.00081357  1
  Cr  Cr16  1  0.50009680  0.83125427  0.16453321  1
  Ni  Ni17  1  0.33172966  0.66858078  0.33273886  1
  Ni  Ni18  1  0.66877610  0.99720185  0.99761448  1
  Cr  Cr19  1  0.83281628  0.16344851  0.16467325  1
  Cr  Cr20  1  0.66560078  -0.00042931  0.33404827  1
  Ni  Ni21  1  0.66755375  0.33278010  -0.00068544  1
  Cr  Cr22  1  0.83176593  0.50044423  0.16584043  1
  Ni  Ni23  1  0.66543724  0.33241130  0.33442627  1
  Ni  Ni24  1  0.66737811  0.66679855  0.99691940  1
  Ni  Ni25  1  0.83660225  0.83239907  0.16356345  1
  Cr  Cr26  1  0.66632039  0.66470864  0.33581581  1
  Ni  Ni27  1  0.16532377  0.16129177  0.49906119  1
  Ni  Ni28  1  0.99699660  0.99489423  0.66470902  1
  Cr  Cr29  1  0.16282044  0.16217510  0.82963123  1
  Cr  Cr30  1  0.16514656  0.50226541  0.49912369  1
  Cr  Cr31  1  0.99558542  0.33208286  0.66510989  1
  Cr  Cr32  1  0.16422764  0.50285716  0.83216255  1
  Ni  Ni33  1  0.16560922  0.83421022  0.49865563  1
  Ni  Ni34  1  0.99701022  0.66987103  0.66575316  1
  Ni  Ni35  1  0.16468569  0.83119889  0.83126612  1
  Ni  Ni36  1  0.49956092  0.16477828  0.50077081  1
  Ni  Ni37  1  0.33270424  0.99543723  0.66297039  1
  Cr  Cr38  1  0.50325650  0.16218973  0.82995930  1
  Ni  Ni39  1  0.50068290  0.49947023  0.50073332  1
  Ni  Ni40  1  0.33584805  0.33164487  0.66200099  1
  Cr  Cr41  1  0.50048281  0.50134114  0.83105532  1
  Ni  Ni42  1  0.49703168  0.83282886  0.50157314  1
  Ni  Ni43  1  0.33256877  0.66945856  0.66473660  1
  Ni  Ni44  1  0.50013253  0.83147744  0.83107047  1
  Ni  Ni45  1  0.83197024  0.16484953  0.49910971  1
  Ni  Ni46  1  0.66727563  0.99804219  0.66504818  1
  Ni  Ni47  1  0.83096103  0.16406290  0.83337830  1
  Ni  Ni48  1  0.83067938  0.49903918  0.49901405  1
  Ni  Ni49  1  0.66647778  0.33179239  0.66310082  1
  Ni  Ni50  1  0.83115266  0.50011410  0.83317139  1
  Ni  Ni51  1  0.83441612  0.83301143  0.50048175  1
  Fe  Fe52  1  0.66739310  0.66751881  0.66476328  1
  Ni  Ni53  1  0.83218085  0.83298061  0.83275110  1
" 