1397,Ni71Fe27Cr0_12,-241.962612848908, 215.254036859817,Ni71Fe27Cr0,"# generated using pymatgen
 data_CrFe15Ni38
_symmetry_space_group_name_H-M   'P 1'
_cell_length_a   7.41398985
_cell_length_b   7.41398985
_cell_length_c   10.48496499
_cell_angle_alpha   90.00000000
_cell_angle_beta   90.00000000
_cell_angle_gamma   90.00000000
_symmetry_Int_Tables_number   1
_chemical_formula_structural   CrFe15Ni38
_chemical_formula_sum   'Cr1 Fe15 Ni38'
_cell_volume   576.32964411
_cell_formula_units_Z   1
loop_
 _symmetry_equiv_pos_site_id
 _symmetry_equiv_pos_as_xyz
  1  'x, y, z'
loop_
 _atom_site_type_symbol
 _atom_site_label
 _atom_site_symmetry_multiplicity
 _atom_site_fract_x
 _atom_site_fract_y
 _atom_site_fract_z
 _atom_site_occupancy
  Fe  Fe0  1  1.00341927  1.00345895  1.00283216  1
  Ni  Ni1  1  0.17031166  0.17046251  0.17051192  1
  Fe  Fe2  1  0.00438722  0.00384937  0.33720111  1
  Ni  Ni3  1  0.00402657  0.33678193  1.00313153  1
  Ni  Ni4  1  0.17059876  0.50247763  0.17036397  1
  Ni  Ni5  1  0.00371444  0.33694269  0.33738747  1
  Ni  Ni6  1  0.00400233  0.67096714  0.00395547  1
  Ni  Ni7  1  0.16920450  0.83779870  0.17040541  1
  Ni  Ni8  1  0.00369203  0.67054589  0.33644427  1
  Fe  Fe9  1  0.33591150  0.00419509  1.00311555  1
  Fe  Fe10  1  0.50312179  0.17255846  0.17024679  1
  Ni  Ni11  1  0.33567327  0.00472445  0.33794411  1
  Ni  Ni12  1  0.33664201  0.33676847  0.00460360  1
  Ni  Ni13  1  0.50409831  0.50249052  0.17028487  1
  Ni  Ni14  1  0.33684723  0.33615771  0.33624843  1
  Ni  Ni15  1  0.33518591  0.66949309  1.00318600  1
  Cr  Cr16  1  0.50367337  0.83500528  0.17007688  1
  Ni  Ni17  1  0.33539047  0.66985578  0.33755058  1
  Ni  Ni18  1  0.67153613  0.00444601  1.00286502  1
  Fe  Fe19  1  0.83729523  0.17107929  0.17001962  1
  Fe  Fe20  1  0.67095543  0.00428727  0.33768933  1
  Ni  Ni21  1  0.67006545  0.33569972  0.00393579  1
  Ni  Ni22  1  0.83603746  0.50359834  0.17072764  1
  Ni  Ni23  1  0.67017374  0.33666080  0.33626785  1
  Ni  Ni24  1  0.67154278  0.67058925  1.00245684  1
  Ni  Ni25  1  0.83775184  0.83635922  0.17005075  1
  Ni  Ni26  1  0.67165277  0.66937404  0.33763017  1
  Ni  Ni27  1  0.16988333  0.17029726  0.50376603  1
  Ni  Ni28  1  1.00283526  1.00302189  0.67043292  1
  Ni  Ni29  1  0.16999925  0.16973689  0.83645697  1
  Ni  Ni30  1  0.17100233  0.50274467  0.50357522  1
  Fe  Fe31  1  1.00287369  0.33696498  0.66995048  1
  Fe  Fe32  1  0.16960098  0.50434288  0.83713390  1
  Fe  Fe33  1  0.16979257  0.83598054  0.50355569  1
  Ni  Ni34  1  0.00393641  0.67163385  0.67033719  1
  Ni  Ni35  1  0.17165094  0.83806156  0.83710609  1
  Fe  Fe36  1  0.50364605  0.17208545  0.50348577  1
  Fe  Fe37  1  0.33686793  1.00303708  0.67022159  1
  Fe  Fe38  1  0.50457127  0.16960960  0.83700240  1
  Ni  Ni39  1  0.50389473  0.50472900  0.50335268  1
  Ni  Ni40  1  0.33716141  0.33690923  0.66988294  1
  Fe  Fe41  1  0.50389771  0.50399139  0.83687102  1
  Fe  Fe42  1  0.50358104  0.83613330  0.50386123  1
  Ni  Ni43  1  0.33608526  0.66972439  0.66999826  1
  Ni  Ni44  1  0.50355692  0.83632780  0.83663801  1
  Ni  Ni45  1  0.83759208  0.17061686  0.50359351  1
  Ni  Ni46  1  0.67154423  0.00409990  0.66990651  1
  Ni  Ni47  1  0.83750280  0.17080514  0.83697957  1
  Ni  Ni48  1  0.83583597  0.50306490  0.50352496  1
  Ni  Ni49  1  0.66963372  0.33580902  0.67053050  1
  Ni  Ni50  1  0.83576610  0.50326154  0.83648142  1
  Fe  Fe51  1  0.83736099  0.83611097  0.50400854  1
  Ni  Ni52  1  0.67071053  0.67082653  0.67064757  1
  Ni  Ni53  1  0.83552887  0.83666961  0.83678975  1
" 