1861,Ni71Fe27Cr0_5,-241.902286800212, 215.135667476639,Ni71Fe27Cr0,"# generated using pymatgen
 data_CrFe15Ni38
_symmetry_space_group_name_H-M   'P 1'
_cell_length_a   7.41456314
_cell_length_b   7.41456314
_cell_length_c   10.48577575
_cell_angle_alpha   90.00000000
_cell_angle_beta   90.00000000
_cell_angle_gamma   90.00000000
_symmetry_Int_Tables_number   1
_chemical_formula_structural   CrFe15Ni38
_chemical_formula_sum   'Cr1 Fe15 Ni38'
_cell_volume   576.46334962
_cell_formula_units_Z   1
loop_
 _symmetry_equiv_pos_site_id
 _symmetry_equiv_pos_as_xyz
  1  'x, y, z'
loop_
 _atom_site_type_symbol
 _atom_site_label
 _atom_site_symmetry_multiplicity
 _atom_site_fract_x
 _atom_site_fract_y
 _atom_site_fract_z
 _atom_site_occupancy
  Ni  Ni0  1  0.00475665  1.00170638  1.00297618  1
  Ni  Ni1  1  0.17162082  0.17100824  0.17048293  1
  Ni  Ni2  1  0.00356745  1.00263376  0.33753239  1
  Fe  Fe3  1  0.00388232  0.33762799  1.00277421  1
  Ni  Ni4  1  0.16962592  0.50374678  0.16986307  1
  Ni  Ni5  1  0.00513098  0.33688632  0.33722640  1
  Ni  Ni6  1  1.00256432  0.67143996  1.00301501  1
  Fe  Fe7  1  0.17026788  0.83656841  0.17031832  1
  Ni  Ni8  1  0.00379741  0.67099075  0.33809315  1
  Ni  Ni9  1  0.33645365  0.00485173  0.00415188  1
  Ni  Ni10  1  0.50196275  0.16917721  0.17011475  1
  Fe  Fe11  1  0.33556557  1.00332118  0.33625233  1
  Ni  Ni12  1  0.33818793  0.33641349  1.00323867  1
  Ni  Ni13  1  0.50270402  0.50395830  0.17062430  1
  Ni  Ni14  1  0.33757807  0.33746580  0.33795533  1
  Fe  Fe15  1  0.33768847  0.67067954  1.00322571  1
  Ni  Ni16  1  0.50280908  0.83750638  0.16967171  1
  Ni  Ni17  1  0.33752251  0.66933297  0.33600909  1
  Ni  Ni18  1  0.66942861  1.00245438  1.00184946  1
  Cr  Cr19  1  0.83653418  0.17092935  0.16925865  1
  Fe  Fe20  1  0.66920639  1.00252805  0.33748419  1
  Ni  Ni21  1  0.66736642  0.33849792  1.00310313  1
  Ni  Ni22  1  0.83846473  0.50468224  0.17015262  1
  Fe  Fe23  1  0.67015779  0.33847572  0.33753945  1
  Ni  Ni24  1  0.67059358  0.66957412  0.00369268  1
  Fe  Fe25  1  0.83673985  0.83513885  0.16970117  1
  Fe  Fe26  1  0.67092540  0.66984072  0.33690502  1
  Fe  Fe27  1  0.16880725  0.16955488  0.50255264  1
  Ni  Ni28  1  0.00390679  0.00394099  0.66990899  1
  Fe  Fe29  1  0.16987527  0.16978035  0.83791287  1
  Ni  Ni30  1  0.16936745  0.50449254  0.50353435  1
  Ni  Ni31  1  1.00285037  0.33467848  0.67046493  1
  Ni  Ni32  1  0.16981035  0.50454110  0.83737130  1
  Ni  Ni33  1  0.17105952  0.83508657  0.50311040  1
  Fe  Fe34  1  1.00293518  0.66945865  0.67031515  1
  Ni  Ni35  1  0.17067126  0.83576033  0.83719040  1
  Ni  Ni36  1  0.50430728  0.16915263  0.50269865  1
  Fe  Fe37  1  0.33743275  1.00331804  0.67079306  1
  Ni  Ni38  1  0.50488627  0.16964650  0.83786525  1
  Fe  Fe39  1  0.50385454  0.50473974  0.50387154  1
  Fe  Fe40  1  0.33699330  0.33749467  0.67040760  1
  Ni  Ni41  1  0.50304105  0.50344545  0.83679484  1
  Ni  Ni42  1  0.50242409  0.83834337  0.50385402  1
  Ni  Ni43  1  0.33818404  0.67051709  0.67077283  1
  Ni  Ni44  1  0.50297320  0.83767003  0.83694928  1
  Ni  Ni45  1  0.83583353  0.17063902  0.50329717  1
  Fe  Fe46  1  0.67080047  0.00368085  0.67046968  1
  Ni  Ni47  1  0.83585404  0.17037576  0.83717982  1
  Ni  Ni48  1  0.83927772  0.50261611  0.50340521  1
  Ni  Ni49  1  0.67021640  0.33770050  0.66982767  1
  Ni  Ni50  1  0.83764591  0.50270219  0.83718404  1
  Ni  Ni51  1  0.83707495  0.83724119  0.50347337  1
  Ni  Ni52  1  0.66887271  0.66966429  0.66991865  1
  Ni  Ni53  1  0.83706285  0.83744345  0.83678576  1
" 