7468,Ni72Fe2Cr25_11,-228.792978196915, 152.7233896171,Ni72Fe2Cr25,"# generated using pymatgen
 data_Cr15FeNi38
_symmetry_space_group_name_H-M   'P 1'
_cell_length_a   7.47932307
_cell_length_b   7.47932307
_cell_length_c   10.57736013
_cell_angle_alpha   90.00000000
_cell_angle_beta   90.00000000
_cell_angle_gamma   90.00000000
_symmetry_Int_Tables_number   1
_chemical_formula_structural   Cr15FeNi38
_chemical_formula_sum   'Cr15 Fe1 Ni38'
_cell_volume   591.70042008
_cell_formula_units_Z   1
loop_
 _symmetry_equiv_pos_site_id
 _symmetry_equiv_pos_as_xyz
  1  'x, y, z'
loop_
 _atom_site_type_symbol
 _atom_site_label
 _atom_site_symmetry_multiplicity
 _atom_site_fract_x
 _atom_site_fract_y
 _atom_site_fract_z
 _atom_site_occupancy
  Cr  Cr0  1  0.99797159  0.00280224  -0.00038757  1
  Ni  Ni1  1  0.16599663  0.16587069  0.16746226  1
  Ni  Ni2  1  0.00035501  0.00161167  0.33334878  1
  Ni  Ni3  1  0.99820519  0.32942810  -0.00051399  1
  Cr  Cr4  1  0.16813322  0.49749071  0.16472922  1
  Fe  Fe5  1  -0.00038579  0.32851979  0.33409343  1
  Cr  Cr6  1  -0.00034586  0.66535438  0.99768309  1
  Ni  Ni7  1  0.16983299  0.83444779  0.16782616  1
  Cr  Cr8  1  0.00010256  0.66667489  0.33544260  1
  Cr  Cr9  1  0.33511441  0.00041335  0.00059635  1
  Ni  Ni10  1  0.50035457  0.16484489  0.16637708  1
  Ni  Ni11  1  0.33210650  -0.00004907  0.33241430  1
  Ni  Ni12  1  0.33353899  0.33103925  0.99783423  1
  Cr  Cr13  1  0.49859696  0.49815586  0.16655767  1
  Ni  Ni14  1  0.33330729  0.33031447  0.33442725  1
  Ni  Ni15  1  0.33475011  0.66569773  0.00005185  1
  Ni  Ni16  1  0.49712873  0.83476925  0.16767468  1
  Ni  Ni17  1  0.33404342  0.66731354  0.33344430  1
  Ni  Ni18  1  0.66482369  0.00271394  0.99875567  1
  Ni  Ni19  1  0.83120536  0.16624541  0.16643293  1
  Ni  Ni20  1  0.66503777  0.00095536  0.33245464  1
  Ni  Ni21  1  0.66585480  0.32880489  0.99681601  1
  Cr  Cr22  1  0.83091231  0.49420825  0.16671052  1
  Ni  Ni23  1  0.66511210  0.33031922  0.33463856  1
  Cr  Cr24  1  0.66341986  0.66727242  0.99626177  1
  Cr  Cr25  1  0.82965239  0.83651144  0.16762797  1
  Ni  Ni26  1  0.66322534  0.66625866  0.33574112  1
  Ni  Ni27  1  0.16709338  0.16444312  0.49871640  1
  Ni  Ni28  1  0.00002407  0.99877659  0.66498834  1
  Ni  Ni29  1  0.16672404  0.16695149  0.83158103  1
  Ni  Ni30  1  0.16721822  0.49849091  0.49823112  1
  Cr  Cr31  1  0.99800205  0.33160644  0.66410661  1
  Cr  Cr32  1  0.16738445  0.49666384  0.83405624  1
  Ni  Ni33  1  0.16563822  0.83440409  0.49934709  1
  Ni  Ni34  1  0.99714763  0.66741588  0.66424434  1
  Cr  Cr35  1  0.16578621  0.83454785  0.82972001  1
  Ni  Ni36  1  0.49832701  0.16699994  0.49868056  1
  Ni  Ni37  1  0.33131864  0.00263505  0.66468825  1
  Ni  Ni38  1  0.49956291  0.16796359  0.83254482  1
  Ni  Ni39  1  0.49912555  0.49680732  0.49731743  1
  Ni  Ni40  1  0.33508909  0.32931151  0.66529024  1
  Ni  Ni41  1  0.50025223  0.49575765  0.83378676  1
  Ni  Ni42  1  0.49816995  0.83371466  0.49544580  1
  Cr  Cr43  1  0.33384057  0.66523239  0.66359433  1
  Ni  Ni44  1  0.50022952  0.83383941  0.83441439  1
  Ni  Ni45  1  0.83215906  0.16541441  0.49681046  1
  Cr  Cr46  1  0.66507025  0.00143010  0.66649736  1
  Ni  Ni47  1  0.83116800  0.16668182  0.83436983  1
  Ni  Ni48  1  0.83114161  0.49831162  0.49839482  1
  Ni  Ni49  1  0.66398543  0.33256387  0.66622031  1
  Ni  Ni50  1  0.83054336  0.49684874  0.83268279  1
  Ni  Ni51  1  0.83366222  0.83367553  0.49888455  1
  Cr  Cr52  1  0.66755243  0.66320840  0.66536744  1
  Ni  Ni53  1  0.83141992  0.83400080  0.83120395  1
" 