2132,Ni72Fe2Cr25_4,-228.548652126502, 149.447064076394,Ni72Fe2Cr25,"# generated using pymatgen
 data_Cr15FeNi38
_symmetry_space_group_name_H-M   'P 1'
_cell_length_a   7.48238494
_cell_length_b   7.48238494
_cell_length_c   10.58169026
_cell_angle_alpha   90.00000000
_cell_angle_beta   90.00000000
_cell_angle_gamma   90.00000000
_symmetry_Int_Tables_number   1
_chemical_formula_structural   Cr15FeNi38
_chemical_formula_sum   'Cr15 Fe1 Ni38'
_cell_volume   592.42740355
_cell_formula_units_Z   1
loop_
 _symmetry_equiv_pos_site_id
 _symmetry_equiv_pos_as_xyz
  1  'x, y, z'
loop_
 _atom_site_type_symbol
 _atom_site_label
 _atom_site_symmetry_multiplicity
 _atom_site_fract_x
 _atom_site_fract_y
 _atom_site_fract_z
 _atom_site_occupancy
  Cr  Cr0  1  -0.00042990  0.00018854  0.99896291  1
  Ni  Ni1  1  0.16320328  0.16725169  0.16724486  1
  Ni  Ni2  1  0.99722075  0.00081583  0.33320211  1
  Ni  Ni3  1  0.99824197  0.33314159  -0.00041327  1
  Ni  Ni4  1  0.16495605  0.49786219  0.16747351  1
  Ni  Ni5  1  -0.00027439  0.33023542  0.33033631  1
  Cr  Cr6  1  0.99791068  0.66322138  -0.00068299  1
  Cr  Cr7  1  0.16873195  0.83204795  0.16800134  1
  Ni  Ni8  1  0.99882490  0.66586393  0.33034611  1
  Ni  Ni9  1  0.33440590  0.99765925  0.99663157  1
  Cr  Cr10  1  0.50071204  0.16401617  0.16535709  1
  Ni  Ni11  1  0.33292811  0.00051967  0.33329045  1
  Cr  Cr12  1  0.33088807  0.33266297  0.99773316  1
  Ni  Ni13  1  0.49936872  0.50105100  0.16564055  1
  Ni  Ni14  1  0.33194559  0.33211234  0.33297684  1
  Ni  Ni15  1  0.33534424  0.66631138  0.99781732  1
  Ni  Ni16  1  0.49958410  0.83131448  0.16440543  1
  Ni  Ni17  1  0.33327352  0.66427303  0.33161637  1
  Ni  Ni18  1  0.66357119  0.99696385  -0.00080244  1
  Ni  Ni19  1  0.83308776  0.16710604  0.16677396  1
  Ni  Ni20  1  0.66673797  -0.00035170  0.33342263  1
  Ni  Ni21  1  0.66686317  0.33422731  0.99889145  1
  Ni  Ni22  1  0.83260414  0.49664176  0.16508477  1
  Ni  Ni23  1  0.66525713  0.33052729  0.33258346  1
  Ni  Ni24  1  0.66386552  0.66568984  0.99837276  1
  Ni  Ni25  1  0.82989159  0.83316293  0.16630212  1
  Cr  Cr26  1  0.66563800  0.66678755  0.33191851  1
  Ni  Ni27  1  0.16344615  0.16505456  0.49784974  1
  Ni  Ni28  1  -0.00093310  0.00049059  0.66515379  1
  Ni  Ni29  1  0.16478594  0.16493726  0.83184851  1
  Cr  Cr30  1  0.16697084  0.49850334  0.49732062  1
  Ni  Ni31  1  0.00027367  0.32980163  0.66699967  1
  Ni  Ni32  1  0.16513060  0.49983936  0.83209650  1
  Cr  Cr33  1  0.16614401  0.83307396  0.49711085  1
  Cr  Cr34  1  0.99746755  0.66699389  0.66825381  1
  Ni  Ni35  1  0.16884718  0.83210472  0.83184846  1
  Ni  Ni36  1  0.49970494  0.16518557  0.49557775  1
  Cr  Cr37  1  0.33154963  -0.00027510  0.66677276  1
  Ni  Ni38  1  0.49859088  0.16401804  0.83502811  1
  Ni  Ni39  1  0.49847617  0.50012367  0.49871501  1
  Cr  Cr40  1  0.33189414  0.33249530  0.66615610  1
  Ni  Ni41  1  0.50025581  0.50262403  0.83253446  1
  Ni  Ni42  1  0.49962463  0.83164925  0.49826817  1
  Ni  Ni43  1  0.33569659  0.66530437  0.66746099  1
  Ni  Ni44  1  0.49753106  0.83027404  0.83420997  1
  Ni  Ni45  1  0.83375470  0.16385040  0.49713619  1
  Cr  Cr46  1  0.66626954  0.99644315  0.66363114  1
  Cr  Cr47  1  0.83238473  0.16791538  0.83320086  1
  Cr  Cr48  1  0.83182510  0.49732483  0.49901916  1
  Cr  Cr49  1  0.66406903  0.33395404  0.66466325  1
  Ni  Ni50  1  0.83156120  0.49883337  0.83320277  1
  Ni  Ni51  1  0.83122721  0.83558434  0.49900121  1
  Ni  Ni52  1  0.66339347  0.66652820  0.66674680  1
  Fe  Fe53  1  0.83036189  0.83071980  0.83236206  1
" 