2115,Ni72Fe7Cr20_4,-231.636194662492, 168.833576825222,Ni72Fe7Cr20,"# generated using pymatgen
 data_Cr4FeNi13
_symmetry_space_group_name_H-M   'P 1'
_cell_length_a   7.46494875
_cell_length_b   7.46494875
_cell_length_c   10.55703177
_cell_angle_alpha   90.00000000
_cell_angle_beta   90.00000000
_cell_angle_gamma   90.00000000
_symmetry_Int_Tables_number   1
_chemical_formula_structural   Cr4FeNi13
_chemical_formula_sum   'Cr12 Fe3 Ni39'
_cell_volume   588.29545042
_cell_formula_units_Z   3
loop_
 _symmetry_equiv_pos_site_id
 _symmetry_equiv_pos_as_xyz
  1  'x, y, z'
loop_
 _atom_site_type_symbol
 _atom_site_label
 _atom_site_symmetry_multiplicity
 _atom_site_fract_x
 _atom_site_fract_y
 _atom_site_fract_z
 _atom_site_occupancy
  Ni  Ni0  1  0.99816668  0.00131529  0.99852663  1
  Ni  Ni1  1  0.16617706  0.16733661  0.16756256  1
  Ni  Ni2  1  0.99904717  0.00281660  0.33520865  1
  Ni  Ni3  1  0.99947507  0.33244901  0.00067054  1
  Ni  Ni4  1  0.16415329  0.49824518  0.16684759  1
  Ni  Ni5  1  0.00046975  0.33126942  0.33288873  1
  Ni  Ni6  1  0.00070306  0.66645293  0.99898719  1
  Cr  Cr7  1  0.16559729  0.83382439  0.16531924  1
  Cr  Cr8  1  0.99896814  0.66658385  0.33540676  1
  Fe  Fe9  1  0.33386663  0.99989398  1.00012409  1
  Ni  Ni10  1  0.50088583  0.16474791  0.16799671  1
  Ni  Ni11  1  0.33266415  0.00160927  0.33183348  1
  Cr  Cr12  1  0.33255262  0.33326622  0.99972632  1
  Cr  Cr13  1  0.50059354  0.49976024  0.16905080  1
  Ni  Ni14  1  0.33089667  0.33190584  0.33336244  1
  Ni  Ni15  1  0.33218220  0.66806951  0.99883451  1
  Ni  Ni16  1  0.50094410  0.83644997  0.16766276  1
  Ni  Ni17  1  0.33323348  0.66693702  0.33301929  1
  Ni  Ni18  1  0.66819418  0.00087093  0.00140663  1
  Fe  Fe19  1  0.83465031  0.16636821  0.16663014  1
  Ni  Ni20  1  0.66878017  0.00029750  0.33138286  1
  Ni  Ni21  1  0.66972034  0.33065992  0.00026999  1
  Ni  Ni22  1  0.83543559  0.49889826  0.16659739  1
  Ni  Ni23  1  0.66933077  0.33161840  0.33225289  1
  Cr  Cr24  1  0.66678879  0.66884189  0.99936886  1
  Ni  Ni25  1  0.83265771  0.83415874  0.16686138  1
  Ni  Ni26  1  0.66788590  0.66837349  0.33298116  1
  Ni  Ni27  1  0.16623615  0.16554983  0.49974230  1
  Ni  Ni28  1  0.99966796  0.00062552  0.66671887  1
  Ni  Ni29  1  0.16515591  0.16535791  0.83308129  1
  Ni  Ni30  1  0.16663526  0.49792849  0.49731300  1
  Cr  Cr31  1  0.00081747  0.33130014  0.66609399  1
  Ni  Ni32  1  0.16495892  0.50000806  0.83586523  1
  Ni  Ni33  1  0.16597608  0.83693329  0.49951825  1
  Cr  Cr34  1  0.99897718  0.66883751  0.66598125  1
  Ni  Ni35  1  0.16628399  0.83514411  0.83536605  1
  Cr  Cr36  1  0.50025192  0.16666372  0.50075401  1
  Ni  Ni37  1  0.33078550  0.00072356  0.66832863  1
  Cr  Cr38  1  0.50177118  0.16570429  0.83137049  1
  Cr  Cr39  1  0.50195634  0.49848467  0.50006013  1
  Ni  Ni40  1  0.33192628  0.33266524  0.66730930  1
  Fe  Fe41  1  0.50123757  0.50047701  0.83283247  1
  Cr  Cr42  1  0.50101863  0.83514568  0.49838953  1
  Cr  Cr43  1  0.33220315  0.66659636  0.66831730  1
  Ni  Ni44  1  0.50026426  0.83486608  0.83404822  1
  Ni  Ni45  1  0.83398219  0.16624479  0.49912523  1
  Ni  Ni46  1  0.66987943  0.99926790  0.66764828  1
  Ni  Ni47  1  0.83413055  0.16644291  0.83482697  1
  Ni  Ni48  1  0.83228167  0.49894357  0.49910947  1
  Ni  Ni49  1  0.66839002  0.33373353  0.66835373  1
  Ni  Ni50  1  0.83368211  0.49926084  0.83446639  1
  Ni  Ni51  1  0.83328566  0.83532315  0.50061912  1
  Ni  Ni52  1  0.66802216  0.66760520  0.66850649  1
  Ni  Ni53  1  0.83379333  0.83473744  0.83306578  1
" 