3516,Ni72Fe5Cr21_2,-231.721754485856, 167.599610307939,Ni72Fe5Cr21,"# generated using pymatgen
 data_Cr4FeNi13
_symmetry_space_group_name_H-M   'P 1'
_cell_length_a   7.46544641
_cell_length_b   7.46544641
_cell_length_c   10.55773557
_cell_angle_alpha   90.00000000
_cell_angle_beta   90.00000000
_cell_angle_gamma   90.00000000
_symmetry_Int_Tables_number   1
_chemical_formula_structural   Cr4FeNi13
_chemical_formula_sum   'Cr12 Fe3 Ni39'
_cell_volume   588.41311633
_cell_formula_units_Z   3
loop_
 _symmetry_equiv_pos_site_id
 _symmetry_equiv_pos_as_xyz
  1  'x, y, z'
loop_
 _atom_site_type_symbol
 _atom_site_label
 _atom_site_symmetry_multiplicity
 _atom_site_fract_x
 _atom_site_fract_y
 _atom_site_fract_z
 _atom_site_occupancy
  Cr  Cr0  1  0.99943533  0.00028898  0.00267498  1
  Ni  Ni1  1  0.16779696  0.16542232  0.16801095  1
  Ni  Ni2  1  0.00169595  0.00023042  0.33365476  1
  Ni  Ni3  1  0.99912016  0.33475452  0.99883429  1
  Cr  Cr4  1  0.16704376  0.49887015  0.16564688  1
  Ni  Ni5  1  0.99995060  0.33115010  0.33425197  1
  Ni  Ni6  1  0.00181719  0.66552139  0.99899761  1
  Ni  Ni7  1  0.16671431  0.83559992  0.16649387  1
  Ni  Ni8  1  0.00070705  0.66893395  0.33423691  1
  Ni  Ni9  1  0.33637463  0.99861224  0.00104915  1
  Ni  Ni10  1  0.49881175  0.16741133  0.16561083  1
  Ni  Ni11  1  0.33184971  0.00065389  0.33327714  1
  Ni  Ni12  1  0.33463701  0.33339157  0.00179554  1
  Ni  Ni13  1  0.50135128  0.49930446  0.16630139  1
  Fe  Fe14  1  0.33380971  0.33053612  0.33377851  1
  Ni  Ni15  1  0.33336142  0.66829635  0.99945196  1
  Ni  Ni16  1  0.49999830  0.83358316  0.16459460  1
  Cr  Cr17  1  0.33403098  0.66781784  0.33471650  1
  Ni  Ni18  1  0.66373996  0.00134893  0.00046670  1
  Ni  Ni19  1  0.83370524  0.16685429  0.16667630  1
  Cr  Cr20  1  0.66726913  0.00103407  0.33310287  1
  Ni  Ni21  1  0.66657753  0.33173051  0.99982060  1
  Cr  Cr22  1  0.83177563  0.50073196  0.16620554  1
  Ni  Ni23  1  0.66566017  0.33289111  0.33347245  1
  Ni  Ni24  1  0.66513516  0.66726062  0.00195933  1
  Ni  Ni25  1  0.83363451  0.83309952  0.16741751  1
  Fe  Fe26  1  0.66721846  0.66726092  0.33346155  1
  Ni  Ni27  1  0.16557322  0.16593350  0.49802936  1
  Ni  Ni28  1  0.99774697  1.00007041  0.66409019  1
  Cr  Cr29  1  0.16657559  0.16715697  0.83448344  1
  Fe  Fe30  1  0.16556498  0.49952376  0.49986859  1
  Ni  Ni31  1  0.99759151  0.33356936  0.66722962  1
  Ni  Ni32  1  0.16317898  0.50162067  0.83446824  1
  Ni  Ni33  1  0.16446053  0.83518986  0.49958898  1
  Ni  Ni34  1  0.00028239  0.66668542  0.66705218  1
  Ni  Ni35  1  0.16759737  0.83082601  0.83429194  1
  Ni  Ni36  1  0.49983251  0.16800819  0.49979786  1
  Cr  Cr37  1  0.33480722  0.99854297  0.66643995  1
  Ni  Ni38  1  0.50289794  0.16533563  0.83489014  1
  Ni  Ni39  1  0.50150741  0.49926995  0.49893841  1
  Cr  Cr40  1  0.33376081  0.33423174  0.66442679  1
  Cr  Cr41  1  0.50200870  0.50010888  0.83527441  1
  Ni  Ni42  1  0.50105073  0.83300811  0.50085174  1
  Cr  Cr43  1  0.33235850  0.66754474  0.66670695  1
  Ni  Ni44  1  0.49984342  0.83486875  0.83488741  1
  Ni  Ni45  1  0.83490767  0.16640937  0.50161972  1
  Ni  Ni46  1  0.66789134  0.00135478  0.66626597  1
  Ni  Ni47  1  0.83132153  0.16980177  0.83201284  1
  Cr  Cr48  1  0.83257718  0.50073229  0.50045447  1
  Ni  Ni49  1  0.66896469  0.33137668  0.66703938  1
  Ni  Ni50  1  0.83536612  0.49861789  0.83347534  1
  Ni  Ni51  1  0.83485665  0.83353568  0.50087938  1
  Ni  Ni52  1  0.66751085  0.66761447  0.66489366  1
  Cr  Cr53  1  0.83253428  0.83226249  0.83187331  1
" 