4418,Ni72Fe7Cr20_11,-231.686135688245, 165.644480434595,Ni72Fe7Cr20,"# generated using pymatgen
 data_Cr4FeNi13
_symmetry_space_group_name_H-M   'P 1'
_cell_length_a   7.46551810
_cell_length_b   7.46551810
_cell_length_c   10.55783694
_cell_angle_alpha   90.00000000
_cell_angle_beta   90.00000000
_cell_angle_gamma   90.00000000
_symmetry_Int_Tables_number   1
_chemical_formula_structural   Cr4FeNi13
_chemical_formula_sum   'Cr12 Fe3 Ni39'
_cell_volume   588.43006679
_cell_formula_units_Z   3
loop_
 _symmetry_equiv_pos_site_id
 _symmetry_equiv_pos_as_xyz
  1  'x, y, z'
loop_
 _atom_site_type_symbol
 _atom_site_label
 _atom_site_symmetry_multiplicity
 _atom_site_fract_x
 _atom_site_fract_y
 _atom_site_fract_z
 _atom_site_occupancy
  Cr  Cr0  1  0.00162541  0.99965940  0.99929069  1
  Ni  Ni1  1  0.16983337  0.16637322  0.16840311  1
  Cr  Cr2  1  0.00105686  0.00022293  0.33444580  1
  Cr  Cr3  1  0.00307276  0.33301920  0.99764258  1
  Cr  Cr4  1  0.16481420  0.50013262  0.16872047  1
  Ni  Ni5  1  0.00093886  0.33469084  0.33603934  1
  Ni  Ni6  1  0.99881008  0.66851419  0.99975374  1
  Ni  Ni7  1  0.16736674  0.83333358  0.16851751  1
  Ni  Ni8  1  0.99980237  0.66591845  0.33468240  1
  Ni  Ni9  1  0.33310102  0.00090750  0.00031442  1
  Cr  Cr10  1  0.49771633  0.16663985  0.16592688  1
  Ni  Ni11  1  0.33176110  0.99853561  0.33342204  1
  Ni  Ni12  1  0.33550918  0.33236480  0.99707626  1
  Ni  Ni13  1  0.50103240  0.49956698  0.16704548  1
  Ni  Ni14  1  0.33113269  0.33528254  0.33452630  1
  Cr  Cr15  1  0.33379878  0.66508747  0.99929746  1
  Ni  Ni16  1  0.49870454  0.83359696  0.16640154  1
  Ni  Ni17  1  0.33328040  0.66646922  0.33529153  1
  Ni  Ni18  1  0.66698585  0.99905177  0.99861397  1
  Cr  Cr19  1  0.83275578  0.17018737  0.16799415  1
  Cr  Cr20  1  0.66714878  0.99632490  0.33621082  1
  Ni  Ni21  1  0.66516334  0.33512605  0.99958622  1
  Ni  Ni22  1  0.83242919  0.50260608  0.16717687  1
  Fe  Fe23  1  0.66590798  0.33599314  0.33511615  1
  Ni  Ni24  1  0.66691631  0.66678731  0.00223202  1
  Ni  Ni25  1  0.83373656  0.83026401  0.16384590  1
  Cr  Cr26  1  0.66448515  0.66646996  0.33361787  1
  Ni  Ni27  1  0.16726276  0.16766793  0.50011097  1
  Ni  Ni28  1  0.00046588  0.00112493  0.66667639  1
  Ni  Ni29  1  0.16968208  0.16634682  0.83147957  1
  Ni  Ni30  1  0.16591502  0.50002291  0.50060278  1
  Ni  Ni31  1  0.00160135  0.33148481  0.66574107  1
  Ni  Ni32  1  0.16779805  0.50053756  0.83038149  1
  Ni  Ni33  1  0.16708673  0.83283288  0.50051689  1
  Fe  Fe34  1  0.00118369  0.66706581  0.66583508  1
  Ni  Ni35  1  0.16523236  0.83324469  0.83099076  1
  Cr  Cr36  1  0.49780109  0.16653865  0.50160257  1
  Ni  Ni37  1  0.33109421  0.99965885  0.66638232  1
  Ni  Ni38  1  0.50015197  0.16801496  0.83341942  1
  Ni  Ni39  1  0.49955551  0.50007310  0.50117241  1
  Ni  Ni40  1  0.33228574  0.33513655  0.66871084  1
  Ni  Ni41  1  0.50007597  0.49727553  0.83188247  1
  Ni  Ni42  1  0.49832759  0.83287397  0.50223965  1
  Ni  Ni43  1  0.33406004  0.66518439  0.66455015  1
  Cr  Cr44  1  0.50109584  0.83485905  0.83112108  1
  Fe  Fe45  1  0.83520179  0.16778275  0.50306426  1
  Ni  Ni46  1  0.66927668  0.99919698  0.66657943  1
  Ni  Ni47  1  0.83118924  0.16630179  0.83021114  1
  Ni  Ni48  1  0.83479023  0.49994726  0.49997888  1
  Ni  Ni49  1  0.66729956  0.33471653  0.66576729  1
  Cr  Cr50  1  0.83321680  0.50298823  0.83340810  1
  Ni  Ni51  1  0.83476570  0.83066586  0.50440231  1
  Ni  Ni52  1  0.66555264  0.66658459  0.66474202  1
  Ni  Ni53  1  0.83467715  0.83427835  0.83277080  1
" 