4399,Ni72Fe9Cr17_1,-232.749554248737, 172.539390464415,Ni72Fe9Cr17,"# generated using pymatgen
 data_Cr11Fe4Ni39
_symmetry_space_group_name_H-M   'P 1'
_cell_length_a   7.46467499
_cell_length_b   7.46467499
_cell_length_c   10.55664461
_cell_angle_alpha   90.00000000
_cell_angle_beta   90.00000000
_cell_angle_gamma   90.00000000
_symmetry_Int_Tables_number   1
_chemical_formula_structural   Cr11Fe4Ni39
_chemical_formula_sum   'Cr11 Fe4 Ni39'
_cell_volume   588.23072972
_cell_formula_units_Z   1
loop_
 _symmetry_equiv_pos_site_id
 _symmetry_equiv_pos_as_xyz
  1  'x, y, z'
loop_
 _atom_site_type_symbol
 _atom_site_label
 _atom_site_symmetry_multiplicity
 _atom_site_fract_x
 _atom_site_fract_y
 _atom_site_fract_z
 _atom_site_occupancy
  Ni  Ni0  1  0.99907620  0.99939378  0.00102611  1
  Ni  Ni1  1  0.16644240  0.16890605  0.16729066  1
  Fe  Fe2  1  0.00018718  0.00081937  0.33352373  1
  Ni  Ni3  1  0.00164097  0.33199671  0.00176860  1
  Ni  Ni4  1  0.16656661  0.49964351  0.16693954  1
  Ni  Ni5  1  0.00201278  0.33201180  0.33373232  1
  Ni  Ni6  1  0.00032295  0.66908812  0.00081339  1
  Fe  Fe7  1  0.16625136  0.83285026  0.16740819  1
  Ni  Ni8  1  0.00353668  0.66783315  0.33357640  1
  Cr  Cr9  1  0.33327974  0.00071361  0.99936011  1
  Ni  Ni10  1  0.50091937  0.16546241  0.16742264  1
  Ni  Ni11  1  0.33327712  0.99958650  0.33276426  1
  Ni  Ni12  1  0.33319048  0.33328537  0.99998090  1
  Cr  Cr13  1  0.49759674  0.49955337  0.16596218  1
  Ni  Ni14  1  0.33114571  0.33275700  0.33347179  1
  Ni  Ni15  1  0.33345694  0.66675072  0.00031595  1
  Ni  Ni16  1  0.50077506  0.83551941  0.16692317  1
  Ni  Ni17  1  0.33067106  0.66813467  0.33460345  1
  Ni  Ni18  1  0.66797919  0.99912635  0.00095210  1
  Ni  Ni19  1  0.83311492  0.16533743  0.16703468  1
  Ni  Ni20  1  0.66701233  0.00110555  0.33268132  1
  Ni  Ni21  1  0.66564537  0.33203646  0.00036721  1
  Cr  Cr22  1  0.83647477  0.49955445  0.16520281  1
  Ni  Ni23  1  0.66731509  0.32939898  0.33344689  1
  Ni  Ni24  1  0.66669625  0.66931345  0.99891876  1
  Ni  Ni25  1  0.83325882  0.83564472  0.16542861  1
  Cr  Cr26  1  0.66639138  0.66900609  0.33439717  1
  Ni  Ni27  1  0.16569776  0.16951759  0.49929219  1
  Cr  Cr28  1  0.99985161  0.99971940  0.66612571  1
  Ni  Ni29  1  0.16873109  0.16824806  0.83389501  1
  Ni  Ni30  1  0.16750059  0.50045202  0.50010326  1
  Ni  Ni31  1  0.00165373  0.33349374  0.66497651  1
  Cr  Cr32  1  0.16707630  0.50009619  0.83366236  1
  Ni  Ni33  1  0.16747993  0.83050977  0.49841009  1
  Ni  Ni34  1  0.00042373  0.66746299  0.66608729  1
  Ni  Ni35  1  0.16694187  0.83201196  0.83453968  1
  Cr  Cr36  1  0.50111007  0.16635989  0.49901596  1
  Cr  Cr37  1  0.33339331  0.99972270  0.66847591  1
  Ni  Ni38  1  0.49994331  0.16742466  0.83386484  1
  Fe  Fe39  1  0.49752973  0.50102295  0.50098263  1
  Ni  Ni40  1  0.33326756  0.33501135  0.66702417  1
  Fe  Fe41  1  0.49983830  0.50042001  0.83359849  1
  Ni  Ni42  1  0.50015633  0.83241342  0.50029719  1
  Ni  Ni43  1  0.33449338  0.66594220  0.66555622  1
  Ni  Ni44  1  0.50178433  0.83278139  0.83325779  1
  Ni  Ni45  1  0.83362663  0.16680032  0.49931683  1
  Ni  Ni46  1  0.66707232  0.99829731  0.66684141  1
  Cr  Cr47  1  0.83239848  0.16646219  0.83392894  1
  Cr  Cr48  1  0.83530323  0.49924523  0.50125286  1
  Ni  Ni49  1  0.66555320  0.33376106  0.66666010  1
  Cr  Cr50  1  0.83337183  0.50178702  0.83402092  1
  Ni  Ni51  1  0.83283784  0.83421750  0.50097796  1
  Ni  Ni52  1  0.66555807  0.66841928  0.66703495  1
  Ni  Ni53  1  0.83174983  0.83215235  0.83406963  1
" 