4642,Ni72Fe7Cr20_8,-231.484693005076, 161.882184187711,Ni72Fe7Cr20,"# generated using pymatgen
 data_Cr4FeNi13
_symmetry_space_group_name_H-M   'P 1'
_cell_length_a   7.46844676
_cell_length_b   7.46844676
_cell_length_c   10.56197869
_cell_angle_alpha   90.00000000
_cell_angle_beta   90.00000000
_cell_angle_gamma   90.00000000
_symmetry_Int_Tables_number   1
_chemical_formula_structural   Cr4FeNi13
_chemical_formula_sum   'Cr12 Fe3 Ni39'
_cell_volume   589.12284696
_cell_formula_units_Z   3
loop_
 _symmetry_equiv_pos_site_id
 _symmetry_equiv_pos_as_xyz
  1  'x, y, z'
loop_
 _atom_site_type_symbol
 _atom_site_label
 _atom_site_symmetry_multiplicity
 _atom_site_fract_x
 _atom_site_fract_y
 _atom_site_fract_z
 _atom_site_occupancy
  Ni  Ni0  1  0.00063286  0.00081105  0.99923830  1
  Ni  Ni1  1  0.16466079  0.16820392  0.16658966  1
  Ni  Ni2  1  0.99946067  0.00041892  0.33369567  1
  Ni  Ni3  1  0.00123644  0.33231640  0.00111988  1
  Ni  Ni4  1  0.16528072  0.49743953  0.16748817  1
  Ni  Ni5  1  0.99956947  0.33282730  0.33237576  1
  Ni  Ni6  1  0.00015291  0.66659439  0.99978852  1
  Cr  Cr7  1  0.16475584  0.83506737  0.16704686  1
  Ni  Ni8  1  0.99774147  0.66644871  0.33300830  1
  Ni  Ni9  1  0.33064192  0.00262038  0.99674489  1
  Cr  Cr10  1  0.49928908  0.16799526  0.16745208  1
  Ni  Ni11  1  0.33256308  0.00118296  0.33617105  1
  Ni  Ni12  1  0.33221592  0.33267339  0.99878767  1
  Ni  Ni13  1  0.50057075  0.49817343  0.16807004  1
  Ni  Ni14  1  0.33233739  0.33207893  0.33210674  1
  Cr  Cr15  1  0.33156023  0.66456465  0.99889733  1
  Cr  Cr16  1  0.50019688  0.83319477  0.16878249  1
  Fe  Fe17  1  0.33293629  0.66644934  0.33329555  1
  Cr  Cr18  1  0.66867623  0.00123262  0.99827251  1
  Ni  Ni19  1  0.83566820  0.16790281  0.16710403  1
  Ni  Ni20  1  0.66775617  0.99928825  0.33485031  1
  Ni  Ni21  1  0.66627331  0.33315578  0.00025696  1
  Ni  Ni22  1  0.83382898  0.49881531  0.16778251  1
  Ni  Ni23  1  0.66776850  0.33376079  0.33271768  1
  Cr  Cr24  1  0.66782749  0.66553857  0.99944199  1
  Ni  Ni25  1  0.83490439  0.83299858  0.16861540  1
  Ni  Ni26  1  0.66842649  0.66662959  0.33331453  1
  Ni  Ni27  1  0.16556101  0.16406908  0.50011060  1
  Ni  Ni28  1  0.00171828  0.99984069  0.66674622  1
  Ni  Ni29  1  0.16688999  0.16602972  0.83300473  1
  Cr  Cr30  1  0.16352020  0.49879921  0.49988988  1
  Ni  Ni31  1  0.00185005  0.33174628  0.66624451  1
  Ni  Ni32  1  0.16666301  0.49831044  0.83301443  1
  Ni  Ni33  1  0.16682709  0.83666326  0.49933668  1
  Ni  Ni34  1  0.99859939  0.66812733  0.66685420  1
  Ni  Ni35  1  0.16531471  0.83537093  0.83308256  1
  Fe  Fe36  1  0.49787057  0.16522190  0.49846522  1
  Ni  Ni37  1  0.33149859  0.00124593  0.66670703  1
  Ni  Ni38  1  0.49719709  0.16709679  0.83338238  1
  Cr  Cr39  1  0.50220750  0.50048300  0.49862143  1
  Ni  Ni40  1  0.33115134  0.33033395  0.66885461  1
  Ni  Ni41  1  0.49868138  0.49833297  0.83343857  1
  Ni  Ni42  1  0.49956261  0.83476817  0.49829872  1
  Cr  Cr43  1  0.33298708  0.66771736  0.66873798  1
  Ni  Ni44  1  0.49882632  0.83428131  0.83220492  1
  Ni  Ni45  1  0.83550608  0.16715072  0.49804293  1
  Cr  Cr46  1  0.66667832  0.99860331  0.66661475  1
  Ni  Ni47  1  0.83559678  0.16576881  0.83454586  1
  Ni  Ni48  1  0.83338372  0.49976259  0.49929073  1
  Cr  Cr49  1  0.66652732  0.33283304  0.66676298  1
  Cr  Cr50  1  0.83489318  0.49946532  0.83211645  1
  Fe  Fe51  1  0.83488321  0.83232536  0.49905081  1
  Ni  Ni52  1  0.66803502  0.66824622  0.66671839  1
  Ni  Ni53  1  0.83557949  0.83396511  0.83178934  1
" 