1312,Ni72Fe7Cr20_1,-231.447736381844, 162.860669340122,Ni72Fe7Cr20,"# generated using pymatgen
 data_Cr4FeNi13
_symmetry_space_group_name_H-M   'P 1'
_cell_length_a   7.46583946
_cell_length_b   7.46583946
_cell_length_c   10.55829143
_cell_angle_alpha   90.00000000
_cell_angle_beta   90.00000000
_cell_angle_gamma   90.00000000
_symmetry_Int_Tables_number   1
_chemical_formula_structural   Cr4FeNi13
_chemical_formula_sum   'Cr12 Fe3 Ni39'
_cell_volume   588.50606035
_cell_formula_units_Z   3
loop_
 _symmetry_equiv_pos_site_id
 _symmetry_equiv_pos_as_xyz
  1  'x, y, z'
loop_
 _atom_site_type_symbol
 _atom_site_label
 _atom_site_symmetry_multiplicity
 _atom_site_fract_x
 _atom_site_fract_y
 _atom_site_fract_z
 _atom_site_occupancy
  Ni  Ni0  1  0.99958264  0.00131015  0.99850904  1
  Ni  Ni1  1  0.16761371  0.16913704  0.16759984  1
  Ni  Ni2  1  0.99863360  0.00107572  0.33337847  1
  Ni  Ni3  1  0.00216506  0.33190162  0.00282706  1
  Ni  Ni4  1  0.16745353  0.49729694  0.16896442  1
  Ni  Ni5  1  0.00168536  0.33437415  0.33330068  1
  Cr  Cr6  1  0.99771305  0.66770545  0.00115790  1
  Cr  Cr7  1  0.16660847  0.83308375  0.17149425  1
  Ni  Ni8  1  0.99812304  0.66471166  0.33409188  1
  Cr  Cr9  1  0.33372735  0.00085945  0.00074743  1
  Ni  Ni10  1  0.49913065  0.16764705  0.16781593  1
  Fe  Fe11  1  0.33542766  0.00232773  0.33422061  1
  Ni  Ni12  1  0.33369909  0.33302464  0.00101864  1
  Ni  Ni13  1  0.50058825  0.49943669  0.16639268  1
  Ni  Ni14  1  0.33384463  0.33385904  0.33423472  1
  Cr  Cr15  1  0.33676898  0.66549826  0.00010065  1
  Ni  Ni16  1  0.50348644  0.83298733  0.16916900  1
  Ni  Ni17  1  0.33615357  0.66322533  0.33306127  1
  Ni  Ni18  1  0.66698123  0.99771098  0.00097032  1
  Cr  Cr19  1  0.83225812  0.16673976  0.16522442  1
  Ni  Ni20  1  0.66540631  0.99893390  0.33375280  1
  Ni  Ni21  1  0.66436548  0.33530252  0.00259643  1
  Ni  Ni22  1  0.83219325  0.50092549  0.16776356  1
  Ni  Ni23  1  0.66465126  0.33464159  0.33369344  1
  Ni  Ni24  1  0.66576906  0.66770428  0.00082338  1
  Ni  Ni25  1  0.83113319  0.83289672  0.16781303  1
  Ni  Ni26  1  0.66615567  0.66680762  0.33376439  1
  Ni  Ni27  1  0.16802784  0.16809022  0.50003870  1
  Ni  Ni28  1  0.00115549  0.00015658  0.66832308  1
  Ni  Ni29  1  0.16657255  0.16623527  0.83231694  1
  Ni  Ni30  1  0.16627184  0.49851469  0.49861762  1
  Ni  Ni31  1  0.00114490  0.33305137  0.66396190  1
  Cr  Cr32  1  0.16729963  0.49649291  0.83252137  1
  Cr  Cr33  1  0.16635630  0.83294357  0.49780179  1
  Ni  Ni34  1  0.99790203  0.66701227  0.66504579  1
  Fe  Fe35  1  0.16598168  0.83534053  0.83147344  1
  Ni  Ni36  1  0.49880452  0.16660291  0.50013741  1
  Ni  Ni37  1  0.33380701  0.00141451  0.66575837  1
  Cr  Cr38  1  0.50062458  0.16893369  0.83225092  1
  Ni  Ni39  1  0.50084763  0.49978827  0.50016647  1
  Fe  Fe40  1  0.33372421  0.33214742  0.66419984  1
  Ni  Ni41  1  0.50132897  0.50124674  0.83375565  1
  Ni  Ni42  1  0.50214314  0.83370170  0.49863230  1
  Cr  Cr43  1  0.33582905  0.66727512  0.66751606  1
  Ni  Ni44  1  0.50397202  0.83355672  0.83245323  1
  Cr  Cr45  1  0.83254433  0.16631382  0.50074679  1
  Ni  Ni46  1  0.66547686  0.99825032  0.66547536  1
  Cr  Cr47  1  0.83386363  0.16649761  0.83423367  1
  Ni  Ni48  1  0.83316443  0.50150304  0.50002014  1
  Ni  Ni49  1  0.66543328  0.33522068  0.66400196  1
  Cr  Cr50  1  0.83068744  0.49971550  0.83266743  1
  Ni  Ni51  1  0.83180378  0.83189569  0.50016008  1
  Ni  Ni52  1  0.66687903  0.66715691  0.66561471  1
  Ni  Ni53  1  0.83140445  0.83418627  0.83199195  1
" 