981,Ni72Fe2Cr25_0,-228.640672619142, 150.506764682355,Ni72Fe2Cr25,"# generated using pymatgen
 data_Cr15FeNi38
_symmetry_space_group_name_H-M   'P 1'
_cell_length_a   7.47781129
_cell_length_b   7.47781129
_cell_length_c   10.57522214
_cell_angle_alpha   90.00000000
_cell_angle_beta   90.00000000
_cell_angle_gamma   90.00000000
_symmetry_Int_Tables_number   1
_chemical_formula_structural   Cr15FeNi38
_chemical_formula_sum   'Cr15 Fe1 Ni38'
_cell_volume   591.34169304
_cell_formula_units_Z   1
loop_
 _symmetry_equiv_pos_site_id
 _symmetry_equiv_pos_as_xyz
  1  'x, y, z'
loop_
 _atom_site_type_symbol
 _atom_site_label
 _atom_site_symmetry_multiplicity
 _atom_site_fract_x
 _atom_site_fract_y
 _atom_site_fract_z
 _atom_site_occupancy
  Ni  Ni0  1  0.00075979  -0.00064939  0.99722656  1
  Cr  Cr1  1  0.16495284  0.16569836  0.16695055  1
  Ni  Ni2  1  0.99907958  0.99724538  0.33328749  1
  Ni  Ni3  1  0.99685677  0.33341732  0.99833529  1
  Ni  Ni4  1  0.16491519  0.50103646  0.16718529  1
  Ni  Ni5  1  0.00030047  0.33330540  0.33000987  1
  Ni  Ni6  1  0.00208296  0.66504747  0.99819244  1
  Fe  Fe7  1  0.16765319  0.83088746  0.16571327  1
  Ni  Ni8  1  0.00034937  0.66725729  0.33220263  1
  Ni  Ni9  1  0.33164977  0.99688279  0.99782970  1
  Ni  Ni10  1  0.49954417  0.16430583  0.16715082  1
  Ni  Ni11  1  0.33240858  0.99753665  0.33123061  1
  Cr  Cr12  1  0.33413397  0.33433288  0.99882293  1
  Ni  Ni13  1  0.49802380  0.50089830  0.16761163  1
  Ni  Ni14  1  0.33278844  0.33453703  0.33144217  1
  Ni  Ni15  1  0.33053222  0.66744939  -0.00059579  1
  Ni  Ni16  1  0.49630176  0.83263281  0.16789247  1
  Ni  Ni17  1  0.33243662  0.66569507  0.33091938  1
  Cr  Cr18  1  0.66544504  0.00183874  0.99850121  1
  Ni  Ni19  1  0.83309265  0.16751510  0.16603213  1
  Ni  Ni20  1  0.66635336  0.99760679  0.33098616  1
  Ni  Ni21  1  0.66771567  0.33234998  0.99917245  1
  Ni  Ni22  1  0.83493641  0.49785662  0.16585506  1
  Cr  Cr23  1  0.66434078  0.33366222  0.32952671  1
  Cr  Cr24  1  0.66486610  0.66323218  0.99856846  1
  Cr  Cr25  1  0.83327327  0.83228428  0.16786476  1
  Ni  Ni26  1  0.66513635  0.66696750  0.33258482  1
  Cr  Cr27  1  0.16620631  0.16506695  0.49783274  1
  Cr  Cr28  1  0.00090875  0.99700352  0.66686664  1
  Ni  Ni29  1  0.16501932  0.16494836  0.83283885  1
  Cr  Cr30  1  0.16636334  0.50074517  0.49859533  1
  Ni  Ni31  1  0.99755582  0.33437945  0.66966132  1
  Ni  Ni32  1  0.16376342  0.50101529  0.83249716  1
  Ni  Ni33  1  0.16543491  0.83171431  0.49776207  1
  Ni  Ni34  1  -0.00067995  0.66630574  0.66739784  1
  Ni  Ni35  1  0.16727486  0.83188107  0.83399551  1
  Cr  Cr36  1  0.49782898  0.16623100  0.49841296  1
  Ni  Ni37  1  0.33152533  0.99661778  0.66878310  1
  Ni  Ni38  1  0.49900415  0.16539775  0.83260004  1
  Ni  Ni39  1  0.49922342  0.50184692  0.49914949  1
  Cr  Cr40  1  0.33335291  0.33357129  0.66745257  1
  Ni  Ni41  1  0.50029840  0.50057380  0.83107677  1
  Cr  Cr42  1  0.49902844  0.83024315  0.49892700  1
  Ni  Ni43  1  0.33253018  0.66718512  0.66760763  1
  Ni  Ni44  1  0.49631891  0.83187035  0.83156310  1
  Cr  Cr45  1  0.83380496  0.16571570  0.49786745  1
  Cr  Cr46  1  0.66627923  0.99840988  0.66809052  1
  Ni  Ni47  1  0.83379905  0.16893726  0.83392252  1
  Cr  Cr48  1  0.83202306  0.50188542  0.50079237  1
  Ni  Ni49  1  0.66624744  0.33555747  0.66909885  1
  Ni  Ni50  1  0.83375084  0.49832246  0.83170893  1
  Ni  Ni51  1  0.83408438  0.83040630  0.49737653  1
  Ni  Ni52  1  0.66599536  0.66392780  0.66704976  1
  Ni  Ni53  1  0.83426485  0.83054655  0.83170965  1
" 