1891,Ni72Fe14Cr12_15,-235.637958510901, 188.674250498433,Ni72Fe14Cr12,"# generated using pymatgen
 data_Cr4Fe4Ni19
_symmetry_space_group_name_H-M   'P 1'
_cell_length_a   7.44376011
_cell_length_b   7.44376011
_cell_length_c   10.52706651
_cell_angle_alpha   90.00000000
_cell_angle_beta   90.00000000
_cell_angle_gamma   90.00000000
_symmetry_Int_Tables_number   1
_chemical_formula_structural   Cr4Fe4Ni19
_chemical_formula_sum   'Cr8 Fe8 Ni38'
_cell_volume   583.30017191
_cell_formula_units_Z   2
loop_
 _symmetry_equiv_pos_site_id
 _symmetry_equiv_pos_as_xyz
  1  'x, y, z'
loop_
 _atom_site_type_symbol
 _atom_site_label
 _atom_site_symmetry_multiplicity
 _atom_site_fract_x
 _atom_site_fract_y
 _atom_site_fract_z
 _atom_site_occupancy
  Ni  Ni0  1  0.00159540  1.00034286  0.00194407  1
  Ni  Ni1  1  0.16754010  0.16584438  0.16850828  1
  Ni  Ni2  1  1.00041163  0.00222606  0.33336339  1
  Cr  Cr3  1  0.00290695  0.33337482  0.00165730  1
  Cr  Cr4  1  0.16818838  0.50212843  0.16946718  1
  Ni  Ni5  1  1.00060040  0.33416526  0.33508096  1
  Fe  Fe6  1  0.00191421  0.67033419  1.00090812  1
  Ni  Ni7  1  0.16786485  0.83639747  0.16738049  1
  Ni  Ni8  1  1.00035944  0.66830149  0.33373169  1
  Fe  Fe9  1  0.33339178  1.00050075  1.00142242  1
  Cr  Cr10  1  0.50100930  0.16776960  0.16904373  1
  Ni  Ni11  1  0.33517942  1.00101836  0.33411851  1
  Ni  Ni12  1  0.33373711  0.33609257  1.00106212  1
  Ni  Ni13  1  0.50209006  0.50259165  0.16855751  1
  Ni  Ni14  1  0.33505615  0.33543763  0.33598288  1
  Fe  Fe15  1  0.33445329  0.66945718  1.00095582  1
  Ni  Ni16  1  0.50095870  0.83453848  0.16895259  1
  Ni  Ni17  1  0.33650691  0.66823637  0.33392875  1
  Ni  Ni18  1  0.67013203  0.99907086  0.00186347  1
  Ni  Ni19  1  0.83600741  0.16697785  0.16901222  1
  Ni  Ni20  1  0.66910088  1.00077752  0.33487859  1
  Cr  Cr21  1  0.66807375  0.33524440  0.00188951  1
  Ni  Ni22  1  0.83414612  0.50226516  0.17066957  1
  Ni  Ni23  1  0.66903563  0.33548865  0.33465450  1
  Cr  Cr24  1  0.66742690  0.66974988  0.00235414  1
  Ni  Ni25  1  0.83586889  0.83544867  0.16839949  1
  Fe  Fe26  1  0.66816389  0.66818496  0.33507311  1
  Ni  Ni27  1  0.16874079  0.16928256  0.50194991  1
  Ni  Ni28  1  0.00245737  0.00243265  0.66938560  1
  Ni  Ni29  1  0.16809644  0.16750568  0.83423432  1
  Fe  Fe30  1  0.16827071  0.49992446  0.50184983  1
  Ni  Ni31  1  0.00187965  0.33497259  0.66851220  1
  Ni  Ni32  1  0.16747180  0.50248115  0.83365565  1
  Cr  Cr33  1  0.16813771  0.83545256  0.50188516  1
  Ni  Ni34  1  1.00086425  0.66728836  0.67010171  1
  Ni  Ni35  1  0.16842882  0.83470728  0.83532201  1
  Ni  Ni36  1  0.50058631  0.16935324  0.50091522  1
  Ni  Ni37  1  0.33328720  1.00122163  0.66869515  1
  Cr  Cr38  1  0.50028048  0.16784177  0.83477805  1
  Ni  Ni39  1  0.50262152  0.50087724  0.50249908  1
  Ni  Ni40  1  0.33380409  0.33612908  0.66764569  1
  Fe  Fe41  1  0.49910340  0.50295758  0.83311102  1
  Ni  Ni42  1  0.50205258  0.83446062  0.50097181  1
  Ni  Ni43  1  0.33603000  0.66734310  0.66994340  1
  Ni  Ni44  1  0.49974189  0.83425384  0.83476657  1
  Ni  Ni45  1  0.83536643  0.16984788  0.50136779  1
  Cr  Cr46  1  0.66897413  1.00031194  0.66724747  1
  Fe  Fe47  1  0.83783355  0.16736328  0.83425595  1
  Ni  Ni48  1  0.83420636  0.50125404  0.50155821  1
  Ni  Ni49  1  0.66900911  0.33771759  0.66830277  1
  Ni  Ni50  1  0.83627145  0.50235407  0.83246797  1
  Ni  Ni51  1  0.83427572  0.83358894  0.50142456  1
  Ni  Ni52  1  0.66779725  0.66676736  0.66795491  1
  Fe  Fe53  1  0.83715983  0.83481237  0.83480599  1
" 