1675,Ni72Fe14Cr12_19,-235.914907938011, 189.317250012044,Ni72Fe14Cr12,"# generated using pymatgen
 data_Cr4Fe4Ni19
_symmetry_space_group_name_H-M   'P 1'
_cell_length_a   7.44427195
_cell_length_b   7.44427195
_cell_length_c   10.52779035
_cell_angle_alpha   90.00000000
_cell_angle_beta   90.00000000
_cell_angle_gamma   90.00000000
_symmetry_Int_Tables_number   1
_chemical_formula_structural   Cr4Fe4Ni19
_chemical_formula_sum   'Cr8 Fe8 Ni38'
_cell_volume   583.42050393
_cell_formula_units_Z   2
loop_
 _symmetry_equiv_pos_site_id
 _symmetry_equiv_pos_as_xyz
  1  'x, y, z'
loop_
 _atom_site_type_symbol
 _atom_site_label
 _atom_site_symmetry_multiplicity
 _atom_site_fract_x
 _atom_site_fract_y
 _atom_site_fract_z
 _atom_site_occupancy
  Ni  Ni0  1  0.00223656  0.99972778  0.00214618  1
  Ni  Ni1  1  0.16817965  0.16609156  0.16824301  1
  Ni  Ni2  1  0.00341647  0.00235300  0.33271438  1
  Cr  Cr3  1  0.00165171  0.33403085  1.00103715  1
  Ni  Ni4  1  0.17012980  0.50185458  0.16844583  1
  Fe  Fe5  1  1.00137045  0.33233802  0.33521642  1
  Ni  Ni6  1  1.00024691  0.67083328  1.00069264  1
  Ni  Ni7  1  0.16813534  0.83664196  0.16892292  1
  Cr  Cr8  1  0.00393390  0.66877463  0.33430043  1
  Ni  Ni9  1  0.33425541  0.00275187  0.00196079  1
  Ni  Ni10  1  0.50251177  0.16748015  0.16801950  1
  Ni  Ni11  1  0.33445131  1.00059773  0.33521539  1
  Fe  Fe12  1  0.33614008  0.33368719  1.00134861  1
  Ni  Ni13  1  0.50086952  0.50077354  0.16750177  1
  Cr  Cr14  1  0.33564316  0.33449312  0.33420594  1
  Cr  Cr15  1  0.33468641  0.66852603  0.00293833  1
  Ni  Ni16  1  0.50148217  0.83633646  0.16854920  1
  Fe  Fe17  1  0.33542045  0.67032644  0.33519968  1
  Fe  Fe18  1  0.66895174  1.00122059  0.00229252  1
  Ni  Ni19  1  0.83389908  0.16547958  0.16962287  1
  Ni  Ni20  1  0.66671692  0.00337260  0.33261026  1
  Ni  Ni21  1  0.66604320  0.33504780  0.00155749  1
  Cr  Cr22  1  0.83377870  0.50087336  0.16781123  1
  Ni  Ni23  1  0.66769530  0.33364508  0.33473184  1
  Ni  Ni24  1  0.66906181  0.66769480  1.00078460  1
  Ni  Ni25  1  0.83497654  0.83828536  0.16650888  1
  Cr  Cr26  1  0.66600331  0.66746163  0.33489964  1
  Ni  Ni27  1  0.16858349  0.16731827  0.50233448  1
  Ni  Ni28  1  0.00380991  1.00103020  0.66973029  1
  Ni  Ni29  1  0.16918199  0.16696745  0.83401255  1
  Ni  Ni30  1  0.16884722  0.50151894  0.50298566  1
  Ni  Ni31  1  1.00144184  0.33601969  0.66772430  1
  Ni  Ni32  1  0.16841115  0.50179739  0.83315763  1
  Ni  Ni33  1  0.17130983  0.83574874  0.50180573  1
  Ni  Ni34  1  0.00228179  0.66753786  0.66951941  1
  Ni  Ni35  1  0.16641219  0.83582466  0.83385962  1
  Fe  Fe36  1  0.50019585  0.16786065  0.50209573  1
  Ni  Ni37  1  0.33420571  1.00127875  0.66741630  1
  Ni  Ni38  1  0.50150106  0.16913171  0.83462842  1
  Ni  Ni39  1  0.50147411  0.50218627  0.50259285  1
  Ni  Ni40  1  0.33559086  0.33479791  0.66922092  1
  Ni  Ni41  1  0.50257750  0.49993667  0.83449776  1
  Ni  Ni42  1  0.49865287  0.83473501  0.50211745  1
  Ni  Ni43  1  0.33450304  0.66851320  0.66664470  1
  Fe  Fe44  1  0.50164863  0.83553113  0.83417259  1
  Cr  Cr45  1  0.83556866  0.16972882  0.50070534  1
  Fe  Fe46  1  0.66695014  0.00197077  0.66942336  1
  Ni  Ni47  1  0.83390534  0.16713425  0.83422829  1
  Ni  Ni48  1  0.83426819  0.49945838  0.50321016  1
  Ni  Ni49  1  0.66755493  0.33632384  0.66830325  1
  Ni  Ni50  1  0.83359917  0.50270446  0.83354376  1
  Cr  Cr51  1  0.83494975  0.83545765  0.50285595  1
  Fe  Fe52  1  0.66753111  0.66664684  0.66899682  1
  Ni  Ni53  1  0.83576219  0.83474768  0.83534532  1
" 