4339,Ni72Fe9Cr17_2,-232.542016860601, 168.2325895847,Ni72Fe9Cr17,"# generated using pymatgen
 data_Cr11Fe4Ni39
_symmetry_space_group_name_H-M   'P 1'
_cell_length_a   7.46346368
_cell_length_b   7.46346368
_cell_length_c   10.55493156
_cell_angle_alpha   90.00000000
_cell_angle_beta   90.00000000
_cell_angle_gamma   90.00000000
_symmetry_Int_Tables_number   1
_chemical_formula_structural   Cr11Fe4Ni39
_chemical_formula_sum   'Cr11 Fe4 Ni39'
_cell_volume   587.94441526
_cell_formula_units_Z   1
loop_
 _symmetry_equiv_pos_site_id
 _symmetry_equiv_pos_as_xyz
  1  'x, y, z'
loop_
 _atom_site_type_symbol
 _atom_site_label
 _atom_site_symmetry_multiplicity
 _atom_site_fract_x
 _atom_site_fract_y
 _atom_site_fract_z
 _atom_site_occupancy
  Ni  Ni0  1  0.00082754  0.99795910  0.99958669  1
  Cr  Cr1  1  0.16703438  0.16621985  0.16735003  1
  Fe  Fe2  1  0.00139701  0.99790310  0.33302924  1
  Ni  Ni3  1  0.99915097  0.33623098  0.99924221  1
  Ni  Ni4  1  0.16570258  0.50230599  0.16871731  1
  Ni  Ni5  1  0.00042670  0.33732051  0.33374327  1
  Ni  Ni6  1  0.99824410  0.66652933  0.99977875  1
  Ni  Ni7  1  0.16650525  0.83225096  0.16791710  1
  Ni  Ni8  1  0.00160685  0.66510084  0.33288566  1
  Ni  Ni9  1  0.33473116  0.99986073  0.99915357  1
  Ni  Ni10  1  0.50209647  0.16626502  0.16742626  1
  Ni  Ni11  1  0.33501645  0.99802812  0.33255443  1
  Cr  Cr12  1  0.33336289  0.33157994  1.00014201  1
  Ni  Ni13  1  0.50162181  0.50038798  0.16888458  1
  Ni  Ni14  1  0.33371058  0.33538194  0.33288174  1
  Cr  Cr15  1  0.33271884  0.66945870  0.00144456  1
  Ni  Ni16  1  0.50071378  0.83406661  0.16756515  1
  Ni  Ni17  1  0.33280368  0.66731034  0.33406112  1
  Ni  Ni18  1  0.66516356  0.99895153  1.00005411  1
  Cr  Cr19  1  0.83201055  0.16689783  0.16757323  1
  Ni  Ni20  1  0.66437123  0.99920813  0.33194538  1
  Ni  Ni21  1  0.66836656  0.33371233  0.00120538  1
  Fe  Fe22  1  0.83323449  0.50173651  0.16683019  1
  Ni  Ni23  1  0.66658332  0.33510472  0.33303880  1
  Ni  Ni24  1  0.67026669  0.66805845  0.00103336  1
  Fe  Fe25  1  0.83295494  0.83178879  0.16622301  1
  Ni  Ni26  1  0.66630965  0.66640711  0.33294639  1
  Cr  Cr27  1  0.16696597  0.16600788  0.49929590  1
  Ni  Ni28  1  0.00194734  0.99686872  0.66791068  1
  Fe  Fe29  1  0.16839554  0.16474847  0.83357788  1
  Ni  Ni30  1  0.16783485  0.50291758  0.49918747  1
  Cr  Cr31  1  0.00074417  0.33635512  0.66762806  1
  Ni  Ni32  1  0.16406393  0.50149935  0.83281512  1
  Ni  Ni33  1  0.16830429  0.83143871  0.50017429  1
  Ni  Ni34  1  0.00112125  0.66754912  0.66805778  1
  Ni  Ni35  1  0.16554781  0.83421110  0.83262811  1
  Cr  Cr36  1  0.50102640  0.16752497  0.50014051  1
  Ni  Ni37  1  0.33408640  0.99855321  0.66901140  1
  Ni  Ni38  1  0.50020136  0.16443717  0.83325711  1
  Ni  Ni39  1  0.50013957  0.50176096  0.50030343  1
  Ni  Ni40  1  0.33442271  0.33404944  0.66753368  1
  Cr  Cr41  1  0.50148534  0.50018571  0.83154616  1
  Ni  Ni42  1  0.49847078  0.83140012  0.50046659  1
  Ni  Ni43  1  0.33265701  0.66811704  0.66518004  1
  Ni  Ni44  1  0.50068844  0.83681778  0.83268773  1
  Cr  Cr45  1  0.83272700  0.16739991  0.49936186  1
  Ni  Ni46  1  0.66468878  0.99863398  0.66872177  1
  Cr  Cr47  1  0.83223923  0.16608143  0.83378280  1
  Ni  Ni48  1  0.83274488  0.50057309  0.49938109  1
  Ni  Ni49  1  0.66525651  0.33487408  0.66647789  1
  Ni  Ni50  1  0.83506022  0.50198357  0.83505256  1
  Cr  Cr51  1  0.83378645  0.83291984  0.50073211  1
  Ni  Ni52  1  0.66694157  0.66721280  0.66674332  1
  Ni  Ni53  1  0.83448544  0.83281871  0.83409642  1
" 