5278,Ni72Fe28_17,-235.949000874488, 198.691101463995,Ni72Fe28,"# generated using pymatgen
 data_Fe19Ni8
_symmetry_space_group_name_H-M   'P 1'
_cell_length_a   7.39840533
_cell_length_b   7.39840533
_cell_length_c   10.46292516
_cell_angle_alpha   90.00000000
_cell_angle_beta   90.00000000
_cell_angle_gamma   90.00000000
_symmetry_Int_Tables_number   1
_chemical_formula_structural   Fe19Ni8
_chemical_formula_sum   'Fe38 Ni16'
_cell_volume   572.70287126
_cell_formula_units_Z   2
loop_
 _symmetry_equiv_pos_site_id
 _symmetry_equiv_pos_as_xyz
  1  'x, y, z'
loop_
 _atom_site_type_symbol
 _atom_site_label
 _atom_site_symmetry_multiplicity
 _atom_site_fract_x
 _atom_site_fract_y
 _atom_site_fract_z
 _atom_site_occupancy
  Fe  Fe0  1  1.00427487  0.00471812  0.00480455  1
  Ni  Ni1  1  0.17216844  0.17149565  0.17170042  1
  Fe  Fe2  1  0.00619969  0.00463932  0.33772646  1
  Fe  Fe3  1  1.00427023  0.33760198  0.00503263  1
  Ni  Ni4  1  0.17139483  0.50397848  0.17119915  1
  Fe  Fe5  1  0.00589275  0.33886146  0.33755972  1
  Fe  Fe6  1  1.00382261  0.67159469  1.00381819  1
  Fe  Fe7  1  0.17153052  0.83773603  0.17205048  1
  Fe  Fe8  1  0.00605168  0.67041991  0.33885450  1
  Fe  Fe9  1  0.33820294  0.00486448  0.00486104  1
  Fe  Fe10  1  0.50376180  0.17173655  0.17165594  1
  Fe  Fe11  1  0.33766747  0.00478057  0.33803782  1
  Fe  Fe12  1  0.33803766  0.33729353  0.00508571  1
  Fe  Fe13  1  0.50305753  0.50420953  0.17218739  1
  Ni  Ni14  1  0.33720089  0.33893680  0.33720909  1
  Fe  Fe15  1  0.33834097  0.67175763  0.00562938  1
  Fe  Fe16  1  0.50369298  0.83796823  0.17106089  1
  Ni  Ni17  1  0.33720508  0.66956496  0.33857365  1
  Ni  Ni18  1  0.67207418  1.00453695  0.00493622  1
  Fe  Fe19  1  0.83879797  0.17142952  0.17100282  1
  Fe  Fe20  1  0.67005107  0.00494257  0.33794872  1
  Fe  Fe21  1  0.67160930  0.33774588  1.00449789  1
  Fe  Fe22  1  0.83902089  0.50404735  0.17114149  1
  Fe  Fe23  1  0.67019389  0.33871073  0.33856602  1
  Fe  Fe24  1  0.67175369  0.67175887  1.00367904  1
  Fe  Fe25  1  0.83869504  0.83843952  0.17040371  1
  Fe  Fe26  1  0.67033893  0.67025923  0.33868710  1
  Fe  Fe27  1  0.17221291  0.17279905  0.50412316  1
  Fe  Fe28  1  1.00435586  1.00365491  0.67138765  1
  Fe  Fe29  1  0.17050130  0.17161647  0.83850831  1
  Ni  Ni30  1  0.17119286  0.50561177  0.50495265  1
  Fe  Fe31  1  1.00374750  0.33910650  0.67132880  1
  Fe  Fe32  1  0.17034032  0.50507425  0.83776766  1
  Ni  Ni33  1  0.17118789  0.83779819  0.50445702  1
  Ni  Ni34  1  1.00387206  0.67111027  0.67101909  1
  Fe  Fe35  1  0.17003098  0.83722740  0.83730976  1
  Ni  Ni36  1  0.50464102  0.17139103  0.50434471  1
  Fe  Fe37  1  0.33834701  1.00414691  0.67101712  1
  Fe  Fe38  1  0.50589876  0.17099608  0.83730807  1
  Ni  Ni39  1  0.50502635  0.50346431  0.50484603  1
  Ni  Ni40  1  0.33719325  0.33815577  0.67101848  1
  Fe  Fe41  1  0.50551476  0.50515459  0.83724574  1
  Fe  Fe42  1  0.50449473  0.83679529  0.50469720  1
  Fe  Fe43  1  0.33818272  0.67130386  0.67019290  1
  Fe  Fe44  1  0.50645020  0.83776977  0.83816166  1
  Fe  Fe45  1  0.83773020  0.17188024  0.50461280  1
  Ni  Ni46  1  0.67197697  1.00378103  0.67117941  1
  Fe  Fe47  1  0.83751713  0.17068546  0.83830184  1
  Ni  Ni48  1  0.83769449  0.50512139  0.50461827  1
  Fe  Fe49  1  0.67136359  0.33894059  0.67085242  1
  Ni  Ni50  1  0.83758855  0.50578610  0.83835871  1
  Fe  Fe51  1  0.83768610  0.83695154  0.50582322  1
  Ni  Ni52  1  0.67285298  0.67275279  0.67129251  1
  Ni  Ni53  1  0.83759717  0.83740144  0.83787031  1
" 