4050,Ni72Fe7Cr20_10,-231.727004304887, 163.970791798889,Ni72Fe7Cr20,"# generated using pymatgen
 data_Cr4FeNi13
_symmetry_space_group_name_H-M   'P 1'
_cell_length_a   7.46537251
_cell_length_b   7.46537251
_cell_length_c   10.55763105
_cell_angle_alpha   90.00000000
_cell_angle_beta   90.00000000
_cell_angle_gamma   90.00000000
_symmetry_Int_Tables_number   1
_chemical_formula_structural   Cr4FeNi13
_chemical_formula_sum   'Cr12 Fe3 Ni39'
_cell_volume   588.39564241
_cell_formula_units_Z   3
loop_
 _symmetry_equiv_pos_site_id
 _symmetry_equiv_pos_as_xyz
  1  'x, y, z'
loop_
 _atom_site_type_symbol
 _atom_site_label
 _atom_site_symmetry_multiplicity
 _atom_site_fract_x
 _atom_site_fract_y
 _atom_site_fract_z
 _atom_site_occupancy
  Ni  Ni0  1  0.99978671  0.99923946  0.99963421  1
  Cr  Cr1  1  0.16598620  0.16610601  0.16560273  1
  Ni  Ni2  1  0.99729930  0.99851448  0.33370984  1
  Ni  Ni3  1  0.99585648  0.33312317  0.00056479  1
  Cr  Cr4  1  0.16710963  0.50206500  0.16724158  1
  Fe  Fe5  1  0.99754536  0.33411392  0.33381337  1
  Ni  Ni6  1  0.99919481  0.66797289  1.00009507  1
  Ni  Ni7  1  0.16582791  0.83236256  0.16618224  1
  Ni  Ni8  1  0.00193951  0.66764325  0.33458914  1
  Ni  Ni9  1  0.33358562  0.99693920  0.00126024  1
  Ni  Ni10  1  0.50311828  0.16797834  0.16666772  1
  Cr  Cr11  1  0.33429191  0.99720804  0.33259178  1
  Fe  Fe12  1  0.33625981  0.33430047  0.00107895  1
  Ni  Ni13  1  0.50071763  0.49882861  0.16579980  1
  Ni  Ni14  1  0.33464254  0.33586867  0.33254481  1
  Ni  Ni15  1  0.33494505  0.66950577  0.00029047  1
  Ni  Ni16  1  0.50047581  0.83353035  0.16543836  1
  Ni  Ni17  1  0.33068909  0.66638247  0.33403745  1
  Ni  Ni18  1  0.66696386  0.00027557  0.00145473  1
  Ni  Ni19  1  0.83098757  0.16634472  0.16719779  1
  Ni  Ni20  1  0.66939914  0.00246672  0.33287238  1
  Ni  Ni21  1  0.66849439  0.33448240  0.00099479  1
  Ni  Ni22  1  0.83215646  0.49922978  0.16628544  1
  Ni  Ni23  1  0.66814025  0.33122573  0.33161277  1
  Ni  Ni24  1  0.66619622  0.66557773  0.99987585  1
  Ni  Ni25  1  0.83403252  0.83476182  0.16610041  1
  Cr  Cr26  1  0.66734941  0.66720728  0.33180298  1
  Cr  Cr27  1  0.16457667  0.16831535  0.49962339  1
  Ni  Ni28  1  0.99707507  0.99704176  0.66699281  1
  Cr  Cr29  1  0.16502369  0.16537729  0.83511150  1
  Ni  Ni30  1  0.16701002  0.50288950  0.49911977  1
  Cr  Cr31  1  0.99736218  0.33391068  0.66567721  1
  Cr  Cr32  1  0.16805824  0.50233713  0.83413874  1
  Ni  Ni33  1  0.16399507  0.82899621  0.50019648  1
  Ni  Ni34  1  0.99974407  0.66916390  0.66565335  1
  Ni  Ni35  1  0.16533155  0.83240524  0.83395867  1
  Cr  Cr36  1  0.50382472  0.16709653  0.50036493  1
  Cr  Cr37  1  0.33305728  0.99661862  0.66654486  1
  Cr  Cr38  1  0.50251419  0.16801015  0.83330754  1
  Cr  Cr39  1  0.49787689  0.50074021  0.50172245  1
  Ni  Ni40  1  0.33547535  0.33699615  0.66698797  1
  Ni  Ni41  1  0.50162550  0.50164732  0.83297431  1
  Ni  Ni42  1  0.50140790  0.83214596  0.50127291  1
  Ni  Ni43  1  0.33361590  0.66684922  0.66600964  1
  Ni  Ni44  1  0.50137945  0.83042848  0.83362502  1
  Ni  Ni45  1  0.83270896  0.16451414  0.49931858  1
  Ni  Ni46  1  0.66983869  0.99889935  0.66600912  1
  Ni  Ni47  1  0.83265004  0.16555338  0.83381979  1
  Fe  Fe48  1  0.83518277  0.50115166  0.50042011  1
  Ni  Ni49  1  0.66752324  0.33432430  0.66772895  1
  Ni  Ni50  1  0.83067337  0.50113570  0.83376597  1
  Ni  Ni51  1  0.83493440  0.83549528  0.50136206  1
  Ni  Ni52  1  0.66697651  0.66711304  0.66813833  1
  Ni  Ni53  1  0.83362515  0.83364739  0.83287417  1
" 