2077,Ni72Fe2Cr25_2,-228.582821791938, 150.732012655611,Ni72Fe2Cr25,"# generated using pymatgen
 data_Cr15FeNi38
_symmetry_space_group_name_H-M   'P 1'
_cell_length_a   7.48096901
_cell_length_b   7.48096901
_cell_length_c   10.57968784
_cell_angle_alpha   90.00000000
_cell_angle_beta   90.00000000
_cell_angle_gamma   90.00000000
_symmetry_Int_Tables_number   1
_chemical_formula_structural   Cr15FeNi38
_chemical_formula_sum   'Cr15 Fe1 Ni38'
_cell_volume   592.09114395
_cell_formula_units_Z   1
loop_
 _symmetry_equiv_pos_site_id
 _symmetry_equiv_pos_as_xyz
  1  'x, y, z'
loop_
 _atom_site_type_symbol
 _atom_site_label
 _atom_site_symmetry_multiplicity
 _atom_site_fract_x
 _atom_site_fract_y
 _atom_site_fract_z
 _atom_site_occupancy
  Ni  Ni0  1  0.00047071  0.99732142  -0.00091092  1
  Cr  Cr1  1  0.16602203  0.16505924  0.16497027  1
  Ni  Ni2  1  -0.00014141  -0.00012313  0.33174280  1
  Ni  Ni3  1  0.99828794  0.33350215  -0.00015845  1
  Ni  Ni4  1  0.16681671  0.50014454  0.16482989  1
  Cr  Cr5  1  0.99772755  0.33120241  0.33287411  1
  Ni  Ni6  1  0.99650427  0.66639339  -0.00061233  1
  Ni  Ni7  1  0.16533071  0.83223075  0.16546752  1
  Cr  Cr8  1  0.99878715  0.66552295  0.32956640  1
  Ni  Ni9  1  0.33091109  0.00100041  0.99841986  1
  Ni  Ni10  1  0.49927942  0.16786419  0.16493360  1
  Ni  Ni11  1  0.33292887  0.99872374  0.33264292  1
  Ni  Ni12  1  0.33314041  0.32973516  -0.00026280  1
  Ni  Ni13  1  0.50015541  0.49853591  0.16698832  1
  Ni  Ni14  1  0.33576353  0.33249645  0.33241503  1
  Cr  Cr15  1  0.33115051  0.66659164  0.00181913  1
  Ni  Ni16  1  0.49857471  0.83081715  0.16689375  1
  Ni  Ni17  1  0.33594254  0.66599532  0.33106267  1
  Cr  Cr18  1  0.66478966  0.99898640  0.00034636  1
  Ni  Ni19  1  0.83171303  0.16641939  0.16545689  1
  Cr  Cr20  1  0.66511909  0.00006419  0.33197924  1
  Ni  Ni21  1  0.66577885  0.33372234  0.00072418  1
  Ni  Ni22  1  0.83027781  0.49941973  0.16310245  1
  Ni  Ni23  1  0.66403690  0.33389318  0.33278542  1
  Ni  Ni24  1  0.66951973  0.66422062  0.00085561  1
  Ni  Ni25  1  0.83332688  0.83136456  0.16449588  1
  Ni  Ni26  1  0.66285399  0.66360400  0.33160236  1
  Ni  Ni27  1  0.16623584  0.16504080  0.50059973  1
  Ni  Ni28  1  0.00183038  -0.00008423  0.66639216  1
  Ni  Ni29  1  0.16681159  0.16403891  0.83198241  1
  Cr  Cr30  1  0.16790875  0.49783399  0.50034816  1
  Ni  Ni31  1  0.99861272  0.33176509  0.66458171  1
  Cr  Cr32  1  0.16457965  0.49811022  0.83154621  1
  Cr  Cr33  1  0.16759919  0.83459523  0.49981206  1
  Ni  Ni34  1  -0.00071152  0.66551290  0.66814546  1
  Ni  Ni35  1  0.16243498  0.83473273  0.83128860  1
  Ni  Ni36  1  0.49784565  0.16805958  0.49979330  1
  Ni  Ni37  1  0.33056367  0.00077899  0.66610293  1
  Ni  Ni38  1  0.49599400  0.16783336  0.83248535  1
  Ni  Ni39  1  0.50019450  0.49802309  0.49809363  1
  Ni  Ni40  1  0.33280004  0.32977037  0.66502955  1
  Cr  Cr41  1  0.50025303  0.49582859  0.83244047  1
  Ni  Ni42  1  0.49681539  0.83113884  0.49834320  1
  Ni  Ni43  1  0.33116450  0.66666997  0.66421623  1
  Cr  Cr44  1  0.49800621  0.83332840  0.83196436  1
  Ni  Ni45  1  0.83314008  0.16839407  0.49966925  1
  Cr  Cr46  1  0.66424272  0.00130980  0.66486611  1
  Cr  Cr47  1  0.83362368  0.16662863  0.83262287  1
  Ni  Ni48  1  0.82922149  0.49614171  0.50111735  1
  Ni  Ni49  1  0.66577731  0.33235730  0.66375578  1
  Fe  Fe50  1  0.83352407  0.49948100  0.83325820  1
  Cr  Cr51  1  0.83274175  0.83298490  0.49886423  1
  Cr  Cr52  1  0.66643592  0.66421127  0.66498759  1
  Ni  Ni53  1  0.83704176  0.83056187  0.83341839  1
" 