6369,Ni72Fe9Cr17_4,-232.59327647348, 169.876481356061,Ni72Fe9Cr17,"# generated using pymatgen
 data_Cr11Fe4Ni39
_symmetry_space_group_name_H-M   'P 1'
_cell_length_a   7.46317359
_cell_length_b   7.46317359
_cell_length_c   10.55452131
_cell_angle_alpha   90.00000000
_cell_angle_beta   90.00000000
_cell_angle_gamma   90.00000000
_symmetry_Int_Tables_number   1
_chemical_formula_structural   Cr11Fe4Ni39
_chemical_formula_sum   'Cr11 Fe4 Ni39'
_cell_volume   587.87586124
_cell_formula_units_Z   1
loop_
 _symmetry_equiv_pos_site_id
 _symmetry_equiv_pos_as_xyz
  1  'x, y, z'
loop_
 _atom_site_type_symbol
 _atom_site_label
 _atom_site_symmetry_multiplicity
 _atom_site_fract_x
 _atom_site_fract_y
 _atom_site_fract_z
 _atom_site_occupancy
  Ni  Ni0  1  0.99866480  0.00064826  1.00021010  1
  Ni  Ni1  1  0.16325109  0.16475109  0.16750683  1
  Ni  Ni2  1  0.00108982  0.00034236  0.33287915  1
  Ni  Ni3  1  0.99947881  0.33328484  0.99987371  1
  Cr  Cr4  1  0.16458718  0.50170594  0.16480604  1
  Ni  Ni5  1  0.99920111  0.33351931  0.33339816  1
  Ni  Ni6  1  0.99914504  0.66684505  0.99935893  1
  Ni  Ni7  1  0.16724991  0.83439409  0.16805274  1
  Ni  Ni8  1  0.99877595  0.66691731  0.33455260  1
  Cr  Cr9  1  0.33284208  0.00083345  0.00119305  1
  Cr  Cr10  1  0.50205991  0.16514488  0.16620531  1
  Ni  Ni11  1  0.33225796  0.99754330  0.33360691  1
  Ni  Ni12  1  0.33196092  0.33366959  0.99800793  1
  Cr  Cr13  1  0.50233795  0.50303061  0.16597419  1
  Cr  Cr14  1  0.33105173  0.33281624  0.33513956  1
  Ni  Ni15  1  0.33220453  0.66637154  0.00073999  1
  Ni  Ni16  1  0.50014310  0.83276189  0.16792898  1
  Ni  Ni17  1  0.33412230  0.67016774  0.33522202  1
  Ni  Ni18  1  0.66981341  0.00040527  1.00007037  1
  Ni  Ni19  1  0.83510567  0.16765431  0.16681577  1
  Ni  Ni20  1  0.66743227  0.99711399  0.33249033  1
  Ni  Ni21  1  0.66933729  0.33318824  0.99982329  1
  Ni  Ni22  1  0.83347166  0.49935334  0.16707047  1
  Fe  Fe23  1  0.67089313  0.33514222  0.33325916  1
  Ni  Ni24  1  0.66942823  0.66718632  0.00121890  1
  Fe  Fe25  1  0.83381722  0.83402748  0.16691379  1
  Ni  Ni26  1  0.66788164  0.66827890  0.33466681  1
  Ni  Ni27  1  0.16733277  0.16576595  0.49986117  1
  Ni  Ni28  1  0.00114751  0.99970947  0.66769062  1
  Ni  Ni29  1  0.16671616  0.16658409  0.83341103  1
  Ni  Ni30  1  0.16748219  0.50159839  0.49982765  1
  Cr  Cr31  1  0.00117210  0.33290324  0.66760634  1
  Fe  Fe32  1  0.16676745  0.49995156  0.83512507  1
  Ni  Ni33  1  0.16864039  0.83341399  0.49937447  1
  Cr  Cr34  1  0.99936919  0.66846689  0.66702619  1
  Ni  Ni35  1  0.16514078  0.83402542  0.83335334  1
  Cr  Cr36  1  0.49978193  0.16552919  0.50183617  1
  Ni  Ni37  1  0.33267454  0.00096400  0.66632789  1
  Ni  Ni38  1  0.50103692  0.16851079  0.83282423  1
  Fe  Fe39  1  0.50044336  0.50353916  0.50154633  1
  Ni  Ni40  1  0.33406747  0.33277117  0.66732528  1
  Cr  Cr41  1  0.50046645  0.49883327  0.83368615  1
  Ni  Ni42  1  0.49956443  0.83157325  0.50008182  1
  Ni  Ni43  1  0.33430432  0.66704412  0.66481430  1
  Cr  Cr44  1  0.50061974  0.83402201  0.83276532  1
  Cr  Cr45  1  0.83448762  0.16642854  0.49973672  1
  Ni  Ni46  1  0.66695722  0.99947120  0.66821884  1
  Ni  Ni47  1  0.83302622  0.16667327  0.83443158  1
  Ni  Ni48  1  0.83244288  0.50199861  0.49822486  1
  Ni  Ni49  1  0.66540671  0.33410749  0.66744192  1
  Ni  Ni50  1  0.83310093  0.49974244  0.83548449  1
  Ni  Ni51  1  0.83257383  0.83172447  0.49958995  1
  Ni  Ni52  1  0.66665995  0.66720203  0.66489449  1
  Ni  Ni53  1  0.83502748  0.83436370  0.83452398  1
" 