8465,Ni72Fe5Cr21_4,-231.746444208067, 163.993069021567,Ni72Fe5Cr21,"# generated using pymatgen
 data_Cr4FeNi13
_symmetry_space_group_name_H-M   'P 1'
_cell_length_a   7.46603685
_cell_length_b   7.46603685
_cell_length_c   10.55857057
_cell_angle_alpha   90.00000000
_cell_angle_beta   90.00000000
_cell_angle_gamma   90.00000000
_symmetry_Int_Tables_number   1
_chemical_formula_structural   Cr4FeNi13
_chemical_formula_sum   'Cr12 Fe3 Ni39'
_cell_volume   588.55273841
_cell_formula_units_Z   3
loop_
 _symmetry_equiv_pos_site_id
 _symmetry_equiv_pos_as_xyz
  1  'x, y, z'
loop_
 _atom_site_type_symbol
 _atom_site_label
 _atom_site_symmetry_multiplicity
 _atom_site_fract_x
 _atom_site_fract_y
 _atom_site_fract_z
 _atom_site_occupancy
  Cr  Cr0  1  0.00010022  0.99767593  0.00121706  1
  Ni  Ni1  1  0.16430258  0.16851765  0.16667325  1
  Fe  Fe2  1  0.99788916  0.99984147  0.33351976  1
  Cr  Cr3  1  0.00239234  0.33379803  0.00252633  1
  Ni  Ni4  1  0.16567121  0.50076064  0.16688517  1
  Ni  Ni5  1  0.99797615  0.33347645  0.33266388  1
  Ni  Ni6  1  0.99768160  0.66886239  0.00159252  1
  Ni  Ni7  1  0.16508421  0.83092446  0.16822038  1
  Ni  Ni8  1  0.99986784  0.66623336  0.33233295  1
  Cr  Cr9  1  0.33322077  0.00132283  0.99855935  1
  Cr  Cr10  1  0.50162940  0.16653732  0.16593381  1
  Cr  Cr11  1  0.33256383  0.99746096  0.33437204  1
  Ni  Ni12  1  0.33379204  0.33259361  1.00004631  1
  Ni  Ni13  1  0.50046900  0.50246993  0.16727596  1
  Cr  Cr14  1  0.33241936  0.33520799  0.33322039  1
  Cr  Cr15  1  0.33458644  0.66617506  0.00133676  1
  Ni  Ni16  1  0.50261101  0.83077011  0.16722454  1
  Ni  Ni17  1  0.33323640  0.66748341  0.33276171  1
  Fe  Fe18  1  0.66678508  0.99633689  0.00011738  1
  Ni  Ni19  1  0.83421961  0.16637383  0.16963130  1
  Ni  Ni20  1  0.66885852  0.99937526  0.33295306  1
  Cr  Cr21  1  0.66432482  0.33516591  0.00069361  1
  Ni  Ni22  1  0.83406353  0.50168919  0.16783417  1
  Ni  Ni23  1  0.67010812  0.33378262  0.33412417  1
  Ni  Ni24  1  0.66761587  0.66855913  0.00097276  1
  Ni  Ni25  1  0.83250633  0.83213775  0.16649862  1
  Ni  Ni26  1  0.66709942  0.66704510  0.33242744  1
  Ni  Ni27  1  0.16467306  0.16677277  0.50135701  1
  Ni  Ni28  1  0.00137457  0.99937566  0.66605274  1
  Ni  Ni29  1  0.16947251  0.16523224  0.83217337  1
  Ni  Ni30  1  0.16435034  0.50166323  0.49994517  1
  Ni  Ni31  1  0.99904905  0.33199490  0.66457761  1
  Cr  Cr32  1  0.16683296  0.50086199  0.83324473  1
  Ni  Ni33  1  0.16689842  0.83176651  0.50135442  1
  Ni  Ni34  1  0.99982069  0.66883293  0.66627784  1
  Ni  Ni35  1  0.16644782  0.83421171  0.83062857  1
  Ni  Ni36  1  0.50290235  0.16533468  0.50146920  1
  Ni  Ni37  1  0.33288260  0.99860319  0.66763575  1
  Ni  Ni38  1  0.49871182  0.16567410  0.83305893  1
  Fe  Fe39  1  0.50186396  0.50187067  0.50006474  1
  Cr  Cr40  1  0.33427213  0.33197864  0.66698137  1
  Ni  Ni41  1  0.50051340  0.50056933  0.83279765  1
  Ni  Ni42  1  0.50049008  0.83339311  0.50088365  1
  Ni  Ni43  1  0.33409434  0.66994853  0.66602846  1
  Ni  Ni44  1  0.50154522  0.83395934  0.83209518  1
  Ni  Ni45  1  0.83262618  0.16788194  0.49984914  1
  Ni  Ni46  1  0.66594582  0.99937605  0.66720014  1
  Cr  Cr47  1  0.83234147  0.16483715  0.83067135  1
  Ni  Ni48  1  0.83425180  0.49925219  0.50038368  1
  Ni  Ni49  1  0.66706204  0.33320748  0.66510409  1
  Cr  Cr50  1  0.83284613  0.50338108  0.83169723  1
  Ni  Ni51  1  0.83281398  0.83306869  0.50043156  1
  Ni  Ni52  1  0.66628846  0.66761963  0.66680319  1
  Ni  Ni53  1  0.83220927  0.83241027  0.83327386  1
" 