4453,Ni72Fe9Cr17_10,-232.495830091166, 168.195613615867,Ni72Fe9Cr17,"# generated using pymatgen
 data_Cr11Fe4Ni39
_symmetry_space_group_name_H-M   'P 1'
_cell_length_a   7.46423169
_cell_length_b   7.46423169
_cell_length_c   10.55601768
_cell_angle_alpha   90.00000000
_cell_angle_beta   90.00000000
_cell_angle_gamma   90.00000000
_symmetry_Int_Tables_number   1
_chemical_formula_structural   Cr11Fe4Ni39
_chemical_formula_sum   'Cr11 Fe4 Ni39'
_cell_volume   588.12593527
_cell_formula_units_Z   1
loop_
 _symmetry_equiv_pos_site_id
 _symmetry_equiv_pos_as_xyz
  1  'x, y, z'
loop_
 _atom_site_type_symbol
 _atom_site_label
 _atom_site_symmetry_multiplicity
 _atom_site_fract_x
 _atom_site_fract_y
 _atom_site_fract_z
 _atom_site_occupancy
  Ni  Ni0  1  0.99926705  0.99995645  0.00149931  1
  Ni  Ni1  1  0.16840172  0.16683480  0.16687841  1
  Cr  Cr2  1  0.00179561  0.00178773  0.33303079  1
  Ni  Ni3  1  0.99975390  0.33168316  0.00048898  1
  Ni  Ni4  1  0.16762475  0.50110316  0.16813525  1
  Ni  Ni5  1  0.00284581  0.33515339  0.33524638  1
  Fe  Fe6  1  0.99852778  0.66731386  0.00073427  1
  Ni  Ni7  1  0.16822924  0.83247542  0.16536406  1
  Ni  Ni8  1  0.00288748  0.66405298  0.33164491  1
  Fe  Fe9  1  0.33611735  0.99964335  0.00167823  1
  Ni  Ni10  1  0.49978125  0.16606414  0.16765516  1
  Ni  Ni11  1  0.33533607  0.00121320  0.33158841  1
  Cr  Cr12  1  0.33469508  0.33395151  0.00197917  1
  Ni  Ni13  1  0.49863696  0.49993591  0.16686174  1
  Fe  Fe14  1  0.33352659  0.33249276  0.33375833  1
  Ni  Ni15  1  0.33646534  0.66789695  0.00246655  1
  Ni  Ni16  1  0.49921627  0.83458238  0.16624949  1
  Fe  Fe17  1  0.33312464  0.66647673  0.33273188  1
  Ni  Ni18  1  0.66720744  0.99835455  0.99999656  1
  Cr  Cr19  1  0.83033065  0.16731338  0.16690706  1
  Ni  Ni20  1  0.66230034  0.00149183  0.33360313  1
  Ni  Ni21  1  0.66600482  0.33384014  0.99811480  1
  Cr  Cr22  1  0.83266246  0.49965109  0.16558316  1
  Ni  Ni23  1  0.66464468  0.33283437  0.33516133  1
  Ni  Ni24  1  0.66406957  0.66828166  0.99932660  1
  Ni  Ni25  1  0.83317137  0.83346910  0.16518496  1
  Cr  Cr26  1  0.66521231  0.66725979  0.33394872  1
  Ni  Ni27  1  0.16837520  0.16916405  0.50136202  1
  Ni  Ni28  1  0.99854047  0.00269594  0.66670463  1
  Cr  Cr29  1  0.16684452  0.16606481  0.83198259  1
  Ni  Ni30  1  0.16672070  0.49880713  0.50013959  1
  Ni  Ni31  1  0.99896893  0.33312559  0.66489556  1
  Cr  Cr32  1  0.16691895  0.50103388  0.83185557  1
  Cr  Cr33  1  0.16958343  0.83240356  0.50301049  1
  Ni  Ni34  1  0.99973374  0.66479295  0.66733976  1
  Cr  Cr35  1  0.16819474  0.83335138  0.83240204  1
  Ni  Ni36  1  0.50056405  0.16663793  0.50011643  1
  Ni  Ni37  1  0.33634826  0.00155945  0.66697646  1
  Ni  Ni38  1  0.50390447  0.16614787  0.83260372  1
  Ni  Ni39  1  0.49855658  0.49782493  0.50031219  1
  Ni  Ni40  1  0.33519029  0.33348353  0.66455112  1
  Ni  Ni41  1  0.50178038  0.50001109  0.83362049  1
  Ni  Ni42  1  0.49782616  0.83596612  0.50034361  1
  Ni  Ni43  1  0.33547870  0.66548411  0.66527529  1
  Ni  Ni44  1  0.50091991  0.83449453  0.83393084  1
  Ni  Ni45  1  0.83164419  0.17022620  0.50115617  1
  Ni  Ni46  1  0.66580600  0.00224481  0.66711342  1
  Ni  Ni47  1  0.83143331  0.16700331  0.83327044  1
  Ni  Ni48  1  0.83521784  0.49621396  0.50028446  1
  Ni  Ni49  1  0.66650552  0.33226155  0.66739711  1
  Ni  Ni50  1  0.83236139  0.49862580  0.83456971  1
  Cr  Cr51  1  0.83260921  0.83487041  0.50051177  1
  Cr  Cr52  1  0.66563889  0.66580327  0.66798592  1
  Ni  Ni53  1  0.83268355  0.83477394  0.83465686  1
" 