3473,Ni72Fe7Cr20_12,-231.664986495022, 167.4136971189,Ni72Fe7Cr20,"# generated using pymatgen
 data_Cr4FeNi13
_symmetry_space_group_name_H-M   'P 1'
_cell_length_a   7.46789877
_cell_length_b   7.46789877
_cell_length_c   10.56120373
_cell_angle_alpha   90.00000000
_cell_angle_beta   90.00000000
_cell_angle_gamma   90.00000000
_symmetry_Int_Tables_number   1
_chemical_formula_structural   Cr4FeNi13
_chemical_formula_sum   'Cr12 Fe3 Ni39'
_cell_volume   588.99317889
_cell_formula_units_Z   3
loop_
 _symmetry_equiv_pos_site_id
 _symmetry_equiv_pos_as_xyz
  1  'x, y, z'
loop_
 _atom_site_type_symbol
 _atom_site_label
 _atom_site_symmetry_multiplicity
 _atom_site_fract_x
 _atom_site_fract_y
 _atom_site_fract_z
 _atom_site_occupancy
  Ni  Ni0  1  0.00127435  0.99928686  0.99828409  1
  Cr  Cr1  1  0.16837857  0.16548306  0.16509608  1
  Ni  Ni2  1  0.00128031  0.99645692  0.33491090  1
  Ni  Ni3  1  0.00149751  0.33405647  -0.00001771  1
  Ni  Ni4  1  0.16492079  0.50093250  0.16468109  1
  Cr  Cr5  1  0.99896175  0.33506321  0.33439350  1
  Fe  Fe6  1  0.99970377  0.66635116  0.99960860  1
  Fe  Fe7  1  0.16729723  0.83321115  0.16645255  1
  Ni  Ni8  1  0.99856640  0.66774027  0.33362907  1
  Ni  Ni9  1  0.33360032  0.00068585  0.99944253  1
  Ni  Ni10  1  0.49999084  0.16534288  0.16611289  1
  Ni  Ni11  1  0.33407893  0.99880894  0.33372673  1
  Ni  Ni12  1  0.33352235  0.33283030  0.99905493  1
  Ni  Ni13  1  0.50199185  0.49966285  0.16597803  1
  Cr  Cr14  1  0.33572430  0.33278452  0.33332498  1
  Cr  Cr15  1  0.33463477  0.66625543  -0.00001949  1
  Ni  Ni16  1  0.50049280  0.83481281  0.16679663  1
  Cr  Cr17  1  0.33399550  0.66750373  0.33305216  1
  Ni  Ni18  1  0.66497898  0.99880163  0.99870190  1
  Cr  Cr19  1  0.83128626  0.16696984  0.16612948  1
  Ni  Ni20  1  0.66454802  0.99869506  0.33410788  1
  Ni  Ni21  1  0.66477422  0.33447922  0.00156044  1
  Ni  Ni22  1  0.83288868  0.50142569  0.16646604  1
  Ni  Ni23  1  0.66542879  0.33512334  0.33281728  1
  Ni  Ni24  1  0.66625440  0.66655954  0.00033768  1
  Cr  Cr25  1  0.83245388  0.83197695  0.16651677  1
  Ni  Ni26  1  0.66774401  0.66602533  0.33379865  1
  Ni  Ni27  1  0.16910364  0.16640301  0.50075358  1
  Cr  Cr28  1  0.00058664  0.99896432  0.66678886  1
  Ni  Ni29  1  0.16922011  0.16735258  0.83422859  1
  Ni  Ni30  1  0.16538387  0.50030348  0.50294379  1
  Ni  Ni31  1  0.00291522  0.33577413  0.66566361  1
  Ni  Ni32  1  0.16749032  0.49905909  0.83216128  1
  Fe  Fe33  1  0.16707802  0.83284768  0.50037229  1
  Ni  Ni34  1  0.00245927  0.66540877  0.66610541  1
  Ni  Ni35  1  0.16679227  0.83341805  0.83341754  1
  Ni  Ni36  1  0.49850875  0.16502173  0.50030780  1
  Ni  Ni37  1  0.33474220  0.00021381  0.66669758  1
  Ni  Ni38  1  0.49772696  0.16579799  0.83339478  1
  Ni  Ni39  1  0.50022475  0.49965446  0.50049096  1
  Ni  Ni40  1  0.33289897  0.33365239  0.66702766  1
  Ni  Ni41  1  0.49761755  0.49870374  0.83334916  1
  Ni  Ni42  1  0.50056726  0.83513167  0.49973886  1
  Ni  Ni43  1  0.33176596  0.66596118  0.66668362  1
  Ni  Ni44  1  0.49985971  0.83531897  0.83331431  1
  Cr  Cr45  1  0.83184985  0.16637158  0.49955185  1
  Ni  Ni46  1  0.66345603  0.99980985  0.66701260  1
  Cr  Cr47  1  0.83240135  0.16577829  0.83416988  1
  Ni  Ni48  1  0.83420919  0.50231760  0.49904483  1
  Ni  Ni49  1  0.66398199  0.33281453  0.66542726  1
  Cr  Cr50  1  0.83425723  0.50073087  0.83395952  1
  Ni  Ni51  1  0.83282384  0.83144002  0.49815237  1
  Cr  Cr52  1  0.66556777  0.66778947  0.66618625  1
  Ni  Ni53  1  0.83316433  0.83355788  0.83503475  1
" 