5608,Ni72Fe28_18,-236.385068141488, 201.401777725221,Ni72Fe28,"# generated using pymatgen
 data_Fe19Ni8
_symmetry_space_group_name_H-M   'P 1'
_cell_length_a   7.40276872
_cell_length_b   7.40276872
_cell_length_c   10.46909592
_cell_angle_alpha   90.00000000
_cell_angle_beta   90.00000000
_cell_angle_gamma   90.00000000
_symmetry_Int_Tables_number   1
_chemical_formula_structural   Fe19Ni8
_chemical_formula_sum   'Fe38 Ni16'
_cell_volume   573.71676544
_cell_formula_units_Z   2
loop_
 _symmetry_equiv_pos_site_id
 _symmetry_equiv_pos_as_xyz
  1  'x, y, z'
loop_
 _atom_site_type_symbol
 _atom_site_label
 _atom_site_symmetry_multiplicity
 _atom_site_fract_x
 _atom_site_fract_y
 _atom_site_fract_z
 _atom_site_occupancy
  Fe  Fe0  1  1.00413684  1.00427710  0.00468256  1
  Fe  Fe1  1  0.17040964  0.17106917  0.17120940  1
  Fe  Fe2  1  1.00400590  0.00495215  0.33739722  1
  Fe  Fe3  1  1.00414199  0.33820592  0.00505793  1
  Fe  Fe4  1  0.17027919  0.50434239  0.17094122  1
  Ni  Ni5  1  1.00432822  0.33816934  0.33710710  1
  Ni  Ni6  1  1.00417943  0.67043609  0.00534389  1
  Fe  Fe7  1  0.17031479  0.83761312  0.17067064  1
  Fe  Fe8  1  1.00407404  0.67006236  0.33807593  1
  Fe  Fe9  1  0.33763213  1.00342265  1.00396402  1
  Fe  Fe10  1  0.50519401  0.17112115  0.17138598  1
  Fe  Fe11  1  0.33783107  0.00458269  0.33818346  1
  Fe  Fe12  1  0.33695860  0.33839119  1.00400239  1
  Fe  Fe13  1  0.50526911  0.50423362  0.17086995  1
  Fe  Fe14  1  0.33713489  0.33767627  0.33808118  1
  Fe  Fe15  1  0.33747478  0.67121210  1.00427896  1
  Ni  Ni16  1  0.50380267  0.83840294  0.17084177  1
  Fe  Fe17  1  0.33743316  0.67076607  0.33760150  1
  Fe  Fe18  1  0.67125565  1.00376206  1.00416653  1
  Ni  Ni19  1  0.83819232  0.17218162  0.17125611  1
  Fe  Fe20  1  0.67118427  0.00465473  0.33817972  1
  Fe  Fe21  1  0.67192762  0.33805158  0.00488244  1
  Ni  Ni22  1  0.83916746  0.50308959  0.17041634  1
  Fe  Fe23  1  0.67188945  0.33761135  0.33740162  1
  Fe  Fe24  1  0.67107045  0.67121371  1.00423681  1
  Fe  Fe25  1  0.83753369  0.83754025  0.17111945  1
  Fe  Fe26  1  0.67151850  0.67075997  0.33818234  1
  Fe  Fe27  1  0.17109780  0.17096226  0.50420342  1
  Fe  Fe28  1  1.00361878  1.00335554  0.67094411  1
  Fe  Fe29  1  0.17179352  0.17076002  0.83761010  1
  Ni  Ni30  1  0.16951647  0.50374437  0.50422565  1
  Fe  Fe31  1  1.00416536  0.33822569  0.67043208  1
  Ni  Ni32  1  0.17007724  0.50392668  0.83819433  1
  Fe  Fe33  1  0.17094014  0.83733778  0.50460850  1
  Ni  Ni34  1  1.00369471  0.67006033  0.67032910  1
  Fe  Fe35  1  0.17113674  0.83713143  0.83774734  1
  Ni  Ni36  1  0.50407642  0.16918628  0.50442361  1
  Ni  Ni37  1  0.33890366  0.00503783  0.67084806  1
  Fe  Fe38  1  0.50375789  0.17079426  0.83682577  1
  Fe  Fe39  1  0.50499431  0.50485475  0.50440514  1
  Fe  Fe40  1  0.33784854  0.33786041  0.67094179  1
  Fe  Fe41  1  0.50406907  0.50474329  0.83775040  1
  Ni  Ni42  1  0.50484058  0.83943385  0.50493317  1
  Fe  Fe43  1  0.33811732  0.67185930  0.67114528  1
  Ni  Ni44  1  0.50445501  0.83859806  0.83725131  1
  Fe  Fe45  1  0.83726926  0.17100870  0.50375576  1
  Ni  Ni46  1  0.66934910  1.00394220  0.67075525  1
  Fe  Fe47  1  0.83747101  0.17080468  0.83819652  1
  Ni  Ni48  1  0.83975821  0.50450911  0.50493241  1
  Fe  Fe49  1  0.67101054  0.33753430  0.67074024  1
  Fe  Fe50  1  0.83783262  0.50539450  0.83761321  1
  Ni  Ni51  1  0.83659616  0.83725918  0.50419547  1
  Ni  Ni52  1  0.67185221  0.67149447  0.67107596  1
  Fe  Fe53  1  0.83786087  0.83682291  0.83682290  1
" 