7882,Ni72Fe28_5,-235.895319726534, 201.500453801501,Ni72Fe28,"# generated using pymatgen
 data_Fe19Ni8
_symmetry_space_group_name_H-M   'P 1'
_cell_length_a   7.39620313
_cell_length_b   7.39620313
_cell_length_c   10.45981077
_cell_angle_alpha   90.00000000
_cell_angle_beta   90.00000000
_cell_angle_gamma   90.00000000
_symmetry_Int_Tables_number   1
_chemical_formula_structural   Fe19Ni8
_chemical_formula_sum   'Fe38 Ni16'
_cell_volume   572.19161305
_cell_formula_units_Z   2
loop_
 _symmetry_equiv_pos_site_id
 _symmetry_equiv_pos_as_xyz
  1  'x, y, z'
loop_
 _atom_site_type_symbol
 _atom_site_label
 _atom_site_symmetry_multiplicity
 _atom_site_fract_x
 _atom_site_fract_y
 _atom_site_fract_z
 _atom_site_occupancy
  Ni  Ni0  1  1.00456576  0.00587143  1.00439582  1
  Fe  Fe1  1  0.17100249  0.17093088  0.17075256  1
  Fe  Fe2  1  1.00449193  0.00500338  0.33756700  1
  Ni  Ni3  1  1.00417192  0.33734149  0.00608668  1
  Fe  Fe4  1  0.17123753  0.50518296  0.17105368  1
  Fe  Fe5  1  1.00425333  0.33820621  0.33794985  1
  Fe  Fe6  1  0.00524624  0.67145748  0.00531219  1
  Fe  Fe7  1  0.17116641  0.83825647  0.17174623  1
  Ni  Ni8  1  0.00550342  0.67148049  0.33752891  1
  Fe  Fe9  1  0.33706780  1.00477124  1.00427079  1
  Fe  Fe10  1  0.50572419  0.17121822  0.17229156  1
  Fe  Fe11  1  0.33826773  1.00455754  0.33940846  1
  Fe  Fe12  1  0.33683928  0.33800066  1.00448128  1
  Fe  Fe13  1  0.50530894  0.50470944  0.17180372  1
  Fe  Fe14  1  0.33835761  0.33850257  0.33880050  1
  Ni  Ni15  1  0.33872439  0.67194721  0.00506454  1
  Ni  Ni16  1  0.50476387  0.83693117  0.17127851  1
  Fe  Fe17  1  0.33864820  0.67130412  0.33779855  1
  Fe  Fe18  1  0.67198605  1.00461965  0.00480665  1
  Ni  Ni19  1  0.83922647  0.17234839  0.17070729  1
  Fe  Fe20  1  0.67160926  1.00471291  0.33838458  1
  Fe  Fe21  1  0.67212337  0.33806988  0.00570784  1
  Fe  Fe22  1  0.83782243  0.50455132  0.17177091  1
  Ni  Ni23  1  0.67114827  0.33759312  0.33871447  1
  Fe  Fe24  1  0.67165732  0.67167833  0.00483688  1
  Fe  Fe25  1  0.83812073  0.83867010  0.17136633  1
  Fe  Fe26  1  0.67132163  0.67106161  0.33826278  1
  Ni  Ni27  1  0.17073534  0.17095865  0.50456223  1
  Fe  Fe28  1  0.00546546  0.00547861  0.67192447  1
  Ni  Ni29  1  0.17048085  0.17154555  0.83881247  1
  Fe  Fe30  1  0.17242406  0.50496637  0.50470138  1
  Ni  Ni31  1  1.00470216  0.33864602  0.67023689  1
  Fe  Fe32  1  0.17113796  0.50411048  0.83860944  1
  Ni  Ni33  1  0.17152594  0.83882977  0.50530288  1
  Fe  Fe34  1  1.00475798  0.67227722  0.67062071  1
  Fe  Fe35  1  0.17168207  0.83862424  0.83800019  1
  Ni  Ni36  1  0.50459433  0.17184858  0.50489782  1
  Ni  Ni37  1  0.33957994  1.00399528  0.67154548  1
  Fe  Fe38  1  0.50442366  0.17100911  0.83706870  1
  Ni  Ni39  1  0.50590324  0.50537477  0.50479912  1
  Fe  Fe40  1  0.33818144  0.33660661  0.67108782  1
  Fe  Fe41  1  0.50404252  0.50457619  0.83808538  1
  Ni  Ni42  1  0.50461433  0.83713743  0.50527167  1
  Fe  Fe43  1  0.33851519  0.67212199  0.67147617  1
  Fe  Fe44  1  0.50412959  0.83878019  0.83807640  1
  Fe  Fe45  1  0.83720443  0.17123845  0.50440591  1
  Ni  Ni46  1  0.66968458  1.00478732  0.67074974  1
  Fe  Fe47  1  0.83901718  0.17155081  0.83889460  1
  Fe  Fe48  1  0.83799086  0.50465492  0.50455862  1
  Fe  Fe49  1  0.67094102  0.33732200  0.67048413  1
  Fe  Fe50  1  0.83918483  0.50381155  0.83803636  1
  Fe  Fe51  1  0.83768943  0.83847565  0.50487260  1
  Fe  Fe52  1  0.67109746  0.67190264  0.67127050  1
  Fe  Fe53  1  0.83855686  0.83901065  0.83811908  1
" 