8801,Ni72Fe7Cr20_14,-231.585186211614, 163.928886023772,Ni72Fe7Cr20,"# generated using pymatgen
 data_Cr4FeNi13
_symmetry_space_group_name_H-M   'P 1'
_cell_length_a   7.46730078
_cell_length_b   7.46730078
_cell_length_c   10.56035803
_cell_angle_alpha   90.00000000
_cell_angle_beta   90.00000000
_cell_angle_gamma   90.00000000
_symmetry_Int_Tables_number   1
_chemical_formula_structural   Cr4FeNi13
_chemical_formula_sum   'Cr12 Fe3 Ni39'
_cell_volume   588.85169855
_cell_formula_units_Z   3
loop_
 _symmetry_equiv_pos_site_id
 _symmetry_equiv_pos_as_xyz
  1  'x, y, z'
loop_
 _atom_site_type_symbol
 _atom_site_label
 _atom_site_symmetry_multiplicity
 _atom_site_fract_x
 _atom_site_fract_y
 _atom_site_fract_z
 _atom_site_occupancy
  Ni  Ni0  1  0.99847426  0.00209699  0.99855476  1
  Ni  Ni1  1  0.16759347  0.16920413  0.16429513  1
  Cr  Cr2  1  0.99864149  0.00012131  0.33343703  1
  Ni  Ni3  1  0.00233903  0.32917095  0.00111463  1
  Ni  Ni4  1  0.16695529  0.49697066  0.16775238  1
  Ni  Ni5  1  0.00099702  0.33460042  0.33317483  1
  Cr  Cr6  1  0.00030467  0.66889256  0.00075708  1
  Cr  Cr7  1  0.16857655  0.83321917  0.16792013  1
  Ni  Ni8  1  0.00006270  0.66503449  0.33541791  1
  Ni  Ni9  1  0.33364676  0.99938582  0.99983937  1
  Ni  Ni10  1  0.49901343  0.16381226  0.16811971  1
  Ni  Ni11  1  0.33519991  0.00166011  0.33324373  1
  Ni  Ni12  1  0.33137339  0.33339415  0.00109619  1
  Cr  Cr13  1  0.49768619  0.50068548  0.16702198  1
  Ni  Ni14  1  0.33289860  0.33308740  0.33348234  1
  Ni  Ni15  1  0.33524990  0.66716982  0.99893919  1
  Ni  Ni16  1  0.50159430  0.83595889  0.16605775  1
  Ni  Ni17  1  0.33250057  0.66518703  0.33395195  1
  Ni  Ni18  1  0.66771834  0.99808170  0.00143600  1
  Ni  Ni19  1  0.83331366  0.16524960  0.16662035  1
  Ni  Ni20  1  0.66578304  0.00076946  0.33155154  1
  Cr  Cr21  1  0.66650267  0.33102040  0.99986217  1
  Cr  Cr22  1  0.83584345  0.49993095  0.16823095  1
  Ni  Ni23  1  0.66612838  0.33180137  0.33556263  1
  Fe  Fe24  1  0.66415803  0.67086180  0.99904034  1
  Ni  Ni25  1  0.82996700  0.83538490  0.16625637  1
  Ni  Ni26  1  0.66735813  0.66744161  0.33319170  1
  Ni  Ni27  1  0.16755088  0.16676681  0.50094457  1
  Ni  Ni28  1  0.99938420  0.99937438  0.66773242  1
  Fe  Fe29  1  0.16445384  0.16371027  0.83412586  1
  Ni  Ni30  1  0.16384190  0.49937784  0.49739833  1
  Ni  Ni31  1  0.99778112  0.33159056  0.66553041  1
  Cr  Cr32  1  0.16637592  0.49893667  0.83490600  1
  Ni  Ni33  1  0.16461872  0.83375492  0.50050923  1
  Ni  Ni34  1  0.99815591  0.66879334  0.66436053  1
  Ni  Ni35  1  0.16670935  0.83631176  0.83245431  1
  Ni  Ni36  1  0.50001959  0.16743948  0.49875819  1
  Ni  Ni37  1  0.33161689  0.99964031  0.66683080  1
  Cr  Cr38  1  0.50002122  0.16492373  0.83258400  1
  Ni  Ni39  1  0.50233378  0.49762130  0.49905357  1
  Cr  Cr40  1  0.33441991  0.33291199  0.66530929  1
  Ni  Ni41  1  0.50070599  0.50214348  0.83399187  1
  Cr  Cr42  1  0.50056530  0.83567157  0.49876822  1
  Cr  Cr43  1  0.33325597  0.66764940  0.66663675  1
  Ni  Ni44  1  0.50038021  0.83335267  0.83472076  1
  Fe  Fe45  1  0.83288548  0.16765791  0.50090138  1
  Ni  Ni46  1  0.66889190  0.00006264  0.66681053  1
  Ni  Ni47  1  0.83524634  0.16429646  0.83219964  1
  Ni  Ni48  1  0.83380703  0.50027801  0.50044742  1
  Ni  Ni49  1  0.66827545  0.33336369  0.66477607  1
  Cr  Cr50  1  0.83235699  0.49919485  0.83149447  1
  Ni  Ni51  1  0.83435821  0.83136450  0.50107482  1
  Ni  Ni52  1  0.66842656  0.66659298  0.66814147  1
  Ni  Ni53  1  0.83276572  0.83610966  0.83269556  1
" 