4821,Ni72Fe28_2,-235.708546497323, 197.249746847609,Ni72Fe28,"# generated using pymatgen
 data_Fe19Ni8
_symmetry_space_group_name_H-M   'P 1'
_cell_length_a   7.39745896
_cell_length_b   7.39745896
_cell_length_c   10.46158678
_cell_angle_alpha   90.00000000
_cell_angle_beta   90.00000000
_cell_angle_gamma   90.00000000
_symmetry_Int_Tables_number   1
_chemical_formula_structural   Fe19Ni8
_chemical_formula_sum   'Fe38 Ni16'
_cell_volume   572.48312606
_cell_formula_units_Z   2
loop_
 _symmetry_equiv_pos_site_id
 _symmetry_equiv_pos_as_xyz
  1  'x, y, z'
loop_
 _atom_site_type_symbol
 _atom_site_label
 _atom_site_symmetry_multiplicity
 _atom_site_fract_x
 _atom_site_fract_y
 _atom_site_fract_z
 _atom_site_occupancy
  Ni  Ni0  1  0.00545182  0.00602321  1.00458353  1
  Fe  Fe1  1  0.17025958  0.17199894  0.17137197  1
  Ni  Ni2  1  0.00489246  0.00532130  0.33897189  1
  Ni  Ni3  1  1.00412063  0.33629562  0.00521266  1
  Fe  Fe4  1  0.17097680  0.50374484  0.17169756  1
  Ni  Ni5  1  1.00448681  0.33734211  0.33793206  1
  Fe  Fe6  1  1.00358350  0.67091056  0.00524931  1
  Fe  Fe7  1  0.17082201  0.83836478  0.17169654  1
  Ni  Ni8  1  0.00489335  0.67145082  0.33833744  1
  Fe  Fe9  1  0.33842885  0.00557169  1.00446332  1
  Ni  Ni10  1  0.50469186  0.17125060  0.17084956  1
  Fe  Fe11  1  0.33679618  0.00503105  0.33827784  1
  Fe  Fe12  1  0.33877692  0.33738373  0.00479119  1
  Fe  Fe13  1  0.50557777  0.50448372  0.17071803  1
  Fe  Fe14  1  0.33712731  0.33729434  0.33794911  1
  Fe  Fe15  1  0.33762937  0.67115181  1.00374471  1
  Fe  Fe16  1  0.50557192  0.83746814  0.17113296  1
  Fe  Fe17  1  0.33596770  0.67178351  0.33890937  1
  Fe  Fe18  1  0.67174545  0.00582059  1.00461615  1
  Fe  Fe19  1  0.83844644  0.17200674  0.17104150  1
  Fe  Fe20  1  0.67219417  0.00527470  0.33821205  1
  Ni  Ni21  1  0.67146672  0.33897201  1.00451754  1
  Ni  Ni22  1  0.83887423  0.50512984  0.17073045  1
  Fe  Fe23  1  0.67276841  0.33795409  0.33757897  1
  Ni  Ni24  1  0.66930223  0.67086788  1.00439881  1
  Fe  Fe25  1  0.83771388  0.83819206  0.17136740  1
  Fe  Fe26  1  0.67368640  0.67088421  0.33740367  1
  Fe  Fe27  1  0.17041605  0.17175862  0.50437903  1
  Fe  Fe28  1  0.00581927  1.00388532  0.67154529  1
  Fe  Fe29  1  0.17087317  0.17112780  0.83836314  1
  Fe  Fe30  1  0.17112831  0.50455145  0.50479148  1
  Ni  Ni31  1  1.00448083  0.33699130  0.67096512  1
  Fe  Fe32  1  0.17193302  0.50430730  0.83762049  1
  Ni  Ni33  1  0.17075983  0.83762686  0.50437308  1
  Fe  Fe34  1  0.00551836  0.67112806  0.67049854  1
  Ni  Ni35  1  0.17064267  0.83739993  0.83866293  1
  Ni  Ni36  1  0.50459336  0.17147258  0.50470994  1
  Fe  Fe37  1  0.33765945  0.00476905  0.67137069  1
  Ni  Ni38  1  0.50503691  0.17180845  0.83854943  1
  Fe  Fe39  1  0.50431941  0.50526864  0.50511249  1
  Fe  Fe40  1  0.33829931  0.33794965  0.67137025  1
  Fe  Fe41  1  0.50422157  0.50535596  0.83827605  1
  Fe  Fe42  1  0.50461744  0.83755960  0.50502612  1
  Ni  Ni43  1  0.33946251  0.67230785  0.67096434  1
  Fe  Fe44  1  0.50421854  0.83778190  0.83794872  1
  Fe  Fe45  1  0.83890246  0.17146254  0.50464224  1
  Fe  Fe46  1  0.67062892  0.00536060  0.67128249  1
  Fe  Fe47  1  0.83884095  0.17113278  0.83842942  1
  Ni  Ni48  1  0.83876145  0.50500950  0.50482567  1
  Fe  Fe49  1  0.67089156  0.33825679  0.67158714  1
  Fe  Fe50  1  0.83795422  0.50413439  0.83851962  1
  Fe  Fe51  1  0.83818857  0.83827346  0.50413783  1
  Fe  Fe52  1  0.67177556  0.67049657  0.67167719  1
  Fe  Fe53  1  0.83779529  0.83884193  0.83860746  1
" 