8273,Ni72Fe5Cr21_6,-231.440852576747, 163.064635362878,Ni72Fe5Cr21,"# generated using pymatgen
 data_Cr4FeNi13
_symmetry_space_group_name_H-M   'P 1'
_cell_length_a   7.47275704
_cell_length_b   7.47275704
_cell_length_c   10.56807435
_cell_angle_alpha   90.00000000
_cell_angle_beta   90.00000000
_cell_angle_gamma   90.00000000
_symmetry_Int_Tables_number   1
_chemical_formula_structural   Cr4FeNi13
_chemical_formula_sum   'Cr12 Fe3 Ni39'
_cell_volume   590.14344031
_cell_formula_units_Z   3
loop_
 _symmetry_equiv_pos_site_id
 _symmetry_equiv_pos_as_xyz
  1  'x, y, z'
loop_
 _atom_site_type_symbol
 _atom_site_label
 _atom_site_symmetry_multiplicity
 _atom_site_fract_x
 _atom_site_fract_y
 _atom_site_fract_z
 _atom_site_occupancy
  Ni  Ni0  1  0.99789908  0.00167989  0.99929557  1
  Ni  Ni1  1  0.16505035  0.16559451  0.16645201  1
  Ni  Ni2  1  0.00027697  0.00077596  0.33231884  1
  Ni  Ni3  1  0.99673351  0.33059315  0.99843712  1
  Cr  Cr4  1  0.16843884  0.49865955  0.16607671  1
  Cr  Cr5  1  0.99894302  0.33101851  0.33335607  1
  Cr  Cr6  1  0.99712020  0.66639035  0.99844247  1
  Cr  Cr7  1  0.16529012  0.83461110  0.16822385  1
  Cr  Cr8  1  0.99767373  0.66694599  0.33386207  1
  Cr  Cr9  1  0.33178275  0.99945281  0.99892272  1
  Ni  Ni10  1  0.50158337  0.16846837  0.16825010  1
  Ni  Ni11  1  0.33302274  0.00133943  0.33452040  1
  Cr  Cr12  1  0.33230346  0.33256640  0.00142926  1
  Ni  Ni13  1  0.50193863  0.49843641  0.16686597  1
  Ni  Ni14  1  0.33580731  0.33154156  0.33299551  1
  Ni  Ni15  1  0.33533517  0.66673672  0.99729264  1
  Cr  Cr16  1  0.50128533  0.83165655  0.16666255  1
  Ni  Ni17  1  0.33594230  0.66597466  0.33553632  1
  Fe  Fe18  1  0.66960936  -0.00037456  0.99949231  1
  Ni  Ni19  1  0.83221269  0.16551931  0.16510654  1
  Ni  Ni20  1  0.66555553  0.00067537  0.33238129  1
  Ni  Ni21  1  0.66946416  0.33429716  0.00154682  1
  Ni  Ni22  1  0.82870167  0.49819803  0.16499681  1
  Ni  Ni23  1  0.66402772  0.33345972  0.33289283  1
  Ni  Ni24  1  0.66656297  0.66562962  0.00021052  1
  Ni  Ni25  1  0.83155307  0.83516337  0.16591836  1
  Ni  Ni26  1  0.66453041  0.66472278  0.33205037  1
  Ni  Ni27  1  0.16724108  0.16561096  0.50042660  1
  Ni  Ni28  1  0.00120142  0.00004280  0.66724081  1
  Fe  Fe29  1  0.16261479  0.16597935  0.83132213  1
  Ni  Ni30  1  0.16828427  0.49979227  0.50152414  1
  Ni  Ni31  1  -0.00008689  0.33350085  0.66705966  1
  Ni  Ni32  1  0.16455220  0.50076603  0.83151659  1
  Ni  Ni33  1  0.16878032  0.83345285  0.50010123  1
  Ni  Ni34  1  0.00131732  0.66531855  0.66736271  1
  Ni  Ni35  1  0.16610167  0.83195856  0.83143511  1
  Ni  Ni36  1  0.49970788  0.16660458  0.49936173  1
  Ni  Ni37  1  0.33218508  0.99941170  0.66539034  1
  Cr  Cr38  1  0.50252362  0.16528091  0.83110875  1
  Ni  Ni39  1  0.49827603  0.49832938  0.49803952  1
  Ni  Ni40  1  0.33119402  0.33185947  0.66459691  1
  Cr  Cr41  1  0.49893205  0.50033206  0.83370633  1
  Ni  Ni42  1  0.49676173  0.83391258  0.49903924  1
  Fe  Fe43  1  0.33045002  0.66719116  0.66554441  1
  Ni  Ni44  1  0.49895537  0.83316495  0.83327331  1
  Ni  Ni45  1  0.83188135  0.16714879  0.50060194  1
  Ni  Ni46  1  0.66545710  0.00080451  0.66717549  1
  Ni  Ni47  1  0.83435602  0.16602472  0.83316062  1
  Ni  Ni48  1  0.83229660  0.49684092  0.50062075  1
  Ni  Ni49  1  0.66770308  0.33178218  0.66438608  1
  Ni  Ni50  1  0.83541822  0.49767347  0.83325508  1
  Cr  Cr51  1  0.83346513  0.83538197  0.49873700  1
  Cr  Cr52  1  0.66735641  0.66629408  0.66608166  1
  Ni  Ni53  1  0.83380078  0.83517875  0.83376700  1
" 