774,Ni72Fe28_8,-235.899691540857, 204.128095727611,Ni72Fe28,"# generated using pymatgen
 data_Fe19Ni8
_symmetry_space_group_name_H-M   'P 1'
_cell_length_a   7.39787195
_cell_length_b   7.39787195
_cell_length_c   10.46217084
_cell_angle_alpha   90.00000000
_cell_angle_beta   90.00000000
_cell_angle_gamma   90.00000000
_symmetry_Int_Tables_number   1
_chemical_formula_structural   Fe19Ni8
_chemical_formula_sum   'Fe38 Ni16'
_cell_volume   572.57901468
_cell_formula_units_Z   2
loop_
 _symmetry_equiv_pos_site_id
 _symmetry_equiv_pos_as_xyz
  1  'x, y, z'
loop_
 _atom_site_type_symbol
 _atom_site_label
 _atom_site_symmetry_multiplicity
 _atom_site_fract_x
 _atom_site_fract_y
 _atom_site_fract_z
 _atom_site_occupancy
  Fe  Fe0  1  0.00513553  0.00511470  0.00476545  1
  Fe  Fe1  1  0.17195121  0.17125878  0.17098575  1
  Ni  Ni2  1  1.00392141  1.00447706  0.33817546  1
  Ni  Ni3  1  0.00592741  0.33886336  1.00410587  1
  Fe  Fe4  1  0.17155689  0.50401479  0.17067581  1
  Fe  Fe5  1  1.00444104  0.33687516  0.33792575  1
  Ni  Ni6  1  1.00301513  0.67059724  0.00498183  1
  Fe  Fe7  1  0.17163171  0.83875110  0.17127394  1
  Fe  Fe8  1  1.00438793  0.67223898  0.33822328  1
  Ni  Ni9  1  0.33869523  0.00661468  0.00485778  1
  Ni  Ni10  1  0.50516874  0.17077841  0.17116056  1
  Fe  Fe11  1  0.33799816  0.00496086  0.33731576  1
  Ni  Ni12  1  0.33744730  0.33634050  0.00469967  1
  Fe  Fe13  1  0.50483835  0.50421881  0.17157789  1
  Fe  Fe14  1  0.33809338  0.33705294  0.33861839  1
  Fe  Fe15  1  0.33735124  0.67068389  1.00462028  1
  Fe  Fe16  1  0.50498322  0.83876037  0.17110382  1
  Fe  Fe17  1  0.33808681  0.67201798  0.33861617  1
  Fe  Fe18  1  0.67134024  0.00510779  0.00519434  1
  Fe  Fe19  1  0.83763311  0.17112208  0.17137825  1
  Ni  Ni20  1  0.67150806  1.00448002  0.33820562  1
  Fe  Fe21  1  0.67142793  0.33810456  0.00484492  1
  Fe  Fe22  1  0.83763094  0.50453523  0.17058619  1
  Fe  Fe23  1  0.67149608  0.33695701  0.33801085  1
  Ni  Ni24  1  0.67269064  0.67185364  1.00456788  1
  Fe  Fe25  1  0.83741010  0.83836655  0.17159849  1
  Fe  Fe26  1  0.67155350  0.67216578  0.33771037  1
  Ni  Ni27  1  0.17072957  0.17159939  0.50427014  1
  Fe  Fe28  1  0.00525639  0.00543158  0.67087539  1
  Ni  Ni29  1  0.17038146  0.17213983  0.83898844  1
  Ni  Ni30  1  0.17200952  0.50435922  0.50436628  1
  Fe  Fe31  1  0.00573732  0.33815317  0.67209219  1
  Ni  Ni32  1  0.17167803  0.50460933  0.83832131  1
  Fe  Fe33  1  0.17132816  0.83741462  0.50450109  1
  Ni  Ni34  1  1.00409153  0.67124707  0.67065137  1
  Fe  Fe35  1  0.17050453  0.83838307  0.83824786  1
  Fe  Fe36  1  0.50369649  0.17239872  0.50406796  1
  Fe  Fe37  1  0.33710725  0.00489500  0.67195338  1
  Fe  Fe38  1  0.50348536  0.17192330  0.83874679  1
  Ni  Ni39  1  0.50432432  0.50565319  0.50419709  1
  Ni  Ni40  1  0.33809557  0.33739169  0.67104081  1
  Fe  Fe41  1  0.50417294  0.50340631  0.83755727  1
  Fe  Fe42  1  0.50394280  0.83772355  0.50445346  1
  Fe  Fe43  1  0.33748330  0.67020266  0.67078161  1
  Fe  Fe44  1  0.50431961  0.83869563  0.83847004  1
  Fe  Fe45  1  0.83836591  0.17185163  0.50458022  1
  Fe  Fe46  1  0.67164757  0.00482328  0.67104345  1
  Ni  Ni47  1  0.83846223  0.17046989  0.83889463  1
  Fe  Fe48  1  0.83867240  0.50454135  0.50480723  1
  Fe  Fe49  1  0.67141833  0.33852319  0.67117340  1
  Fe  Fe50  1  0.83943175  0.50431427  0.83862535  1
  Fe  Fe51  1  0.83874258  0.83763067  0.50436587  1
  Fe  Fe52  1  0.67086800  0.67068063  0.67155988  1
  Fe  Fe53  1  0.83919607  0.83769581  0.83805739  1
" 