3952,Ni72Fe28_7,-235.998257663968, 199.645965740448,Ni72Fe28,"# generated using pymatgen
 data_Fe19Ni8
_symmetry_space_group_name_H-M   'P 1'
_cell_length_a   7.39727204
_cell_length_b   7.39727204
_cell_length_c   10.46132244
_cell_angle_alpha   90.00000000
_cell_angle_beta   90.00000000
_cell_angle_gamma   90.00000000
_symmetry_Int_Tables_number   1
_chemical_formula_structural   Fe19Ni8
_chemical_formula_sum   'Fe38 Ni16'
_cell_volume   572.43973106
_cell_formula_units_Z   2
loop_
 _symmetry_equiv_pos_site_id
 _symmetry_equiv_pos_as_xyz
  1  'x, y, z'
loop_
 _atom_site_type_symbol
 _atom_site_label
 _atom_site_symmetry_multiplicity
 _atom_site_fract_x
 _atom_site_fract_y
 _atom_site_fract_z
 _atom_site_occupancy
  Fe  Fe0  1  1.00443225  1.00423208  0.00553822  1
  Fe  Fe1  1  0.17297685  0.17174458  0.17053041  1
  Ni  Ni2  1  0.00555438  0.00521177  0.33720897  1
  Fe  Fe3  1  0.00489258  0.33607172  1.00408534  1
  Fe  Fe4  1  0.17302348  0.50485389  0.17140250  1
  Fe  Fe5  1  1.00362788  0.33647372  0.33804782  1
  Fe  Fe6  1  0.00517003  0.67395431  0.00491046  1
  Ni  Ni7  1  0.16896662  0.83909547  0.17173399  1
  Fe  Fe8  1  1.00368544  0.67292387  0.33792145  1
  Ni  Ni9  1  0.33794636  1.00444017  0.00613576  1
  Ni  Ni10  1  0.50615911  0.17280008  0.17156768  1
  Fe  Fe11  1  0.33822988  0.00508776  0.33750772  1
  Fe  Fe12  1  0.33930265  0.33701427  1.00428115  1
  Ni  Ni13  1  0.50650057  0.50381189  0.17152165  1
  Fe  Fe14  1  0.33945902  0.33690311  0.33794285  1
  Fe  Fe15  1  0.33858649  0.67279353  0.00501805  1
  Fe  Fe16  1  0.50413256  0.83928827  0.17113374  1
  Fe  Fe17  1  0.33876541  0.67229942  0.33784574  1
  Ni  Ni18  1  0.67066119  1.00459404  1.00388789  1
  Fe  Fe19  1  0.83672699  0.17048359  0.17206309  1
  Ni  Ni20  1  0.67142625  0.00508748  0.33878745  1
  Fe  Fe21  1  0.67055419  0.33687336  0.00551625  1
  Fe  Fe22  1  0.83814816  0.50464849  0.17114177  1
  Ni  Ni23  1  0.67198510  0.33882408  0.33844034  1
  Fe  Fe24  1  0.67007480  0.67208179  1.00345018  1
  Fe  Fe25  1  0.83513103  0.83902987  0.17237743  1
  Fe  Fe26  1  0.67164981  0.67196401  0.33961499  1
  Fe  Fe27  1  0.17124589  0.17111514  0.50580250  1
  Fe  Fe28  1  1.00443998  1.00413589  0.67065847  1
  Ni  Ni29  1  0.17082334  0.16902223  0.83851822  1
  Fe  Fe30  1  0.17135809  0.50629641  0.50433304  1
  Fe  Fe31  1  0.00513078  0.33737576  0.67224995  1
  Fe  Fe32  1  0.17240024  0.50445522  0.83842794  1
  Ni  Ni33  1  0.16992633  0.83933600  0.50457791  1
  Fe  Fe34  1  0.00535870  0.67303375  0.67129221  1
  Ni  Ni35  1  0.16978826  0.83949673  0.83760668  1
  Fe  Fe36  1  0.50479936  0.16926413  0.50350600  1
  Ni  Ni37  1  0.33735199  0.00517419  0.67071460  1
  Fe  Fe38  1  0.50233613  0.16963267  0.83899186  1
  Ni  Ni39  1  0.50537738  0.50249480  0.50395980  1
  Fe  Fe40  1  0.33934649  0.33838650  0.67207193  1
  Ni  Ni41  1  0.50661148  0.50333105  0.83875951  1
  Fe  Fe42  1  0.50501870  0.83703122  0.50556571  1
  Fe  Fe43  1  0.33930277  0.67177234  0.67128760  1
  Fe  Fe44  1  0.50246111  0.83847687  0.83746307  1
  Fe  Fe45  1  0.83797049  0.17099484  0.50357073  1
  Fe  Fe46  1  0.67105305  1.00361159  0.67101327  1
  Fe  Fe47  1  0.83789492  0.17124135  0.83839173  1
  Fe  Fe48  1  0.83851137  0.50620134  0.50506952  1
  Fe  Fe49  1  0.66985657  0.33781520  0.67052631  1
  Fe  Fe50  1  0.83970175  0.50482081  0.83785710  1
  Ni  Ni51  1  0.83963222  0.83924670  0.50468605  1
  Ni  Ni52  1  0.67217688  0.67034218  0.67111575  1
  Fe  Fe53  1  0.83703708  0.83798891  0.83705008  1
" 