5881,Ni72Fe14Cr12_0,-235.839865360814, 188.499353350228,Ni72Fe14Cr12,"# generated using pymatgen
 data_Cr4Fe4Ni19
_symmetry_space_group_name_H-M   'P 1'
_cell_length_a   7.44584267
_cell_length_b   7.44584267
_cell_length_c   10.53001169
_cell_angle_alpha   90.00000000
_cell_angle_beta   90.00000000
_cell_angle_gamma   90.00000000
_symmetry_Int_Tables_number   1
_chemical_formula_structural   Cr4Fe4Ni19
_chemical_formula_sum   'Cr8 Fe8 Ni38'
_cell_volume   583.78988325
_cell_formula_units_Z   2
loop_
 _symmetry_equiv_pos_site_id
 _symmetry_equiv_pos_as_xyz
  1  'x, y, z'
loop_
 _atom_site_type_symbol
 _atom_site_label
 _atom_site_symmetry_multiplicity
 _atom_site_fract_x
 _atom_site_fract_y
 _atom_site_fract_z
 _atom_site_occupancy
  Ni  Ni0  1  1.00089278  1.00047422  1.00126219  1
  Cr  Cr1  1  0.16895497  0.16600379  0.16609648  1
  Ni  Ni2  1  1.00064476  1.00096642  0.33347152  1
  Ni  Ni3  1  0.00217376  0.33518381  0.99999880  1
  Ni  Ni4  1  0.16938023  0.50436799  0.16714846  1
  Cr  Cr5  1  1.00028232  0.33419383  0.33656464  1
  Ni  Ni6  1  0.00178448  0.66861271  0.00179749  1
  Ni  Ni7  1  0.16735329  0.83389594  0.16845542  1
  Fe  Fe8  1  0.00289418  0.66949505  0.33360119  1
  Ni  Ni9  1  0.33549518  1.00122490  1.00106692  1
  Ni  Ni10  1  0.50287469  0.16775324  0.16795146  1
  Ni  Ni11  1  0.33628305  0.99893449  0.33545088  1
  Ni  Ni12  1  0.33529394  0.33551499  1.00113384  1
  Ni  Ni13  1  0.50107540  0.50131343  0.16739206  1
  Cr  Cr14  1  0.33559835  0.33516176  0.33504989  1
  Fe  Fe15  1  0.33464546  0.66796537  0.00197512  1
  Ni  Ni16  1  0.50135912  0.83520526  0.16925950  1
  Ni  Ni17  1  0.33627941  0.67007944  0.33214226  1
  Ni  Ni18  1  0.66788234  1.00083439  0.00262299  1
  Fe  Fe19  1  0.83266193  0.16537281  0.16735651  1
  Fe  Fe20  1  0.66645280  0.00147162  0.33415958  1
  Ni  Ni21  1  0.66680267  0.33462072  0.00194159  1
  Cr  Cr22  1  0.83374671  0.50259024  0.16751611  1
  Fe  Fe23  1  0.66742645  0.33318738  0.33511236  1
  Ni  Ni24  1  0.66755228  0.66881360  1.00035432  1
  Ni  Ni25  1  0.83555926  0.83569313  0.16882120  1
  Ni  Ni26  1  0.66638712  0.66945810  0.33446880  1
  Fe  Fe27  1  0.16800621  0.16755671  0.50346833  1
  Ni  Ni28  1  1.00134782  0.00336514  0.66953494  1
  Ni  Ni29  1  0.16893501  0.16785835  0.83359108  1
  Fe  Fe30  1  0.16587009  0.50037115  0.50241680  1
  Ni  Ni31  1  0.00149175  0.33494083  0.66736152  1
  Ni  Ni32  1  0.16644103  0.49991841  0.83524946  1
  Cr  Cr33  1  0.16866000  0.83621016  0.50051449  1
  Ni  Ni34  1  0.99913784  0.66596476  0.66835227  1
  Ni  Ni35  1  0.16624213  0.83649480  0.83591060  1
  Ni  Ni36  1  0.50173636  0.16650744  0.50213081  1
  Ni  Ni37  1  0.33587587  0.00398125  0.66775235  1
  Ni  Ni38  1  0.50014316  0.16851528  0.83419295  1
  Cr  Cr39  1  0.50384532  0.50082533  0.50179553  1
  Ni  Ni40  1  0.33357137  0.33216201  0.66824069  1
  Ni  Ni41  1  0.50302974  0.49965306  0.83585203  1
  Ni  Ni42  1  0.50143904  0.83773395  0.50039641  1
  Cr  Cr43  1  0.33586658  0.66842492  0.67009430  1
  Ni  Ni44  1  0.50257342  0.83610462  0.83461470  1
  Ni  Ni45  1  0.83413842  0.16996570  0.50171942  1
  Ni  Ni46  1  0.66704664  0.00162542  0.66782674  1
  Fe  Fe47  1  0.83486914  0.16809075  0.83430724  1
  Ni  Ni48  1  0.83546064  0.49993959  0.50254421  1
  Ni  Ni49  1  0.66920770  0.33437523  0.66772050  1
  Ni  Ni50  1  0.83480000  0.50234597  0.83361130  1
  Cr  Cr51  1  0.83413862  0.83369546  0.50195532  1
  Ni  Ni52  1  0.66982500  0.66827042  0.66945024  1
  Ni  Ni53  1  0.83545712  0.83360768  0.83411722  1
" 