3771,Ni72Fe9Cr17_6,-232.623178028917, 170.602378468016,Ni72Fe9Cr17,"# generated using pymatgen
 data_Cr11Fe4Ni39
_symmetry_space_group_name_H-M   'P 1'
_cell_length_a   7.46201457
_cell_length_b   7.46201457
_cell_length_c   10.55288220
_cell_angle_alpha   90.00000000
_cell_angle_beta   90.00000000
_cell_angle_gamma   90.00000000
_symmetry_Int_Tables_number   1
_chemical_formula_structural   Cr11Fe4Ni39
_chemical_formula_sum   'Cr11 Fe4 Ni39'
_cell_volume   587.60201359
_cell_formula_units_Z   1
loop_
 _symmetry_equiv_pos_site_id
 _symmetry_equiv_pos_as_xyz
  1  'x, y, z'
loop_
 _atom_site_type_symbol
 _atom_site_label
 _atom_site_symmetry_multiplicity
 _atom_site_fract_x
 _atom_site_fract_y
 _atom_site_fract_z
 _atom_site_occupancy
  Ni  Ni0  1  0.00105077  0.99847847  0.00172113  1
  Ni  Ni1  1  0.16682562  0.16640541  0.16742173  1
  Ni  Ni2  1  0.99988403  1.00004709  0.32987125  1
  Fe  Fe3  1  0.00061435  0.33406125  0.00036672  1
  Ni  Ni4  1  0.16906608  0.49975690  0.16734564  1
  Ni  Ni5  1  0.00242543  0.33523084  0.33306681  1
  Ni  Ni6  1  0.00135471  0.66849865  0.99953682  1
  Ni  Ni7  1  0.16523452  0.83486569  0.16666708  1
  Ni  Ni8  1  1.00000792  0.66572159  0.33334996  1
  Ni  Ni9  1  0.33172552  0.00097353  0.00056017  1
  Ni  Ni10  1  0.49901231  0.16956954  0.16788381  1
  Ni  Ni11  1  0.33552763  0.00270819  0.33312654  1
  Ni  Ni12  1  0.33522252  0.33476138  0.00145337  1
  Ni  Ni13  1  0.49868476  0.49848850  0.16664743  1
  Ni  Ni14  1  0.33311595  0.33267948  0.33220967  1
  Ni  Ni15  1  0.33212449  0.66528728  0.99992250  1
  Cr  Cr16  1  0.49965244  0.83178336  0.16812905  1
  Fe  Fe17  1  0.33203284  0.66656656  0.33281069  1
  Cr  Cr18  1  0.66821455  0.00114160  0.99929949  1
  Ni  Ni19  1  0.83519592  0.16575556  0.16812358  1
  Ni  Ni20  1  0.66559221  1.00030677  0.33327940  1
  Ni  Ni21  1  0.66501362  0.33443186  0.99999881  1
  Cr  Cr22  1  0.83236114  0.50059411  0.16681641  1
  Fe  Fe23  1  0.66666733  0.33208245  0.33268602  1
  Ni  Ni24  1  0.66753022  0.66499446  0.99823651  1
  Ni  Ni25  1  0.83641228  0.83513244  0.16801714  1
  Ni  Ni26  1  0.66815679  0.66818078  0.33396417  1
  Cr  Cr27  1  0.16702198  0.16889291  0.50035459  1
  Ni  Ni28  1  0.99917325  0.99933946  0.66944922  1
  Cr  Cr29  1  0.16534984  0.16712446  0.83390880  1
  Ni  Ni30  1  0.16562883  0.49980553  0.50089046  1
  Ni  Ni31  1  0.99966460  0.33718247  0.66747787  1
  Ni  Ni32  1  0.16782764  0.50187074  0.83276228  1
  Cr  Cr33  1  0.16789819  0.83234129  0.50019927  1
  Ni  Ni34  1  1.00027701  0.66448621  0.66811933  1
  Ni  Ni35  1  0.16659950  0.83207513  0.83437805  1
  Ni  Ni36  1  0.50008642  0.16697978  0.49913673  1
  Cr  Cr37  1  0.33527425  0.99981947  0.66755581  1
  Fe  Fe38  1  0.50118573  0.16999966  0.83460537  1
  Cr  Cr39  1  0.50078784  0.50101396  0.50019411  1
  Ni  Ni40  1  0.33416791  0.33641847  0.66737375  1
  Ni  Ni41  1  0.50094463  0.50143475  0.83385248  1
  Ni  Ni42  1  0.50041486  0.83349424  0.49882522  1
  Ni  Ni43  1  0.33306725  0.66477841  0.66803122  1
  Ni  Ni44  1  0.49956665  0.82985696  0.83363659  1
  Cr  Cr45  1  0.83403079  0.16936329  0.49979320  1
  Cr  Cr46  1  0.66656132  1.00015119  0.66847354  1
  Ni  Ni47  1  0.83437485  0.16845325  0.83318038  1
  Ni  Ni48  1  0.83484552  0.50017642  0.50110343  1
  Ni  Ni49  1  0.66718836  0.33529597  0.66790132  1
  Ni  Ni50  1  0.83224853  0.50011231  0.83261292  1
  Cr  Cr51  1  0.83280933  0.83153120  0.49966374  1
  Ni  Ni52  1  0.66766624  0.66525676  0.66877072  1
  Ni  Ni53  1  0.83484391  0.83245316  0.83344890  1
" 