1523,Ni72Fe9Cr17_13,-232.673781287525, 169.342792976157,Ni72Fe9Cr17,"# generated using pymatgen
 data_Cr11Fe4Ni39
_symmetry_space_group_name_H-M   'P 1'
_cell_length_a   7.46136873
_cell_length_b   7.46136873
_cell_length_c   10.55196886
_cell_angle_alpha   90.00000000
_cell_angle_beta   90.00000000
_cell_angle_gamma   90.00000000
_symmetry_Int_Tables_number   1
_chemical_formula_structural   Cr11Fe4Ni39
_chemical_formula_sum   'Cr11 Fe4 Ni39'
_cell_volume   587.44945715
_cell_formula_units_Z   1
loop_
 _symmetry_equiv_pos_site_id
 _symmetry_equiv_pos_as_xyz
  1  'x, y, z'
loop_
 _atom_site_type_symbol
 _atom_site_label
 _atom_site_symmetry_multiplicity
 _atom_site_fract_x
 _atom_site_fract_y
 _atom_site_fract_z
 _atom_site_occupancy
  Ni  Ni0  1  0.99988687  1.00002764  0.99991841  1
  Cr  Cr1  1  0.16634386  0.16906873  0.16586064  1
  Ni  Ni2  1  0.99804554  0.00298121  0.33282555  1
  Ni  Ni3  1  0.99788831  0.33226286  1.00029495  1
  Ni  Ni4  1  0.16934303  0.50093616  0.16586583  1
  Fe  Fe5  1  0.99962072  0.33307976  0.33419391  1
  Ni  Ni6  1  1.00034082  0.66878699  0.99975814  1
  Ni  Ni7  1  0.16647012  0.83265655  0.16471472  1
  Cr  Cr8  1  0.00174981  0.66726254  0.33310249  1
  Ni  Ni9  1  0.33469644  0.99865554  0.99939962  1
  Ni  Ni10  1  0.50254112  0.16809309  0.16610617  1
  Cr  Cr11  1  0.33335638  0.99939262  0.33159043  1
  Fe  Fe12  1  0.33619583  0.33330394  1.00031666  1
  Ni  Ni13  1  0.49950005  0.49978483  0.16697583  1
  Ni  Ni14  1  0.33505228  0.33653985  0.33379627  1
  Ni  Ni15  1  0.33521958  0.66915077  0.00192630  1
  Ni  Ni16  1  0.50221422  0.83317176  0.16660871  1
  Ni  Ni17  1  0.33531999  0.66324719  0.33208485  1
  Ni  Ni18  1  0.66657399  0.00107032  0.00061788  1
  Ni  Ni19  1  0.83197009  0.16553711  0.16680893  1
  Ni  Ni20  1  0.66986522  0.00239626  0.33107290  1
  Ni  Ni21  1  0.66677792  0.33280190  0.99948897  1
  Cr  Cr22  1  0.83290298  0.49974517  0.16530471  1
  Ni  Ni23  1  0.66676811  0.33349101  0.33393778  1
  Ni  Ni24  1  0.66552672  0.66730261  0.99971434  1
  Ni  Ni25  1  0.83250720  0.83550269  0.16615752  1
  Ni  Ni26  1  0.66481142  0.66497517  0.33285512  1
  Ni  Ni27  1  0.16603929  0.16900633  0.50045099  1
  Ni  Ni28  1  0.00079946  0.00152597  0.66872150  1
  Ni  Ni29  1  0.16853688  0.16512725  0.83407503  1
  Ni  Ni30  1  0.16779253  0.49729655  0.49914750  1
  Cr  Cr31  1  0.99836449  0.33322515  0.66562791  1
  Cr  Cr32  1  0.16614238  0.49955642  0.83675045  1
  Cr  Cr33  1  0.16635940  0.83534998  0.50223636  1
  Ni  Ni34  1  0.99761961  0.66770610  0.66837064  1
  Ni  Ni35  1  0.16580038  0.83636112  0.83462162  1
  Cr  Cr36  1  0.50075350  0.16769056  0.50131150  1
  Ni  Ni37  1  0.33194123  0.00287751  0.66966397  1
  Ni  Ni38  1  0.49970158  0.16711636  0.83383854  1
  Ni  Ni39  1  0.50172047  0.49876306  0.49981122  1
  Ni  Ni40  1  0.33567819  0.33178035  0.66745352  1
  Ni  Ni41  1  0.50322152  0.49914297  0.83451728  1
  Cr  Cr42  1  0.50332643  0.83279439  0.50042936  1
  Cr  Cr43  1  0.33481747  0.66600135  0.66738957  1
  Ni  Ni44  1  0.50191000  0.83486370  0.83411622  1
  Ni  Ni45  1  0.83416714  0.16772494  0.49936828  1
  Fe  Fe46  1  0.66816614  0.00175684  0.66985299  1
  Fe  Fe47  1  0.83302583  0.16656188  0.83508693  1
  Ni  Ni48  1  0.83157476  0.49932873  0.50068365  1
  Ni  Ni49  1  0.66659195  0.33496237  0.66779943  1
  Ni  Ni50  1  0.83158252  0.50205781  0.83439675  1
  Cr  Cr51  1  0.83166715  0.83430618  0.50117088  1
  Ni  Ni52  1  0.66827131  0.66353165  0.66847531  1
  Ni  Ni53  1  0.83348960  0.83290999  0.83388476  1
" 