3159,Ni72Fe7Cr20_6,-231.627362162522, 165.046468964584,Ni72Fe7Cr20,"# generated using pymatgen
 data_Cr4FeNi13
_symmetry_space_group_name_H-M   'P 1'
_cell_length_a   7.47037068
_cell_length_b   7.47037068
_cell_length_c   10.56469953
_cell_angle_alpha   90.00000000
_cell_angle_beta   90.00000000
_cell_angle_gamma   90.00000000
_symmetry_Int_Tables_number   1
_chemical_formula_structural   Cr4FeNi13
_chemical_formula_sum   'Cr12 Fe3 Ni39'
_cell_volume   589.57825001
_cell_formula_units_Z   3
loop_
 _symmetry_equiv_pos_site_id
 _symmetry_equiv_pos_as_xyz
  1  'x, y, z'
loop_
 _atom_site_type_symbol
 _atom_site_label
 _atom_site_symmetry_multiplicity
 _atom_site_fract_x
 _atom_site_fract_y
 _atom_site_fract_z
 _atom_site_occupancy
  Ni  Ni0  1  0.00069143  0.99936746  0.00137264  1
  Ni  Ni1  1  0.16588628  0.16598712  0.16568801  1
  Ni  Ni2  1  0.00008811  0.99802858  0.33332776  1
  Ni  Ni3  1  0.00081178  0.33464653  -0.00001719  1
  Ni  Ni4  1  0.16732492  0.50037139  0.16484852  1
  Cr  Cr5  1  0.99900093  0.33268735  0.33144196  1
  Ni  Ni6  1  0.00044904  0.66529046  -0.00007607  1
  Ni  Ni7  1  0.16592563  0.83299279  0.16719814  1
  Ni  Ni8  1  0.99973119  0.66788067  0.33357675  1
  Ni  Ni9  1  0.33303320  0.99795102  0.99924726  1
  Cr  Cr10  1  0.49829180  0.16560273  0.16768844  1
  Ni  Ni11  1  0.33246147  0.99856418  0.33397960  1
  Ni  Ni12  1  0.33038385  0.33328337  0.00004653  1
  Ni  Ni13  1  0.49861921  0.50244770  0.16870834  1
  Ni  Ni14  1  0.33389021  0.33386963  0.33467695  1
  Fe  Fe15  1  0.33181186  0.66804825  0.00129070  1
  Ni  Ni16  1  0.50040326  0.83129030  0.16575303  1
  Ni  Ni17  1  0.33334939  0.66694979  0.33274135  1
  Ni  Ni18  1  0.66557281  0.99763861  0.99861468  1
  Ni  Ni19  1  0.83505232  0.16405079  0.16633006  1
  Ni  Ni20  1  0.66674566  0.99867564  0.33418721  1
  Cr  Cr21  1  0.66892391  0.33303218  0.00007208  1
  Ni  Ni22  1  0.83336494  0.50248400  0.16623481  1
  Ni  Ni23  1  0.66579000  0.33417610  0.33428256  1
  Ni  Ni24  1  0.66694893  0.66803144  0.00138045  1
  Ni  Ni25  1  0.83295962  0.83273442  0.16686297  1
  Ni  Ni26  1  0.66628120  0.66647479  0.33306514  1
  Ni  Ni27  1  0.16794408  0.16714941  0.49906988  1
  Ni  Ni28  1  0.99831098  0.00003147  0.66455750  1
  Cr  Cr29  1  0.16649268  0.16717119  0.83458004  1
  Ni  Ni30  1  0.16815146  0.49890677  0.49895793  1
  Cr  Cr31  1  0.99972250  0.33296820  0.66689993  1
  Ni  Ni32  1  0.16585757  0.50035689  0.83542230  1
  Fe  Fe33  1  0.16482953  0.83473603  0.49683868  1
  Cr  Cr34  1  0.00082714  0.66699348  0.66546550  1
  Ni  Ni35  1  0.16701261  0.83199268  0.83461214  1
  Ni  Ni36  1  0.49914047  0.16556863  0.49904911  1
  Cr  Cr37  1  0.33420050  0.99967570  0.66605098  1
  Ni  Ni38  1  0.50020040  0.16381365  0.83290862  1
  Fe  Fe39  1  0.49947793  0.49835633  0.49646438  1
  Ni  Ni40  1  0.33303764  0.33274383  0.66462403  1
  Cr  Cr41  1  0.49754532  0.49957481  0.83413959  1
  Ni  Ni42  1  0.50189157  0.83460427  0.49763620  1
  Cr  Cr43  1  0.33197846  0.66691716  0.66634497  1
  Ni  Ni44  1  0.49948547  0.83580794  0.83596258  1
  Ni  Ni45  1  0.83214234  0.16315528  0.49970320  1
  Ni  Ni46  1  0.66661585  0.00091552  0.66648800  1
  Ni  Ni47  1  0.83224391  0.16493135  0.83326263  1
  Ni  Ni48  1  0.83352317  0.50156758  0.49750939  1
  Cr  Cr49  1  0.66634241  0.33059021  0.66589689  1
  Ni  Ni50  1  0.83599842  0.49956605  0.83554234  1
  Ni  Ni51  1  0.83183943  0.83459331  0.49844452  1
  Cr  Cr52  1  0.66637037  0.66796007  0.66517094  1
  Cr  Cr53  1  0.83301436  0.83478438  0.83386454  1
" 