5618,Ni72Fe9Cr17_14,-232.611202314218, 169.917722934045,Ni72Fe9Cr17,"# generated using pymatgen
 data_Cr11Fe4Ni39
_symmetry_space_group_name_H-M   'P 1'
_cell_length_a   7.46474767
_cell_length_b   7.46474767
_cell_length_c   10.55674739
_cell_angle_alpha   90.00000000
_cell_angle_beta   90.00000000
_cell_angle_gamma   90.00000000
_symmetry_Int_Tables_number   1
_chemical_formula_structural   Cr11Fe4Ni39
_chemical_formula_sum   'Cr11 Fe4 Ni39'
_cell_volume   588.24791027
_cell_formula_units_Z   1
loop_
 _symmetry_equiv_pos_site_id
 _symmetry_equiv_pos_as_xyz
  1  'x, y, z'
loop_
 _atom_site_type_symbol
 _atom_site_label
 _atom_site_symmetry_multiplicity
 _atom_site_fract_x
 _atom_site_fract_y
 _atom_site_fract_z
 _atom_site_occupancy
  Ni  Ni0  1  0.00046378  0.99941141  1.00004955  1
  Ni  Ni1  1  0.16668627  0.16726958  0.16772152  1
  Cr  Cr2  1  0.00268596  0.99926549  0.33235466  1
  Cr  Cr3  1  0.00041452  0.33305501  0.99991605  1
  Ni  Ni4  1  0.16576310  0.50041729  0.16596609  1
  Ni  Ni5  1  0.00075467  0.33602992  0.33284736  1
  Ni  Ni6  1  0.00021809  0.66725712  0.00110962  1
  Ni  Ni7  1  0.16645258  0.83288954  0.16606931  1
  Ni  Ni8  1  0.00079384  0.66403334  0.33324692  1
  Cr  Cr9  1  0.33160925  0.00115268  0.00099653  1
  Fe  Fe10  1  0.49941794  0.16810314  0.16727060  1
  Ni  Ni11  1  0.33338862  0.00163088  0.33327395  1
  Ni  Ni12  1  0.33349324  0.33411511  0.99965117  1
  Cr  Cr13  1  0.50029900  0.50005206  0.16463519  1
  Fe  Fe14  1  0.33164119  0.33275358  0.33438581  1
  Ni  Ni15  1  0.33248254  0.66621301  0.99877395  1
  Ni  Ni16  1  0.49867026  0.83288466  0.16584441  1
  Cr  Cr17  1  0.33102368  0.66867288  0.33554279  1
  Cr  Cr18  1  0.66817161  0.00094112  0.99985205  1
  Ni  Ni19  1  0.83435899  0.16863092  0.16625913  1
  Cr  Cr20  1  0.66418886  0.99976361  0.33317257  1
  Ni  Ni21  1  0.66693554  0.33444175  0.99954927  1
  Ni  Ni22  1  0.83428656  0.49966940  0.16727815  1
  Ni  Ni23  1  0.66778216  0.33346508  0.33335503  1
  Ni  Ni24  1  0.66774234  0.66593389  0.99993824  1
  Ni  Ni25  1  0.83544413  0.83201148  0.16433551  1
  Cr  Cr26  1  0.66974082  0.66616147  0.33511241  1
  Ni  Ni27  1  0.16793170  0.16791271  0.50015111  1
  Ni  Ni28  1  0.00033024  0.99980401  0.66808943  1
  Ni  Ni29  1  0.16551111  0.16613013  0.83244926  1
  Ni  Ni30  1  0.16586091  0.49962098  0.50165538  1
  Ni  Ni31  1  0.00111043  0.33479725  0.66729545  1
  Fe  Fe32  1  0.16790693  0.50034922  0.83272449  1
  Ni  Ni33  1  0.16592329  0.83296747  0.50065179  1
  Ni  Ni34  1  0.00164260  0.66578363  0.66596067  1
  Ni  Ni35  1  0.16539363  0.83228676  0.83391719  1
  Ni  Ni36  1  0.49890588  0.16882125  0.49951830  1
  Cr  Cr37  1  0.33407795  0.00025040  0.66603933  1
  Ni  Ni38  1  0.50108355  0.16987298  0.83322157  1
  Ni  Ni39  1  0.49947377  0.49749238  0.50159603  1
  Ni  Ni40  1  0.33327606  0.33466375  0.66645725  1
  Ni  Ni41  1  0.50030502  0.49976013  0.83434877  1
  Ni  Ni42  1  0.49859548  0.83411734  0.50121680  1
  Ni  Ni43  1  0.33200466  0.66516063  0.66708295  1
  Ni  Ni44  1  0.49874879  0.83104015  0.83367868  1
  Cr  Cr45  1  0.83434551  0.16833251  0.50294942  1
  Ni  Ni46  1  0.66664185  0.00109598  0.66735940  1
  Ni  Ni47  1  0.83399246  0.16773879  0.83173650  1
  Ni  Ni48  1  0.83505200  0.49937009  0.49930620  1
  Ni  Ni49  1  0.66617605  0.33328190  0.66757488  1
  Ni  Ni50  1  0.83238726  0.49955725  0.83380268  1
  Ni  Ni51  1  0.83606123  0.83224103  0.50245193  1
  Cr  Cr52  1  0.66607637  0.66620126  0.66536418  1
  Fe  Fe53  1  0.83459465  0.83344348  0.83321139  1
" 