3742,Ni72Fe14Cr12_9,-235.857225797183, 186.580276184338,Ni72Fe14Cr12,"# generated using pymatgen
 data_Cr4Fe4Ni19
_symmetry_space_group_name_H-M   'P 1'
_cell_length_a   7.44560072
_cell_length_b   7.44560072
_cell_length_c   10.52966952
_cell_angle_alpha   90.00000000
_cell_angle_beta   90.00000000
_cell_angle_gamma   90.00000000
_symmetry_Int_Tables_number   1
_chemical_formula_structural   Cr4Fe4Ni19
_chemical_formula_sum   'Cr8 Fe8 Ni38'
_cell_volume   583.73297366
_cell_formula_units_Z   2
loop_
 _symmetry_equiv_pos_site_id
 _symmetry_equiv_pos_as_xyz
  1  'x, y, z'
loop_
 _atom_site_type_symbol
 _atom_site_label
 _atom_site_symmetry_multiplicity
 _atom_site_fract_x
 _atom_site_fract_y
 _atom_site_fract_z
 _atom_site_occupancy
  Ni  Ni0  1  0.00284647  1.00052449  0.00191778  1
  Ni  Ni1  1  0.16811941  0.16703883  0.16847903  1
  Ni  Ni2  1  0.00150089  0.00332275  0.33525603  1
  Ni  Ni3  1  0.00421865  0.33287472  0.00199809  1
  Fe  Fe4  1  0.16863447  0.50029654  0.16693479  1
  Ni  Ni5  1  0.00217348  0.33188114  0.33593034  1
  Ni  Ni6  1  0.00290659  0.67084792  0.00164830  1
  Ni  Ni7  1  0.16947464  0.83821515  0.16659322  1
  Cr  Cr8  1  1.00141809  0.66991399  0.33543052  1
  Ni  Ni9  1  0.33390528  0.00197265  0.00158381  1
  Fe  Fe10  1  0.50145434  0.16638224  0.16838674  1
  Ni  Ni11  1  0.33487468  0.00309063  0.33468910  1
  Ni  Ni12  1  0.33484885  0.33348713  1.00123859  1
  Fe  Fe13  1  0.50062470  0.50111601  0.16721926  1
  Ni  Ni14  1  0.33483210  0.33209828  0.33506682  1
  Ni  Ni15  1  0.33457002  0.66870960  1.00042320  1
  Ni  Ni16  1  0.50099410  0.83430998  0.16658662  1
  Cr  Cr17  1  0.33531412  0.66897565  0.33484703  1
  Fe  Fe18  1  0.66737245  1.00118029  0.00239182  1
  Ni  Ni19  1  0.83605144  0.16764204  0.16754963  1
  Ni  Ni20  1  0.66799829  0.00175317  0.33417114  1
  Ni  Ni21  1  0.66535222  0.33356787  0.00218183  1
  Cr  Cr22  1  0.83276558  0.50001760  0.16723138  1
  Ni  Ni23  1  0.66733614  0.33301843  0.33594623  1
  Ni  Ni24  1  0.66678569  0.66994292  1.00103712  1
  Ni  Ni25  1  0.83370542  0.83644231  0.16743838  1
  Ni  Ni26  1  0.66743578  0.66952361  0.33646277  1
  Ni  Ni27  1  0.16837489  0.16730367  0.50165049  1
  Fe  Fe28  1  0.00320248  0.00228482  0.66786274  1
  Ni  Ni29  1  0.17058446  0.16638238  0.83431131  1
  Ni  Ni30  1  0.16951957  0.49908611  0.50248347  1
  Ni  Ni31  1  0.00486961  0.33319312  0.66636450  1
  Fe  Fe32  1  0.17005703  0.50008165  0.83526583  1
  Ni  Ni33  1  0.17099669  0.83799074  0.50180871  1
  Cr  Cr34  1  0.00325403  0.66829104  0.66673633  1
  Ni  Ni35  1  0.16966713  0.83638925  0.83590796  1
  Ni  Ni36  1  0.50025071  0.16650228  0.50002077  1
  Ni  Ni37  1  0.33566674  0.00212269  0.66794107  1
  Ni  Ni38  1  0.49812948  0.16827533  0.83618228  1
  Ni  Ni39  1  0.50049186  0.50129488  0.49994680  1
  Ni  Ni40  1  0.33332689  0.33367869  0.66813973  1
  Ni  Ni41  1  0.49856513  0.50177803  0.83639285  1
  Ni  Ni42  1  0.49980642  0.83645933  0.50216164  1
  Ni  Ni43  1  0.33419148  0.66869472  0.66874539  1
  Fe  Fe44  1  0.50013892  0.83669080  0.83536660  1
  Ni  Ni45  1  0.83581963  0.16835035  0.50065849  1
  Ni  Ni46  1  0.66653060  1.00141579  0.66846954  1
  Cr  Cr47  1  0.83641017  0.16688935  0.83616686  1
  Ni  Ni48  1  0.83452089  0.49864765  0.49929077  1
  Cr  Cr49  1  0.66586817  0.33222325  0.66606128  1
  Cr  Cr50  1  0.83436888  0.50153402  0.83758400  1
  Fe  Fe51  1  0.83355701  0.83836984  0.50037939  1
  Cr  Cr52  1  0.66627446  0.67008016  0.66637519  1
  Ni  Ni53  1  0.83581568  0.83561702  0.83685934  1
" 