3923,Ni72Fe2Cr25_14,-228.974526456707, 158.044837966644,Ni72Fe2Cr25,"# generated using pymatgen
 data_Cr15FeNi38
_symmetry_space_group_name_H-M   'P 1'
_cell_length_a   7.47477719
_cell_length_b   7.47477719
_cell_length_c   10.57093127
_cell_angle_alpha   90.00000000
_cell_angle_beta   90.00000000
_cell_angle_gamma   90.00000000
_symmetry_Int_Tables_number   1
_chemical_formula_structural   Cr15FeNi38
_chemical_formula_sum   'Cr15 Fe1 Ni38'
_cell_volume   590.62217991
_cell_formula_units_Z   1
loop_
 _symmetry_equiv_pos_site_id
 _symmetry_equiv_pos_as_xyz
  1  'x, y, z'
loop_
 _atom_site_type_symbol
 _atom_site_label
 _atom_site_symmetry_multiplicity
 _atom_site_fract_x
 _atom_site_fract_y
 _atom_site_fract_z
 _atom_site_occupancy
  Ni  Ni0  1  0.00200204  0.00186697  0.99886884  1
  Ni  Ni1  1  0.16766173  0.16430127  0.16564115  1
  Cr  Cr2  1  0.00015495  0.99809135  0.33323003  1
  Ni  Ni3  1  0.99778437  0.33113808  0.99769848  1
  Cr  Cr4  1  0.16424850  0.49903166  0.16821831  1
  Ni  Ni5  1  0.00114613  0.33469492  0.33268681  1
  Cr  Cr6  1  0.99860365  0.66599346  0.99881227  1
  Ni  Ni7  1  0.16995118  0.83481627  0.16636409  1
  Ni  Ni8  1  0.00031338  0.66562435  0.33410728  1
  Ni  Ni9  1  0.33157684  0.99901540  0.00092141  1
  Ni  Ni10  1  0.49677961  0.16315647  0.16766437  1
  Ni  Ni11  1  0.33418919  -0.00030517  0.33035403  1
  Cr  Cr12  1  0.33339011  0.33117696  0.99846702  1
  Cr  Cr13  1  0.50160312  0.50166619  0.16614224  1
  Ni  Ni14  1  0.33221361  0.33209975  0.33401096  1
  Ni  Ni15  1  0.33518448  0.66849795  0.99843512  1
  Ni  Ni16  1  0.49671241  0.83371001  0.16667611  1
  Ni  Ni17  1  0.33156866  0.66662908  0.33387654  1
  Cr  Cr18  1  0.66473899  -0.00044430  0.99767231  1
  Cr  Cr19  1  0.83407469  0.16918382  0.16531046  1
  Ni  Ni20  1  0.66396314  0.99877971  0.33462072  1
  Ni  Ni21  1  0.66787242  0.33468245  0.99790511  1
  Ni  Ni22  1  0.83292900  0.49930701  0.16581424  1
  Cr  Cr23  1  0.66435934  0.33188137  0.33323564  1
  Ni  Ni24  1  0.66502401  0.66420876  0.99815449  1
  Cr  Cr25  1  0.83142415  0.83027518  0.16717235  1
  Ni  Ni26  1  0.66655706  0.66749893  0.33203413  1
  Cr  Cr27  1  0.16784971  0.16786915  0.49938188  1
  Cr  Cr28  1  0.99736944  0.99789428  0.66615617  1
  Ni  Ni29  1  0.16590089  0.16779144  0.83393534  1
  Ni  Ni30  1  0.16759332  0.50134399  0.49946095  1
  Fe  Fe31  1  -0.00018413  0.33413840  0.66787235  1
  Ni  Ni32  1  0.16599405  0.49787592  0.83046160  1
  Ni  Ni33  1  0.16617078  0.82929742  0.49899648  1
  Ni  Ni34  1  0.00130200  0.66534161  0.66538227  1
  Cr  Cr35  1  0.16854440  0.83308682  0.83301935  1
  Ni  Ni36  1  0.50052609  0.16661990  0.50004246  1
  Ni  Ni37  1  0.33473702  0.00113249  0.66725262  1
  Ni  Ni38  1  0.49981289  0.16606852  0.83081320  1
  Ni  Ni39  1  0.49612919  0.49799462  0.49936118  1
  Ni  Ni40  1  0.33452040  0.33381596  0.66643338  1
  Ni  Ni41  1  0.49982205  0.49970097  0.83293456  1
  Cr  Cr42  1  0.49872903  0.83386211  0.49875882  1
  Ni  Ni43  1  0.33044619  0.66350500  0.66614361  1
  Ni  Ni44  1  0.49954050  0.83267963  0.83356029  1
  Ni  Ni45  1  0.83016256  0.16520067  0.50031100  1
  Ni  Ni46  1  0.66606467  0.00270350  0.66626219  1
  Ni  Ni47  1  0.83273614  0.16810845  0.83275231  1
  Cr  Cr48  1  0.83446344  0.49931651  0.49825631  1
  Ni  Ni49  1  0.66414449  0.33010807  0.66714408  1
  Ni  Ni50  1  0.83259672  0.49754240  0.83405465  1
  Ni  Ni51  1  0.83346025  0.83364570  0.49849829  1
  Cr  Cr52  1  0.66665548  0.66602639  0.66824692  1
  Ni  Ni53  1  0.83096530  0.83283181  0.83249287  1
" 