1909,Ni72Fe2Cr25_6,-228.48966107481, 149.866236776199,Ni72Fe2Cr25,"# generated using pymatgen
 data_Cr15FeNi38
_symmetry_space_group_name_H-M   'P 1'
_cell_length_a   7.48145431
_cell_length_b   7.48145431
_cell_length_c   10.58037415
_cell_angle_alpha   90.00000000
_cell_angle_beta   90.00000000
_cell_angle_gamma   90.00000000
_symmetry_Int_Tables_number   1
_chemical_formula_structural   Cr15FeNi38
_chemical_formula_sum   'Cr15 Fe1 Ni38'
_cell_volume   592.20637954
_cell_formula_units_Z   1
loop_
 _symmetry_equiv_pos_site_id
 _symmetry_equiv_pos_as_xyz
  1  'x, y, z'
loop_
 _atom_site_type_symbol
 _atom_site_label
 _atom_site_symmetry_multiplicity
 _atom_site_fract_x
 _atom_site_fract_y
 _atom_site_fract_z
 _atom_site_occupancy
  Ni  Ni0  1  0.00039036  0.99780546  0.99804261  1
  Ni  Ni1  1  0.16739394  0.16598489  0.16435347  1
  Ni  Ni2  1  0.00130493  0.99868257  0.33339149  1
  Ni  Ni3  1  0.00041708  0.33223488  0.00069994  1
  Ni  Ni4  1  0.16626937  0.49829423  0.16423571  1
  Cr  Cr5  1  0.00118231  0.33399641  0.33287551  1
  Ni  Ni6  1  0.00032037  0.66708682  0.00017802  1
  Ni  Ni7  1  0.16417674  0.83285428  0.16429849  1
  Ni  Ni8  1  0.00141776  0.66553854  0.33242926  1
  Ni  Ni9  1  0.33106786  -0.00029204  -0.00038758  1
  Ni  Ni10  1  0.49630906  0.16644730  0.16552877  1
  Cr  Cr11  1  0.33076350  0.00060798  0.33363473  1
  Ni  Ni12  1  0.33200212  0.33089652  0.00257742  1
  Ni  Ni13  1  0.49641657  0.49759081  0.16369421  1
  Ni  Ni14  1  0.33211935  0.33228347  0.33200152  1
  Ni  Ni15  1  0.32960862  0.66642975  0.00087324  1
  Cr  Cr16  1  0.49960970  0.83393834  0.16386991  1
  Cr  Cr17  1  0.32945029  0.66408687  0.33351511  1
  Ni  Ni18  1  0.66555429  -0.00024901  0.99712768  1
  Cr  Cr19  1  0.83421743  0.16278257  0.16595151  1
  Ni  Ni20  1  0.66471650  0.00167168  0.33459993  1
  Cr  Cr21  1  0.66586952  0.33111955  -0.00069082  1
  Ni  Ni22  1  0.83463068  0.50053168  0.16424065  1
  Cr  Cr23  1  0.66342841  0.33238392  0.33315661  1
  Ni  Ni24  1  0.66706476  0.66623262  0.00001267  1
  Cr  Cr25  1  0.83377776  0.83295194  0.16662048  1
  Cr  Cr26  1  0.66573807  0.66296320  0.33272382  1
  Ni  Ni27  1  0.16494197  0.16620206  0.50018365  1
  Ni  Ni28  1  -0.00061034  0.99878912  0.66585834  1
  Cr  Cr29  1  0.16614344  0.16649171  0.83265126  1
  Ni  Ni30  1  0.16651980  0.49777183  0.50082487  1
  Ni  Ni31  1  0.99786489  0.33108690  0.66323218  1
  Cr  Cr32  1  0.16687934  0.49919007  0.83138832  1
  Ni  Ni33  1  0.16568360  0.83307438  0.50091220  1
  Ni  Ni34  1  0.00013616  0.66713827  0.66423569  1
  Ni  Ni35  1  0.16437510  0.83283606  0.83204535  1
  Fe  Fe36  1  0.49832994  0.16579199  0.50070658  1
  Ni  Ni37  1  0.33180064  0.99864990  0.66443216  1
  Ni  Ni38  1  0.49906864  0.16456920  0.83107724  1
  Ni  Ni39  1  0.49756693  0.49860542  0.50178684  1
  Ni  Ni40  1  0.33327058  0.33096347  0.66237879  1
  Cr  Cr41  1  0.49615802  0.49825235  0.83135528  1
  Ni  Ni42  1  0.49876105  0.83268211  0.50167431  1
  Ni  Ni43  1  0.33086654  0.66736093  0.66292158  1
  Cr  Cr44  1  0.49844187  0.83231515  0.83245416  1
  Ni  Ni45  1  0.83349107  0.16536731  0.50078825  1
  Ni  Ni46  1  0.66577832  0.00074187  0.66583970  1
  Ni  Ni47  1  0.83250126  0.16293324  0.83102871  1
  Ni  Ni48  1  0.83313721  0.49803469  0.50149435  1
  Ni  Ni49  1  0.66598412  0.33039781  0.66404258  1
  Cr  Cr50  1  0.83398888  0.49954650  0.83074591  1
  Cr  Cr51  1  0.83234877  0.83425546  0.49776516  1
  Ni  Ni52  1  0.66602269  0.66583912  0.66408623  1
  Ni  Ni53  1  0.83333948  0.83426517  0.83254325  1
" 