7531,Ni72Fe14Cr12_5,-235.711959761181, 185.9224027026,Ni72Fe14Cr12,"# generated using pymatgen
 data_Cr4Fe4Ni19
_symmetry_space_group_name_H-M   'P 1'
_cell_length_a   7.44639184
_cell_length_b   7.44639184
_cell_length_c   10.53078833
_cell_angle_alpha   90.00000000
_cell_angle_beta   90.00000000
_cell_angle_gamma   90.00000000
_symmetry_Int_Tables_number   1
_chemical_formula_structural   Cr4Fe4Ni19
_chemical_formula_sum   'Cr8 Fe8 Ni38'
_cell_volume   583.91906507
_cell_formula_units_Z   2
loop_
 _symmetry_equiv_pos_site_id
 _symmetry_equiv_pos_as_xyz
  1  'x, y, z'
loop_
 _atom_site_type_symbol
 _atom_site_label
 _atom_site_symmetry_multiplicity
 _atom_site_fract_x
 _atom_site_fract_y
 _atom_site_fract_z
 _atom_site_occupancy
  Ni  Ni0  1  0.00165281  0.00217974  0.00201555  1
  Fe  Fe1  1  0.16763992  0.16671049  0.16936724  1
  Ni  Ni2  1  0.00240073  0.00184600  0.33459983  1
  Ni  Ni3  1  0.99904917  0.33413168  1.00078157  1
  Ni  Ni4  1  0.16805530  0.50284977  0.16897673  1
  Ni  Ni5  1  1.00035987  0.33362495  0.33453097  1
  Fe  Fe6  1  0.00199937  0.66742119  0.00215847  1
  Ni  Ni7  1  0.16838317  0.83313871  0.16746031  1
  Ni  Ni8  1  0.00326933  0.66866000  0.33307173  1
  Ni  Ni9  1  0.33353548  0.99933262  0.00175694  1
  Ni  Ni10  1  0.50348322  0.16687467  0.16850604  1
  Ni  Ni11  1  0.33331123  0.00181295  0.33442673  1
  Cr  Cr12  1  0.33500774  0.33525324  1.00136226  1
  Ni  Ni13  1  0.49956672  0.50143303  0.16742243  1
  Ni  Ni14  1  0.33586451  0.33417980  0.33441160  1
  Ni  Ni15  1  0.33472306  0.66925518  0.00236016  1
  Ni  Ni16  1  0.50054517  0.83584889  0.16690264  1
  Ni  Ni17  1  0.33297794  0.66813787  0.33311567  1
  Ni  Ni18  1  0.66894036  0.00221915  0.00326482  1
  Ni  Ni19  1  0.83380515  0.16718507  0.16773685  1
  Ni  Ni20  1  0.66845514  0.00471891  0.33301386  1
  Ni  Ni21  1  0.67043280  0.33532769  1.00126154  1
  Fe  Fe22  1  0.83491817  0.50068814  0.16734816  1
  Ni  Ni23  1  0.66791503  0.33326599  0.33512374  1
  Ni  Ni24  1  0.66761134  0.66661423  0.00253857  1
  Ni  Ni25  1  0.83525138  0.83705059  0.16663330  1
  Cr  Cr26  1  0.66757387  0.66617650  0.33382457  1
  Ni  Ni27  1  0.16892721  0.16791550  0.50058393  1
  Cr  Cr28  1  0.00272030  0.00260279  0.66701125  1
  Fe  Fe29  1  0.16693879  0.16884992  0.83422969  1
  Cr  Cr30  1  0.16802048  0.50110549  0.50067096  1
  Ni  Ni31  1  0.99970471  0.33616806  0.66883083  1
  Ni  Ni32  1  0.16698625  0.50145163  0.83357785  1
  Ni  Ni33  1  0.16917950  0.83504760  0.50147245  1
  Ni  Ni34  1  0.00259253  0.66577398  0.66903433  1
  Fe  Fe35  1  0.16822484  0.83340014  0.83527510  1
  Ni  Ni36  1  0.50168638  0.16927719  0.50207069  1
  Ni  Ni37  1  0.33486059  0.00208357  0.66796746  1
  Fe  Fe38  1  0.50310347  0.16917334  0.83377701  1
  Ni  Ni39  1  0.50134034  0.49854465  0.50317206  1
  Ni  Ni40  1  0.33636947  0.33477139  0.66868583  1
  Fe  Fe41  1  0.50279435  0.50060016  0.83409817  1
  Cr  Cr42  1  0.49909641  0.83613885  0.50164100  1
  Ni  Ni43  1  0.33359624  0.66729712  0.66865954  1
  Cr  Cr44  1  0.50039839  0.83587125  0.83495347  1
  Ni  Ni45  1  0.83354447  0.17044799  0.50099676  1
  Ni  Ni46  1  0.66658882  0.00510298  0.66786366  1
  Ni  Ni47  1  0.83391056  0.17074065  0.83539808  1
  Ni  Ni48  1  0.83479868  0.49826113  0.50266582  1
  Ni  Ni49  1  0.66815189  0.33495714  0.66785543  1
  Ni  Ni50  1  0.83675002  0.49860476  0.83490177  1
  Cr  Cr51  1  0.83591410  0.83539557  0.50181307  1
  Fe  Fe52  1  0.66801751  0.66425936  0.66823586  1
  Cr  Cr53  1  0.83395182  0.83511680  0.83548176  1
" 