284,Ni72Fe9Cr17_11,-232.932153036541, 171.821219897684,Ni72Fe9Cr17,"# generated using pymatgen
 data_Cr11Fe4Ni39
_symmetry_space_group_name_H-M   'P 1'
_cell_length_a   7.46019330
_cell_length_b   7.46019330
_cell_length_c   10.55030655
_cell_angle_alpha   90.00000000
_cell_angle_beta   90.00000000
_cell_angle_gamma   90.00000000
_symmetry_Int_Tables_number   1
_chemical_formula_structural   Cr11Fe4Ni39
_chemical_formula_sum   'Cr11 Fe4 Ni39'
_cell_volume   587.17186824
_cell_formula_units_Z   1
loop_
 _symmetry_equiv_pos_site_id
 _symmetry_equiv_pos_as_xyz
  1  'x, y, z'
loop_
 _atom_site_type_symbol
 _atom_site_label
 _atom_site_symmetry_multiplicity
 _atom_site_fract_x
 _atom_site_fract_y
 _atom_site_fract_z
 _atom_site_occupancy
  Ni  Ni0  1  0.99833980  0.99754232  0.00188352  1
  Ni  Ni1  1  0.16493490  0.16756210  0.16818490  1
  Ni  Ni2  1  0.99928330  0.00108308  0.33331639  1
  Cr  Cr3  1  0.00062603  0.33411719  0.00338616  1
  Ni  Ni4  1  0.16806565  0.50153449  0.16734910  1
  Ni  Ni5  1  0.00165999  0.33336645  0.33390782  1
  Ni  Ni6  1  0.00103572  0.66949534  0.00107888  1
  Ni  Ni7  1  0.16592418  0.83222989  0.16663664  1
  Ni  Ni8  1  1.00022296  0.66693260  0.33336166  1
  Cr  Cr9  1  0.33335077  1.00026011  0.00133155  1
  Cr  Cr10  1  0.50176545  0.16764808  0.16708551  1
  Fe  Fe11  1  0.33141546  0.99995392  0.33418429  1
  Ni  Ni12  1  0.33583265  0.33629951  0.00054825  1
  Ni  Ni13  1  0.49899371  0.50165989  0.16716521  1
  Ni  Ni14  1  0.33229620  0.33530976  0.33465309  1
  Ni  Ni15  1  0.33266257  0.66477668  0.00230748  1
  Ni  Ni16  1  0.50072332  0.83174521  0.16837527  1
  Ni  Ni17  1  0.33379275  0.66504350  0.33203286  1
  Ni  Ni18  1  0.66961435  0.00071596  0.00096982  1
  Ni  Ni19  1  0.83483069  0.16582205  0.16737290  1
  Ni  Ni20  1  0.66930420  0.99956599  0.33339117  1
  Fe  Fe21  1  0.66538936  0.33386387  1.00016229  1
  Ni  Ni22  1  0.83430220  0.50064779  0.16784603  1
  Fe  Fe23  1  0.66860077  0.33524921  0.33514594  1
  Cr  Cr24  1  0.66768438  0.66731648  0.00079147  1
  Ni  Ni25  1  0.83467379  0.83491800  0.16716188  1
  Ni  Ni26  1  0.66736363  0.66740340  0.33327408  1
  Ni  Ni27  1  0.16666923  0.16775520  0.50143045  1
  Ni  Ni28  1  1.00023247  0.00083628  0.66617694  1
  Cr  Cr29  1  0.16818691  0.16601368  0.83180798  1
  Ni  Ni30  1  0.16704446  0.49841457  0.49893295  1
  Ni  Ni31  1  0.99982829  0.33239170  0.66417944  1
  Cr  Cr32  1  0.16840511  0.50132666  0.83485176  1
  Ni  Ni33  1  0.16520601  0.83522900  0.49976310  1
  Cr  Cr34  1  0.99788251  0.66797672  0.66655514  1
  Ni  Ni35  1  0.16415333  0.83387389  0.83496905  1
  Ni  Ni36  1  0.50048238  0.16893999  0.50202786  1
  Ni  Ni37  1  0.33330271  0.00392723  0.66622002  1
  Ni  Ni38  1  0.50186251  0.17003552  0.83272276  1
  Ni  Ni39  1  0.50099430  0.49808913  0.50027101  1
  Ni  Ni40  1  0.33585327  0.33150361  0.66618488  1
  Ni  Ni41  1  0.50130872  0.49733107  0.83394278  1
  Cr  Cr42  1  0.50168753  0.83411993  0.49956810  1
  Cr  Cr43  1  0.33476866  0.66627823  0.66663512  1
  Cr  Cr44  1  0.50131086  0.83447815  0.83264986  1
  Ni  Ni45  1  0.83422042  0.16712144  0.50074934  1
  Ni  Ni46  1  0.66783288  0.00159445  0.66700817  1
  Cr  Cr47  1  0.83177587  0.16545046  0.83339440  1
  Ni  Ni48  1  0.83335854  0.49955106  0.50093418  1
  Ni  Ni49  1  0.66568066  0.33423278  0.66695952  1
  Fe  Fe50  1  0.83150452  0.50158252  0.83254879  1
  Ni  Ni51  1  0.83454245  0.83471489  0.50040512  1
  Ni  Ni52  1  0.66872758  0.66555684  0.66722037  1
  Ni  Ni53  1  0.83529623  0.83441929  0.83379391  1
" 