3429,Ni72Fe9Cr17_3,-232.574030208936, 167.926756214322,Ni72Fe9Cr17,"# generated using pymatgen
 data_Cr11Fe4Ni39
_symmetry_space_group_name_H-M   'P 1'
_cell_length_a   7.46310641
_cell_length_b   7.46310641
_cell_length_c   10.55442631
_cell_angle_alpha   90.00000000
_cell_angle_beta   90.00000000
_cell_angle_gamma   90.00000000
_symmetry_Int_Tables_number   1
_chemical_formula_structural   Cr11Fe4Ni39
_chemical_formula_sum   'Cr11 Fe4 Ni39'
_cell_volume   587.85998605
_cell_formula_units_Z   1
loop_
 _symmetry_equiv_pos_site_id
 _symmetry_equiv_pos_as_xyz
  1  'x, y, z'
loop_
 _atom_site_type_symbol
 _atom_site_label
 _atom_site_symmetry_multiplicity
 _atom_site_fract_x
 _atom_site_fract_y
 _atom_site_fract_z
 _atom_site_occupancy
  Ni  Ni0  1  0.99797405  1.00019975  0.99982752  1
  Ni  Ni1  1  0.16363521  0.16927843  0.16722471  1
  Ni  Ni2  1  0.99944477  0.00312439  0.33411454  1
  Fe  Fe3  1  0.00242252  0.33404021  0.00044021  1
  Ni  Ni4  1  0.16428427  0.49711185  0.16372661  1
  Ni  Ni5  1  0.99838221  0.33163538  0.33237731  1
  Ni  Ni6  1  1.00003303  0.66623032  0.99935816  1
  Cr  Cr7  1  0.16578623  0.83458971  0.16668322  1
  Cr  Cr8  1  0.99884626  0.66637704  0.33488561  1
  Cr  Cr9  1  0.33380428  1.00013613  0.99855036  1
  Cr  Cr10  1  0.50050954  0.16499530  0.16800028  1
  Ni  Ni11  1  0.33388182  0.00048910  0.33524116  1
  Ni  Ni12  1  0.32981432  0.33512913  0.99932953  1
  Cr  Cr13  1  0.50071847  0.50269382  0.16624776  1
  Cr  Cr14  1  0.33227003  0.33225396  0.33530988  1
  Ni  Ni15  1  0.33219931  0.66534233  1.00012226  1
  Ni  Ni16  1  0.50472303  0.83311179  0.16692332  1
  Cr  Cr17  1  0.33467137  0.66893155  0.33452924  1
  Ni  Ni18  1  0.66932956  0.99781454  0.99944741  1
  Fe  Fe19  1  0.83612122  0.16579285  0.16821528  1
  Ni  Ni20  1  0.66746622  0.99985698  0.33361970  1
  Cr  Cr21  1  0.66840831  0.33217219  0.99941128  1
  Ni  Ni22  1  0.83507391  0.50104327  0.16728930  1
  Ni  Ni23  1  0.67011270  0.33332051  0.33532428  1
  Ni  Ni24  1  0.66856178  0.66990388  0.00090987  1
  Ni  Ni25  1  0.83086835  0.83376121  0.16579007  1
  Ni  Ni26  1  0.66747532  0.66761461  0.33382541  1
  Ni  Ni27  1  0.16602617  0.16689570  0.50086235  1
  Ni  Ni28  1  0.00060970  1.00005678  0.66685120  1
  Ni  Ni29  1  0.16593706  0.16853856  0.83270404  1
  Ni  Ni30  1  0.16624540  0.49826740  0.50166620  1
  Ni  Ni31  1  0.00227777  0.33374418  0.66740006  1
  Ni  Ni32  1  0.16538164  0.49898551  0.83539826  1
  Ni  Ni33  1  0.16558998  0.83563004  0.50095006  1
  Ni  Ni34  1  0.99910521  0.66699129  0.66711468  1
  Ni  Ni35  1  0.16431084  0.83326831  0.83355868  1
  Ni  Ni36  1  0.50037813  0.16635831  0.50059054  1
  Ni  Ni37  1  0.33348116  0.00217281  0.66676908  1
  Ni  Ni38  1  0.49977158  0.16511331  0.83239740  1
  Ni  Ni39  1  0.50145052  0.50009651  0.49946328  1
  Ni  Ni40  1  0.33113419  0.33094933  0.66638740  1
  Cr  Cr41  1  0.49863022  0.50077597  0.83491585  1
  Ni  Ni42  1  0.50264044  0.83433818  0.49951747  1
  Cr  Cr43  1  0.33220620  0.66819432  0.66580102  1
  Ni  Ni44  1  0.50313590  0.83495573  0.83435007  1
  Ni  Ni45  1  0.83438777  0.16570416  0.49811700  1
  Ni  Ni46  1  0.66670136  0.99900044  0.66772554  1
  Ni  Ni47  1  0.83508426  0.16404099  0.83459418  1
  Fe  Fe48  1  0.83347980  0.50027402  0.49966660  1
  Cr  Cr49  1  0.66715466  0.33223842  0.66584289  1
  Fe  Fe50  1  0.83691263  0.50242043  0.83383045  1
  Ni  Ni51  1  0.83256206  0.83455699  0.50105256  1
  Ni  Ni52  1  0.66949847  0.66933983  0.66605669  1
  Ni  Ni53  1  0.83334726  0.83440069  0.83395061  1
" 