3004,Ni72Fe7Cr20_15,-231.414990148829, 162.131442533784,Ni72Fe7Cr20,"# generated using pymatgen
 data_Cr4FeNi13
_symmetry_space_group_name_H-M   'P 1'
_cell_length_a   7.46692853
_cell_length_b   7.46692853
_cell_length_c   10.55983159
_cell_angle_alpha   90.00000000
_cell_angle_beta   90.00000000
_cell_angle_gamma   90.00000000
_symmetry_Int_Tables_number   1
_chemical_formula_structural   Cr4FeNi13
_chemical_formula_sum   'Cr12 Fe3 Ni39'
_cell_volume   588.76363890
_cell_formula_units_Z   3
loop_
 _symmetry_equiv_pos_site_id
 _symmetry_equiv_pos_as_xyz
  1  'x, y, z'
loop_
 _atom_site_type_symbol
 _atom_site_label
 _atom_site_symmetry_multiplicity
 _atom_site_fract_x
 _atom_site_fract_y
 _atom_site_fract_z
 _atom_site_occupancy
  Cr  Cr0  1  0.00030567  0.99845991  0.99856920  1
  Cr  Cr1  1  0.16968103  0.16648981  0.16723527  1
  Ni  Ni2  1  0.99997447  0.00046993  0.33293150  1
  Ni  Ni3  1  0.00111425  0.33546244  0.99587457  1
  Cr  Cr4  1  0.16845571  0.50089251  0.16631496  1
  Ni  Ni5  1  0.99852088  0.33152841  0.33627260  1
  Ni  Ni6  1  0.00067959  0.66707842  0.99872736  1
  Ni  Ni7  1  0.16705257  0.83230111  0.16781593  1
  Fe  Fe8  1  0.99919521  0.66779949  0.33235172  1
  Ni  Ni9  1  0.33563824  0.99851101  0.99944536  1
  Ni  Ni10  1  0.49913480  0.16596237  0.16751214  1
  Ni  Ni11  1  0.33398501  0.99940057  0.33322286  1
  Ni  Ni12  1  0.33398582  0.33422405  0.99859516  1
  Ni  Ni13  1  0.49881576  0.50036172  0.16791292  1
  Ni  Ni14  1  0.33595581  0.33316482  0.33383077  1
  Ni  Ni15  1  0.33343006  0.66728009  0.99919448  1
  Fe  Fe16  1  0.49976532  0.83373125  0.16698484  1
  Ni  Ni17  1  0.33663714  0.66748486  0.33260388  1
  Ni  Ni18  1  0.66471624  0.99799011  0.99903836  1
  Cr  Cr19  1  0.83112042  0.16495353  0.16818879  1
  Ni  Ni20  1  0.66602881  0.99983093  0.33346306  1
  Cr  Cr21  1  0.66501675  0.33321726  0.99850805  1
  Cr  Cr22  1  0.83275992  0.50201165  0.16752206  1
  Ni  Ni23  1  0.66553268  0.33417781  0.33534278  1
  Fe  Fe24  1  0.66567282  0.66856766  0.99925850  1
  Ni  Ni25  1  0.83278234  0.83260853  0.16740482  1
  Ni  Ni26  1  0.66450313  0.66602768  0.33273630  1
  Ni  Ni27  1  0.16780892  0.16793918  0.49878660  1
  Cr  Cr28  1  0.00025086  0.00173556  0.66852506  1
  Ni  Ni29  1  0.16863953  0.16885692  0.83348413  1
  Cr  Cr30  1  0.16688490  0.49879574  0.50042030  1
  Ni  Ni31  1  0.00060266  0.33410914  0.66781711  1
  Ni  Ni32  1  0.16630355  0.50006820  0.83357211  1
  Cr  Cr33  1  0.16936654  0.83378187  0.49976931  1
  Ni  Ni34  1  0.00102212  0.66426879  0.66908687  1
  Ni  Ni35  1  0.16823313  0.83113277  0.83329654  1
  Ni  Ni36  1  0.49940249  0.16571405  0.49899187  1
  Ni  Ni37  1  0.33536828  0.00026930  0.66738552  1
  Ni  Ni38  1  0.49836466  0.16455552  0.83348606  1
  Ni  Ni39  1  0.49996279  0.49970355  0.49774251  1
  Ni  Ni40  1  0.33244225  0.33290608  0.66759808  1
  Ni  Ni41  1  0.49698917  0.50074403  0.83432696  1
  Ni  Ni42  1  0.49954255  0.83461161  0.49896215  1
  Ni  Ni43  1  0.33340005  0.66686012  0.66828064  1
  Ni  Ni44  1  0.49939257  0.83477329  0.83427604  1
  Ni  Ni45  1  0.83279986  0.16839423  0.49792905  1
  Ni  Ni46  1  0.66435711  0.00070568  0.66755832  1
  Ni  Ni47  1  0.83304335  0.16648899  0.83333281  1
  Ni  Ni48  1  0.83330444  0.49804514  0.49794156  1
  Cr  Cr49  1  0.66680803  0.33235050  0.66562965  1
  Ni  Ni50  1  0.83672546  0.50109720  0.83419309  1
  Cr  Cr51  1  0.83133331  0.83343515  0.49891115  1
  Cr  Cr52  1  0.66524689  0.66663258  0.66770767  1
  Ni  Ni53  1  0.83237466  0.83246750  0.83456117  1
" 