613,Ni72Fe5Cr21_7,-231.463161416208, 162.059322576283,Ni72Fe5Cr21,"# generated using pymatgen
 data_Cr4FeNi13
_symmetry_space_group_name_H-M   'P 1'
_cell_length_a   7.46650679
_cell_length_b   7.46650679
_cell_length_c   10.55923516
_cell_angle_alpha   90.00000000
_cell_angle_beta   90.00000000
_cell_angle_gamma   90.00000000
_symmetry_Int_Tables_number   1
_chemical_formula_structural   Cr4FeNi13
_chemical_formula_sum   'Cr12 Fe3 Ni39'
_cell_volume   588.66388219
_cell_formula_units_Z   3
loop_
 _symmetry_equiv_pos_site_id
 _symmetry_equiv_pos_as_xyz
  1  'x, y, z'
loop_
 _atom_site_type_symbol
 _atom_site_label
 _atom_site_symmetry_multiplicity
 _atom_site_fract_x
 _atom_site_fract_y
 _atom_site_fract_z
 _atom_site_occupancy
  Fe  Fe0  1  0.99933935  0.00054067  0.00367905  1
  Ni  Ni1  1  0.16667732  0.16817955  0.16446707  1
  Cr  Cr2  1  0.99842629  0.99858924  0.33271045  1
  Ni  Ni3  1  0.99900595  0.33597308  0.00265190  1
  Ni  Ni4  1  0.16678637  0.50025112  0.16739582  1
  Ni  Ni5  1  0.00120091  0.33451601  0.33295106  1
  Ni  Ni6  1  0.99832284  0.66493798  0.00340683  1
  Ni  Ni7  1  0.16654920  0.83173137  0.16418109  1
  Ni  Ni8  1  0.00165404  0.66571899  0.33207734  1
  Ni  Ni9  1  0.33653584  0.99986016  0.00092229  1
  Ni  Ni10  1  0.50082447  0.16745297  0.16587915  1
  Cr  Cr11  1  0.33378121  0.99926546  0.33297598  1
  Ni  Ni12  1  0.33400807  0.33204027  0.00250687  1
  Ni  Ni13  1  0.49950082  0.49916019  0.16636716  1
  Ni  Ni14  1  0.33211511  0.33499577  0.33202746  1
  Ni  Ni15  1  0.33434542  0.66813213  0.00393871  1
  Ni  Ni16  1  0.50034925  0.83339890  0.16478590  1
  Fe  Fe17  1  0.33271481  0.66557924  0.33288532  1
  Ni  Ni18  1  0.66372999  0.99943744  0.00279590  1
  Ni  Ni19  1  0.83205534  0.16764091  0.16716307  1
  Ni  Ni20  1  0.66683923  0.00014619  0.33222336  1
  Ni  Ni21  1  0.66725208  0.33335740  0.00168675  1
  Ni  Ni22  1  0.83387720  0.49954154  0.16518222  1
  Ni  Ni23  1  0.66643034  0.33321769  0.33056916  1
  Ni  Ni24  1  0.66733971  0.66711408  0.00039327  1
  Ni  Ni25  1  0.83322224  0.83348105  0.16473795  1
  Cr  Cr26  1  0.66763367  0.66922112  0.33166921  1
  Ni  Ni27  1  0.16466124  0.16727287  0.50142714  1
  Ni  Ni28  1  0.99977742  0.99896437  0.66330213  1
  Cr  Cr29  1  0.16749849  0.16518760  0.83472953  1
  Ni  Ni30  1  0.16715578  0.50135825  0.49827089  1
  Ni  Ni31  1  0.99788863  0.33431423  0.66486266  1
  Cr  Cr32  1  0.16400160  0.50178267  0.83535038  1
  Ni  Ni33  1  0.16636760  0.83148894  0.50171876  1
  Ni  Ni34  1  0.00016266  0.66661598  0.66504465  1
  Cr  Cr35  1  0.16861737  0.83282496  0.83519255  1
  Cr  Cr36  1  0.50310913  0.16778909  0.49839188  1
  Ni  Ni37  1  0.33493157  0.99704190  0.66658358  1
  Ni  Ni38  1  0.50181569  0.16423015  0.83501195  1
  Ni  Ni39  1  0.49799534  0.50167819  0.49883544  1
  Cr  Cr40  1  0.33340558  0.33324022  0.66643719  1
  Cr  Cr41  1  0.50168076  0.50146232  0.83478371  1
  Ni  Ni42  1  0.50018096  0.83210036  0.50200926  1
  Ni  Ni43  1  0.33332091  0.66931408  0.66332233  1
  Ni  Ni44  1  0.50023052  0.83487062  0.83311441  1
  Ni  Ni45  1  0.83419546  0.16553824  0.49983649  1
  Ni  Ni46  1  0.66590953  0.99925087  0.66519260  1
  Cr  Cr47  1  0.83243410  0.16792776  0.83336506  1
  Cr  Cr48  1  0.83264410  0.49836803  0.50041023  1
  Ni  Ni49  1  0.66810102  0.33257151  0.66737557  1
  Ni  Ni50  1  0.83306471  0.49973460  0.83350607  1
  Ni  Ni51  1  0.83341108  0.83474426  0.50141779  1
  Fe  Fe52  1  0.66604727  0.66719393  0.66637014  1
  Cr  Cr53  1  0.83283011  0.83160920  0.83386299  1
" 