6478,Ni72Fe9Cr17_8,-232.819025915158, 173.51104695145,Ni72Fe9Cr17,"# generated using pymatgen
 data_Cr11Fe4Ni39
_symmetry_space_group_name_H-M   'P 1'
_cell_length_a   7.45897531
_cell_length_b   7.45897531
_cell_length_c   10.54858404
_cell_angle_alpha   90.00000000
_cell_angle_beta   90.00000000
_cell_angle_gamma   90.00000000
_symmetry_Int_Tables_number   1
_chemical_formula_structural   Cr11Fe4Ni39
_chemical_formula_sum   'Cr11 Fe4 Ni39'
_cell_volume   586.88431994
_cell_formula_units_Z   1
loop_
 _symmetry_equiv_pos_site_id
 _symmetry_equiv_pos_as_xyz
  1  'x, y, z'
loop_
 _atom_site_type_symbol
 _atom_site_label
 _atom_site_symmetry_multiplicity
 _atom_site_fract_x
 _atom_site_fract_y
 _atom_site_fract_z
 _atom_site_occupancy
  Ni  Ni0  1  0.99926762  0.00204370  0.99979924  1
  Ni  Ni1  1  0.16660229  0.16816286  0.16724662  1
  Ni  Ni2  1  0.99933048  0.00384738  0.33417599  1
  Cr  Cr3  1  0.99895220  0.33094945  0.00269594  1
  Ni  Ni4  1  0.17045834  0.49799874  0.16852416  1
  Ni  Ni5  1  0.00140655  0.33100129  0.33376421  1
  Cr  Cr6  1  1.00038278  0.66906765  0.00079508  1
  Cr  Cr7  1  0.16878427  0.83616411  0.16671931  1
  Cr  Cr8  1  1.00035630  0.66676801  0.33464597  1
  Fe  Fe9  1  0.33493669  0.00105942  0.99846226  1
  Cr  Cr10  1  0.50147447  0.16690756  0.16791254  1
  Fe  Fe11  1  0.33392050  0.00120950  0.33634035  1
  Ni  Ni12  1  0.33552362  0.33438202  0.99963292  1
  Ni  Ni13  1  0.49925280  0.50041645  0.16725612  1
  Ni  Ni14  1  0.33194485  0.33439324  0.33464546  1
  Ni  Ni15  1  0.33600725  0.66663230  0.00123884  1
  Ni  Ni16  1  0.50152086  0.83343560  0.16819266  1
  Ni  Ni17  1  0.33589062  0.66662241  0.33311375  1
  Ni  Ni18  1  0.66857040  0.00147811  0.99925471  1
  Ni  Ni19  1  0.83424999  0.16575606  0.16802370  1
  Ni  Ni20  1  0.66856265  0.99978843  0.33544556  1
  Ni  Ni21  1  0.66541648  0.33206978  1.00014054  1
  Ni  Ni22  1  0.83178344  0.49826203  0.16921633  1
  Ni  Ni23  1  0.66827460  0.33310631  0.33299997  1
  Cr  Cr24  1  0.66495783  0.66704103  0.00067077  1
  Ni  Ni25  1  0.83154944  0.83757753  0.16769035  1
  Ni  Ni26  1  0.66517817  0.66876626  0.33300894  1
  Ni  Ni27  1  0.16787552  0.16812385  0.50035747  1
  Cr  Cr28  1  1.00037012  0.00133784  0.66697455  1
  Fe  Fe29  1  0.16818694  0.16565969  0.83395412  1
  Ni  Ni30  1  0.16518028  0.49888310  0.50041120  1
  Ni  Ni31  1  0.00087583  0.33364511  0.66560878  1
  Cr  Cr32  1  0.16702031  0.50085891  0.83215517  1
  Ni  Ni33  1  0.16770823  0.83454142  0.49984711  1
  Ni  Ni34  1  0.99908626  0.66678144  0.66631785  1
  Ni  Ni35  1  0.16790336  0.83564711  0.83503679  1
  Ni  Ni36  1  0.50012376  0.16434311  0.50014466  1
  Ni  Ni37  1  0.33550693  0.00158335  0.66718377  1
  Ni  Ni38  1  0.50058656  0.16602799  0.83416866  1
  Cr  Cr39  1  0.50169339  0.50010929  0.49902076  1
  Fe  Fe40  1  0.33322666  0.33048933  0.66673848  1
  Ni  Ni41  1  0.50102807  0.49909146  0.83557718  1
  Ni  Ni42  1  0.50164128  0.83672230  0.49958923  1
  Cr  Cr43  1  0.33493453  0.67011675  0.66650416  1
  Ni  Ni44  1  0.50039783  0.83624421  0.83395238  1
  Ni  Ni45  1  0.83360997  0.16726867  0.49819994  1
  Ni  Ni46  1  0.66496685  0.99948936  0.66708236  1
  Ni  Ni47  1  0.83179881  0.16616285  0.83532663  1
  Ni  Ni48  1  0.83590661  0.50040520  0.50110655  1
  Cr  Cr49  1  0.66804626  0.33140509  0.66845964  1
  Ni  Ni50  1  0.83263036  0.50001523  0.83157514  1
  Ni  Ni51  1  0.83226107  0.83401570  0.50122863  1
  Ni  Ni52  1  0.66857165  0.66984205  0.66841106  1
  Ni  Ni53  1  0.83352722  0.83550246  0.83267555  1
" 