96,Ni72Fe14Cr12_14,-235.390679337457, 184.002934821089,Ni72Fe14Cr12,"# generated using pymatgen
 data_Cr4Fe4Ni19
_symmetry_space_group_name_H-M   'P 1'
_cell_length_a   7.44455345
_cell_length_b   7.44455345
_cell_length_c   10.52818846
_cell_angle_alpha   90.00000000
_cell_angle_beta   90.00000000
_cell_angle_gamma   90.00000000
_symmetry_Int_Tables_number   1
_chemical_formula_structural   Cr4Fe4Ni19
_chemical_formula_sum   'Cr8 Fe8 Ni38'
_cell_volume   583.48669217
_cell_formula_units_Z   2
loop_
 _symmetry_equiv_pos_site_id
 _symmetry_equiv_pos_as_xyz
  1  'x, y, z'
loop_
 _atom_site_type_symbol
 _atom_site_label
 _atom_site_symmetry_multiplicity
 _atom_site_fract_x
 _atom_site_fract_y
 _atom_site_fract_z
 _atom_site_occupancy
  Fe  Fe0  1  0.00247323  0.00343106  1.00041839  1
  Ni  Ni1  1  0.16809558  0.16837715  0.17024340  1
  Ni  Ni2  1  0.00261900  0.00417906  0.33527321  1
  Fe  Fe3  1  1.00142435  0.33389339  0.00159991  1
  Fe  Fe4  1  0.16936546  0.49776492  0.16840100  1
  Ni  Ni5  1  0.00178265  0.33357614  0.33485030  1
  Cr  Cr6  1  0.00462593  0.66681122  1.00097623  1
  Ni  Ni7  1  0.16976432  0.83861545  0.16865132  1
  Cr  Cr8  1  1.00135072  0.66741771  0.33646126  1
  Cr  Cr9  1  0.33753085  1.00150110  0.00164785  1
  Ni  Ni10  1  0.50014042  0.17130058  0.16808403  1
  Ni  Ni11  1  0.33424821  0.00360647  0.33580345  1
  Ni  Ni12  1  0.33465019  0.33589963  1.00059101  1
  Ni  Ni13  1  0.50321696  0.50008349  0.16725291  1
  Ni  Ni14  1  0.33441671  0.33333318  0.33550838  1
  Ni  Ni15  1  0.33554587  0.66600512  0.00242496  1
  Ni  Ni16  1  0.50018559  0.83315049  0.16645609  1
  Cr  Cr17  1  0.33652603  0.66898045  0.33173478  1
  Ni  Ni18  1  0.66876847  0.00344070  0.99995534  1
  Ni  Ni19  1  0.83684068  0.17149093  0.16651521  1
  Cr  Cr20  1  0.66566975  0.00177844  0.33431699  1
  Ni  Ni21  1  0.66765858  0.33368258  0.00195943  1
  Ni  Ni22  1  0.83162227  0.49853658  0.16917320  1
  Fe  Fe23  1  0.66764402  0.33514218  0.33499517  1
  Ni  Ni24  1  0.66714159  0.66754112  0.99991370  1
  Cr  Cr25  1  0.83431968  0.83532296  0.16681970  1
  Ni  Ni26  1  0.66737480  0.66681712  0.33684898  1
  Fe  Fe27  1  0.16834136  0.16838549  0.50136114  1
  Ni  Ni28  1  0.99916473  1.00007949  0.66857202  1
  Ni  Ni29  1  0.16842947  0.16771793  0.83361615  1
  Ni  Ni30  1  0.16975190  0.50133705  0.50235708  1
  Cr  Cr31  1  0.00175400  0.33577209  0.66902080  1
  Fe  Fe32  1  0.17047192  0.50189279  0.83353825  1
  Ni  Ni33  1  0.16841080  0.83692004  0.50279667  1
  Ni  Ni34  1  0.00279574  0.66983555  0.66726882  1
  Ni  Ni35  1  0.16830904  0.83564287  0.83304127  1
  Ni  Ni36  1  0.49914975  0.16864068  0.50175879  1
  Fe  Fe37  1  0.33464730  0.00182550  0.66846135  1
  Ni  Ni38  1  0.50059628  0.16955318  0.83489935  1
  Ni  Ni39  1  0.50036948  0.50112494  0.50107657  1
  Ni  Ni40  1  0.33550517  0.33605260  0.66853093  1
  Ni  Ni41  1  0.50106014  0.50170985  0.83575862  1
  Ni  Ni42  1  0.50025746  0.83457705  0.50387318  1
  Ni  Ni43  1  0.33370851  0.66769400  0.66893765  1
  Ni  Ni44  1  0.50147925  0.83278505  0.83414922  1
  Ni  Ni45  1  0.83572230  0.16723917  0.49959082  1
  Ni  Ni46  1  0.66810820  1.00071121  0.66956464  1
  Ni  Ni47  1  0.83570259  0.16720070  0.83821214  1
  Ni  Ni48  1  0.83427175  0.50153532  0.50011439  1
  Cr  Cr49  1  0.66677871  0.33123009  0.66739160  1
  Ni  Ni50  1  0.83286745  0.50221805  0.83556072  1
  Ni  Ni51  1  0.83545749  0.83543393  0.50394514  1
  Fe  Fe52  1  0.66832687  0.66789394  0.66778463  1
  Ni  Ni53  1  0.83514250  0.83489430  0.83352398  1
" 