1964,Ni72Fe14Cr12_10,-235.936340681361, 187.539169939472,Ni72Fe14Cr12,"# generated using pymatgen
 data_Cr4Fe4Ni19
_symmetry_space_group_name_H-M   'P 1'
_cell_length_a   7.44645160
_cell_length_b   7.44645160
_cell_length_c   10.53087284
_cell_angle_alpha   90.00000000
_cell_angle_beta   90.00000000
_cell_angle_gamma   90.00000000
_symmetry_Int_Tables_number   1
_chemical_formula_structural   Cr4Fe4Ni19
_chemical_formula_sum   'Cr8 Fe8 Ni38'
_cell_volume   583.93312213
_cell_formula_units_Z   2
loop_
 _symmetry_equiv_pos_site_id
 _symmetry_equiv_pos_as_xyz
  1  'x, y, z'
loop_
 _atom_site_type_symbol
 _atom_site_label
 _atom_site_symmetry_multiplicity
 _atom_site_fract_x
 _atom_site_fract_y
 _atom_site_fract_z
 _atom_site_occupancy
  Ni  Ni0  1  1.00058421  0.00149747  0.00274447  1
  Ni  Ni1  1  0.16883124  0.16662338  0.16869759  1
  Ni  Ni2  1  0.00364066  0.00147917  0.33375349  1
  Cr  Cr3  1  0.00216254  0.33289921  0.00144563  1
  Ni  Ni4  1  0.16858392  0.50137525  0.16911812  1
  Ni  Ni5  1  1.00059816  0.33496158  0.33411735  1
  Cr  Cr6  1  0.00217435  0.66951533  0.00342392  1
  Ni  Ni7  1  0.16623810  0.83614892  0.16891237  1
  Ni  Ni8  1  0.00351747  0.66770851  0.33400973  1
  Ni  Ni9  1  0.33535491  0.00242318  0.00143206  1
  Ni  Ni10  1  0.49990728  0.17130212  0.16716700  1
  Ni  Ni11  1  0.33216040  0.00147399  0.33520267  1
  Ni  Ni12  1  0.33682140  0.33399904  0.00257581  1
  Ni  Ni13  1  0.50192557  0.49846669  0.16684644  1
  Fe  Fe14  1  0.33438512  0.33439905  0.33427887  1
  Ni  Ni15  1  0.33596738  0.66772555  0.00230258  1
  Cr  Cr16  1  0.49911418  0.83457253  0.16569216  1
  Ni  Ni17  1  0.33202784  0.66796599  0.33490678  1
  Fe  Fe18  1  0.66783188  0.00214333  1.00006227  1
  Fe  Fe19  1  0.83522203  0.16867197  0.16876492  1
  Cr  Cr20  1  0.66795622  0.00404899  0.33581757  1
  Ni  Ni21  1  0.66579606  0.33311602  0.00374895  1
  Ni  Ni22  1  0.83364037  0.50105843  0.16902722  1
  Ni  Ni23  1  0.66860715  0.33483133  0.33425991  1
  Fe  Fe24  1  0.66696702  0.66879824  0.00192642  1
  Ni  Ni25  1  0.83831857  0.83413199  0.16709913  1
  Cr  Cr26  1  0.66827343  0.66559184  0.33528430  1
  Ni  Ni27  1  0.16763803  0.16641280  0.50149692  1
  Ni  Ni28  1  1.00018136  0.00214202  0.66764980  1
  Ni  Ni29  1  0.16910793  0.16781613  0.83395335  1
  Fe  Fe30  1  0.16824917  0.50130461  0.50131433  1
  Ni  Ni31  1  0.00180899  0.33430132  0.66816763  1
  Fe  Fe32  1  0.17030393  0.50012300  0.83344219  1
  Ni  Ni33  1  0.16844395  0.83571377  0.50062106  1
  Ni  Ni34  1  1.00106408  0.66770425  0.66652070  1
  Cr  Cr35  1  0.16867430  0.83677890  0.83444417  1
  Ni  Ni36  1  0.50062537  0.16898558  0.50236981  1
  Ni  Ni37  1  0.33621710  0.00188638  0.66751370  1
  Ni  Ni38  1  0.50016319  0.16685299  0.83461466  1
  Ni  Ni39  1  0.50264901  0.50096052  0.50193646  1
  Ni  Ni40  1  0.33408621  0.33405057  0.66790104  1
  Cr  Cr41  1  0.50107691  0.50118700  0.83514702  1
  Ni  Ni42  1  0.49875574  0.83420293  0.50393974  1
  Ni  Ni43  1  0.33508642  0.66821039  0.66693947  1
  Ni  Ni44  1  0.50276389  0.83632059  0.83468961  1
  Ni  Ni45  1  0.83588435  0.17030428  0.50250230  1
  Ni  Ni46  1  0.66774775  1.00114443  0.66895836  1
  Fe  Fe47  1  0.83363434  0.16512649  0.83316319  1
  Ni  Ni48  1  0.83437404  0.50015665  0.50206865  1
  Ni  Ni49  1  0.66825514  0.33316878  0.66614134  1
  Cr  Cr50  1  0.83410007  0.50176342  0.83271906  1
  Fe  Fe51  1  0.83603923  0.83521870  0.50322748  1
  Ni  Ni52  1  0.66800055  0.66983618  0.66709184  1
  Ni  Ni53  1  0.83314035  0.83607708  0.83352719  1
" 