2244,Ni72Fe2Cr25_5,-228.591608534108, 150.908311376249,Ni72Fe2Cr25,"# generated using pymatgen
 data_Cr15FeNi38
_symmetry_space_group_name_H-M   'P 1'
_cell_length_a   7.48133048
_cell_length_b   7.48133048
_cell_length_c   10.58019902
_cell_angle_alpha   90.00000000
_cell_angle_beta   90.00000000
_cell_angle_gamma   90.00000000
_symmetry_Int_Tables_number   1
_chemical_formula_structural   Cr15FeNi38
_chemical_formula_sum   'Cr15 Fe1 Ni38'
_cell_volume   592.17697375
_cell_formula_units_Z   1
loop_
 _symmetry_equiv_pos_site_id
 _symmetry_equiv_pos_as_xyz
  1  'x, y, z'
loop_
 _atom_site_type_symbol
 _atom_site_label
 _atom_site_symmetry_multiplicity
 _atom_site_fract_x
 _atom_site_fract_y
 _atom_site_fract_z
 _atom_site_occupancy
  Ni  Ni0  1  0.00072631  0.99650265  -0.00055885  1
  Ni  Ni1  1  0.16715193  0.16428492  0.16716154  1
  Ni  Ni2  1  0.00095344  -0.00063911  0.33019053  1
  Cr  Cr3  1  0.99711889  0.33220011  0.99877973  1
  Ni  Ni4  1  0.16600940  0.49908591  0.16636248  1
  Ni  Ni5  1  -0.00007602  0.33317963  0.33192744  1
  Ni  Ni6  1  0.99888520  0.66751947  0.00104483  1
  Ni  Ni7  1  0.16377216  0.83373053  0.16387803  1
  Cr  Cr8  1  -0.00036670  0.66489713  0.33197388  1
  Ni  Ni9  1  0.33181623  0.99739688  0.99797287  1
  Ni  Ni10  1  0.49815173  0.16716553  0.16714824  1
  Ni  Ni11  1  0.33254334  0.00136391  0.33275207  1
  Cr  Cr12  1  0.33399141  0.33045008  0.00092497  1
  Ni  Ni13  1  0.49940923  0.49635080  0.16450713  1
  Ni  Ni14  1  0.33236485  0.33006508  0.33060265  1
  Ni  Ni15  1  0.33160812  0.66868620  0.00016652  1
  Cr  Cr16  1  0.49936861  0.83344840  0.16367240  1
  Cr  Cr17  1  0.33069605  0.66603455  0.33283637  1
  Ni  Ni18  1  0.66460568  -0.00061350  0.99828040  1
  Cr  Cr19  1  0.83171843  0.16387002  0.16746639  1
  Ni  Ni20  1  0.66364625  0.00135088  0.33275038  1
  Ni  Ni21  1  0.66571137  0.33279597  -0.00088061  1
  Ni  Ni22  1  0.83171738  0.49969978  0.16467247  1
  Ni  Ni23  1  0.66482920  0.33106516  0.33135009  1
  Ni  Ni24  1  0.66664597  0.66494532  -0.00007517  1
  Ni  Ni25  1  0.83458937  0.83244561  0.16402497  1
  Cr  Cr26  1  0.66680734  0.66530448  0.33219619  1
  Cr  Cr27  1  0.16674240  0.16616078  0.49888857  1
  Ni  Ni28  1  0.00075943  0.99903901  0.66751782  1
  Fe  Fe29  1  0.16563879  0.16227237  0.83096773  1
  Ni  Ni30  1  0.16350530  0.49844774  0.49967356  1
  Ni  Ni31  1  0.99768997  0.33382313  0.66619366  1
  Cr  Cr32  1  0.16422471  0.50049885  0.83101171  1
  Ni  Ni33  1  0.16657607  0.83285514  0.49989610  1
  Ni  Ni34  1  0.99814214  0.66424750  0.66439119  1
  Ni  Ni35  1  0.16643484  0.83472109  0.83337245  1
  Ni  Ni36  1  0.49889177  0.16407122  0.49869868  1
  Ni  Ni37  1  0.33349367  -0.00030045  0.66639867  1
  Ni  Ni38  1  0.50065090  0.16327273  0.83125069  1
  Cr  Cr39  1  0.49913078  0.49652302  0.49982782  1
  Ni  Ni40  1  0.33231482  0.32898189  0.66512974  1
  Cr  Cr41  1  0.50132361  0.49933390  0.83325567  1
  Ni  Ni42  1  0.49809768  0.83635264  0.50054214  1
  Cr  Cr43  1  0.33177182  0.66879492  0.66396005  1
  Ni  Ni44  1  0.49784539  0.83555272  0.83277778  1
  Cr  Cr45  1  0.83109278  0.16660436  0.49837263  1
  Ni  Ni46  1  0.66290291  0.00006889  0.66608614  1
  Ni  Ni47  1  0.83094355  0.16625201  0.83130325  1
  Ni  Ni48  1  0.83420069  0.49764843  0.50139634  1
  Ni  Ni49  1  0.66710698  0.33159010  0.66666664  1
  Ni  Ni50  1  0.83181125  0.49748488  0.83108293  1
  Cr  Cr51  1  0.83235804  0.83334256  0.50005358  1
  Ni  Ni52  1  0.66774669  0.66547191  0.66557405  1
  Cr  Cr53  1  0.83266116  0.83275562  0.83303585  1
" 