1123,Ni72Fe2Cr25_18,-228.699567293847, 152.715113619906,Ni72Fe2Cr25,"# generated using pymatgen
 data_Cr15FeNi38
_symmetry_space_group_name_H-M   'P 1'
_cell_length_a   7.48246576
_cell_length_b   7.48246576
_cell_length_c   10.58180455
_cell_angle_alpha   90.00000000
_cell_angle_beta   90.00000000
_cell_angle_gamma   90.00000000
_symmetry_Int_Tables_number   1
_chemical_formula_structural   Cr15FeNi38
_chemical_formula_sum   'Cr15 Fe1 Ni38'
_cell_volume   592.44660052
_cell_formula_units_Z   1
loop_
 _symmetry_equiv_pos_site_id
 _symmetry_equiv_pos_as_xyz
  1  'x, y, z'
loop_
 _atom_site_type_symbol
 _atom_site_label
 _atom_site_symmetry_multiplicity
 _atom_site_fract_x
 _atom_site_fract_y
 _atom_site_fract_z
 _atom_site_occupancy
  Ni  Ni0  1  0.00010462  -0.00100182  0.99890987  1
  Ni  Ni1  1  0.16489768  0.16834216  0.16444514  1
  Cr  Cr2  1  0.00063181  -0.00102569  0.33251234  1
  Ni  Ni3  1  0.00010100  0.33238623  0.00112339  1
  Ni  Ni4  1  0.16378193  0.49693437  0.16568887  1
  Ni  Ni5  1  -0.00060521  0.33329359  0.32958632  1
  Ni  Ni6  1  0.99887520  0.66554065  -0.00079918  1
  Ni  Ni7  1  0.16456811  0.83162783  0.16495852  1
  Ni  Ni8  1  0.99789920  0.66445582  0.33140911  1
  Cr  Cr9  1  0.33112857  -0.00038270  -0.00010040  1
  Ni  Ni10  1  0.49879339  0.16928062  0.16591367  1
  Cr  Cr11  1  0.33218826  -0.00014032  0.33200428  1
  Ni  Ni12  1  0.33246743  0.33248975  0.99889943  1
  Ni  Ni13  1  0.50061286  0.49673466  0.16561580  1
  Ni  Ni14  1  0.33338185  0.33164643  0.33165711  1
  Cr  Cr15  1  0.33200591  0.66395537  -0.00052200  1
  Ni  Ni16  1  0.49886491  0.83087253  0.16568519  1
  Cr  Cr17  1  0.33242242  0.66515132  0.33089163  1
  Cr  Cr18  1  0.66555034  -0.00075509  0.99896682  1
  Ni  Ni19  1  0.83321643  0.17011523  0.16480006  1
  Cr  Cr20  1  0.66409883  -0.00059136  0.33277015  1
  Ni  Ni21  1  0.66433684  0.33377738  0.00125659  1
  Ni  Ni22  1  0.83249345  0.49696055  0.16583753  1
  Ni  Ni23  1  0.66413014  0.33416468  0.33029217  1
  Ni  Ni24  1  0.66581041  0.66383889  0.99875965  1
  Cr  Cr25  1  0.83302437  0.83000448  0.16437879  1
  Ni  Ni26  1  0.66561753  0.66350356  0.33272227  1
  Ni  Ni27  1  0.16767136  0.16522849  0.50142617  1
  Ni  Ni28  1  0.00249016  0.99686371  0.66549746  1
  Fe  Fe29  1  0.16699184  0.16616184  0.83139958  1
  Cr  Cr30  1  0.16636504  0.49810761  0.49962654  1
  Ni  Ni31  1  0.00362698  0.33141470  0.66622959  1
  Ni  Ni32  1  0.16667876  0.49873497  0.83139225  1
  Ni  Ni33  1  0.16483629  0.83358218  0.50142827  1
  Ni  Ni34  1  0.00015590  0.66856581  0.66626416  1
  Ni  Ni35  1  0.16394475  0.83180399  0.83051132  1
  Ni  Ni36  1  0.49531165  0.16694930  0.49870652  1
  Ni  Ni37  1  0.33043845  0.99871376  0.66508637  1
  Ni  Ni38  1  0.49584710  0.16727026  0.83227139  1
  Ni  Ni39  1  0.49899177  0.49891738  0.49921581  1
  Ni  Ni40  1  0.33135157  0.33162016  0.66637881  1
  Ni  Ni41  1  0.49673980  0.49864879  0.83207835  1
  Ni  Ni42  1  0.49896006  0.83105960  0.50082973  1
  Ni  Ni43  1  0.33289868  0.66656598  0.66643418  1
  Ni  Ni44  1  0.49856204  0.83100974  0.83040963  1
  Cr  Cr45  1  0.83399483  0.16601918  0.49852598  1
  Cr  Cr46  1  0.66462577  0.99631792  0.66517454  1
  Cr  Cr47  1  0.83413465  0.16479021  0.83363871  1
  Cr  Cr48  1  0.83188071  0.50118963  0.49781901  1
  Cr  Cr49  1  0.66280833  0.33395979  0.66543250  1
  Cr  Cr50  1  0.83326926  0.50104912  0.83313693  1
  Ni  Ni51  1  0.83311010  0.82996922  0.50051246  1
  Ni  Ni52  1  0.66385122  0.66769419  0.66542646  1
  Ni  Ni53  1  0.83442924  0.83097795  0.83184875  1
" 