6615,Ni72Fe9Cr17_15,-232.435797994189, 166.680166396494,Ni72Fe9Cr17,"# generated using pymatgen
 data_Cr11Fe4Ni39
_symmetry_space_group_name_H-M   'P 1'
_cell_length_a   7.46488335
_cell_length_b   7.46488335
_cell_length_c   10.55693927
_cell_angle_alpha   90.00000000
_cell_angle_beta   90.00000000
_cell_angle_gamma   90.00000000
_symmetry_Int_Tables_number   1
_chemical_formula_structural   Cr11Fe4Ni39
_chemical_formula_sum   'Cr11 Fe4 Ni39'
_cell_volume   588.27998666
_cell_formula_units_Z   1
loop_
 _symmetry_equiv_pos_site_id
 _symmetry_equiv_pos_as_xyz
  1  'x, y, z'
loop_
 _atom_site_type_symbol
 _atom_site_label
 _atom_site_symmetry_multiplicity
 _atom_site_fract_x
 _atom_site_fract_y
 _atom_site_fract_z
 _atom_site_occupancy
  Ni  Ni0  1  0.99827103  0.00037630  0.00038495  1
  Ni  Ni1  1  0.16489441  0.16840481  0.16733192  1
  Ni  Ni2  1  0.00027006  0.00182231  0.33388513  1
  Ni  Ni3  1  0.99976028  0.33371770  0.00055343  1
  Ni  Ni4  1  0.16546160  0.49822011  0.16775825  1
  Ni  Ni5  1  0.00277219  0.33131524  0.33253476  1
  Ni  Ni6  1  0.99994380  0.66634052  0.99986909  1
  Ni  Ni7  1  0.16513547  0.83380870  0.16708567  1
  Cr  Cr8  1  0.00061843  0.66762338  0.33166301  1
  Cr  Cr9  1  0.33383139  0.00136060  0.00027042  1
  Ni  Ni10  1  0.49997378  0.16697306  0.16537102  1
  Cr  Cr11  1  0.33207419  0.99981033  0.33278992  1
  Ni  Ni12  1  0.33253004  0.33223508  0.99935049  1
  Cr  Cr13  1  0.49949842  0.49972654  0.16792227  1
  Ni  Ni14  1  0.33066581  0.33474783  0.33438114  1
  Cr  Cr15  1  0.33054849  0.66665065  0.99938029  1
  Ni  Ni16  1  0.50107603  0.83389938  0.16843112  1
  Ni  Ni17  1  0.33435151  0.66587150  0.33461376  1
  Ni  Ni18  1  0.66847238  0.00237288  0.00029563  1
  Ni  Ni19  1  0.83556718  0.16664749  0.16557128  1
  Cr  Cr20  1  0.66845588  0.99841323  0.33303843  1
  Ni  Ni21  1  0.66814447  0.33056052  0.99896209  1
  Ni  Ni22  1  0.83565775  0.49931993  0.16603254  1
  Cr  Cr23  1  0.66743924  0.33330281  0.33380603  1
  Cr  Cr24  1  0.66952893  0.66764704  0.99978183  1
  Ni  Ni25  1  0.83422295  0.83446734  0.16666783  1
  Ni  Ni26  1  0.66499142  0.66837284  0.33378623  1
  Ni  Ni27  1  0.16454498  0.16643178  0.49945542  1
  Fe  Fe28  1  0.00019823  1.00008401  0.66653950  1
  Ni  Ni29  1  0.16547408  0.16726997  0.83364860  1
  Fe  Fe30  1  0.16850915  0.50022670  0.49977548  1
  Ni  Ni31  1  0.00070457  0.33273708  0.66734738  1
  Ni  Ni32  1  0.16571445  0.49980677  0.83315580  1
  Ni  Ni33  1  0.16794499  0.83493231  0.50155662  1
  Fe  Fe34  1  0.00076178  0.66807093  0.66848169  1
  Ni  Ni35  1  0.16580804  0.83335856  0.83179125  1
  Fe  Fe36  1  0.49938942  0.16507287  0.50105589  1
  Ni  Ni37  1  0.33377691  0.99732037  0.66687147  1
  Ni  Ni38  1  0.50082491  0.16651175  0.83433313  1
  Ni  Ni39  1  0.49812981  0.50358030  0.49867759  1
  Cr  Cr40  1  0.33162076  0.33329650  0.66710511  1
  Ni  Ni41  1  0.50016654  0.50014649  0.83338844  1
  Ni  Ni42  1  0.49978771  0.83029998  0.50154753  1
  Ni  Ni43  1  0.33375189  0.66957533  0.66642518  1
  Ni  Ni44  1  0.50082927  0.83377574  0.83045576  1
  Ni  Ni45  1  0.83721263  0.16477573  0.50055634  1
  Ni  Ni46  1  0.66659362  0.99750274  0.66679962  1
  Ni  Ni47  1  0.83413605  0.16660824  0.83430933  1
  Cr  Cr48  1  0.83256064  0.50033296  0.50039549  1
  Cr  Cr49  1  0.66838357  0.33257827  0.66802232  1
  Ni  Ni50  1  0.83455421  0.49981071  0.83378465  1
  Ni  Ni51  1  0.83270327  0.83548232  0.50131161  1
  Ni  Ni52  1  0.66579292  0.67021455  0.66706301  1
  Ni  Ni53  1  0.83379645  0.83401695  0.83245526  1
" 