8142,Ni72Fe14Cr12_2,-235.546343554334, 186.7838342969,Ni72Fe14Cr12,"# generated using pymatgen
 data_Cr4Fe4Ni19
_symmetry_space_group_name_H-M   'P 1'
_cell_length_a   7.44205151
_cell_length_b   7.44205151
_cell_length_c   10.52465017
_cell_angle_alpha   90.00000000
_cell_angle_beta   90.00000000
_cell_angle_gamma   90.00000000
_symmetry_Int_Tables_number   1
_chemical_formula_structural   Cr4Fe4Ni19
_chemical_formula_sum   'Cr8 Fe8 Ni38'
_cell_volume   582.89860029
_cell_formula_units_Z   2
loop_
 _symmetry_equiv_pos_site_id
 _symmetry_equiv_pos_as_xyz
  1  'x, y, z'
loop_
 _atom_site_type_symbol
 _atom_site_label
 _atom_site_symmetry_multiplicity
 _atom_site_fract_x
 _atom_site_fract_y
 _atom_site_fract_z
 _atom_site_occupancy
  Ni  Ni0  1  1.00059258  0.00180340  1.00059341  1
  Ni  Ni1  1  0.16842677  0.16834925  0.16765432  1
  Ni  Ni2  1  0.00190981  1.00126345  0.33645819  1
  Fe  Fe3  1  0.00363152  0.33334567  1.00125436  1
  Ni  Ni4  1  0.16924624  0.50083525  0.16618901  1
  Cr  Cr5  1  0.00200126  0.33404962  0.33553037  1
  Ni  Ni6  1  0.00341329  0.67079488  1.00150074  1
  Cr  Cr7  1  0.16787558  0.83603828  0.16848112  1
  Ni  Ni8  1  1.00051747  0.66997956  0.33632793  1
  Fe  Fe9  1  0.33622988  0.00173129  1.00094355  1
  Ni  Ni10  1  0.50153269  0.16718622  0.17021764  1
  Ni  Ni11  1  0.33444248  0.00420812  0.33474755  1
  Ni  Ni12  1  0.33361920  0.33460143  0.00393949  1
  Ni  Ni13  1  0.50113485  0.50213054  0.16873120  1
  Fe  Fe14  1  0.33529774  0.33427327  0.33490332  1
  Ni  Ni15  1  0.33469498  0.66750928  1.00101834  1
  Ni  Ni16  1  0.50355182  0.83554302  0.16718653  1
  Cr  Cr17  1  0.33416245  0.66725440  0.33543731  1
  Ni  Ni18  1  0.66915960  1.00069605  0.00222978  1
  Ni  Ni19  1  0.83528803  0.16593924  0.16833090  1
  Fe  Fe20  1  0.66961580  0.00196107  0.33461503  1
  Cr  Cr21  1  0.66614143  0.33141464  1.00136210  1
  Cr  Cr22  1  0.83563561  0.50309584  0.16744259  1
  Ni  Ni23  1  0.66612778  0.33433431  0.33604892  1
  Ni  Ni24  1  0.66714661  0.67211344  0.00235052  1
  Fe  Fe25  1  0.83428014  0.83679461  0.16848425  1
  Ni  Ni26  1  0.66899633  0.66727414  0.33463405  1
  Ni  Ni27  1  0.16854300  0.16735744  0.50216459  1
  Ni  Ni28  1  1.00159809  1.00080068  0.66785568  1
  Ni  Ni29  1  0.16816261  0.16831577  0.83546554  1
  Ni  Ni30  1  0.16826331  0.50165521  0.50316291  1
  Ni  Ni31  1  0.00276913  0.33436093  0.66883580  1
  Ni  Ni32  1  0.16818666  0.50152543  0.83598122  1
  Ni  Ni33  1  0.16600844  0.83623426  0.50255711  1
  Ni  Ni34  1  0.00293714  0.66967333  0.66687737  1
  Ni  Ni35  1  0.16808716  0.83512981  0.83418137  1
  Ni  Ni36  1  0.50182154  0.16991289  0.50105827  1
  Ni  Ni37  1  0.33425528  0.00304259  0.66988837  1
  Ni  Ni38  1  0.50100866  0.16604835  0.83396774  1
  Ni  Ni39  1  0.50257429  0.49980753  0.50192276  1
  Ni  Ni40  1  0.33471725  0.33388519  0.66639158  1
  Cr  Cr41  1  0.49998985  0.50214946  0.83371635  1
  Cr  Cr42  1  0.50160021  0.83702681  0.50312675  1
  Fe  Fe43  1  0.33247239  0.66855721  0.66858932  1
  Ni  Ni44  1  0.50187641  0.83677083  0.83541866  1
  Ni  Ni45  1  0.83465001  0.16722042  0.50294030  1
  Ni  Ni46  1  0.66912468  0.00328311  0.66918973  1
  Ni  Ni47  1  0.83604776  0.16569226  0.83395409  1
  Fe  Fe48  1  0.83467658  0.50170427  0.50248518  1
  Ni  Ni49  1  0.66772381  0.33252870  0.66652573  1
  Cr  Cr50  1  0.83719395  0.50156527  0.83387394  1
  Ni  Ni51  1  0.83648444  0.83542247  0.50028497  1
  Fe  Fe52  1  0.67007341  0.67009003  0.66770490  1
  Ni  Ni53  1  0.83516865  0.83640615  0.83595388  1
" 