5707,Ni72Fe5Cr21_1,-231.658054891473, 164.361230853311,Ni72Fe5Cr21,"# generated using pymatgen
 data_Cr4FeNi13
_symmetry_space_group_name_H-M   'P 1'
_cell_length_a   7.46719129
_cell_length_b   7.46719129
_cell_length_c   10.56020320
_cell_angle_alpha   90.00000000
_cell_angle_beta   90.00000000
_cell_angle_gamma   90.00000000
_symmetry_Int_Tables_number   1
_chemical_formula_structural   Cr4FeNi13
_chemical_formula_sum   'Cr12 Fe3 Ni39'
_cell_volume   588.82579774
_cell_formula_units_Z   3
loop_
 _symmetry_equiv_pos_site_id
 _symmetry_equiv_pos_as_xyz
  1  'x, y, z'
loop_
 _atom_site_type_symbol
 _atom_site_label
 _atom_site_symmetry_multiplicity
 _atom_site_fract_x
 _atom_site_fract_y
 _atom_site_fract_z
 _atom_site_occupancy
  Cr  Cr0  1  0.00212237  0.99908569  0.99996768  1
  Ni  Ni1  1  0.16585122  0.16564906  0.16733891  1
  Ni  Ni2  1  0.00203133  0.00119492  0.33203180  1
  Ni  Ni3  1  0.99926431  0.33548394  0.00198221  1
  Ni  Ni4  1  0.16645142  0.50199720  0.16571434  1
  Fe  Fe5  1  0.00079487  0.33415862  0.33186002  1
  Ni  Ni6  1  0.00003493  0.66446949  0.00005800  1
  Ni  Ni7  1  0.16858624  0.83290629  0.16656745  1
  Cr  Cr8  1  0.00025859  0.66774710  0.33345098  1
  Ni  Ni9  1  0.33468998  0.99804474  0.00076138  1
  Ni  Ni10  1  0.50185761  0.16502665  0.16674421  1
  Ni  Ni11  1  0.33216012  0.99966683  0.33332808  1
  Cr  Cr12  1  0.33439031  0.33357419  0.00189472  1
  Ni  Ni13  1  0.50168667  0.50189789  0.16648399  1
  Cr  Cr14  1  0.33632576  0.33379796  0.33221163  1
  Ni  Ni15  1  0.33440754  0.66767352  0.00058237  1
  Ni  Ni16  1  0.49900506  0.83265836  0.16682079  1
  Ni  Ni17  1  0.33575101  0.66802692  0.33347654  1
  Ni  Ni18  1  0.66419662  0.99911754  0.00404267  1
  Ni  Ni19  1  0.83205880  0.16763255  0.16794841  1
  Fe  Fe20  1  0.66316833  0.99888825  0.33132747  1
  Ni  Ni21  1  0.66760702  0.33557279  0.00120001  1
  Ni  Ni22  1  0.83215647  0.49919057  0.16565611  1
  Ni  Ni23  1  0.66671903  0.33472375  0.33311431  1
  Ni  Ni24  1  0.66563938  0.66556177  0.00110836  1
  Ni  Ni25  1  0.83168615  0.83316984  0.16679299  1
  Ni  Ni26  1  0.66466696  0.66405422  0.33257917  1
  Ni  Ni27  1  0.16908692  0.16623360  0.49908796  1
  Cr  Cr28  1  0.00349899  0.99885490  0.66749020  1
  Ni  Ni29  1  0.16882846  0.16751565  0.83339385  1
  Ni  Ni30  1  0.16911208  0.50057168  0.49951580  1
  Cr  Cr31  1  0.00262694  0.33487061  0.66621218  1
  Ni  Ni32  1  0.16798055  0.50103504  0.83484240  1
  Ni  Ni33  1  0.17118281  0.83384875  0.49923336  1
  Cr  Cr34  1  0.00038573  0.66593224  0.66708496  1
  Ni  Ni35  1  0.17212348  0.83123264  0.83408839  1
  Ni  Ni36  1  0.49839880  0.16623310  0.50089393  1
  Ni  Ni37  1  0.33533431  0.00011324  0.66577137  1
  Cr  Cr38  1  0.49962681  0.16534900  0.83258849  1
  Ni  Ni39  1  0.50008764  0.50096095  0.50088665  1
  Ni  Ni40  1  0.33458045  0.33402663  0.66552021  1
  Ni  Ni41  1  0.49992626  0.50276672  0.83242184  1
  Ni  Ni42  1  0.49708047  0.83265320  0.49963551  1
  Ni  Ni43  1  0.33622025  0.66606815  0.66581758  1
  Ni  Ni44  1  0.49758753  0.83157982  0.83349885  1
  Cr  Cr45  1  0.83158171  0.16735735  0.49803406  1
  Ni  Ni46  1  0.66172235  0.99772415  0.66459861  1
  Cr  Cr47  1  0.83124102  0.16887207  0.83411478  1
  Ni  Ni48  1  0.83059566  0.49908817  0.49945018  1
  Fe  Fe49  1  0.66351722  0.33584600  0.66561304  1
  Ni  Ni50  1  0.83183309  0.50028822  0.83515602  1
  Cr  Cr51  1  0.83007408  0.83269038  0.49882412  1
  Ni  Ni52  1  0.66296860  0.66506151  0.66621470  1
  Cr  Cr53  1  0.82871019  0.83173606  0.83444686  1
" 