786,Ni72Fe28_0,-235.933681696932, 203.290924246222,Ni72Fe28,"# generated using pymatgen
 data_Fe19Ni8
_symmetry_space_group_name_H-M   'P 1'
_cell_length_a   7.39625856
_cell_length_b   7.39625856
_cell_length_c   10.45988917
_cell_angle_alpha   90.00000000
_cell_angle_beta   90.00000000
_cell_angle_gamma   90.00000000
_symmetry_Int_Tables_number   1
_chemical_formula_structural   Fe19Ni8
_chemical_formula_sum   'Fe38 Ni16'
_cell_volume   572.20447933
_cell_formula_units_Z   2
loop_
 _symmetry_equiv_pos_site_id
 _symmetry_equiv_pos_as_xyz
  1  'x, y, z'
loop_
 _atom_site_type_symbol
 _atom_site_label
 _atom_site_symmetry_multiplicity
 _atom_site_fract_x
 _atom_site_fract_y
 _atom_site_fract_z
 _atom_site_occupancy
  Fe  Fe0  1  1.00458858  1.00434467  1.00436128  1
  Fe  Fe1  1  0.17086724  0.17263185  0.17188559  1
  Fe  Fe2  1  0.00486881  0.00551790  0.33815837  1
  Fe  Fe3  1  1.00397245  0.33775480  0.00499814  1
  Fe  Fe4  1  0.17095421  0.50479968  0.17195279  1
  Ni  Ni5  1  0.00607637  0.33898428  0.33735786  1
  Fe  Fe6  1  1.00398068  0.67225647  1.00465271  1
  Fe  Fe7  1  0.17086773  0.83693945  0.17077790  1
  Fe  Fe8  1  1.00426025  0.67102993  0.33795299  1
  Fe  Fe9  1  0.33839541  1.00442851  1.00427567  1
  Fe  Fe10  1  0.50601631  0.17174050  0.17210788  1
  Fe  Fe11  1  0.33832999  0.00590996  0.33854973  1
  Fe  Fe12  1  0.33901028  0.33766600  0.00568632  1
  Ni  Ni13  1  0.50540927  0.50392595  0.17202086  1
  Ni  Ni14  1  0.33709052  0.33935512  0.33776876  1
  Fe  Fe15  1  0.33892876  0.67225405  1.00390449  1
  Fe  Fe16  1  0.50633555  0.83751505  0.17137285  1
  Fe  Fe17  1  0.33856262  0.67103893  0.33862611  1
  Ni  Ni18  1  0.67128050  1.00422045  0.00506950  1
  Fe  Fe19  1  0.83747233  0.17164495  0.17151287  1
  Ni  Ni20  1  0.67118661  1.00398762  0.33727261  1
  Fe  Fe21  1  0.67137290  0.33827391  0.00513518  1
  Ni  Ni22  1  0.83782675  0.50478210  0.17163976  1
  Fe  Fe23  1  0.67115731  0.33802997  0.33783308  1
  Fe  Fe24  1  0.67144925  0.67164795  0.00547729  1
  Ni  Ni25  1  0.83870958  0.83777134  0.17117002  1
  Fe  Fe26  1  0.67153658  0.67072285  0.33743397  1
  Fe  Fe27  1  0.17193321  0.17163893  0.50454266  1
  Ni  Ni28  1  1.00315787  0.00489786  0.67161963  1
  Fe  Fe29  1  0.17143347  0.17067740  0.83792055  1
  Fe  Fe30  1  0.17231795  0.50448522  0.50500926  1
  Ni  Ni31  1  0.00554398  0.33856704  0.67184435  1
  Fe  Fe32  1  0.17182919  0.50594655  0.83739135  1
  Fe  Fe33  1  0.17224548  0.83824240  0.50604623  1
  Ni  Ni34  1  0.00639405  0.67089662  0.67172178  1
  Ni  Ni35  1  0.17171244  0.83849945  0.83744457  1
  Ni  Ni36  1  0.50450767  0.17099516  0.50515340  1
  Fe  Fe37  1  0.33737581  1.00381082  0.67153008  1
  Fe  Fe38  1  0.50480444  0.17006699  0.83785125  1
  Fe  Fe39  1  0.50410412  0.50479345  0.50419955  1
  Fe  Fe40  1  0.33740641  0.33782025  0.67072525  1
  Fe  Fe41  1  0.50381826  0.50594962  0.83864864  1
  Ni  Ni42  1  0.50450774  0.83913220  0.50467518  1
  Ni  Ni43  1  0.33781701  0.67087092  0.67162301  1
  Ni  Ni44  1  0.50396199  0.83848121  0.83813153  1
  Fe  Fe45  1  0.83730760  0.17065621  0.50515825  1
  Ni  Ni46  1  0.67138103  1.00451398  0.67201660  1
  Fe  Fe47  1  0.83810859  0.17000261  0.83768236  1
  Fe  Fe48  1  0.83794957  0.50447719  0.50458358  1
  Fe  Fe49  1  0.67234567  0.33813319  0.67140169  1
  Fe  Fe50  1  0.83872495  0.50564051  0.83818578  1
  Fe  Fe51  1  0.83700548  0.83922398  0.50455880  1
  Fe  Fe52  1  0.67210686  0.67210645  0.67144990  1
  Fe  Fe53  1  0.83810732  0.83871454  0.83834519  1
" 