6113,Ni72Fe7Cr20_18,-231.539391350517, 164.322638459916,Ni72Fe7Cr20,"# generated using pymatgen
 data_Cr4FeNi13
_symmetry_space_group_name_H-M   'P 1'
_cell_length_a   7.46995525
_cell_length_b   7.46995525
_cell_length_c   10.56411202
_cell_angle_alpha   90.00000000
_cell_angle_beta   90.00000000
_cell_angle_gamma   90.00000000
_symmetry_Int_Tables_number   1
_chemical_formula_structural   Cr4FeNi13
_chemical_formula_sum   'Cr12 Fe3 Ni39'
_cell_volume   589.47989486
_cell_formula_units_Z   3
loop_
 _symmetry_equiv_pos_site_id
 _symmetry_equiv_pos_as_xyz
  1  'x, y, z'
loop_
 _atom_site_type_symbol
 _atom_site_label
 _atom_site_symmetry_multiplicity
 _atom_site_fract_x
 _atom_site_fract_y
 _atom_site_fract_z
 _atom_site_occupancy
  Cr  Cr0  1  0.99813534  0.99945824  0.00181662  1
  Ni  Ni1  1  0.16634219  0.16817021  0.16672650  1
  Ni  Ni2  1  0.99857260  0.00046283  0.33223943  1
  Ni  Ni3  1  0.00006608  0.33544348  0.00044424  1
  Ni  Ni4  1  0.16633819  0.49980496  0.16692702  1
  Ni  Ni5  1  0.00203579  0.33241498  0.33264037  1
  Ni  Ni6  1  0.00057149  0.66391929  -0.00000905  1
  Ni  Ni7  1  0.16476193  0.83144017  0.16624984  1
  Ni  Ni8  1  0.00091687  0.66653780  0.33127232  1
  Ni  Ni9  1  0.33501083  0.00205017  0.00088907  1
  Ni  Ni10  1  0.49954573  0.16799803  0.16456630  1
  Cr  Cr11  1  0.33238749  0.00080331  0.33434334  1
  Ni  Ni12  1  0.33354851  0.33392103  0.00075352  1
  Ni  Ni13  1  0.49805952  0.49848931  0.16660394  1
  Ni  Ni14  1  0.33073414  0.33438834  0.33221198  1
  Ni  Ni15  1  0.33104616  0.66344462  0.00044568  1
  Cr  Cr16  1  0.49967799  0.83299237  0.16700791  1
  Ni  Ni17  1  0.33190815  0.66461914  0.33321300  1
  Ni  Ni18  1  0.66627603  0.00255498  0.99953303  1
  Ni  Ni19  1  0.83352908  0.16642108  0.16696123  1
  Ni  Ni20  1  0.66856313  0.99928916  0.33342729  1
  Fe  Fe21  1  0.66600514  0.33170109  0.99938163  1
  Ni  Ni22  1  0.83501787  0.50006971  0.16648556  1
  Cr  Cr23  1  0.66620841  0.33184914  0.33140492  1
  Cr  Cr24  1  0.66824336  0.66553194  -0.00000117  1
  Ni  Ni25  1  0.83484473  0.83292552  0.16839003  1
  Ni  Ni26  1  0.66659010  0.66808376  0.33166068  1
  Ni  Ni27  1  0.16514194  0.16559039  0.49965747  1
  Ni  Ni28  1  0.99853033  0.00107714  0.66553411  1
  Cr  Cr29  1  0.16668685  0.16733100  0.83366450  1
  Fe  Fe30  1  0.16626910  0.49999674  0.49865909  1
  Ni  Ni31  1  0.99777762  0.33240875  0.66633206  1
  Ni  Ni32  1  0.16541520  0.50072653  0.83357886  1
  Ni  Ni33  1  0.16817723  0.83356746  0.50082667  1
  Fe  Fe34  1  0.00005217  0.66627790  0.66777885  1
  Cr  Cr35  1  0.16638762  0.83155138  0.83303099  1
  Ni  Ni36  1  0.49961015  0.16387854  0.50089446  1
  Ni  Ni37  1  0.33384177  0.99843172  0.66420685  1
  Ni  Ni38  1  0.50248057  0.16739594  0.83395593  1
  Cr  Cr39  1  0.49931258  0.50167203  0.49905816  1
  Cr  Cr40  1  0.33306833  0.33323102  0.66589122  1
  Ni  Ni41  1  0.50026676  0.49847874  0.83313160  1
  Ni  Ni42  1  0.49802955  0.83382268  0.50087747  1
  Ni  Ni43  1  0.33328284  0.66750740  0.66575849  1
  Cr  Cr44  1  0.49973674  0.83417580  0.83195091  1
  Ni  Ni45  1  0.83466480  0.16579917  0.50087863  1
  Ni  Ni46  1  0.66704462  0.00080875  0.66645539  1
  Ni  Ni47  1  0.83058623  0.16786807  0.83157774  1
  Cr  Cr48  1  0.83442252  0.49862546  0.50032505  1
  Ni  Ni49  1  0.66862180  0.33185118  0.66911543  1
  Ni  Ni50  1  0.83373363  0.49894058  0.83208124  1
  Cr  Cr51  1  0.83260388  0.83432844  0.49925457  1
  Ni  Ni52  1  0.66597582  0.66675516  0.66793733  1
  Ni  Ni53  1  0.83283292  0.83260777  0.83149209  1
" 