6623,Ni72Fe2Cr25_15,-228.633137068307, 150.1621568994,Ni72Fe2Cr25,"# generated using pymatgen
 data_Cr15FeNi38
_symmetry_space_group_name_H-M   'P 1'
_cell_length_a   7.48151698
_cell_length_b   7.48151698
_cell_length_c   10.58046279
_cell_angle_alpha   90.00000000
_cell_angle_beta   90.00000000
_cell_angle_gamma   90.00000000
_symmetry_Int_Tables_number   1
_chemical_formula_structural   Cr15FeNi38
_chemical_formula_sum   'Cr15 Fe1 Ni38'
_cell_volume   592.22126338
_cell_formula_units_Z   1
loop_
 _symmetry_equiv_pos_site_id
 _symmetry_equiv_pos_as_xyz
  1  'x, y, z'
loop_
 _atom_site_type_symbol
 _atom_site_label
 _atom_site_symmetry_multiplicity
 _atom_site_fract_x
 _atom_site_fract_y
 _atom_site_fract_z
 _atom_site_occupancy
  Cr  Cr0  1  0.99631040  0.00151651  -0.00009497  1
  Ni  Ni1  1  0.16612067  0.16533368  0.16606714  1
  Ni  Ni2  1  0.99783552  -0.00086132  0.33144065  1
  Ni  Ni3  1  -0.00074510  0.33158893  0.99691563  1
  Cr  Cr4  1  0.16532363  0.49761571  0.16612794  1
  Cr  Cr5  1  0.99622508  0.33184907  0.33414659  1
  Cr  Cr6  1  0.99454588  0.66473275  0.00084049  1
  Ni  Ni7  1  0.16469933  0.83504273  0.16904207  1
  Ni  Ni8  1  0.99680002  0.66722999  0.33248089  1
  Cr  Cr9  1  0.33332300  0.00040748  0.00016837  1
  Ni  Ni10  1  0.49957971  0.16554678  0.16774879  1
  Ni  Ni11  1  0.33313362  0.00179371  0.33180048  1
  Ni  Ni12  1  0.33112971  0.33233749  -0.00072352  1
  Ni  Ni13  1  0.50063306  0.49698433  0.16515999  1
  Ni  Ni14  1  0.33338700  0.32874103  0.33204389  1
  Cr  Cr15  1  0.33611272  0.66493335  0.99795464  1
  Ni  Ni16  1  0.50138291  0.83455736  0.16527518  1
  Cr  Cr17  1  0.33278909  0.66660440  0.33238927  1
  Ni  Ni18  1  0.66698081  0.99685129  -0.00058450  1
  Ni  Ni19  1  0.83126188  0.16471220  0.16614342  1
  Ni  Ni20  1  0.66618137  0.00050352  0.33271189  1
  Cr  Cr21  1  0.66771277  0.33355770  0.00061177  1
  Ni  Ni22  1  0.83069487  0.49860172  0.16586760  1
  Ni  Ni23  1  0.66536089  0.32984429  0.33180578  1
  Ni  Ni24  1  0.66610902  0.66688483  0.99862889  1
  Ni  Ni25  1  0.83105139  0.83375402  0.16668318  1
  Cr  Cr26  1  0.66877217  0.66570729  0.33104625  1
  Ni  Ni27  1  0.16449583  0.16591702  0.49798705  1
  Ni  Ni28  1  0.99569176  0.00036797  0.66566486  1
  Ni  Ni29  1  0.16218747  0.16943432  0.83267926  1
  Ni  Ni30  1  0.16321544  0.49838195  0.50029359  1
  Fe  Fe31  1  0.99679682  0.33234552  0.66567479  1
  Ni  Ni32  1  0.16444725  0.49689551  0.83120444  1
  Cr  Cr33  1  0.16329460  0.83198551  0.49798322  1
  Ni  Ni34  1  0.99668203  0.66457649  0.66499398  1
  Cr  Cr35  1  0.16384070  0.83166140  0.83028793  1
  Ni  Ni36  1  0.50139978  0.16421698  0.49659976  1
  Cr  Cr37  1  0.33319467  -0.00081301  0.66471937  1
  Cr  Cr38  1  0.50226438  0.16548678  0.83292144  1
  Cr  Cr39  1  0.50052880  0.49760928  0.49922216  1
  Cr  Cr40  1  0.33137519  0.33248833  0.66555342  1
  Ni  Ni41  1  0.50026753  0.50064821  0.83200755  1
  Ni  Ni42  1  0.50186857  0.83495313  0.50080396  1
  Ni  Ni43  1  0.33300728  0.66425653  0.66679449  1
  Ni  Ni44  1  0.50412760  0.82984976  0.83091486  1
  Ni  Ni45  1  0.83097913  0.16452806  0.50011359  1
  Ni  Ni46  1  0.66907344  0.99862594  0.66498272  1
  Ni  Ni47  1  0.83359423  0.16561207  0.83063755  1
  Ni  Ni48  1  0.83360193  0.49918646  0.50045069  1
  Ni  Ni49  1  0.66857819  0.33250191  0.66489280  1
  Ni  Ni50  1  0.83222538  0.49905941  0.83093421  1
  Ni  Ni51  1  0.83182408  0.83339351  0.49972666  1
  Ni  Ni52  1  0.66746621  0.66585699  0.66712358  1
  Ni  Ni53  1  0.82904189  0.83238471  0.83091583  1
" 