6794,Ni72Fe28_9,-235.784230404324, 193.489838203229,Ni72Fe28,"# generated using pymatgen
 data_Fe19Ni8
_symmetry_space_group_name_H-M   'P 1'
_cell_length_a   7.39832517
_cell_length_b   7.39832517
_cell_length_c   10.46281180
_cell_angle_alpha   90.00000000
_cell_angle_beta   90.00000000
_cell_angle_gamma   90.00000000
_symmetry_Int_Tables_number   1
_chemical_formula_structural   Fe19Ni8
_chemical_formula_sum   'Fe38 Ni16'
_cell_volume   572.68425732
_cell_formula_units_Z   2
loop_
 _symmetry_equiv_pos_site_id
 _symmetry_equiv_pos_as_xyz
  1  'x, y, z'
loop_
 _atom_site_type_symbol
 _atom_site_label
 _atom_site_symmetry_multiplicity
 _atom_site_fract_x
 _atom_site_fract_y
 _atom_site_fract_z
 _atom_site_occupancy
  Fe  Fe0  1  0.00482840  1.00434392  1.00347827  1
  Fe  Fe1  1  0.17217605  0.17011155  0.17188557  1
  Fe  Fe2  1  1.00380118  1.00357034  0.33889821  1
  Fe  Fe3  1  0.00511811  0.33896138  0.00521110  1
  Fe  Fe4  1  0.17220748  0.50554862  0.17235609  1
  Fe  Fe5  1  0.00506142  0.33836744  0.33744502  1
  Fe  Fe6  1  1.00434228  0.67062241  1.00345830  1
  Fe  Fe7  1  0.17199172  0.83851146  0.17049102  1
  Fe  Fe8  1  0.00490642  0.67198236  0.33972144  1
  Fe  Fe9  1  0.33956670  1.00391328  0.00536226  1
  Fe  Fe10  1  0.50441810  0.17081715  0.17271549  1
  Ni  Ni11  1  0.33655367  1.00440076  0.33859631  1
  Fe  Fe12  1  0.33849734  0.33862775  1.00387357  1
  Fe  Fe13  1  0.50495485  0.50543650  0.17102782  1
  Fe  Fe14  1  0.33848008  0.33816560  0.33979231  1
  Ni  Ni15  1  0.33734945  0.67220601  0.00603607  1
  Ni  Ni16  1  0.50528532  0.83878997  0.17238658  1
  Fe  Fe17  1  0.33856084  0.67194414  0.33781957  1
  Fe  Fe18  1  0.66969902  1.00341836  1.00363443  1
  Fe  Fe19  1  0.83719912  0.17036972  0.17062591  1
  Fe  Fe20  1  0.66996049  1.00315698  0.33939477  1
  Ni  Ni21  1  0.67121712  0.33692653  0.00537696  1
  Fe  Fe22  1  0.83674420  0.50534305  0.17143151  1
  Fe  Fe23  1  0.67037620  0.33716462  0.33794859  1
  Fe  Fe24  1  0.66956484  0.67162195  0.00571769  1
  Fe  Fe25  1  0.83754191  0.83779328  0.17291868  1
  Ni  Ni26  1  0.67156859  0.67003648  0.33814654  1
  Fe  Fe27  1  0.17157621  0.17104526  0.50480584  1
  Ni  Ni28  1  1.00462349  1.00412192  0.67069287  1
  Fe  Fe29  1  0.17191254  0.16958148  0.83749374  1
  Ni  Ni30  1  0.17055970  0.50398758  0.50487711  1
  Fe  Fe31  1  0.00505843  0.33839634  0.67133533  1
  Fe  Fe32  1  0.17292082  0.50680671  0.83675050  1
  Fe  Fe33  1  0.17132794  0.83832655  0.50555943  1
  Ni  Ni34  1  0.00563595  0.67239866  0.67120843  1
  Ni  Ni35  1  0.17271194  0.83772644  0.83777643  1
  Ni  Ni36  1  0.50465751  0.17093429  0.50465806  1
  Fe  Fe37  1  0.33860727  0.00467959  0.67053030  1
  Fe  Fe38  1  0.50492347  0.17095601  0.83662495  1
  Fe  Fe39  1  0.50476627  0.50464177  0.50495549  1
  Ni  Ni40  1  0.33899201  0.33880252  0.67171315  1
  Fe  Fe41  1  0.50406167  0.50625269  0.83823558  1
  Fe  Fe42  1  0.50460199  0.83779592  0.50410894  1
  Ni  Ni43  1  0.33717076  0.67099281  0.66932711  1
  Ni  Ni44  1  0.50422632  0.83786567  0.83628609  1
  Fe  Fe45  1  0.83834477  0.17146931  0.50515936  1
  Ni  Ni46  1  0.67244870  0.00585963  0.67043851  1
  Fe  Fe47  1  0.83742232  0.17028249  0.83789924  1
  Fe  Fe48  1  0.83751891  0.50481864  0.50471581  1
  Ni  Ni49  1  0.67098899  0.33752102  0.67062971  1
  Fe  Fe50  1  0.83688564  0.50546404  0.83793181  1
  Ni  Ni51  1  0.83742840  0.83774089  0.50504252  1
  Fe  Fe52  1  0.67123945  0.67196055  0.67024922  1
  Fe  Fe53  1  0.83821843  0.83822038  0.83604518  1
" 