3305,Ni72Fe2Cr25_16,-228.814557546201, 151.723379907722,Ni72Fe2Cr25,"# generated using pymatgen
 data_Cr15FeNi38
_symmetry_space_group_name_H-M   'P 1'
_cell_length_a   7.47918047
_cell_length_b   7.47918047
_cell_length_c   10.57715846
_cell_angle_alpha   90.00000000
_cell_angle_beta   90.00000000
_cell_angle_gamma   90.00000000
_symmetry_Int_Tables_number   1
_chemical_formula_structural   Cr15FeNi38
_chemical_formula_sum   'Cr15 Fe1 Ni38'
_cell_volume   591.66657619
_cell_formula_units_Z   1
loop_
 _symmetry_equiv_pos_site_id
 _symmetry_equiv_pos_as_xyz
  1  'x, y, z'
loop_
 _atom_site_type_symbol
 _atom_site_label
 _atom_site_symmetry_multiplicity
 _atom_site_fract_x
 _atom_site_fract_y
 _atom_site_fract_z
 _atom_site_occupancy
  Ni  Ni0  1  0.00072268  0.99845457  0.00146965  1
  Ni  Ni1  1  0.16502538  0.16412303  0.16244485  1
  Ni  Ni2  1  0.99466376  0.99707928  0.33075394  1
  Fe  Fe3  1  0.00141024  0.33320737  0.99897877  1
  Ni  Ni4  1  0.16785275  0.50148375  0.16493083  1
  Cr  Cr5  1  -0.00046874  0.33193372  0.33179665  1
  Ni  Ni6  1  -0.00063981  0.66633546  0.99894657  1
  Ni  Ni7  1  0.16514969  0.83208045  0.16537877  1
  Ni  Ni8  1  0.00009464  0.66849729  0.33226364  1
  Ni  Ni9  1  0.33147442  0.00086370  -0.00073157  1
  Ni  Ni10  1  0.50001471  0.16697763  0.16539764  1
  Cr  Cr11  1  0.33440200  0.99788185  0.33083209  1
  Ni  Ni12  1  0.33277851  0.33277709  0.99896250  1
  Ni  Ni13  1  0.49852548  0.49999902  0.16527160  1
  Cr  Cr14  1  0.33315589  0.33480280  0.33156783  1
  Ni  Ni15  1  0.33270431  0.66394699  0.00071859  1
  Ni  Ni16  1  0.49858884  0.83054836  0.16615124  1
  Ni  Ni17  1  0.33216929  0.66543364  0.33062495  1
  Cr  Cr18  1  0.66590262  0.99760758  0.00016269  1
  Ni  Ni19  1  0.83242874  0.16413622  0.16701131  1
  Ni  Ni20  1  0.66810272  0.99906476  0.33311318  1
  Ni  Ni21  1  0.66293130  0.33395433  -0.00057922  1
  Cr  Cr22  1  0.82985708  0.49976739  0.16473032  1
  Ni  Ni23  1  0.66493672  0.32918336  0.33172597  1
  Ni  Ni24  1  0.66553112  0.66474434  0.99723378  1
  Ni  Ni25  1  0.83386618  0.83333108  0.16722142  1
  Ni  Ni26  1  0.66525684  0.66926983  0.33190159  1
  Cr  Cr27  1  0.16419584  0.16455084  0.50250416  1
  Ni  Ni28  1  0.99842908  0.99906510  0.66546788  1
  Ni  Ni29  1  0.16707845  0.16644096  0.83285920  1
  Ni  Ni30  1  0.16378867  0.50119901  0.49921633  1
  Ni  Ni31  1  0.00051229  0.33371848  0.66714727  1
  Ni  Ni32  1  0.16407435  0.49761372  0.83343701  1
  Cr  Cr33  1  0.16481190  0.83141527  0.49911775  1
  Ni  Ni34  1  0.99661166  0.66479239  0.66626481  1
  Cr  Cr35  1  0.16556395  0.83506302  0.83307919  1
  Ni  Ni36  1  0.50201601  0.16304351  0.49842814  1
  Ni  Ni37  1  0.33361328  0.00049470  0.66732418  1
  Ni  Ni38  1  0.49535665  0.16618529  0.83373292  1
  Cr  Cr39  1  0.50017530  0.50111348  0.49606746  1
  Cr  Cr40  1  0.33095085  0.33170698  0.66663110  1
  Ni  Ni41  1  0.50074641  0.50019510  0.83547820  1
  Ni  Ni42  1  0.50165722  0.83342374  0.49871442  1
  Cr  Cr43  1  0.33341348  0.66573309  0.66609671  1
  Ni  Ni44  1  0.49953582  0.83120145  0.83277311  1
  Ni  Ni45  1  0.83170605  0.16344577  0.49767409  1
  Cr  Cr46  1  0.66489097  0.99625374  0.66486645  1
  Cr  Cr47  1  0.83551391  0.16704697  0.83359885  1
  Cr  Cr48  1  0.83329524  0.50040247  0.49959680  1
  Cr  Cr49  1  0.66616701  0.33285071  0.66644219  1
  Ni  Ni50  1  0.83267767  0.50187538  0.83270683  1
  Ni  Ni51  1  0.83175513  0.83335922  0.49853907  1
  Ni  Ni52  1  0.66837431  0.66814108  0.66830236  1
  Ni  Ni53  1  0.83285126  0.82838377  0.83185402  1
" 