5414,Ni72Fe5Cr21_12,-231.571712930094, 164.654211675945,Ni72Fe5Cr21,"# generated using pymatgen
 data_Cr4FeNi13
_symmetry_space_group_name_H-M   'P 1'
_cell_length_a   7.46582676
_cell_length_b   7.46582676
_cell_length_c   10.55827346
_cell_angle_alpha   90.00000000
_cell_angle_beta   90.00000000
_cell_angle_gamma   90.00000000
_symmetry_Int_Tables_number   1
_chemical_formula_structural   Cr4FeNi13
_chemical_formula_sum   'Cr12 Fe3 Ni39'
_cell_volume   588.50305698
_cell_formula_units_Z   3
loop_
 _symmetry_equiv_pos_site_id
 _symmetry_equiv_pos_as_xyz
  1  'x, y, z'
loop_
 _atom_site_type_symbol
 _atom_site_label
 _atom_site_symmetry_multiplicity
 _atom_site_fract_x
 _atom_site_fract_y
 _atom_site_fract_z
 _atom_site_occupancy
  Fe  Fe0  1  0.00214896  0.00037780  0.99999845  1
  Ni  Ni1  1  0.16689994  0.16727514  0.16615706  1
  Ni  Ni2  1  0.99920712  0.00020577  0.33328804  1
  Ni  Ni3  1  0.00312067  0.33357708  0.00194667  1
  Ni  Ni4  1  0.16304566  0.49803900  0.16647748  1
  Ni  Ni5  1  0.99957399  0.33288974  0.33151913  1
  Ni  Ni6  1  0.00188964  0.66645797  0.00020776  1
  Ni  Ni7  1  0.16655018  0.83495359  0.16670698  1
  Ni  Ni8  1  0.00039853  0.66713680  0.33324018  1
  Ni  Ni9  1  0.33403030  0.00161594  0.00111038  1
  Ni  Ni10  1  0.49909788  0.16451420  0.16726550  1
  Fe  Fe11  1  0.33425510  0.00084791  0.33209786  1
  Ni  Ni12  1  0.33070291  0.33009814  0.99832324  1
  Cr  Cr13  1  0.50065411  0.49883473  0.16819947  1
  Ni  Ni14  1  0.33388899  0.33218340  0.33359518  1
  Cr  Cr15  1  0.33101542  0.66814833  0.99889089  1
  Ni  Ni16  1  0.49960908  0.83755506  0.16728092  1
  Cr  Cr17  1  0.33217863  0.66783882  0.33443063  1
  Ni  Ni18  1  0.66436542  0.00041023  0.99917774  1
  Ni  Ni19  1  0.83425321  0.16801462  0.16778928  1
  Ni  Ni20  1  0.66643957  0.00143903  0.33487516  1
  Cr  Cr21  1  0.66659432  0.33106342  0.00146099  1
  Ni  Ni22  1  0.83687685  0.49854699  0.16826940  1
  Ni  Ni23  1  0.66679641  0.33098014  0.33294481  1
  Cr  Cr24  1  0.66748780  0.66868708  0.99958379  1
  Cr  Cr25  1  0.83362272  0.83307258  0.16691948  1
  Ni  Ni26  1  0.66716180  0.66782744  0.33395577  1
  Cr  Cr27  1  0.16590435  0.16800504  0.49960689  1
  Ni  Ni28  1  0.99868084  0.99820379  0.66731857  1
  Ni  Ni29  1  0.16810418  0.16800653  0.83456628  1
  Ni  Ni30  1  0.16779166  0.50075845  0.50139713  1
  Ni  Ni31  1  0.00290887  0.33303800  0.66678237  1
  Ni  Ni32  1  0.16797391  0.49900568  0.83237625  1
  Ni  Ni33  1  0.16486115  0.83167593  0.49997561  1
  Ni  Ni34  1  0.00168088  0.66899553  0.66679218  1
  Ni  Ni35  1  0.16528377  0.83323270  0.83358134  1
  Ni  Ni36  1  0.50173032  0.16705144  0.49821641  1
  Cr  Cr37  1  0.33345960  0.99908473  0.66692493  1
  Ni  Ni38  1  0.49715156  0.16609586  0.83476339  1
  Ni  Ni39  1  0.49858744  0.50021377  0.50068019  1
  Ni  Ni40  1  0.33300260  0.33598392  0.66831109  1
  Ni  Ni41  1  0.49654276  0.50021416  0.83120861  1
  Ni  Ni42  1  0.50226456  0.83297816  0.49994544  1
  Ni  Ni43  1  0.33354193  0.66535932  0.66703579  1
  Ni  Ni44  1  0.50117362  0.83394188  0.83302542  1
  Ni  Ni45  1  0.83259746  0.16411552  0.49923189  1
  Fe  Fe46  1  0.66765432  0.99755784  0.66592005  1
  Cr  Cr47  1  0.83528636  0.16374143  0.83300168  1
  Cr  Cr48  1  0.83428843  0.50107620  0.49862416  1
  Cr  Cr49  1  0.66460332  0.33247888  0.66593531  1
  Cr  Cr50  1  0.83554006  0.50277977  0.83338410  1
  Ni  Ni51  1  0.83312155  0.83484551  0.50079963  1
  Ni  Ni52  1  0.66502468  0.66956899  0.66706358  1
  Ni  Ni53  1  0.83378979  0.83381518  0.83223459  1
" 