5690,Ni72Fe5Cr21_3,-231.566335623072, 163.838818304578,Ni72Fe5Cr21,"# generated using pymatgen
 data_Cr4FeNi13
_symmetry_space_group_name_H-M   'P 1'
_cell_length_a   7.46795023
_cell_length_b   7.46795023
_cell_length_c   10.56127650
_cell_angle_alpha   90.00000000
_cell_angle_beta   90.00000000
_cell_angle_gamma   90.00000000
_symmetry_Int_Tables_number   1
_chemical_formula_structural   Cr4FeNi13
_chemical_formula_sum   'Cr12 Fe3 Ni39'
_cell_volume   589.00535472
_cell_formula_units_Z   3
loop_
 _symmetry_equiv_pos_site_id
 _symmetry_equiv_pos_as_xyz
  1  'x, y, z'
loop_
 _atom_site_type_symbol
 _atom_site_label
 _atom_site_symmetry_multiplicity
 _atom_site_fract_x
 _atom_site_fract_y
 _atom_site_fract_z
 _atom_site_occupancy
  Ni  Ni0  1  0.00100029  0.00148508  0.99980083  1
  Ni  Ni1  1  0.16670390  0.16684175  0.16490278  1
  Cr  Cr2  1  0.00046121  0.99900268  0.33465722  1
  Ni  Ni3  1  0.00013575  0.33119016  0.00098271  1
  Ni  Ni4  1  0.16493475  0.49871076  0.16491991  1
  Ni  Ni5  1  0.99654023  0.33409824  0.33144685  1
  Fe  Fe6  1  0.00087084  0.66757269  0.00207804  1
  Ni  Ni7  1  0.16654578  0.83441487  0.16511836  1
  Ni  Ni8  1  0.99754124  0.66653586  0.33177659  1
  Ni  Ni9  1  0.33265988  0.99933127  0.00023335  1
  Fe  Fe10  1  0.49971248  0.16518668  0.16605414  1
  Ni  Ni11  1  0.33456353  0.99978753  0.33139989  1
  Ni  Ni12  1  0.33249888  0.33277565  0.00048413  1
  Ni  Ni13  1  0.50048698  0.50032412  0.16686047  1
  Cr  Cr14  1  0.33530416  0.33184158  0.33165014  1
  Ni  Ni15  1  0.33325591  0.66763916  0.00063234  1
  Ni  Ni16  1  0.50099746  0.83513889  0.16632259  1
  Cr  Cr17  1  0.33325101  0.66872738  0.33195308  1
  Ni  Ni18  1  0.66625010  0.00025584  0.00090819  1
  Fe  Fe19  1  0.83399390  0.16616005  0.16640477  1
  Ni  Ni20  1  0.66645909  0.00071756  0.33161236  1
  Cr  Cr21  1  0.66632897  0.33242607  0.99894724  1
  Ni  Ni22  1  0.83435982  0.49999609  0.16831286  1
  Ni  Ni23  1  0.66819328  0.33349810  0.33354019  1
  Cr  Cr24  1  0.66417638  0.66674102  0.99966724  1
  Ni  Ni25  1  0.83234818  0.83340790  0.16696776  1
  Ni  Ni26  1  0.66855533  0.66578602  0.33289380  1
  Cr  Cr27  1  0.16885736  0.16539099  0.50158204  1
  Ni  Ni28  1  0.99979479  0.99984379  0.66666797  1
  Ni  Ni29  1  0.16765063  0.16462081  0.83404123  1
  Cr  Cr30  1  0.16690326  0.50023425  0.49892802  1
  Cr  Cr31  1  0.99641525  0.32999969  0.66720132  1
  Cr  Cr32  1  0.16785634  0.49888294  0.83599195  1
  Ni  Ni33  1  0.16615725  0.83451493  0.50076463  1
  Cr  Cr34  1  0.99908151  0.66939954  0.66565971  1
  Ni  Ni35  1  0.16917368  0.83635283  0.83410307  1
  Ni  Ni36  1  0.50280889  0.16680538  0.49987094  1
  Ni  Ni37  1  0.33322460  0.99967102  0.66813494  1
  Ni  Ni38  1  0.49909067  0.16524518  0.83307730  1
  Ni  Ni39  1  0.50390343  0.49818713  0.50186212  1
  Ni  Ni40  1  0.33786417  0.33217851  0.66800274  1
  Ni  Ni41  1  0.49963784  0.49975461  0.83112409  1
  Cr  Cr42  1  0.50149680  0.83490032  0.50057978  1
  Ni  Ni43  1  0.33577268  0.66788997  0.66776538  1
  Ni  Ni44  1  0.49827402  0.83473438  0.83296477  1
  Ni  Ni45  1  0.82967265  0.16636268  0.49952717  1
  Ni  Ni46  1  0.66678418  0.00192383  0.66708116  1
  Ni  Ni47  1  0.83309666  0.16597063  0.83383947  1
  Ni  Ni48  1  0.82975824  0.49994130  0.49775093  1
  Ni  Ni49  1  0.66496135  0.33288936  0.66667077  1
  Ni  Ni50  1  0.83158805  0.49797596  0.83318873  1
  Ni  Ni51  1  0.83197485  0.83348469  0.49951808  1
  Ni  Ni52  1  0.66491393  0.66487337  0.66662438  1
  Cr  Cr53  1  0.83189422  0.83511558  0.83368605  1
" 