3109,Ni72Fe7Cr20_13,-231.60759705183, 165.58344813521,Ni72Fe7Cr20,"# generated using pymatgen
 data_Cr4FeNi13
_symmetry_space_group_name_H-M   'P 1'
_cell_length_a   7.46588385
_cell_length_b   7.46588385
_cell_length_c   10.55835419
_cell_angle_alpha   90.00000000
_cell_angle_beta   90.00000000
_cell_angle_gamma   90.00000000
_symmetry_Int_Tables_number   1
_chemical_formula_structural   Cr4FeNi13
_chemical_formula_sum   'Cr12 Fe3 Ni39'
_cell_volume   588.51655558
_cell_formula_units_Z   3
loop_
 _symmetry_equiv_pos_site_id
 _symmetry_equiv_pos_as_xyz
  1  'x, y, z'
loop_
 _atom_site_type_symbol
 _atom_site_label
 _atom_site_symmetry_multiplicity
 _atom_site_fract_x
 _atom_site_fract_y
 _atom_site_fract_z
 _atom_site_occupancy
  Ni  Ni0  1  0.99894186  0.00174179  0.99894745  1
  Ni  Ni1  1  0.16793680  0.16847154  0.16637430  1
  Ni  Ni2  1  0.00068865  0.00203803  0.33563319  1
  Ni  Ni3  1  0.99934159  0.33351998  1.00000092  1
  Ni  Ni4  1  0.16556267  0.49655975  0.16686275  1
  Ni  Ni5  1  0.99907698  0.33223376  0.33343742  1
  Fe  Fe6  1  0.99607998  0.66584404  0.00098976  1
  Cr  Cr7  1  0.16614183  0.83631621  0.16649382  1
  Cr  Cr8  1  0.99863744  0.66618983  0.33227660  1
  Ni  Ni9  1  0.33549698  0.00298881  0.00033333  1
  Ni  Ni10  1  0.49866204  0.16502352  0.16654354  1
  Ni  Ni11  1  0.33464098  1.00001392  0.33329365  1
  Ni  Ni12  1  0.33338853  0.33045401  0.00041116  1
  Cr  Cr13  1  0.50123222  0.49836211  0.16865771  1
  Fe  Fe14  1  0.33282868  0.32975658  0.33262852  1
  Cr  Cr15  1  0.33502101  0.66749492  0.99987358  1
  Ni  Ni16  1  0.50258088  0.83573130  0.16796487  1
  Ni  Ni17  1  0.33490048  0.66984610  0.33408046  1
  Ni  Ni18  1  0.66564909  0.99972830  0.99919125  1
  Cr  Cr19  1  0.83271845  0.16546156  0.16729125  1
  Ni  Ni20  1  0.66485564  0.99954507  0.33431722  1
  Ni  Ni21  1  0.66737943  0.33311416  0.99828244  1
  Ni  Ni22  1  0.83401673  0.50044142  0.16579652  1
  Ni  Ni23  1  0.66883925  0.33250722  0.33413427  1
  Fe  Fe24  1  0.66876290  0.66745445  0.99938776  1
  Ni  Ni25  1  0.83063208  0.83308313  0.16561438  1
  Ni  Ni26  1  0.66660223  0.66810878  0.33290494  1
  Ni  Ni27  1  0.16512912  0.16558620  0.49951230  1
  Ni  Ni28  1  0.99769637  0.00285566  0.66564481  1
  Ni  Ni29  1  0.16542087  0.16783470  0.83454187  1
  Cr  Cr30  1  0.16804126  0.49851592  0.50071609  1
  Ni  Ni31  1  0.99949045  0.33020986  0.66682540  1
  Cr  Cr32  1  0.16773233  0.49672296  0.83245858  1
  Ni  Ni33  1  0.16759594  0.83629584  0.49940308  1
  Cr  Cr34  1  0.99715867  0.66752757  0.66560123  1
  Cr  Cr35  1  0.16526178  0.83671742  0.83330669  1
  Ni  Ni36  1  0.50057997  0.16480273  0.49786071  1
  Cr  Cr37  1  0.33507030  0.00096395  0.66678230  1
  Ni  Ni38  1  0.50048795  0.16703888  0.83593019  1
  Cr  Cr39  1  0.50092072  0.50113968  0.49998543  1
  Ni  Ni40  1  0.33284457  0.33215802  0.66801633  1
  Ni  Ni41  1  0.50155662  0.49990015  0.83266921  1
  Ni  Ni42  1  0.50138426  0.83390125  0.49920558  1
  Ni  Ni43  1  0.33706157  0.66744561  0.66631140  1
  Ni  Ni44  1  0.50392614  0.83331465  0.83312499  1
  Ni  Ni45  1  0.83444330  0.16516386  0.49955478  1
  Ni  Ni46  1  0.66817217  0.99832292  0.66669935  1
  Ni  Ni47  1  0.83429389  0.16534318  0.83359266  1
  Ni  Ni48  1  0.83226380  0.49903550  0.49888659  1
  Cr  Cr49  1  0.66827816  0.33148471  0.66787847  1
  Ni  Ni50  1  0.83125082  0.49978802  0.83537161  1
  Ni  Ni51  1  0.83132715  0.83603286  0.50005199  1
  Ni  Ni52  1  0.66588613  0.66887131  0.66817155  1
  Ni  Ni53  1  0.83031898  0.83520498  0.83438244  1
" 