4522,Ni72Fe2Cr25_1,-228.651497541325, 152.422761995972,Ni72Fe2Cr25,"# generated using pymatgen
 data_Cr15FeNi38
_symmetry_space_group_name_H-M   'P 1'
_cell_length_a   7.47999753
_cell_length_b   7.47999753
_cell_length_c   10.57831395
_cell_angle_alpha   90.00000000
_cell_angle_beta   90.00000000
_cell_angle_gamma   90.00000000
_symmetry_Int_Tables_number   1
_chemical_formula_structural   Cr15FeNi38
_chemical_formula_sum   'Cr15 Fe1 Ni38'
_cell_volume   591.86050504
_cell_formula_units_Z   1
loop_
 _symmetry_equiv_pos_site_id
 _symmetry_equiv_pos_as_xyz
  1  'x, y, z'
loop_
 _atom_site_type_symbol
 _atom_site_label
 _atom_site_symmetry_multiplicity
 _atom_site_fract_x
 _atom_site_fract_y
 _atom_site_fract_z
 _atom_site_occupancy
  Ni  Ni0  1  0.00021629  -0.00011084  0.99736238  1
  Cr  Cr1  1  0.16862004  0.16851343  0.16498307  1
  Cr  Cr2  1  0.99809930  0.99812173  0.33512183  1
  Ni  Ni3  1  -0.00033350  0.33372184  0.99848318  1
  Ni  Ni4  1  0.16613354  0.49727323  0.16618495  1
  Ni  Ni5  1  0.00042104  0.33601956  0.33434549  1
  Cr  Cr6  1  -0.00068655  0.66436829  0.00006290  1
  Cr  Cr7  1  0.16684941  0.83116464  0.16479282  1
  Ni  Ni8  1  0.99649190  0.66309937  0.33339045  1
  Ni  Ni9  1  0.33480950  0.99903814  0.99763879  1
  Ni  Ni10  1  0.49815485  0.16506472  0.16489158  1
  Ni  Ni11  1  0.33517733  -0.00018099  0.33319414  1
  Ni  Ni12  1  0.33389317  0.33317637  0.99818258  1
  Ni  Ni13  1  0.49865723  0.49913079  0.16372435  1
  Ni  Ni14  1  0.33103899  0.33264582  0.33291535  1
  Ni  Ni15  1  0.33513325  0.66522773  0.99796946  1
  Ni  Ni16  1  0.50182481  0.83317648  0.16472652  1
  Cr  Cr17  1  0.33362284  0.66585873  0.33296883  1
  Ni  Ni18  1  0.66265261  0.99861436  0.00041685  1
  Cr  Cr19  1  0.83111366  0.16553924  0.16374320  1
  Ni  Ni20  1  0.66391347  0.99573007  0.33244945  1
  Ni  Ni21  1  0.66398433  0.33403590  0.99904886  1
  Ni  Ni22  1  0.83248397  0.50087318  0.16545801  1
  Cr  Cr23  1  0.66614999  0.33379878  0.33163191  1
  Ni  Ni24  1  0.66298335  0.66464577  -0.00018129  1
  Ni  Ni25  1  0.82865495  0.83058377  0.16584546  1
  Ni  Ni26  1  0.66741261  0.66724174  0.33269877  1
  Ni  Ni27  1  0.16514006  0.16713283  0.49910465  1
  Ni  Ni28  1  -0.00068575  0.99902905  0.66415723  1
  Fe  Fe29  1  0.16785855  0.16651105  0.83393962  1
  Ni  Ni30  1  0.16603451  0.49721445  0.49688603  1
  Cr  Cr31  1  0.00065913  0.33197436  0.66494753  1
  Ni  Ni32  1  0.16824463  0.49783636  0.83454007  1
  Ni  Ni33  1  0.16468940  0.83308376  0.49849997  1
  Cr  Cr34  1  -0.00081253  0.66630889  0.66466265  1
  Ni  Ni35  1  0.16750358  0.83351445  0.83428482  1
  Cr  Cr36  1  0.49832520  0.16567980  0.49776235  1
  Cr  Cr37  1  0.33154010  -0.00082231  0.66656910  1
  Ni  Ni38  1  0.49784012  0.16607437  0.83453039  1
  Ni  Ni39  1  0.49861546  0.50095863  0.49983805  1
  Ni  Ni40  1  0.33182865  0.33318214  0.66639165  1
  Ni  Ni41  1  0.49822689  0.49882694  0.83366375  1
  Ni  Ni42  1  0.50208463  0.83158164  0.49848507  1
  Cr  Cr43  1  0.33395739  0.66463470  0.66648081  1
  Ni  Ni44  1  0.49887247  0.83249357  0.83415553  1
  Ni  Ni45  1  0.83433092  0.16371580  0.49944229  1
  Ni  Ni46  1  0.66625516  0.99694419  0.66442284  1
  Cr  Cr47  1  0.83140132  0.16509908  0.83389851  1
  Ni  Ni48  1  0.83264550  0.50132946  0.49752736  1
  Cr  Cr49  1  0.66421252  0.33445745  0.66609263  1
  Ni  Ni50  1  0.83090138  0.49884054  0.83449792  1
  Ni  Ni51  1  0.83073050  0.83232087  0.49936847  1
  Ni  Ni52  1  0.66478413  0.66644613  0.66491372  1
  Cr  Cr53  1  0.83059930  0.83251560  0.83214278  1
" 