1441,Ni72Fe14Cr12_12,-235.840016303243, 186.36174865275,Ni72Fe14Cr12,"# generated using pymatgen
 data_Cr4Fe4Ni19
_symmetry_space_group_name_H-M   'P 1'
_cell_length_a   7.44382074
_cell_length_b   7.44382074
_cell_length_c   10.52715225
_cell_angle_alpha   90.00000000
_cell_angle_beta   90.00000000
_cell_angle_gamma   90.00000000
_symmetry_Int_Tables_number   1
_chemical_formula_structural   Cr4Fe4Ni19
_chemical_formula_sum   'Cr8 Fe8 Ni38'
_cell_volume   583.31442416
_cell_formula_units_Z   2
loop_
 _symmetry_equiv_pos_site_id
 _symmetry_equiv_pos_as_xyz
  1  'x, y, z'
loop_
 _atom_site_type_symbol
 _atom_site_label
 _atom_site_symmetry_multiplicity
 _atom_site_fract_x
 _atom_site_fract_y
 _atom_site_fract_z
 _atom_site_occupancy
  Fe  Fe0  1  0.00352075  0.00241625  0.00183568  1
  Ni  Ni1  1  0.16774977  0.16815551  0.16772824  1
  Ni  Ni2  1  0.00177665  0.00570638  0.33411242  1
  Ni  Ni3  1  0.00162805  0.33474150  1.00118080  1
  Fe  Fe4  1  0.16741158  0.50087091  0.16830014  1
  Ni  Ni5  1  1.00147752  0.33315110  0.33458952  1
  Ni  Ni6  1  0.00346005  0.66492365  0.00354712  1
  Ni  Ni7  1  0.16978964  0.83467077  0.16847765  1
  Fe  Fe8  1  1.00082498  0.66568041  0.33463315  1
  Ni  Ni9  1  0.33335728  0.99992804  0.00242049  1
  Cr  Cr10  1  0.50198245  0.16988028  0.16951562  1
  Fe  Fe11  1  0.33451885  0.00223840  0.33385690  1
  Ni  Ni12  1  0.33224779  0.33635592  0.00248625  1
  Fe  Fe13  1  0.50084310  0.50218432  0.16678143  1
  Fe  Fe14  1  0.33428697  0.33537016  0.33613834  1
  Ni  Ni15  1  0.33420395  0.66864826  1.00106272  1
  Ni  Ni16  1  0.49943488  0.83521515  0.16586258  1
  Ni  Ni17  1  0.33319222  0.66686149  0.33240155  1
  Ni  Ni18  1  0.66762130  0.00175830  0.00172503  1
  Ni  Ni19  1  0.83606928  0.17056089  0.16621991  1
  Ni  Ni20  1  0.67052524  0.00376779  0.33612246  1
  Ni  Ni21  1  0.67101362  0.33659806  0.00234790  1
  Ni  Ni22  1  0.83547756  0.49920293  0.16692543  1
  Ni  Ni23  1  0.67167587  0.33390691  0.33556191  1
  Ni  Ni24  1  0.66653354  0.66680082  0.00209699  1
  Cr  Cr25  1  0.83622736  0.83429455  0.16848600  1
  Cr  Cr26  1  0.66572221  0.66608282  0.33491336  1
  Ni  Ni27  1  0.16774120  0.17071734  0.50078729  1
  Ni  Ni28  1  1.00046843  0.00410166  0.66885261  1
  Ni  Ni29  1  0.16835056  0.16945838  0.83636843  1
  Ni  Ni30  1  0.16810540  0.49982616  0.50104725  1
  Ni  Ni31  1  0.00220977  0.33499134  0.66851493  1
  Ni  Ni32  1  0.16781166  0.50139420  0.83494954  1
  Cr  Cr33  1  0.16403153  0.83322527  0.50061489  1
  Ni  Ni34  1  0.00193399  0.66614052  0.66629227  1
  Ni  Ni35  1  0.16681926  0.83365265  0.83627380  1
  Ni  Ni36  1  0.50282740  0.17181535  0.50007073  1
  Cr  Cr37  1  0.33307746  0.00263096  0.66893205  1
  Cr  Cr38  1  0.50197464  0.17173984  0.83523321  1
  Ni  Ni39  1  0.50067474  0.49841182  0.50230039  1
  Ni  Ni40  1  0.33321680  0.33767382  0.66622336  1
  Ni  Ni41  1  0.50182970  0.50087706  0.83571568  1
  Cr  Cr42  1  0.50248051  0.83527184  0.50337348  1
  Ni  Ni43  1  0.33443356  0.66444155  0.67119907  1
  Fe  Fe44  1  0.50041181  0.83256697  0.83605576  1
  Ni  Ni45  1  0.83495938  0.16867451  0.50226852  1
  Ni  Ni46  1  0.67125648  0.00269996  0.66635491  1
  Fe  Fe47  1  0.83678082  0.17093117  0.83490626  1
  Ni  Ni48  1  0.83576660  0.50075630  0.50271270  1
  Ni  Ni49  1  0.66981754  0.33639079  0.66658809  1
  Ni  Ni50  1  0.83498440  0.50170774  0.83504174  1
  Ni  Ni51  1  0.83578384  0.83537721  0.50177964  1
  Ni  Ni52  1  0.66785522  0.66612786  0.66804500  1
  Cr  Cr53  1  0.83607263  0.83267394  0.83441662  1
" 