4207,Ni72Fe5Cr21_14,-231.585685019914, 166.370072522356,Ni72Fe5Cr21,"# generated using pymatgen
 data_Cr4FeNi13
_symmetry_space_group_name_H-M   'P 1'
_cell_length_a   7.46488977
_cell_length_b   7.46488977
_cell_length_c   10.55694836
_cell_angle_alpha   90.00000000
_cell_angle_beta   90.00000000
_cell_angle_gamma   90.00000000
_symmetry_Int_Tables_number   1
_chemical_formula_structural   Cr4FeNi13
_chemical_formula_sum   'Cr12 Fe3 Ni39'
_cell_volume   588.28150593
_cell_formula_units_Z   3
loop_
 _symmetry_equiv_pos_site_id
 _symmetry_equiv_pos_as_xyz
  1  'x, y, z'
loop_
 _atom_site_type_symbol
 _atom_site_label
 _atom_site_symmetry_multiplicity
 _atom_site_fract_x
 _atom_site_fract_y
 _atom_site_fract_z
 _atom_site_occupancy
  Ni  Ni0  1  0.00017190  0.00123139  0.99749591  1
  Ni  Ni1  1  0.16674299  0.16787256  0.16500719  1
  Ni  Ni2  1  0.00093842  0.00261053  0.33537890  1
  Cr  Cr3  1  0.99673523  0.33319497  0.00239278  1
  Ni  Ni4  1  0.16923122  0.50013652  0.16774049  1
  Cr  Cr5  1  0.99897531  0.33389950  0.33182395  1
  Ni  Ni6  1  0.99862795  0.66722638  0.99904375  1
  Cr  Cr7  1  0.16553836  0.83127555  0.16616450  1
  Ni  Ni8  1  0.00055258  0.66507971  0.33501225  1
  Ni  Ni9  1  0.33272181  0.99767839  0.99900125  1
  Cr  Cr10  1  0.50043639  0.16886249  0.16520792  1
  Cr  Cr11  1  0.33241760  0.99923418  0.33355741  1
  Ni  Ni12  1  0.33403473  0.33493082  0.00097722  1
  Ni  Ni13  1  0.49992458  0.50042952  0.16693995  1
  Ni  Ni14  1  0.33474414  0.33558460  0.33525685  1
  Ni  Ni15  1  0.33678779  0.66774887  0.00060497  1
  Ni  Ni16  1  0.50178530  0.83055617  0.16570541  1
  Ni  Ni17  1  0.33503370  0.66397924  0.33372856  1
  Ni  Ni18  1  0.66750081  0.99871551  0.99973174  1
  Ni  Ni19  1  0.83254623  0.16599553  0.16770366  1
  Fe  Fe20  1  0.66753727  0.00167379  0.33321446  1
  Ni  Ni21  1  0.66775439  0.33629119  1.00006390  1
  Ni  Ni22  1  0.83132947  0.50127909  0.16662833  1
  Ni  Ni23  1  0.66676739  0.33608490  0.33446147  1
  Ni  Ni24  1  0.66496059  0.66538904  0.99886844  1
  Cr  Cr25  1  0.83264462  0.83277993  0.16772023  1
  Ni  Ni26  1  0.66484636  0.66151752  0.33219052  1
  Ni  Ni27  1  0.16829208  0.16759803  0.50045290  1
  Ni  Ni28  1  0.00033023  0.00018580  0.66779581  1
  Ni  Ni29  1  0.16590522  0.16430912  0.83554403  1
  Ni  Ni30  1  0.16823166  0.50169012  0.49947869  1
  Cr  Cr31  1  0.99750375  0.33291796  0.66631835  1
  Cr  Cr32  1  0.16942394  0.50128204  0.83367040  1
  Ni  Ni33  1  0.16401928  0.83159437  0.50038358  1
  Ni  Ni34  1  1.00006387  0.66774091  0.66645531  1
  Ni  Ni35  1  0.16466623  0.83328975  0.83374362  1
  Ni  Ni36  1  0.50183995  0.17133068  0.50026477  1
  Cr  Cr37  1  0.33226056  0.99748017  0.66758734  1
  Cr  Cr38  1  0.50040192  0.17029791  0.83452483  1
  Ni  Ni39  1  0.50050069  0.49719570  0.50076331  1
  Fe  Fe40  1  0.33461528  0.33503597  0.66517634  1
  Ni  Ni41  1  0.50204045  0.50140326  0.83298099  1
  Cr  Cr42  1  0.50286367  0.83146698  0.49885669  1
  Ni  Ni43  1  0.33467190  0.66675280  0.66584517  1
  Ni  Ni44  1  0.50202102  0.83174495  0.83498917  1
  Fe  Fe45  1  0.83200776  0.16747979  0.50032815  1
  Ni  Ni46  1  0.66834836  0.00125818  0.66676977  1
  Ni  Ni47  1  0.83223392  0.16447412  0.83280659  1
  Ni  Ni48  1  0.83172479  0.50179800  0.50018741  1
  Ni  Ni49  1  0.66732107  0.33560982  0.66587070  1
  Ni  Ni50  1  0.83031829  0.50265119  0.83350107  1
  Cr  Cr51  1  0.83540278  0.83206869  0.49977986  1
  Ni  Ni52  1  0.66576575  0.66434840  0.66923577  1
  Ni  Ni53  1  0.83374320  0.83354218  0.83287211  1
" 