8039,Ni72Fe7Cr20_17,-231.787427531331, 166.142240858295,Ni72Fe7Cr20,"# generated using pymatgen
 data_Cr4FeNi13
_symmetry_space_group_name_H-M   'P 1'
_cell_length_a   7.46725991
_cell_length_b   7.46725991
_cell_length_c   10.56030024
_cell_angle_alpha   90.00000000
_cell_angle_beta   90.00000000
_cell_angle_gamma   90.00000000
_symmetry_Int_Tables_number   1
_chemical_formula_structural   Cr4FeNi13
_chemical_formula_sum   'Cr12 Fe3 Ni39'
_cell_volume   588.84203013
_cell_formula_units_Z   3
loop_
 _symmetry_equiv_pos_site_id
 _symmetry_equiv_pos_as_xyz
  1  'x, y, z'
loop_
 _atom_site_type_symbol
 _atom_site_label
 _atom_site_symmetry_multiplicity
 _atom_site_fract_x
 _atom_site_fract_y
 _atom_site_fract_z
 _atom_site_occupancy
  Ni  Ni0  1  0.00102421  0.99723101  0.99700539  1
  Cr  Cr1  1  0.16779761  0.16588322  0.16431530  1
  Cr  Cr2  1  0.00161226  0.99608312  0.33514572  1
  Ni  Ni3  1  0.00107265  0.33503377  0.99817376  1
  Ni  Ni4  1  0.16552055  0.50323608  0.16538082  1
  Ni  Ni5  1  0.99747701  0.33575412  0.33148471  1
  Ni  Ni6  1  0.00009499  0.66744714  0.99978563  1
  Ni  Ni7  1  0.16763706  0.83033806  0.16620831  1
  Ni  Ni8  1  0.00033153  0.66757717  0.33139747  1
  Ni  Ni9  1  0.33154734  0.99693259  0.00058800  1
  Ni  Ni10  1  0.49881845  0.16555633  0.16554158  1
  Ni  Ni11  1  0.33485334  0.99584665  0.33368775  1
  Ni  Ni12  1  0.33166535  0.33525358  0.99922071  1
  Ni  Ni13  1  0.50018962  0.50250187  0.16671540  1
  Cr  Cr14  1  0.33542541  0.33536708  0.33148748  1
  Ni  Ni15  1  0.33328570  0.66721034  0.99986696  1
  Ni  Ni16  1  0.49915613  0.83179115  0.16507312  1
  Ni  Ni17  1  0.33378569  0.66965394  0.33225531  1
  Fe  Fe18  1  0.66684708  0.99706865  0.99972353  1
  Cr  Cr19  1  0.83308775  0.16692285  0.16518327  1
  Cr  Cr20  1  0.66517092  0.99871845  0.33386295  1
  Cr  Cr21  1  0.66636272  0.33793167  0.99894448  1
  Ni  Ni22  1  0.83376244  0.50309745  0.16796278  1
  Ni  Ni23  1  0.66641809  0.33503705  0.33420929  1
  Ni  Ni24  1  0.66667896  0.66830473  0.99915617  1
  Ni  Ni25  1  0.83323741  0.82902904  0.16443484  1
  Ni  Ni26  1  0.66579819  0.66636059  0.33289791  1
  Cr  Cr27  1  0.16698942  0.16624381  0.50181161  1
  Fe  Fe28  1  0.00116684  0.99795477  0.66823495  1
  Ni  Ni29  1  0.16534740  0.16642424  0.83352480  1
  Cr  Cr30  1  0.16737250  0.50292435  0.50026224  1
  Ni  Ni31  1  0.00040366  0.33227359  0.67023213  1
  Ni  Ni32  1  0.16666658  0.50028089  0.83378309  1
  Ni  Ni33  1  0.16822916  0.83235966  0.50086604  1
  Fe  Fe34  1  0.00088957  0.66756368  0.66875934  1
  Ni  Ni35  1  0.16732939  0.83286515  0.83299516  1
  Ni  Ni36  1  0.49942014  0.16612824  0.49962868  1
  Ni  Ni37  1  0.33187542  0.99713280  0.66597770  1
  Cr  Cr38  1  0.49641278  0.16411357  0.83574582  1
  Ni  Ni39  1  0.49995655  0.50281591  0.50064643  1
  Ni  Ni40  1  0.33148316  0.33465053  0.66869121  1
  Ni  Ni41  1  0.49822761  0.50379986  0.83244986  1
  Ni  Ni42  1  0.49883153  0.83126087  0.50025657  1
  Ni  Ni43  1  0.33415972  0.66832037  0.66788718  1
  Ni  Ni44  1  0.49925988  0.83011125  0.83465739  1
  Ni  Ni45  1  0.83356345  0.16688164  0.50022822  1
  Cr  Cr46  1  0.66762945  0.99734768  0.66676014  1
  Ni  Ni47  1  0.83741431  0.16584813  0.83442188  1
  Cr  Cr48  1  0.83328438  0.50174078  0.49814275  1
  Cr  Cr49  1  0.66624057  0.33554370  0.66662898  1
  Ni  Ni50  1  0.83519357  0.50227292  0.83325099  1
  Ni  Ni51  1  0.83375231  0.83183308  0.50122988  1
  Ni  Ni52  1  0.66569174  0.66808970  0.66787509  1
  Ni  Ni53  1  0.83378280  0.83128347  0.83457561  1
" 