6864,Ni72Fe14Cr12_6,-235.623262160803, 184.727442718888,Ni72Fe14Cr12,"# generated using pymatgen
 data_Cr4Fe4Ni19
_symmetry_space_group_name_H-M   'P 1'
_cell_length_a   7.44398889
_cell_length_b   7.44398889
_cell_length_c   10.52739005
_cell_angle_alpha   90.00000000
_cell_angle_beta   90.00000000
_cell_angle_gamma   90.00000000
_symmetry_Int_Tables_number   1
_chemical_formula_structural   Cr4Fe4Ni19
_chemical_formula_sum   'Cr8 Fe8 Ni38'
_cell_volume   583.35395488
_cell_formula_units_Z   2
loop_
 _symmetry_equiv_pos_site_id
 _symmetry_equiv_pos_as_xyz
  1  'x, y, z'
loop_
 _atom_site_type_symbol
 _atom_site_label
 _atom_site_symmetry_multiplicity
 _atom_site_fract_x
 _atom_site_fract_y
 _atom_site_fract_z
 _atom_site_occupancy
  Fe  Fe0  1  1.00125834  0.00469559  0.00292577  1
  Ni  Ni1  1  0.16785869  0.16679463  0.16841768  1
  Ni  Ni2  1  0.00221037  0.00186539  0.33429201  1
  Ni  Ni3  1  1.00049210  0.33279189  1.00075171  1
  Cr  Cr4  1  0.16780452  0.49903108  0.17087469  1
  Ni  Ni5  1  0.99903574  0.33258596  0.33521989  1
  Cr  Cr6  1  0.99988395  0.66652304  0.00192698  1
  Ni  Ni7  1  0.16771229  0.83849793  0.16985769  1
  Ni  Ni8  1  0.99937537  0.67009718  0.33502440  1
  Ni  Ni9  1  0.33624799  0.00403958  0.00221090  1
  Ni  Ni10  1  0.50193643  0.16671840  0.16761074  1
  Ni  Ni11  1  0.33446783  0.00175522  0.33478077  1
  Ni  Ni12  1  0.33494018  0.33062737  1.00004506  1
  Cr  Cr13  1  0.50331628  0.49940474  0.17030350  1
  Ni  Ni14  1  0.33624846  0.33090008  0.33528376  1
  Cr  Cr15  1  0.33711710  0.66915369  1.00110456  1
  Ni  Ni16  1  0.50295924  0.83780071  0.16926259  1
  Ni  Ni17  1  0.33615532  0.67179787  0.33560960  1
  Ni  Ni18  1  0.66627145  0.00262865  0.00254714  1
  Fe  Fe19  1  0.83436179  0.16822674  0.16769567  1
  Fe  Fe20  1  0.66754745  0.00198563  0.33550684  1
  Ni  Ni21  1  0.66927702  0.33378678  1.00057949  1
  Fe  Fe22  1  0.83406989  0.49995384  0.16927449  1
  Ni  Ni23  1  0.66912816  0.33416011  0.33562952  1
  Ni  Ni24  1  0.66852442  0.66840546  0.00170806  1
  Fe  Fe25  1  0.83346422  0.83646136  0.16953233  1
  Ni  Ni26  1  0.66898638  0.66841531  0.33537572  1
  Fe  Fe27  1  0.16999299  0.16783227  0.50069871  1
  Cr  Cr28  1  1.00148149  0.00366233  0.66651942  1
  Ni  Ni29  1  0.16809623  0.17092623  0.83577712  1
  Cr  Cr30  1  0.16880070  0.50133845  0.50095677  1
  Ni  Ni31  1  1.00023956  0.33571141  0.66921671  1
  Ni  Ni32  1  0.16824422  0.49751752  0.83321682  1
  Ni  Ni33  1  0.16821899  0.83570508  0.50043267  1
  Ni  Ni34  1  1.00031933  0.66604044  0.66723772  1
  Cr  Cr35  1  0.17017775  0.83652823  0.83356925  1
  Ni  Ni36  1  0.50219557  0.16843253  0.50162674  1
  Ni  Ni37  1  0.33718303  0.00232375  0.66762736  1
  Fe  Fe38  1  0.50218228  0.16813845  0.83462294  1
  Ni  Ni39  1  0.50338914  0.50041758  0.50084150  1
  Ni  Ni40  1  0.33605682  0.33368805  0.66938424  1
  Ni  Ni41  1  0.50282119  0.50057435  0.83418801  1
  Ni  Ni42  1  0.50221196  0.83586445  0.50151937  1
  Ni  Ni43  1  0.33710123  0.66846335  0.66801774  1
  Ni  Ni44  1  0.50307276  0.83600801  0.83413778  1
  Fe  Fe45  1  0.83318274  0.16890617  0.50151884  1
  Ni  Ni46  1  0.66578814  0.00254764  0.66682136  1
  Ni  Ni47  1  0.83407259  0.17037265  0.83549535  1
  Ni  Ni48  1  0.83372177  0.50142329  0.50133246  1
  Ni  Ni49  1  0.66849368  0.33501582  0.66844527  1
  Ni  Ni50  1  0.83361913  0.49889136  0.83446374  1
  Ni  Ni51  1  0.83415389  0.83447404  0.50068113  1
  Ni  Ni52  1  0.66730332  0.66719224  0.66771537  1
  Cr  Cr53  1  0.83086451  0.83653607  0.83422002  1
" 