3180,Ni72Fe5Cr21_8,-231.553675025488, 164.252926519767,Ni72Fe5Cr21,"# generated using pymatgen
 data_Cr4FeNi13
_symmetry_space_group_name_H-M   'P 1'
_cell_length_a   7.46599557
_cell_length_b   7.46599557
_cell_length_c   10.55851220
_cell_angle_alpha   90.00000000
_cell_angle_beta   90.00000000
_cell_angle_gamma   90.00000000
_symmetry_Int_Tables_number   1
_chemical_formula_structural   Cr4FeNi13
_chemical_formula_sum   'Cr12 Fe3 Ni39'
_cell_volume   588.54297738
_cell_formula_units_Z   3
loop_
 _symmetry_equiv_pos_site_id
 _symmetry_equiv_pos_as_xyz
  1  'x, y, z'
loop_
 _atom_site_type_symbol
 _atom_site_label
 _atom_site_symmetry_multiplicity
 _atom_site_fract_x
 _atom_site_fract_y
 _atom_site_fract_z
 _atom_site_occupancy
  Ni  Ni0  1  0.99961582  0.00103482  0.00017662  1
  Ni  Ni1  1  0.16458348  0.16816606  0.16518116  1
  Cr  Cr2  1  0.00068801  0.00272582  0.33368999  1
  Ni  Ni3  1  0.00017690  0.33288426  0.00202364  1
  Ni  Ni4  1  0.16530357  0.49958137  0.16582788  1
  Ni  Ni5  1  0.99960335  0.33271471  0.33210194  1
  Ni  Ni6  1  0.00129338  0.66629119  0.00177826  1
  Ni  Ni7  1  0.16897159  0.83246324  0.16486617  1
  Cr  Cr8  1  0.00257416  0.66484476  0.33279057  1
  Ni  Ni9  1  0.33373716  0.99924353  0.00066371  1
  Cr  Cr10  1  0.50006631  0.16610343  0.16621469  1
  Cr  Cr11  1  0.33293842  0.99961519  0.33284340  1
  Ni  Ni12  1  0.33209715  0.33359852  0.99854891  1
  Cr  Cr13  1  0.50015418  0.50135460  0.16757011  1
  Ni  Ni14  1  0.33287237  0.33527127  0.33539662  1
  Ni  Ni15  1  0.33277347  0.66736876  0.00094718  1
  Ni  Ni16  1  0.49880789  0.83222121  0.16603239  1
  Ni  Ni17  1  0.33411261  0.66550259  0.33366140  1
  Ni  Ni18  1  0.66685780  0.00035972  0.99910378  1
  Ni  Ni19  1  0.83507444  0.16943101  0.16632641  1
  Fe  Fe20  1  0.66639827  0.00216367  0.33334900  1
  Ni  Ni21  1  0.66793735  0.33191995  0.99960373  1
  Ni  Ni22  1  0.83483442  0.49783992  0.16649150  1
  Ni  Ni23  1  0.66773519  0.33339575  0.33455586  1
  Fe  Fe24  1  0.66588993  0.66767885  0.99916575  1
  Cr  Cr25  1  0.83214435  0.83303059  0.16514444  1
  Ni  Ni26  1  0.66409375  0.66497320  0.33209941  1
  Ni  Ni27  1  0.16657227  0.16836388  0.50168370  1
  Ni  Ni28  1  0.99961423  0.00283139  0.66637126  1
  Ni  Ni29  1  0.16681308  0.16767112  0.83334644  1
  Ni  Ni30  1  0.17020837  0.49836103  0.50016032  1
  Ni  Ni31  1  0.00125138  0.32976894  0.66608535  1
  Fe  Fe32  1  0.16943196  0.49741911  0.83435247  1
  Ni  Ni33  1  0.16838317  0.83348539  0.50130605  1
  Cr  Cr34  1  0.00146909  0.66732819  0.66591739  1
  Cr  Cr35  1  0.16715736  0.83525527  0.83364589  1
  Ni  Ni36  1  0.50036914  0.16962669  0.50093923  1
  Ni  Ni37  1  0.33345662  0.00134793  0.66654852  1
  Ni  Ni38  1  0.49977944  0.16713160  0.83318691  1
  Ni  Ni39  1  0.49814334  0.49851074  0.49996342  1
  Ni  Ni40  1  0.33397090  0.33340504  0.66626664  1
  Ni  Ni41  1  0.49933391  0.50019331  0.83267399  1
  Cr  Cr42  1  0.49910234  0.83215690  0.50039408  1
  Ni  Ni43  1  0.33520554  0.66545721  0.66560177  1
  Ni  Ni44  1  0.50170339  0.83288570  0.83362021  1
  Ni  Ni45  1  0.83326957  0.16779979  0.50074247  1
  Ni  Ni46  1  0.66714098  0.00159858  0.66763224  1
  Ni  Ni47  1  0.83361912  0.16530057  0.83314230  1
  Cr  Cr48  1  0.83167646  0.49728804  0.49943553  1
  Ni  Ni49  1  0.66499159  0.33152073  0.66605202  1
  Cr  Cr50  1  0.83222917  0.49952426  0.83427220  1
  Cr  Cr51  1  0.83309440  0.83526633  0.50178556  1
  Ni  Ni52  1  0.66350587  0.66709423  0.66875148  1
  Ni  Ni53  1  0.83097657  0.83543464  0.83377260  1
" 