7809,Ni72Fe9Cr17_18,-232.588656830927, 170.1472395932,Ni72Fe9Cr17,"# generated using pymatgen
 data_Cr11Fe4Ni39
_symmetry_space_group_name_H-M   'P 1'
_cell_length_a   7.46374793
_cell_length_b   7.46374793
_cell_length_c   10.55533355
_cell_angle_alpha   90.00000000
_cell_angle_beta   90.00000000
_cell_angle_gamma   90.00000000
_symmetry_Int_Tables_number   1
_chemical_formula_structural   Cr11Fe4Ni39
_chemical_formula_sum   'Cr11 Fe4 Ni39'
_cell_volume   588.01159447
_cell_formula_units_Z   1
loop_
 _symmetry_equiv_pos_site_id
 _symmetry_equiv_pos_as_xyz
  1  'x, y, z'
loop_
 _atom_site_type_symbol
 _atom_site_label
 _atom_site_symmetry_multiplicity
 _atom_site_fract_x
 _atom_site_fract_y
 _atom_site_fract_z
 _atom_site_occupancy
  Ni  Ni0  1  0.00052566  0.99780473  0.00043857  1
  Ni  Ni1  1  0.16596900  0.16433092  0.16853660  1
  Ni  Ni2  1  1.00013247  0.00273206  0.33290707  1
  Cr  Cr3  1  0.99907303  0.33446725  0.00039452  1
  Ni  Ni4  1  0.16638050  0.50231562  0.16822512  1
  Ni  Ni5  1  0.00091405  0.33277651  0.33382098  1
  Ni  Ni6  1  0.99993565  0.66873526  0.99971702  1
  Ni  Ni7  1  0.16687739  0.83401778  0.16456233  1
  Cr  Cr8  1  0.99856111  0.66531810  0.33252877  1
  Ni  Ni9  1  0.33331202  0.99924790  0.00130361  1
  Ni  Ni10  1  0.50142756  0.16611897  0.16563515  1
  Cr  Cr11  1  0.33276932  0.00220530  0.33237898  1
  Cr  Cr12  1  0.33408452  0.33195184  0.99842177  1
  Cr  Cr13  1  0.50161644  0.50033174  0.16738108  1
  Ni  Ni14  1  0.33254070  0.33367139  0.33501447  1
  Ni  Ni15  1  0.33209516  0.66909506  0.00054835  1
  Fe  Fe16  1  0.49982623  0.83377164  0.16477054  1
  Fe  Fe17  1  0.33446208  0.66433429  0.33356568  1
  Ni  Ni18  1  0.66682606  0.00068902  0.00073030  1
  Ni  Ni19  1  0.83326560  0.16661796  0.16734316  1
  Cr  Cr20  1  0.66768447  0.99987802  0.33469671  1
  Ni  Ni21  1  0.66718661  0.33290821  0.99954915  1
  Ni  Ni22  1  0.83277872  0.50010600  0.16708497  1
  Ni  Ni23  1  0.66720937  0.33508768  0.33406599  1
  Ni  Ni24  1  0.66863289  0.66706639  0.00037342  1
  Fe  Fe25  1  0.83444415  0.83387819  0.16524531  1
  Ni  Ni26  1  0.66675820  0.66548525  0.33474322  1
  Ni  Ni27  1  0.16558089  0.16935334  0.49957335  1
  Ni  Ni28  1  0.99822511  0.00065079  0.66731871  1
  Ni  Ni29  1  0.16621924  0.16562756  0.83255205  1
  Ni  Ni30  1  0.16879697  0.49852122  0.50098166  1
  Ni  Ni31  1  0.00262570  0.33389060  0.66618444  1
  Ni  Ni32  1  0.16744240  0.50258030  0.83145387  1
  Cr  Cr33  1  0.16532108  0.83306980  0.50196548  1
  Ni  Ni34  1  0.00117406  0.66612232  0.66827530  1
  Ni  Ni35  1  0.16440029  0.83245549  0.83476493  1
  Ni  Ni36  1  0.50082470  0.16906248  0.50027749  1
  Cr  Cr37  1  0.33400608  0.00242631  0.66722182  1
  Ni  Ni38  1  0.50142187  0.16804540  0.83475147  1
  Ni  Ni39  1  0.49882168  0.50003192  0.49840855  1
  Ni  Ni40  1  0.33145204  0.33489164  0.66667618  1
  Ni  Ni41  1  0.49933568  0.49930065  0.83438381  1
  Fe  Fe42  1  0.50233149  0.83198743  0.50055455  1
  Ni  Ni43  1  0.33137167  0.66358663  0.66630682  1
  Cr  Cr44  1  0.49980804  0.83333536  0.83497616  1
  Ni  Ni45  1  0.83425847  0.16591577  0.50002030  1
  Ni  Ni46  1  0.66912397  0.00073062  0.66568132  1
  Ni  Ni47  1  0.83302249  0.16500241  0.83330159  1
  Ni  Ni48  1  0.83304510  0.49995817  0.49882321  1
  Cr  Cr49  1  0.66669065  0.33217370  0.66769758  1
  Ni  Ni50  1  0.83388466  0.50112179  0.83475585  1
  Ni  Ni51  1  0.83274806  0.83478925  0.50102929  1
  Cr  Cr52  1  0.66841628  0.66782323  0.66563143  1
  Ni  Ni53  1  0.83629889  0.83453928  0.83438651  1
" 