8760,Ni72Fe2Cr25_9,-228.659847540858, 150.459741679489,Ni72Fe2Cr25,"# generated using pymatgen
 data_Cr15FeNi38
_symmetry_space_group_name_H-M   'P 1'
_cell_length_a   7.48098268
_cell_length_b   7.48098268
_cell_length_c   10.57970716
_cell_angle_alpha   90.00000000
_cell_angle_beta   90.00000000
_cell_angle_gamma   90.00000000
_symmetry_Int_Tables_number   1
_chemical_formula_structural   Cr15FeNi38
_chemical_formula_sum   'Cr15 Fe1 Ni38'
_cell_volume   592.09438826
_cell_formula_units_Z   1
loop_
 _symmetry_equiv_pos_site_id
 _symmetry_equiv_pos_as_xyz
  1  'x, y, z'
loop_
 _atom_site_type_symbol
 _atom_site_label
 _atom_site_symmetry_multiplicity
 _atom_site_fract_x
 _atom_site_fract_y
 _atom_site_fract_z
 _atom_site_occupancy
  Ni  Ni0  1  -0.00081828  -0.00050351  0.99793605  1
  Cr  Cr1  1  0.16362970  0.16363930  0.16516405  1
  Ni  Ni2  1  0.99586194  0.99798938  0.33237646  1
  Cr  Cr3  1  -0.00075189  0.33028206  0.99761670  1
  Cr  Cr4  1  0.16769109  0.49991742  0.16601644  1
  Ni  Ni5  1  0.99566856  0.33239094  0.33359439  1
  Cr  Cr6  1  -0.00034519  0.66754934  0.99644540  1
  Cr  Cr7  1  0.16672044  0.83365310  0.16697947  1
  Ni  Ni8  1  0.99799693  0.66683143  0.33508191  1
  Ni  Ni9  1  0.33192058  0.99851448  0.99652636  1
  Cr  Cr10  1  0.50045983  0.16582080  0.16537781  1
  Ni  Ni11  1  0.33348084  0.99639635  0.33294806  1
  Ni  Ni12  1  0.33392655  0.33246755  0.99750656  1
  Ni  Ni13  1  0.49978551  0.50120980  0.16528284  1
  Cr  Cr14  1  0.33318063  0.33409599  0.33386502  1
  Ni  Ni15  1  0.33347933  0.66623413  0.99884277  1
  Ni  Ni16  1  0.49902984  0.83044325  0.16706480  1
  Ni  Ni17  1  0.33329885  0.66645258  0.33254218  1
  Cr  Cr18  1  0.66671955  -0.00080036  0.99834793  1
  Ni  Ni19  1  0.83215564  0.16415078  0.16740213  1
  Ni  Ni20  1  0.66785293  0.99871301  0.33187462  1
  Ni  Ni21  1  0.66448548  0.33137037  0.99843568  1
  Cr  Cr22  1  0.82984875  0.49777875  0.16780552  1
  Ni  Ni23  1  0.66747280  0.33223311  0.33379749  1
  Cr  Cr24  1  0.66441103  0.66646942  -0.00058565  1
  Ni  Ni25  1  0.83137097  0.83486176  0.16774552  1
  Ni  Ni26  1  0.66591900  0.66626268  0.33147856  1
  Cr  Cr27  1  0.16491219  0.16396501  0.49958857  1
  Ni  Ni28  1  0.00001077  0.99830387  0.66690809  1
  Ni  Ni29  1  0.16593506  0.16388013  0.83247042  1
  Ni  Ni30  1  0.16453864  0.50189526  0.50000757  1
  Ni  Ni31  1  0.99868543  0.33360390  0.66670898  1
  Ni  Ni32  1  0.16512174  0.49973991  0.83102025  1
  Ni  Ni33  1  0.16422065  0.83060744  0.49892971  1
  Ni  Ni34  1  0.00111071  0.66529691  0.66570594  1
  Ni  Ni35  1  0.16709926  0.83359274  0.83174374  1
  Ni  Ni36  1  0.50102911  0.16751039  0.49952970  1
  Ni  Ni37  1  0.33087725  -0.00059948  0.66775806  1
  Ni  Ni38  1  0.49784736  0.16524005  0.83238331  1
  Ni  Ni39  1  0.49960194  0.49752203  0.49858808  1
  Ni  Ni40  1  0.33211647  0.33244379  0.66607868  1
  Cr  Cr41  1  0.49876392  0.49790081  0.83306312  1
  Cr  Cr42  1  0.49694946  0.83263415  0.49739922  1
  Ni  Ni43  1  0.32866031  0.66537402  0.66583932  1
  Ni  Ni44  1  0.49462226  0.83412633  0.83332168  1
  Ni  Ni45  1  0.83149582  0.16716490  0.49752161  1
  Cr  Cr46  1  0.66599543  0.00115622  0.66646819  1
  Ni  Ni47  1  0.83343219  0.16731332  0.83228527  1
  Ni  Ni48  1  0.83305025  0.49798189  0.49824852  1
  Ni  Ni49  1  0.66642606  0.33138941  0.66494184  1
  Ni  Ni50  1  0.83398054  0.49659353  0.83083335  1
  Ni  Ni51  1  0.83590674  0.83206317  0.49735869  1
  Cr  Cr52  1  0.66747986  0.66497743  0.66603950  1
  Fe  Fe53  1  0.83538540  0.83360520  0.83149570  1
" 