6790,Ni72Fe7Cr20_9,-231.391958440193, 160.398859847178,Ni72Fe7Cr20,"# generated using pymatgen
 data_Cr4FeNi13
_symmetry_space_group_name_H-M   'P 1'
_cell_length_a   7.46790961
_cell_length_b   7.46790961
_cell_length_c   10.56121905
_cell_angle_alpha   90.00000000
_cell_angle_beta   90.00000000
_cell_angle_gamma   90.00000000
_symmetry_Int_Tables_number   1
_chemical_formula_structural   Cr4FeNi13
_chemical_formula_sum   'Cr12 Fe3 Ni39'
_cell_volume   588.99574327
_cell_formula_units_Z   3
loop_
 _symmetry_equiv_pos_site_id
 _symmetry_equiv_pos_as_xyz
  1  'x, y, z'
loop_
 _atom_site_type_symbol
 _atom_site_label
 _atom_site_symmetry_multiplicity
 _atom_site_fract_x
 _atom_site_fract_y
 _atom_site_fract_z
 _atom_site_occupancy
  Ni  Ni0  1  0.00034118  -0.00003499  0.00001200  1
  Fe  Fe1  1  0.16678462  0.16672044  0.16661337  1
  Ni  Ni2  1  0.99753499  0.00203558  0.33234861  1
  Cr  Cr3  1  0.00228612  0.33214478  0.00135981  1
  Ni  Ni4  1  0.16912347  0.49968330  0.16701542  1
  Ni  Ni5  1  0.00049355  0.33189417  0.33334890  1
  Cr  Cr6  1  0.00193196  0.66783492  0.00080106  1
  Ni  Ni7  1  0.16595187  0.83355851  0.16578990  1
  Cr  Cr8  1  0.00012031  0.66619512  0.33221573  1
  Ni  Ni9  1  0.33269497  0.00097304  0.99878428  1
  Ni  Ni10  1  0.50125634  0.16812434  0.16632563  1
  Cr  Cr11  1  0.33079863  0.00257262  0.33330042  1
  Ni  Ni12  1  0.33332445  0.33301985  0.99973700  1
  Ni  Ni13  1  0.49771866  0.49804764  0.16818550  1
  Ni  Ni14  1  0.33244407  0.33557695  0.33229228  1
  Ni  Ni15  1  0.33247071  0.66590358  0.99942575  1
  Cr  Cr16  1  0.49907756  0.83374390  0.16801975  1
  Ni  Ni17  1  0.33362832  0.66201801  0.33223533  1
  Ni  Ni18  1  0.66692685  0.00076840  0.99918511  1
  Ni  Ni19  1  0.83295339  0.16514910  0.16807157  1
  Ni  Ni20  1  0.67059826  0.00089389  0.33209420  1
  Cr  Cr21  1  0.66414300  0.33169955  0.00003473  1
  Ni  Ni22  1  0.83299503  0.49804822  0.17007900  1
  Ni  Ni23  1  0.66697934  0.33399610  0.33261264  1
  Cr  Cr24  1  0.66569721  0.66713550  0.99992627  1
  Ni  Ni25  1  0.83436951  0.83664595  0.16681944  1
  Ni  Ni26  1  0.66733003  0.66484194  0.33344477  1
  Ni  Ni27  1  0.16296519  0.16971659  0.50046679  1
  Ni  Ni28  1  0.00069302  0.00095954  0.66717217  1
  Ni  Ni29  1  0.16640705  0.16574882  0.83266742  1
  Ni  Ni30  1  0.16781285  0.49769478  0.50115904  1
  Ni  Ni31  1  0.00137431  0.33231108  0.66544884  1
  Ni  Ni32  1  0.16943933  0.50029992  0.83180158  1
  Cr  Cr33  1  0.16581663  0.83300536  0.50161525  1
  Ni  Ni34  1  0.00039087  0.66664937  0.66672745  1
  Ni  Ni35  1  0.16791279  0.83384915  0.83257477  1
  Cr  Cr36  1  0.50041006  0.17009869  0.49995447  1
  Ni  Ni37  1  0.33061014  0.00136593  0.66891380  1
  Ni  Ni38  1  0.49876074  0.16661534  0.83351055  1
  Ni  Ni39  1  0.49934563  0.49963347  0.49981131  1
  Ni  Ni40  1  0.33230629  0.33380319  0.66775169  1
  Ni  Ni41  1  0.49681638  0.50019443  0.83174196  1
  Cr  Cr42  1  0.50073287  0.82976408  0.49887289  1
  Ni  Ni43  1  0.33335716  0.66472257  0.66821094  1
  Ni  Ni44  1  0.49702767  0.83315957  0.83324613  1
  Ni  Ni45  1  0.83562637  0.16743783  0.49913907  1
  Cr  Cr46  1  0.66620799  0.00037688  0.66813762  1
  Ni  Ni47  1  0.83453907  0.16478806  0.83257348  1
  Fe  Fe48  1  0.83307830  0.49868279  0.50055988  1
  Ni  Ni49  1  0.66608358  0.33468721  0.66655948  1
  Cr  Cr50  1  0.83468453  0.49773812  0.82937782  1
  Ni  Ni51  1  0.83377638  0.83430120  0.50020620  1
  Ni  Ni52  1  0.66616053  0.66526579  0.66606985  1
  Fe  Fe53  1  0.83457336  0.83482325  0.83253454  1
" 