5568,Ni72Fe28_13,-235.77478795624, 198.88988919111,Ni72Fe28,"# generated using pymatgen
 data_Fe19Ni8
_symmetry_space_group_name_H-M   'P 1'
_cell_length_a   7.39621705
_cell_length_b   7.39621705
_cell_length_c   10.45983046
_cell_angle_alpha   90.00000000
_cell_angle_beta   90.00000000
_cell_angle_gamma   90.00000000
_symmetry_Int_Tables_number   1
_chemical_formula_structural   Fe19Ni8
_chemical_formula_sum   'Fe38 Ni16'
_cell_volume   572.19484450
_cell_formula_units_Z   2
loop_
 _symmetry_equiv_pos_site_id
 _symmetry_equiv_pos_as_xyz
  1  'x, y, z'
loop_
 _atom_site_type_symbol
 _atom_site_label
 _atom_site_symmetry_multiplicity
 _atom_site_fract_x
 _atom_site_fract_y
 _atom_site_fract_z
 _atom_site_occupancy
  Fe  Fe0  1  0.00487470  0.00533876  0.00486172  1
  Fe  Fe1  1  0.17031652  0.17277178  0.17168603  1
  Ni  Ni2  1  1.00364104  0.00509216  0.33800453  1
  Ni  Ni3  1  1.00449673  0.33864083  1.00448861  1
  Ni  Ni4  1  0.17125411  0.50609062  0.17104714  1
  Fe  Fe5  1  0.00555737  0.33787581  0.33726970  1
  Ni  Ni6  1  1.00448451  0.67085034  0.00511491  1
  Fe  Fe7  1  0.17015851  0.83726133  0.17115526  1
  Fe  Fe8  1  0.00587454  0.67100994  0.33766700  1
  Fe  Fe9  1  0.33677212  1.00461199  1.00397927  1
  Fe  Fe10  1  0.50510306  0.17275210  0.17212821  1
  Fe  Fe11  1  0.33774303  0.00506726  0.33866483  1
  Fe  Fe12  1  0.33675456  0.33856575  0.00532303  1
  Fe  Fe13  1  0.50477576  0.50434121  0.17209074  1
  Ni  Ni14  1  0.33903191  0.33863529  0.33800292  1
  Fe  Fe15  1  0.33684575  0.67118704  0.00540982  1
  Fe  Fe16  1  0.50526680  0.83727083  0.17159587  1
  Ni  Ni17  1  0.33862221  0.67021927  0.33842986  1
  Fe  Fe18  1  0.67272031  0.00525055  0.00487641  1
  Ni  Ni19  1  0.83772682  0.17226250  0.17174342  1
  Fe  Fe20  1  0.67098619  0.00539076  0.33835015  1
  Fe  Fe21  1  0.67345775  0.33865588  1.00469948  1
  Ni  Ni22  1  0.83864051  0.50435574  0.17210213  1
  Fe  Fe23  1  0.67137133  0.33766090  0.33821414  1
  Fe  Fe24  1  0.67273226  0.67045942  1.00478779  1
  Fe  Fe25  1  0.83893902  0.83758990  0.17163344  1
  Fe  Fe26  1  0.67096465  0.67131319  0.33789595  1
  Ni  Ni27  1  0.17183741  0.17085275  0.50405510  1
  Fe  Fe28  1  0.00510933  0.00493413  0.67097684  1
  Ni  Ni29  1  0.17103354  0.17004410  0.83844720  1
  Fe  Fe30  1  0.17194522  0.50348818  0.50393440  1
  Fe  Fe31  1  1.00438573  0.33797785  0.67230791  1
  Fe  Fe32  1  0.16985146  0.50457209  0.83888563  1
  Fe  Fe33  1  0.17113633  0.83941551  0.50517608  1
  Ni  Ni34  1  1.00460104  0.67176364  0.67134114  1
  Ni  Ni35  1  0.17277279  0.83811202  0.83823172  1
  Ni  Ni36  1  0.50468640  0.17084908  0.50456757  1
  Fe  Fe37  1  0.33721549  1.00453965  0.67171989  1
  Fe  Fe38  1  0.50470074  0.17136945  0.83758680  1
  Fe  Fe39  1  0.50424362  0.50316951  0.50432970  1
  Fe  Fe40  1  0.33752847  0.33796181  0.67051438  1
  Fe  Fe41  1  0.50470883  0.50425222  0.83794506  1
  Fe  Fe42  1  0.50473422  0.83941604  0.50455777  1
  Fe  Fe43  1  0.33760652  0.67185977  0.67114925  1
  Fe  Fe44  1  0.50486850  0.83874314  0.83821250  1
  Ni  Ni45  1  0.83784055  0.17167930  0.50480351  1
  Fe  Fe46  1  0.67204414  0.00485866  0.67113763  1
  Ni  Ni47  1  0.83842693  0.17269728  0.83781560  1
  Fe  Fe48  1  0.83817835  0.50366686  0.50536907  1
  Fe  Fe49  1  0.67244739  0.33837084  0.67145379  1
  Ni  Ni50  1  0.83750537  0.50447142  0.83841118  1
  Fe  Fe51  1  0.83849339  0.83973680  0.50478533  1
  Fe  Fe52  1  0.67205546  0.67113609  0.67168466  1
  Fe  Fe53  1  0.83949869  0.83810871  0.83794596  1
" 