8911,Ni72Fe7Cr20_7,-231.491150105438, 163.549903810034,Ni72Fe7Cr20,"# generated using pymatgen
 data_Cr4FeNi13
_symmetry_space_group_name_H-M   'P 1'
_cell_length_a   7.46740042
_cell_length_b   7.46740042
_cell_length_c   10.56049895
_cell_angle_alpha   90.00000000
_cell_angle_beta   90.00000000
_cell_angle_gamma   90.00000000
_symmetry_Int_Tables_number   1
_chemical_formula_structural   Cr4FeNi13
_chemical_formula_sum   'Cr12 Fe3 Ni39'
_cell_volume   588.87527127
_cell_formula_units_Z   3
loop_
 _symmetry_equiv_pos_site_id
 _symmetry_equiv_pos_as_xyz
  1  'x, y, z'
loop_
 _atom_site_type_symbol
 _atom_site_label
 _atom_site_symmetry_multiplicity
 _atom_site_fract_x
 _atom_site_fract_y
 _atom_site_fract_z
 _atom_site_occupancy
  Cr  Cr0  1  0.00282724  0.00043150  0.00096776  1
  Ni  Ni1  1  0.16803482  0.16801173  0.17043166  1
  Fe  Fe2  1  0.99997541  0.99896373  0.33378126  1
  Cr  Cr3  1  0.00164464  0.33473662  0.99980003  1
  Ni  Ni4  1  0.16673169  0.49946863  0.16658346  1
  Ni  Ni5  1  0.00002554  0.33466623  0.33298431  1
  Ni  Ni6  1  0.00290352  0.66437768  0.99937447  1
  Ni  Ni7  1  0.16720803  0.83163613  0.16793279  1
  Ni  Ni8  1  0.00022442  0.66512570  0.33451705  1
  Cr  Cr9  1  0.33384311  0.99929660  0.99822105  1
  Ni  Ni10  1  0.49798925  0.16586806  0.16790416  1
  Ni  Ni11  1  0.33386144  0.99866939  0.33313694  1
  Ni  Ni12  1  0.33321878  0.33464839  0.00067705  1
  Ni  Ni13  1  0.49852731  0.50114745  0.16602903  1
  Ni  Ni14  1  0.33133219  0.33361754  0.33090142  1
  Ni  Ni15  1  0.33331164  0.66568661  0.00019610  1
  Ni  Ni16  1  0.50026956  0.83321178  0.16665683  1
  Cr  Cr17  1  0.33453390  0.66674071  0.33356866  1
  Ni  Ni18  1  0.66287156  0.99976209  0.00106714  1
  Ni  Ni19  1  0.83321707  0.16611901  0.16926191  1
  Ni  Ni20  1  0.66573501  0.99936210  0.33318184  1
  Cr  Cr21  1  0.66413635  0.33356347  0.00147118  1
  Ni  Ni22  1  0.83460918  0.50152539  0.16757404  1
  Cr  Cr23  1  0.66656183  0.33626892  0.33266267  1
  Ni  Ni24  1  0.66372215  0.66537729  0.00032302  1
  Cr  Cr25  1  0.83227780  0.83146803  0.16515702  1
  Ni  Ni26  1  0.66785811  0.66891014  0.33435296  1
  Cr  Cr27  1  0.16719145  0.17008878  0.49886808  1
  Cr  Cr28  1  0.00118220  0.99772977  0.66643121  1
  Ni  Ni29  1  0.17079458  0.16950540  0.83032842  1
  Ni  Ni30  1  0.16659695  0.50078968  0.50071326  1
  Ni  Ni31  1  0.00017567  0.33590317  0.66633851  1
  Ni  Ni32  1  0.16823960  0.50066367  0.83259851  1
  Ni  Ni33  1  0.16611479  0.83058937  0.49987893  1
  Ni  Ni34  1  0.00145722  0.66427898  0.66599521  1
  Ni  Ni35  1  0.16902295  0.82917925  0.83194243  1
  Cr  Cr36  1  0.49974538  0.16799381  0.50136101  1
  Fe  Fe37  1  0.33471541  0.99773678  0.66705834  1
  Ni  Ni38  1  0.49779278  0.16734307  0.83075491  1
  Ni  Ni39  1  0.49868563  0.50195835  0.50138161  1
  Ni  Ni40  1  0.33358313  0.33729234  0.66853172  1
  Ni  Ni41  1  0.49872650  0.50073334  0.83274092  1
  Ni  Ni42  1  0.50203297  0.83217139  0.50082232  1
  Ni  Ni43  1  0.33345823  0.66656186  0.66618835  1
  Ni  Ni44  1  0.49962021  0.83170231  0.83187229  1
  Ni  Ni45  1  0.83326649  0.16566567  0.49982185  1
  Ni  Ni46  1  0.66509784  0.99895595  0.66611380  1
  Cr  Cr47  1  0.83111061  0.16727907  0.83177360  1
  Fe  Fe48  1  0.83410822  0.50136380  0.50090716  1
  Ni  Ni49  1  0.66641421  0.33493042  0.66622845  1
  Ni  Ni50  1  0.83320130  0.50194819  0.83073912  1
  Ni  Ni51  1  0.83242994  0.83242540  0.49909956  1
  Ni  Ni52  1  0.66528404  0.66621503  0.66505272  1
  Cr  Cr53  1  0.83122448  0.82905861  0.83646624  1
" 