2981,Ni72Fe2Cr25_12,-228.590169510675, 149.359781414527,Ni72Fe2Cr25,"# generated using pymatgen
 data_Cr15FeNi38
_symmetry_space_group_name_H-M   'P 1'
_cell_length_a   7.48862637
_cell_length_b   7.48862637
_cell_length_c   10.59051697
_cell_angle_alpha   90.00000000
_cell_angle_beta   90.00000000
_cell_angle_gamma   90.00000000
_symmetry_Int_Tables_number   1
_chemical_formula_structural   Cr15FeNi38
_chemical_formula_sum   'Cr15 Fe1 Ni38'
_cell_volume   593.91116017
_cell_formula_units_Z   1
loop_
 _symmetry_equiv_pos_site_id
 _symmetry_equiv_pos_as_xyz
  1  'x, y, z'
loop_
 _atom_site_type_symbol
 _atom_site_label
 _atom_site_symmetry_multiplicity
 _atom_site_fract_x
 _atom_site_fract_y
 _atom_site_fract_z
 _atom_site_occupancy
  Ni  Ni0  1  -0.00065743  -0.00051993  0.99730519  1
  Ni  Ni1  1  0.16600070  0.16580508  0.16541653  1
  Ni  Ni2  1  0.00024831  0.00067526  0.33402001  1
  Ni  Ni3  1  0.99676577  0.33046586  0.00049685  1
  Cr  Cr4  1  0.16408831  0.49762360  0.16520479  1
  Ni  Ni5  1  -0.00132390  0.33035670  0.33211985  1
  Ni  Ni6  1  0.99779694  0.66574041  0.99761654  1
  Cr  Cr7  1  0.16671746  0.83361216  0.16455691  1
  Ni  Ni8  1  0.00041545  0.66467511  0.33386675  1
  Ni  Ni9  1  0.33165777  0.99835291  -0.00111398  1
  Ni  Ni10  1  0.49699992  0.16672034  0.16523215  1
  Ni  Ni11  1  0.33012068  0.99852384  0.33159893  1
  Ni  Ni12  1  0.33403020  0.33132465  -0.00110989  1
  Fe  Fe13  1  0.49935358  0.49699191  0.16399381  1
  Ni  Ni14  1  0.33040935  0.33114818  0.33161260  1
  Ni  Ni15  1  0.33404953  0.66602122  0.99732375  1
  Ni  Ni16  1  0.49612838  0.83177043  0.16471033  1
  Ni  Ni17  1  0.33070872  0.66601524  0.33333092  1
  Cr  Cr18  1  0.66429182  -0.00061785  0.99777115  1
  Ni  Ni19  1  0.83268292  0.16959282  0.16544002  1
  Cr  Cr20  1  0.66497389  -0.00018786  0.33212053  1
  Ni  Ni21  1  0.66488133  0.33291526  -0.00038804  1
  Ni  Ni22  1  0.83108271  0.49574288  0.16439238  1
  Ni  Ni23  1  0.66660264  0.33096534  0.32891875  1
  Ni  Ni24  1  0.66380287  0.66336626  0.99825461  1
  Cr  Cr25  1  0.83305973  0.83036123  0.16434598  1
  Cr  Cr26  1  0.66423576  0.66522112  0.33097608  1
  Ni  Ni27  1  0.16432260  0.16443950  0.49734872  1
  Ni  Ni28  1  0.99729491  0.99770379  0.66435892  1
  Cr  Cr29  1  0.16643523  0.16303464  0.83312877  1
  Ni  Ni30  1  0.16661739  0.49873234  0.49702313  1
  Cr  Cr31  1  0.00052101  0.32905385  0.66327631  1
  Cr  Cr32  1  0.16799412  0.49980467  0.83293753  1
  Ni  Ni33  1  0.16574260  0.83249352  0.49749053  1
  Cr  Cr34  1  -0.00008247  0.66838382  0.66414097  1
  Ni  Ni35  1  0.16608468  0.83265132  0.83309663  1
  Cr  Cr36  1  0.49711535  0.16369917  0.49918757  1
  Ni  Ni37  1  0.33238377  0.99664207  0.66518846  1
  Ni  Ni38  1  0.49862117  0.16529170  0.83171961  1
  Cr  Cr39  1  0.49590836  0.49956467  0.49896872  1
  Ni  Ni40  1  0.33216368  0.33212527  0.66519307  1
  Ni  Ni41  1  0.49805262  0.49942500  0.83304979  1
  Ni  Ni42  1  0.49681033  0.83177859  0.50031027  1
  Ni  Ni43  1  0.33394302  0.66690927  0.66500764  1
  Ni  Ni44  1  0.49803619  0.83096264  0.83064662  1
  Ni  Ni45  1  0.83471136  0.16265017  0.49763978  1
  Ni  Ni46  1  0.66599993  0.99589999  0.66584330  1
  Ni  Ni47  1  0.83064385  0.16266385  0.83261400  1
  Cr  Cr48  1  0.83300406  0.49875508  0.49658898  1
  Cr  Cr49  1  0.66409019  0.33000752  0.66718991  1
  Cr  Cr50  1  0.82977448  0.49962432  0.83466807  1
  Ni  Ni51  1  0.83311376  0.83408755  0.49981543  1
  Ni  Ni52  1  0.66223483  0.66992397  0.66625207  1
  Ni  Ni53  1  0.83153805  0.83322802  0.83150019  1
" 