2707,Ni72Fe5Cr21_15,-231.686306701897, 166.154590036094,Ni72Fe5Cr21,"# generated using pymatgen
 data_Cr4FeNi13
_symmetry_space_group_name_H-M   'P 1'
_cell_length_a   7.46609787
_cell_length_b   7.46609787
_cell_length_c   10.55865687
_cell_angle_alpha   90.00000000
_cell_angle_beta   90.00000000
_cell_angle_gamma   90.00000000
_symmetry_Int_Tables_number   1
_chemical_formula_structural   Cr4FeNi13
_chemical_formula_sum   'Cr12 Fe3 Ni39'
_cell_volume   588.56716996
_cell_formula_units_Z   3
loop_
 _symmetry_equiv_pos_site_id
 _symmetry_equiv_pos_as_xyz
  1  'x, y, z'
loop_
 _atom_site_type_symbol
 _atom_site_label
 _atom_site_symmetry_multiplicity
 _atom_site_fract_x
 _atom_site_fract_y
 _atom_site_fract_z
 _atom_site_occupancy
  Ni  Ni0  1  0.99942054  0.99786820  0.99966994  1
  Ni  Ni1  1  0.16816338  0.16544477  0.16554295  1
  Cr  Cr2  1  0.00208722  0.99691841  0.33362500  1
  Ni  Ni3  1  0.99882425  0.33470418  0.00094162  1
  Ni  Ni4  1  0.16540415  0.50224076  0.16542780  1
  Cr  Cr5  1  0.99954792  0.33532201  0.33254299  1
  Ni  Ni6  1  0.00145713  0.66761812  0.00194115  1
  Ni  Ni7  1  0.16612510  0.83250446  0.16602334  1
  Fe  Fe8  1  0.99866356  0.66802658  0.33245554  1
  Ni  Ni9  1  0.33332789  0.99820426  0.00101805  1
  Ni  Ni10  1  0.49991984  0.16697750  0.16726083  1
  Ni  Ni11  1  0.33404592  0.99911599  0.33414139  1
  Cr  Cr12  1  0.33457426  0.33468430  0.00116834  1
  Ni  Ni13  1  0.50154945  0.49958021  0.16707473  1
  Cr  Cr14  1  0.33576810  0.33225242  0.33234023  1
  Ni  Ni15  1  0.33148056  0.66709241  0.99844573  1
  Cr  Cr16  1  0.49945146  0.83405386  0.16692359  1
  Ni  Ni17  1  0.33435237  0.66822361  0.33376109  1
  Ni  Ni18  1  0.66744183  0.00083848  0.99787928  1
  Cr  Cr19  1  0.83164850  0.16720061  0.16434817  1
  Ni  Ni20  1  0.66422426  0.99858783  0.33476757  1
  Ni  Ni21  1  0.66691646  0.33285817  0.00052659  1
  Ni  Ni22  1  0.83323657  0.50161850  0.16670048  1
  Ni  Ni23  1  0.66482128  0.33623253  0.33350001  1
  Fe  Fe24  1  0.66711974  0.66702240  1.00006231  1
  Ni  Ni25  1  0.83476754  0.83087302  0.16611436  1
  Ni  Ni26  1  0.66730117  0.66537127  0.33427621  1
  Ni  Ni27  1  0.17011307  0.16335844  0.50166765  1
  Ni  Ni28  1  0.00058351  0.99598196  0.66687311  1
  Cr  Cr29  1  0.16585023  0.16564333  0.83297553  1
  Cr  Cr30  1  0.16712088  0.50185983  0.50176686  1
  Cr  Cr31  1  0.00204328  0.33339758  0.66685422  1
  Ni  Ni32  1  0.16842866  0.50323404  0.83344831  1
  Ni  Ni33  1  0.16761760  0.83473093  0.50067770  1
  Ni  Ni34  1  0.99966000  0.67037365  0.66572502  1
  Ni  Ni35  1  0.16688595  0.83167314  0.83348938  1
  Ni  Ni36  1  0.49840747  0.16490604  0.49959342  1
  Ni  Ni37  1  0.33369670  0.99995947  0.66503122  1
  Ni  Ni38  1  0.50222912  0.16490840  0.83333680  1
  Ni  Ni39  1  0.50215952  0.50144237  0.49996732  1
  Ni  Ni40  1  0.33483291  0.33310468  0.66641401  1
  Ni  Ni41  1  0.49820837  0.50159886  0.83314666  1
  Ni  Ni42  1  0.50024128  0.83384355  0.49992100  1
  Fe  Fe43  1  0.33428915  0.66817991  0.66779944  1
  Ni  Ni44  1  0.50012763  0.83368566  0.83319171  1
  Cr  Cr45  1  0.83185787  0.16563558  0.50066538  1
  Ni  Ni46  1  0.66591066  0.99692657  0.66754399  1
  Ni  Ni47  1  0.83154108  0.16336498  0.83538010  1
  Ni  Ni48  1  0.83078613  0.50393841  0.49837088  1
  Cr  Cr49  1  0.66303141  0.33381560  0.66630580  1
  Cr  Cr50  1  0.83402039  0.50053035  0.83501354  1
  Ni  Ni51  1  0.83233265  0.83097720  0.50108822  1
  Ni  Ni52  1  0.66664090  0.66923623  0.66572036  1
  Ni  Ni53  1  0.83317772  0.83569296  0.83298768  1
" 