1164,Ni72Fe28_4,-236.180650681441, 203.672363814413,Ni72Fe28,"# generated using pymatgen
 data_Fe19Ni8
_symmetry_space_group_name_H-M   'P 1'
_cell_length_a   7.39786817
_cell_length_b   7.39786817
_cell_length_c   10.46216550
_cell_angle_alpha   90.00000000
_cell_angle_beta   90.00000000
_cell_angle_gamma   90.00000000
_symmetry_Int_Tables_number   1
_chemical_formula_structural   Fe19Ni8
_chemical_formula_sum   'Fe38 Ni16'
_cell_volume   572.57813846
_cell_formula_units_Z   2
loop_
 _symmetry_equiv_pos_site_id
 _symmetry_equiv_pos_as_xyz
  1  'x, y, z'
loop_
 _atom_site_type_symbol
 _atom_site_label
 _atom_site_symmetry_multiplicity
 _atom_site_fract_x
 _atom_site_fract_y
 _atom_site_fract_z
 _atom_site_occupancy
  Fe  Fe0  1  0.00532714  1.00415178  0.00479412  1
  Ni  Ni1  1  0.17209524  0.17067421  0.17142837  1
  Ni  Ni2  1  0.00487387  0.00628283  0.33744693  1
  Fe  Fe3  1  0.00494058  0.33814757  0.00467588  1
  Fe  Fe4  1  0.17207192  0.50333137  0.17140447  1
  Ni  Ni5  1  0.00525285  0.33632080  0.33723159  1
  Fe  Fe6  1  0.00543124  0.67172691  1.00453401  1
  Fe  Fe7  1  0.17207207  0.83926949  0.17081853  1
  Fe  Fe8  1  0.00485562  0.67119719  0.33815053  1
  Fe  Fe9  1  0.33778288  1.00428948  0.00556631  1
  Ni  Ni10  1  0.50382586  0.17143515  0.17153899  1
  Ni  Ni11  1  0.33725352  0.00553132  0.33734296  1
  Fe  Fe12  1  0.33847588  0.33831510  0.00505857  1
  Fe  Fe13  1  0.50394545  0.50402597  0.17081948  1
  Ni  Ni14  1  0.33686968  0.33706738  0.33723282  1
  Ni  Ni15  1  0.33904616  0.67152376  0.00499215  1
  Fe  Fe16  1  0.50410626  0.83874059  0.17157068  1
  Fe  Fe17  1  0.33736237  0.67150346  0.33792805  1
  Fe  Fe18  1  0.67091613  0.00477987  1.00459318  1
  Fe  Fe19  1  0.83854095  0.17126236  0.17095406  1
  Fe  Fe20  1  0.67103567  0.00546657  0.33770411  1
  Fe  Fe21  1  0.67061137  0.33821342  1.00436710  1
  Fe  Fe22  1  0.83800957  0.50374045  0.17238139  1
  Fe  Fe23  1  0.67134171  0.33744874  0.33784759  1
  Fe  Fe24  1  0.67075460  0.67103398  1.00461489  1
  Fe  Fe25  1  0.83784780  0.83902477  0.17179195  1
  Ni  Ni26  1  0.67114756  0.67180701  0.33696064  1
  Fe  Fe27  1  0.17075484  0.17238010  0.50355651  1
  Fe  Fe28  1  0.00518391  1.00453126  0.67152743  1
  Fe  Fe29  1  0.17115789  0.17184345  0.83799377  1
  Fe  Fe30  1  0.17103684  0.50383387  0.50497982  1
  Ni  Ni31  1  0.00514200  0.33675024  0.67211863  1
  Fe  Fe32  1  0.17181833  0.50462290  0.83764416  1
  Fe  Fe33  1  0.17106069  0.83781029  0.50503730  1
  Fe  Fe34  1  0.00526822  0.67046389  0.67134364  1
  Ni  Ni35  1  0.17154402  0.83780199  0.83781145  1
  Fe  Fe36  1  0.50442302  0.17191553  0.50386183  1
  Fe  Fe37  1  0.33778367  1.00437013  0.67097526  1
  Fe  Fe38  1  0.50455198  0.17142731  0.83837527  1
  Fe  Fe39  1  0.50498100  0.50514290  0.50556592  1
  Ni  Ni40  1  0.33666815  0.33838085  0.67249594  1
  Ni  Ni41  1  0.50485594  0.50495622  0.83743903  1
  Fe  Fe42  1  0.50542757  0.83697246  0.50466987  1
  Ni  Ni43  1  0.33991228  0.67097884  0.67120729  1
  Fe  Fe44  1  0.50458605  0.83731705  0.83778764  1
  Fe  Fe45  1  0.83884649  0.17193462  0.50520316  1
  Fe  Fe46  1  0.67105808  0.00512590  0.67172906  1
  Ni  Ni47  1  0.83799975  0.17163306  0.83781628  1
  Ni  Ni48  1  0.83772542  0.50476070  0.50515997  1
  Fe  Fe49  1  0.67105654  0.33911173  0.67181291  1
  Fe  Fe50  1  0.83806924  0.50465246  0.83713470  1
  Fe  Fe51  1  0.83753842  0.83725475  0.50428719  1
  Ni  Ni52  1  0.67059133  0.67222773  0.67325201  1
  Fe  Fe53  1  0.83764856  0.83797242  0.83794882  1
" 