2764,Ni72Fe14Cr12_17,-235.749173975361, 187.669985379111,Ni72Fe14Cr12,"# generated using pymatgen
 data_Cr4Fe4Ni19
_symmetry_space_group_name_H-M   'P 1'
_cell_length_a   7.44597731
_cell_length_b   7.44597731
_cell_length_c   10.53020209
_cell_angle_alpha   90.00000000
_cell_angle_beta   90.00000000
_cell_angle_gamma   90.00000000
_symmetry_Int_Tables_number   1
_chemical_formula_structural   Cr4Fe4Ni19
_chemical_formula_sum   'Cr8 Fe8 Ni38'
_cell_volume   583.82155179
_cell_formula_units_Z   2
loop_
 _symmetry_equiv_pos_site_id
 _symmetry_equiv_pos_as_xyz
  1  'x, y, z'
loop_
 _atom_site_type_symbol
 _atom_site_label
 _atom_site_symmetry_multiplicity
 _atom_site_fract_x
 _atom_site_fract_y
 _atom_site_fract_z
 _atom_site_occupancy
  Ni  Ni0  1  0.00245853  1.00045297  0.00223589  1
  Ni  Ni1  1  0.16668654  0.16893347  0.16665267  1
  Ni  Ni2  1  1.00032996  0.99999149  0.33450112  1
  Fe  Fe3  1  0.00321810  0.33294857  0.00190137  1
  Ni  Ni4  1  0.16928765  0.50050791  0.16903984  1
  Ni  Ni5  1  0.00334229  0.33552838  0.33513284  1
  Cr  Cr6  1  0.00157886  0.67056690  1.00117567  1
  Ni  Ni7  1  0.16809536  0.83480185  0.16806940  1
  Ni  Ni8  1  1.00139283  0.66872347  0.33535549  1
  Fe  Fe9  1  0.33388195  1.00062665  1.00052156  1
  Cr  Cr10  1  0.50130573  0.16723312  0.16749518  1
  Cr  Cr11  1  0.33410976  0.00179379  0.33491135  1
  Ni  Ni12  1  0.33483400  0.33465407  1.00096042  1
  Cr  Cr13  1  0.49957548  0.50336064  0.16886058  1
  Ni  Ni14  1  0.33315044  0.33639511  0.33584078  1
  Ni  Ni15  1  0.33545476  0.66843136  0.00244816  1
  Ni  Ni16  1  0.50210870  0.83373097  0.16699199  1
  Fe  Fe17  1  0.33410820  0.66691612  0.33514490  1
  Ni  Ni18  1  0.66827630  0.99982877  1.00120615  1
  Cr  Cr19  1  0.83654956  0.16627190  0.16919719  1
  Ni  Ni20  1  0.67014145  0.99956528  0.33609773  1
  Ni  Ni21  1  0.66607211  0.33510687  0.99886606  1
  Cr  Cr22  1  0.83543333  0.50147532  0.16863171  1
  Ni  Ni23  1  0.66775268  0.33533256  0.33803234  1
  Fe  Fe24  1  0.66629643  0.66982056  0.99955548  1
  Ni  Ni25  1  0.83404127  0.83633113  0.16872018  1
  Ni  Ni26  1  0.66927944  0.66934708  0.33491430  1
  Ni  Ni27  1  0.16706896  0.16979522  0.50200405  1
  Ni  Ni28  1  0.00259896  0.99993229  0.66750701  1
  Ni  Ni29  1  0.16906256  0.16638553  0.83558804  1
  Ni  Ni30  1  0.16859483  0.50030737  0.50060908  1
  Fe  Fe31  1  0.00146152  0.33423288  0.66588169  1
  Cr  Cr32  1  0.16945258  0.50031168  0.83394753  1
  Fe  Fe33  1  0.16713402  0.83430511  0.50244146  1
  Fe  Fe34  1  1.00018209  0.66919113  0.66726223  1
  Ni  Ni35  1  0.16954017  0.83765356  0.83366327  1
  Ni  Ni36  1  0.50232488  0.16878140  0.50256260  1
  Ni  Ni37  1  0.33357096  0.00164893  0.66968242  1
  Fe  Fe38  1  0.50030308  0.16820804  0.83435763  1
  Ni  Ni39  1  0.50092772  0.50144733  0.50103549  1
  Ni  Ni40  1  0.33590590  0.33423771  0.66744376  1
  Ni  Ni41  1  0.50304403  0.50229330  0.83510900  1
  Ni  Ni42  1  0.50306913  0.83401535  0.50176866  1
  Ni  Ni43  1  0.33532443  0.66835908  0.66703734  1
  Ni  Ni44  1  0.50155150  0.83389213  0.83548682  1
  Ni  Ni45  1  0.83484986  0.16765447  0.50049753  1
  Ni  Ni46  1  0.66807380  1.00051699  0.66694107  1
  Cr  Cr47  1  0.83546192  0.16787389  0.83485244  1
  Ni  Ni48  1  0.83472244  0.50105074  0.50155761  1
  Ni  Ni49  1  0.66668575  0.33631802  0.66734695  1
  Ni  Ni50  1  0.83147271  0.50181119  0.83413737  1
  Ni  Ni51  1  0.83370984  0.83553871  0.50099107  1
  Ni  Ni52  1  0.66839812  0.66741100  0.66969845  1
  Ni  Ni53  1  0.83314995  0.83455409  0.83453250  1
" 