1211,Ni72Fe5Cr21_17,-231.75360376427, 168.314279113317,Ni72Fe5Cr21,"# generated using pymatgen
 data_Cr4FeNi13
_symmetry_space_group_name_H-M   'P 1'
_cell_length_a   7.46596573
_cell_length_b   7.46596573
_cell_length_c   10.55846999
_cell_angle_alpha   90.00000000
_cell_angle_beta   90.00000000
_cell_angle_gamma   90.00000000
_symmetry_Int_Tables_number   1
_chemical_formula_structural   Cr4FeNi13
_chemical_formula_sum   'Cr12 Fe3 Ni39'
_cell_volume   588.53591953
_cell_formula_units_Z   3
loop_
 _symmetry_equiv_pos_site_id
 _symmetry_equiv_pos_as_xyz
  1  'x, y, z'
loop_
 _atom_site_type_symbol
 _atom_site_label
 _atom_site_symmetry_multiplicity
 _atom_site_fract_x
 _atom_site_fract_y
 _atom_site_fract_z
 _atom_site_occupancy
  Ni  Ni0  1  0.99843481  0.99681823  0.99972370  1
  Cr  Cr1  1  0.16917953  0.16737772  0.16891695  1
  Cr  Cr2  1  0.00141444  0.99865225  0.33409942  1
  Cr  Cr3  1  0.99956439  0.33513106  0.99792815  1
  Ni  Ni4  1  0.16676199  0.50178974  0.16697618  1
  Ni  Ni5  1  0.00189537  0.33649320  0.33533366  1
  Ni  Ni6  1  0.00171765  0.66799431  0.00173357  1
  Ni  Ni7  1  0.16398087  0.83095742  0.16569199  1
  Ni  Ni8  1  0.99899931  0.66516416  0.33252777  1
  Cr  Cr9  1  0.33368070  0.99945126  0.99843255  1
  Ni  Ni10  1  0.49927258  0.16926298  0.16596096  1
  Ni  Ni11  1  0.33261228  0.00095663  0.33427370  1
  Ni  Ni12  1  0.33607809  0.33550224  0.00115018  1
  Ni  Ni13  1  0.50024389  0.49829830  0.16550690  1
  Ni  Ni14  1  0.33188023  0.33332629  0.33223002  1
  Ni  Ni15  1  0.33110257  0.66540134  0.00012885  1
  Cr  Cr16  1  0.50094911  0.83302142  0.16610410  1
  Cr  Cr17  1  0.33258190  0.66593866  0.33398307  1
  Ni  Ni18  1  0.66749629  0.00179387  0.99966669  1
  Cr  Cr19  1  0.83222595  0.16631322  0.16504087  1
  Cr  Cr20  1  0.66586629  0.99833128  0.33380311  1
  Ni  Ni21  1  0.66490435  0.33222105  0.00030803  1
  Ni  Ni22  1  0.83321197  0.50374813  0.16711744  1
  Cr  Cr23  1  0.66655588  0.33595709  0.33308303  1
  Fe  Fe24  1  0.66761424  0.66585622  0.00115459  1
  Ni  Ni25  1  0.83500360  0.82998473  0.16578835  1
  Ni  Ni26  1  0.66884007  0.66589805  0.33376681  1
  Ni  Ni27  1  0.16531645  0.16715520  0.50002392  1
  Ni  Ni28  1  0.00012321  0.00124184  0.66626776  1
  Ni  Ni29  1  0.16647619  0.16656895  0.83159733  1
  Ni  Ni30  1  0.16527479  0.49942697  0.50032973  1
  Ni  Ni31  1  0.99990344  0.33287993  0.66654264  1
  Ni  Ni32  1  0.16601533  0.50065755  0.83291046  1
  Ni  Ni33  1  0.16714343  0.83363644  0.50111473  1
  Ni  Ni34  1  0.00162710  0.66609421  0.66595874  1
  Ni  Ni35  1  0.16743860  0.83299006  0.83340930  1
  Cr  Cr36  1  0.49847332  0.16661083  0.50050873  1
  Fe  Fe37  1  0.33258312  0.99903515  0.66719726  1
  Ni  Ni38  1  0.50105922  0.16584058  0.83354842  1
  Ni  Ni39  1  0.50082692  0.50244313  0.50101052  1
  Ni  Ni40  1  0.33200021  0.33415332  0.66683782  1
  Cr  Cr41  1  0.50007180  0.50021467  0.83337839  1
  Ni  Ni42  1  0.50000731  0.83166782  0.50160943  1
  Ni  Ni43  1  0.33281514  0.66736242  0.66618439  1
  Ni  Ni44  1  0.49913599  0.83468128  0.83236135  1
  Ni  Ni45  1  0.83608479  0.16797635  0.50263553  1
  Ni  Ni46  1  0.66704644  0.00042734  0.66696443  1
  Ni  Ni47  1  0.83268186  0.16726221  0.83277217  1
  Ni  Ni48  1  0.83411618  0.50061961  0.50029606  1
  Ni  Ni49  1  0.66831378  0.33264867  0.66705591  1
  Ni  Ni50  1  0.83437125  0.49873357  0.83280190  1
  Fe  Fe51  1  0.83361980  0.83137278  0.50133698  1
  Ni  Ni52  1  0.66577612  0.66714068  0.66478293  1
  Cr  Cr53  1  0.83354240  0.83343009  0.83404506  1
" 