3918,Ni72Fe7Cr20_3,-231.433526414999, 165.221306161589,Ni72Fe7Cr20,"# generated using pymatgen
 data_Cr4FeNi13
_symmetry_space_group_name_H-M   'P 1'
_cell_length_a   7.46761276
_cell_length_b   7.46761276
_cell_length_c   10.56079924
_cell_angle_alpha   90.00000000
_cell_angle_beta   90.00000000
_cell_angle_gamma   90.00000000
_symmetry_Int_Tables_number   1
_chemical_formula_structural   Cr4FeNi13
_chemical_formula_sum   'Cr12 Fe3 Ni39'
_cell_volume   588.92550749
_cell_formula_units_Z   3
loop_
 _symmetry_equiv_pos_site_id
 _symmetry_equiv_pos_as_xyz
  1  'x, y, z'
loop_
 _atom_site_type_symbol
 _atom_site_label
 _atom_site_symmetry_multiplicity
 _atom_site_fract_x
 _atom_site_fract_y
 _atom_site_fract_z
 _atom_site_occupancy
  Cr  Cr0  1  0.99895165  0.99873496  0.00106684  1
  Ni  Ni1  1  0.16763139  0.16899279  0.16712946  1
  Cr  Cr2  1  0.00025322  0.00067876  0.33359040  1
  Fe  Fe3  1  0.00047892  0.33475886  0.00086194  1
  Ni  Ni4  1  0.16649885  0.49960479  0.16579729  1
  Ni  Ni5  1  0.99908240  0.33233178  0.33120458  1
  Ni  Ni6  1  0.00093646  0.66563273  0.99983719  1
  Ni  Ni7  1  0.16994803  0.83144951  0.16494897  1
  Cr  Cr8  1  0.99878165  0.66778522  0.33167612  1
  Ni  Ni9  1  0.33101379  0.99977774  0.00077018  1
  Cr  Cr10  1  0.50049201  0.16436335  0.16574123  1
  Ni  Ni11  1  0.33365485  0.99907336  0.33441529  1
  Ni  Ni12  1  0.33273577  0.33529880  0.00001841  1
  Fe  Fe13  1  0.49948723  0.49930849  0.16768641  1
  Ni  Ni14  1  0.33403883  0.33354123  0.33315252  1
  Ni  Ni15  1  0.33097706  0.66456781  0.00133773  1
  Ni  Ni16  1  0.49875553  0.83327490  0.16745790  1
  Ni  Ni17  1  0.33590983  0.66688264  0.33134053  1
  Ni  Ni18  1  0.66825040  0.00067305  0.00156905  1
  Ni  Ni19  1  0.83239002  0.16919136  0.16627405  1
  Ni  Ni20  1  0.66631162  0.99898920  0.33316887  1
  Ni  Ni21  1  0.66742233  0.33417212  0.99878181  1
  Ni  Ni22  1  0.83505598  0.49855638  0.16692471  1
  Ni  Ni23  1  0.66688382  0.33461515  0.33472088  1
  Cr  Cr24  1  0.66670777  0.66499651  0.00259324  1
  Ni  Ni25  1  0.83085814  0.83259709  0.16671785  1
  Ni  Ni26  1  0.66475619  0.66594221  0.33277371  1
  Ni  Ni27  1  0.16885916  0.16563534  0.49681018  1
  Cr  Cr28  1  0.00132989  0.99941224  0.66533772  1
  Ni  Ni29  1  0.16724905  0.16816400  0.83565240  1
  Cr  Cr30  1  0.16487228  0.50125564  0.49801374  1
  Cr  Cr31  1  0.99849162  0.33247267  0.66700882  1
  Ni  Ni32  1  0.16597043  0.50130586  0.83520786  1
  Ni  Ni33  1  0.16999649  0.83287333  0.50203899  1
  Ni  Ni34  1  0.99878323  0.66778489  0.66819274  1
  Fe  Fe35  1  0.16619505  0.83145829  0.83348770  1
  Ni  Ni36  1  0.50024558  0.16579377  0.49836871  1
  Ni  Ni37  1  0.33122672  0.99862784  0.66497382  1
  Cr  Cr38  1  0.50043478  0.16613920  0.83570208  1
  Ni  Ni39  1  0.50183669  0.50152850  0.49865317  1
  Cr  Cr40  1  0.33686035  0.33326676  0.66580628  1
  Ni  Ni41  1  0.49955671  0.50054404  0.83390596  1
  Ni  Ni42  1  0.49910553  0.83276937  0.49880486  1
  Ni  Ni43  1  0.33380985  0.66689671  0.66735329  1
  Cr  Cr44  1  0.49929438  0.83287905  0.83404416  1
  Ni  Ni45  1  0.83094795  0.16905831  0.49711065  1
  Cr  Cr46  1  0.66760369  0.00150652  0.66500835  1
  Ni  Ni47  1  0.83369052  0.16861484  0.83621473  1
  Ni  Ni48  1  0.83042982  0.50026278  0.50034067  1
  Ni  Ni49  1  0.66733516  0.33689407  0.66642087  1
  Ni  Ni50  1  0.83433434  0.50085980  0.83279977  1
  Ni  Ni51  1  0.83086162  0.83080318  0.49998351  1
  Ni  Ni52  1  0.66680881  0.66404287  0.66570601  1
  Ni  Ni53  1  0.83356321  0.83131595  0.83345243  1
" 