5144,Ni72Fe14Cr12_3,-236.190348107361, 188.886480154127,Ni72Fe14Cr12,"# generated using pymatgen
 data_Cr4Fe4Ni19
_symmetry_space_group_name_H-M   'P 1'
_cell_length_a   7.44900197
_cell_length_b   7.44900197
_cell_length_c   10.53447961
_cell_angle_alpha   90.00000000
_cell_angle_beta   90.00000000
_cell_angle_gamma   90.00000000
_symmetry_Int_Tables_number   1
_chemical_formula_structural   Cr4Fe4Ni19
_chemical_formula_sum   'Cr8 Fe8 Ni38'
_cell_volume   584.53330983
_cell_formula_units_Z   2
loop_
 _symmetry_equiv_pos_site_id
 _symmetry_equiv_pos_as_xyz
  1  'x, y, z'
loop_
 _atom_site_type_symbol
 _atom_site_label
 _atom_site_symmetry_multiplicity
 _atom_site_fract_x
 _atom_site_fract_y
 _atom_site_fract_z
 _atom_site_occupancy
  Fe  Fe0  1  1.00084700  1.00086239  0.00272290  1
  Ni  Ni1  1  0.16874469  0.16815713  0.16869184  1
  Ni  Ni2  1  0.00366771  1.00019415  0.33457933  1
  Ni  Ni3  1  1.00100729  0.33618308  0.00143064  1
  Fe  Fe4  1  0.16608159  0.50237706  0.16823095  1
  Ni  Ni5  1  0.00277036  0.33544618  0.33437427  1
  Ni  Ni6  1  1.00002067  0.66749622  1.00092065  1
  Ni  Ni7  1  0.16763292  0.83685520  0.16890179  1
  Ni  Ni8  1  0.00287596  0.66797103  0.33461735  1
  Ni  Ni9  1  0.33648750  0.00173326  0.00138005  1
  Fe  Fe10  1  0.50031991  0.16807647  0.16651726  1
  Ni  Ni11  1  0.33264195  1.00048572  0.33443129  1
  Ni  Ni12  1  0.33449726  0.33281679  0.00158630  1
  Fe  Fe13  1  0.50104268  0.50117825  0.16751580  1
  Ni  Ni14  1  0.33300634  0.33474972  0.33347025  1
  Cr  Cr15  1  0.33394407  0.66864183  1.00015914  1
  Ni  Ni16  1  0.49979069  0.83488980  0.16722114  1
  Ni  Ni17  1  0.33249476  0.66866719  0.33563645  1
  Ni  Ni18  1  0.66672104  1.00068140  1.00078902  1
  Fe  Fe19  1  0.83666234  0.16770356  0.16691861  1
  Cr  Cr20  1  0.66704482  1.00020137  0.33265153  1
  Ni  Ni21  1  0.66812369  0.33347949  1.00039679  1
  Ni  Ni22  1  0.83438497  0.50025296  0.16739672  1
  Ni  Ni23  1  0.66770513  0.33571146  0.33328552  1
  Ni  Ni24  1  0.66960705  0.66913340  1.00020415  1
  Ni  Ni25  1  0.83619001  0.83230163  0.16626897  1
  Cr  Cr26  1  0.66787038  0.66846983  0.33546419  1
  Ni  Ni27  1  0.16925590  0.16704568  0.50002717  1
  Fe  Fe28  1  0.99959760  1.00036646  0.66744608  1
  Cr  Cr29  1  0.16869380  0.16686377  0.83486964  1
  Ni  Ni30  1  0.16993409  0.50084341  0.49821424  1
  Cr  Cr31  1  0.00222870  0.33652221  0.66782622  1
  Ni  Ni32  1  0.16884103  0.50135635  0.83682340  1
  Ni  Ni33  1  0.16895352  0.83550256  0.49972659  1
  Cr  Cr34  1  0.00183157  0.66773773  0.66799638  1
  Ni  Ni35  1  0.16772569  0.83494257  0.83525363  1
  Cr  Cr36  1  0.49903118  0.16918315  0.50135466  1
  Fe  Fe37  1  0.33540808  0.99962965  0.66818852  1
  Ni  Ni38  1  0.50226535  0.16814689  0.83551258  1
  Ni  Ni39  1  0.50081855  0.50162604  0.50132278  1
  Ni  Ni40  1  0.33510894  0.33562785  0.66826987  1
  Ni  Ni41  1  0.50288522  0.50026536  0.83430178  1
  Ni  Ni42  1  0.49913326  0.83264588  0.50248815  1
  Fe  Fe43  1  0.33616566  0.66627673  0.66786313  1
  Ni  Ni44  1  0.50212627  0.83495441  0.83400850  1
  Cr  Cr45  1  0.83584033  0.16871099  0.50024325  1
  Ni  Ni46  1  0.66702774  0.99912779  0.66979779  1
  Ni  Ni47  1  0.83222838  0.16739843  0.83637806  1
  Ni  Ni48  1  0.83309476  0.50197366  0.50014867  1
  Ni  Ni49  1  0.66605159  0.33515610  0.66979833  1
  Ni  Ni50  1  0.83209780  0.50145328  0.83621307  1
  Ni  Ni51  1  0.83561893  0.83327052  0.50121553  1
  Ni  Ni52  1  0.66742020  0.66923980  0.66802737  1
  Ni  Ni53  1  0.83384212  0.83482520  0.83633078  1
" 