8596,Ni72Fe2Cr25_13,-228.840957053916, 152.475582008056,Ni72Fe2Cr25,"# generated using pymatgen
 data_Cr15FeNi38
_symmetry_space_group_name_H-M   'P 1'
_cell_length_a   7.48174422
_cell_length_b   7.48174422
_cell_length_c   10.58078415
_cell_angle_alpha   90.00000000
_cell_angle_beta   90.00000000
_cell_angle_gamma   90.00000000
_symmetry_Int_Tables_number   1
_chemical_formula_structural   Cr15FeNi38
_chemical_formula_sum   'Cr15 Fe1 Ni38'
_cell_volume   592.27522741
_cell_formula_units_Z   1
loop_
 _symmetry_equiv_pos_site_id
 _symmetry_equiv_pos_as_xyz
  1  'x, y, z'
loop_
 _atom_site_type_symbol
 _atom_site_label
 _atom_site_symmetry_multiplicity
 _atom_site_fract_x
 _atom_site_fract_y
 _atom_site_fract_z
 _atom_site_occupancy
  Ni  Ni0  1  -0.00035515  0.99762415  0.99840911  1
  Cr  Cr1  1  0.16670676  0.16488797  0.16491893  1
  Ni  Ni2  1  0.00116977  0.99707713  0.33209518  1
  Ni  Ni3  1  0.00041409  0.33371272  0.99816503  1
  Ni  Ni4  1  0.16563670  0.50106852  0.16557727  1
  Cr  Cr5  1  0.00071194  0.33355777  0.33303104  1
  Ni  Ni6  1  -0.00041294  0.66581407  0.99678155  1
  Cr  Cr7  1  0.16532913  0.82980246  0.16614283  1
  Ni  Ni8  1  0.00224467  0.66645689  0.33413774  1
  Ni  Ni9  1  0.33130486  0.99765828  0.99570259  1
  Ni  Ni10  1  0.49819382  0.16602578  0.16825581  1
  Ni  Ni11  1  0.33152031  -0.00034955  0.33559572  1
  Cr  Cr12  1  0.33006469  0.33251832  0.99594405  1
  Cr  Cr13  1  0.49461576  0.49903825  0.16650451  1
  Ni  Ni14  1  0.33321313  0.33275305  0.33458049  1
  Ni  Ni15  1  0.33078092  0.66648798  0.99626565  1
  Cr  Cr16  1  0.49504294  0.83126162  0.16435372  1
  Ni  Ni17  1  0.32910507  0.66461082  0.33516833  1
  Cr  Cr18  1  0.66454228  0.99643779  -0.00017925  1
  Ni  Ni19  1  0.83318420  0.16425870  0.16593291  1
  Cr  Cr20  1  0.66461169  -0.00016570  0.33043833  1
  Cr  Cr21  1  0.66573975  0.33244131  0.99842712  1
  Cr  Cr22  1  0.83440154  0.50046682  0.16464249  1
  Ni  Ni23  1  0.66299140  0.33155392  0.33370625  1
  Ni  Ni24  1  0.66679550  0.66733673  0.99588756  1
  Ni  Ni25  1  0.83617386  0.83288208  0.16420146  1
  Cr  Cr26  1  0.66545641  0.66580754  0.33390694  1
  Ni  Ni27  1  0.16966182  0.16354624  0.49932892  1
  Ni  Ni28  1  0.00280945  0.99653992  0.66662463  1
  Ni  Ni29  1  0.16748517  0.16337071  0.83233012  1
  Ni  Ni30  1  0.16859895  0.50110587  0.49808327  1
  Cr  Cr31  1  0.00383734  0.33504727  0.66634682  1
  Ni  Ni32  1  0.16630858  0.50133951  0.83340490  1
  Ni  Ni33  1  0.16806385  0.83253168  0.49857968  1
  Fe  Fe34  1  0.00147833  0.66633824  0.66668307  1
  Ni  Ni35  1  0.16615318  0.83250168  0.83241962  1
  Ni  Ni36  1  0.49589142  0.16700303  0.49979263  1
  Ni  Ni37  1  0.33177691  0.99809623  0.66580550  1
  Ni  Ni38  1  0.49604311  0.16485462  0.82897247  1
  Ni  Ni39  1  0.49774766  0.49809806  0.49970392  1
  Ni  Ni40  1  0.33317766  0.33320968  0.66558823  1
  Ni  Ni41  1  0.49883218  0.50131874  0.83056819  1
  Ni  Ni42  1  0.49482535  0.83190968  0.50091068  1
  Ni  Ni43  1  0.33297770  0.66575287  0.66552882  1
  Ni  Ni44  1  0.49750786  0.83084979  0.83168292  1
  Cr  Cr45  1  0.83121702  0.16639337  0.50052741  1
  Ni  Ni46  1  0.66244443  0.99662378  0.66679043  1
  Cr  Cr47  1  0.83360808  0.16511170  0.83067961  1
  Ni  Ni48  1  0.83085654  0.49996593  0.50030464  1
  Ni  Ni49  1  0.66232358  0.33539349  0.66504319  1
  Ni  Ni50  1  0.83197921  0.50269054  0.83205016  1
  Cr  Cr51  1  0.83485655  0.83148469  0.50153075  1
  Ni  Ni52  1  0.66380051  0.66520514  0.66715909  1
  Ni  Ni53  1  0.83351755  0.82965523  0.83193003  1
" 