3137,Ni72Fe14Cr12_1,-235.927491762912, 186.902084910705,Ni72Fe14Cr12,"# generated using pymatgen
 data_Cr4Fe4Ni19
_symmetry_space_group_name_H-M   'P 1'
_cell_length_a   7.44876050
_cell_length_b   7.44876050
_cell_length_c   10.53413812
_cell_angle_alpha   90.00000000
_cell_angle_beta   90.00000000
_cell_angle_gamma   90.00000000
_symmetry_Int_Tables_number   1
_chemical_formula_structural   Cr4Fe4Ni19
_chemical_formula_sum   'Cr8 Fe8 Ni38'
_cell_volume   584.47646635
_cell_formula_units_Z   2
loop_
 _symmetry_equiv_pos_site_id
 _symmetry_equiv_pos_as_xyz
  1  'x, y, z'
loop_
 _atom_site_type_symbol
 _atom_site_label
 _atom_site_symmetry_multiplicity
 _atom_site_fract_x
 _atom_site_fract_y
 _atom_site_fract_z
 _atom_site_occupancy
  Ni  Ni0  1  0.00290695  0.00258556  1.00029496  1
  Ni  Ni1  1  0.16645031  0.16983240  0.16805896  1
  Ni  Ni2  1  0.00129043  0.00398799  0.33465106  1
  Ni  Ni3  1  1.00072901  0.33301334  0.00230988  1
  Ni  Ni4  1  0.16795596  0.49948409  0.16750227  1
  Ni  Ni5  1  1.00090207  0.33359523  0.33438107  1
  Ni  Ni6  1  0.00336798  0.66808320  0.00182971  1
  Fe  Fe7  1  0.16683717  0.83544804  0.16539968  1
  Fe  Fe8  1  0.99964793  0.66573180  0.33476102  1
  Ni  Ni9  1  0.33343184  1.00074376  1.00092318  1
  Ni  Ni10  1  0.50106723  0.17179358  0.16733493  1
  Cr  Cr11  1  0.33284504  0.00345814  0.33478719  1
  Fe  Fe12  1  0.33407283  0.33517558  0.00195091  1
  Ni  Ni13  1  0.50106339  0.49903197  0.16739064  1
  Ni  Ni14  1  0.33418889  0.33490845  0.33432434  1
  Ni  Ni15  1  0.33439795  0.66849796  1.00036680  1
  Cr  Cr16  1  0.50150407  0.83321619  0.16577127  1
  Cr  Cr17  1  0.33525337  0.66570342  0.33396078  1
  Fe  Fe18  1  0.66844273  0.00256274  0.99945190  1
  Ni  Ni19  1  0.83616232  0.16955387  0.16713087  1
  Cr  Cr20  1  0.66893788  0.00283858  0.33633803  1
  Ni  Ni21  1  0.66776037  0.33397822  0.00286961  1
  Fe  Fe22  1  0.83399062  0.49829944  0.16747277  1
  Ni  Ni23  1  0.66859058  0.33651390  0.33423817  1
  Ni  Ni24  1  0.66591706  0.66631957  1.00028044  1
  Cr  Cr25  1  0.83620530  0.83457160  0.16739313  1
  Ni  Ni26  1  0.66857687  0.66441186  0.33681745  1
  Ni  Ni27  1  0.16583098  0.17062063  0.50150260  1
  Ni  Ni28  1  0.00273387  0.00271070  0.66873088  1
  Ni  Ni29  1  0.16733457  0.16745837  0.83411932  1
  Ni  Ni30  1  0.16819507  0.49817790  0.50202755  1
  Ni  Ni31  1  0.00169330  0.33345702  0.66699079  1
  Ni  Ni32  1  0.16979434  0.50153527  0.83415223  1
  Cr  Cr33  1  0.16609306  0.83515492  0.50188937  1
  Ni  Ni34  1  0.00217454  0.66751374  0.66762820  1
  Ni  Ni35  1  0.16773463  0.83468989  0.83514940  1
  Fe  Fe36  1  0.50032647  0.17018551  0.50176058  1
  Ni  Ni37  1  0.33350047  1.00079398  0.66816205  1
  Ni  Ni38  1  0.50057437  0.16836835  0.83534528  1
  Ni  Ni39  1  0.50195669  0.50149565  0.50150073  1
  Fe  Fe40  1  0.33390721  0.33526923  0.66749672  1
  Ni  Ni41  1  0.49955067  0.50206075  0.83479090  1
  Ni  Ni42  1  0.50411508  0.83148806  0.50267937  1
  Ni  Ni43  1  0.33556460  0.66792772  0.66912457  1
  Ni  Ni44  1  0.50070158  0.83325638  0.83517826  1
  Ni  Ni45  1  0.83692449  0.16845922  0.50071822  1
  Cr  Cr46  1  0.66774149  0.00128987  0.66849247  1
  Ni  Ni47  1  0.83577204  0.16630770  0.83583540  1
  Fe  Fe48  1  0.83433929  0.50120124  0.50159793  1
  Ni  Ni49  1  0.66786001  0.33552312  0.66657474  1
  Cr  Cr50  1  0.83457501  0.50155158  0.83433497  1
  Ni  Ni51  1  0.83360390  0.83385078  0.50101625  1
  Ni  Ni52  1  0.66594407  0.66688599  0.66658195  1
  Ni  Ni53  1  0.83524851  0.83571242  0.83491471  1
" 