923,Ni72Fe14Cr12_16,-235.698635038511, 185.655479320427,Ni72Fe14Cr12,"# generated using pymatgen
 data_Cr4Fe4Ni19
_symmetry_space_group_name_H-M   'P 1'
_cell_length_a   7.44417399
_cell_length_b   7.44417399
_cell_length_c   10.52765182
_cell_angle_alpha   90.00000000
_cell_angle_beta   90.00000000
_cell_angle_gamma   90.00000000
_symmetry_Int_Tables_number   1
_chemical_formula_structural   Cr4Fe4Ni19
_chemical_formula_sum   'Cr8 Fe8 Ni38'
_cell_volume   583.39747239
_cell_formula_units_Z   2
loop_
 _symmetry_equiv_pos_site_id
 _symmetry_equiv_pos_as_xyz
  1  'x, y, z'
loop_
 _atom_site_type_symbol
 _atom_site_label
 _atom_site_symmetry_multiplicity
 _atom_site_fract_x
 _atom_site_fract_y
 _atom_site_fract_z
 _atom_site_occupancy
  Ni  Ni0  1  1.00043653  0.00251409  0.00156942  1
  Fe  Fe1  1  0.16839972  0.16810437  0.16808890  1
  Ni  Ni2  1  0.00285569  1.00148736  0.33479085  1
  Ni  Ni3  1  0.00284072  0.33303704  0.00167263  1
  Ni  Ni4  1  0.16838299  0.50245369  0.16858213  1
  Ni  Ni5  1  0.00256698  0.33418387  0.33495404  1
  Fe  Fe6  1  0.00317538  0.66993458  0.00282502  1
  Ni  Ni7  1  0.16603929  0.83380792  0.16886170  1
  Ni  Ni8  1  0.00385815  0.66893748  0.33356893  1
  Ni  Ni9  1  0.33341257  0.00160317  0.00154364  1
  Ni  Ni10  1  0.50184286  0.17188037  0.16785593  1
  Ni  Ni11  1  0.33224419  0.00262415  0.33588015  1
  Ni  Ni12  1  0.33354443  0.33648086  0.00244641  1
  Ni  Ni13  1  0.50055026  0.49839756  0.16709511  1
  Ni  Ni14  1  0.33400836  0.33451992  0.33386127  1
  Ni  Ni15  1  0.33587895  0.66652496  1.00001974  1
  Cr  Cr16  1  0.49858606  0.83509213  0.16711670  1
  Ni  Ni17  1  0.33158045  0.66746532  0.33541684  1
  Ni  Ni18  1  0.67075918  1.00017940  1.00091116  1
  Ni  Ni19  1  0.83515246  0.16953942  0.16756337  1
  Cr  Cr20  1  0.66922383  0.00320643  0.33709857  1
  Fe  Fe21  1  0.66747562  0.33416866  0.00319966  1
  Fe  Fe22  1  0.83562079  0.50081150  0.16787058  1
  Ni  Ni23  1  0.66803631  0.33352057  0.33249012  1
  Ni  Ni24  1  0.66731626  0.66892986  1.00134425  1
  Ni  Ni25  1  0.83920897  0.83510118  0.16613622  1
  Cr  Cr26  1  0.66884694  0.66813294  0.33460605  1
  Ni  Ni27  1  0.16809356  0.16686607  0.50094152  1
  Ni  Ni28  1  1.00062014  0.00159318  0.66824833  1
  Ni  Ni29  1  0.16599782  0.16705112  0.83556689  1
  Fe  Fe30  1  0.16834267  0.50189225  0.50073662  1
  Fe  Fe31  1  0.00312281  0.33215706  0.66837495  1
  Fe  Fe32  1  0.17076629  0.50131017  0.83531078  1
  Ni  Ni33  1  0.16830525  0.83529975  0.50080386  1
  Ni  Ni34  1  0.00447323  0.67025093  0.66822750  1
  Ni  Ni35  1  0.16903002  0.83502786  0.83494309  1
  Ni  Ni36  1  0.50093041  0.16754009  0.50229298  1
  Ni  Ni37  1  0.33406179  1.00125380  0.66718706  1
  Cr  Cr38  1  0.50167345  0.16802208  0.83464352  1
  Cr  Cr39  1  0.49943163  0.49997298  0.50130376  1
  Ni  Ni40  1  0.33368326  0.33529447  0.66830233  1
  Ni  Ni41  1  0.49989151  0.50308939  0.83601199  1
  Ni  Ni42  1  0.49810064  0.83724559  0.50259682  1
  Ni  Ni43  1  0.33273938  0.66805905  0.66917487  1
  Ni  Ni44  1  0.49918926  0.83306599  0.83543554  1
  Ni  Ni45  1  0.83558463  0.16789963  0.50305720  1
  Ni  Ni46  1  0.66992692  0.00254037  0.66704483  1
  Ni  Ni47  1  0.83695129  0.16774929  0.83398843  1
  Cr  Cr48  1  0.83728148  0.49951568  0.50026465  1
  Ni  Ni49  1  0.66773576  0.33144609  0.66834197  1
  Cr  Cr50  1  0.83470600  0.49971024  0.83585016  1
  Ni  Ni51  1  0.83820253  0.83709236  0.50292349  1
  Cr  Cr52  1  0.66696821  0.67132301  0.66840839  1
  Fe  Fe53  1  0.83530868  0.83805523  0.83561165  1
" 