1683,Ni72Fe5Cr21_18,-231.779484271059, 166.963820627595,Ni72Fe5Cr21,"# generated using pymatgen
 data_Cr4FeNi13
_symmetry_space_group_name_H-M   'P 1'
_cell_length_a   7.46699035
_cell_length_b   7.46699035
_cell_length_c   10.55991902
_cell_angle_alpha   90.00000000
_cell_angle_beta   90.00000000
_cell_angle_gamma   90.00000000
_symmetry_Int_Tables_number   1
_chemical_formula_structural   Cr4FeNi13
_chemical_formula_sum   'Cr12 Fe3 Ni39'
_cell_volume   588.77826229
_cell_formula_units_Z   3
loop_
 _symmetry_equiv_pos_site_id
 _symmetry_equiv_pos_as_xyz
  1  'x, y, z'
loop_
 _atom_site_type_symbol
 _atom_site_label
 _atom_site_symmetry_multiplicity
 _atom_site_fract_x
 _atom_site_fract_y
 _atom_site_fract_z
 _atom_site_occupancy
  Ni  Ni0  1  0.99968798  0.00098312  0.00162514  1
  Ni  Ni1  1  0.16626871  0.16527789  0.16520083  1
  Ni  Ni2  1  0.99989906  0.99940822  0.33198165  1
  Ni  Ni3  1  0.00046063  0.33248773  0.00141860  1
  Ni  Ni4  1  0.16650638  0.50038064  0.16568315  1
  Cr  Cr5  1  0.99963750  0.33262991  0.33361734  1
  Ni  Ni6  1  0.99906116  0.66653012  0.00129779  1
  Ni  Ni7  1  0.16507158  0.83434479  0.16746801  1
  Ni  Ni8  1  0.00177766  0.66798899  0.33287632  1
  Ni  Ni9  1  0.33116819  0.99995922  0.00192498  1
  Cr  Cr10  1  0.49890988  0.16843232  0.16732445  1
  Fe  Fe11  1  0.33313159  0.99834043  0.33395861  1
  Ni  Ni12  1  0.33161741  0.33479240  0.00016739  1
  Ni  Ni13  1  0.50107527  0.50024414  0.16724496  1
  Ni  Ni14  1  0.33405956  0.33545508  0.33432358  1
  Cr  Cr15  1  0.33505280  0.66549415  0.00060422  1
  Ni  Ni16  1  0.49989859  0.83193259  0.16770711  1
  Ni  Ni17  1  0.33372432  0.66636561  0.33335109  1
  Cr  Cr18  1  0.66893175  0.99809069  0.99934023  1
  Ni  Ni19  1  0.83486519  0.16644369  0.16588439  1
  Ni  Ni20  1  0.66744657  0.99978503  0.33375778  1
  Ni  Ni21  1  0.66793678  0.33541876  0.00081977  1
  Ni  Ni22  1  0.83242101  0.50147358  0.16566361  1
  Ni  Ni23  1  0.66573234  0.33356761  0.33445754  1
  Ni  Ni24  1  0.66696241  0.66601134  0.00068744  1
  Ni  Ni25  1  0.83504309  0.83210997  0.16703775  1
  Ni  Ni26  1  0.66451149  0.66665209  0.33212704  1
  Fe  Fe27  1  0.16964281  0.16631262  0.49899971  1
  Cr  Cr28  1  0.99813881  0.00031605  0.66611988  1
  Cr  Cr29  1  0.16822708  0.16775311  0.83544957  1
  Ni  Ni30  1  0.16755799  0.50166945  0.50034321  1
  Cr  Cr31  1  0.00007255  0.33446109  0.66468719  1
  Ni  Ni32  1  0.16768598  0.49976727  0.83398439  1
  Ni  Ni33  1  0.16795191  0.83283766  0.49847523  1
  Ni  Ni34  1  0.99973472  0.66583777  0.66581175  1
  Cr  Cr35  1  0.16443807  0.83267605  0.83400160  1
  Ni  Ni36  1  0.50016215  0.16718178  0.50086830  1
  Ni  Ni37  1  0.33631033  0.00038824  0.66375368  1
  Cr  Cr38  1  0.50002328  0.16844886  0.83250181  1
  Ni  Ni39  1  0.50045529  0.49765996  0.49948717  1
  Ni  Ni40  1  0.33496416  0.33394557  0.66554220  1
  Ni  Ni41  1  0.50035757  0.49866307  0.83330470  1
  Ni  Ni42  1  0.49853473  0.83519370  0.50030841  1
  Cr  Cr43  1  0.33424113  0.66537268  0.66655615  1
  Fe  Fe44  1  0.50268132  0.83254242  0.83240571  1
  Ni  Ni45  1  0.82946928  0.16745461  0.49988582  1
  Ni  Ni46  1  0.66520839  0.00005044  0.66719004  1
  Ni  Ni47  1  0.83159522  0.16527231  0.83422249  1
  Ni  Ni48  1  0.83198502  0.49989557  0.50059547  1
  Ni  Ni49  1  0.66507951  0.33273440  0.66476069  1
  Cr  Cr50  1  0.83263219  0.50178257  0.83358646  1
  Cr  Cr51  1  0.83375297  0.83133784  0.49955033  1
  Ni  Ni52  1  0.66582457  0.66719565  0.66719718  1
  Ni  Ni53  1  0.83262114  0.83285618  0.83306715  1
" 