7726,Ni72Fe14Cr12_8,-235.680159853346, 183.302742451447,Ni72Fe14Cr12,"# generated using pymatgen
 data_Cr4Fe4Ni19
_symmetry_space_group_name_H-M   'P 1'
_cell_length_a   7.44952192
_cell_length_b   7.44952192
_cell_length_c   10.53521493
_cell_angle_alpha   90.00000000
_cell_angle_beta   90.00000000
_cell_angle_gamma   90.00000000
_symmetry_Int_Tables_number   1
_chemical_formula_structural   Cr4Fe4Ni19
_chemical_formula_sum   'Cr8 Fe8 Ni38'
_cell_volume   584.65572276
_cell_formula_units_Z   2
loop_
 _symmetry_equiv_pos_site_id
 _symmetry_equiv_pos_as_xyz
  1  'x, y, z'
loop_
 _atom_site_type_symbol
 _atom_site_label
 _atom_site_symmetry_multiplicity
 _atom_site_fract_x
 _atom_site_fract_y
 _atom_site_fract_z
 _atom_site_occupancy
  Fe  Fe0  1  0.00222829  0.00131508  0.00261964  1
  Ni  Ni1  1  0.16690775  0.16855893  0.16704783  1
  Ni  Ni2  1  0.99880341  0.00290126  0.33438068  1
  Ni  Ni3  1  0.00210858  0.33464167  0.00217969  1
  Ni  Ni4  1  0.16721609  0.50001992  0.16718567  1
  Ni  Ni5  1  1.00014813  0.33357013  0.33396549  1
  Ni  Ni6  1  0.00217424  0.66645015  0.00225973  1
  Ni  Ni7  1  0.16778384  0.83494912  0.16620231  1
  Cr  Cr8  1  1.00094865  0.66681555  0.33466435  1
  Ni  Ni9  1  0.33591826  0.00130401  0.00128351  1
  Ni  Ni10  1  0.50176022  0.16691685  0.16681342  1
  Cr  Cr11  1  0.33517720  0.99964892  0.33235515  1
  Ni  Ni12  1  0.33264260  0.33290328  0.99959219  1
  Cr  Cr13  1  0.50085159  0.50139260  0.16843889  1
  Ni  Ni14  1  0.33358721  0.33595732  0.33458798  1
  Ni  Ni15  1  0.33371364  0.66932117  0.99963178  1
  Ni  Ni16  1  0.50195011  0.83552779  0.16718233  1
  Ni  Ni17  1  0.33558797  0.66743795  0.33616669  1
  Ni  Ni18  1  0.66590487  0.00136591  0.00154876  1
  Ni  Ni19  1  0.83486099  0.16748451  0.16854930  1
  Ni  Ni20  1  0.66940961  1.00090168  0.33459467  1
  Fe  Fe21  1  0.66766530  0.33342281  0.00166402  1
  Ni  Ni22  1  0.83543876  0.50020885  0.16676056  1
  Ni  Ni23  1  0.66979375  0.33384497  0.33473162  1
  Ni  Ni24  1  0.66764268  0.66972891  0.00184895  1
  Ni  Ni25  1  0.83379561  0.83583469  0.16699668  1
  Ni  Ni26  1  0.66702471  0.66878189  0.33574840  1
  Cr  Cr27  1  0.16472737  0.16927739  0.50014996  1
  Fe  Fe28  1  0.99972986  1.00007861  0.66707673  1
  Fe  Fe29  1  0.16736357  0.16898707  0.83577894  1
  Ni  Ni30  1  0.16905889  0.50216874  0.50203589  1
  Ni  Ni31  1  1.00039169  0.33491150  0.66738456  1
  Ni  Ni32  1  0.17050598  0.50110359  0.83430631  1
  Ni  Ni33  1  0.16697377  0.83191928  0.50221937  1
  Ni  Ni34  1  0.00223069  0.66651483  0.66629018  1
  Ni  Ni35  1  0.16949970  0.83369931  0.83510796  1
  Cr  Cr36  1  0.50378457  0.16966194  0.50004510  1
  Cr  Cr37  1  0.33527907  0.99899579  0.66935566  1
  Fe  Fe38  1  0.50140219  0.16815872  0.83614258  1
  Ni  Ni39  1  0.50087809  0.50323569  0.50132605  1
  Fe  Fe40  1  0.33405611  0.33928232  0.66908571  1
  Ni  Ni41  1  0.49859357  0.50122271  0.83398510  1
  Ni  Ni42  1  0.50283682  0.83073230  0.50099608  1
  Ni  Ni43  1  0.33469230  0.66743908  0.66773326  1
  Ni  Ni44  1  0.49960543  0.83357631  0.83535131  1
  Ni  Ni45  1  0.83478169  0.16748327  0.50101316  1
  Fe  Fe46  1  0.66977979  1.00013536  0.66768039  1
  Ni  Ni47  1  0.83454637  0.16772118  0.83397044  1
  Ni  Ni48  1  0.83359170  0.50058203  0.50206422  1
  Fe  Fe49  1  0.66849992  0.33588691  0.66720706  1
  Cr  Cr50  1  0.83443856  0.50022973  0.83542318  1
  Ni  Ni51  1  0.83371868  0.83546169  0.50222755  1
  Ni  Ni52  1  0.66660608  0.66801090  0.66593441  1
  Cr  Cr53  1  0.83490346  0.83583785  0.83462851  1
" 