503,Ni72Fe14Cr12_4,-235.859695094051, 187.230917990189,Ni72Fe14Cr12,"# generated using pymatgen
 data_Cr4Fe4Ni19
_symmetry_space_group_name_H-M   'P 1'
_cell_length_a   7.44871382
_cell_length_b   7.44871382
_cell_length_c   10.53407210
_cell_angle_alpha   90.00000000
_cell_angle_beta   90.00000000
_cell_angle_gamma   90.00000000
_symmetry_Int_Tables_number   1
_chemical_formula_structural   Cr4Fe4Ni19
_chemical_formula_sum   'Cr8 Fe8 Ni38'
_cell_volume   584.46547794
_cell_formula_units_Z   2
loop_
 _symmetry_equiv_pos_site_id
 _symmetry_equiv_pos_as_xyz
  1  'x, y, z'
loop_
 _atom_site_type_symbol
 _atom_site_label
 _atom_site_symmetry_multiplicity
 _atom_site_fract_x
 _atom_site_fract_y
 _atom_site_fract_z
 _atom_site_occupancy
  Ni  Ni0  1  0.00233342  1.00015407  0.00191692  1
  Ni  Ni1  1  0.16661964  0.16821851  0.16804413  1
  Ni  Ni2  1  0.00241675  0.99972952  0.33448411  1
  Ni  Ni3  1  0.99909621  0.33590102  0.00224327  1
  Ni  Ni4  1  0.16735662  0.50117934  0.16815491  1
  Fe  Fe5  1  0.00138570  0.33520974  0.33282883  1
  Ni  Ni6  1  0.00150133  0.66763572  1.00109645  1
  Fe  Fe7  1  0.16709000  0.83380394  0.16741740  1
  Ni  Ni8  1  1.00028933  0.66874629  0.33406307  1
  Ni  Ni9  1  0.33370272  0.99916206  0.00252055  1
  Ni  Ni10  1  0.50050693  0.16887560  0.16778627  1
  Cr  Cr11  1  0.33332223  0.00219989  0.33415517  1
  Cr  Cr12  1  0.33567790  0.33496324  0.00257150  1
  Ni  Ni13  1  0.50159380  0.50235366  0.16830815  1
  Ni  Ni14  1  0.33587770  0.33531330  0.33456601  1
  Ni  Ni15  1  0.33378574  0.66937805  1.00103303  1
  Ni  Ni16  1  0.50100859  0.83246261  0.16633276  1
  Ni  Ni17  1  0.33471658  0.66620611  0.33421377  1
  Cr  Cr18  1  0.66755228  0.00220691  0.00180973  1
  Ni  Ni19  1  0.83656759  0.16880715  0.16641246  1
  Cr  Cr20  1  0.66833612  1.00088449  0.33423914  1
  Ni  Ni21  1  0.66940140  0.33598516  1.00122740  1
  Ni  Ni22  1  0.83474168  0.50168483  0.16762783  1
  Ni  Ni23  1  0.66624326  0.33743926  0.33375523  1
  Ni  Ni24  1  0.66840373  0.66614132  0.00152719  1
  Ni  Ni25  1  0.83539405  0.83320343  0.16821560  1
  Ni  Ni26  1  0.66868620  0.66535934  0.33521123  1
  Ni  Ni27  1  0.16898637  0.16664722  0.50226680  1
  Ni  Ni28  1  0.00213337  0.00137007  0.66729136  1
  Cr  Cr29  1  0.16749011  0.16779115  0.83353151  1
  Cr  Cr30  1  0.16847911  0.49992645  0.50036937  1
  Ni  Ni31  1  1.00049669  0.33401578  0.66830257  1
  Ni  Ni32  1  0.16705435  0.50222281  0.83479011  1
  Ni  Ni33  1  0.16790276  0.83669131  0.50154155  1
  Cr  Cr34  1  1.00006233  0.66817969  0.66811265  1
  Fe  Fe35  1  0.16810969  0.83395509  0.83524525  1
  Ni  Ni36  1  0.49908844  0.16881746  0.50288045  1
  Ni  Ni37  1  0.33547356  0.00140429  0.66652761  1
  Ni  Ni38  1  0.50197725  0.16720776  0.83302602  1
  Ni  Ni39  1  0.50270924  0.50175554  0.50150892  1
  Fe  Fe40  1  0.33628390  0.33334444  0.66732254  1
  Fe  Fe41  1  0.50289871  0.50194442  0.83415045  1
  Ni  Ni42  1  0.50157929  0.83312044  0.50359351  1
  Fe  Fe43  1  0.33682873  0.66901389  0.66806643  1
  Fe  Fe44  1  0.50080555  0.83364786  0.83396005  1
  Cr  Cr45  1  0.83564283  0.16786935  0.50278254  1
  Ni  Ni46  1  0.66608625  1.00109669  0.66828295  1
  Fe  Fe47  1  0.83421343  0.16932797  0.83394334  1
  Ni  Ni48  1  0.83205013  0.50283780  0.50042631  1
  Ni  Ni49  1  0.66687386  0.33513300  0.66870459  1
  Ni  Ni50  1  0.83447816  0.50176397  0.83563495  1
  Ni  Ni51  1  0.83421263  0.83307485  0.50120463  1
  Ni  Ni52  1  0.66690716  0.66746265  0.66695694  1
  Ni  Ni53  1  0.83402472  0.83362959  0.83427057  1
" 