2285,Ni72Fe9Cr17_19,-232.56387990219, 167.665484202722,Ni72Fe9Cr17,"# generated using pymatgen
 data_Cr11Fe4Ni39
_symmetry_space_group_name_H-M   'P 1'
_cell_length_a   7.46428715
_cell_length_b   7.46428715
_cell_length_c   10.55609612
_cell_angle_alpha   90.00000000
_cell_angle_beta   90.00000000
_cell_angle_gamma   90.00000000
_symmetry_Int_Tables_number   1
_chemical_formula_structural   Cr11Fe4Ni39
_chemical_formula_sum   'Cr11 Fe4 Ni39'
_cell_volume   588.13904530
_cell_formula_units_Z   1
loop_
 _symmetry_equiv_pos_site_id
 _symmetry_equiv_pos_as_xyz
  1  'x, y, z'
loop_
 _atom_site_type_symbol
 _atom_site_label
 _atom_site_symmetry_multiplicity
 _atom_site_fract_x
 _atom_site_fract_y
 _atom_site_fract_z
 _atom_site_occupancy
  Ni  Ni0  1  0.99916664  0.99892820  0.00037535  1
  Ni  Ni1  1  0.16509444  0.16334152  0.16793025  1
  Ni  Ni2  1  0.00030609  0.99995828  0.33391440  1
  Cr  Cr3  1  0.99944846  0.33363064  0.99987432  1
  Fe  Fe4  1  0.16540630  0.50361983  0.16733098  1
  Ni  Ni5  1  0.99786931  0.33304685  0.33316652  1
  Ni  Ni6  1  0.00097933  0.66802676  0.00051923  1
  Ni  Ni7  1  0.16737129  0.83439420  0.16695274  1
  Ni  Ni8  1  0.99899923  0.66755072  0.33254502  1
  Ni  Ni9  1  0.33454721  0.99921950  0.00028837  1
  Fe  Fe10  1  0.50267909  0.16453014  0.16678329  1
  Ni  Ni11  1  0.33342613  0.99835308  0.33436924  1
  Cr  Cr12  1  0.33452787  0.33359944  0.99991179  1
  Ni  Ni13  1  0.50187940  0.50154467  0.16811635  1
  Cr  Cr14  1  0.33380514  0.33271926  0.33241898  1
  Ni  Ni15  1  0.33282992  0.66764038  0.00049522  1
  Ni  Ni16  1  0.49823492  0.83339103  0.16773356  1
  Ni  Ni17  1  0.33473014  0.66915457  0.33286990  1
  Ni  Ni18  1  0.66684267  0.00113248  0.99958811  1
  Ni  Ni19  1  0.83367951  0.16699053  0.16791871  1
  Ni  Ni20  1  0.66682307  0.99948157  0.33332718  1
  Ni  Ni21  1  0.66645654  0.33188329  0.99942176  1
  Ni  Ni22  1  0.83267756  0.49926910  0.16873140  1
  Ni  Ni23  1  0.66842841  0.33435070  0.33389611  1
  Cr  Cr24  1  0.66742810  0.66781663  0.99880595  1
  Ni  Ni25  1  0.83494908  0.83429630  0.16772498  1
  Ni  Ni26  1  0.66682483  0.66672124  0.33438849  1
  Ni  Ni27  1  0.16530630  0.16225195  0.50123729  1
  Ni  Ni28  1  0.00156249  0.00337218  0.66626445  1
  Ni  Ni29  1  0.16575296  0.16585917  0.83138846  1
  Cr  Cr30  1  0.16470529  0.50047147  0.49842820  1
  Ni  Ni31  1  0.99842625  0.33081555  0.66802650  1
  Ni  Ni32  1  0.16574966  0.49945905  0.83478498  1
  Ni  Ni33  1  0.16779021  0.83785340  0.49859605  1
  Cr  Cr34  1  0.99822107  0.66681366  0.66770766  1
  Cr  Cr35  1  0.16729586  0.83536791  0.83504764  1
  Ni  Ni36  1  0.50069116  0.16553827  0.49918035  1
  Ni  Ni37  1  0.33228157  0.00185549  0.66589683  1
  Ni  Ni38  1  0.50136458  0.16644195  0.83481613  1
  Ni  Ni39  1  0.50495077  0.50051298  0.49904884  1
  Cr  Cr40  1  0.33379548  0.33130115  0.66822424  1
  Ni  Ni41  1  0.50168482  0.49919135  0.83338901  1
  Ni  Ni42  1  0.49826851  0.83450396  0.49787313  1
  Cr  Cr43  1  0.33572059  0.66779553  0.66711805  1
  Ni  Ni44  1  0.49972374  0.83492159  0.83494521  1
  Fe  Fe45  1  0.83406205  0.16818048  0.49931467  1
  Cr  Cr46  1  0.66663721  0.00054483  0.66749434  1
  Ni  Ni47  1  0.83343735  0.16781645  0.83295633  1
  Ni  Ni48  1  0.83120619  0.49802854  0.49880571  1
  Ni  Ni49  1  0.66832632  0.33384140  0.66723715  1
  Ni  Ni50  1  0.83312006  0.49781778  0.83301736  1
  Fe  Fe51  1  0.83417515  0.83412145  0.49748893  1
  Cr  Cr52  1  0.66661286  0.66579452  0.66709572  1
  Ni  Ni53  1  0.83370605  0.83492222  0.83520378  1
" 