1467,Ni72Fe14Cr12_18,-235.657513671839, 188.56321199315,Ni72Fe14Cr12,"# generated using pymatgen
 data_Cr4Fe4Ni19
_symmetry_space_group_name_H-M   'P 1'
_cell_length_a   7.44608561
_cell_length_b   7.44608561
_cell_length_c   10.53035526
_cell_angle_alpha   90.00000000
_cell_angle_beta   90.00000000
_cell_angle_gamma   90.00000000
_symmetry_Int_Tables_number   1
_chemical_formula_structural   Cr4Fe4Ni19
_chemical_formula_sum   'Cr8 Fe8 Ni38'
_cell_volume   583.84702804
_cell_formula_units_Z   2
loop_
 _symmetry_equiv_pos_site_id
 _symmetry_equiv_pos_as_xyz
  1  'x, y, z'
loop_
 _atom_site_type_symbol
 _atom_site_label
 _atom_site_symmetry_multiplicity
 _atom_site_fract_x
 _atom_site_fract_y
 _atom_site_fract_z
 _atom_site_occupancy
  Cr  Cr0  1  1.00097767  1.00099225  0.00191813  1
  Ni  Ni1  1  0.16913686  0.16850401  0.16872005  1
  Ni  Ni2  1  1.00076744  1.00089963  0.33523334  1
  Ni  Ni3  1  0.00196140  0.33570482  0.00246524  1
  Ni  Ni4  1  0.16722273  0.50080371  0.16813323  1
  Fe  Fe5  1  0.00201554  0.33402202  0.33496983  1
  Ni  Ni6  1  1.00043203  0.66710722  0.00281692  1
  Ni  Ni7  1  0.16646571  0.83482173  0.17009768  1
  Ni  Ni8  1  0.00195715  0.66769320  0.33420588  1
  Ni  Ni9  1  0.33583430  0.00421047  1.00103760  1
  Ni  Ni10  1  0.50077277  0.16957997  0.16757188  1
  Ni  Ni11  1  0.33446322  0.00221574  0.33534961  1
  Ni  Ni12  1  0.33515711  0.33335912  0.00196167  1
  Ni  Ni13  1  0.50210901  0.49931800  0.16854121  1
  Fe  Fe14  1  0.33333930  0.33333031  0.33357691  1
  Cr  Cr15  1  0.33355076  0.66736075  0.99969536  1
  Cr  Cr16  1  0.50186540  0.83586778  0.16834364  1
  Ni  Ni17  1  0.33216744  0.66753409  0.33563615  1
  Ni  Ni18  1  0.66753448  0.00269752  1.00042299  1
  Ni  Ni19  1  0.83431745  0.16878809  0.16865924  1
  Ni  Ni20  1  0.66898719  0.00325402  0.33557194  1
  Ni  Ni21  1  0.66713537  0.33371423  0.00212673  1
  Ni  Ni22  1  0.83492045  0.50196087  0.16830143  1
  Fe  Fe23  1  0.66888098  0.33325301  0.33403414  1
  Ni  Ni24  1  0.66990630  0.66781048  0.00202443  1
  Ni  Ni25  1  0.83589525  0.83348795  0.16802372  1
  Fe  Fe26  1  0.67009315  0.66954527  0.33418208  1
  Ni  Ni27  1  0.16750193  0.16709674  0.50093806  1
  Fe  Fe28  1  1.00119461  0.00326490  0.66800426  1
  Ni  Ni29  1  0.16847515  0.16718299  0.83467087  1
  Ni  Ni30  1  0.16676481  0.50155758  0.50090298  1
  Ni  Ni31  1  1.00044039  0.33290436  0.66654759  1
  Fe  Fe32  1  0.16859730  0.50038115  0.83549840  1
  Fe  Fe33  1  0.16847680  0.83561011  0.50012757  1
  Cr  Cr34  1  0.00359570  0.66789332  0.66783111  1
  Ni  Ni35  1  0.16945786  0.83619724  0.83335209  1
  Ni  Ni36  1  0.50168676  0.16571736  0.50102659  1
  Ni  Ni37  1  0.33568131  1.00021910  0.66766801  1
  Ni  Ni38  1  0.50143315  0.16719247  0.83568518  1
  Cr  Cr39  1  0.50139502  0.50166033  0.50034916  1
  Cr  Cr40  1  0.33419272  0.33421256  0.66945919  1
  Ni  Ni41  1  0.50104044  0.50113063  0.83549120  1
  Fe  Fe42  1  0.50068389  0.83770904  0.50102262  1
  Ni  Ni43  1  0.33346538  0.67036558  0.66860412  1
  Ni  Ni44  1  0.50070645  0.83592734  0.83375434  1
  Ni  Ni45  1  0.83506016  0.16751737  0.50269199  1
  Ni  Ni46  1  0.66771427  0.00361733  0.66812223  1
  Ni  Ni47  1  0.83435968  0.16753563  0.83286182  1
  Ni  Ni48  1  0.83643792  0.50060693  0.49988599  1
  Ni  Ni49  1  0.66996029  0.33083384  0.66767666  1
  Cr  Cr50  1  0.83396396  0.49966447  0.83615594  1
  Ni  Ni51  1  0.83493291  0.83609284  0.50007345  1
  Cr  Cr52  1  0.66687853  0.66962954  0.66779338  1
  Ni  Ni53  1  0.83404575  0.83645259  0.83619376  1
" 