5159,Ni72Fe9Cr17_16,-232.482096301422, 166.525006372283,Ni72Fe9Cr17,"# generated using pymatgen
 data_Cr11Fe4Ni39
_symmetry_space_group_name_H-M   'P 1'
_cell_length_a   7.46397499
_cell_length_b   7.46397499
_cell_length_c   10.55565466
_cell_angle_alpha   90.00000000
_cell_angle_beta   90.00000000
_cell_angle_gamma   90.00000000
_symmetry_Int_Tables_number   1
_chemical_formula_structural   Cr11Fe4Ni39
_chemical_formula_sum   'Cr11 Fe4 Ni39'
_cell_volume   588.06526103
_cell_formula_units_Z   1
loop_
 _symmetry_equiv_pos_site_id
 _symmetry_equiv_pos_as_xyz
  1  'x, y, z'
loop_
 _atom_site_type_symbol
 _atom_site_label
 _atom_site_symmetry_multiplicity
 _atom_site_fract_x
 _atom_site_fract_y
 _atom_site_fract_z
 _atom_site_occupancy
  Ni  Ni0  1  0.99814267  0.00088954  0.99900469  1
  Cr  Cr1  1  0.16361125  0.16616679  0.16709352  1
  Ni  Ni2  1  1.00017359  0.99912245  0.33454737  1
  Ni  Ni3  1  0.99984304  0.33298056  0.99979947  1
  Ni  Ni4  1  0.16606250  0.50262783  0.16716218  1
  Ni  Ni5  1  0.99817951  0.33485877  0.33383976  1
  Cr  Cr6  1  1.00010270  0.66640180  0.99953279  1
  Ni  Ni7  1  0.16602714  0.83218137  0.16901910  1
  Ni  Ni8  1  0.99966803  0.66663675  0.33334425  1
  Cr  Cr9  1  0.33371541  0.99747501  0.99841400  1
  Cr  Cr10  1  0.50271282  0.16564967  0.16860415  1
  Ni  Ni11  1  0.33255122  0.99689339  0.33417746  1
  Cr  Cr12  1  0.33186484  0.33629683  0.99757073  1
  Ni  Ni13  1  0.50131535  0.50376645  0.16760553  1
  Cr  Cr14  1  0.33302923  0.33485981  0.33460124  1
  Ni  Ni15  1  0.33481198  0.66684724  0.00076532  1
  Fe  Fe16  1  0.50117369  0.83020640  0.16748740  1
  Fe  Fe17  1  0.33347984  0.66818053  0.33341996  1
  Ni  Ni18  1  0.66917554  0.99757745  0.99929518  1
  Fe  Fe19  1  0.83497824  0.16650427  0.16774587  1
  Ni  Ni20  1  0.66789349  0.99838693  0.33323261  1
  Cr  Cr21  1  0.66900652  0.33452940  0.99969580  1
  Ni  Ni22  1  0.83324060  0.50128930  0.16886431  1
  Ni  Ni23  1  0.66988936  0.33559377  0.33356313  1
  Ni  Ni24  1  0.66536551  0.66854830  0.99999893  1
  Ni  Ni25  1  0.83302566  0.83377235  0.16724974  1
  Ni  Ni26  1  0.66766290  0.66663604  0.33339377  1
  Ni  Ni27  1  0.16439502  0.16645820  0.49929623  1
  Ni  Ni28  1  0.99879266  0.00027754  0.66706596  1
  Ni  Ni29  1  0.16539007  0.16691495  0.83387164  1
  Ni  Ni30  1  0.16779194  0.50010595  0.49893425  1
  Cr  Cr31  1  0.00023526  0.33247697  0.66697072  1
  Ni  Ni32  1  0.16921730  0.49956664  0.83451975  1
  Fe  Fe33  1  0.16627078  0.83356466  0.49855058  1
  Cr  Cr34  1  0.99948357  0.66846078  0.66693882  1
  Ni  Ni35  1  0.16674440  0.83413671  0.83353003  1
  Cr  Cr36  1  0.50143931  0.16703360  0.50081032  1
  Cr  Cr37  1  0.33278485  1.00018054  0.66780100  1
  Ni  Ni38  1  0.50143405  0.16691209  0.83154224  1
  Ni  Ni39  1  0.50062316  0.50271255  0.50140712  1
  Ni  Ni40  1  0.33486767  0.33589324  0.66833856  1
  Ni  Ni41  1  0.49964018  0.50160185  0.83160630  1
  Ni  Ni42  1  0.50177086  0.83123543  0.49843575  1
  Ni  Ni43  1  0.33569717  0.66474806  0.66682330  1
  Ni  Ni44  1  0.50211464  0.83210311  0.83482521  1
  Ni  Ni45  1  0.83502121  0.16531037  0.49838405  1
  Ni  Ni46  1  0.66875017  0.99944677  0.66808948  1
  Ni  Ni47  1  0.83379397  0.16444025  0.83451763  1
  Ni  Ni48  1  0.83220275  0.50067662  0.49791537  1
  Ni  Ni49  1  0.66515939  0.33462746  0.66748355  1
  Ni  Ni50  1  0.83175834  0.50024879  0.83383756  1
  Ni  Ni51  1  0.83241475  0.83463072  0.49977977  1
  Ni  Ni52  1  0.66486026  0.66654389  0.66722484  1
  Ni  Ni53  1  0.83175848  0.83592803  0.83358653  1
" 