2679,Ni72Fe5Cr21_13,-231.445079584998, 162.215671338428,Ni72Fe5Cr21,"# generated using pymatgen
 data_Cr4FeNi13
_symmetry_space_group_name_H-M   'P 1'
_cell_length_a   7.47348666
_cell_length_b   7.47348666
_cell_length_c   10.56910619
_cell_angle_alpha   90.00000000
_cell_angle_beta   90.00000000
_cell_angle_gamma   90.00000000
_symmetry_Int_Tables_number   1
_chemical_formula_structural   Cr4FeNi13
_chemical_formula_sum   'Cr12 Fe3 Ni39'
_cell_volume   590.31631839
_cell_formula_units_Z   3
loop_
 _symmetry_equiv_pos_site_id
 _symmetry_equiv_pos_as_xyz
  1  'x, y, z'
loop_
 _atom_site_type_symbol
 _atom_site_label
 _atom_site_symmetry_multiplicity
 _atom_site_fract_x
 _atom_site_fract_y
 _atom_site_fract_z
 _atom_site_occupancy
  Ni  Ni0  1  0.00148959  0.00064232  0.00005212  1
  Fe  Fe1  1  0.16607572  0.16378871  0.16494307  1
  Ni  Ni2  1  0.99707524  0.99812331  0.33122257  1
  Ni  Ni3  1  0.00183447  0.33143363  0.00127305  1
  Fe  Fe4  1  0.16580422  0.49964417  0.16646716  1
  Cr  Cr5  1  0.99759726  0.33320171  0.33403779  1
  Cr  Cr6  1  -0.00027471  0.66771250  -0.00030768  1
  Fe  Fe7  1  0.16629986  0.83534071  0.16745422  1
  Ni  Ni8  1  0.99843800  0.66673643  0.33184268  1
  Ni  Ni9  1  0.33180266  0.00167002  -0.00023231  1
  Ni  Ni10  1  0.49935695  0.16470075  0.16608009  1
  Ni  Ni11  1  0.33553707  0.99830705  0.33076187  1
  Ni  Ni12  1  0.33200458  0.33022963  0.99828633  1
  Cr  Cr13  1  0.50141922  0.49938710  0.16635990  1
  Cr  Cr14  1  0.33467285  0.33171649  0.33440823  1
  Cr  Cr15  1  0.33273177  0.66781486  0.99747761  1
  Ni  Ni16  1  0.49805442  0.83510483  0.16901279  1
  Ni  Ni17  1  0.33301996  0.66747776  0.33327491  1
  Cr  Cr18  1  0.66459728  0.99915908  -0.00038449  1
  Ni  Ni19  1  0.83331859  0.16613668  0.16629336  1
  Ni  Ni20  1  0.66610099  -0.00024472  0.33298546  1
  Ni  Ni21  1  0.66496197  0.33109096  0.00103428  1
  Ni  Ni22  1  0.83385796  0.49864679  0.16690681  1
  Ni  Ni23  1  0.66687147  0.33134186  0.33332185  1
  Cr  Cr24  1  0.66609620  0.66849155  0.99790294  1
  Ni  Ni25  1  0.83422880  0.83386141  0.16858726  1
  Ni  Ni26  1  0.66722263  0.66762445  0.33366103  1
  Cr  Cr27  1  0.16629093  0.16381733  0.50249628  1
  Ni  Ni28  1  0.99831344  0.00027541  0.66760422  1
  Ni  Ni29  1  0.16766724  0.16575183  0.83365598  1
  Ni  Ni30  1  0.16747200  0.50091020  0.49997505  1
  Ni  Ni31  1  0.00089358  0.33243487  0.66526277  1
  Ni  Ni32  1  0.16872973  0.49679867  0.83257407  1
  Cr  Cr33  1  0.16793033  0.83334325  0.49799607  1
  Cr  Cr34  1  -0.00030227  0.66605004  0.66647625  1
  Ni  Ni35  1  0.16759181  0.83619453  0.83275021  1
  Ni  Ni36  1  0.50176624  0.16509710  0.49970800  1
  Ni  Ni37  1  0.33551761  0.00000027  0.66848069  1
  Ni  Ni38  1  0.49665047  0.16733385  0.83279408  1
  Ni  Ni39  1  0.50063096  0.50093811  0.50029364  1
  Ni  Ni40  1  0.33379806  0.33351523  0.66735590  1
  Ni  Ni41  1  0.49760123  0.49755234  0.83159201  1
  Ni  Ni42  1  0.50055858  0.83260037  0.49885469  1
  Ni  Ni43  1  0.33528551  0.66525530  0.66703524  1
  Ni  Ni44  1  0.49750073  0.83386443  0.83037863  1
  Ni  Ni45  1  0.83074893  0.16513453  0.49995857  1
  Ni  Ni46  1  0.66486173  0.99877360  0.66515476  1
  Cr  Cr47  1  0.83392886  0.16632578  0.83200844  1
  Ni  Ni48  1  0.83060210  0.49980302  0.49876802  1
  Ni  Ni49  1  0.66384442  0.33235700  0.66404412  1
  Cr  Cr50  1  0.83040091  0.49700852  0.83316605  1
  Ni  Ni51  1  0.83099698  0.83378661  0.49849322  1
  Ni  Ni52  1  0.66370800  0.66766295  0.66586482  1
  Ni  Ni53  1  0.83355407  0.83501198  0.83127252  1
" 