4359,Ni72Fe2Cr25_17,-228.703382046563, 150.456119874378,Ni72Fe2Cr25,"# generated using pymatgen
 data_Cr15FeNi38
_symmetry_space_group_name_H-M   'P 1'
_cell_length_a   7.47885112
_cell_length_b   7.47885112
_cell_length_c   10.57669269
_cell_angle_alpha   90.00000000
_cell_angle_beta   90.00000000
_cell_angle_gamma   90.00000000
_symmetry_Int_Tables_number   1
_chemical_formula_structural   Cr15FeNi38
_chemical_formula_sum   'Cr15 Fe1 Ni38'
_cell_volume   591.58841657
_cell_formula_units_Z   1
loop_
 _symmetry_equiv_pos_site_id
 _symmetry_equiv_pos_as_xyz
  1  'x, y, z'
loop_
 _atom_site_type_symbol
 _atom_site_label
 _atom_site_symmetry_multiplicity
 _atom_site_fract_x
 _atom_site_fract_y
 _atom_site_fract_z
 _atom_site_occupancy
  Ni  Ni0  1  0.99571551  0.00286082  -0.00050698  1
  Ni  Ni1  1  0.16575930  0.16782655  0.16565601  1
  Ni  Ni2  1  -0.00000065  0.99814787  0.33298345  1
  Ni  Ni3  1  0.00003278  0.33185545  0.00054313  1
  Ni  Ni4  1  0.16430678  0.49511655  0.16511409  1
  Cr  Cr5  1  -0.00075527  0.33382822  0.33080728  1
  Cr  Cr6  1  0.99748981  0.66289772  0.99882206  1
  Cr  Cr7  1  0.16428989  0.83428278  0.16789578  1
  Ni  Ni8  1  0.99729784  0.66583614  0.33419862  1
  Cr  Cr9  1  0.33499774  0.00140309  -0.00010355  1
  Ni  Ni10  1  0.49855160  0.16596665  0.16820213  1
  Ni  Ni11  1  0.33212830  0.00339819  0.33292651  1
  Ni  Ni12  1  0.33037302  0.33256182  -0.00034233  1
  Cr  Cr13  1  0.49998460  0.49762958  0.16711148  1
  Ni  Ni14  1  0.33358630  0.32973662  0.33287797  1
  Cr  Cr15  1  0.33409161  0.66349575  0.99746629  1
  Cr  Cr16  1  0.50206318  0.83401699  0.16587178  1
  Cr  Cr17  1  0.33067736  0.66481022  0.33340095  1
  Ni  Ni18  1  0.66752807  -0.00069184  0.99757966  1
  Ni  Ni19  1  0.83331075  0.16558143  0.16528452  1
  Ni  Ni20  1  0.66551041  0.00093046  0.33158268  1
  Cr  Cr21  1  0.66732991  0.33128529  0.99837498  1
  Ni  Ni22  1  0.83373324  0.49845322  0.16713261  1
  Ni  Ni23  1  0.66420765  0.33240280  0.33260829  1
  Ni  Ni24  1  0.66685834  0.66694093  0.99686014  1
  Cr  Cr25  1  0.83128948  0.83311417  0.16671496  1
  Ni  Ni26  1  0.66945436  0.66430774  0.33358911  1
  Ni  Ni27  1  0.16942566  0.16454487  0.49868170  1
  Ni  Ni28  1  0.99844351  0.99641157  0.66516957  1
  Cr  Cr29  1  0.16522203  0.16781166  0.83299987  1
  Ni  Ni30  1  0.16695890  0.49961284  0.49996367  1
  Cr  Cr31  1  0.99829383  0.33428907  0.66655013  1
  Ni  Ni32  1  0.16713464  0.49839484  0.83257759  1
  Fe  Fe33  1  0.16360115  0.83314993  0.50010772  1
  Ni  Ni34  1  0.99863660  0.66667662  0.66464356  1
  Cr  Cr35  1  0.16494629  0.83220891  0.82968789  1
  Ni  Ni36  1  0.49649121  0.16748525  0.49870755  1
  Ni  Ni37  1  0.33369130  -0.00014867  0.66479817  1
  Ni  Ni38  1  0.50085996  0.16576543  0.83070518  1
  Ni  Ni39  1  0.49936270  0.49709885  0.49997578  1
  Ni  Ni40  1  0.33510914  0.33343816  0.66509946  1
  Ni  Ni41  1  0.49911800  0.49983984  0.83074722  1
  Cr  Cr42  1  0.50088528  0.83299148  0.49935786  1
  Ni  Ni43  1  0.33242406  0.66432845  0.66668025  1
  Ni  Ni44  1  0.50316300  0.83202245  0.83189534  1
  Cr  Cr45  1  0.83122375  0.16404982  0.49965019  1
  Ni  Ni46  1  0.66548576  0.99917570  0.66846408  1
  Ni  Ni47  1  0.83095358  0.16360487  0.83322933  1
  Ni  Ni48  1  0.83127223  0.50355318  0.49853786  1
  Ni  Ni49  1  0.66311997  0.33327739  0.66640803  1
  Ni  Ni50  1  0.83137812  0.50062692  0.83195990  1
  Ni  Ni51  1  0.83429060  0.83058211  0.49892030  1
  Ni  Ni52  1  0.66659038  0.66519446  0.66717581  1
  Ni  Ni53  1  0.82949363  0.83340599  0.83204157  1
" 