2893,Ni72Fe5Cr21_19,-231.240235659687, 159.368442571656,Ni72Fe5Cr21,"# generated using pymatgen
 data_Cr4FeNi13
_symmetry_space_group_name_H-M   'P 1'
_cell_length_a   7.47231775
_cell_length_b   7.47231775
_cell_length_c   10.56745310
_cell_angle_alpha   90.00000000
_cell_angle_beta   90.00000000
_cell_angle_gamma   90.00000000
_symmetry_Int_Tables_number   1
_chemical_formula_structural   Cr4FeNi13
_chemical_formula_sum   'Cr12 Fe3 Ni39'
_cell_volume   590.03937076
_cell_formula_units_Z   3
loop_
 _symmetry_equiv_pos_site_id
 _symmetry_equiv_pos_as_xyz
  1  'x, y, z'
loop_
 _atom_site_type_symbol
 _atom_site_label
 _atom_site_symmetry_multiplicity
 _atom_site_fract_x
 _atom_site_fract_y
 _atom_site_fract_z
 _atom_site_occupancy
  Ni  Ni0  1  0.99882556  0.00010651  0.00071262  1
  Ni  Ni1  1  0.16632185  0.16481320  0.16788203  1
  Ni  Ni2  1  0.00151962  0.99878478  0.33098039  1
  Ni  Ni3  1  0.99939006  0.33182647  0.99789039  1
  Cr  Cr4  1  0.16666327  0.49939929  0.16515932  1
  Fe  Fe5  1  0.00047510  0.33266887  0.33396496  1
  Ni  Ni6  1  0.00033692  0.66700797  0.99833899  1
  Ni  Ni7  1  0.16512106  0.83468876  0.16716553  1
  Ni  Ni8  1  0.00029077  0.66806943  0.33420247  1
  Cr  Cr9  1  0.33200828  0.00020125  0.00019583  1
  Ni  Ni10  1  0.50017787  0.16473656  0.16696773  1
  Ni  Ni11  1  0.33077258  -0.00001821  0.33163004  1
  Ni  Ni12  1  0.33235047  0.33246181  0.99874571  1
  Cr  Cr13  1  0.49900959  0.49947527  0.16607274  1
  Ni  Ni14  1  0.33309081  0.33198540  0.33376525  1
  Ni  Ni15  1  0.33106986  0.66604202  -0.00019399  1
  Ni  Ni16  1  0.50122430  0.83492031  0.16740984  1
  Ni  Ni17  1  0.33189724  0.66697433  0.33384193  1
  Ni  Ni18  1  0.66817054  0.00138672  0.00138678  1
  Fe  Fe19  1  0.83267979  0.16346877  0.16573279  1
  Ni  Ni20  1  0.66665120  -0.00002063  0.32934234  1
  Ni  Ni21  1  0.66720208  0.33095341  0.99841468  1
  Cr  Cr22  1  0.83326936  0.50035352  0.16612887  1
  Ni  Ni23  1  0.66555588  0.33321448  0.33331121  1
  Ni  Ni24  1  0.66753457  0.66660249  0.00084199  1
  Ni  Ni25  1  0.83259686  0.83503559  0.16651944  1
  Ni  Ni26  1  0.66675427  0.66574834  0.33322904  1
  Fe  Fe27  1  0.16744628  0.16759224  0.49897176  1
  Cr  Cr28  1  0.00215791  -0.00011716  0.66749075  1
  Ni  Ni29  1  0.16619323  0.16831724  0.83228502  1
  Ni  Ni30  1  0.16620511  0.50030422  0.49979550  1
  Ni  Ni31  1  -0.00005070  0.33559869  0.66684415  1
  Ni  Ni32  1  0.16434614  0.49917041  0.83329442  1
  Ni  Ni33  1  0.16698913  0.83104460  0.49879903  1
  Ni  Ni34  1  0.00109864  0.66323237  0.66639954  1
  Ni  Ni35  1  0.16596242  0.83145356  0.83297671  1
  Cr  Cr36  1  0.49865054  0.16720766  0.50065689  1
  Ni  Ni37  1  0.33241145  0.00034128  0.66688132  1
  Ni  Ni38  1  0.50062067  0.16709698  0.83189481  1
  Ni  Ni39  1  0.49920027  0.49928374  0.49926991  1
  Ni  Ni40  1  0.33207600  0.33275822  0.66643193  1
  Cr  Cr41  1  0.49909878  0.49808331  0.83358053  1
  Cr  Cr42  1  0.49849824  0.83226070  0.50031365  1
  Ni  Ni43  1  0.33069620  0.66584325  0.66529309  1
  Cr  Cr44  1  0.49922455  0.83414762  0.83151969  1
  Cr  Cr45  1  0.83297070  0.16788052  0.49873271  1
  Ni  Ni46  1  0.66430473  0.00149350  0.66821571  1
  Ni  Ni47  1  0.83212861  0.16871242  0.83445777  1
  Ni  Ni48  1  0.83353761  0.49961004  0.50019617  1
  Ni  Ni49  1  0.66691681  0.33388456  0.66721733  1
  Ni  Ni50  1  0.83519573  0.49755296  0.83225755  1
  Cr  Cr51  1  0.83344413  0.83126536  0.49941561  1
  Ni  Ni52  1  0.66714714  0.66356461  0.66487142  1
  Cr  Cr53  1  0.83352712  0.83248760  0.83325535  1
" 