4386,Ni72Fe7Cr20_5,-231.535244384548, 163.414230523789,Ni72Fe7Cr20,"# generated using pymatgen
 data_Cr4FeNi13
_symmetry_space_group_name_H-M   'P 1'
_cell_length_a   7.47147451
_cell_length_b   7.47147451
_cell_length_c   10.56626058
_cell_angle_alpha   90.00000000
_cell_angle_beta   90.00000000
_cell_angle_gamma   90.00000000
_symmetry_Int_Tables_number   1
_chemical_formula_structural   Cr4FeNi13
_chemical_formula_sum   'Cr12 Fe3 Ni39'
_cell_volume   589.83963824
_cell_formula_units_Z   3
loop_
 _symmetry_equiv_pos_site_id
 _symmetry_equiv_pos_as_xyz
  1  'x, y, z'
loop_
 _atom_site_type_symbol
 _atom_site_label
 _atom_site_symmetry_multiplicity
 _atom_site_fract_x
 _atom_site_fract_y
 _atom_site_fract_z
 _atom_site_occupancy
  Cr  Cr0  1  0.00165757  -0.00027123  0.99939327  1
  Ni  Ni1  1  0.16730356  0.16672320  0.16600908  1
  Ni  Ni2  1  0.99877311  0.00012562  0.33378590  1
  Cr  Cr3  1  0.00061842  0.33240663  0.00021275  1
  Ni  Ni4  1  0.16776816  0.50059718  0.16642962  1
  Ni  Ni5  1  0.99876815  0.33285086  0.33402063  1
  Ni  Ni6  1  0.00204027  0.66695780  0.00017810  1
  Ni  Ni7  1  0.16742125  0.83179089  0.16605848  1
  Ni  Ni8  1  0.00083518  0.66613508  0.33465167  1
  Ni  Ni9  1  0.33498657  0.99927516  0.99927088  1
  Ni  Ni10  1  0.50046724  0.16689876  0.16407951  1
  Cr  Cr11  1  0.33303699  0.99800873  0.33262472  1
  Ni  Ni12  1  0.33499071  0.33183420  0.00137132  1
  Ni  Ni13  1  0.49912308  0.49954358  0.16524201  1
  Cr  Cr14  1  0.33199872  0.33390881  0.33158649  1
  Ni  Ni15  1  0.33354237  0.66800267  0.00112133  1
  Ni  Ni16  1  0.49929522  0.83266922  0.16541715  1
  Ni  Ni17  1  0.33233487  0.66718769  0.33231699  1
  Ni  Ni18  1  0.66247043  0.00070630  0.99921085  1
  Fe  Fe19  1  0.83128586  0.16635957  0.16764527  1
  Ni  Ni20  1  0.66730161  -0.00022107  0.33399755  1
  Ni  Ni21  1  0.66351512  0.33144920  0.00003025  1
  Cr  Cr22  1  0.83221877  0.50006543  0.16652449  1
  Ni  Ni23  1  0.66835561  0.33214793  0.33294819  1
  Ni  Ni24  1  0.66352955  0.66695538  0.00054817  1
  Cr  Cr25  1  0.83261500  0.83320006  0.16691776  1
  Ni  Ni26  1  0.66594020  0.66718332  0.33358014  1
  Ni  Ni27  1  0.16508617  0.16652905  0.50162255  1
  Ni  Ni28  1  0.00151043  0.00038754  0.66594156  1
  Ni  Ni29  1  0.16809602  0.16454099  0.83147976  1
  Ni  Ni30  1  0.16291490  0.50010482  0.50029635  1
  Ni  Ni31  1  0.00046276  0.33200273  0.66488699  1
  Cr  Cr32  1  0.16665606  0.50013410  0.83220597  1
  Ni  Ni33  1  0.16435903  0.83247832  0.50049235  1
  Ni  Ni34  1  0.00177347  0.66672079  0.66428114  1
  Ni  Ni35  1  0.16793645  0.83442461  0.83255956  1
  Ni  Ni36  1  0.50108847  0.16491431  0.50185847  1
  Ni  Ni37  1  0.33284040  0.00052697  0.66705117  1
  Ni  Ni38  1  0.49990713  0.16471659  0.83317331  1
  Cr  Cr39  1  0.49992585  0.49877369  0.49940728  1
  Ni  Ni40  1  0.33179108  0.32976379  0.66599839  1
  Cr  Cr41  1  0.49941755  0.49804732  0.83426345  1
  Ni  Ni42  1  0.50076174  0.83514522  0.49944008  1
  Fe  Fe43  1  0.33042331  0.66899851  0.66548540  1
  Ni  Ni44  1  0.49796305  0.83635559  0.83425423  1
  Fe  Fe45  1  0.83330795  0.16603861  0.50012624  1
  Ni  Ni46  1  0.66475998  0.00183539  0.66590349  1
  Ni  Ni47  1  0.83110597  0.16615210  0.83157534  1
  Ni  Ni48  1  0.83560236  0.49977961  0.49912116  1
  Ni  Ni49  1  0.66685776  0.32950511  0.66613251  1
  Cr  Cr50  1  0.83303659  0.49883178  0.83347878  1
  Ni  Ni51  1  0.83398937  0.83297358  0.49877439  1
  Cr  Cr52  1  0.66680141  0.66779196  0.66514372  1
  Cr  Cr53  1  0.83343346  0.83403827  0.83387609  1
" 