7725,Ni72Fe9Cr17_17,-232.402314163011, 165.647629729122,Ni72Fe9Cr17,"# generated using pymatgen
 data_Cr11Fe4Ni39
_symmetry_space_group_name_H-M   'P 1'
_cell_length_a   7.46336127
_cell_length_b   7.46336127
_cell_length_c   10.55478673
_cell_angle_alpha   90.00000000
_cell_angle_beta   90.00000000
_cell_angle_gamma   90.00000000
_symmetry_Int_Tables_number   1
_chemical_formula_structural   Cr11Fe4Ni39
_chemical_formula_sum   'Cr11 Fe4 Ni39'
_cell_volume   587.92021279
_cell_formula_units_Z   1
loop_
 _symmetry_equiv_pos_site_id
 _symmetry_equiv_pos_as_xyz
  1  'x, y, z'
loop_
 _atom_site_type_symbol
 _atom_site_label
 _atom_site_symmetry_multiplicity
 _atom_site_fract_x
 _atom_site_fract_y
 _atom_site_fract_z
 _atom_site_occupancy
  Ni  Ni0  1  0.99737495  0.99971125  0.99944752  1
  Cr  Cr1  1  0.16516946  0.16497088  0.16905716  1
  Ni  Ni2  1  1.00006487  0.99802101  0.33234322  1
  Ni  Ni3  1  0.99627514  0.33378203  0.99900553  1
  Cr  Cr4  1  0.16457229  0.50178515  0.16877378  1
  Ni  Ni5  1  0.99887959  0.33582436  0.33311547  1
  Ni  Ni6  1  0.99709574  0.66724784  0.99959000  1
  Ni  Ni7  1  0.16468955  0.83399065  0.16826501  1
  Ni  Ni8  1  0.99987913  0.66689493  0.33471365  1
  Cr  Cr9  1  0.33464720  0.99973888  0.00040272  1
  Ni  Ni10  1  0.50342208  0.16564054  0.16887899  1
  Ni  Ni11  1  0.33541079  0.99892520  0.33343085  1
  Cr  Cr12  1  0.33421266  0.33237060  0.99780424  1
  Cr  Cr13  1  0.50327760  0.50021805  0.16829161  1
  Ni  Ni14  1  0.33422475  0.33254960  0.33465683  1
  Cr  Cr15  1  0.33392928  0.66863286  0.99888566  1
  Fe  Fe16  1  0.50267715  0.83533866  0.16873529  1
  Ni  Ni17  1  0.33232378  0.66926719  0.33446770  1
  Ni  Ni18  1  0.66892171  0.00042918  0.00034621  1
  Ni  Ni19  1  0.83194179  0.16625576  0.16611860  1
  Ni  Ni20  1  0.66526548  0.99992378  0.33267279  1
  Ni  Ni21  1  0.67011832  0.33296337  0.99939789  1
  Ni  Ni22  1  0.83299549  0.50074456  0.16674858  1
  Ni  Ni23  1  0.66763716  0.33273594  0.33261803  1
  Ni  Ni24  1  0.67001867  0.66734907  0.99966231  1
  Ni  Ni25  1  0.83430609  0.83374069  0.16704404  1
  Ni  Ni26  1  0.66853954  0.66808259  0.33313497  1
  Cr  Cr27  1  0.16886212  0.16570903  0.49873580  1
  Ni  Ni28  1  0.00073738  0.99710306  0.66895068  1
  Ni  Ni29  1  0.16618455  0.16598979  0.83297647  1
  Ni  Ni30  1  0.16610292  0.50370338  0.49951362  1
  Cr  Cr31  1  0.99990734  0.33536663  0.66809357  1
  Fe  Fe32  1  0.16617034  0.50050664  0.83233312  1
  Ni  Ni33  1  0.16737005  0.83148511  0.50064866  1
  Ni  Ni34  1  0.00231650  0.66836521  0.66643709  1
  Fe  Fe35  1  0.16508201  0.83417958  0.83175586  1
  Ni  Ni36  1  0.50019557  0.16522156  0.50065551  1
  Ni  Ni37  1  0.33479639  0.99977379  0.66751270  1
  Ni  Ni38  1  0.50093368  0.16750785  0.83120967  1
  Cr  Cr39  1  0.49967500  0.49950668  0.49970482  1
  Ni  Ni40  1  0.33537128  0.33309313  0.66858196  1
  Ni  Ni41  1  0.50096710  0.49964403  0.83266832  1
  Ni  Ni42  1  0.49841380  0.83547705  0.49878053  1
  Ni  Ni43  1  0.33103925  0.66787450  0.66767510  1
  Ni  Ni44  1  0.50091039  0.83358905  0.83345817  1
  Cr  Cr45  1  0.83150182  0.16625504  0.49990665  1
  Ni  Ni46  1  0.66520581  0.00143839  0.66772224  1
  Ni  Ni47  1  0.83362206  0.16604864  0.83511422  1
  Ni  Ni48  1  0.83528691  0.50192399  0.49798530  1
  Ni  Ni49  1  0.66471642  0.33151332  0.66872617  1
  Ni  Ni50  1  0.83303075  0.50054704  0.83600326  1
  Fe  Fe51  1  0.83454476  0.83267655  0.49940515  1
  Cr  Cr52  1  0.66797277  0.66755750  0.66717271  1
  Ni  Ni53  1  0.83454872  0.83414475  0.83399998  1
" 