3189,Ni72Fe28_15,-235.775534318941, 201.760480600446,Ni72Fe28,"# generated using pymatgen
 data_Fe19Ni8
_symmetry_space_group_name_H-M   'P 1'
_cell_length_a   7.39472130
_cell_length_b   7.39472130
_cell_length_c   10.45771516
_cell_angle_alpha   90.00000000
_cell_angle_beta   90.00000000
_cell_angle_gamma   90.00000000
_symmetry_Int_Tables_number   1
_chemical_formula_structural   Fe19Ni8
_chemical_formula_sum   'Fe38 Ni16'
_cell_volume   571.84776733
_cell_formula_units_Z   2
loop_
 _symmetry_equiv_pos_site_id
 _symmetry_equiv_pos_as_xyz
  1  'x, y, z'
loop_
 _atom_site_type_symbol
 _atom_site_label
 _atom_site_symmetry_multiplicity
 _atom_site_fract_x
 _atom_site_fract_y
 _atom_site_fract_z
 _atom_site_occupancy
  Fe  Fe0  1  0.00504623  0.00497848  1.00480670  1
  Ni  Ni1  1  0.17120336  0.17069680  0.17193746  1
  Fe  Fe2  1  0.00512445  1.00430360  0.33830703  1
  Fe  Fe3  1  0.00489158  0.33806229  1.00488896  1
  Fe  Fe4  1  0.17118187  0.50509616  0.17127264  1
  Fe  Fe5  1  1.00467844  0.33843490  0.33784453  1
  Fe  Fe6  1  1.00473725  0.67162844  0.00562950  1
  Fe  Fe7  1  0.17119814  0.83742487  0.17193427  1
  Ni  Ni8  1  0.00639289  0.67060476  0.33860509  1
  Fe  Fe9  1  0.33857783  1.00453548  0.00505221  1
  Fe  Fe10  1  0.50539156  0.17154218  0.17213496  1
  Fe  Fe11  1  0.33800146  1.00446739  0.33814379  1
  Fe  Fe12  1  0.33842579  0.33820026  1.00476118  1
  Fe  Fe13  1  0.50430746  0.50474469  0.17155823  1
  Fe  Fe14  1  0.33843749  0.33827050  0.33843640  1
  Ni  Ni15  1  0.33745247  0.67061197  1.00454264  1
  Fe  Fe16  1  0.50489492  0.83838759  0.17089882  1
  Ni  Ni17  1  0.33692028  0.67060855  0.33858454  1
  Ni  Ni18  1  0.67231216  0.00619125  1.00394466  1
  Fe  Fe19  1  0.83821957  0.17155827  0.17139280  1
  Ni  Ni20  1  0.67210844  0.00659489  0.33889292  1
  Fe  Fe21  1  0.67135366  0.33851198  1.00475603  1
  Ni  Ni22  1  0.83808995  0.50546180  0.17155209  1
  Fe  Fe23  1  0.67155465  0.33887813  0.33872967  1
  Fe  Fe24  1  0.67090978  0.67178165  1.00418342  1
  Fe  Fe25  1  0.83857987  0.83851354  0.17185630  1
  Fe  Fe26  1  0.67171595  0.67148935  0.33863453  1
  Fe  Fe27  1  0.17205196  0.17205357  0.50439682  1
  Fe  Fe28  1  1.00454382  1.00441209  0.67155587  1
  Fe  Fe29  1  0.17196088  0.17206788  0.83879912  1
  Fe  Fe30  1  0.17219337  0.50453356  0.50517773  1
  Fe  Fe31  1  1.00467139  0.33883220  0.67193739  1
  Ni  Ni32  1  0.17248915  0.50562743  0.83876886  1
  Fe  Fe33  1  0.17218609  0.83807846  0.50459854  1
  Fe  Fe34  1  0.00510498  0.67142265  0.67119100  1
  Fe  Fe35  1  0.17240924  0.83728874  0.83814043  1
  Ni  Ni36  1  0.50562714  0.17166336  0.50511089  1
  Fe  Fe37  1  0.33889758  1.00396758  0.67147657  1
  Fe  Fe38  1  0.50512218  0.17176098  0.83810181  1
  Ni  Ni39  1  0.50441625  0.50566870  0.50439678  1
  Fe  Fe40  1  0.33906393  0.33957409  0.67147911  1
  Ni  Ni41  1  0.50377330  0.50685192  0.83871501  1
  Fe  Fe42  1  0.50538049  0.83845605  0.50537962  1
  Ni  Ni43  1  0.33859963  0.67080940  0.67154326  1
  Ni  Ni44  1  0.50460581  0.83701325  0.83774633  1
  Ni  Ni45  1  0.83825735  0.17081435  0.50327906  1
  Fe  Fe46  1  0.67123376  1.00440535  0.67156129  1
  Ni  Ni47  1  0.83879331  0.17081435  0.83907496  1
  Fe  Fe48  1  0.83738507  0.50430971  0.50423094  1
  Fe  Fe49  1  0.67093762  0.33900991  0.67118360  1
  Fe  Fe50  1  0.83767929  0.50508440  0.83858900  1
  Fe  Fe51  1  0.83710488  0.83859582  0.50459218  1
  Ni  Ni52  1  0.67051446  0.67156407  0.67155100  1
  Fe  Fe53  1  0.83737123  0.83782203  0.83822313  1
" 