7530,Ni72Fe28_3,-235.924383308913, 202.667384302611,Ni72Fe28,"# generated using pymatgen
 data_Fe19Ni8
_symmetry_space_group_name_H-M   'P 1'
_cell_length_a   7.39905257
_cell_length_b   7.39905257
_cell_length_c   10.46384050
_cell_angle_alpha   90.00000000
_cell_angle_beta   90.00000000
_cell_angle_gamma   90.00000000
_symmetry_Int_Tables_number   1
_chemical_formula_structural   Fe19Ni8
_chemical_formula_sum   'Fe38 Ni16'
_cell_volume   572.85319175
_cell_formula_units_Z   2
loop_
 _symmetry_equiv_pos_site_id
 _symmetry_equiv_pos_as_xyz
  1  'x, y, z'
loop_
 _atom_site_type_symbol
 _atom_site_label
 _atom_site_symmetry_multiplicity
 _atom_site_fract_x
 _atom_site_fract_y
 _atom_site_fract_z
 _atom_site_occupancy
  Ni  Ni0  1  1.00458629  1.00326182  1.00414352  1
  Fe  Fe1  1  0.16917375  0.17061619  0.17139119  1
  Ni  Ni2  1  0.00502963  1.00386852  0.33925484  1
  Fe  Fe3  1  0.00494399  0.33805443  0.00518599  1
  Fe  Fe4  1  0.17027776  0.50527566  0.17120710  1
  Ni  Ni5  1  1.00318552  0.33766487  0.33676862  1
  Ni  Ni6  1  0.00537209  0.67246814  0.00475406  1
  Fe  Fe7  1  0.16924833  0.83783751  0.17211492  1
  Fe  Fe8  1  1.00334215  0.66979835  0.33762767  1
  Fe  Fe9  1  0.33718200  0.00559930  1.00397845  1
  Fe  Fe10  1  0.50667840  0.17199910  0.17097655  1
  Fe  Fe11  1  0.33739362  0.00626378  0.33897304  1
  Ni  Ni12  1  0.33915822  0.33857076  0.00515327  1
  Fe  Fe13  1  0.50602604  0.50475593  0.17122146  1
  Fe  Fe14  1  0.33621251  0.33699180  0.33720782  1
  Fe  Fe15  1  0.33740679  0.67099516  1.00362864  1
  Fe  Fe16  1  0.50535954  0.83721802  0.17168633  1
  Fe  Fe17  1  0.33667979  0.67055581  0.33945391  1
  Fe  Fe18  1  0.67191657  0.00480361  1.00383559  1
  Fe  Fe19  1  0.83793322  0.17080263  0.17128714  1
  Fe  Fe20  1  0.67274096  0.00555702  0.33860662  1
  Ni  Ni21  1  0.67072161  0.33793984  1.00419232  1
  Ni  Ni22  1  0.83744343  0.50457098  0.16953056  1
  Ni  Ni23  1  0.67118534  0.33892685  0.33889611  1
  Fe  Fe24  1  0.67228275  0.67088938  0.00481344  1
  Ni  Ni25  1  0.83739431  0.83787408  0.17123089  1
  Fe  Fe26  1  0.67364983  0.67049212  0.33765601  1
  Ni  Ni27  1  0.17281087  0.17110489  0.50531892  1
  Fe  Fe28  1  0.00573157  1.00392853  0.67110092  1
  Fe  Fe29  1  0.17147399  0.17115122  0.83786351  1
  Ni  Ni30  1  0.16985127  0.50397475  0.50442659  1
  Fe  Fe31  1  0.00554905  0.33749365  0.66967483  1
  Fe  Fe32  1  0.17138341  0.50475065  0.83778039  1
  Ni  Ni33  1  0.17196491  0.83822898  0.50485018  1
  Fe  Fe34  1  0.00492644  0.67233035  0.67136011  1
  Fe  Fe35  1  0.17125742  0.83774907  0.83724404  1
  Fe  Fe36  1  0.50413412  0.17201063  0.50502196  1
  Ni  Ni37  1  0.33855753  1.00350688  0.67145076  1
  Fe  Fe38  1  0.50484920  0.17103469  0.83779269  1
  Fe  Fe39  1  0.50248059  0.50466561  0.50460299  1
  Fe  Fe40  1  0.33797576  0.33694728  0.67200929  1
  Fe  Fe41  1  0.50426597  0.50463602  0.83818079  1
  Fe  Fe42  1  0.50341541  0.83709969  0.50556601  1
  Ni  Ni43  1  0.33680569  0.67046742  0.67140781  1
  Fe  Fe44  1  0.50460179  0.83819281  0.83646124  1
  Fe  Fe45  1  0.84047833  0.17227404  0.50426916  1
  Ni  Ni46  1  0.67205398  0.00541288  0.67001109  1
  Fe  Fe47  1  0.83765589  0.17104326  0.83790966  1
  Ni  Ni48  1  0.83711987  0.50494858  0.50550055  1
  Fe  Fe49  1  0.67006643  0.33795630  0.67114261  1
  Fe  Fe50  1  0.83813567  0.50447959  0.83846533  1
  Fe  Fe51  1  0.84004240  0.83787025  0.50410516  1
  Fe  Fe52  1  0.67022229  0.67277610  0.67105814  1
  Fe  Fe53  1  0.83778747  0.83843600  0.83877095  1
" 