5741,Ni72Fe5Cr21_11,-231.466758034173, 162.834459354483,Ni72Fe5Cr21,"# generated using pymatgen
 data_Cr4FeNi13
_symmetry_space_group_name_H-M   'P 1'
_cell_length_a   7.46899091
_cell_length_b   7.46899091
_cell_length_c   10.56274824
_cell_angle_alpha   90.00000000
_cell_angle_beta   90.00000000
_cell_angle_gamma   90.00000000
_symmetry_Int_Tables_number   1
_chemical_formula_structural   Cr4FeNi13
_chemical_formula_sum   'Cr12 Fe3 Ni39'
_cell_volume   589.25162653
_cell_formula_units_Z   3
loop_
 _symmetry_equiv_pos_site_id
 _symmetry_equiv_pos_as_xyz
  1  'x, y, z'
loop_
 _atom_site_type_symbol
 _atom_site_label
 _atom_site_symmetry_multiplicity
 _atom_site_fract_x
 _atom_site_fract_y
 _atom_site_fract_z
 _atom_site_occupancy
  Ni  Ni0  1  0.00127496  0.00116550  0.00072865  1
  Ni  Ni1  1  0.16772805  0.16406273  0.16500177  1
  Cr  Cr2  1  0.00282295  0.99861348  0.33239292  1
  Ni  Ni3  1  0.99906450  0.33232137  0.99872588  1
  Cr  Cr4  1  0.16593934  0.50106742  0.16526943  1
  Cr  Cr5  1  0.00002777  0.33434638  0.33280056  1
  Ni  Ni6  1  0.00148623  0.66612620  0.00004567  1
  Ni  Ni7  1  0.16730312  0.83440982  0.16595432  1
  Ni  Ni8  1  0.99864332  0.66683728  0.33405429  1
  Ni  Ni9  1  0.33241929  0.99897847  0.00128351  1
  Ni  Ni10  1  0.49979746  0.16502449  0.16627637  1
  Ni  Ni11  1  0.33356222  -0.00004148  0.33275849  1
  Ni  Ni12  1  0.33122487  0.33109268  -0.00002824  1
  Cr  Cr13  1  0.50019503  0.49888532  0.16755527  1
  Ni  Ni14  1  0.33495776  0.33141700  0.33524341  1
  Ni  Ni15  1  0.33095215  0.66956393  0.99818145  1
  Ni  Ni16  1  0.49808056  0.83547194  0.16587182  1
  Ni  Ni17  1  0.33386507  0.66823566  0.33503125  1
  Ni  Ni18  1  0.66593586  0.00141563  0.00119460  1
  Ni  Ni19  1  0.83211463  0.16736699  0.16287766  1
  Cr  Cr20  1  0.66397487  0.99911484  0.33232631  1
  Ni  Ni21  1  0.66935377  0.33089773  0.00101127  1
  Ni  Ni22  1  0.83321482  0.49945242  0.16695393  1
  Ni  Ni23  1  0.66472195  0.33559078  0.33308934  1
  Cr  Cr24  1  0.66663378  0.66695706  0.00077447  1
  Fe  Fe25  1  0.83425516  0.83305704  0.16610732  1
  Ni  Ni26  1  0.66709587  0.66539540  0.33410191  1
  Ni  Ni27  1  0.16913657  0.16783847  0.50029292  1
  Ni  Ni28  1  0.99985166  0.00034743  0.66649561  1
  Ni  Ni29  1  0.16428815  0.16733874  0.83429236  1
  Ni  Ni30  1  0.16746721  0.50042573  0.50115063  1
  Ni  Ni31  1  0.00059274  0.33394937  0.66789655  1
  Ni  Ni32  1  0.16447481  0.50000362  0.83327479  1
  Fe  Fe33  1  0.16670184  0.83107388  0.49975979  1
  Ni  Ni34  1  0.00172728  0.66530342  0.66547499  1
  Ni  Ni35  1  0.16662840  0.83225960  0.83374297  1
  Ni  Ni36  1  0.49812448  0.16792411  0.49924755  1
  Cr  Cr37  1  0.33275679  0.99894715  0.66541637  1
  Cr  Cr38  1  0.50091912  0.16575075  0.83384413  1
  Ni  Ni39  1  0.49868597  0.49927454  0.49888561  1
  Ni  Ni40  1  0.33123828  0.33450617  0.66440572  1
  Cr  Cr41  1  0.49776419  0.49960740  0.83343843  1
  Ni  Ni42  1  0.49995299  0.83243227  0.49947249  1
  Ni  Ni43  1  0.33106912  0.66576428  0.66640901  1
  Ni  Ni44  1  0.49772295  0.83441124  0.83427308  1
  Cr  Cr45  1  0.83247538  0.16629263  0.50393582  1
  Ni  Ni46  1  0.66726968  0.00045167  0.66596551  1
  Fe  Fe47  1  0.83517702  0.16777351  0.83348237  1
  Ni  Ni48  1  0.83345358  0.50219053  0.49948160  1
  Ni  Ni49  1  0.66782578  0.33260507  0.66553359  1
  Ni  Ni50  1  0.83696622  0.49727550  0.83318242  1
  Ni  Ni51  1  0.83358013  0.83077130  0.50005816  1
  Cr  Cr52  1  0.66579668  0.66649743  0.66510046  1
  Cr  Cr53  1  0.83468269  0.83513320  0.83287854  1
" 