1111,Ni72Fe5Cr21_10,-231.645538229191, 165.063355977946,Ni72Fe5Cr21,"# generated using pymatgen
 data_Cr4FeNi13
_symmetry_space_group_name_H-M   'P 1'
_cell_length_a   7.46842859
_cell_length_b   7.46842859
_cell_length_c   10.56195300
_cell_angle_alpha   90.00000000
_cell_angle_beta   90.00000000
_cell_angle_gamma   90.00000000
_symmetry_Int_Tables_number   1
_chemical_formula_structural   Cr4FeNi13
_chemical_formula_sum   'Cr12 Fe3 Ni39'
_cell_volume   589.11854752
_cell_formula_units_Z   3
loop_
 _symmetry_equiv_pos_site_id
 _symmetry_equiv_pos_as_xyz
  1  'x, y, z'
loop_
 _atom_site_type_symbol
 _atom_site_label
 _atom_site_symmetry_multiplicity
 _atom_site_fract_x
 _atom_site_fract_y
 _atom_site_fract_z
 _atom_site_occupancy
  Cr  Cr0  1  0.00043246  0.99959198  -0.00008889  1
  Ni  Ni1  1  0.16586824  0.16315010  0.16804113  1
  Ni  Ni2  1  -0.00007296  0.00125065  0.33323736  1
  Ni  Ni3  1  0.99856081  0.33146743  0.00017860  1
  Cr  Cr4  1  0.16572125  0.50164204  0.16475432  1
  Ni  Ni5  1  0.99826395  0.32990209  0.33469177  1
  Ni  Ni6  1  0.00127009  0.66867384  0.99974128  1
  Ni  Ni7  1  0.16828631  0.83496323  0.16608198  1
  Cr  Cr8  1  0.99913006  0.66888051  0.33435393  1
  Ni  Ni9  1  0.33452159  0.99847186  0.00029798  1
  Ni  Ni10  1  0.50208946  0.16301522  0.16608547  1
  Ni  Ni11  1  0.33315906  0.99841573  0.33232107  1
  Cr  Cr12  1  0.33405684  0.32962899  0.99872770  1
  Cr  Cr13  1  0.50060626  0.50025439  0.16744958  1
  Cr  Cr14  1  0.33288471  0.33113934  0.33523566  1
  Ni  Ni15  1  0.33252891  0.67037656  0.99854693  1
  Fe  Fe16  1  0.49908311  0.83671384  0.16753912  1
  Ni  Ni17  1  0.33523153  0.66969397  0.33515583  1
  Ni  Ni18  1  0.66506230  0.00148240  0.99936234  1
  Ni  Ni19  1  0.83168804  0.16532981  0.16716829  1
  Ni  Ni20  1  0.66666650  0.99958955  0.33312290  1
  Ni  Ni21  1  0.66684273  0.32969874  0.99893144  1
  Cr  Cr22  1  0.83342369  0.49764074  0.16627723  1
  Ni  Ni23  1  0.66769971  0.33206377  0.33464203  1
  Cr  Cr24  1  0.66654326  0.66929895  0.99877460  1
  Ni  Ni25  1  0.83326240  0.83643607  0.16745476  1
  Ni  Ni26  1  0.66512366  0.66811472  0.33512473  1
  Fe  Fe27  1  0.16574103  0.16521599  0.50093095  1
  Ni  Ni28  1  0.00057046  0.99912259  0.66671851  1
  Ni  Ni29  1  0.16688594  0.16472948  0.83129301  1
  Ni  Ni30  1  0.16649099  0.50082250  0.50157576  1
  Ni  Ni31  1  0.00254835  0.33182478  0.66487154  1
  Cr  Cr32  1  0.16677535  0.50133043  0.83337075  1
  Ni  Ni33  1  0.16759361  0.83304035  0.50066892  1
  Ni  Ni34  1  0.00093587  0.66866998  0.66548803  1
  Ni  Ni35  1  0.16778480  0.83387301  0.83298299  1
  Ni  Ni36  1  0.50090873  0.16480402  0.49993736  1
  Ni  Ni37  1  0.33278003  0.00089236  0.66710626  1
  Ni  Ni38  1  0.50030871  0.16430120  0.83374332  1
  Ni  Ni39  1  0.49852329  0.50036315  0.49887849  1
  Ni  Ni40  1  0.33223560  0.33180111  0.66603571  1
  Ni  Ni41  1  0.49781250  0.49965520  0.83334146  1
  Ni  Ni42  1  0.49856188  0.83463856  0.49794175  1
  Fe  Fe43  1  0.33222995  0.66794263  0.66556543  1
  Ni  Ni44  1  0.49783547  0.83587610  0.83409885  1
  Ni  Ni45  1  0.83314378  0.16587117  0.49863732  1
  Ni  Ni46  1  0.66635711  0.99919039  0.66724060  1
  Ni  Ni47  1  0.83249359  0.16466829  0.83392804  1
  Ni  Ni48  1  0.83464256  0.49845014  0.49824139  1
  Cr  Cr49  1  0.66454216  0.33186647  0.66641021  1
  Cr  Cr50  1  0.83494807  0.49843376  0.83524709  1
  Ni  Ni51  1  0.83355945  0.83542102  0.50009419  1
  Cr  Cr52  1  0.66677501  0.66900801  0.66532317  1
  Ni  Ni53  1  0.83408921  0.83630829  0.83212721  1
" 