7307,Ni72Fe28_16,-235.770546381436, 201.114071772943,Ni72Fe28,"# generated using pymatgen
 data_Fe19Ni8
_symmetry_space_group_name_H-M   'P 1'
_cell_length_a   7.39720731
_cell_length_b   7.39720731
_cell_length_c   10.46123090
_cell_angle_alpha   90.00000000
_cell_angle_beta   90.00000000
_cell_angle_gamma   90.00000000
_symmetry_Int_Tables_number   1
_chemical_formula_structural   Fe19Ni8
_chemical_formula_sum   'Fe38 Ni16'
_cell_volume   572.42470440
_cell_formula_units_Z   2
loop_
 _symmetry_equiv_pos_site_id
 _symmetry_equiv_pos_as_xyz
  1  'x, y, z'
loop_
 _atom_site_type_symbol
 _atom_site_label
 _atom_site_symmetry_multiplicity
 _atom_site_fract_x
 _atom_site_fract_y
 _atom_site_fract_z
 _atom_site_occupancy
  Fe  Fe0  1  0.00519453  0.00520570  0.00472202  1
  Fe  Fe1  1  0.17305383  0.17117951  0.17093970  1
  Fe  Fe2  1  0.00550675  1.00451431  0.33816007  1
  Ni  Ni3  1  0.00645750  0.33959834  0.00489636  1
  Fe  Fe4  1  0.17248434  0.50501661  0.17028939  1
  Fe  Fe5  1  0.00496796  0.33741786  0.33780345  1
  Ni  Ni6  1  1.00454024  0.67030978  0.00488546  1
  Ni  Ni7  1  0.17117355  0.83868979  0.17090647  1
  Fe  Fe8  1  0.00548764  0.67223077  0.33743764  1
  Fe  Fe9  1  0.33743622  0.00506092  0.00577785  1
  Ni  Ni10  1  0.50499739  0.17141454  0.17174496  1
  Ni  Ni11  1  0.33880425  0.00508989  0.33804417  1
  Ni  Ni12  1  0.33680077  0.33804661  0.00591375  1
  Ni  Ni13  1  0.50536579  0.50443519  0.17071046  1
  Fe  Fe14  1  0.33876284  0.33785426  0.33808083  1
  Fe  Fe15  1  0.33755924  0.67104911  0.00529270  1
  Ni  Ni16  1  0.50415586  0.83831067  0.17210525  1
  Fe  Fe17  1  0.33839587  0.67195674  0.33771197  1
  Ni  Ni18  1  0.67090029  1.00388582  0.00565214  1
  Fe  Fe19  1  0.83700765  0.17083116  0.17120349  1
  Fe  Fe20  1  0.67071362  0.00487677  0.33763803  1
  Fe  Fe21  1  0.67182022  0.33831828  0.00524098  1
  Fe  Fe22  1  0.83765550  0.50528119  0.17065075  1
  Fe  Fe23  1  0.67043767  0.33786596  0.33792382  1
  Fe  Fe24  1  0.67166810  0.67055545  1.00444357  1
  Fe  Fe25  1  0.83701072  0.83804865  0.17104885  1
  Fe  Fe26  1  0.67027871  0.67141979  0.33856272  1
  Fe  Fe27  1  0.17220600  0.17194632  0.50520190  1
  Fe  Fe28  1  1.00451597  0.00492857  0.67127802  1
  Ni  Ni29  1  0.17114568  0.17136776  0.83817593  1
  Fe  Fe30  1  0.17193290  0.50443673  0.50541008  1
  Fe  Fe31  1  1.00430179  0.33810020  0.67241320  1
  Ni  Ni32  1  0.17033155  0.50400290  0.83770096  1
  Fe  Fe33  1  0.17192098  0.83777910  0.50371570  1
  Fe  Fe34  1  1.00423356  0.67113099  0.67220368  1
  Fe  Fe35  1  0.17054474  0.83728175  0.83866811  1
  Fe  Fe36  1  0.50451145  0.17159894  0.50444926  1
  Fe  Fe37  1  0.33866712  0.00478832  0.67095919  1
  Fe  Fe38  1  0.50422460  0.17219205  0.83845577  1
  Ni  Ni39  1  0.50526258  0.50472929  0.50537859  1
  Ni  Ni40  1  0.33692154  0.33814095  0.67057372  1
  Fe  Fe41  1  0.50386296  0.50402517  0.83752762  1
  Fe  Fe42  1  0.50508472  0.83784191  0.50460194  1
  Fe  Fe43  1  0.33911279  0.67111093  0.67115452  1
  Fe  Fe44  1  0.50510195  0.83794237  0.83809221  1
  Fe  Fe45  1  0.83744359  0.17158334  0.50476974  1
  Ni  Ni46  1  0.67149435  1.00337277  0.67010858  1
  Fe  Fe47  1  0.83881021  0.17191323  0.83818836  1
  Fe  Fe48  1  0.83751162  0.50501033  0.50525286  1
  Fe  Fe49  1  0.67095831  0.33854599  0.67099524  1
  Ni  Ni50  1  0.83827611  0.50481681  0.83734310  1
  Fe  Fe51  1  0.83716340  0.83756906  0.50528927  1
  Ni  Ni52  1  0.67222414  0.67265460  0.67140251  1
  Fe  Fe53  1  0.83851728  0.83764485  0.83782201  1
" 