4381,Ni72Fe5Cr21_5,-231.455788803608, 162.819977174922,Ni72Fe5Cr21,"# generated using pymatgen
 data_Cr4FeNi13
_symmetry_space_group_name_H-M   'P 1'
_cell_length_a   7.46729685
_cell_length_b   7.46729685
_cell_length_c   10.56035248
_cell_angle_alpha   90.00000000
_cell_angle_beta   90.00000000
_cell_angle_gamma   90.00000000
_symmetry_Int_Tables_number   1
_chemical_formula_structural   Cr4FeNi13
_chemical_formula_sum   'Cr12 Fe3 Ni39'
_cell_volume   588.85076889
_cell_formula_units_Z   3
loop_
 _symmetry_equiv_pos_site_id
 _symmetry_equiv_pos_as_xyz
  1  'x, y, z'
loop_
 _atom_site_type_symbol
 _atom_site_label
 _atom_site_symmetry_multiplicity
 _atom_site_fract_x
 _atom_site_fract_y
 _atom_site_fract_z
 _atom_site_occupancy
  Ni  Ni0  1  0.99922040  0.00006475  0.99902412  1
  Cr  Cr1  1  0.16361539  0.16809648  0.16451297  1
  Ni  Ni2  1  0.99822880  0.99919596  0.33255497  1
  Ni  Ni3  1  0.99724414  0.33263243  0.99859283  1
  Ni  Ni4  1  0.16630070  0.50134298  0.16861703  1
  Ni  Ni5  1  0.99708087  0.33472199  0.33383132  1
  Cr  Cr6  1  0.00175536  0.66697155  0.00097148  1
  Ni  Ni7  1  0.16603334  0.83213288  0.16560129  1
  Ni  Ni8  1  0.00017575  0.66620696  0.33239623  1
  Ni  Ni9  1  0.33435728  0.99786145  0.99871644  1
  Ni  Ni10  1  0.50352051  0.16709275  0.16633077  1
  Cr  Cr11  1  0.33229490  0.99853053  0.33066569  1
  Cr  Cr12  1  0.33548174  0.33427541  0.00056163  1
  Ni  Ni13  1  0.50048399  0.50035179  0.16802248  1
  Ni  Ni14  1  0.33406588  0.33602221  0.33153685  1
  Ni  Ni15  1  0.33335073  0.66877476  0.00029654  1
  Ni  Ni16  1  0.50101507  0.83248980  0.16557033  1
  Ni  Ni17  1  0.33187137  0.66628581  0.33109239  1
  Ni  Ni18  1  0.66640491  0.00131234  0.00101638  1
  Ni  Ni19  1  0.83208242  0.16641766  0.16588796  1
  Fe  Fe20  1  0.66837356  0.00053617  0.33073578  1
  Ni  Ni21  1  0.66813646  0.33125028  0.00013807  1
  Ni  Ni22  1  0.83344349  0.49835153  0.16720767  1
  Ni  Ni23  1  0.66909065  0.33379485  0.33104756  1
  Cr  Cr24  1  0.66560537  0.66562577  0.99909112  1
  Ni  Ni25  1  0.83322545  0.83471804  0.16824030  1
  Ni  Ni26  1  0.66798889  0.66420444  0.33080207  1
  Cr  Cr27  1  0.16506388  0.16812285  0.50158196  1
  Ni  Ni28  1  0.00006368  0.00095136  0.66791942  1
  Ni  Ni29  1  0.16541768  0.16676393  0.83269707  1
  Ni  Ni30  1  0.16548194  0.50030288  0.49880141  1
  Ni  Ni31  1  0.00052858  0.33235618  0.66738534  1
  Ni  Ni32  1  0.16786543  0.49804759  0.83289164  1
  Ni  Ni33  1  0.16587907  0.83178323  0.50049673  1
  Cr  Cr34  1  0.99990111  0.66567887  0.66701666  1
  Ni  Ni35  1  0.16698400  0.83487502  0.83363538  1
  Cr  Cr36  1  0.50155487  0.16701713  0.49952602  1
  Ni  Ni37  1  0.33258614  0.99925699  0.66975399  1
  Ni  Ni38  1  0.49959758  0.16543146  0.83370312  1
  Cr  Cr39  1  0.49896318  0.50135589  0.49971938  1
  Ni  Ni40  1  0.33174979  0.33365137  0.66843930  1
  Ni  Ni41  1  0.49853650  0.50053827  0.83243679  1
  Cr  Cr42  1  0.50028392  0.83145077  0.50288151  1
  Ni  Ni43  1  0.33233355  0.66693403  0.66887271  1
  Ni  Ni44  1  0.50073779  0.83392485  0.83207720  1
  Ni  Ni45  1  0.83507554  0.16729963  0.49958191  1
  Ni  Ni46  1  0.66748928  0.00010917  0.66832242  1
  Fe  Fe47  1  0.83409013  0.16484710  0.83477460  1
  Ni  Ni48  1  0.83459459  0.49858710  0.49912715  1
  Cr  Cr49  1  0.66871949  0.33353015  0.66895339  1
  Fe  Fe50  1  0.83394874  0.49950180  0.83416042  1
  Cr  Cr51  1  0.83274005  0.83372253  0.49878213  1
  Ni  Ni52  1  0.66634375  0.66718965  0.66988073  1
  Ni  Ni53  1  0.83212110  0.83660745  0.83261818  1
" 