1059,Ni72Fe5Cr21_9,-231.231223143275, 160.172400272178,Ni72Fe5Cr21,"# generated using pymatgen
 data_Cr4FeNi13
_symmetry_space_group_name_H-M   'P 1'
_cell_length_a   7.47143633
_cell_length_b   7.47143633
_cell_length_c   10.56620660
_cell_angle_alpha   90.00000000
_cell_angle_beta   90.00000000
_cell_angle_gamma   90.00000000
_symmetry_Int_Tables_number   1
_chemical_formula_structural   Cr4FeNi13
_chemical_formula_sum   'Cr12 Fe3 Ni39'
_cell_volume   589.83059794
_cell_formula_units_Z   3
loop_
 _symmetry_equiv_pos_site_id
 _symmetry_equiv_pos_as_xyz
  1  'x, y, z'
loop_
 _atom_site_type_symbol
 _atom_site_label
 _atom_site_symmetry_multiplicity
 _atom_site_fract_x
 _atom_site_fract_y
 _atom_site_fract_z
 _atom_site_occupancy
  Ni  Ni0  1  0.99963195  0.00064702  -0.00016498  1
  Cr  Cr1  1  0.16671222  0.16605522  0.16511168  1
  Ni  Ni2  1  0.99736011  0.99873959  0.33253373  1
  Ni  Ni3  1  0.99838283  0.33138485  0.99828274  1
  Cr  Cr4  1  0.16520039  0.49967133  0.16788665  1
  Ni  Ni5  1  0.99768772  0.33313760  0.33288465  1
  Ni  Ni6  1  0.99782630  0.66708758  0.00138217  1
  Ni  Ni7  1  0.16426456  0.83341703  0.16667410  1
  Ni  Ni8  1  0.00085980  0.66724209  0.33177392  1
  Ni  Ni9  1  0.33218855  0.00120694  0.00119077  1
  Ni  Ni10  1  0.50196404  0.16685412  0.16550602  1
  Cr  Cr11  1  0.33442558  0.99747548  0.33262704  1
  Ni  Ni12  1  0.33407372  0.33145891  0.99822836  1
  Ni  Ni13  1  0.50279508  0.49894440  0.16716967  1
  Ni  Ni14  1  0.33544594  0.33560783  0.33383022  1
  Cr  Cr15  1  0.33394900  0.66618441  0.00014827  1
  Ni  Ni16  1  0.50197601  0.83332157  0.16642288  1
  Ni  Ni17  1  0.33338149  0.66587884  0.33443963  1
  Fe  Fe18  1  0.66759534  0.00089460  0.00224110  1
  Ni  Ni19  1  0.83129410  0.16599155  0.16703058  1
  Ni  Ni20  1  0.66734813  0.00080150  0.33185318  1
  Ni  Ni21  1  0.66666313  0.33326492  0.00114996  1
  Ni  Ni22  1  0.83119675  0.50054359  0.16602219  1
  Ni  Ni23  1  0.66598515  0.33210895  0.33230207  1
  Ni  Ni24  1  0.66722228  0.66520318  0.00173010  1
  Ni  Ni25  1  0.83287826  0.83258406  0.16600235  1
  Ni  Ni26  1  0.66487737  0.66620928  0.33119175  1
  Cr  Cr27  1  0.16669453  0.16751057  0.50002892  1
  Fe  Fe28  1  -0.00009471  0.00113819  0.66675204  1
  Ni  Ni29  1  0.16501518  0.16857371  0.83348039  1
  Ni  Ni30  1  0.16785001  0.50090932  0.50001006  1
  Ni  Ni31  1  0.00028561  0.33253117  0.66794997  1
  Ni  Ni32  1  0.16666161  0.49643255  0.83161385  1
  Ni  Ni33  1  0.16708273  0.83099475  0.50039277  1
  Ni  Ni34  1  0.00242716  0.66543665  0.66596361  1
  Cr  Cr35  1  0.16553075  0.83403057  0.83222492  1
  Ni  Ni36  1  0.50109663  0.16695209  0.50048139  1
  Ni  Ni37  1  0.33365390  0.99901382  0.66513334  1
  Cr  Cr38  1  0.49855323  0.16779940  0.83364976  1
  Ni  Ni39  1  0.49814249  0.49932325  0.50000204  1
  Ni  Ni40  1  0.33280825  0.33445294  0.66706132  1
  Ni  Ni41  1  0.49893252  0.49835383  0.83194697  1
  Ni  Ni42  1  0.49917353  0.83284393  0.50099279  1
  Ni  Ni43  1  0.33280642  0.66565159  0.66461266  1
  Cr  Cr44  1  0.50108530  0.83235259  0.83189493  1
  Fe  Fe45  1  0.83103355  0.16661815  0.49946230  1
  Ni  Ni46  1  0.66581190  0.00115396  0.66514404  1
  Ni  Ni47  1  0.83527961  0.16691340  0.83218986  1
  Cr  Cr48  1  0.83309189  0.49926392  0.49919955  1
  Ni  Ni49  1  0.66602428  0.33168280  0.66566699  1
  Cr  Cr50  1  0.83288700  0.49943685  0.83342507  1
  Cr  Cr51  1  0.83273085  0.83336813  0.50017819  1
  Ni  Ni52  1  0.66388453  0.66628221  0.66619850  1
  Cr  Cr53  1  0.83250561  0.83320340  0.83303315  1
" 