574,Ni72Fe28_19,-235.908452109112, 201.626276565056,Ni72Fe28,"# generated using pymatgen
 data_Fe19Ni8
_symmetry_space_group_name_H-M   'P 1'
_cell_length_a   7.39615272
_cell_length_b   7.39615272
_cell_length_c   10.45973948
_cell_angle_alpha   90.00000000
_cell_angle_beta   90.00000000
_cell_angle_gamma   90.00000000
_symmetry_Int_Tables_number   1
_chemical_formula_structural   Fe19Ni8
_chemical_formula_sum   'Fe38 Ni16'
_cell_volume   572.17991328
_cell_formula_units_Z   2
loop_
 _symmetry_equiv_pos_site_id
 _symmetry_equiv_pos_as_xyz
  1  'x, y, z'
loop_
 _atom_site_type_symbol
 _atom_site_label
 _atom_site_symmetry_multiplicity
 _atom_site_fract_x
 _atom_site_fract_y
 _atom_site_fract_z
 _atom_site_occupancy
  Fe  Fe0  1  0.00581337  1.00385115  1.00341557  1
  Fe  Fe1  1  0.17142754  0.17258206  0.17175154  1
  Fe  Fe2  1  0.00580892  0.00543758  0.33902868  1
  Fe  Fe3  1  0.00508962  0.33892259  0.00543888  1
  Fe  Fe4  1  0.17174017  0.50413934  0.17165007  1
  Fe  Fe5  1  1.00441719  0.33766604  0.33750716  1
  Fe  Fe6  1  0.00535459  0.67150859  0.00530988  1
  Fe  Fe7  1  0.17142045  0.83782158  0.17007959  1
  Fe  Fe8  1  1.00459797  0.67120703  0.33724924  1
  Fe  Fe9  1  0.33793069  1.00397523  0.00509964  1
  Ni  Ni10  1  0.50442051  0.17129100  0.17203154  1
  Fe  Fe11  1  0.33928962  0.00569057  0.33826741  1
  Fe  Fe12  1  0.33833313  0.33788569  1.00473675  1
  Fe  Fe13  1  0.50486242  0.50385753  0.17108311  1
  Ni  Ni14  1  0.33782563  0.33932236  0.33743392  1
  Ni  Ni15  1  0.33787218  0.67098390  0.00518328  1
  Fe  Fe16  1  0.50578335  0.83814255  0.17238229  1
  Fe  Fe17  1  0.33883474  0.67253818  0.33733549  1
  Fe  Fe18  1  0.67048865  1.00464992  0.00616645  1
  Fe  Fe19  1  0.83686215  0.17174832  0.17138587  1
  Ni  Ni20  1  0.67282975  1.00423874  0.33891500  1
  Fe  Fe21  1  0.67094374  0.33883294  1.00437671  1
  Ni  Ni22  1  0.83739349  0.50499601  0.17164199  1
  Fe  Fe23  1  0.67102055  0.33739864  0.33822683  1
  Fe  Fe24  1  0.67099660  0.67120294  0.00511823  1
  Fe  Fe25  1  0.83732437  0.83872711  0.17195665  1
  Fe  Fe26  1  0.67099540  0.67124946  0.33796236  1
  Ni  Ni27  1  0.17066400  0.17129922  0.50475390  1
  Ni  Ni28  1  1.00348120  1.00347870  0.67121204  1
  Ni  Ni29  1  0.17026727  0.17020064  0.83865643  1
  Fe  Fe30  1  0.17316964  0.50323892  0.50436977  1
  Fe  Fe31  1  1.00452795  0.33548740  0.67152459  1
  Fe  Fe32  1  0.17222945  0.50395920  0.83860913  1
  Fe  Fe33  1  0.17170159  0.83823543  0.50600152  1
  Fe  Fe34  1  0.00494560  0.67005293  0.67174004  1
  Ni  Ni35  1  0.17204897  0.83802978  0.83747725  1
  Fe  Fe36  1  0.50420809  0.17235821  0.50330726  1
  Fe  Fe37  1  0.33737420  0.00679364  0.67121284  1
  Fe  Fe38  1  0.50435080  0.17230435  0.83895553  1
  Ni  Ni39  1  0.50488558  0.50612212  0.50283506  1
  Ni  Ni40  1  0.33909789  0.33917859  0.67244467  1
  Ni  Ni41  1  0.50592067  0.50636010  0.83962072  1
  Ni  Ni42  1  0.50395917  0.83659641  0.50507114  1
  Fe  Fe43  1  0.33908545  0.67073687  0.67256338  1
  Fe  Fe44  1  0.50415868  0.83919366  0.83800124  1
  Ni  Ni45  1  0.83955262  0.17225924  0.50365763  1
  Fe  Fe46  1  0.67169046  0.00705511  0.66991952  1
  Ni  Ni47  1  0.83837436  0.17170009  0.83912652  1
  Fe  Fe48  1  0.83767509  0.50419775  0.50403305  1
  Ni  Ni49  1  0.67025679  0.33815274  0.67059040  1
  Fe  Fe50  1  0.83885892  0.50389200  0.83871580  1
  Fe  Fe51  1  0.83732336  0.83893687  0.50460074  1
  Fe  Fe52  1  0.67067565  0.67017109  0.67118739  1
  Fe  Fe53  1  0.83864485  0.83894702  0.83788343  1
" 