6567,Ni72Fe9Cr17_5,-232.666035068522, 168.832464935527,Ni72Fe9Cr17,"# generated using pymatgen
 data_Cr11Fe4Ni39
_symmetry_space_group_name_H-M   'P 1'
_cell_length_a   7.46394891
_cell_length_b   7.46394891
_cell_length_c   10.55561777
_cell_angle_alpha   90.00000000
_cell_angle_beta   90.00000000
_cell_angle_gamma   90.00000000
_symmetry_Int_Tables_number   1
_chemical_formula_structural   Cr11Fe4Ni39
_chemical_formula_sum   'Cr11 Fe4 Ni39'
_cell_volume   588.05909514
_cell_formula_units_Z   1
loop_
 _symmetry_equiv_pos_site_id
 _symmetry_equiv_pos_as_xyz
  1  'x, y, z'
loop_
 _atom_site_type_symbol
 _atom_site_label
 _atom_site_symmetry_multiplicity
 _atom_site_fract_x
 _atom_site_fract_y
 _atom_site_fract_z
 _atom_site_occupancy
  Fe  Fe0  1  1.00010195  0.99742617  0.00026697  1
  Ni  Ni1  1  0.16956741  0.16228836  0.16650005  1
  Ni  Ni2  1  0.00240204  1.00020127  0.33246300  1
  Cr  Cr3  1  0.00115400  0.33469800  0.99840265  1
  Cr  Cr4  1  0.16901818  0.50189076  0.16523849  1
  Cr  Cr5  1  0.99952639  0.33257491  0.33625011  1
  Ni  Ni6  1  0.99881375  0.66738312  0.00086496  1
  Ni  Ni7  1  0.16745293  0.83606230  0.16676215  1
  Cr  Cr8  1  0.00031888  0.66780114  0.33290539  1
  Ni  Ni9  1  0.33448722  0.00085836  0.00175127  1
  Ni  Ni10  1  0.49768415  0.16440364  0.16609995  1
  Ni  Ni11  1  0.33303943  0.99856233  0.33338079  1
  Fe  Fe12  1  0.33491316  0.33303310  0.99898006  1
  Ni  Ni13  1  0.50118659  0.50295705  0.16633358  1
  Cr  Cr14  1  0.33442794  0.33209515  0.33265868  1
  Ni  Ni15  1  0.33407417  0.66772584  0.00035275  1
  Ni  Ni16  1  0.50048387  0.83326319  0.16791589  1
  Ni  Ni17  1  0.33547679  0.66997830  0.33471990  1
  Ni  Ni18  1  0.66503281  0.99800685  0.99921791  1
  Cr  Cr19  1  0.83327067  0.16331768  0.16831592  1
  Ni  Ni20  1  0.66518053  0.99900798  0.33319242  1
  Cr  Cr21  1  0.66496243  0.33401659  0.00026715  1
  Ni  Ni22  1  0.83056908  0.50506885  0.16671647  1
  Cr  Cr23  1  0.66666938  0.33435146  0.33359887  1
  Ni  Ni24  1  0.66773448  0.66828732  0.00061728  1
  Ni  Ni25  1  0.83268463  0.83256292  0.16567616  1
  Ni  Ni26  1  0.66502927  0.66724791  0.33173242  1
  Ni  Ni27  1  0.16684318  0.16491633  0.50134521  1
  Ni  Ni28  1  0.00038227  0.00385638  0.66729533  1
  Ni  Ni29  1  0.16752724  0.16797826  0.83277504  1
  Ni  Ni30  1  0.16931934  0.50059411  0.50194746  1
  Fe  Fe31  1  1.00019528  0.33166136  0.66685130  1
  Ni  Ni32  1  0.16876853  0.49852658  0.83340083  1
  Ni  Ni33  1  0.16977970  0.83511119  0.49920549  1
  Cr  Cr34  1  0.00055759  0.66529145  0.66719904  1
  Cr  Cr35  1  0.16744736  0.83383477  0.83450943  1
  Ni  Ni36  1  0.50019343  0.16619435  0.50143141  1
  Ni  Ni37  1  0.33392636  0.00199145  0.66549145  1
  Ni  Ni38  1  0.49983775  0.16631043  0.83308844  1
  Ni  Ni39  1  0.49980517  0.50140439  0.50143174  1
  Ni  Ni40  1  0.33380663  0.33322437  0.66795343  1
  Ni  Ni41  1  0.49945033  0.50104893  0.83285547  1
  Fe  Fe42  1  0.49825490  0.83342152  0.50015687  1
  Ni  Ni43  1  0.33521740  0.66540666  0.66555041  1
  Ni  Ni44  1  0.50262000  0.83326349  0.83288118  1
  Ni  Ni45  1  0.83358629  0.16665663  0.50174845  1
  Ni  Ni46  1  0.66631384  0.00244542  0.66821403  1
  Ni  Ni47  1  0.83325902  0.16480642  0.83092943  1
  Ni  Ni48  1  0.83149795  0.49846780  0.50115619  1
  Ni  Ni49  1  0.66688882  0.33322526  0.66653127  1
  Ni  Ni50  1  0.83240595  0.50131028  0.83275263  1
  Cr  Cr51  1  0.83229939  0.83573472  0.49971457  1
  Ni  Ni52  1  0.66502521  0.66495166  0.66827365  1
  Ni  Ni53  1  0.83073812  0.83450447  0.83533823  1
" 