1010,Ni72Fe7Cr20_0,-231.639878073558, 164.832232285596,Ni72Fe7Cr20,"# generated using pymatgen
 data_Cr4FeNi13
_symmetry_space_group_name_H-M   'P 1'
_cell_length_a   7.46689365
_cell_length_b   7.46689365
_cell_length_c   10.55978226
_cell_angle_alpha   90.00000000
_cell_angle_beta   90.00000000
_cell_angle_gamma   90.00000000
_symmetry_Int_Tables_number   1
_chemical_formula_structural   Cr4FeNi13
_chemical_formula_sum   'Cr12 Fe3 Ni39'
_cell_volume   588.75538781
_cell_formula_units_Z   3
loop_
 _symmetry_equiv_pos_site_id
 _symmetry_equiv_pos_as_xyz
  1  'x, y, z'
loop_
 _atom_site_type_symbol
 _atom_site_label
 _atom_site_symmetry_multiplicity
 _atom_site_fract_x
 _atom_site_fract_y
 _atom_site_fract_z
 _atom_site_occupancy
  Ni  Ni0  1  0.00108605  0.99862807  0.99886073  1
  Ni  Ni1  1  0.16708968  0.16756188  0.16504489  1
  Ni  Ni2  1  0.99937921  0.99971417  0.33335522  1
  Ni  Ni3  1  0.00566635  0.33407656  0.00085509  1
  Ni  Ni4  1  0.16401576  0.49931552  0.16576892  1
  Ni  Ni5  1  0.99948083  0.33454185  0.33382449  1
  Ni  Ni6  1  0.00014671  0.66734616  0.00025394  1
  Cr  Cr7  1  0.16730870  0.83303093  0.16782491  1
  Ni  Ni8  1  0.00223495  0.66575645  0.33358432  1
  Ni  Ni9  1  0.33409713  0.00135997  0.99922031  1
  Ni  Ni10  1  0.49871826  0.16329912  0.16676894  1
  Fe  Fe11  1  0.33482917  0.99869923  0.33289059  1
  Ni  Ni12  1  0.33049437  0.33231092  0.99917808  1
  Cr  Cr13  1  0.49894340  0.50146749  0.16492264  1
  Cr  Cr14  1  0.33369021  0.33426193  0.33195408  1
  Ni  Ni15  1  0.33327100  0.66634403  0.99775587  1
  Ni  Ni16  1  0.50075004  0.83576486  0.16587951  1
  Ni  Ni17  1  0.33154696  0.66763530  0.33622374  1
  Ni  Ni18  1  0.66490125  0.99591058  0.99994930  1
  Cr  Cr19  1  0.83426623  0.16624481  0.16785996  1
  Ni  Ni20  1  0.66553259  0.00139107  0.33334887  1
  Cr  Cr21  1  0.66372842  0.33350914  0.00028557  1
  Ni  Ni22  1  0.83681999  0.50131684  0.16716629  1
  Ni  Ni23  1  0.66746131  0.33094896  0.33640243  1
  Ni  Ni24  1  0.66660173  0.67095692  0.00005157  1
  Ni  Ni25  1  0.83263734  0.83270228  0.16491072  1
  Cr  Cr26  1  0.66666004  0.66711241  0.33210651  1
  Cr  Cr27  1  0.16504405  0.16520577  0.49867978  1
  Cr  Cr28  1  0.00050513  0.99848628  0.66835883  1
  Ni  Ni29  1  0.16826839  0.16663384  0.83612522  1
  Ni  Ni30  1  0.16482978  0.50341549  0.49974747  1
  Ni  Ni31  1  0.00036921  0.33577616  0.66529623  1
  Ni  Ni32  1  0.16743427  0.50087573  0.83459190  1
  Ni  Ni33  1  0.16953875  0.83044971  0.49908380  1
  Ni  Ni34  1  0.00149334  0.66579777  0.66626713  1
  Ni  Ni35  1  0.16778426  0.83250035  0.83364973  1
  Ni  Ni36  1  0.50382939  0.16507259  0.49976806  1
  Fe  Fe37  1  0.33570408  0.99812042  0.66807261  1
  Ni  Ni38  1  0.49831881  0.16484980  0.83352376  1
  Ni  Ni39  1  0.50112240  0.50084340  0.50118242  1
  Cr  Cr40  1  0.33391622  0.33407313  0.66866756  1
  Ni  Ni41  1  0.49829127  0.50179361  0.83333485  1
  Ni  Ni42  1  0.49724935  0.83408065  0.50055831  1
  Fe  Fe43  1  0.33359042  0.66757343  0.66657257  1
  Ni  Ni44  1  0.49983218  0.83334177  0.83358539  1
  Ni  Ni45  1  0.83065675  0.16975767  0.49925611  1
  Ni  Ni46  1  0.66366688  0.99944891  0.66670478  1
  Cr  Cr47  1  0.83338151  0.16583503  0.83241303  1
  Ni  Ni48  1  0.83410646  0.49695789  0.50063933  1
  Ni  Ni49  1  0.66512485  0.33325063  0.66360566  1
  Cr  Cr50  1  0.83368069  0.50175072  0.83249122  1
  Cr  Cr51  1  0.83383224  0.83358431  0.49998835  1
  Ni  Ni52  1  0.66514235  0.66733472  0.66703120  1
  Ni  Ni53  1  0.83248602  0.83253945  0.83511396  1
" 