4096,Ni72Fe28_6,-235.688198883841, 193.303908059334,Ni72Fe28,"# generated using pymatgen
 data_Fe19Ni8
_symmetry_space_group_name_H-M   'P 1'
_cell_length_a   7.40026245
_cell_length_b   7.40026245
_cell_length_c   10.46555153
_cell_angle_alpha   90.00000000
_cell_angle_beta   90.00000000
_cell_angle_gamma   90.00000000
_symmetry_Int_Tables_number   1
_chemical_formula_structural   Fe19Ni8
_chemical_formula_sum   'Fe38 Ni16'
_cell_volume   573.13425405
_cell_formula_units_Z   2
loop_
 _symmetry_equiv_pos_site_id
 _symmetry_equiv_pos_as_xyz
  1  'x, y, z'
loop_
 _atom_site_type_symbol
 _atom_site_label
 _atom_site_symmetry_multiplicity
 _atom_site_fract_x
 _atom_site_fract_y
 _atom_site_fract_z
 _atom_site_occupancy
  Fe  Fe0  1  0.00497815  0.00451320  1.00353400  1
  Fe  Fe1  1  0.17155767  0.17221364  0.17093326  1
  Fe  Fe2  1  0.00518219  0.00479946  0.33881262  1
  Fe  Fe3  1  0.00503340  0.33732799  1.00451205  1
  Fe  Fe4  1  0.17140855  0.50436571  0.17184604  1
  Fe  Fe5  1  0.00496919  0.33838900  0.33806031  1
  Fe  Fe6  1  1.00440988  0.67169641  0.00467780  1
  Fe  Fe7  1  0.17141024  0.83695831  0.17122307  1
  Fe  Fe8  1  0.00463566  0.67034878  0.33829118  1
  Ni  Ni9  1  0.33774722  0.00451378  0.00481325  1
  Fe  Fe10  1  0.50473218  0.17223731  0.17161563  1
  Fe  Fe11  1  0.33792426  0.00513463  0.33852100  1
  Fe  Fe12  1  0.33784641  0.33730201  0.00511412  1
  Ni  Ni13  1  0.50537229  0.50412593  0.17128507  1
  Ni  Ni14  1  0.33813691  0.33823237  0.33804383  1
  Fe  Fe15  1  0.33815809  0.67140943  1.00430644  1
  Fe  Fe16  1  0.50479749  0.83701448  0.17122291  1
  Fe  Fe17  1  0.33784564  0.67064094  0.33858347  1
  Fe  Fe18  1  0.67094391  1.00420086  1.00436571  1
  Fe  Fe19  1  0.83724752  0.17224075  0.17101544  1
  Fe  Fe20  1  0.67043101  0.00480050  0.33837480  1
  Fe  Fe21  1  0.67065853  0.33786834  0.00505333  1
  Ni  Ni22  1  0.83689217  0.50489568  0.17002292  1
  Fe  Fe23  1  0.67072226  0.33830938  0.33752201  1
  Fe  Fe24  1  0.67096819  0.67146665  0.00482479  1
  Fe  Fe25  1  0.83732913  0.83686776  0.17101740  1
  Fe  Fe26  1  0.67105508  0.67042800  0.33774795  1
  Ni  Ni27  1  0.17292309  0.17129523  0.50448978  1
  Ni  Ni28  1  0.00469479  0.00462978  0.67106880  1
  Ni  Ni29  1  0.17226077  0.17108895  0.83814385  1
  Ni  Ni30  1  0.17039261  0.50363101  0.50432565  1
  Fe  Fe31  1  0.00601333  0.33746328  0.67096308  1
  Fe  Fe32  1  0.17089091  0.50479927  0.83726051  1
  Ni  Ni33  1  0.17127148  0.83861040  0.50547649  1
  Fe  Fe34  1  0.00509505  0.67231010  0.67056834  1
  Fe  Fe35  1  0.17117966  0.83877346  0.83719500  1
  Ni  Ni36  1  0.50278450  0.17041777  0.50470910  1
  Ni  Ni37  1  0.33687347  1.00375014  0.67018875  1
  Fe  Fe38  1  0.50426942  0.17027796  0.83757127  1
  Fe  Fe39  1  0.50353538  0.50503125  0.50399389  1
  Fe  Fe40  1  0.33686579  0.33686213  0.67036342  1
  Fe  Fe41  1  0.50436379  0.50474042  0.83838016  1
  Ni  Ni42  1  0.50481606  0.83911038  0.50470802  1
  Ni  Ni43  1  0.33814465  0.67164870  0.67067960  1
  Fe  Fe44  1  0.50375885  0.83851708  0.83734382  1
  Fe  Fe45  1  0.83851411  0.17043014  0.50466133  1
  Fe  Fe46  1  0.67066148  1.00345017  0.67079777  1
  Fe  Fe47  1  0.83854037  0.17056906  0.83785992  1
  Ni  Ni48  1  0.83832509  0.50566069  0.50482271  1
  Fe  Fe49  1  0.67065894  0.33740893  0.67096111  1
  Fe  Fe50  1  0.83828309  0.50428773  0.83809055  1
  Ni  Ni51  1  0.83744908  0.83657985  0.50421259  1
  Fe  Fe52  1  0.67126340  0.67267675  0.67096383  1
  Ni  Ni53  1  0.83744453  0.83734498  0.83852720  1
" 