2705,Ni72Fe9Cr17_12,-232.534632254189, 164.854682151871,Ni72Fe9Cr17,"# generated using pymatgen
 data_Cr11Fe4Ni39
_symmetry_space_group_name_H-M   'P 1'
_cell_length_a   7.46288804
_cell_length_b   7.46288804
_cell_length_c   10.55411748
_cell_angle_alpha   90.00000000
_cell_angle_beta   90.00000000
_cell_angle_gamma   90.00000000
_symmetry_Int_Tables_number   1
_chemical_formula_structural   Cr11Fe4Ni39
_chemical_formula_sum   'Cr11 Fe4 Ni39'
_cell_volume   587.80838439
_cell_formula_units_Z   1
loop_
 _symmetry_equiv_pos_site_id
 _symmetry_equiv_pos_as_xyz
  1  'x, y, z'
loop_
 _atom_site_type_symbol
 _atom_site_label
 _atom_site_symmetry_multiplicity
 _atom_site_fract_x
 _atom_site_fract_y
 _atom_site_fract_z
 _atom_site_occupancy
  Ni  Ni0  1  0.99867574  1.00020602  0.00215337  1
  Cr  Cr1  1  0.16767093  0.16665887  0.16663796  1
  Ni  Ni2  1  0.00207111  0.99833292  0.33408165  1
  Ni  Ni3  1  0.99777481  0.33480237  0.99929492  1
  Ni  Ni4  1  0.16784456  0.50338292  0.16526744  1
  Cr  Cr5  1  0.99932696  0.33440032  0.33445375  1
  Ni  Ni6  1  0.99983308  0.66586108  0.00239406  1
  Ni  Ni7  1  0.16648893  0.83183330  0.16787955  1
  Ni  Ni8  1  0.00327361  0.66839906  0.33242080  1
  Ni  Ni9  1  0.33495027  1.00026615  0.00169873  1
  Ni  Ni10  1  0.50116334  0.16807116  0.16636075  1
  Ni  Ni11  1  0.33174363  1.00026759  0.33440047  1
  Ni  Ni12  1  0.33590341  0.33477269  1.00021230  1
  Ni  Ni13  1  0.49977833  0.49984682  0.16649863  1
  Ni  Ni14  1  0.33654260  0.33424373  0.33449290  1
  Ni  Ni15  1  0.33377682  0.66582776  0.00193705  1
  Ni  Ni16  1  0.49871692  0.83292521  0.16497545  1
  Ni  Ni17  1  0.33066317  0.66634016  0.33277231  1
  Fe  Fe18  1  0.66688307  0.00213027  0.00211276  1
  Ni  Ni19  1  0.83209156  0.16670789  0.16497404  1
  Cr  Cr20  1  0.66693375  0.00386369  0.33127601  1
  Ni  Ni21  1  0.66715988  0.33359188  0.00034778  1
  Ni  Ni22  1  0.83321633  0.50094237  0.16589305  1
  Ni  Ni23  1  0.66497712  0.33304424  0.33401142  1
  Ni  Ni24  1  0.66722491  0.66488160  0.00146612  1
  Ni  Ni25  1  0.83562187  0.83317817  0.16497106  1
  Cr  Cr26  1  0.66697243  0.66369508  0.33229065  1
  Ni  Ni27  1  0.16745609  0.16594934  0.50137512  1
  Ni  Ni28  1  0.00187300  0.00107643  0.66463053  1
  Cr  Cr29  1  0.16696437  0.16795682  0.83358846  1
  Ni  Ni30  1  0.16864329  0.50106147  0.50164254  1
  Fe  Fe31  1  0.99968366  0.33430879  0.66641474  1
  Fe  Fe32  1  0.16721992  0.49985603  0.83398677  1
  Ni  Ni33  1  0.16623323  0.83382577  0.50008686  1
  Ni  Ni34  1  0.00107014  0.66553467  0.66599581  1
  Cr  Cr35  1  0.16697767  0.83297228  0.83300381  1
  Ni  Ni36  1  0.49839000  0.17132364  0.50035045  1
  Ni  Ni37  1  0.33147633  0.00207463  0.66476469  1
  Ni  Ni38  1  0.50069134  0.17051970  0.83412809  1
  Ni  Ni39  1  0.49897876  0.49738936  0.50120429  1
  Ni  Ni40  1  0.33547673  0.33428120  0.66614824  1
  Ni  Ni41  1  0.50131244  0.49853569  0.83314511  1
  Cr  Cr42  1  0.49670722  0.83181750  0.50186231  1
  Ni  Ni43  1  0.33239356  0.66446916  0.66613150  1
  Cr  Cr44  1  0.49945428  0.83187173  0.83367622  1
  Ni  Ni45  1  0.83499478  0.16896167  0.50140795  1
  Cr  Cr46  1  0.66678928  0.00380464  0.66788180  1
  Ni  Ni47  1  0.83332432  0.17014452  0.83445634  1
  Fe  Fe48  1  0.83361678  0.49839842  0.50192070  1
  Ni  Ni49  1  0.66641353  0.33513456  0.66647050  1
  Ni  Ni50  1  0.83244501  0.49863383  0.83268812  1
  Cr  Cr51  1  0.83741986  0.83282420  0.50136858  1
  Ni  Ni52  1  0.66736907  0.66154375  0.66709743  1
  Cr  Cr53  1  0.83439511  0.83230573  0.83434698  1
" 