8748,Ni72Fe14Cr12_11,-235.486099427269, 187.084724433494,Ni72Fe14Cr12,"# generated using pymatgen
 data_Cr4Fe4Ni19
_symmetry_space_group_name_H-M   'P 1'
_cell_length_a   7.44215477
_cell_length_b   7.44215477
_cell_length_c   10.52479621
_cell_angle_alpha   90.00000000
_cell_angle_beta   90.00000000
_cell_angle_gamma   90.00000000
_symmetry_Int_Tables_number   1
_chemical_formula_structural   Cr4Fe4Ni19
_chemical_formula_sum   'Cr8 Fe8 Ni38'
_cell_volume   582.92286529
_cell_formula_units_Z   2
loop_
 _symmetry_equiv_pos_site_id
 _symmetry_equiv_pos_as_xyz
  1  'x, y, z'
loop_
 _atom_site_type_symbol
 _atom_site_label
 _atom_site_symmetry_multiplicity
 _atom_site_fract_x
 _atom_site_fract_y
 _atom_site_fract_z
 _atom_site_occupancy
  Ni  Ni0  1  0.00181013  0.00251912  1.00128039  1
  Ni  Ni1  1  0.16722559  0.17054065  0.16827993  1
  Ni  Ni2  1  1.00061494  0.00376109  0.33586910  1
  Ni  Ni3  1  0.00206739  0.33498102  0.00170200  1
  Ni  Ni4  1  0.16660239  0.49898028  0.16787762  1
  Ni  Ni5  1  1.00094157  0.33358577  0.33516765  1
  Ni  Ni6  1  1.00055291  0.66768443  1.00145270  1
  Cr  Cr7  1  0.16650409  0.83435751  0.16489714  1
  Cr  Cr8  1  1.00139302  0.66768085  0.33526838  1
  Fe  Fe9  1  0.33402131  0.00373646  0.99952318  1
  Ni  Ni10  1  0.50182530  0.17035161  0.16893475  1
  Cr  Cr11  1  0.33324578  0.00198061  0.33513400  1
  Ni  Ni12  1  0.33437186  0.33439601  0.00237129  1
  Cr  Cr13  1  0.50183219  0.50090133  0.16813573  1
  Fe  Fe14  1  0.33255022  0.33699302  0.33520740  1
  Ni  Ni15  1  0.33415294  0.66641862  0.99840621  1
  Cr  Cr16  1  0.50304125  0.83408750  0.16794373  1
  Ni  Ni17  1  0.33576290  0.66712011  0.33812094  1
  Cr  Cr18  1  0.66979829  0.00248394  1.00147838  1
  Fe  Fe19  1  0.83633647  0.17001361  0.16932920  1
  Fe  Fe20  1  0.67176647  1.00114299  0.33548950  1
  Ni  Ni21  1  0.66858710  0.33540382  1.00021491  1
  Ni  Ni22  1  0.83540546  0.50121512  0.16750347  1
  Ni  Ni23  1  0.67016821  0.33579890  0.33481101  1
  Ni  Ni24  1  0.67015512  0.66745042  1.00056723  1
  Ni  Ni25  1  0.83534010  0.83456225  0.16929501  1
  Ni  Ni26  1  0.66843683  0.66747152  0.33619801  1
  Ni  Ni27  1  0.16425822  0.16816012  0.50158660  1
  Ni  Ni28  1  0.00244822  1.00126353  0.66772704  1
  Ni  Ni29  1  0.16718499  0.16782553  0.83536253  1
  Ni  Ni30  1  0.16748267  0.50178353  0.50108656  1
  Ni  Ni31  1  1.00093643  0.33554884  0.66803782  1
  Ni  Ni32  1  0.16617684  0.50188710  0.83634514  1
  Ni  Ni33  1  0.16811632  0.83525329  0.50392548  1
  Ni  Ni34  1  1.00143178  0.66824988  0.66842990  1
  Ni  Ni35  1  0.16683709  0.83545677  0.83515811  1
  Cr  Cr36  1  0.50430672  0.16888273  0.50156012  1
  Ni  Ni37  1  0.33435705  0.99993053  0.66996922  1
  Ni  Ni38  1  0.50171044  0.16875786  0.83496222  1
  Ni  Ni39  1  0.50342818  0.50398892  0.50069485  1
  Cr  Cr40  1  0.33399162  0.33567097  0.66797203  1
  Ni  Ni41  1  0.50352614  0.50195126  0.83594664  1
  Ni  Ni42  1  0.50267430  0.83274775  0.50262066  1
  Fe  Fe43  1  0.33465510  0.66893439  0.66866981  1
  Ni  Ni44  1  0.50189199  0.83442749  0.83403061  1
  Ni  Ni45  1  0.83670111  0.16869151  0.50203428  1
  Ni  Ni46  1  0.66839311  1.00042158  0.66792856  1
  Fe  Fe47  1  0.83639624  0.16877009  0.83312387  1
  Fe  Fe48  1  0.83437015  0.49990094  0.50272601  1
  Ni  Ni49  1  0.66971775  0.33628068  0.66979728  1
  Ni  Ni50  1  0.83529793  0.50215228  0.83490061  1
  Fe  Fe51  1  0.83496668  0.83589259  0.50281200  1
  Ni  Ni52  1  0.66838389  0.66829552  0.66831669  1
  Ni  Ni53  1  0.83615996  0.83356651  0.83412724  1
" 