2116,Ni72Fe9Cr17_9,-232.795958327349, 171.383833267722,Ni72Fe9Cr17,"# generated using pymatgen
 data_Cr11Fe4Ni39
_symmetry_space_group_name_H-M   'P 1'
_cell_length_a   7.46288471
_cell_length_b   7.46288471
_cell_length_c   10.55411277
_cell_angle_alpha   90.00000000
_cell_angle_beta   90.00000000
_cell_angle_gamma   90.00000000
_symmetry_Int_Tables_number   1
_chemical_formula_structural   Cr11Fe4Ni39
_chemical_formula_sum   'Cr11 Fe4 Ni39'
_cell_volume   587.80759752
_cell_formula_units_Z   1
loop_
 _symmetry_equiv_pos_site_id
 _symmetry_equiv_pos_as_xyz
  1  'x, y, z'
loop_
 _atom_site_type_symbol
 _atom_site_label
 _atom_site_symmetry_multiplicity
 _atom_site_fract_x
 _atom_site_fract_y
 _atom_site_fract_z
 _atom_site_occupancy
  Ni  Ni0  1  0.00057742  1.00008066  0.00092856  1
  Fe  Fe1  1  0.16681721  0.16520262  0.16830253  1
  Ni  Ni2  1  0.00224103  0.99996694  0.33364654  1
  Fe  Fe3  1  0.00142968  0.33222779  0.00049965  1
  Ni  Ni4  1  0.16641603  0.50216601  0.16760080  1
  Ni  Ni5  1  0.00203626  0.33356316  0.33325238  1
  Ni  Ni6  1  0.00392318  0.66852102  0.00149138  1
  Ni  Ni7  1  0.16695968  0.83234215  0.16635233  1
  Ni  Ni8  1  0.00044696  0.66730579  0.33385515  1
  Ni  Ni9  1  0.33216673  0.99949618  0.00080352  1
  Ni  Ni10  1  0.50031547  0.16484693  0.16681738  1
  Ni  Ni11  1  0.33044094  0.00150266  0.33249482  1
  Cr  Cr12  1  0.33381266  0.33422797  0.99939480  1
  Ni  Ni13  1  0.49810418  0.50243660  0.16895524  1
  Ni  Ni14  1  0.33247173  0.33385625  0.33418555  1
  Ni  Ni15  1  0.33027895  0.66764500  0.00060583  1
  Ni  Ni16  1  0.49904394  0.83355400  0.16633145  1
  Ni  Ni17  1  0.33252761  0.66547756  0.33202835  1
  Ni  Ni18  1  0.66809264  0.00294138  0.00136319  1
  Ni  Ni19  1  0.83510495  0.16539289  0.16507754  1
  Cr  Cr20  1  0.66804449  0.99993493  0.33298367  1
  Cr  Cr21  1  0.66638903  0.33122891  0.00073502  1
  Fe  Fe22  1  0.83564676  0.50213453  0.16858392  1
  Cr  Cr23  1  0.66564745  0.33551305  0.33359651  1
  Cr  Cr24  1  0.66590902  0.66692378  0.00326401  1
  Ni  Ni25  1  0.83483350  0.83455000  0.16734979  1
  Ni  Ni26  1  0.66786439  0.66527528  0.33261525  1
  Ni  Ni27  1  0.16689950  0.16794553  0.49857316  1
  Cr  Cr28  1  0.00124542  0.00034059  0.66561816  1
  Ni  Ni29  1  0.16678719  0.16744763  0.83393396  1
  Ni  Ni30  1  0.16579865  0.50024389  0.50097933  1
  Ni  Ni31  1  0.00247393  0.33463211  0.66708902  1
  Ni  Ni32  1  0.16767866  0.50105556  0.83225692  1
  Ni  Ni33  1  0.16631733  0.83264597  0.49948782  1
  Ni  Ni34  1  0.00195338  0.66547651  0.66548999  1
  Ni  Ni35  1  0.16832888  0.83233296  0.83499565  1
  Ni  Ni36  1  0.49846226  0.16719450  0.50161902  1
  Ni  Ni37  1  0.33380543  0.00226092  0.66753865  1
  Ni  Ni38  1  0.49984910  0.16562434  0.83240157  1
  Ni  Ni39  1  0.49930158  0.50073211  0.50038820  1
  Ni  Ni40  1  0.33303883  0.33402179  0.66703961  1
  Ni  Ni41  1  0.49636087  0.50028160  0.83149276  1
  Cr  Cr42  1  0.49917367  0.83312853  0.50116375  1
  Ni  Ni43  1  0.33202709  0.66455441  0.66820313  1
  Cr  Cr44  1  0.49795124  0.83472629  0.83323548  1
  Ni  Ni45  1  0.83547358  0.16771482  0.50091625  1
  Ni  Ni46  1  0.66624740  0.00173869  0.66713120  1
  Ni  Ni47  1  0.83420144  0.16627861  0.83484406  1
  Ni  Ni48  1  0.83573615  0.50131295  0.49972374  1
  Cr  Cr49  1  0.66514443  0.33266497  0.66650879  1
  Cr  Cr50  1  0.83673256  0.49912795  0.83338233  1
  Fe  Fe51  1  0.83536262  0.83155166  0.50000121  1
  Ni  Ni52  1  0.66685808  0.66624185  0.66513367  1
  Cr  Cr53  1  0.83430983  0.83547021  0.83279840  1
" 