4041,Ni72Fe14Cr12_13,-235.651487521054, 187.286404741662,Ni72Fe14Cr12,"# generated using pymatgen
 data_Cr4Fe4Ni19
_symmetry_space_group_name_H-M   'P 1'
_cell_length_a   7.44510751
_cell_length_b   7.44510751
_cell_length_c   10.52897201
_cell_angle_alpha   90.00000000
_cell_angle_beta   90.00000000
_cell_angle_gamma   90.00000000
_symmetry_Int_Tables_number   1
_chemical_formula_structural   Cr4Fe4Ni19
_chemical_formula_sum   'Cr8 Fe8 Ni38'
_cell_volume   583.61697829
_cell_formula_units_Z   2
loop_
 _symmetry_equiv_pos_site_id
 _symmetry_equiv_pos_as_xyz
  1  'x, y, z'
loop_
 _atom_site_type_symbol
 _atom_site_label
 _atom_site_symmetry_multiplicity
 _atom_site_fract_x
 _atom_site_fract_y
 _atom_site_fract_z
 _atom_site_occupancy
  Fe  Fe0  1  0.00178286  0.00373389  1.00104311  1
  Ni  Ni1  1  0.16818731  0.16782732  0.16802167  1
  Fe  Fe2  1  1.00083968  0.00316005  0.33529642  1
  Ni  Ni3  1  1.00121257  0.33441755  0.00253512  1
  Ni  Ni4  1  0.16936107  0.50077233  0.16770768  1
  Ni  Ni5  1  0.00164614  0.33505152  0.33348974  1
  Ni  Ni6  1  0.00149086  0.66682037  1.00133617  1
  Ni  Ni7  1  0.16880047  0.83607397  0.16849546  1
  Cr  Cr8  1  0.00295458  0.66578078  0.33652276  1
  Fe  Fe9  1  0.33451689  0.00290158  0.00278144  1
  Ni  Ni10  1  0.50084463  0.17054077  0.16946608  1
  Ni  Ni11  1  0.33647104  1.00100880  0.33412478  1
  Ni  Ni12  1  0.33408606  0.33294214  0.00303548  1
  Ni  Ni13  1  0.50222162  0.50034673  0.16833871  1
  Ni  Ni14  1  0.33465784  0.33396488  0.33400966  1
  Ni  Ni15  1  0.33466219  0.66939422  0.00580246  1
  Fe  Fe16  1  0.50040503  0.83445762  0.16925221  1
  Fe  Fe17  1  0.33690946  0.66685154  0.33514143  1
  Cr  Cr18  1  0.66695081  0.00405710  1.00044280  1
  Ni  Ni19  1  0.83515369  0.16998469  0.17054952  1
  Ni  Ni20  1  0.66594194  0.00247444  0.33599843  1
  Ni  Ni21  1  0.66921642  0.33391088  0.00252359  1
  Ni  Ni22  1  0.83302796  0.50006515  0.16698299  1
  Ni  Ni23  1  0.66791179  0.33369355  0.33428318  1
  Ni  Ni24  1  0.66826345  0.66830507  1.00101314  1
  Cr  Cr25  1  0.83512541  0.83497490  0.16773414  1
  Ni  Ni26  1  0.66723339  0.66843511  0.33520871  1
  Cr  Cr27  1  0.16834824  0.16851478  0.50174975  1
  Ni  Ni28  1  0.99881844  0.00155545  0.66808858  1
  Ni  Ni29  1  0.16826014  0.16770855  0.83469746  1
  Ni  Ni30  1  0.16872958  0.50036582  0.50156529  1
  Ni  Ni31  1  1.00065744  0.33471657  0.66829964  1
  Cr  Cr32  1  0.16689625  0.49925677  0.83511938  1
  Ni  Ni33  1  0.16668742  0.83543893  0.50095825  1
  Ni  Ni34  1  0.99903610  0.66821315  0.66670501  1
  Cr  Cr35  1  0.16692889  0.83659998  0.83465653  1
  Ni  Ni36  1  0.50275443  0.16908110  0.50182532  1
  Fe  Fe37  1  0.33659059  0.00228388  0.66710081  1
  Ni  Ni38  1  0.50060915  0.16798235  0.83303219  1
  Ni  Ni39  1  0.50307292  0.49957263  0.50032866  1
  Ni  Ni40  1  0.33504381  0.33245576  0.66756509  1
  Cr  Cr41  1  0.50393211  0.50038748  0.83600634  1
  Ni  Ni42  1  0.50389776  0.83535404  0.49978779  1
  Cr  Cr43  1  0.33556048  0.66834806  0.66380444  1
  Ni  Ni44  1  0.50320074  0.83616167  0.83508295  1
  Fe  Fe45  1  0.83318955  0.16811433  0.50130167  1
  Ni  Ni46  1  0.66801742  1.00142439  0.66798558  1
  Ni  Ni47  1  0.83548024  0.16889683  0.83348379  1
  Fe  Fe48  1  0.83310772  0.50089778  0.50221148  1
  Ni  Ni49  1  0.66866567  0.33273673  0.66772337  1
  Ni  Ni50  1  0.83407693  0.50161585  0.83473132  1
  Ni  Ni51  1  0.83387753  0.83562050  0.50284747  1
  Ni  Ni52  1  0.67019181  0.67017874  0.66801738  1
  Ni  Ni53  1  0.83406020  0.83413766  0.83375430  1
" 