2909,Ni72Fe28_10,-235.955154826386, 197.982950809279,Ni72Fe28,"# generated using pymatgen
 data_Fe19Ni8
_symmetry_space_group_name_H-M   'P 1'
_cell_length_a   7.39785595
_cell_length_b   7.39785595
_cell_length_c   10.46214822
_cell_angle_alpha   90.00000000
_cell_angle_beta   90.00000000
_cell_angle_gamma   90.00000000
_symmetry_Int_Tables_number   1
_chemical_formula_structural   Fe19Ni8
_chemical_formula_sum   'Fe38 Ni16'
_cell_volume   572.57530020
_cell_formula_units_Z   2
loop_
 _symmetry_equiv_pos_site_id
 _symmetry_equiv_pos_as_xyz
  1  'x, y, z'
loop_
 _atom_site_type_symbol
 _atom_site_label
 _atom_site_symmetry_multiplicity
 _atom_site_fract_x
 _atom_site_fract_y
 _atom_site_fract_z
 _atom_site_occupancy
  Ni  Ni0  1  0.00594566  1.00411606  0.00476507  1
  Fe  Fe1  1  0.17154569  0.17195424  0.17007129  1
  Fe  Fe2  1  0.00507803  1.00419710  0.33760090  1
  Fe  Fe3  1  0.00496411  0.33771291  0.00488086  1
  Ni  Ni4  1  0.17197030  0.50530861  0.17047852  1
  Fe  Fe5  1  0.00494932  0.33912867  0.33854065  1
  Fe  Fe6  1  1.00458021  0.67135574  0.00501072  1
  Ni  Ni7  1  0.17197042  0.83821952  0.17043272  1
  Fe  Fe8  1  0.00546489  0.67070447  0.33795061  1
  Ni  Ni9  1  0.33590381  0.00493714  0.00513024  1
  Fe  Fe10  1  0.50398559  0.17253257  0.17078907  1
  Fe  Fe11  1  0.33795548  1.00389345  0.33747031  1
  Ni  Ni12  1  0.33865190  0.33757188  0.00496514  1
  Ni  Ni13  1  0.50477231  0.50447900  0.17153579  1
  Fe  Fe14  1  0.33771248  0.33906331  0.33739207  1
  Fe  Fe15  1  0.33831144  0.67113115  0.00586687  1
  Fe  Fe16  1  0.50397225  0.83633089  0.17144255  1
  Ni  Ni17  1  0.33764853  0.67123043  0.33779293  1
  Fe  Fe18  1  0.67106513  0.00487586  1.00439264  1
  Fe  Fe19  1  0.83849612  0.17224394  0.17172335  1
  Fe  Fe20  1  0.67099300  1.00440192  0.33861738  1
  Ni  Ni21  1  0.67098105  0.33957691  0.00495901  1
  Ni  Ni22  1  0.83729087  0.50447677  0.17096652  1
  Fe  Fe23  1  0.67136511  0.33867680  0.33817207  1
  Ni  Ni24  1  0.67179707  0.66997051  0.00497058  1
  Fe  Fe25  1  0.83851316  0.83662100  0.17035183  1
  Fe  Fe26  1  0.67106175  0.67094512  0.33731577  1
  Fe  Fe27  1  0.17035463  0.17216828  0.50532196  1
  Fe  Fe28  1  1.00390523  0.00536958  0.67212101  1
  Ni  Ni29  1  0.17207426  0.17120948  0.83801313  1
  Ni  Ni30  1  0.17145085  0.50487469  0.50469117  1
  Fe  Fe31  1  1.00433806  0.33808933  0.67060701  1
  Fe  Fe32  1  0.17115104  0.50453250  0.83782753  1
  Fe  Fe33  1  0.17065906  0.83738462  0.50390293  1
  Fe  Fe34  1  1.00398244  0.67057056  0.67105678  1
  Fe  Fe35  1  0.17083871  0.83908037  0.83875509  1
  Fe  Fe36  1  0.50545495  0.17244813  0.50496424  1
  Fe  Fe37  1  0.33844232  0.00536867  0.67203443  1
  Fe  Fe38  1  0.50459243  0.17128489  0.83827988  1
  Fe  Fe39  1  0.50516222  0.50419317  0.50434447  1
  Fe  Fe40  1  0.33793575  0.33801587  0.67191023  1
  Fe  Fe41  1  0.50517476  0.50425531  0.83883767  1
  Fe  Fe42  1  0.50487164  0.83738903  0.50446575  1
  Fe  Fe43  1  0.33828598  0.67064887  0.67032835  1
  Fe  Fe44  1  0.50460246  0.83849022  0.83812370  1
  Ni  Ni45  1  0.83728027  0.17141616  0.50567681  1
  Fe  Fe46  1  0.67167865  0.00501889  0.67102455  1
  Fe  Fe47  1  0.83830151  0.17098248  0.83750563  1
  Ni  Ni48  1  0.83811098  0.50405573  0.50504387  1
  Ni  Ni49  1  0.67179382  0.33837270  0.67071184  1
  Fe  Fe50  1  0.83770778  0.50455393  0.83806293  1
  Fe  Fe51  1  0.83849792  0.83767733  0.50532196  1
  Fe  Fe52  1  0.67176075  0.67107593  0.67198957  1
  Ni  Ni53  1  0.83717508  0.83834652  0.83802125  1
" 