5684,Ni72Fe28_14,-235.917394244359, 198.300641309501,Ni72Fe28,"# generated using pymatgen
 data_Fe19Ni8
_symmetry_space_group_name_H-M   'P 1'
_cell_length_a   7.39754793
_cell_length_b   7.39754793
_cell_length_c   10.46171261
_cell_angle_alpha   90.00000000
_cell_angle_beta   90.00000000
_cell_angle_gamma   90.00000000
_symmetry_Int_Tables_number   1
_chemical_formula_structural   Fe19Ni8
_chemical_formula_sum   'Fe38 Ni16'
_cell_volume   572.50378321
_cell_formula_units_Z   2
loop_
 _symmetry_equiv_pos_site_id
 _symmetry_equiv_pos_as_xyz
  1  'x, y, z'
loop_
 _atom_site_type_symbol
 _atom_site_label
 _atom_site_symmetry_multiplicity
 _atom_site_fract_x
 _atom_site_fract_y
 _atom_site_fract_z
 _atom_site_occupancy
  Fe  Fe0  1  1.00359035  0.00557626  1.00429771  1
  Ni  Ni1  1  0.17072203  0.17114721  0.17165916  1
  Fe  Fe2  1  1.00358027  0.00509598  0.33811830  1
  Ni  Ni3  1  0.00532709  0.33708136  1.00406376  1
  Fe  Fe4  1  0.17152179  0.50413760  0.17065565  1
  Fe  Fe5  1  1.00367972  0.33745409  0.33765311  1
  Fe  Fe6  1  1.00373743  0.67049817  1.00429266  1
  Fe  Fe7  1  0.17209636  0.83796110  0.17154139  1
  Fe  Fe8  1  1.00309539  0.67154027  0.33820831  1
  Fe  Fe9  1  0.33816294  0.00598856  1.00462946  1
  Fe  Fe10  1  0.50485603  0.17193118  0.17131692  1
  Fe  Fe11  1  0.33904810  0.00519044  0.33812021  1
  Fe  Fe12  1  0.33850745  0.33867460  1.00421484  1
  Ni  Ni13  1  0.50566262  0.50562371  0.17230535  1
  Fe  Fe14  1  0.33938165  0.33778592  0.33796500  1
  Fe  Fe15  1  0.33867810  0.66943502  1.00463288  1
  Fe  Fe16  1  0.50461178  0.83785745  0.17187244  1
  Fe  Fe17  1  0.33986942  0.67111739  0.33779051  1
  Fe  Fe18  1  0.67233766  0.00540406  1.00443192  1
  Fe  Fe19  1  0.83755646  0.17249823  0.17098796  1
  Ni  Ni20  1  0.67094926  1.00449207  0.33812143  1
  Ni  Ni21  1  0.67208327  0.33886553  1.00383116  1
  Fe  Fe22  1  0.83745095  0.50389816  0.17138776  1
  Ni  Ni23  1  0.67137114  0.33814371  0.33836042  1
  Ni  Ni24  1  0.67071584  0.67086508  1.00447958  1
  Fe  Fe25  1  0.83738112  0.83769535  0.17123047  1
  Ni  Ni26  1  0.67095899  0.67145931  0.33812955  1
  Ni  Ni27  1  0.17106084  0.17116376  0.50449812  1
  Fe  Fe28  1  1.00414720  1.00445452  0.67167491  1
  Ni  Ni29  1  0.17095553  0.17209223  0.83793428  1
  Fe  Fe30  1  0.17118537  0.50429394  0.50534008  1
  Fe  Fe31  1  0.00489685  0.33809351  0.67214456  1
  Ni  Ni32  1  0.17272643  0.50419588  0.83835088  1
  Fe  Fe33  1  0.17145448  0.83851879  0.50460521  1
  Fe  Fe34  1  1.00429420  0.67153971  0.67159281  1
  Fe  Fe35  1  0.17151912  0.83859074  0.83794593  1
  Fe  Fe36  1  0.50460776  0.17118841  0.50467969  1
  Fe  Fe37  1  0.33825082  0.00488322  0.67134457  1
  Ni  Ni38  1  0.50479100  0.17251600  0.83835005  1
  Fe  Fe39  1  0.50487891  0.50447706  0.50436516  1
  Fe  Fe40  1  0.33825189  0.33842514  0.67191697  1
  Ni  Ni41  1  0.50426670  0.50502793  0.83770119  1
  Fe  Fe42  1  0.50469886  0.83842723  0.50436459  1
  Fe  Fe43  1  0.33843152  0.67078893  0.67167317  1
  Fe  Fe44  1  0.50502904  0.83819160  0.83785568  1
  Fe  Fe45  1  0.83811805  0.17145552  0.50459026  1
  Fe  Fe46  1  0.67169388  1.00427682  0.67145302  1
  Ni  Ni47  1  0.83834960  0.16936895  0.83792974  1
  Fe  Fe48  1  0.83802721  0.50438722  0.50427619  1
  Fe  Fe49  1  0.67094443  0.33827497  0.67192062  1
  Fe  Fe50  1  0.83763296  0.50358678  0.83842524  1
  Fe  Fe51  1  0.83793579  0.83824987  0.50500769  1
  Ni  Ni52  1  0.67106282  0.67145762  0.67148494  1
  Ni  Ni53  1  0.83751948  0.83831981  0.83794045  1
" 