2272,Ni72Fe14Cr12_7,-235.730185075966, 186.347973156594,Ni72Fe14Cr12,"# generated using pymatgen
 data_Cr4Fe4Ni19
_symmetry_space_group_name_H-M   'P 1'
_cell_length_a   7.44350014
_cell_length_b   7.44350014
_cell_length_c   10.52669885
_cell_angle_alpha   90.00000000
_cell_angle_beta   90.00000000
_cell_angle_gamma   90.00000000
_symmetry_Int_Tables_number   1
_chemical_formula_structural   Cr4Fe4Ni19
_chemical_formula_sum   'Cr8 Fe8 Ni38'
_cell_volume   583.23905833
_cell_formula_units_Z   2
loop_
 _symmetry_equiv_pos_site_id
 _symmetry_equiv_pos_as_xyz
  1  'x, y, z'
loop_
 _atom_site_type_symbol
 _atom_site_label
 _atom_site_symmetry_multiplicity
 _atom_site_fract_x
 _atom_site_fract_y
 _atom_site_fract_z
 _atom_site_occupancy
  Ni  Ni0  1  1.00017536  0.99973236  0.00203452  1
  Ni  Ni1  1  0.16644115  0.16513130  0.16893031  1
  Ni  Ni2  1  0.00276702  1.00095178  0.33523439  1
  Fe  Fe3  1  0.99843817  0.33503044  1.00154146  1
  Cr  Cr4  1  0.16381642  0.50394164  0.16816081  1
  Ni  Ni5  1  0.99977273  0.33412998  0.33567397  1
  Ni  Ni6  1  1.00083995  0.67021295  1.00054316  1
  Ni  Ni7  1  0.16732020  0.83704836  0.16736539  1
  Ni  Ni8  1  0.99948480  0.66941719  0.33607834  1
  Ni  Ni9  1  0.33439961  0.99867348  0.00338145  1
  Ni  Ni10  1  0.50293929  0.16650707  0.16741610  1
  Ni  Ni11  1  0.33350792  0.00178724  0.33492733  1
  Cr  Cr12  1  0.33567680  0.33577647  0.00321050  1
  Fe  Fe13  1  0.50541503  0.50320500  0.16707447  1
  Cr  Cr14  1  0.33532369  0.33181020  0.33413525  1
  Ni  Ni15  1  0.33479959  0.67048702  0.99946709  1
  Ni  Ni16  1  0.50183457  0.83598007  0.16645378  1
  Cr  Cr17  1  0.33495481  0.67162032  0.33469718  1
  Ni  Ni18  1  0.67002453  1.00075462  0.00176032  1
  Ni  Ni19  1  0.83540656  0.16917303  0.16765288  1
  Cr  Cr20  1  0.66858906  1.00078934  0.33459854  1
  Ni  Ni21  1  0.67005299  0.33536456  0.00178678  1
  Ni  Ni22  1  0.83388260  0.50175212  0.16857859  1
  Ni  Ni23  1  0.67065379  0.33489231  0.33446815  1
  Ni  Ni24  1  0.66912329  0.66887837  1.00138591  1
  Ni  Ni25  1  0.83590111  0.83381145  0.16802412  1
  Ni  Ni26  1  0.67149080  0.66822806  0.33423223  1
  Fe  Fe27  1  0.16711733  0.16728553  0.50192981  1
  Fe  Fe28  1  0.99881452  1.00061688  0.66834071  1
  Cr  Cr29  1  0.16587307  0.16722997  0.83540665  1
  Ni  Ni30  1  0.16463262  0.50165170  0.50311027  1
  Ni  Ni31  1  0.00158376  0.33648900  0.66834490  1
  Ni  Ni32  1  0.16750607  0.50350597  0.83359826  1
  Ni  Ni33  1  0.16666594  0.83524603  0.50215928  1
  Ni  Ni34  1  0.00163393  0.66867451  0.66812863  1
  Ni  Ni35  1  0.16758565  0.83270688  0.83530703  1
  Ni  Ni36  1  0.50172190  0.16690548  0.50317557  1
  Fe  Fe37  1  0.33493415  0.99987404  0.66731508  1
  Cr  Cr38  1  0.50436228  0.16671142  0.83439625  1
  Cr  Cr39  1  0.50449989  0.50154757  0.50169098  1
  Ni  Ni40  1  0.33363253  0.33535729  0.66722405  1
  Ni  Ni41  1  0.50202840  0.50313642  0.83433605  1
  Ni  Ni42  1  0.50206770  0.83728415  0.50326917  1
  Fe  Fe43  1  0.33487035  0.66794310  0.66901393  1
  Ni  Ni44  1  0.50230881  0.83326001  0.83459862  1
  Fe  Fe45  1  0.83512502  0.16873808  0.50262682  1
  Ni  Ni46  1  0.66915769  1.00020908  0.66799075  1
  Ni  Ni47  1  0.83457084  0.16810563  0.83483664  1
  Ni  Ni48  1  0.83700890  0.50169798  0.50157451  1
  Ni  Ni49  1  0.66934923  0.33454000  0.66819659  1
  Fe  Fe50  1  0.83441898  0.50264861  0.83440205  1
  Ni  Ni51  1  0.83582292  0.83336274  0.50172605  1
  Ni  Ni52  1  0.67035870  0.67007201  0.66880633  1
  Ni  Ni53  1  0.83473134  0.83552753  0.83509637  1
" 