1453,Ni72Fe2Cr25_3,-228.767823094177, 151.480952074529,Ni72Fe2Cr25,"# generated using pymatgen
 data_Cr15FeNi38
_symmetry_space_group_name_H-M   'P 1'
_cell_length_a   7.48121903
_cell_length_b   7.48121903
_cell_length_c   10.58004141
_cell_angle_alpha   90.00000000
_cell_angle_beta   90.00000000
_cell_angle_gamma   90.00000000
_symmetry_Int_Tables_number   1
_chemical_formula_structural   Cr15FeNi38
_chemical_formula_sum   'Cr15 Fe1 Ni38'
_cell_volume   592.15050908
_cell_formula_units_Z   1
loop_
 _symmetry_equiv_pos_site_id
 _symmetry_equiv_pos_as_xyz
  1  'x, y, z'
loop_
 _atom_site_type_symbol
 _atom_site_label
 _atom_site_symmetry_multiplicity
 _atom_site_fract_x
 _atom_site_fract_y
 _atom_site_fract_z
 _atom_site_occupancy
  Cr  Cr0  1  0.99368476  0.99851630  0.99612323  1
  Cr  Cr1  1  0.16667840  0.16606438  0.16148374  1
  Ni  Ni2  1  0.99435024  0.99781360  0.33247410  1
  Ni  Ni3  1  0.99822859  0.33404034  0.99802390  1
  Ni  Ni4  1  0.16312356  0.50021061  0.16205071  1
  Cr  Cr5  1  0.99837913  0.33403245  0.33240593  1
  Ni  Ni6  1  0.99815863  0.66398663  -0.00025452  1
  Cr  Cr7  1  0.16438050  0.83169857  0.16544448  1
  Ni  Ni8  1  0.99615693  0.66503837  0.33192547  1
  Ni  Ni9  1  0.33637904  0.99900654  0.99678237  1
  Ni  Ni10  1  0.50339616  0.16396040  0.16355713  1
  Cr  Cr11  1  0.33732272  0.99870569  0.33299370  1
  Ni  Ni12  1  0.33335500  0.33259378  0.99724441  1
  Cr  Cr13  1  0.50078793  0.49962261  0.16187420  1
  Cr  Cr14  1  0.33552890  0.33263118  0.33138234  1
  Ni  Ni15  1  0.33284862  0.66589279  0.99689796  1
  Ni  Ni16  1  0.50267479  0.83378265  0.16372071  1
  Cr  Cr17  1  0.33282389  0.66490074  0.33393429  1
  Ni  Ni18  1  0.66336936  0.99901731  0.99893083  1
  Ni  Ni19  1  0.82952790  0.16566150  0.16563629  1
  Ni  Ni20  1  0.66723523  -0.00078395  0.33125308  1
  Ni  Ni21  1  0.66587713  0.33047055  -0.00022846  1
  Ni  Ni22  1  0.83266436  0.50016373  0.16503830  1
  Fe  Fe23  1  0.66798915  0.33158566  0.33181407  1
  Ni  Ni24  1  0.66574999  0.66777103  0.99872525  1
  Ni  Ni25  1  0.82934773  0.83136540  0.16584164  1
  Ni  Ni26  1  0.66823116  0.66799200  0.33147072  1
  Cr  Cr27  1  0.16431777  0.16198976  0.50084428  1
  Cr  Cr28  1  0.99702140  0.00010869  0.66969287  1
  Ni  Ni29  1  0.16690833  0.16642407  0.83360507  1
  Ni  Ni30  1  0.16367218  0.50104124  0.50026388  1
  Ni  Ni31  1  0.99686266  0.33231508  0.66637293  1
  Ni  Ni32  1  0.16686065  0.49905348  0.83488278  1
  Ni  Ni33  1  0.16688287  0.83037767  0.49914985  1
  Cr  Cr34  1  0.00039598  0.66384012  0.66698192  1
  Ni  Ni35  1  0.16879685  0.83198885  0.83327931  1
  Ni  Ni36  1  0.50385066  0.16313503  0.49959318  1
  Ni  Ni37  1  0.33555087  0.99675380  0.66659477  1
  Ni  Ni38  1  0.50007446  0.16534712  0.83335735  1
  Cr  Cr39  1  0.50407195  0.50058750  0.50163073  1
  Cr  Cr40  1  0.33225195  0.33306671  0.66734575  1
  Ni  Ni41  1  0.49819491  0.49979250  0.83311892  1
  Ni  Ni42  1  0.49980057  0.83425040  0.50116654  1
  Ni  Ni43  1  0.33351738  0.66828276  0.66660070  1
  Ni  Ni44  1  0.49930454  0.83214442  0.83216131  1
  Ni  Ni45  1  0.82857028  0.16721525  0.49951566  1
  Ni  Ni46  1  0.66281201  0.00016566  0.66731534  1
  Ni  Ni47  1  0.82972483  0.16675286  0.83212012  1
  Ni  Ni48  1  0.83261081  0.49781384  0.49903382  1
  Ni  Ni49  1  0.66705358  0.33029379  0.66478852  1
  Cr  Cr50  1  0.82883504  0.49839524  0.83273608  1
  Cr  Cr51  1  0.83076915  0.83240057  0.49894030  1
  Ni  Ni52  1  0.66319948  0.66690132  0.66714146  1
  Ni  Ni53  1  0.82869385  0.83267623  0.83407550  1
" 