3230,Ni72Fe2Cr25_7,-228.639053269138, 154.251225981322,Ni72Fe2Cr25,"# generated using pymatgen
 data_Cr15FeNi38
_symmetry_space_group_name_H-M   'P 1'
_cell_length_a   7.48062613
_cell_length_b   7.48062613
_cell_length_c   10.57920292
_cell_angle_alpha   90.00000000
_cell_angle_beta   90.00000000
_cell_angle_gamma   90.00000000
_symmetry_Int_Tables_number   1
_chemical_formula_structural   Cr15FeNi38
_chemical_formula_sum   'Cr15 Fe1 Ni38'
_cell_volume   592.00973324
_cell_formula_units_Z   1
loop_
 _symmetry_equiv_pos_site_id
 _symmetry_equiv_pos_as_xyz
  1  'x, y, z'
loop_
 _atom_site_type_symbol
 _atom_site_label
 _atom_site_symmetry_multiplicity
 _atom_site_fract_x
 _atom_site_fract_y
 _atom_site_fract_z
 _atom_site_occupancy
  Cr  Cr0  1  0.99828393  0.00086374  -0.00027109  1
  Ni  Ni1  1  0.16402465  0.16709005  0.16741865  1
  Ni  Ni2  1  0.99907551  0.99799219  0.33051917  1
  Ni  Ni3  1  0.00017613  0.33211347  0.99779308  1
  Ni  Ni4  1  0.16723358  0.49740121  0.16555580  1
  Ni  Ni5  1  0.00022404  0.33211108  0.33064267  1
  Cr  Cr6  1  0.00028456  0.66536558  0.99836509  1
  Ni  Ni7  1  0.16581739  0.83278896  0.16757471  1
  Ni  Ni8  1  -0.00024903  0.66719075  0.33281180  1
  Cr  Cr9  1  0.33196977  0.99805421  0.99779357  1
  Cr  Cr10  1  0.49881123  0.16708662  0.16733293  1
  Ni  Ni11  1  0.33154760  0.99764139  0.33195783  1
  Ni  Ni12  1  0.33080006  0.33489176  -0.00005637  1
  Ni  Ni13  1  0.49848997  0.50011142  0.16488785  1
  Fe  Fe14  1  0.33160072  0.33338086  0.33128799  1
  Ni  Ni15  1  0.33328095  0.66420330  -0.00006292  1
  Ni  Ni16  1  0.49979454  0.82992803  0.16632776  1
  Cr  Cr17  1  0.33224965  0.66548342  0.33311640  1
  Cr  Cr18  1  0.66703416  0.99886447  0.99885572  1
  Ni  Ni19  1  0.83437953  0.16586730  0.16750549  1
  Ni  Ni20  1  0.66665513  0.99727166  0.33160452  1
  Ni  Ni21  1  0.66628905  0.33348547  0.99798023  1
  Cr  Cr22  1  0.83135409  0.49896050  0.16572476  1
  Ni  Ni23  1  0.66559751  0.33281265  0.33172513  1
  Ni  Ni24  1  0.66337466  0.66527522  -0.00071812  1
  Ni  Ni25  1  0.83164797  0.83313778  0.16891570  1
  Ni  Ni26  1  0.66526611  0.66721683  0.33259215  1
  Cr  Cr27  1  0.16504628  0.16422393  0.49835448  1
  Ni  Ni28  1  0.99879512  -0.00071909  0.66725207  1
  Ni  Ni29  1  0.16473188  0.16635640  0.83151208  1
  Ni  Ni30  1  0.16562536  0.49939442  0.49735245  1
  Ni  Ni31  1  0.99809014  0.33130750  0.66879814  1
  Ni  Ni32  1  0.16367819  0.49705831  0.83431442  1
  Ni  Ni33  1  0.16524561  0.83313791  0.49842988  1
  Cr  Cr34  1  -0.00090051  0.66591812  0.66581884  1
  Ni  Ni35  1  0.16662306  0.83383740  0.83129764  1
  Cr  Cr36  1  0.49950314  0.16466197  0.49881138  1
  Ni  Ni37  1  0.33274590  0.99748165  0.66757684  1
  Ni  Ni38  1  0.49975354  0.16479272  0.83112845  1
  Ni  Ni39  1  0.50034412  0.50039745  0.49790347  1
  Cr  Cr40  1  0.33178181  0.33239062  0.66521652  1
  Cr  Cr41  1  0.50114702  0.49962545  0.83497499  1
  Ni  Ni42  1  0.50051466  0.83205150  0.49949172  1
  Cr  Cr43  1  0.33267238  0.66753057  0.66443161  1
  Ni  Ni44  1  0.49983784  0.83348703  0.83147781  1
  Cr  Cr45  1  0.83270895  0.16441334  0.49906309  1
  Ni  Ni46  1  0.66574015  0.99785183  0.66728345  1
  Ni  Ni47  1  0.83279509  0.16770812  0.83065853  1
  Cr  Cr48  1  0.83160558  0.50006318  0.49912867  1
  Ni  Ni49  1  0.66749911  0.33176836  0.66756281  1
  Ni  Ni50  1  0.83243877  0.49716644  0.83214973  1
  Ni  Ni51  1  0.83151741  0.83242015  0.49797024  1
  Ni  Ni52  1  0.66565625  0.66766875  0.66542508  1
  Ni  Ni53  1  0.83078043  0.83240680  0.83042584  1
" 