5481,Ni72Fe7Cr20_16,-231.599617384976, 163.953873814362,Ni72Fe7Cr20,"# generated using pymatgen
 data_Cr4FeNi13
_symmetry_space_group_name_H-M   'P 1'
_cell_length_a   7.46724820
_cell_length_b   7.46724820
_cell_length_c   10.56028367
_cell_angle_alpha   90.00000000
_cell_angle_beta   90.00000000
_cell_angle_gamma   90.00000000
_symmetry_Int_Tables_number   1
_chemical_formula_structural   Cr4FeNi13
_chemical_formula_sum   'Cr12 Fe3 Ni39'
_cell_volume   588.83925914
_cell_formula_units_Z   3
loop_
 _symmetry_equiv_pos_site_id
 _symmetry_equiv_pos_as_xyz
  1  'x, y, z'
loop_
 _atom_site_type_symbol
 _atom_site_label
 _atom_site_symmetry_multiplicity
 _atom_site_fract_x
 _atom_site_fract_y
 _atom_site_fract_z
 _atom_site_occupancy
  Ni  Ni0  1  0.99905273  0.00252609  0.00044092  1
  Ni  Ni1  1  0.16737752  0.16773761  0.16486653  1
  Cr  Cr2  1  0.00041576  0.99919827  0.33316156  1
  Ni  Ni3  1  0.99969992  0.33167906  0.00008986  1
  Ni  Ni4  1  0.16527066  0.49700374  0.16757561  1
  Fe  Fe5  1  0.00045563  0.33305363  0.33265194  1
  Cr  Cr6  1  0.99839291  0.66654205  0.00127896  1
  Ni  Ni7  1  0.16578558  0.83519665  0.16753853  1
  Ni  Ni8  1  0.99992125  0.66568015  0.33372346  1
  Ni  Ni9  1  0.33333235  0.00163913  0.00225548  1
  Ni  Ni10  1  0.50035249  0.16698762  0.16751254  1
  Ni  Ni11  1  0.33333028  0.00325745  0.33254546  1
  Ni  Ni12  1  0.33186278  0.33182149  0.00133424  1
  Ni  Ni13  1  0.50103241  0.49614805  0.16525241  1
  Ni  Ni14  1  0.33415926  0.33199971  0.33351228  1
  Cr  Cr15  1  0.33554480  0.66666306  0.00383658  1
  Ni  Ni16  1  0.50141140  0.83701880  0.16504780  1
  Cr  Cr17  1  0.33166659  0.66621719  0.33033048  1
  Ni  Ni18  1  0.66759803  0.99959982  0.00093790  1
  Ni  Ni19  1  0.83230378  0.16746062  0.16569353  1
  Ni  Ni20  1  0.66668787  0.00294132  0.33281549  1
  Ni  Ni21  1  0.66822406  0.33330816  0.00191729  1
  Ni  Ni22  1  0.83387197  0.49802771  0.16704521  1
  Ni  Ni23  1  0.66574926  0.33181624  0.33342137  1
  Ni  Ni24  1  0.66769676  0.66716479  0.00051359  1
  Ni  Ni25  1  0.83295167  0.83448273  0.16558976  1
  Cr  Cr26  1  0.66771550  0.66586434  0.33121075  1
  Ni  Ni27  1  0.16866699  0.16811420  0.50015816  1
  Cr  Cr28  1  0.99841974  0.00106241  0.66695163  1
  Fe  Fe29  1  0.16684819  0.16747525  0.83516512  1
  Ni  Ni30  1  0.16682604  0.49997865  0.50005085  1
  Cr  Cr31  1  0.00042920  0.33297979  0.66712405  1
  Ni  Ni32  1  0.16553904  0.49802192  0.83243641  1
  Ni  Ni33  1  0.16532794  0.83205726  0.50053940  1
  Ni  Ni34  1  0.99915850  0.66609947  0.66513163  1
  Cr  Cr35  1  0.16795557  0.83300857  0.83206548  1
  Ni  Ni36  1  0.49962879  0.16783199  0.49894198  1
  Ni  Ni37  1  0.33364456  0.00113493  0.66508634  1
  Cr  Cr38  1  0.49976425  0.16462772  0.83382227  1
  Ni  Ni39  1  0.49803805  0.49751342  0.50111016  1
  Ni  Ni40  1  0.33197733  0.33328476  0.66518263  1
  Cr  Cr41  1  0.49927813  0.50091524  0.83351590  1
  Cr  Cr42  1  0.50012553  0.83505576  0.50199475  1
  Ni  Ni43  1  0.33266292  0.66559472  0.66572432  1
  Ni  Ni44  1  0.50228133  0.83472208  0.83236506  1
  Ni  Ni45  1  0.83171039  0.16585358  0.49798970  1
  Ni  Ni46  1  0.66703929  0.99908386  0.66633279  1
  Ni  Ni47  1  0.83296871  0.16594702  0.83648076  1
  Fe  Fe48  1  0.83398848  0.50062198  0.49888374  1
  Cr  Cr49  1  0.66704313  0.33217640  0.66454018  1
  Ni  Ni50  1  0.83478414  0.50037250  0.83370779  1
  Ni  Ni51  1  0.83430384  0.83323656  0.50135061  1
  Ni  Ni52  1  0.66813135  0.66762555  0.66746020  1
  Ni  Ni53  1  0.83087008  0.83384366  0.83306327  1
" 