698,Ni72Fe5Cr21_16,-231.556836591211, 163.789465421116,Ni72Fe5Cr21,"# generated using pymatgen
 data_Cr4FeNi13
_symmetry_space_group_name_H-M   'P 1'
_cell_length_a   7.46602859
_cell_length_b   7.46602859
_cell_length_c   10.55855890
_cell_angle_alpha   90.00000000
_cell_angle_beta   90.00000000
_cell_angle_gamma   90.00000000
_symmetry_Int_Tables_number   1
_chemical_formula_structural   Cr4FeNi13
_chemical_formula_sum   'Cr12 Fe3 Ni39'
_cell_volume   588.55078669
_cell_formula_units_Z   3
loop_
 _symmetry_equiv_pos_site_id
 _symmetry_equiv_pos_as_xyz
  1  'x, y, z'
loop_
 _atom_site_type_symbol
 _atom_site_label
 _atom_site_symmetry_multiplicity
 _atom_site_fract_x
 _atom_site_fract_y
 _atom_site_fract_z
 _atom_site_occupancy
  Ni  Ni0  1  0.99825842  0.99670622  0.99943359  1
  Cr  Cr1  1  0.16713619  0.16814200  0.16789813  1
  Cr  Cr2  1  0.99872722  0.99803061  0.33337661  1
  Cr  Cr3  1  0.00238941  0.33418913  0.99970911  1
  Ni  Ni4  1  0.16796355  0.50198401  0.16735237  1
  Ni  Ni5  1  0.99901656  0.33638937  0.33443373  1
  Fe  Fe6  1  0.00113207  0.66936334  0.99919745  1
  Ni  Ni7  1  0.16703768  0.83077568  0.16631909  1
  Ni  Ni8  1  0.00125233  0.66544178  0.33325021  1
  Cr  Cr9  1  0.33294446  0.99990651  0.00064108  1
  Ni  Ni10  1  0.50168516  0.16469973  0.16765118  1
  Ni  Ni11  1  0.33709959  0.99825972  0.33327322  1
  Ni  Ni12  1  0.33326503  0.33561764  0.99805675  1
  Cr  Cr13  1  0.49771889  0.50139491  0.16739105  1
  Ni  Ni14  1  0.33447367  0.33454907  0.33336212  1
  Ni  Ni15  1  0.33214687  0.66514526  1.00001000  1
  Ni  Ni16  1  0.50114072  0.83451032  0.16777514  1
  Ni  Ni17  1  0.33230053  0.66738974  0.33427622  1
  Ni  Ni18  1  0.66887267  0.99778866  0.00245601  1
  Ni  Ni19  1  0.83113208  0.16378027  0.16773885  1
  Ni  Ni20  1  0.66481713  0.00047818  0.33251291  1
  Cr  Cr21  1  0.66438602  0.33289363  0.99873906  1
  Cr  Cr22  1  0.83454567  0.50126288  0.16843289  1
  Ni  Ni23  1  0.66670905  0.33158976  0.33506173  1
  Ni  Ni24  1  0.66719362  0.66936320  0.99861611  1
  Ni  Ni25  1  0.83204270  0.83505900  0.16464922  1
  Ni  Ni26  1  0.66667197  0.66813475  0.33523168  1
  Cr  Cr27  1  0.16676072  0.16740138  0.50127518  1
  Ni  Ni28  1  0.00252515  0.99777159  0.66755134  1
  Ni  Ni29  1  0.16771240  0.16715970  0.83162037  1
  Ni  Ni30  1  0.16665083  0.50105699  0.49958305  1
  Ni  Ni31  1  0.00220236  0.33551042  0.66656374  1
  Ni  Ni32  1  0.16825062  0.49943342  0.83326083  1
  Ni  Ni33  1  0.16786031  0.83148084  0.50123897  1
  Ni  Ni34  1  0.99970664  0.66692987  0.66758426  1
  Ni  Ni35  1  0.16457812  0.83364112  0.83267644  1
  Ni  Ni36  1  0.50006553  0.16658951  0.49857541  1
  Ni  Ni37  1  0.33098019  0.00052813  0.66677897  1
  Fe  Fe38  1  0.49646872  0.16834971  0.83338143  1
  Ni  Ni39  1  0.49985389  0.50110221  0.49952250  1
  Ni  Ni40  1  0.33222869  0.33361825  0.66881122  1
  Ni  Ni41  1  0.49845759  0.50046182  0.83376409  1
  Ni  Ni42  1  0.49971444  0.83251952  0.49870245  1
  Fe  Fe43  1  0.33183483  0.66585684  0.66589882  1
  Cr  Cr44  1  0.50088176  0.83105430  0.83332036  1
  Ni  Ni45  1  0.83267731  0.16776597  0.49862865  1
  Cr  Cr46  1  0.66655442  0.99834252  0.66479524  1
  Cr  Cr47  1  0.83617857  0.16471061  0.83333450  1
  Ni  Ni48  1  0.83370508  0.50068105  0.49958659  1
  Cr  Cr49  1  0.66590411  0.33640063  0.66613226  1
  Ni  Ni50  1  0.83349758  0.50358694  0.83234478  1
  Ni  Ni51  1  0.83265890  0.83176487  0.50063552  1
  Ni  Ni52  1  0.66849060  0.66574396  0.66637137  1
  Ni  Ni53  1  0.83522652  0.83137760  0.83490128  1
" 