5718,Ni72Fe28_1,-235.985477654182, 204.70768608978,Ni72Fe28,"# generated using pymatgen
 data_Fe19Ni8
_symmetry_space_group_name_H-M   'P 1'
_cell_length_a   7.39693445
_cell_length_b   7.39693445
_cell_length_c   10.46084503
_cell_angle_alpha   90.00000000
_cell_angle_beta   90.00000000
_cell_angle_gamma   90.00000000
_symmetry_Int_Tables_number   1
_chemical_formula_structural   Fe19Ni8
_chemical_formula_sum   'Fe38 Ni16'
_cell_volume   572.36136263
_cell_formula_units_Z   2
loop_
 _symmetry_equiv_pos_site_id
 _symmetry_equiv_pos_as_xyz
  1  'x, y, z'
loop_
 _atom_site_type_symbol
 _atom_site_label
 _atom_site_symmetry_multiplicity
 _atom_site_fract_x
 _atom_site_fract_y
 _atom_site_fract_z
 _atom_site_occupancy
  Fe  Fe0  1  0.00525613  1.00365048  1.00407004  1
  Ni  Ni1  1  0.17122899  0.17004663  0.17189323  1
  Fe  Fe2  1  0.00584891  1.00466287  0.33857537  1
  Fe  Fe3  1  1.00465654  0.33899707  0.00585024  1
  Fe  Fe4  1  0.17124243  0.50456235  0.17200750  1
  Ni  Ni5  1  1.00366550  0.33816178  0.33797014  1
  Fe  Fe6  1  1.00449234  0.67156995  0.00516015  1
  Fe  Fe7  1  0.17192499  0.83714458  0.17133980  1
  Ni  Ni8  1  0.00529049  0.66978249  0.33759301  1
  Fe  Fe9  1  0.33819232  1.00417893  0.00518823  1
  Fe  Fe10  1  0.50458932  0.17196321  0.17112259  1
  Ni  Ni11  1  0.33877664  1.00425887  0.33846933  1
  Fe  Fe12  1  0.33917781  0.33885009  1.00457997  1
  Ni  Ni13  1  0.50578468  0.50540982  0.17200631  1
  Fe  Fe14  1  0.33712813  0.33841135  0.33763480  1
  Ni  Ni15  1  0.33910359  0.67102265  0.00522384  1
  Fe  Fe16  1  0.50438860  0.83728809  0.17157314  1
  Ni  Ni17  1  0.33790374  0.67188913  0.33710481  1
  Fe  Fe18  1  0.67076768  1.00402106  1.00393440  1
  Fe  Fe19  1  0.83830339  0.17264557  0.17212849  1
  Fe  Fe20  1  0.67161381  1.00445333  0.33904089  1
  Fe  Fe21  1  0.67038610  0.33961534  1.00465845  1
  Ni  Ni22  1  0.83682245  0.50542437  0.17205151  1
  Fe  Fe23  1  0.67154970  0.33887275  0.33794094  1
  Ni  Ni24  1  0.67006529  0.67103722  1.00434063  1
  Fe  Fe25  1  0.83790781  0.83720586  0.17124001  1
  Fe  Fe26  1  0.67148667  0.67089447  0.33697310  1
  Fe  Fe27  1  0.17058820  0.17135380  0.50384852  1
  Ni  Ni28  1  1.00331790  0.00617181  0.67091360  1
  Fe  Fe29  1  0.17204155  0.17133601  0.83852531  1
  Fe  Fe30  1  0.17082660  0.50467436  0.50438464  1
  Fe  Fe31  1  1.00444005  0.33734353  0.67051745  1
  Fe  Fe32  1  0.17286823  0.50511369  0.83782469  1
  Fe  Fe33  1  0.17120762  0.83818713  0.50510898  1
  Fe  Fe34  1  0.00489296  0.67273513  0.67112156  1
  Ni  Ni35  1  0.17080249  0.83836266  0.83779084  1
  Fe  Fe36  1  0.50542547  0.17080547  0.50532685  1
  Fe  Fe37  1  0.33798481  1.00437765  0.67134008  1
  Ni  Ni38  1  0.50494535  0.17227432  0.83779844  1
  Fe  Fe39  1  0.50472015  0.50476043  0.50490307  1
  Fe  Fe40  1  0.33867055  0.33750149  0.67200520  1
  Ni  Ni41  1  0.50533794  0.50434886  0.83768306  1
  Fe  Fe42  1  0.50488952  0.83865157  0.50457934  1
  Ni  Ni43  1  0.33845193  0.67081653  0.67189117  1
  Fe  Fe44  1  0.50429018  0.83763492  0.83806857  1
  Ni  Ni45  1  0.83854732  0.17103338  0.50424582  1
  Ni  Ni46  1  0.67244120  0.00577836  0.67216936  1
  Fe  Fe47  1  0.83764338  0.17089614  0.83689066  1
  Fe  Fe48  1  0.83866948  0.50413845  0.50363438  1
  Fe  Fe49  1  0.67111149  0.33734325  0.67161915  1
  Fe  Fe50  1  0.83750779  0.50487429  0.83895996  1
  Fe  Fe51  1  0.83812551  0.83888841  0.50512128  1
  Fe  Fe52  1  0.67133723  0.67204732  0.67212809  1
  Fe  Fe53  1  0.83728531  0.83845498  0.83785332  1
" 