3773,Ni72Fe2Cr25_19,-228.363032113, 145.246297323033,Ni72Fe2Cr25,"# generated using pymatgen
 data_Cr15FeNi38
_symmetry_space_group_name_H-M   'P 1'
_cell_length_a   7.48308735
_cell_length_b   7.48308735
_cell_length_c   10.58268362
_cell_angle_alpha   90.00000000
_cell_angle_beta   90.00000000
_cell_angle_gamma   90.00000000
_symmetry_Int_Tables_number   1
_chemical_formula_structural   Cr15FeNi38
_chemical_formula_sum   'Cr15 Fe1 Ni38'
_cell_volume   592.59426317
_cell_formula_units_Z   1
loop_
 _symmetry_equiv_pos_site_id
 _symmetry_equiv_pos_as_xyz
  1  'x, y, z'
loop_
 _atom_site_type_symbol
 _atom_site_label
 _atom_site_symmetry_multiplicity
 _atom_site_fract_x
 _atom_site_fract_y
 _atom_site_fract_z
 _atom_site_occupancy
  Ni  Ni0  1  0.99619081  0.99611701  0.99843970  1
  Cr  Cr1  1  0.16215273  0.16494348  0.16583257  1
  Ni  Ni2  1  0.99522999  -0.00091903  0.33369134  1
  Cr  Cr3  1  0.99633831  0.33419123  -0.00037654  1
  Ni  Ni4  1  0.16474653  0.50154839  0.16648675  1
  Ni  Ni5  1  0.99637286  0.33281665  0.33323755  1
  Ni  Ni6  1  0.99794401  0.66711199  0.99794848  1
  Cr  Cr7  1  0.16379776  0.83027092  0.16429998  1
  Ni  Ni8  1  -0.00045928  0.66490860  0.33300679  1
  Ni  Ni9  1  0.33330770  0.99611071  0.99601060  1
  Cr  Cr10  1  0.50301701  0.16606854  0.16415230  1
  Cr  Cr11  1  0.33205532  0.99759119  0.33588770  1
  Cr  Cr12  1  0.33394907  0.33472801  -0.00106394  1
  Ni  Ni13  1  0.49998524  0.49966057  0.16466793  1
  Cr  Cr14  1  0.33203001  0.33536586  0.33303240  1
  Ni  Ni15  1  0.33259221  0.66596256  0.99750625  1
  Cr  Cr16  1  0.50009748  0.83054239  0.16431551  1
  Ni  Ni17  1  0.33055184  0.66377041  0.33391481  1
  Ni  Ni18  1  0.66733415  0.99855532  0.99722426  1
  Ni  Ni19  1  0.83131741  0.16518482  0.16668005  1
  Ni  Ni20  1  0.66940137  0.00066325  0.33427078  1
  Ni  Ni21  1  0.66617597  0.33297905  0.99848506  1
  Ni  Ni22  1  0.83203047  0.49832475  0.16531154  1
  Ni  Ni23  1  0.66822868  0.33123849  0.33261664  1
  Ni  Ni24  1  0.66625593  0.66525658  0.99809624  1
  Ni  Ni25  1  0.83311255  0.83329315  0.16444938  1
  Cr  Cr26  1  0.66626926  0.66489031  0.33320551  1
  Ni  Ni27  1  0.16395792  0.16720497  0.49888067  1
  Cr  Cr28  1  0.99790557  0.99767660  0.66473364  1
  Cr  Cr29  1  0.16482251  0.16568642  0.83205684  1
  Ni  Ni30  1  0.16516705  0.49961883  0.50010502  1
  Ni  Ni31  1  0.00037112  0.33505747  0.66444847  1
  Ni  Ni32  1  0.16617189  0.50212733  0.83020659  1
  Ni  Ni33  1  0.16527621  0.82993546  0.49817650  1
  Ni  Ni34  1  0.00099366  0.66343660  0.66584655  1
  Ni  Ni35  1  0.16633556  0.82929666  0.83434955  1
  Ni  Ni36  1  0.49986921  0.16619222  0.49868741  1
  Cr  Cr37  1  0.33302725  0.99818661  0.66451344  1
  Fe  Fe38  1  0.50073302  0.16563174  0.83368106  1
  Ni  Ni39  1  0.49688244  0.49886789  0.49863881  1
  Ni  Ni40  1  0.33092675  0.33511143  0.66452349  1
  Ni  Ni41  1  0.49813261  0.50055248  0.83348278  1
  Ni  Ni42  1  0.49775993  0.83172155  0.49796072  1
  Ni  Ni43  1  0.33035578  0.66344651  0.66539697  1
  Ni  Ni44  1  0.49796827  0.83085170  0.83498015  1
  Ni  Ni45  1  0.83295248  0.16631354  0.49577100  1
  Cr  Cr46  1  0.66585973  0.99800165  0.66494571  1
  Ni  Ni47  1  0.83089080  0.16558182  0.83438126  1
  Ni  Ni48  1  0.83474934  0.49757399  0.49837289  1
  Cr  Cr49  1  0.66585260  0.33264606  0.66589158  1
  Ni  Ni50  1  0.83253169  0.49927779  0.83311645  1
  Ni  Ni51  1  0.83375821  0.83290001  0.49708338  1
  Cr  Cr52  1  0.66633088  0.66614630  0.66533267  1
  Ni  Ni53  1  0.83251855  0.83190760  0.83523318  1
" 