3500,Ni72Fe5Cr21_0,-231.635564501211, 165.519845306444,Ni72Fe5Cr21,"# generated using pymatgen
 data_Cr4FeNi13
_symmetry_space_group_name_H-M   'P 1'
_cell_length_a   7.46490092
_cell_length_b   7.46490092
_cell_length_c   10.55696413
_cell_angle_alpha   90.00000000
_cell_angle_beta   90.00000000
_cell_angle_gamma   90.00000000
_symmetry_Int_Tables_number   1
_chemical_formula_structural   Cr4FeNi13
_chemical_formula_sum   'Cr12 Fe3 Ni39'
_cell_volume   588.28414213
_cell_formula_units_Z   3
loop_
 _symmetry_equiv_pos_site_id
 _symmetry_equiv_pos_as_xyz
  1  'x, y, z'
loop_
 _atom_site_type_symbol
 _atom_site_label
 _atom_site_symmetry_multiplicity
 _atom_site_fract_x
 _atom_site_fract_y
 _atom_site_fract_z
 _atom_site_occupancy
  Cr  Cr0  1  0.00109048  0.99933480  0.00234313  1
  Ni  Ni1  1  0.16509883  0.16849174  0.16695262  1
  Ni  Ni2  1  0.00068543  0.00149032  0.33194037  1
  Ni  Ni3  1  0.99981437  0.33606260  0.00157291  1
  Ni  Ni4  1  0.16579789  0.49883235  0.16542536  1
  Ni  Ni5  1  0.00242785  0.33238270  0.33365255  1
  Ni  Ni6  1  0.00072810  0.66485774  0.99875941  1
  Ni  Ni7  1  0.16716460  0.83264498  0.16507127  1
  Cr  Cr8  1  0.00136395  0.66465076  0.33329367  1
  Ni  Ni9  1  0.33365215  0.99825771  0.99880031  1
  Cr  Cr10  1  0.49857234  0.16713737  0.16406923  1
  Cr  Cr11  1  0.33193995  0.00062688  0.33407875  1
  Ni  Ni12  1  0.33128221  0.33341756  0.00064653  1
  Cr  Cr13  1  0.49893175  0.50228318  0.16516833  1
  Ni  Ni14  1  0.33026024  0.33472304  0.33520640  1
  Ni  Ni15  1  0.33134456  0.66834739  0.00124544  1
  Ni  Ni16  1  0.50026342  0.83203419  0.16707255  1
  Fe  Fe17  1  0.33312690  0.66643937  0.33436554  1
  Cr  Cr18  1  0.66681288  1.00010176  0.99941310  1
  Ni  Ni19  1  0.83652518  0.16774069  0.16860972  1
  Ni  Ni20  1  0.66722512  0.99893495  0.33343127  1
  Ni  Ni21  1  0.66946700  0.33437225  0.99805218  1
  Ni  Ni22  1  0.83531600  0.50083831  0.16430727  1
  Cr  Cr23  1  0.66740547  0.33474050  0.33591392  1
  Ni  Ni24  1  0.66827369  0.66717410  0.00058254  1
  Ni  Ni25  1  0.83316173  0.83218654  0.16832061  1
  Ni  Ni26  1  0.66547158  0.66791859  0.33324371  1
  Ni  Ni27  1  0.16634558  0.16868013  0.49948865  1
  Cr  Cr28  1  0.99980633  0.99963590  0.66704463  1
  Cr  Cr29  1  0.16856321  0.17088564  0.83395730  1
  Ni  Ni30  1  0.16777637  0.49884234  0.50145014  1
  Ni  Ni31  1  0.00025968  0.33549775  0.66515925  1
  Ni  Ni32  1  0.16543181  0.50144178  0.83350025  1
  Ni  Ni33  1  0.16895479  0.83269088  0.50229281  1
  Ni  Ni34  1  0.00384725  0.66424324  0.66880089  1
  Fe  Fe35  1  0.16775118  0.83084169  0.83364810  1
  Ni  Ni36  1  0.49958557  0.16678384  0.50312419  1
  Fe  Fe37  1  0.33513863  1.00011114  0.66621942  1
  Ni  Ni38  1  0.50034256  0.16539626  0.83237738  1
  Ni  Ni39  1  0.49776865  0.50041747  0.49969953  1
  Ni  Ni40  1  0.33366659  0.33444449  0.66455734  1
  Cr  Cr41  1  0.49762661  0.49888638  0.83618024  1
  Ni  Ni42  1  0.49893542  0.83327336  0.49952652  1
  Ni  Ni43  1  0.33136666  0.66683557  0.66504624  1
  Ni  Ni44  1  0.49892081  0.83415349  0.83350480  1
  Ni  Ni45  1  0.83418303  0.16796366  0.49992258  1
  Ni  Ni46  1  0.66453972  0.00198182  0.66727713  1
  Ni  Ni47  1  0.83250581  0.16882374  0.83215063  1
  Ni  Ni48  1  0.83487113  0.49817944  0.50202963  1
  Ni  Ni49  1  0.66672944  0.33073972  0.66648250  1
  Ni  Ni50  1  0.83657736  0.49967696  0.83417759  1
  Cr  Cr51  1  0.83353858  0.83444059  0.49840897  1
  Cr  Cr52  1  0.66686964  0.66520525  0.66671182  1
  Ni  Ni53  1  0.83265836  0.83166949  0.83348717  1
" 