1709,Ni72Fe28_11,-236.552929641346, 202.004739158107,Ni72Fe28,"# generated using pymatgen
 data_Fe19Ni8
_symmetry_space_group_name_H-M   'P 1'
_cell_length_a   7.40346464
_cell_length_b   7.40346464
_cell_length_c   10.47008010
_cell_angle_alpha   90.00000000
_cell_angle_beta   90.00000000
_cell_angle_gamma   90.00000000
_symmetry_Int_Tables_number   1
_chemical_formula_structural   Fe19Ni8
_chemical_formula_sum   'Fe38 Ni16'
_cell_volume   573.87858296
_cell_formula_units_Z   2
loop_
 _symmetry_equiv_pos_site_id
 _symmetry_equiv_pos_as_xyz
  1  'x, y, z'
loop_
 _atom_site_type_symbol
 _atom_site_label
 _atom_site_symmetry_multiplicity
 _atom_site_fract_x
 _atom_site_fract_y
 _atom_site_fract_z
 _atom_site_occupancy
  Fe  Fe0  1  1.00307615  1.00380670  0.00434349  1
  Fe  Fe1  1  0.17103542  0.17103549  0.17140298  1
  Ni  Ni2  1  1.00313550  1.00365962  0.33763381  1
  Fe  Fe3  1  1.00302283  0.33748297  1.00407333  1
  Fe  Fe4  1  0.17103692  0.50414565  0.17181500  1
  Fe  Fe5  1  1.00397437  0.33784575  0.33769775  1
  Fe  Fe6  1  1.00322415  0.67159243  0.00456205  1
  Fe  Fe7  1  0.17052022  0.83770201  0.17117546  1
  Ni  Ni8  1  1.00384607  0.67149904  0.33763861  1
  Fe  Fe9  1  0.33870683  1.00395033  1.00422480  1
  Fe  Fe10  1  0.50429245  0.17088820  0.17062119  1
  Fe  Fe11  1  0.33777760  1.00361844  0.33754542  1
  Fe  Fe12  1  0.33882201  0.33740948  1.00422472  1
  Fe  Fe13  1  0.50444371  0.50444588  0.17103336  1
  Ni  Ni14  1  0.33682998  0.33807592  0.33768271  1
  Fe  Fe15  1  0.33848093  0.67152458  1.00380218  1
  Fe  Fe16  1  0.50510705  0.83755049  0.17129897  1
  Fe  Fe17  1  0.33755466  0.67149588  0.33848142  1
  Ni  Ni18  1  0.67167158  1.00359219  1.00419061  1
  Fe  Fe19  1  0.83755492  0.17037223  0.17061638  1
  Ni  Ni20  1  0.67220114  1.00330580  0.33718572  1
  Fe  Fe21  1  0.67103597  0.33726105  1.00385493  1
  Fe  Fe22  1  0.83740176  0.50496111  0.17102978  1
  Fe  Fe23  1  0.67156513  0.33762399  0.33740180  1
  Ni  Ni24  1  0.67131747  0.67220991  1.00328559  1
  Fe  Fe25  1  0.83725797  0.83755003  0.17139986  1
  Ni  Ni26  1  0.67185014  0.67221509  0.33819709  1
  Fe  Fe27  1  0.17118499  0.17079538  0.50392130  1
  Fe  Fe28  1  1.00423973  1.00414392  0.67084385  1
  Fe  Fe29  1  0.17061464  0.17076581  0.83756169  1
  Ni  Ni30  1  0.17132029  0.50370343  0.50331803  1
  Fe  Fe31  1  0.00480182  0.33770080  0.67110988  1
  Fe  Fe32  1  0.17090422  0.50373180  0.83663064  1
  Fe  Fe33  1  0.17066055  0.83688670  0.50407331  1
  Fe  Fe34  1  0.00472963  0.67103535  0.67032414  1
  Fe  Fe35  1  0.17066410  0.83838317  0.83763270  1
  Fe  Fe36  1  0.50421929  0.17059915  0.50478171  1
  Fe  Fe37  1  0.33851867  0.00429416  0.67111289  1
  Ni  Ni38  1  0.50463857  0.17124249  0.83797720  1
  Fe  Fe39  1  0.50374707  0.50521598  0.50429100  1
  Ni  Ni40  1  0.33671607  0.33871516  0.67196033  1
  Fe  Fe41  1  0.50497680  0.50400043  0.83755959  1
  Ni  Ni42  1  0.50531108  0.83792714  0.50403159  1
  Ni  Ni43  1  0.33706829  0.66907031  0.67094000  1
  Fe  Fe44  1  0.50566704  0.83856135  0.83728388  1
  Fe  Fe45  1  0.83747939  0.16978196  0.50456333  1
  Ni  Ni46  1  0.67208808  1.00402261  0.67151017  1
  Ni  Ni47  1  0.83663214  0.17005628  0.83807777  1
  Fe  Fe48  1  0.83765750  0.50574035  0.50370352  1
  Fe  Fe49  1  0.67002887  0.33715439  0.67162887  1
  Fe  Fe50  1  0.83699575  0.50395341  0.83814676  1
  Ni  Ni51  1  0.83662436  0.83792878  0.50345373  1
  Fe  Fe52  1  0.67018375  0.67150639  0.67074217  1
  Ni  Ni53  1  0.83746776  0.83814640  0.83828423  1
" 