206,Ni72Fe28_12,-236.03129253915, 200.039671620275,Ni72Fe28,"# generated using pymatgen
 data_Fe19Ni8
_symmetry_space_group_name_H-M   'P 1'
_cell_length_a   7.39876643
_cell_length_b   7.39876643
_cell_length_c   10.46343582
_cell_angle_alpha   90.00000000
_cell_angle_beta   90.00000000
_cell_angle_gamma   90.00000000
_symmetry_Int_Tables_number   1
_chemical_formula_structural   Fe19Ni8
_chemical_formula_sum   'Fe38 Ni16'
_cell_volume   572.78673171
_cell_formula_units_Z   2
loop_
 _symmetry_equiv_pos_site_id
 _symmetry_equiv_pos_as_xyz
  1  'x, y, z'
loop_
 _atom_site_type_symbol
 _atom_site_label
 _atom_site_symmetry_multiplicity
 _atom_site_fract_x
 _atom_site_fract_y
 _atom_site_fract_z
 _atom_site_occupancy
  Ni  Ni0  1  1.00379527  1.00366480  1.00413899  1
  Fe  Fe1  1  0.17084183  0.17242503  0.17069467  1
  Ni  Ni2  1  1.00441256  1.00275411  0.33829947  1
  Fe  Fe3  1  0.00495083  0.33752665  1.00364693  1
  Fe  Fe4  1  0.17094452  0.50392067  0.17058028  1
  Fe  Fe5  1  1.00406918  0.33647067  0.33863650  1
  Ni  Ni6  1  1.00380163  0.67268373  1.00454713  1
  Ni  Ni7  1  0.17203532  0.83886590  0.17155703  1
  Fe  Fe8  1  0.00474270  0.66972078  0.33648735  1
  Fe  Fe9  1  0.33655455  0.00493944  1.00406484  1
  Fe  Fe10  1  0.50467783  0.17293822  0.17060996  1
  Fe  Fe11  1  0.33778981  0.00598309  0.33788227  1
  Ni  Ni12  1  0.34006102  0.33789468  1.00366794  1
  Ni  Ni13  1  0.50462467  0.50514253  0.17076065  1
  Ni  Ni14  1  0.33966414  0.33901844  0.33894937  1
  Fe  Fe15  1  0.33656294  0.67146554  0.00510554  1
  Fe  Fe16  1  0.50582389  0.83778150  0.17123958  1
  Fe  Fe17  1  0.33841317  0.67061352  0.33783161  1
  Fe  Fe18  1  0.67194312  0.00579285  1.00395731  1
  Ni  Ni19  1  0.83888623  0.17121621  0.17130678  1
  Fe  Fe20  1  0.67147709  0.00658571  0.33779096  1
  Fe  Fe21  1  0.67297236  0.33742350  0.00481180  1
  Ni  Ni22  1  0.83696362  0.50328301  0.17178016  1
  Ni  Ni23  1  0.66932653  0.33861813  0.33792362  1
  Fe  Fe24  1  0.67171474  0.67068693  0.00487992  1
  Fe  Fe25  1  0.83872907  0.83749433  0.17110443  1
  Fe  Fe26  1  0.67081333  0.67018026  0.33806355  1
  Fe  Fe27  1  0.17164943  0.17223781  0.50500075  1
  Fe  Fe28  1  1.00402572  0.00618663  0.67106020  1
  Ni  Ni29  1  0.17076496  0.17049020  0.83799856  1
  Fe  Fe30  1  0.17169446  0.50404047  0.50508243  1
  Ni  Ni31  1  1.00382452  0.33771929  0.67118922  1
  Fe  Fe32  1  0.17083552  0.50227640  0.83823287  1
  Fe  Fe33  1  0.17172228  0.83719811  0.50360471  1
  Fe  Fe34  1  1.00396362  0.66991397  0.67224665  1
  Fe  Fe35  1  0.17107022  0.83930096  0.83864935  1
  Fe  Fe36  1  0.50498109  0.17263167  0.50546897  1
  Fe  Fe37  1  0.33784339  0.00623409  0.67172086  1
  Ni  Ni38  1  0.50492198  0.17166809  0.83769547  1
  Ni  Ni39  1  0.50497542  0.50491926  0.50565303  1
  Fe  Fe40  1  0.33762649  0.33763425  0.67171531  1
  Fe  Fe41  1  0.50467795  0.50252489  0.83798118  1
  Fe  Fe42  1  0.50475247  0.83763630  0.50515875  1
  Fe  Fe43  1  0.33803857  0.66990967  0.67108810  1
  Fe  Fe44  1  0.50476117  0.83996338  0.83744477  1
  Fe  Fe45  1  0.83702046  0.17258170  0.50437664  1
  Fe  Fe46  1  0.67193673  0.00629338  0.67177282  1
  Ni  Ni47  1  0.83819753  0.17143939  0.83747560  1
  Fe  Fe48  1  0.83708247  0.50372369  0.50440049  1
  Ni  Ni49  1  0.67082018  0.33813394  0.67175409  1
  Fe  Fe50  1  0.83835353  0.50274458  0.83843289  1
  Fe  Fe51  1  0.83739080  0.83722877  0.50450583  1
  Fe  Fe52  1  0.67181030  0.66989683  0.67121098  1
  Fe  Fe53  1  0.83784239  0.83955765  0.83793644  1
" 