7821,Ni72Fe9Cr17_7,-232.439542316215, 163.381426450672,Ni72Fe9Cr17,"# generated using pymatgen
 data_Cr11Fe4Ni39
_symmetry_space_group_name_H-M   'P 1'
_cell_length_a   7.46639727
_cell_length_b   7.46639727
_cell_length_c   10.55908028
_cell_angle_alpha   90.00000000
_cell_angle_beta   90.00000000
_cell_angle_gamma   90.00000000
_symmetry_Int_Tables_number   1
_chemical_formula_structural   Cr11Fe4Ni39
_chemical_formula_sum   'Cr11 Fe4 Ni39'
_cell_volume   588.63797917
_cell_formula_units_Z   1
loop_
 _symmetry_equiv_pos_site_id
 _symmetry_equiv_pos_as_xyz
  1  'x, y, z'
loop_
 _atom_site_type_symbol
 _atom_site_label
 _atom_site_symmetry_multiplicity
 _atom_site_fract_x
 _atom_site_fract_y
 _atom_site_fract_z
 _atom_site_occupancy
  Ni  Ni0  1  0.99982176  0.00239647  0.99836811  1
  Ni  Ni1  1  0.16495971  0.16780273  0.16665945  1
  Ni  Ni2  1  0.99986365  0.00221962  0.33455078  1
  Ni  Ni3  1  0.00032866  0.33318648  0.00052897  1
  Ni  Ni4  1  0.16366262  0.49765875  0.16678967  1
  Ni  Ni5  1  0.00011094  0.33287157  0.33260737  1
  Ni  Ni6  1  0.00046631  0.66441921  0.99849826  1
  Cr  Cr7  1  0.16634292  0.83522735  0.16571281  1
  Ni  Ni8  1  0.00017194  0.66469173  0.33569151  1
  Ni  Ni9  1  0.33277185  0.00153241  0.99706067  1
  Cr  Cr10  1  0.49995316  0.16664221  0.16780919  1
  Ni  Ni11  1  0.33258314  0.00240814  0.33611737  1
  Ni  Ni12  1  0.33123965  0.33345698  0.99803189  1
  Cr  Cr13  1  0.50084205  0.49785821  0.16346556  1
  Ni  Ni14  1  0.33138473  0.33180365  0.33534195  1
  Ni  Ni15  1  0.33217802  0.66516290  0.99790905  1
  Cr  Cr16  1  0.49924152  0.83547718  0.16416207  1
  Cr  Cr17  1  0.33180155  0.66475274  0.33370348  1
  Ni  Ni18  1  0.66755214  0.00151842  0.99794432  1
  Ni  Ni19  1  0.83507942  0.16874159  0.16703754  1
  Ni  Ni20  1  0.66774864  0.00273004  0.33590000  1
  Ni  Ni21  1  0.66847355  0.33267902  0.99841451  1
  Ni  Ni22  1  0.83573917  0.49728672  0.16612508  1
  Ni  Ni23  1  0.66834436  0.33175152  0.33479948  1
  Ni  Ni24  1  0.66751405  0.66585269  0.99737461  1
  Cr  Cr25  1  0.83458080  0.83436384  0.16620007  1
  Cr  Cr26  1  0.66765586  0.66591921  0.33422169  1
  Ni  Ni27  1  0.16688509  0.16508799  0.49896174  1
  Cr  Cr28  1  0.00111476  0.99972741  0.66861953  1
  Ni  Ni29  1  0.16805927  0.16611229  0.83489678  1
  Fe  Fe30  1  0.16564531  0.49831351  0.50012404  1
  Cr  Cr31  1  0.00030794  0.33326521  0.66823656  1
  Ni  Ni32  1  0.16592876  0.50035977  0.83379190  1
  Ni  Ni33  1  0.16651582  0.83539635  0.49939366  1
  Ni  Ni34  1  0.99841111  0.66659111  0.66614949  1
  Ni  Ni35  1  0.16719980  0.83347724  0.83462224  1
  Fe  Fe36  1  0.49938167  0.16816050  0.50025322  1
  Ni  Ni37  1  0.33349994  0.00110374  0.66676309  1
  Ni  Ni38  1  0.49960306  0.16755160  0.83252709  1
  Ni  Ni39  1  0.50269232  0.49847203  0.50145329  1
  Ni  Ni40  1  0.33470626  0.33193345  0.66684068  1
  Ni  Ni41  1  0.50170183  0.49932758  0.83367036  1
  Ni  Ni42  1  0.49864790  0.83403712  0.49968853  1
  Cr  Cr43  1  0.33323704  0.66642785  0.66702225  1
  Ni  Ni44  1  0.49902176  0.83328747  0.83525143  1
  Ni  Ni45  1  0.83402395  0.16938334  0.49747087  1
  Cr  Cr46  1  0.66620644  0.00059881  0.66695998  1
  Ni  Ni47  1  0.83256034  0.16917087  0.83617817  1
  Ni  Ni48  1  0.83245037  0.49875618  0.50026629  1
  Ni  Ni49  1  0.66593749  0.33461781  0.66680727  1
  Ni  Ni50  1  0.83242308  0.50008912  0.83365728  1
  Fe  Fe51  1  0.83455697  0.83311414  0.49959547  1
  Ni  Ni52  1  0.66755531  0.66576615  0.66701386  1
  Fe  Fe53  1  0.83366601  0.83181177  0.83511123  1
" 