6251,Ni72Fe2Cr25_10,-228.581608495318, 148.546043667765,Ni72Fe2Cr25,"# generated using pymatgen
 data_Cr15FeNi38
_symmetry_space_group_name_H-M   'P 1'
_cell_length_a   7.48373281
_cell_length_b   7.48373281
_cell_length_c   10.58359643
_cell_angle_alpha   90.00000000
_cell_angle_beta   90.00000000
_cell_angle_gamma   90.00000000
_symmetry_Int_Tables_number   1
_chemical_formula_structural   Cr15FeNi38
_chemical_formula_sum   'Cr15 Fe1 Ni38'
_cell_volume   592.74761881
_cell_formula_units_Z   1
loop_
 _symmetry_equiv_pos_site_id
 _symmetry_equiv_pos_as_xyz
  1  'x, y, z'
loop_
 _atom_site_type_symbol
 _atom_site_label
 _atom_site_symmetry_multiplicity
 _atom_site_fract_x
 _atom_site_fract_y
 _atom_site_fract_z
 _atom_site_occupancy
  Ni  Ni0  1  0.99705423  -0.00084935  0.99728582  1
  Cr  Cr1  1  0.16452813  0.16745661  0.16592308  1
  Cr  Cr2  1  0.99648814  0.99849093  0.33158619  1
  Cr  Cr3  1  0.99735625  0.33401352  0.99675642  1
  Ni  Ni4  1  0.16774584  0.49992704  0.16770877  1
  Ni  Ni5  1  0.99715482  0.33666644  0.33289018  1
  Cr  Cr6  1  0.00009065  0.66425695  0.99791359  1
  Ni  Ni7  1  0.16707509  0.82803458  0.16591910  1
  Ni  Ni8  1  0.99816912  0.66022419  0.33193386  1
  Cr  Cr9  1  0.33364936  0.99788438  -0.00043994  1
  Ni  Ni10  1  0.50134090  0.16898096  0.16460055  1
  Cr  Cr11  1  0.33680250  0.99793515  0.33119454  1
  Ni  Ni12  1  0.33403606  0.33381586  0.99879107  1
  Ni  Ni13  1  0.49896364  0.49920974  0.16530031  1
  Ni  Ni14  1  0.33384011  0.33588727  0.33241308  1
  Ni  Ni15  1  0.33347732  0.66433468  0.00019384  1
  Ni  Ni16  1  0.49924367  0.82889457  0.16454836  1
  Ni  Ni17  1  0.33400920  0.66188035  0.33104492  1
  Ni  Ni18  1  0.66524746  0.00009809  0.99766301  1
  Ni  Ni19  1  0.82949369  0.16813320  0.16472206  1
  Cr  Cr20  1  0.66351419  0.00014586  0.33420548  1
  Ni  Ni21  1  0.66491771  0.33169400  0.00118707  1
  Ni  Ni22  1  0.82975355  0.49762629  0.16729132  1
  Fe  Fe23  1  0.66486341  0.33484139  0.33188608  1
  Ni  Ni24  1  0.66429728  0.66494655  0.99869739  1
  Cr  Cr25  1  0.83121928  0.83127736  0.16405056  1
  Ni  Ni26  1  0.66458827  0.66345703  0.33335434  1
  Cr  Cr27  1  0.16545325  0.17055762  0.49926722  1
  Cr  Cr28  1  0.99550339  -0.00015539  0.66744288  1
  Ni  Ni29  1  0.16561705  0.16751201  0.83183671  1
  Ni  Ni30  1  0.16671513  0.49779676  0.49837327  1
  Ni  Ni31  1  -0.00103235  0.33375878  0.66642142  1
  Ni  Ni32  1  0.16772037  0.49774775  0.83050169  1
  Cr  Cr33  1  0.16589306  0.82775261  0.49639891  1
  Cr  Cr34  1  0.99690083  0.66162667  0.66671900  1
  Ni  Ni35  1  0.16656431  0.83135811  0.83379628  1
  Ni  Ni36  1  0.50068757  0.16842048  0.49907962  1
  Cr  Cr37  1  0.33711417  -0.00100545  0.66597399  1
  Ni  Ni38  1  0.50001231  0.16552036  0.83314861  1
  Ni  Ni39  1  0.49811610  0.50016600  0.49808647  1
  Ni  Ni40  1  0.33159599  0.33421236  0.66569557  1
  Cr  Cr41  1  0.49915389  0.49978512  0.83348120  1
  Ni  Ni42  1  0.50216465  0.82865459  0.50024071  1
  Ni  Ni43  1  0.33390382  0.66362633  0.66531344  1
  Ni  Ni44  1  0.50113635  0.83153100  0.83203476  1
  Ni  Ni45  1  0.83052048  0.16760367  0.49855638  1
  Ni  Ni46  1  0.66515120  0.99796005  0.66523116  1
  Ni  Ni47  1  0.83097843  0.16480391  0.83337769  1
  Ni  Ni48  1  0.83158850  0.49926202  0.49706536  1
  Cr  Cr49  1  0.66677518  0.33239189  0.66400699  1
  Ni  Ni50  1  0.83096923  0.49895149  0.83229739  1
  Ni  Ni51  1  0.82805656  0.83026276  0.49924574  1
  Ni  Ni52  1  0.66476093  0.66739393  0.66459909  1
  Ni  Ni53  1  0.82886248  0.83304364  0.83299016  1
" 