7968,Ni72Fe2Cr25_8,-228.605011311718, 150.052646781276,Ni72Fe2Cr25,"# generated using pymatgen
 data_Cr15FeNi38
_symmetry_space_group_name_H-M   'P 1'
_cell_length_a   7.48198101
_cell_length_b   7.48198101
_cell_length_c   10.58111902
_cell_angle_alpha   90.00000000
_cell_angle_beta   90.00000000
_cell_angle_gamma   90.00000000
_symmetry_Int_Tables_number   1
_chemical_formula_structural   Cr15FeNi38
_chemical_formula_sum   'Cr15 Fe1 Ni38'
_cell_volume   592.33146486
_cell_formula_units_Z   1
loop_
 _symmetry_equiv_pos_site_id
 _symmetry_equiv_pos_as_xyz
  1  'x, y, z'
loop_
 _atom_site_type_symbol
 _atom_site_label
 _atom_site_symmetry_multiplicity
 _atom_site_fract_x
 _atom_site_fract_y
 _atom_site_fract_z
 _atom_site_occupancy
  Ni  Ni0  1  0.99734521  0.00084712  0.99887032  1
  Ni  Ni1  1  0.16194521  0.16570576  0.16742350  1
  Ni  Ni2  1  0.00019010  0.00021631  0.33111311  1
  Ni  Ni3  1  -0.00021833  0.33149671  0.00016199  1
  Ni  Ni4  1  0.16311654  0.49985518  0.16613787  1
  Ni  Ni5  1  -0.00009472  0.33324279  0.33092880  1
  Ni  Ni6  1  0.00003829  0.66465398  -0.00061298  1
  Ni  Ni7  1  0.16450178  0.83143470  0.16637348  1
  Ni  Ni8  1  -0.00084151  0.66355078  0.33311074  1
  Cr  Cr9  1  0.33189877  0.99794119  0.99865577  1
  Cr  Cr10  1  0.50027635  0.16516997  0.16909344  1
  Ni  Ni11  1  0.33162943  -0.00016193  0.33357296  1
  Cr  Cr12  1  0.32952435  0.33401490  0.99664615  1
  Cr  Cr13  1  0.49923012  0.50046272  0.16678428  1
  Ni  Ni14  1  0.32960587  0.33133891  0.33415125  1
  Ni  Ni15  1  0.33144709  0.66497714  0.99845490  1
  Cr  Cr16  1  0.49783917  0.83134476  0.16633657  1
  Ni  Ni17  1  0.33073817  0.66580980  0.33137967  1
  Ni  Ni18  1  0.66838014  0.99798618  0.99568175  1
  Ni  Ni19  1  0.83532699  0.16660641  0.16579835  1
  Ni  Ni20  1  0.66520241  -0.00084887  0.33433834  1
  Cr  Cr21  1  0.66825629  0.33138452  -0.00092004  1
  Ni  Ni22  1  0.83517551  0.49796975  0.16696148  1
  Ni  Ni23  1  0.66751035  0.33233484  0.33215721  1
  Ni  Ni24  1  0.66548865  0.66735588  0.99673807  1
  Cr  Cr25  1  0.83388147  0.83277899  0.16498805  1
  Ni  Ni26  1  0.66705548  0.66554063  0.33444790  1
  Ni  Ni27  1  0.16921392  0.16706676  0.49732163  1
  Cr  Cr28  1  0.99827463  0.99843528  0.66649677  1
  Ni  Ni29  1  0.16593330  0.16716210  0.83223867  1
  Ni  Ni30  1  0.16382324  0.49772371  0.49746121  1
  Cr  Cr31  1  0.00027467  0.33394454  0.66559074  1
  Ni  Ni32  1  0.16674296  0.49815128  0.83333248  1
  Cr  Cr33  1  0.16502477  0.83262407  0.49697676  1
  Ni  Ni34  1  0.99664823  0.66406279  0.66449911  1
  Cr  Cr35  1  0.16386421  0.83144068  0.83391036  1
  Ni  Ni36  1  0.49741365  0.16394595  0.49929026  1
  Ni  Ni37  1  0.33615030  0.00203095  0.66534320  1
  Ni  Ni38  1  0.49996148  0.16490034  0.82902751  1
  Cr  Cr39  1  0.50026587  0.49747339  0.49793026  1
  Fe  Fe40  1  0.33348827  0.33028205  0.66617614  1
  Ni  Ni41  1  0.49826883  0.49966781  0.83195063  1
  Ni  Ni42  1  0.50142403  0.83482974  0.49806157  1
  Cr  Cr43  1  0.33292150  0.66563925  0.66689475  1
  Ni  Ni44  1  0.50221421  0.83245992  0.83258816  1
  Cr  Cr45  1  0.83067660  0.16583490  0.49705626  1
  Ni  Ni46  1  0.66241883  0.99838911  0.66695822  1
  Ni  Ni47  1  0.83119537  0.16311923  0.83421055  1
  Ni  Ni48  1  0.83304159  0.50172702  0.49792632  1
  Ni  Ni49  1  0.66363777  0.33147606  0.66659999  1
  Cr  Cr50  1  0.83249208  0.50070820  0.83209447  1
  Ni  Ni51  1  0.82996031  0.82957969  0.49895105  1
  Ni  Ni52  1  0.66667723  0.66709604  0.66571902  1
  Ni  Ni53  1  0.82965324  0.83333029  0.83273124  1
" 