6229,Ni72Fe7Cr20_2,-231.626255342909, 164.227245051405,Ni72Fe7Cr20,"# generated using pymatgen
 data_Cr4FeNi13
_symmetry_space_group_name_H-M   'P 1'
_cell_length_a   7.47185554
_cell_length_b   7.47185554
_cell_length_c   10.56679944
_cell_angle_alpha   90.00000000
_cell_angle_beta   90.00000000
_cell_angle_gamma   90.00000000
_symmetry_Int_Tables_number   1
_chemical_formula_structural   Cr4FeNi13
_chemical_formula_sum   'Cr12 Fe3 Ni39'
_cell_volume   589.92988586
_cell_formula_units_Z   3
loop_
 _symmetry_equiv_pos_site_id
 _symmetry_equiv_pos_as_xyz
  1  'x, y, z'
loop_
 _atom_site_type_symbol
 _atom_site_label
 _atom_site_symmetry_multiplicity
 _atom_site_fract_x
 _atom_site_fract_y
 _atom_site_fract_z
 _atom_site_occupancy
  Ni  Ni0  1  0.00044512  0.00052635  0.99923082  1
  Ni  Ni1  1  0.16653053  0.16476527  0.16586590  1
  Ni  Ni2  1  0.00267069  0.99953554  0.33347092  1
  Ni  Ni3  1  0.99876850  0.33222009  0.00005512  1
  Ni  Ni4  1  0.16505700  0.49938095  0.16771772  1
  Ni  Ni5  1  0.00164188  0.33392248  0.33393314  1
  Cr  Cr6  1  -0.00014662  0.66625137  0.99826885  1
  Ni  Ni7  1  0.16811745  0.83488971  0.16765431  1
  Ni  Ni8  1  0.00158528  0.66557782  0.33326392  1
  Ni  Ni9  1  0.33414041  0.99941893  0.00170493  1
  Ni  Ni10  1  0.49829519  0.16233529  0.16491280  1
  Ni  Ni11  1  0.33305090  0.99815231  0.33188261  1
  Cr  Cr12  1  0.33300826  0.33114830  0.00032989  1
  Cr  Cr13  1  0.50003372  0.50116655  0.16634426  1
  Cr  Cr14  1  0.33108902  0.33139039  0.33353449  1
  Cr  Cr15  1  0.33291494  0.66863798  0.99952600  1
  Ni  Ni16  1  0.49873731  0.83528734  0.16655696  1
  Fe  Fe17  1  0.33176476  0.66931611  0.33410267  1
  Ni  Ni18  1  0.66444904  0.00022779  0.99868838  1
  Cr  Cr19  1  0.83408813  0.16542221  0.16535766  1
  Ni  Ni20  1  0.66331261  0.99809548  0.33341017  1
  Ni  Ni21  1  0.66690451  0.33173958  0.99761564  1
  Cr  Cr22  1  0.83397846  0.49981251  0.16591191  1
  Cr  Cr23  1  0.66694595  0.33227571  0.33541096  1
  Ni  Ni24  1  0.66579223  0.66706724  0.99790931  1
  Cr  Cr25  1  0.83197628  0.83379850  0.16754425  1
  Ni  Ni26  1  0.66561685  0.66823512  0.33394406  1
  Ni  Ni27  1  0.16456151  0.16677129  0.49933850  1
  Ni  Ni28  1  0.99828776  0.99935873  0.66633402  1
  Cr  Cr29  1  0.16484942  0.16634229  0.83332388  1
  Ni  Ni30  1  0.16590423  0.49999486  0.50043901  1
  Ni  Ni31  1  0.99911891  0.33435151  0.66504460  1
  Ni  Ni32  1  0.16668246  0.50111174  0.83087891  1
  Ni  Ni33  1  0.16687378  0.83226926  0.49876614  1
  Ni  Ni34  1  0.00096699  0.66532370  0.66730855  1
  Ni  Ni35  1  0.16415783  0.83158009  0.83261505  1
  Ni  Ni36  1  0.50069212  0.16612558  0.50035309  1
  Cr  Cr37  1  0.33365483  0.99923021  0.66556206  1
  Ni  Ni38  1  0.50365740  0.16760527  0.83377029  1
  Ni  Ni39  1  0.49969434  0.50098400  0.50145284  1
  Ni  Ni40  1  0.33398108  0.33581915  0.66558403  1
  Ni  Ni41  1  0.50096664  0.49946746  0.83155476  1
  Ni  Ni42  1  0.49936940  0.83192509  0.49864829  1
  Ni  Ni43  1  0.33249930  0.66422534  0.66581487  1
  Fe  Fe44  1  0.50130106  0.83306578  0.83315893  1
  Ni  Ni45  1  0.83378195  0.16709473  0.50052977  1
  Ni  Ni46  1  0.66703487  0.00083938  0.66693566  1
  Ni  Ni47  1  0.83100266  0.16508042  0.83340459  1
  Ni  Ni48  1  0.83343659  0.49867431  0.50042824  1
  Ni  Ni49  1  0.66593607  0.33313876  0.66626578  1
  Fe  Fe50  1  0.83224747  0.49870532  0.83203015  1
  Cr  Cr51  1  0.83298554  0.83361828  0.49902641  1
  Ni  Ni52  1  0.66556783  0.66505665  0.66717932  1
  Ni  Ni53  1  0.83264580  0.83427015  0.83273084  1
" 