7837,Ni72Fe9Cr17_0,-232.341939675904, 166.844800319828,Ni72Fe9Cr17,"# generated using pymatgen
 data_Cr11Fe4Ni39
_symmetry_space_group_name_H-M   'P 1'
_cell_length_a   7.46189541
_cell_length_b   7.46189541
_cell_length_c   10.55271369
_cell_angle_alpha   90.00000000
_cell_angle_beta   90.00000000
_cell_angle_gamma   90.00000000
_symmetry_Int_Tables_number   1
_chemical_formula_structural   Cr11Fe4Ni39
_chemical_formula_sum   'Cr11 Fe4 Ni39'
_cell_volume   587.57386410
_cell_formula_units_Z   1
loop_
 _symmetry_equiv_pos_site_id
 _symmetry_equiv_pos_as_xyz
  1  'x, y, z'
loop_
 _atom_site_type_symbol
 _atom_site_label
 _atom_site_symmetry_multiplicity
 _atom_site_fract_x
 _atom_site_fract_y
 _atom_site_fract_z
 _atom_site_occupancy
  Ni  Ni0  1  0.00072220  0.00095147  0.99892196  1
  Ni  Ni1  1  0.16782566  0.16597905  0.16725381  1
  Ni  Ni2  1  0.00126423  0.00126027  0.33290289  1
  Cr  Cr3  1  0.99978540  0.33304775  0.00132251  1
  Ni  Ni4  1  0.16744435  0.50044812  0.16879913  1
  Ni  Ni5  1  0.99885674  0.33502816  0.33242933  1
  Cr  Cr6  1  0.00139714  0.66617635  1.00006952  1
  Ni  Ni7  1  0.16904306  0.83460859  0.16785746  1
  Ni  Ni8  1  0.00405319  0.66474675  0.33417499  1
  Ni  Ni9  1  0.33526396  0.99971092  0.00070397  1
  Ni  Ni10  1  0.50002619  0.16559688  0.16688688  1
  Ni  Ni11  1  0.33502802  0.99885288  0.33240925  1
  Ni  Ni12  1  0.33456354  0.33214729  0.99962395  1
  Cr  Cr13  1  0.49920046  0.49930808  0.16556728  1
  Ni  Ni14  1  0.33357943  0.33357966  0.33397313  1
  Ni  Ni15  1  0.33384074  0.66918007  0.00050709  1
  Ni  Ni16  1  0.49782852  0.83596894  0.16565140  1
  Ni  Ni17  1  0.33079060  0.66860398  0.33500060  1
  Ni  Ni18  1  0.66504962  0.00167963  0.99929889  1
  Ni  Ni19  1  0.83318419  0.16719797  0.16784753  1
  Ni  Ni20  1  0.66474298  0.00404913  0.33415390  1
  Ni  Ni21  1  0.66698818  0.33141260  1.00032035  1
  Ni  Ni22  1  0.83454463  0.49824878  0.16755717  1
  Ni  Ni23  1  0.66860034  0.33079033  0.33500037  1
  Fe  Fe24  1  0.66608531  0.66804948  0.99962853  1
  Cr  Cr25  1  0.83404220  0.83550635  0.16740294  1
  Cr  Cr26  1  0.66622228  0.66622444  0.33443517  1
  Cr  Cr27  1  0.16594961  0.16730579  0.49967661  1
  Ni  Ni28  1  0.00055703  0.00078104  0.66921222  1
  Ni  Ni29  1  0.16692284  0.16667003  0.83398252  1
  Ni  Ni30  1  0.16794142  0.50284254  0.50063403  1
  Ni  Ni31  1  0.99845149  0.33541896  0.66810060  1
  Ni  Ni32  1  0.16761794  0.50034870  0.83160462  1
  Ni  Ni33  1  0.16780296  0.83069946  0.49993056  1
  Ni  Ni34  1  0.00334162  0.66483578  0.66756875  1
  Fe  Fe35  1  0.16597825  0.83401335  0.83356067  1
  Ni  Ni36  1  0.50241771  0.16894678  0.49871730  1
  Cr  Cr37  1  0.33376486  0.99894577  0.66749763  1
  Ni  Ni38  1  0.50009323  0.16735722  0.83542891  1
  Ni  Ni39  1  0.49861291  0.49903713  0.50087989  1
  Fe  Fe40  1  0.33297173  0.33546554  0.66716397  1
  Cr  Cr41  1  0.49906072  0.49893919  0.83472786  1
  Ni  Ni42  1  0.49730206  0.83305340  0.49884684  1
  Ni  Ni43  1  0.33059690  0.66655006  0.66552630  1
  Fe  Fe44  1  0.49981234  0.83473858  0.83616969  1
  Ni  Ni45  1  0.83212488  0.16880590  0.49993678  1
  Cr  Cr46  1  0.66684156  0.00339153  0.66670778  1
  Ni  Ni47  1  0.83401988  0.16527538  0.83325103  1
  Ni  Ni48  1  0.83448137  0.49772951  0.50077302  1
  Ni  Ni49  1  0.66919929  0.33302194  0.66571513  1
  Ni  Ni50  1  0.83430014  0.50076759  0.83270944  1
  Cr  Cr51  1  0.83659535  0.83512734  0.49927903  1
  Cr  Cr52  1  0.66692217  0.66522713  0.66692944  1
  Ni  Ni53  1  0.83498924  0.83499308  0.83441202  1
" 