5009,Ni72Fe7Cr20_19,-231.692915830264, 167.928524342931,Ni72Fe7Cr20,"# generated using pymatgen
 data_Cr4FeNi13
_symmetry_space_group_name_H-M   'P 1'
_cell_length_a   7.46525450
_cell_length_b   7.46525450
_cell_length_c   10.55746417
_cell_angle_alpha   90.00000000
_cell_angle_beta   90.00000000
_cell_angle_gamma   90.00000000
_symmetry_Int_Tables_number   1
_chemical_formula_structural   Cr4FeNi13
_chemical_formula_sum   'Cr12 Fe3 Ni39'
_cell_volume   588.36774006
_cell_formula_units_Z   3
loop_
 _symmetry_equiv_pos_site_id
 _symmetry_equiv_pos_as_xyz
  1  'x, y, z'
loop_
 _atom_site_type_symbol
 _atom_site_label
 _atom_site_symmetry_multiplicity
 _atom_site_fract_x
 _atom_site_fract_y
 _atom_site_fract_z
 _atom_site_occupancy
  Ni  Ni0  1  1.00004772  0.00168767  0.99821087  1
  Cr  Cr1  1  0.16718578  0.16667373  0.16574237  1
  Cr  Cr2  1  0.99977013  0.99902259  0.33461132  1
  Ni  Ni3  1  0.99682248  0.33142366  0.00016263  1
  Ni  Ni4  1  0.16629183  0.50209193  0.16829086  1
  Cr  Cr5  1  0.99945725  0.33557141  0.33399878  1
  Cr  Cr6  1  0.00014013  0.66695175  1.00002318  1
  Fe  Fe7  1  0.16990357  0.83204136  0.16672212  1
  Ni  Ni8  1  0.00106014  0.66582577  0.33480620  1
  Ni  Ni9  1  0.33323141  0.99845147  0.99982288  1
  Ni  Ni10  1  0.50194627  0.16413207  0.16793868  1
  Ni  Ni11  1  0.33623632  0.99929879  0.33442435  1
  Cr  Cr12  1  0.33455756  0.33305830  0.99949676  1
  Cr  Cr13  1  0.50044519  0.50116261  0.16698803  1
  Ni  Ni14  1  0.33441325  0.33288770  0.33439577  1
  Ni  Ni15  1  0.33426916  0.66939268  0.00109685  1
  Ni  Ni16  1  0.49890745  0.83470011  0.16728262  1
  Ni  Ni17  1  0.33188050  0.66817402  0.33281360  1
  Ni  Ni18  1  0.66708089  0.00173298  0.00039838  1
  Ni  Ni19  1  0.83075790  0.16797100  0.16493831  1
  Ni  Ni20  1  0.66411905  0.00087820  0.33424161  1
  Ni  Ni21  1  0.66922240  0.33246240  0.99914645  1
  Ni  Ni22  1  0.83382378  0.49905102  0.16693747  1
  Ni  Ni23  1  0.66646629  0.33183340  0.33318886  1
  Ni  Ni24  1  0.66598713  0.66616418  0.99908340  1
  Cr  Cr25  1  0.83147769  0.83377729  0.16660074  1
  Ni  Ni26  1  0.66742015  0.66764840  0.33399763  1
  Ni  Ni27  1  0.16935801  0.16729116  0.50111185  1
  Cr  Cr28  1  0.99952288  0.99991128  0.66720520  1
  Ni  Ni29  1  0.16659270  0.16521797  0.83347952  1
  Ni  Ni30  1  0.16609031  0.50141200  0.50053740  1
  Ni  Ni31  1  0.00012310  0.33400462  0.66613889  1
  Cr  Cr32  1  0.16714090  0.49994469  0.83138261  1
  Ni  Ni33  1  0.16732820  0.83165736  0.49954450  1
  Ni  Ni34  1  0.00148781  0.66626373  0.66550888  1
  Ni  Ni35  1  0.16667184  0.83490295  0.83443987  1
  Ni  Ni36  1  0.50001228  0.16540809  0.49959068  1
  Fe  Fe37  1  0.33364975  0.00158098  0.66623129  1
  Ni  Ni38  1  0.50096974  0.16761706  0.83283099  1
  Cr  Cr39  1  0.49918013  0.49887705  0.49950824  1
  Ni  Ni40  1  0.33332862  0.33251824  0.66667411  1
  Ni  Ni41  1  0.50158666  0.49888125  0.83402886  1
  Fe  Fe42  1  0.49957952  0.83571488  0.49856186  1
  Ni  Ni43  1  0.33071521  0.66650372  0.66645073  1
  Cr  Cr44  1  0.49982534  0.83347246  0.83420340  1
  Ni  Ni45  1  0.83099024  0.16664836  0.50050446  1
  Ni  Ni46  1  0.66666781  0.00270376  0.66571866  1
  Ni  Ni47  1  0.83279846  0.16727100  0.83491579  1
  Ni  Ni48  1  0.83533978  0.50097465  0.49969078  1
  Ni  Ni49  1  0.66690860  0.33095517  0.66802522  1
  Ni  Ni50  1  0.83175634  0.49880115  0.83373279  1
  Ni  Ni51  1  0.83345749  0.83273847  0.49942054  1
  Cr  Cr52  1  0.66832591  0.66685942  0.66751849  1
  Ni  Ni53  1  0.83415611  0.83428725  0.83416887  1
" 