6880,Ni73Fe18Cr7_0,-238.550303981232, 199.601711499689,Ni73Fe18Cr7,"# generated using pymatgen
 data_Cr5Fe10Ni39
_symmetry_space_group_name_H-M   'P 1'
_cell_length_a   7.43258482
_cell_length_b   7.43258482
_cell_length_c   10.51126225
_cell_angle_alpha   90.00000000
_cell_angle_beta   90.00000000
_cell_angle_gamma   90.00000000
_symmetry_Int_Tables_number   1
_chemical_formula_structural   Cr5Fe10Ni39
_chemical_formula_sum   'Cr5 Fe10 Ni39'
_cell_volume   580.67699356
_cell_formula_units_Z   1
loop_
 _symmetry_equiv_pos_site_id
 _symmetry_equiv_pos_as_xyz
  1  'x, y, z'
loop_
 _atom_site_type_symbol
 _atom_site_label
 _atom_site_symmetry_multiplicity
 _atom_site_fract_x
 _atom_site_fract_y
 _atom_site_fract_z
 _atom_site_occupancy
  Fe  Fe0  1  0.00288835  0.00236986  0.00267051  1
  Ni  Ni1  1  0.16815048  0.16844655  0.16865912  1
  Ni  Ni2  1  0.00247895  1.00090439  0.33423753  1
  Ni  Ni3  1  0.00437027  0.33615749  1.00156633  1
  Ni  Ni4  1  0.16945720  0.50316576  0.16786534  1
  Cr  Cr5  1  1.00181384  0.33528680  0.33513523  1
  Ni  Ni6  1  0.00401963  0.66870646  0.00267292  1
  Ni  Ni7  1  0.16683693  0.83534272  0.16928456  1
  Ni  Ni8  1  0.00330781  0.67088677  0.33520451  1
  Fe  Fe9  1  0.33360166  0.00259894  1.00085434  1
  Cr  Cr10  1  0.50151069  0.16998102  0.17027279  1
  Ni  Ni11  1  0.33405744  1.00172995  0.33714252  1
  Ni  Ni12  1  0.33224674  0.33638885  0.00341770  1
  Ni  Ni13  1  0.50197216  0.50285804  0.17065295  1
  Fe  Fe14  1  0.33645249  0.33622980  0.33630819  1
  Ni  Ni15  1  0.33276041  0.66864372  0.00238791  1
  Cr  Cr16  1  0.50268455  0.83420909  0.16856996  1
  Ni  Ni17  1  0.33455903  0.66872162  0.33599547  1
  Ni  Ni18  1  0.67041186  1.00157107  1.00056030  1
  Ni  Ni19  1  0.83701209  0.16762086  0.16904452  1
  Ni  Ni20  1  0.67042220  0.00334640  0.33716129  1
  Cr  Cr21  1  0.67036712  0.33439076  0.00271203  1
  Ni  Ni22  1  0.83552553  0.50417885  0.16899219  1
  Ni  Ni23  1  0.66825295  0.33566984  0.33594810  1
  Fe  Fe24  1  0.67082739  0.66990404  0.00232948  1
  Ni  Ni25  1  0.83731788  0.83515461  0.16983530  1
  Ni  Ni26  1  0.66908967  0.66793900  0.33525706  1
  Ni  Ni27  1  0.17056590  0.16761122  0.50275342  1
  Ni  Ni28  1  1.00176767  1.00202920  0.66921638  1
  Ni  Ni29  1  0.17004098  0.16903031  0.83553535  1
  Ni  Ni30  1  0.16925762  0.50398786  0.50349900  1
  Fe  Fe31  1  1.00202201  0.33643924  0.66906201  1
  Ni  Ni32  1  0.16687302  0.50211917  0.83558942  1
  Ni  Ni33  1  0.16919550  0.83535575  0.50193274  1
  Ni  Ni34  1  0.00335230  0.66937048  0.66908278  1
  Ni  Ni35  1  0.16890703  0.83580866  0.83573457  1
  Ni  Ni36  1  0.50289222  0.16876068  0.50208894  1
  Fe  Fe37  1  0.33594394  1.00213728  0.66877965  1
  Ni  Ni38  1  0.50119407  0.16607259  0.83476282  1
  Fe  Fe39  1  0.50203745  0.50146976  0.50216564  1
  Ni  Ni40  1  0.33531946  0.33545084  0.66820340  1
  Cr  Cr41  1  0.50217717  0.50290465  0.83501280  1
  Fe  Fe42  1  0.50202062  0.83589360  0.50231120  1
  Ni  Ni43  1  0.33391820  0.66883442  0.66857223  1
  Ni  Ni44  1  0.50305903  0.83803194  0.83555903  1
  Ni  Ni45  1  0.83349997  0.16869912  0.50324244  1
  Ni  Ni46  1  0.66957687  0.00343017  0.66923275  1
  Fe  Fe47  1  0.83626106  0.16759731  0.83478402  1
  Ni  Ni48  1  0.83455947  0.50314771  0.50323411  1
  Ni  Ni49  1  0.66904316  0.33386813  0.66831609  1
  Ni  Ni50  1  0.83794843  0.50398386  0.83472186  1
  Fe  Fe51  1  0.83668664  0.83623215  0.50233861  1
  Ni  Ni52  1  0.66968631  0.66965915  0.66925824  1
  Ni  Ni53  1  0.83498997  0.83486285  0.83546368  1
" 