9011,Ni73Fe18Cr7_18,-238.485789116386, 199.049628295839,Ni73Fe18Cr7,"# generated using pymatgen
 data_Cr5Fe10Ni39
_symmetry_space_group_name_H-M   'P 1'
_cell_length_a   7.43279773
_cell_length_b   7.43279773
_cell_length_c   10.51156335
_cell_angle_alpha   90.00000000
_cell_angle_beta   90.00000000
_cell_angle_gamma   90.00000000
_symmetry_Int_Tables_number   1
_chemical_formula_structural   Cr5Fe10Ni39
_chemical_formula_sum   'Cr5 Fe10 Ni39'
_cell_volume   580.72689620
_cell_formula_units_Z   1
loop_
 _symmetry_equiv_pos_site_id
 _symmetry_equiv_pos_as_xyz
  1  'x, y, z'
loop_
 _atom_site_type_symbol
 _atom_site_label
 _atom_site_symmetry_multiplicity
 _atom_site_fract_x
 _atom_site_fract_y
 _atom_site_fract_z
 _atom_site_occupancy
  Ni  Ni0  1  1.00154295  1.00064839  1.00137231  1
  Ni  Ni1  1  0.16887342  0.17050115  0.17020570  1
  Ni  Ni2  1  0.00371688  1.00169351  0.33671991  1
  Ni  Ni3  1  0.00291917  0.33736535  0.00256654  1
  Ni  Ni4  1  0.17065028  0.50055428  0.16834998  1
  Fe  Fe5  1  0.00412955  0.33418870  0.33600866  1
  Ni  Ni6  1  1.00123846  0.66889441  0.00236391  1
  Fe  Fe7  1  0.16858295  0.83509998  0.16992749  1
  Cr  Cr8  1  1.00217305  0.66989692  0.33579689  1
  Cr  Cr9  1  0.33595089  0.00331304  0.00232746  1
  Fe  Fe10  1  0.50164414  0.17052086  0.16975088  1
  Ni  Ni11  1  0.33444097  0.00327111  0.33508355  1
  Ni  Ni12  1  0.33585841  0.33662923  0.00244013  1
  Ni  Ni13  1  0.50125439  0.50404061  0.16882074  1
  Ni  Ni14  1  0.33727626  0.33495904  0.33590199  1
  Fe  Fe15  1  0.33613454  0.66674681  0.00275641  1
  Ni  Ni16  1  0.50354519  0.83351234  0.17030463  1
  Ni  Ni17  1  0.33581515  0.66868067  0.33426503  1
  Ni  Ni18  1  0.66969288  1.00126270  1.00206050  1
  Cr  Cr19  1  0.83748447  0.16844193  0.16802864  1
  Fe  Fe20  1  0.66852592  0.00232389  0.33584662  1
  Ni  Ni21  1  0.66813518  0.33693648  1.00106622  1
  Ni  Ni22  1  0.83500693  0.50340957  0.16820705  1
  Ni  Ni23  1  0.66711327  0.33627176  0.33663152  1
  Ni  Ni24  1  0.67043207  0.66871359  0.00288383  1
  Ni  Ni25  1  0.83386204  0.83529196  0.16822606  1
  Fe  Fe26  1  0.66731278  0.66828889  0.33441453  1
  Ni  Ni27  1  0.16831158  0.16904412  0.50213479  1
  Fe  Fe28  1  1.00181536  0.00272460  0.66845574  1
  Ni  Ni29  1  0.16798688  0.17064020  0.83457020  1
  Fe  Fe30  1  0.16934245  0.50064760  0.50253299  1
  Ni  Ni31  1  1.00196322  0.33638147  0.66824571  1
  Ni  Ni32  1  0.16863508  0.50054335  0.83644816  1
  Ni  Ni33  1  0.16717387  0.83760296  0.50209127  1
  Ni  Ni34  1  1.00035648  0.66901031  0.66879733  1
  Fe  Fe35  1  0.16726712  0.83558488  0.83506761  1
  Ni  Ni36  1  0.50173848  0.17113740  0.50200989  1
  Ni  Ni37  1  0.33548222  0.00488347  0.66912213  1
  Ni  Ni38  1  0.50251571  0.16936361  0.83478934  1
  Ni  Ni39  1  0.50257736  0.50046508  0.50143592  1
  Ni  Ni40  1  0.33604049  0.33314712  0.66857019  1
  Ni  Ni41  1  0.50235577  0.50230776  0.83665507  1
  Cr  Cr42  1  0.50309352  0.83515634  0.50177890  1
  Cr  Cr43  1  0.33447924  0.66880644  0.67017461  1
  Ni  Ni44  1  0.50469653  0.83523974  0.83523938  1
  Ni  Ni45  1  0.83686331  0.16855159  0.50234519  1
  Ni  Ni46  1  0.66903063  0.00328014  0.66959124  1
  Ni  Ni47  1  0.83640805  0.16830246  0.83581349  1
  Fe  Fe48  1  0.83456044  0.50113832  0.50364860  1
  Ni  Ni49  1  0.66890814  0.33518144  0.66921267  1
  Ni  Ni50  1  0.83592256  0.50272314  0.83565794  1
  Ni  Ni51  1  0.83667076  0.83675804  0.50301012  1
  Ni  Ni52  1  0.67226251  0.66844805  0.66901153  1
  Ni  Ni53  1  0.83464442  0.83588754  0.83567722  1
" 