291,Ni73Fe18Cr8_15,-237.568428911812, 193.251436667495,Ni73Fe18Cr8,"# generated using pymatgen
 data_Cr2Fe3Ni13
_symmetry_space_group_name_H-M   'P 1'
_cell_length_a   7.43537107
_cell_length_b   7.43537107
_cell_length_c   10.51520261
_cell_angle_alpha   90.00000000
_cell_angle_beta   90.00000000
_cell_angle_gamma   90.00000000
_symmetry_Int_Tables_number   1
_chemical_formula_structural   Cr2Fe3Ni13
_chemical_formula_sum   'Cr6 Fe9 Ni39'
_cell_volume   581.33027418
_cell_formula_units_Z   3
loop_
 _symmetry_equiv_pos_site_id
 _symmetry_equiv_pos_as_xyz
  1  'x, y, z'
loop_
 _atom_site_type_symbol
 _atom_site_label
 _atom_site_symmetry_multiplicity
 _atom_site_fract_x
 _atom_site_fract_y
 _atom_site_fract_z
 _atom_site_occupancy
  Ni  Ni0  1  0.00216170  1.00207063  1.00211100  1
  Ni  Ni1  1  0.16622446  0.16924123  0.16646618  1
  Cr  Cr2  1  0.00401651  1.00187788  0.33616529  1
  Ni  Ni3  1  0.00286136  0.33423308  0.00365526  1
  Ni  Ni4  1  0.16771680  0.50348839  0.16809808  1
  Ni  Ni5  1  1.00176693  0.33736546  0.33523806  1
  Fe  Fe6  1  1.00202437  0.66998120  0.00223105  1
  Ni  Ni7  1  0.17039678  0.83376591  0.16827698  1
  Ni  Ni8  1  1.00085213  0.66744160  0.33550040  1
  Ni  Ni9  1  0.33338249  1.00189868  0.00285269  1
  Cr  Cr10  1  0.50375928  0.16568336  0.16903467  1
  Ni  Ni11  1  0.33561172  1.00064424  0.33612806  1
  Ni  Ni12  1  0.33382435  0.33569619  1.00158969  1
  Ni  Ni13  1  0.50187250  0.50594455  0.16774685  1
  Cr  Cr14  1  0.33356514  0.33562872  0.33555178  1
  Ni  Ni15  1  0.33656369  0.66872311  0.00477782  1
  Ni  Ni16  1  0.50242137  0.83350734  0.16968470  1
  Fe  Fe17  1  0.33451866  0.67010785  0.33568456  1
  Ni  Ni18  1  0.67123228  0.99952933  0.00261447  1
  Ni  Ni19  1  0.83682665  0.16911478  0.16908433  1
  Ni  Ni20  1  0.66863847  0.99945150  0.33624133  1
  Cr  Cr21  1  0.66868852  0.33696951  1.00130458  1
  Fe  Fe22  1  0.83647143  0.50308349  0.16871903  1
  Fe  Fe23  1  0.67068928  0.33626013  0.33660536  1
  Ni  Ni24  1  0.66963481  0.66987320  0.00217398  1
  Fe  Fe25  1  0.83522516  0.83522915  0.16918550  1
  Ni  Ni26  1  0.66899327  0.66858360  0.33532791  1
  Ni  Ni27  1  0.16662353  0.16975224  0.50419059  1
  Ni  Ni28  1  0.00259800  1.00209418  0.66890102  1
  Ni  Ni29  1  0.16775344  0.16791194  0.83605850  1
  Ni  Ni30  1  0.16826992  0.50289445  0.50278193  1
  Ni  Ni31  1  1.00188684  0.33461864  0.66752367  1
  Cr  Cr32  1  0.16789120  0.50315461  0.83491329  1
  Ni  Ni33  1  0.16949021  0.83371188  0.50319752  1
  Ni  Ni34  1  1.00120207  0.67019709  0.66809618  1
  Ni  Ni35  1  0.16897541  0.83592188  0.83484669  1
  Fe  Fe36  1  0.50160700  0.16698517  0.50354855  1
  Ni  Ni37  1  0.33395612  0.00288682  0.66738763  1
  Ni  Ni38  1  0.50273013  0.16753702  0.83426573  1
  Ni  Ni39  1  0.50292861  0.50419741  0.50376867  1
  Ni  Ni40  1  0.33595088  0.33455785  0.66927419  1
  Fe  Fe41  1  0.50169436  0.50146912  0.83432997  1
  Ni  Ni42  1  0.50302779  0.83444702  0.50111253  1
  Ni  Ni43  1  0.33578673  0.66871224  0.66590932  1
  Cr  Cr44  1  0.50085898  0.83541715  0.83525379  1
  Ni  Ni45  1  0.83449726  0.16964962  0.50266532  1
  Ni  Ni46  1  0.66979230  0.00217483  0.66790132  1
  Ni  Ni47  1  0.83602510  0.16950197  0.83477355  1
  Fe  Fe48  1  0.83658138  0.50364912  0.50297212  1
  Ni  Ni49  1  0.66857579  0.33612281  0.66790309  1
  Ni  Ni50  1  0.83570671  0.50171360  0.83422889  1
  Ni  Ni51  1  0.83391337  0.83585964  0.50373816  1
  Ni  Ni52  1  0.66958139  0.66808311  0.66898079  1
  Fe  Fe53  1  0.83718213  0.83641122  0.83445410  1
" 