7888,Ni73Fe6Cr20_3,-231.459497846928, 162.370509093155,Ni73Fe6Cr20,"# generated using pymatgen
 data_Cr4FeNi13
_symmetry_space_group_name_H-M   'P 1'
_cell_length_a   7.46979102
_cell_length_b   7.46979102
_cell_length_c   10.56387976
_cell_angle_alpha   90.00000000
_cell_angle_beta   90.00000000
_cell_angle_gamma   90.00000000
_symmetry_Int_Tables_number   1
_chemical_formula_structural   Cr4FeNi13
_chemical_formula_sum   'Cr12 Fe3 Ni39'
_cell_volume   589.44101598
_cell_formula_units_Z   3
loop_
 _symmetry_equiv_pos_site_id
 _symmetry_equiv_pos_as_xyz
  1  'x, y, z'
loop_
 _atom_site_type_symbol
 _atom_site_label
 _atom_site_symmetry_multiplicity
 _atom_site_fract_x
 _atom_site_fract_y
 _atom_site_fract_z
 _atom_site_occupancy
  Cr  Cr0  1  0.00187330  0.99930302  0.00151575  1
  Ni  Ni1  1  0.16689181  0.16673765  0.16658928  1
  Ni  Ni2  1  0.00150893  0.99932441  0.33135676  1
  Cr  Cr3  1  0.99906959  0.33430605  -0.00014862  1
  Ni  Ni4  1  0.16692315  0.50203461  0.16648717  1
  Fe  Fe5  1  0.00038312  0.33448785  0.33153508  1
  Ni  Ni6  1  0.00080569  0.66550975  0.00024550  1
  Ni  Ni7  1  0.16635716  0.83082647  0.16607763  1
  Ni  Ni8  1  0.00150745  0.66739797  0.33150085  1
  Ni  Ni9  1  0.33310682  0.99977538  0.99976945  1
  Ni  Ni10  1  0.49958695  0.16905091  0.16365956  1
  Cr  Cr11  1  0.33086757  0.99714935  0.33248962  1
  Ni  Ni12  1  0.33476769  0.33342491  0.99931245  1
  Ni  Ni13  1  0.50038119  0.50063746  0.16598182  1
  Cr  Cr14  1  0.33329379  0.33623985  0.33342692  1
  Ni  Ni15  1  0.33325325  0.66621372  0.00030872  1
  Ni  Ni16  1  0.49876267  0.82972319  0.16547640  1
  Ni  Ni17  1  0.33284637  0.66603911  0.33382209  1
  Cr  Cr18  1  0.66514134  0.00108444  0.00130295  1
  Ni  Ni19  1  0.83308680  0.16871645  0.16930555  1
  Cr  Cr20  1  0.66692832  0.99895961  0.33017376  1
  Ni  Ni21  1  0.66472439  0.33505929  0.00015205  1
  Ni  Ni22  1  0.83215879  0.50121722  0.16652869  1
  Ni  Ni23  1  0.66710753  0.33631786  0.32983651  1
  Ni  Ni24  1  0.66539071  0.66366686  0.00116392  1
  Ni  Ni25  1  0.83437060  0.82984189  0.16791044  1
  Ni  Ni26  1  0.66504312  0.66402273  0.33167642  1
  Ni  Ni27  1  0.16488006  0.16656536  0.50194608  1
  Ni  Ni28  1  0.00348464  0.00097628  0.66684996  1
  Ni  Ni29  1  0.16838971  0.16716675  0.83091764  1
  Ni  Ni30  1  0.16645129  0.49999687  0.49989239  1
  Ni  Ni31  1  0.00107658  0.33259504  0.66719422  1
  Ni  Ni32  1  0.16749411  0.49970824  0.83291516  1
  Ni  Ni33  1  0.16581266  0.83294248  0.49991095  1
  Ni  Ni34  1  0.00050920  0.66572799  0.66771737  1
  Ni  Ni35  1  0.16786084  0.83255146  0.83343332  1
  Cr  Cr36  1  0.49930882  0.16818712  0.50331599  1
  Ni  Ni37  1  0.33100643  0.00038293  0.66743795  1
  Ni  Ni38  1  0.49873271  0.16825505  0.83261944  1
  Ni  Ni39  1  0.49988369  0.50130585  0.49933814  1
  Ni  Ni40  1  0.33247859  0.33219820  0.66717685  1
  Ni  Ni41  1  0.49973830  0.49862730  0.83404737  1
  Ni  Ni42  1  0.49890894  0.83002799  0.50089294  1
  Cr  Cr43  1  0.33326399  0.66594831  0.66446006  1
  Ni  Ni44  1  0.49822788  0.83250992  0.83301911  1
  Cr  Cr45  1  0.83529004  0.16715910  0.50010326  1
  Fe  Fe46  1  0.66465184  0.99973492  0.66865766  1
  Ni  Ni47  1  0.83212831  0.16867217  0.82968219  1
  Cr  Cr48  1  0.83307959  0.49989075  0.49999182  1
  Ni  Ni49  1  0.66583512  0.33511700  0.66941957  1
  Fe  Fe50  1  0.83224743  0.49901319  0.83275311  1
  Cr  Cr51  1  0.83397291  0.83239690  0.50080608  1
  Ni  Ni52  1  0.66527563  0.66424750  0.66682507  1
  Cr  Cr53  1  0.83395639  0.83111109  0.83130339  1
" 