5907,Ni73Fe18Cr8_17,-237.83246813705, 194.702622141833,Ni73Fe18Cr8,"# generated using pymatgen
 data_Cr2Fe3Ni13
_symmetry_space_group_name_H-M   'P 1'
_cell_length_a   7.43994320
_cell_length_b   7.43994320
_cell_length_c   10.52166858
_cell_angle_alpha   90.00000000
_cell_angle_beta   90.00000000
_cell_angle_gamma   90.00000000
_symmetry_Int_Tables_number   1
_chemical_formula_structural   Cr2Fe3Ni13
_chemical_formula_sum   'Cr6 Fe9 Ni39'
_cell_volume   582.40334146
_cell_formula_units_Z   3
loop_
 _symmetry_equiv_pos_site_id
 _symmetry_equiv_pos_as_xyz
  1  'x, y, z'
loop_
 _atom_site_type_symbol
 _atom_site_label
 _atom_site_symmetry_multiplicity
 _atom_site_fract_x
 _atom_site_fract_y
 _atom_site_fract_z
 _atom_site_occupancy
  Ni  Ni0  1  0.00315773  0.00244040  0.99972959  1
  Ni  Ni1  1  0.16650663  0.16889214  0.16711990  1
  Ni  Ni2  1  0.00276103  0.00322011  0.33673632  1
  Ni  Ni3  1  0.00232642  0.33629364  0.00294606  1
  Ni  Ni4  1  0.16699321  0.50038268  0.16894940  1
  Ni  Ni5  1  1.00017689  0.33519937  0.33423367  1
  Ni  Ni6  1  1.00176401  0.66681478  1.00002767  1
  Cr  Cr7  1  0.16946915  0.83606338  0.16813405  1
  Ni  Ni8  1  1.00156978  0.66711274  0.33759512  1
  Ni  Ni9  1  0.33506649  0.00293390  1.00120881  1
  Fe  Fe10  1  0.50206770  0.16977235  0.16777349  1
  Ni  Ni11  1  0.33475692  0.00241539  0.33383272  1
  Ni  Ni12  1  0.33536135  0.33508388  0.00205609  1
  Ni  Ni13  1  0.50332291  0.50366890  0.16791648  1
  Cr  Cr14  1  0.33502579  0.33500469  0.33445023  1
  Fe  Fe15  1  0.33457795  0.66667171  1.00043375  1
  Ni  Ni16  1  0.50103085  0.83394261  0.16935513  1
  Ni  Ni17  1  0.33561222  0.66832081  0.33460812  1
  Cr  Cr18  1  0.66813691  0.00265147  1.00080567  1
  Ni  Ni19  1  0.83770190  0.17116215  0.16973006  1
  Fe  Fe20  1  0.66833695  0.00383991  0.33524520  1
  Ni  Ni21  1  0.66783122  0.33691108  1.00181801  1
  Ni  Ni22  1  0.83493685  0.49966180  0.16846644  1
  Ni  Ni23  1  0.66916015  0.33627232  0.33469991  1
  Fe  Fe24  1  0.66815513  0.66673958  1.00084048  1
  Cr  Cr25  1  0.83513223  0.83344681  0.17023138  1
  Ni  Ni26  1  0.66856453  0.66606304  0.33393861  1
  Ni  Ni27  1  0.16708815  0.16665258  0.50267848  1
  Ni  Ni28  1  1.00173087  1.00181248  0.66958764  1
  Ni  Ni29  1  0.16873462  0.16889412  0.83569560  1
  Fe  Fe30  1  0.16932702  0.50075276  0.50262645  1
  Ni  Ni31  1  1.00160184  0.33538956  0.66870151  1
  Ni  Ni32  1  0.16741874  0.50023208  0.83389613  1
  Fe  Fe33  1  0.16827631  0.83519569  0.50229990  1
  Ni  Ni34  1  0.00320438  0.66845512  0.66766369  1
  Ni  Ni35  1  0.16811563  0.83620126  0.83423605  1
  Ni  Ni36  1  0.50065177  0.16893328  0.50220419  1
  Ni  Ni37  1  0.33449196  0.00288853  0.66995207  1
  Ni  Ni38  1  0.49956867  0.16948177  0.83334511  1
  Ni  Ni39  1  0.50431576  0.50079876  0.50265160  1
  Ni  Ni40  1  0.33541635  0.33480845  0.66816825  1
  Ni  Ni41  1  0.50142567  0.49961615  0.83499577  1
  Cr  Cr42  1  0.50083215  0.83528422  0.50150255  1
  Ni  Ni43  1  0.33299114  0.66740012  0.67000040  1
  Ni  Ni44  1  0.50007515  0.83596598  0.83521798  1
  Fe  Fe45  1  0.83428551  0.17040595  0.50166693  1
  Ni  Ni46  1  0.66911152  0.00449130  0.66921651  1
  Fe  Fe47  1  0.83599018  0.17047952  0.83528275  1
  Ni  Ni48  1  0.83602574  0.50108430  0.50037005  1
  Ni  Ni49  1  0.66838092  0.33369306  0.66878963  1
  Ni  Ni50  1  0.83640514  0.50070056  0.83663758  1
  Fe  Fe51  1  0.83623599  0.83592094  0.50210798  1
  Cr  Cr52  1  0.66989154  0.66728804  0.67175740  1
  Ni  Ni53  1  0.83726790  0.83455525  0.83422895  1
" 