6665,Ni73Fe18Cr8_19,-238.083801997781, 196.962514805461,Ni73Fe18Cr8,"# generated using pymatgen
 data_Cr2Fe3Ni13
_symmetry_space_group_name_H-M   'P 1'
_cell_length_a   7.43914494
_cell_length_b   7.43914494
_cell_length_c   10.52053967
_cell_angle_alpha   90.00000000
_cell_angle_beta   90.00000000
_cell_angle_gamma   90.00000000
_symmetry_Int_Tables_number   1
_chemical_formula_structural   Cr2Fe3Ni13
_chemical_formula_sum   'Cr6 Fe9 Ni39'
_cell_volume   582.21589685
_cell_formula_units_Z   3
loop_
 _symmetry_equiv_pos_site_id
 _symmetry_equiv_pos_as_xyz
  1  'x, y, z'
loop_
 _atom_site_type_symbol
 _atom_site_label
 _atom_site_symmetry_multiplicity
 _atom_site_fract_x
 _atom_site_fract_y
 _atom_site_fract_z
 _atom_site_occupancy
  Ni  Ni0  1  1.00093010  0.00291229  0.00368533  1
  Ni  Ni1  1  0.16908540  0.16686752  0.16769027  1
  Fe  Fe2  1  0.00199543  1.00183409  0.33427240  1
  Ni  Ni3  1  1.00175851  0.33380229  1.00181245  1
  Cr  Cr4  1  0.16760259  0.50181611  0.16736311  1
  Fe  Fe5  1  1.00124048  0.33473279  0.33591184  1
  Ni  Ni6  1  0.00297543  0.66891207  0.00264188  1
  Ni  Ni7  1  0.16759532  0.83695689  0.16753132  1
  Ni  Ni8  1  1.00103774  0.66896629  0.33466279  1
  Fe  Fe9  1  0.33573636  0.00300785  0.00296238  1
  Ni  Ni10  1  0.50129005  0.16783707  0.16792064  1
  Fe  Fe11  1  0.33573177  0.00236004  0.33570786  1
  Ni  Ni12  1  0.33566236  0.33497259  0.00209899  1
  Ni  Ni13  1  0.50274798  0.50104352  0.16699502  1
  Fe  Fe14  1  0.33549761  0.33321947  0.33579110  1
  Ni  Ni15  1  0.33459587  0.66789094  0.00236724  1
  Ni  Ni16  1  0.50202414  0.83674484  0.16832770  1
  Cr  Cr17  1  0.33592079  0.66943959  0.33607102  1
  Ni  Ni18  1  0.66922641  0.00397900  0.00244593  1
  Ni  Ni19  1  0.83525113  0.16759317  0.16731927  1
  Ni  Ni20  1  0.66791186  1.00170001  0.33421644  1
  Ni  Ni21  1  0.66820488  0.33292817  0.00256614  1
  Ni  Ni22  1  0.83503755  0.50253306  0.16838722  1
  Cr  Cr23  1  0.66851338  0.33473446  0.33463584  1
  Cr  Cr24  1  0.66843548  0.66861266  0.00325322  1
  Ni  Ni25  1  0.83600739  0.83549955  0.16915803  1
  Ni  Ni26  1  0.66921080  0.66943701  0.33403922  1
  Ni  Ni27  1  0.16934231  0.16830515  0.50257704  1
  Ni  Ni28  1  1.00183686  0.00353472  0.66781530  1
  Fe  Fe29  1  0.16741260  0.17064472  0.83498341  1
  Fe  Fe30  1  0.16799640  0.50114575  0.50350853  1
  Ni  Ni31  1  1.00184556  0.33487687  0.66791966  1
  Ni  Ni32  1  0.16827402  0.50150781  0.83482453  1
  Ni  Ni33  1  0.16959787  0.83593308  0.50269117  1
  Ni  Ni34  1  0.00234923  0.66721568  0.66832093  1
  Cr  Cr35  1  0.16777230  0.83395705  0.83544270  1
  Ni  Ni36  1  0.50042001  0.16829127  0.50255469  1
  Ni  Ni37  1  0.33592113  0.00234956  0.66695587  1
  Ni  Ni38  1  0.50271010  0.16896677  0.83514895  1
  Ni  Ni39  1  0.50198141  0.50166536  0.50401731  1
  Ni  Ni40  1  0.33512982  0.33527952  0.66762080  1
  Fe  Fe41  1  0.50155556  0.50068347  0.83440383  1
  Ni  Ni42  1  0.50044110  0.83566876  0.50337959  1
  Ni  Ni43  1  0.33581121  0.66799725  0.66730862  1
  Fe  Fe44  1  0.50350031  0.83588159  0.83402367  1
  Ni  Ni45  1  0.83586400  0.16984474  0.50330759  1
  Ni  Ni46  1  0.66786838  0.00285345  0.66896472  1
  Ni  Ni47  1  0.83366616  0.16872237  0.83499991  1
  Ni  Ni48  1  0.83559955  0.50140957  0.50277644  1
  Ni  Ni49  1  0.66864942  0.33476745  0.66835274  1
  Ni  Ni50  1  0.83668925  0.50120200  0.83446251  1
  Cr  Cr51  1  0.83515175  0.83452621  0.50255510  1
  Ni  Ni52  1  0.66746661  0.66800485  0.66819081  1
  Ni  Ni53  1  0.83519161  0.83570295  0.83433028  1
" 