2289,Ni73Fe18Cr8_10,-237.66888804635, 191.563520514533,Ni73Fe18Cr8,"# generated using pymatgen
 data_Cr2Fe3Ni13
_symmetry_space_group_name_H-M   'P 1'
_cell_length_a   7.44327458
_cell_length_b   7.44327458
_cell_length_c   10.52637986
_cell_angle_alpha   90.00000000
_cell_angle_beta   90.00000000
_cell_angle_gamma   90.00000000
_symmetry_Int_Tables_number   1
_chemical_formula_structural   Cr2Fe3Ni13
_chemical_formula_sum   'Cr6 Fe9 Ni39'
_cell_volume   583.18603937
_cell_formula_units_Z   3
loop_
 _symmetry_equiv_pos_site_id
 _symmetry_equiv_pos_as_xyz
  1  'x, y, z'
loop_
 _atom_site_type_symbol
 _atom_site_label
 _atom_site_symmetry_multiplicity
 _atom_site_fract_x
 _atom_site_fract_y
 _atom_site_fract_z
 _atom_site_occupancy
  Ni  Ni0  1  0.00203550  1.00090855  0.00167399  1
  Fe  Fe1  1  0.16733195  0.16798558  0.16864774  1
  Ni  Ni2  1  0.00344426  0.00202403  0.33491083  1
  Ni  Ni3  1  0.00286753  0.33452877  0.00160692  1
  Fe  Fe4  1  0.16814965  0.50253521  0.16791150  1
  Ni  Ni5  1  0.00264053  0.33275550  0.33519386  1
  Ni  Ni6  1  1.00108563  0.66926130  1.00084328  1
  Ni  Ni7  1  0.16841616  0.83642474  0.16823637  1
  Cr  Cr8  1  1.00023201  0.66896034  0.33675019  1
  Cr  Cr9  1  0.33514075  0.00230674  0.99968591  1
  Fe  Fe10  1  0.50269500  0.16687551  0.16872716  1
  Ni  Ni11  1  0.33388912  1.00121094  0.33485719  1
  Ni  Ni12  1  0.33442387  0.33445654  1.00116707  1
  Cr  Cr13  1  0.50110080  0.50179969  0.16877948  1
  Ni  Ni14  1  0.33386765  0.33298171  0.33437940  1
  Fe  Fe15  1  0.33338977  0.66717371  1.00012760  1
  Ni  Ni16  1  0.50170857  0.83510456  0.16922445  1
  Fe  Fe17  1  0.33423489  0.66852832  0.33655149  1
  Fe  Fe18  1  0.67018667  0.00207260  1.00034086  1
  Fe  Fe19  1  0.83499879  0.16647725  0.16822729  1
  Fe  Fe20  1  0.66984573  1.00139181  0.33506565  1
  Ni  Ni21  1  0.66754154  0.33480732  0.99983376  1
  Cr  Cr22  1  0.83475113  0.50044223  0.16746779  1
  Ni  Ni23  1  0.66840093  0.33564887  0.33616931  1
  Ni  Ni24  1  0.66874060  0.66952918  0.99979582  1
  Ni  Ni25  1  0.83487602  0.83690245  0.16709492  1
  Ni  Ni26  1  0.66743274  0.66967530  0.33716570  1
  Ni  Ni27  1  0.16670069  0.16789699  0.50143072  1
  Ni  Ni28  1  0.00329415  1.00131455  0.66797217  1
  Ni  Ni29  1  0.16689755  0.16834688  0.83382918  1
  Ni  Ni30  1  0.16922569  0.49997068  0.50171432  1
  Ni  Ni31  1  1.00139836  0.33507184  0.66753728  1
  Fe  Fe32  1  0.16748265  0.50154385  0.83402312  1
  Ni  Ni33  1  0.16905725  0.83667270  0.50250694  1
  Ni  Ni34  1  1.00067280  0.66845299  0.66812193  1
  Ni  Ni35  1  0.16692351  0.83534085  0.83395892  1
  Cr  Cr36  1  0.49977995  0.16936728  0.50202600  1
  Ni  Ni37  1  0.33288407  1.00099583  0.66903630  1
  Ni  Ni38  1  0.50080484  0.17098397  0.83561284  1
  Ni  Ni39  1  0.50148671  0.50245322  0.50133118  1
  Ni  Ni40  1  0.33441546  0.33527847  0.66926575  1
  Ni  Ni41  1  0.50225303  0.50128497  0.83486100  1
  Ni  Ni42  1  0.49988802  0.83245935  0.50003866  1
  Ni  Ni43  1  0.33548732  0.66858535  0.66783610  1
  Ni  Ni44  1  0.50078083  0.83239248  0.83539328  1
  Ni  Ni45  1  0.83832271  0.16972888  0.50015916  1
  Cr  Cr46  1  0.66877279  1.00058062  0.67023909  1
  Ni  Ni47  1  0.83743255  0.17006018  0.83662567  1
  Ni  Ni48  1  0.83408687  0.49997524  0.50237704  1
  Ni  Ni49  1  0.66889366  0.33772687  0.66910050  1
  Ni  Ni50  1  0.83433801  0.50121223  0.83498915  1
  Ni  Ni51  1  0.83581996  0.83527896  0.50149231  1
  Ni  Ni52  1  0.66860449  0.66678050  0.66778385  1
  Ni  Ni53  1  0.83710339  0.83371064  0.83653718  1
" 