8254,Ni73Fe18Cr7_14,-238.468800950912, 196.639609480761,Ni73Fe18Cr7,"# generated using pymatgen
 data_Cr5Fe10Ni39
_symmetry_space_group_name_H-M   'P 1'
_cell_length_a   7.43241522
_cell_length_b   7.43241522
_cell_length_c   10.51102241
_cell_angle_alpha   90.00000000
_cell_angle_beta   90.00000000
_cell_angle_gamma   90.00000000
_symmetry_Int_Tables_number   1
_chemical_formula_structural   Cr5Fe10Ni39
_chemical_formula_sum   'Cr5 Fe10 Ni39'
_cell_volume   580.63724495
_cell_formula_units_Z   1
loop_
 _symmetry_equiv_pos_site_id
 _symmetry_equiv_pos_as_xyz
  1  'x, y, z'
loop_
 _atom_site_type_symbol
 _atom_site_label
 _atom_site_symmetry_multiplicity
 _atom_site_fract_x
 _atom_site_fract_y
 _atom_site_fract_z
 _atom_site_occupancy
  Fe  Fe0  1  1.00229444  0.00302173  1.00186527  1
  Ni  Ni1  1  0.17033914  0.16955632  0.16688606  1
  Cr  Cr2  1  1.00204087  1.00130944  0.33638430  1
  Ni  Ni3  1  1.00229375  0.33496106  1.00221013  1
  Ni  Ni4  1  0.16832129  0.50153719  0.16951254  1
  Cr  Cr5  1  0.00296866  0.33717303  0.33619419  1
  Ni  Ni6  1  1.00026150  0.66887328  0.00320868  1
  Fe  Fe7  1  0.16895990  0.83472874  0.16954731  1
  Ni  Ni8  1  0.00386126  0.66879725  0.33514435  1
  Fe  Fe9  1  0.33477030  0.00317100  0.00274424  1
  Fe  Fe10  1  0.50220050  0.17012317  0.16953612  1
  Ni  Ni11  1  0.33772923  0.00249940  0.33524417  1
  Ni  Ni12  1  0.33445674  0.33460712  0.00341465  1
  Ni  Ni13  1  0.50267657  0.50137240  0.16857424  1
  Ni  Ni14  1  0.33668345  0.33565310  0.33510521  1
  Cr  Cr15  1  0.33626842  0.66845216  1.00175339  1
  Ni  Ni16  1  0.50271830  0.83739121  0.16920048  1
  Ni  Ni17  1  0.33471500  0.66883810  0.33557248  1
  Fe  Fe18  1  0.66992232  1.00141916  0.00315496  1
  Ni  Ni19  1  0.83448871  0.16952171  0.16733371  1
  Ni  Ni20  1  0.66709005  0.00319251  0.33540545  1
  Ni  Ni21  1  0.67023851  0.33639380  0.00411043  1
  Ni  Ni22  1  0.83599240  0.50209830  0.16741822  1
  Fe  Fe23  1  0.66705380  0.33462675  0.33555873  1
  Ni  Ni24  1  0.67049577  0.66922842  1.00197222  1
  Fe  Fe25  1  0.83565613  0.83484036  0.16772299  1
  Cr  Cr26  1  0.66874061  0.66938771  0.33575860  1
  Ni  Ni27  1  0.17143378  0.16899383  0.50424205  1
  Ni  Ni28  1  1.00228117  0.00276367  0.66924165  1
  Ni  Ni29  1  0.16838219  0.16945266  0.83586945  1
  Ni  Ni30  1  0.16891669  0.50269224  0.50250580  1
  Ni  Ni31  1  0.00253787  0.33500542  0.66950175  1
  Ni  Ni32  1  0.16683863  0.50099549  0.83497114  1
  Ni  Ni33  1  0.16943714  0.83530321  0.50250722  1
  Ni  Ni34  1  1.00219726  0.66921820  0.66863954  1
  Ni  Ni35  1  0.16812599  0.83654470  0.83503595  1
  Ni  Ni36  1  0.50184454  0.16843198  0.50062427  1
  Ni  Ni37  1  0.33480818  1.00143589  0.66819569  1
  Cr  Cr38  1  0.50125682  0.16856290  0.83609741  1
  Ni  Ni39  1  0.50207895  0.50098755  0.50344595  1
  Ni  Ni40  1  0.33450997  0.33630229  0.66846763  1
  Fe  Fe41  1  0.50276044  0.50356785  0.83494833  1
  Ni  Ni42  1  0.50212691  0.83756829  0.50345905  1
  Ni  Ni43  1  0.33618276  0.66925662  0.66887669  1
  Ni  Ni44  1  0.50374953  0.83577363  0.83431749  1
  Fe  Fe45  1  0.83396606  0.16871215  0.50376311  1
  Ni  Ni46  1  0.66990426  1.00109392  0.66805066  1
  Fe  Fe47  1  0.83777319  0.16892000  0.83579137  1
  Ni  Ni48  1  0.83599229  0.50298044  0.50332191  1
  Ni  Ni49  1  0.66994231  0.33638491  0.66760828  1
  Ni  Ni50  1  0.83637716  0.50328510  0.83626222  1
  Ni  Ni51  1  0.83542512  0.83505704  0.50333526  1
  Ni  Ni52  1  0.66860724  0.66950967  0.66986822  1
  Ni  Ni53  1  0.83511628  0.83423622  0.83632911  1
" 