5957,Ni73Fe6Cr20_9,-231.622743802204, 163.829292874961,Ni73Fe6Cr20,"# generated using pymatgen
 data_Cr4FeNi13
_symmetry_space_group_name_H-M   'P 1'
_cell_length_a   7.46710651
_cell_length_b   7.46710651
_cell_length_c   10.56008330
_cell_angle_alpha   90.00000000
_cell_angle_beta   90.00000000
_cell_angle_gamma   90.00000000
_symmetry_Int_Tables_number   1
_chemical_formula_structural   Cr4FeNi13
_chemical_formula_sum   'Cr12 Fe3 Ni39'
_cell_volume   588.80574173
_cell_formula_units_Z   3
loop_
 _symmetry_equiv_pos_site_id
 _symmetry_equiv_pos_as_xyz
  1  'x, y, z'
loop_
 _atom_site_type_symbol
 _atom_site_label
 _atom_site_symmetry_multiplicity
 _atom_site_fract_x
 _atom_site_fract_y
 _atom_site_fract_z
 _atom_site_occupancy
  Ni  Ni0  1  0.99987266  0.00194990  0.99986976  1
  Ni  Ni1  1  0.16687320  0.16461367  0.16614159  1
  Cr  Cr2  1  0.00124736  0.99961205  0.33230122  1
  Ni  Ni3  1  0.99874388  0.32811269  0.99882314  1
  Cr  Cr4  1  0.16734853  0.49962984  0.16875933  1
  Ni  Ni5  1  0.00079802  0.33325278  0.33418926  1
  Cr  Cr6  1  0.00057118  0.66959577  0.00040322  1
  Ni  Ni7  1  0.16801781  0.83584009  0.16724708  1
  Fe  Fe8  1  0.00165909  0.66680595  0.33543817  1
  Ni  Ni9  1  0.33259408  0.00024804  0.00097063  1
  Ni  Ni10  1  0.50127349  0.16526557  0.16779696  1
  Ni  Ni11  1  0.33426794  0.99981847  0.33269106  1
  Cr  Cr12  1  0.33415728  0.33135106  0.99844660  1
  Ni  Ni13  1  0.50009300  0.49834540  0.16798333  1
  Ni  Ni14  1  0.33410721  0.33273368  0.33476145  1
  Cr  Cr15  1  0.33458108  0.66867918  0.99887079  1
  Ni  Ni16  1  0.49900116  0.83635583  0.16674400  1
  Ni  Ni17  1  0.33362973  0.66744884  0.33393497  1
  Ni  Ni18  1  0.66750963  0.00173046  0.99978528  1
  Ni  Ni19  1  0.83183987  0.16564926  0.16474126  1
  Ni  Ni20  1  0.66456866  0.00034006  0.33293504  1
  Ni  Ni21  1  0.66681502  0.33008506  0.00089502  1
  Cr  Cr22  1  0.83292941  0.49701081  0.16722452  1
  Ni  Ni23  1  0.66508938  0.33262930  0.33244246  1
  Cr  Cr24  1  0.66481411  0.66715292  0.00019422  1
  Ni  Ni25  1  0.83301857  0.83703821  0.16638547  1
  Cr  Cr26  1  0.66583120  0.66707389  0.33371778  1
  Ni  Ni27  1  0.16860677  0.16859509  0.50023599  1
  Ni  Ni28  1  0.99974897  0.99881273  0.66819318  1
  Ni  Ni29  1  0.16541890  0.16638250  0.83359506  1
  Ni  Ni30  1  0.16681034  0.50029970  0.50056897  1
  Ni  Ni31  1  0.00300946  0.33293806  0.66703470  1
  Ni  Ni32  1  0.16798251  0.49966409  0.83042850  1
  Ni  Ni33  1  0.16696880  0.83108061  0.49958314  1
  Ni  Ni34  1  0.00005573  0.66820099  0.66491728  1
  Ni  Ni35  1  0.16540636  0.83391622  0.83318148  1
  Ni  Ni36  1  0.49827465  0.16662411  0.49755120  1
  Cr  Cr37  1  0.33180772  0.00106686  0.66604099  1
  Ni  Ni38  1  0.50081807  0.16640500  0.83457220  1
  Ni  Ni39  1  0.49809605  0.50013120  0.49994690  1
  Ni  Ni40  1  0.33181596  0.33506153  0.66645978  1
  Ni  Ni41  1  0.49810249  0.49939767  0.83197855  1
  Ni  Ni42  1  0.49993843  0.83324504  0.50042926  1
  Ni  Ni43  1  0.33377895  0.66515273  0.66710694  1
  Fe  Fe44  1  0.50019695  0.83454523  0.83263509  1
  Cr  Cr45  1  0.83267782  0.16653534  0.50047621  1
  Fe  Fe46  1  0.66769783  0.99776887  0.66720460  1
  Ni  Ni47  1  0.83376821  0.16380708  0.83511490  1
  Ni  Ni48  1  0.83517424  0.50180576  0.49980990  1
  Cr  Cr49  1  0.66468946  0.33432205  0.66624170  1
  Cr  Cr50  1  0.83446545  0.49917449  0.83314848  1
  Ni  Ni51  1  0.83314270  0.83139752  0.50213296  1
  Ni  Ni52  1  0.66618062  0.66837406  0.66601855  1
  Ni  Ni53  1  0.83390105  0.83671369  0.83148689  1
" 