7422,Ni73Fe18Cr8_2,-237.625573335139, 194.288100930001,Ni73Fe18Cr8,"# generated using pymatgen
 data_Cr2Fe3Ni13
_symmetry_space_group_name_H-M   'P 1'
_cell_length_a   7.44042548
_cell_length_b   7.44042548
_cell_length_c   10.52235062
_cell_angle_alpha   90.00000000
_cell_angle_beta   90.00000000
_cell_angle_gamma   90.00000000
_symmetry_Int_Tables_number   1
_chemical_formula_structural   Cr2Fe3Ni13
_chemical_formula_sum   'Cr6 Fe9 Ni39'
_cell_volume   582.51660728
_cell_formula_units_Z   3
loop_
 _symmetry_equiv_pos_site_id
 _symmetry_equiv_pos_as_xyz
  1  'x, y, z'
loop_
 _atom_site_type_symbol
 _atom_site_label
 _atom_site_symmetry_multiplicity
 _atom_site_fract_x
 _atom_site_fract_y
 _atom_site_fract_z
 _atom_site_occupancy
  Ni  Ni0  1  0.00456266  0.00200134  0.00259459  1
  Ni  Ni1  1  0.17004790  0.16942842  0.16896184  1
  Ni  Ni2  1  0.00206019  0.00299550  0.33212815  1
  Ni  Ni3  1  0.00288443  0.33617366  1.00045135  1
  Ni  Ni4  1  0.16813151  0.50004431  0.16901371  1
  Ni  Ni5  1  1.00158175  0.33649397  0.33561766  1
  Ni  Ni6  1  0.00263144  0.66741837  0.00329865  1
  Ni  Ni7  1  0.16661473  0.83557124  0.16868314  1
  Fe  Fe8  1  1.00111676  0.66657604  0.33334874  1
  Ni  Ni9  1  0.33325868  0.00326744  1.00073497  1
  Ni  Ni10  1  0.50097654  0.17026364  0.16866261  1
  Ni  Ni11  1  0.33519819  0.00292154  0.33435579  1
  Ni  Ni12  1  0.33480969  0.33456231  1.00144824  1
  Ni  Ni13  1  0.50229682  0.49915164  0.16872906  1
  Ni  Ni14  1  0.33552239  0.33572335  0.33523308  1
  Fe  Fe15  1  0.33401676  0.66756490  1.00140872  1
  Cr  Cr16  1  0.50323408  0.83598573  0.16757378  1
  Fe  Fe17  1  0.33535664  0.66657097  0.33373187  1
  Ni  Ni18  1  0.66763522  0.00312558  1.00110150  1
  Fe  Fe19  1  0.83540331  0.16944354  0.16802776  1
  Ni  Ni20  1  0.66797559  0.00268450  0.33596277  1
  Ni  Ni21  1  0.66770837  0.33663905  0.00242029  1
  Ni  Ni22  1  0.83477517  0.50253478  0.16840805  1
  Ni  Ni23  1  0.66823640  0.33652529  0.33466181  1
  Ni  Ni24  1  0.66911304  0.66587047  1.00065712  1
  Ni  Ni25  1  0.83560468  0.83428499  0.16880085  1
  Ni  Ni26  1  0.66854498  0.66617881  0.33624076  1
  Cr  Cr27  1  0.16898292  0.17032931  0.50260686  1
  Ni  Ni28  1  0.00332032  0.00195862  0.67055233  1
  Ni  Ni29  1  0.16910401  0.16898658  0.83425353  1
  Ni  Ni30  1  0.16860747  0.50177378  0.50194443  1
  Fe  Fe31  1  1.00079211  0.33503888  0.66916848  1
  Ni  Ni32  1  0.16832490  0.50137658  0.83447719  1
  Cr  Cr33  1  0.16902243  0.83403892  0.50052462  1
  Ni  Ni34  1  0.00296305  0.66537862  0.66872389  1
  Ni  Ni35  1  0.16975155  0.83482828  0.83575213  1
  Ni  Ni36  1  0.50201725  0.16782004  0.50036779  1
  Ni  Ni37  1  0.33619844  0.00203020  0.67000662  1
  Ni  Ni38  1  0.50087853  0.16793425  0.83658612  1
  Fe  Fe39  1  0.50148415  0.50127267  0.50049001  1
  Fe  Fe40  1  0.33533965  0.33561269  0.66983836  1
  Ni  Ni41  1  0.50111381  0.50220388  0.83656230  1
  Fe  Fe42  1  0.50184081  0.83558759  0.50221284  1
  Fe  Fe43  1  0.33579675  0.66879842  0.67006353  1
  Ni  Ni44  1  0.50087206  0.83543019  0.83415906  1
  Ni  Ni45  1  0.83326227  0.16926028  0.50023651  1
  Ni  Ni46  1  0.66566777  0.00234446  0.66796825  1
  Ni  Ni47  1  0.83533115  0.16898233  0.83615148  1
  Ni  Ni48  1  0.83617844  0.50166492  0.50122836  1
  Cr  Cr49  1  0.66814925  0.33554724  0.66882747  1
  Ni  Ni50  1  0.83580720  0.50147071  0.83572573  1
  Cr  Cr51  1  0.83434315  0.83550731  0.50222218  1
  Ni  Ni52  1  0.66750424  0.66676383  0.66838785  1
  Cr  Cr53  1  0.83465548  0.83466505  0.83531227  1
" 