7317,Ni73Fe6Cr20_12,-231.289155214443, 161.987167249305,Ni73Fe6Cr20,"# generated using pymatgen
 data_Cr4FeNi13
_symmetry_space_group_name_H-M   'P 1'
_cell_length_a   7.47136706
_cell_length_b   7.47136706
_cell_length_c   10.56610863
_cell_angle_alpha   90.00000000
_cell_angle_beta   90.00000000
_cell_angle_gamma   90.00000000
_symmetry_Int_Tables_number   1
_chemical_formula_structural   Cr4FeNi13
_chemical_formula_sum   'Cr12 Fe3 Ni39'
_cell_volume   589.81419182
_cell_formula_units_Z   3
loop_
 _symmetry_equiv_pos_site_id
 _symmetry_equiv_pos_as_xyz
  1  'x, y, z'
loop_
 _atom_site_type_symbol
 _atom_site_label
 _atom_site_symmetry_multiplicity
 _atom_site_fract_x
 _atom_site_fract_y
 _atom_site_fract_z
 _atom_site_occupancy
  Ni  Ni0  1  0.00067168  0.00078516  0.99866786  1
  Fe  Fe1  1  0.16721145  0.16543655  0.16559628  1
  Ni  Ni2  1  0.99947184  0.99848739  0.33344687  1
  Cr  Cr3  1  0.00027480  0.33113608  0.00076826  1
  Ni  Ni4  1  0.16698332  0.49896780  0.16554424  1
  Cr  Cr5  1  -0.00008218  0.33371853  0.33279287  1
  Cr  Cr6  1  0.99920536  0.66776275  -0.00010746  1
  Cr  Cr7  1  0.16600775  0.83457478  0.16668291  1
  Ni  Ni8  1  0.99674801  0.66786293  0.33382245  1
  Ni  Ni9  1  0.33271354  0.00077917  0.99903953  1
  Ni  Ni10  1  0.49937871  0.16656389  0.16537377  1
  Ni  Ni11  1  0.33342982  0.00037182  0.33369284  1
  Ni  Ni12  1  0.33406637  0.33234744  0.00111603  1
  Ni  Ni13  1  0.50088756  0.49948989  0.16355857  1
  Cr  Cr14  1  0.33302985  0.33162988  0.33316382  1
  Ni  Ni15  1  0.33502839  0.66600619  0.99943030  1
  Ni  Ni16  1  0.50118250  0.83307820  0.16642245  1
  Cr  Cr17  1  0.33410037  0.66705979  0.33463638  1
  Cr  Cr18  1  0.66656658  0.99916388  0.99920462  1
  Ni  Ni19  1  0.83254349  0.16551004  0.16642377  1
  Fe  Fe20  1  0.66634278  0.99732780  0.33302841  1
  Ni  Ni21  1  0.66413132  0.33303849  0.00142267  1
  Ni  Ni22  1  0.83126160  0.50077013  0.16649087  1
  Cr  Cr23  1  0.66618588  0.33385946  0.33285467  1
  Ni  Ni24  1  0.66412281  0.66626743  0.00204790  1
  Ni  Ni25  1  0.83202086  0.83285137  0.16806354  1
  Ni  Ni26  1  0.66829563  0.66815941  0.33238008  1
  Ni  Ni27  1  0.16562456  0.16486612  0.49868894  1
  Ni  Ni28  1  0.99754205  -0.00023690  0.66701935  1
  Ni  Ni29  1  0.16534224  0.16481845  0.83503308  1
  Ni  Ni30  1  0.16451806  0.50091241  0.50159354  1
  Ni  Ni31  1  0.99853379  0.33271731  0.66544660  1
  Ni  Ni32  1  0.16721890  0.50055752  0.83199477  1
  Ni  Ni33  1  0.16452644  0.83335440  0.49976277  1
  Ni  Ni34  1  0.00022682  0.66665118  0.66515656  1
  Ni  Ni35  1  0.16616352  0.83375665  0.83291026  1
  Ni  Ni36  1  0.50036882  0.16531524  0.49959855  1
  Cr  Cr37  1  0.33363958  0.99787797  0.66676719  1
  Ni  Ni38  1  0.50033575  0.16547393  0.83415946  1
  Ni  Ni39  1  0.50151775  0.50050586  0.50118391  1
  Cr  Cr40  1  0.33215175  0.33398873  0.66500380  1
  Cr  Cr41  1  0.49941362  0.50004978  0.83413358  1
  Ni  Ni42  1  0.50106176  0.83331100  0.49942898  1
  Ni  Ni43  1  0.33220946  0.66682589  0.66570972  1
  Ni  Ni44  1  0.49910982  0.83350417  0.83328131  1
  Fe  Fe45  1  0.83339442  0.16503218  0.50182771  1
  Ni  Ni46  1  0.66821696  -0.00024035  0.66606731  1
  Ni  Ni47  1  0.83345648  0.16441905  0.83077308  1
  Ni  Ni48  1  0.83309653  0.50160493  0.50094267  1
  Ni  Ni49  1  0.66839408  0.33154757  0.66499348  1
  Cr  Cr50  1  0.83244443  0.49936201  0.83157656  1
  Ni  Ni51  1  0.83354622  0.83220589  0.49919155  1
  Ni  Ni52  1  0.66669640  0.66782273  0.66470563  1
  Ni  Ni53  1  0.83386011  0.83538040  0.83187553  1
" 