7004,Ni73Fe6Cr20_17,-231.504338999827, 159.900208433634,Ni73Fe6Cr20,"# generated using pymatgen
 data_Cr4FeNi13
_symmetry_space_group_name_H-M   'P 1'
_cell_length_a   7.46816622
_cell_length_b   7.46816622
_cell_length_c   10.56158196
_cell_angle_alpha   90.00000000
_cell_angle_beta   90.00000000
_cell_angle_gamma   90.00000000
_symmetry_Int_Tables_number   1
_chemical_formula_structural   Cr4FeNi13
_chemical_formula_sum   'Cr12 Fe3 Ni39'
_cell_volume   589.05646288
_cell_formula_units_Z   3
loop_
 _symmetry_equiv_pos_site_id
 _symmetry_equiv_pos_as_xyz
  1  'x, y, z'
loop_
 _atom_site_type_symbol
 _atom_site_label
 _atom_site_symmetry_multiplicity
 _atom_site_fract_x
 _atom_site_fract_y
 _atom_site_fract_z
 _atom_site_occupancy
  Ni  Ni0  1  0.99954844  0.00230963  0.00037077  1
  Ni  Ni1  1  0.16919793  0.16856283  0.16470368  1
  Cr  Cr2  1  0.99951764  0.99840069  0.33199562  1
  Ni  Ni3  1  0.99982515  0.33331631  0.99987507  1
  Ni  Ni4  1  0.16527757  0.49644251  0.16530951  1
  Cr  Cr5  1  0.99970313  0.33638986  0.33025138  1
  Ni  Ni6  1  0.99829492  0.66439551  0.00079466  1
  Cr  Cr7  1  0.16360486  0.83428959  0.16570487  1
  Ni  Ni8  1  0.99742457  0.66532702  0.33447999  1
  Ni  Ni9  1  0.33341318  0.00360335  0.99784847  1
  Ni  Ni10  1  0.49876167  0.17022012  0.16685839  1
  Ni  Ni11  1  0.33485191  0.00245657  0.33499712  1
  Ni  Ni12  1  0.33310220  0.33153805  0.00075614  1
  Ni  Ni13  1  0.50275788  0.49506039  0.16660502  1
  Ni  Ni14  1  0.33604084  0.33306637  0.33193146  1
  Cr  Cr15  1  0.33283243  0.66296612  0.99657708  1
  Cr  Cr16  1  0.50296256  0.83356160  0.16415582  1
  Cr  Cr17  1  0.33267704  0.66425344  0.33494800  1
  Ni  Ni18  1  0.66682613  0.00232198  0.00044067  1
  Ni  Ni19  1  0.83186787  0.16778930  0.16207113  1
  Cr  Cr20  1  0.66581092  0.00103592  0.33298880  1
  Ni  Ni21  1  0.66694969  0.33297957  0.00026181  1
  Ni  Ni22  1  0.83169872  0.50150492  0.16641226  1
  Ni  Ni23  1  0.66355129  0.33577690  0.33238956  1
  Ni  Ni24  1  0.66837739  0.66458245  0.00023484  1
  Ni  Ni25  1  0.83346912  0.83061569  0.16519991  1
  Ni  Ni26  1  0.66888541  0.66400490  0.33449017  1
  Cr  Cr27  1  0.17061545  0.16723735  0.50169506  1
  Ni  Ni28  1  0.00241007  0.99918118  0.66735765  1
  Ni  Ni29  1  0.16835449  0.16626751  0.83292817  1
  Ni  Ni30  1  0.16648836  0.50105714  0.50112002  1
  Ni  Ni31  1  0.00016851  0.33539495  0.66913343  1
  Ni  Ni32  1  0.16451804  0.49749980  0.83333819  1
  Ni  Ni33  1  0.16464255  0.83226709  0.50129330  1
  Ni  Ni34  1  0.99965794  0.66543472  0.66463461  1
  Ni  Ni35  1  0.16448083  0.83611378  0.83255743  1
  Ni  Ni36  1  0.49813323  0.16950995  0.49928243  1
  Ni  Ni37  1  0.33231898  0.00065812  0.66679712  1
  Ni  Ni38  1  0.49777102  0.16895078  0.83371777  1
  Ni  Ni39  1  0.50187347  0.49768248  0.49983519  1
  Ni  Ni40  1  0.33402481  0.33294021  0.66707757  1
  Ni  Ni41  1  0.50286648  0.49585136  0.83343550  1
  Ni  Ni42  1  0.50075948  0.83268787  0.50095369  1
  Cr  Cr43  1  0.33336489  0.66628872  0.66818816  1
  Fe  Fe44  1  0.49862875  0.83359592  0.83416624  1
  Cr  Cr45  1  0.83175367  0.16875334  0.50388908  1
  Cr  Cr46  1  0.66457395  0.00038536  0.66684377  1
  Fe  Fe47  1  0.83492998  0.17037742  0.83444376  1
  Fe  Fe48  1  0.83197990  0.50257442  0.50107458  1
  Ni  Ni49  1  0.66563512  0.33578119  0.66713996  1
  Ni  Ni50  1  0.83238918  0.49978204  0.83210258  1
  Ni  Ni51  1  0.83436395  0.82816704  0.50005538  1
  Ni  Ni52  1  0.66741064  0.66374383  0.66502647  1
  Cr  Cr53  1  0.83461163  0.83100065  0.83521652  1
" 