4353,Ni73Fe18Cr8_5,-237.302644451629, 192.000021007018,Ni73Fe18Cr8,"# generated using pymatgen
 data_Cr2Fe3Ni13
_symmetry_space_group_name_H-M   'P 1'
_cell_length_a   7.43624565
_cell_length_b   7.43624565
_cell_length_c   10.51643946
_cell_angle_alpha   90.00000000
_cell_angle_beta   90.00000000
_cell_angle_gamma   90.00000000
_symmetry_Int_Tables_number   1
_chemical_formula_structural   Cr2Fe3Ni13
_chemical_formula_sum   'Cr6 Fe9 Ni39'
_cell_volume   581.53543364
_cell_formula_units_Z   3
loop_
 _symmetry_equiv_pos_site_id
 _symmetry_equiv_pos_as_xyz
  1  'x, y, z'
loop_
 _atom_site_type_symbol
 _atom_site_label
 _atom_site_symmetry_multiplicity
 _atom_site_fract_x
 _atom_site_fract_y
 _atom_site_fract_z
 _atom_site_occupancy
  Ni  Ni0  1  1.00182739  0.99957140  1.00183845  1
  Cr  Cr1  1  0.16910929  0.16744260  0.16760172  1
  Ni  Ni2  1  1.00078237  1.00190109  0.33659930  1
  Fe  Fe3  1  0.00270277  0.33696461  0.00259385  1
  Ni  Ni4  1  0.16807841  0.50280904  0.17029529  1
  Ni  Ni5  1  1.00142030  0.33626366  0.33620191  1
  Fe  Fe6  1  1.00168899  0.66946597  1.00146518  1
  Ni  Ni7  1  0.16782795  0.83476283  0.16980329  1
  Fe  Fe8  1  0.00241041  0.67018187  0.33605107  1
  Ni  Ni9  1  0.33566517  1.00205699  1.00145908  1
  Ni  Ni10  1  0.50230062  0.16781714  0.16972651  1
  Ni  Ni11  1  0.33598007  1.00067571  0.33558754  1
  Ni  Ni12  1  0.33458924  0.33585405  1.00090477  1
  Ni  Ni13  1  0.50180848  0.50210743  0.17047431  1
  Ni  Ni14  1  0.33421756  0.33612480  0.33496884  1
  Cr  Cr15  1  0.33628254  0.66855284  0.00284125  1
  Ni  Ni16  1  0.50249821  0.83602171  0.16966118  1
  Ni  Ni17  1  0.33541664  0.66938367  0.33490607  1
  Ni  Ni18  1  0.66872150  0.99940571  0.00309353  1
  Ni  Ni19  1  0.83517272  0.16768447  0.17014520  1
  Ni  Ni20  1  0.66949916  1.00044803  0.33528583  1
  Cr  Cr21  1  0.66710365  0.33718116  0.00428931  1
  Ni  Ni22  1  0.83646442  0.50331092  0.16965916  1
  Fe  Fe23  1  0.66906182  0.33399046  0.33487032  1
  Ni  Ni24  1  0.67031769  0.66995869  1.00078351  1
  Ni  Ni25  1  0.83595268  0.83535691  0.16829425  1
  Ni  Ni26  1  0.66939166  0.66990779  0.33496727  1
  Fe  Fe27  1  0.16876318  0.16801971  0.50184117  1
  Ni  Ni28  1  0.00288500  1.00065411  0.66757573  1
  Fe  Fe29  1  0.16971995  0.16789192  0.83538161  1
  Fe  Fe30  1  0.16759805  0.50228171  0.50199021  1
  Ni  Ni31  1  0.00431038  0.33675017  0.66847337  1
  Ni  Ni32  1  0.16819866  0.50178343  0.83418452  1
  Ni  Ni33  1  0.16898116  0.83566482  0.50153490  1
  Ni  Ni34  1  1.00201689  0.66891984  0.66848024  1
  Ni  Ni35  1  0.16801076  0.83584697  0.83494523  1
  Ni  Ni36  1  0.50099774  0.16696570  0.50088789  1
  Ni  Ni37  1  0.33513663  0.00236370  0.66886033  1
  Ni  Ni38  1  0.49948459  0.16733244  0.83581464  1
  Cr  Cr39  1  0.50104094  0.50321414  0.50165384  1
  Ni  Ni40  1  0.33327105  0.33469120  0.66993579  1
  Ni  Ni41  1  0.50074928  0.50262959  0.83406382  1
  Ni  Ni42  1  0.50103145  0.83719411  0.50247543  1
  Fe  Fe43  1  0.33318934  0.67061192  0.66921828  1
  Ni  Ni44  1  0.50215365  0.83666644  0.83382025  1
  Ni  Ni45  1  0.83637626  0.16819951  0.50112327  1
  Ni  Ni46  1  0.66822105  0.99986070  0.66791559  1
  Cr  Cr47  1  0.83652509  0.16658748  0.83590590  1
  Ni  Ni48  1  0.83782320  0.50234100  0.50152520  1
  Cr  Cr49  1  0.66902623  0.33482189  0.66808270  1
  Ni  Ni50  1  0.83742303  0.50446053  0.83511847  1
  Ni  Ni51  1  0.83619217  0.83581705  0.50282335  1
  Fe  Fe52  1  0.67029934  0.67065815  0.66914733  1
  Ni  Ni53  1  0.83612096  0.83440794  0.83469067  1
" 