8456,Ni73Fe6Cr20_7,-231.534958525555, 162.603097206151,Ni73Fe6Cr20,"# generated using pymatgen
 data_Cr4FeNi13
_symmetry_space_group_name_H-M   'P 1'
_cell_length_a   7.47092695
_cell_length_b   7.47092695
_cell_length_c   10.56548621
_cell_angle_alpha   90.00000000
_cell_angle_beta   90.00000000
_cell_angle_gamma   90.00000000
_symmetry_Int_Tables_number   1
_chemical_formula_structural   Cr4FeNi13
_chemical_formula_sum   'Cr12 Fe3 Ni39'
_cell_volume   589.70996524
_cell_formula_units_Z   3
loop_
 _symmetry_equiv_pos_site_id
 _symmetry_equiv_pos_as_xyz
  1  'x, y, z'
loop_
 _atom_site_type_symbol
 _atom_site_label
 _atom_site_symmetry_multiplicity
 _atom_site_fract_x
 _atom_site_fract_y
 _atom_site_fract_z
 _atom_site_occupancy
  Ni  Ni0  1  0.99967869  0.00030600  0.00037062  1
  Ni  Ni1  1  0.16672445  0.16668514  0.16676393  1
  Cr  Cr2  1  -0.00014240  0.00021977  0.33238194  1
  Cr  Cr3  1  -0.00024675  0.33057480  0.00018534  1
  Ni  Ni4  1  0.16538776  0.49758126  0.16821475  1
  Ni  Ni5  1  0.99829114  0.33368525  0.33193792  1
  Cr  Cr6  1  0.99909345  0.66769108  -0.00003341  1
  Ni  Ni7  1  0.16450207  0.83496083  0.16658546  1
  Ni  Ni8  1  0.99698898  0.66599396  0.33227295  1
  Ni  Ni9  1  0.33072496  0.00125173  0.99793049  1
  Cr  Cr10  1  0.49938041  0.16765377  0.16511151  1
  Ni  Ni11  1  0.32943185  0.00300177  0.33467945  1
  Ni  Ni12  1  0.33419506  0.33201021  0.99886235  1
  Ni  Ni13  1  0.50220514  0.49747979  0.16586921  1
  Ni  Ni14  1  0.33371678  0.33182859  0.33274531  1
  Cr  Cr15  1  0.33386595  0.66362011  0.99895541  1
  Cr  Cr16  1  0.50098729  0.83404906  0.16575140  1
  Cr  Cr17  1  0.33321117  0.66499150  0.33101817  1
  Ni  Ni18  1  0.66894503  0.00007660  0.99747009  1
  Ni  Ni19  1  0.83383808  0.16812578  0.16485735  1
  Cr  Cr20  1  0.66902287  0.00172983  0.33479136  1
  Ni  Ni21  1  0.66553556  0.33381278  0.99927723  1
  Ni  Ni22  1  0.83180369  0.49971432  0.16944801  1
  Ni  Ni23  1  0.66717687  0.33613975  0.33398105  1
  Ni  Ni24  1  0.66682544  0.66523291  0.99910540  1
  Ni  Ni25  1  0.83405766  0.83138833  0.16464468  1
  Ni  Ni26  1  0.67032444  0.66185229  0.33296115  1
  Fe  Fe27  1  0.16764256  0.16753550  0.49991921  1
  Cr  Cr28  1  0.99896389  0.00068241  0.66639099  1
  Ni  Ni29  1  0.16867061  0.16663910  0.83258953  1
  Cr  Cr30  1  0.16217380  0.49865104  0.50046044  1
  Ni  Ni31  1  0.99819201  0.33359139  0.66732021  1
  Ni  Ni32  1  0.16418056  0.49787691  0.83096838  1
  Ni  Ni33  1  0.16456243  0.83408980  0.49956466  1
  Ni  Ni34  1  0.99716240  0.66586172  0.66701986  1
  Ni  Ni35  1  0.16801790  0.83466230  0.83303333  1
  Ni  Ni36  1  0.49931157  0.16872937  0.50105770  1
  Ni  Ni37  1  0.33383327  0.00243221  0.66656230  1
  Ni  Ni38  1  0.50011965  0.16440699  0.83282456  1
  Ni  Ni39  1  0.50365140  0.49505274  0.50009648  1
  Ni  Ni40  1  0.33453574  0.33031303  0.66759984  1
  Fe  Fe41  1  0.50162703  0.49648446  0.83308702  1
  Cr  Cr42  1  0.50021229  0.83521389  0.50002640  1
  Cr  Cr43  1  0.33367698  0.66584905  0.66918173  1
  Ni  Ni44  1  0.50116524  0.83664125  0.83302585  1
  Ni  Ni45  1  0.83063217  0.17042617  0.50092509  1
  Ni  Ni46  1  0.66577127  0.00117978  0.66730621  1
  Ni  Ni47  1  0.83042142  0.16828423  0.83357280  1
  Ni  Ni48  1  0.83222549  0.49919793  0.49946191  1
  Ni  Ni49  1  0.66649599  0.33272537  0.66588193  1
  Ni  Ni50  1  0.83232119  0.49912485  0.83027451  1
  Ni  Ni51  1  0.83410377  0.82964420  0.50159911  1
  Ni  Ni52  1  0.66900752  0.66517319  0.66704712  1
  Fe  Fe53  1  0.83177624  0.83385396  0.83304373  1
" 