409,Ni73Fe18Cr7_2,-238.670503836985, 198.689303719886,Ni73Fe18Cr7,"# generated using pymatgen
 data_Cr5Fe10Ni39
_symmetry_space_group_name_H-M   'P 1'
_cell_length_a   7.43339640
_cell_length_b   7.43339640
_cell_length_c   10.51241000
_cell_angle_alpha   90.00000000
_cell_angle_beta   90.00000000
_cell_angle_gamma   90.00000000
_symmetry_Int_Tables_number   1
_chemical_formula_structural   Cr5Fe10Ni39
_chemical_formula_sum   'Cr5 Fe10 Ni39'
_cell_volume   580.86722996
_cell_formula_units_Z   1
loop_
 _symmetry_equiv_pos_site_id
 _symmetry_equiv_pos_as_xyz
  1  'x, y, z'
loop_
 _atom_site_type_symbol
 _atom_site_label
 _atom_site_symmetry_multiplicity
 _atom_site_fract_x
 _atom_site_fract_y
 _atom_site_fract_z
 _atom_site_occupancy
  Ni  Ni0  1  1.00142958  0.00301691  1.00080985  1
  Fe  Fe1  1  0.16744748  0.17093167  0.16757004  1
  Ni  Ni2  1  1.00004861  0.00289784  0.33749283  1
  Ni  Ni3  1  0.00339006  0.33540181  0.00237022  1
  Ni  Ni4  1  0.16706368  0.50171955  0.16851663  1
  Ni  Ni5  1  1.00024944  0.33504430  0.33472281  1
  Ni  Ni6  1  1.00219046  0.66837352  1.00115864  1
  Cr  Cr7  1  0.16913484  0.83372754  0.16890993  1
  Ni  Ni8  1  1.00076087  0.66884654  0.33574016  1
  Fe  Fe9  1  0.33688714  0.00298018  1.00086248  1
  Ni  Ni10  1  0.50423019  0.16789719  0.16814507  1
  Cr  Cr11  1  0.33637088  1.00156600  0.33659798  1
  Ni  Ni12  1  0.33530988  0.33582408  1.00209562  1
  Fe  Fe13  1  0.50279823  0.50327217  0.16862629  1
  Cr  Cr14  1  0.33613864  0.33667059  0.33486527  1
  Ni  Ni15  1  0.33630242  0.66773732  1.00145323  1
  Ni  Ni16  1  0.50398519  0.83611166  0.16846913  1
  Ni  Ni17  1  0.33724156  0.66893611  0.33610522  1
  Ni  Ni18  1  0.66872153  1.00202485  0.00227114  1
  Fe  Fe19  1  0.83524099  0.16917432  0.16906079  1
  Ni  Ni20  1  0.67030246  1.00181060  0.33584021  1
  Ni  Ni21  1  0.66809019  0.33506405  1.00196389  1
  Ni  Ni22  1  0.83678727  0.50147468  0.16989928  1
  Ni  Ni23  1  0.67039330  0.33585061  0.33622801  1
  Ni  Ni24  1  0.66829914  0.66970206  1.00205903  1
  Fe  Fe25  1  0.83388665  0.83523912  0.16899152  1
  Ni  Ni26  1  0.66878288  0.66913153  0.33591857  1
  Ni  Ni27  1  0.16686024  0.16748702  0.50313655  1
  Ni  Ni28  1  0.00518653  0.00235477  0.66848326  1
  Ni  Ni29  1  0.16913628  0.16914989  0.83629640  1
  Cr  Cr30  1  0.16740976  0.50255536  0.50225205  1
  Ni  Ni31  1  1.00186203  0.33506426  0.66970060  1
  Ni  Ni32  1  0.16784266  0.50229140  0.83626914  1
  Fe  Fe33  1  0.16742584  0.83637222  0.50314112  1
  Ni  Ni34  1  1.00160675  0.66937107  0.66989217  1
  Ni  Ni35  1  0.16939832  0.83535104  0.83473375  1
  Fe  Fe36  1  0.50406785  0.16985868  0.50286973  1
  Ni  Ni37  1  0.33362588  0.00251249  0.66909695  1
  Ni  Ni38  1  0.50159044  0.16863832  0.83588351  1
  Ni  Ni39  1  0.50467730  0.50392521  0.50219233  1
  Fe  Fe40  1  0.33567237  0.33439354  0.67002383  1
  Fe  Fe41  1  0.50268727  0.50220616  0.83548092  1
  Ni  Ni42  1  0.50257608  0.83413100  0.50125174  1
  Fe  Fe43  1  0.33625950  0.67006544  0.66967604  1
  Ni  Ni44  1  0.50138734  0.83580210  0.83707397  1
  Ni  Ni45  1  0.83686663  0.16958722  0.50055319  1
  Cr  Cr46  1  0.66900354  1.00215632  0.66884944  1
  Ni  Ni47  1  0.83606514  0.17019533  0.83676602  1
  Ni  Ni48  1  0.83401447  0.50184525  0.50199413  1
  Ni  Ni49  1  0.66878777  0.33768056  0.66859557  1
  Ni  Ni50  1  0.83651592  0.50208594  0.83489907  1
  Ni  Ni51  1  0.83526881  0.83535961  0.50033356  1
  Ni  Ni52  1  0.66894526  0.66685407  0.66880987  1
  Ni  Ni53  1  0.83600628  0.83450876  0.83723108  1
" 