7988,Ni73Fe18Cr7_3,-238.370008381369, 196.621476448778,Ni73Fe18Cr7,"# generated using pymatgen
 data_Cr5Fe10Ni39
_symmetry_space_group_name_H-M   'P 1'
_cell_length_a   7.43377816
_cell_length_b   7.43377816
_cell_length_c   10.51294990
_cell_angle_alpha   90.00000000
_cell_angle_beta   90.00000000
_cell_angle_gamma   90.00000000
_symmetry_Int_Tables_number   1
_chemical_formula_structural   Cr5Fe10Ni39
_chemical_formula_sum   'Cr5 Fe10 Ni39'
_cell_volume   580.95673141
_cell_formula_units_Z   1
loop_
 _symmetry_equiv_pos_site_id
 _symmetry_equiv_pos_as_xyz
  1  'x, y, z'
loop_
 _atom_site_type_symbol
 _atom_site_label
 _atom_site_symmetry_multiplicity
 _atom_site_fract_x
 _atom_site_fract_y
 _atom_site_fract_z
 _atom_site_occupancy
  Ni  Ni0  1  0.00277149  0.00382902  0.00380642  1
  Fe  Fe1  1  0.16939448  0.16969506  0.16792678  1
  Cr  Cr2  1  0.00395084  1.00090690  0.33496061  1
  Ni  Ni3  1  1.00187904  0.33557178  1.00140581  1
  Ni  Ni4  1  0.16894315  0.50219027  0.16894931  1
  Fe  Fe5  1  0.00271172  0.33764635  0.33500762  1
  Ni  Ni6  1  1.00167285  0.66731202  0.00385985  1
  Fe  Fe7  1  0.16904608  0.83398728  0.16852025  1
  Ni  Ni8  1  0.00232446  0.66764401  0.33565869  1
  Ni  Ni9  1  0.33595564  0.00343739  0.00289441  1
  Fe  Fe10  1  0.50247796  0.17009805  0.16825207  1
  Ni  Ni11  1  0.33494731  0.00306872  0.33637867  1
  Fe  Fe12  1  0.33508741  0.33533210  0.00226023  1
  Ni  Ni13  1  0.50175541  0.50301895  0.16872121  1
  Ni  Ni14  1  0.33652786  0.33569775  0.33540885  1
  Fe  Fe15  1  0.33649893  0.66847333  0.00312101  1
  Ni  Ni16  1  0.50195943  0.83470832  0.16822382  1
  Ni  Ni17  1  0.33522549  0.66794877  0.33602292  1
  Ni  Ni18  1  0.66798671  0.00322945  0.00232015  1
  Ni  Ni19  1  0.83574000  0.16988670  0.16659215  1
  Cr  Cr20  1  0.66768843  0.00234948  0.33592854  1
  Ni  Ni21  1  0.66925101  0.33580081  1.00202879  1
  Ni  Ni22  1  0.83601511  0.50219041  0.16959773  1
  Ni  Ni23  1  0.66764981  0.33778894  0.33559607  1
  Ni  Ni24  1  0.66886000  0.66768496  0.00312436  1
  Ni  Ni25  1  0.83491090  0.83463604  0.16681500  1
  Ni  Ni26  1  0.66916076  0.66606762  0.33561086  1
  Ni  Ni27  1  0.16878138  0.16892318  0.50211372  1
  Ni  Ni28  1  0.00299464  0.00310594  0.66765074  1
  Ni  Ni29  1  0.16831374  0.17053492  0.83653513  1
  Ni  Ni30  1  0.16877288  0.50333216  0.50126960  1
  Fe  Fe31  1  1.00118087  0.33578076  0.66981011  1
  Ni  Ni32  1  0.16773643  0.50104190  0.83649731  1
  Ni  Ni33  1  0.16984718  0.83446182  0.50276048  1
  Ni  Ni34  1  1.00190123  0.66869906  0.66719839  1
  Cr  Cr35  1  0.17061678  0.83500973  0.83547205  1
  Ni  Ni36  1  0.50239877  0.16872975  0.50131600  1
  Ni  Ni37  1  0.33505396  1.00172327  0.66743953  1
  Ni  Ni38  1  0.50316523  0.16763458  0.83680589  1
  Ni  Ni39  1  0.50218021  0.50330018  0.50122259  1
  Cr  Cr40  1  0.33642182  0.33495837  0.66973049  1
  Fe  Fe41  1  0.50377871  0.50247208  0.83589040  1
  Ni  Ni42  1  0.50130135  0.83468246  0.50331655  1
  Ni  Ni43  1  0.33608515  0.67014082  0.66835469  1
  Ni  Ni44  1  0.50206485  0.83616510  0.83517439  1
  Ni  Ni45  1  0.83553113  0.16980650  0.50447904  1
  Fe  Fe46  1  0.66786728  0.00233289  0.66827322  1
  Ni  Ni47  1  0.83523315  0.17118534  0.83563766  1
  Fe  Fe48  1  0.83495968  0.50272915  0.50234164  1
  Ni  Ni49  1  0.67011060  0.33593758  0.66908690  1
  Ni  Ni50  1  0.83626734  0.49994417  0.83560202  1
  Ni  Ni51  1  0.83556209  0.83467576  0.50377183  1
  Ni  Ni52  1  0.66872611  0.66740606  0.66797676  1
  Cr  Cr53  1  0.83359204  0.83592295  0.83611759  1
" 