2205,Ni73Fe18Cr7_11,-238.607384791394, 195.502642491578,Ni73Fe18Cr7,"# generated using pymatgen
 data_Cr5Fe10Ni39
_symmetry_space_group_name_H-M   'P 1'
_cell_length_a   7.43548545
_cell_length_b   7.43548545
_cell_length_c   10.51536437
_cell_angle_alpha   90.00000000
_cell_angle_beta   90.00000000
_cell_angle_gamma   90.00000000
_symmetry_Int_Tables_number   1
_chemical_formula_structural   Cr5Fe10Ni39
_chemical_formula_sum   'Cr5 Fe10 Ni39'
_cell_volume   581.35710291
_cell_formula_units_Z   1
loop_
 _symmetry_equiv_pos_site_id
 _symmetry_equiv_pos_as_xyz
  1  'x, y, z'
loop_
 _atom_site_type_symbol
 _atom_site_label
 _atom_site_symmetry_multiplicity
 _atom_site_fract_x
 _atom_site_fract_y
 _atom_site_fract_z
 _atom_site_occupancy
  Ni  Ni0  1  0.00327790  0.00233473  1.00174122  1
  Ni  Ni1  1  0.16752217  0.16919526  0.16812736  1
  Ni  Ni2  1  0.00260631  0.00252258  0.33507072  1
  Ni  Ni3  1  0.00276282  0.33552454  0.00290056  1
  Ni  Ni4  1  0.16858650  0.50157785  0.16921721  1
  Ni  Ni5  1  0.00228250  0.33429046  0.33515473  1
  Ni  Ni6  1  1.00148441  0.66863804  0.00228439  1
  Ni  Ni7  1  0.16873946  0.83533950  0.16869554  1
  Fe  Fe8  1  1.00178334  0.66842676  0.33430710  1
  Ni  Ni9  1  0.33323327  1.00112449  1.00087992  1
  Cr  Cr10  1  0.50027377  0.17009269  0.17085224  1
  Ni  Ni11  1  0.33224709  0.00241152  0.33542101  1
  Ni  Ni12  1  0.33305821  0.33658446  1.00100949  1
  Ni  Ni13  1  0.50194716  0.50358342  0.16816752  1
  Ni  Ni14  1  0.33410394  0.33568912  0.33689438  1
  Ni  Ni15  1  0.33568645  0.66879503  0.00281994  1
  Ni  Ni16  1  0.50099718  0.83285802  0.17034152  1
  Fe  Fe17  1  0.33475642  0.66670332  0.33395478  1
  Cr  Cr18  1  0.67099562  0.99936246  0.00330740  1
  Ni  Ni19  1  0.83884863  0.17027569  0.17005521  1
  Fe  Fe20  1  0.67160812  0.00381907  0.33571725  1
  Fe  Fe21  1  0.66996913  0.33680594  1.00161671  1
  Ni  Ni22  1  0.83586499  0.50227822  0.16908041  1
  Ni  Ni23  1  0.66996040  0.33844632  0.33627476  1
  Ni  Ni24  1  0.66921258  0.66803718  1.00162582  1
  Ni  Ni25  1  0.83665689  0.83402739  0.16978315  1
  Ni  Ni26  1  0.66966971  0.66805413  0.33441530  1
  Ni  Ni27  1  0.16763714  0.16874761  0.50172767  1
  Fe  Fe28  1  1.00142087  0.00326814  0.66901597  1
  Ni  Ni29  1  0.16791773  0.16878717  0.83636314  1
  Fe  Fe30  1  0.16668735  0.50088882  0.50084496  1
  Ni  Ni31  1  1.00078739  0.33513310  0.66826534  1
  Ni  Ni32  1  0.16590164  0.50217852  0.83685440  1
  Fe  Fe33  1  0.16733620  0.83844798  0.50144457  1
  Fe  Fe34  1  1.00056767  0.66851445  0.67004015  1
  Ni  Ni35  1  0.16810021  0.83556081  0.83565830  1
  Ni  Ni36  1  0.50243853  0.17014550  0.50172887  1
  Ni  Ni37  1  0.33457551  0.00247859  0.66975408  1
  Ni  Ni38  1  0.50217840  0.16793738  0.83391200  1
  Ni  Ni39  1  0.50334184  0.50124563  0.50122358  1
  Cr  Cr40  1  0.33427932  0.33380719  0.66861997  1
  Fe  Fe41  1  0.50371350  0.50193558  0.83686668  1
  Cr  Cr42  1  0.50373054  0.83626678  0.50046146  1
  Cr  Cr43  1  0.33550988  0.66926628  0.66966904  1
  Ni  Ni44  1  0.50216106  0.83617341  0.83544281  1
  Ni  Ni45  1  0.83622027  0.16864742  0.50214293  1
  Ni  Ni46  1  0.66967566  0.00214556  0.66807706  1
  Ni  Ni47  1  0.83636496  0.17016030  0.83438064  1
  Fe  Fe48  1  0.83410459  0.50106017  0.50214324  1
  Ni  Ni49  1  0.67113389  0.33558601  0.66879642  1
  Ni  Ni50  1  0.83662652  0.50211641  0.83486312  1
  Ni  Ni51  1  0.83731274  0.83440128  0.50242168  1
  Ni  Ni52  1  0.67077909  0.66865008  0.66988413  1
  Ni  Ni53  1  0.83597216  0.83426126  0.83429180  1
" 