4882,Ni73Fe6Cr20_13,-231.637442173639, 167.104987870727,Ni73Fe6Cr20,"# generated using pymatgen
 data_Cr4FeNi13
_symmetry_space_group_name_H-M   'P 1'
_cell_length_a   7.46985399
_cell_length_b   7.46985399
_cell_length_c   10.56396882
_cell_angle_alpha   90.00000000
_cell_angle_beta   90.00000000
_cell_angle_gamma   90.00000000
_symmetry_Int_Tables_number   1
_chemical_formula_structural   Cr4FeNi13
_chemical_formula_sum   'Cr12 Fe3 Ni39'
_cell_volume   589.45592423
_cell_formula_units_Z   3
loop_
 _symmetry_equiv_pos_site_id
 _symmetry_equiv_pos_as_xyz
  1  'x, y, z'
loop_
 _atom_site_type_symbol
 _atom_site_label
 _atom_site_symmetry_multiplicity
 _atom_site_fract_x
 _atom_site_fract_y
 _atom_site_fract_z
 _atom_site_occupancy
  Ni  Ni0  1  0.00075034  0.00047812  0.99913232  1
  Ni  Ni1  1  0.16609798  0.16796096  0.16694703  1
  Ni  Ni2  1  0.99950535  0.00278714  0.33212646  1
  Cr  Cr3  1  0.99937552  0.33303484  0.99974527  1
  Ni  Ni4  1  0.16568878  0.49923282  0.16863741  1
  Ni  Ni5  1  0.99977155  0.33372982  0.33285860  1
  Ni  Ni6  1  -0.00004851  0.66572568  0.99943879  1
  Cr  Cr7  1  0.16649791  0.83183017  0.16503616  1
  Ni  Ni8  1  0.00037909  0.66291732  0.33308148  1
  Ni  Ni9  1  0.33434603  0.00020189  0.99874710  1
  Ni  Ni10  1  0.50090243  0.16617582  0.16605481  1
  Cr  Cr11  1  0.33433224  0.00125902  0.33291416  1
  Ni  Ni12  1  0.33449658  0.33193016  0.99944365  1
  Cr  Cr13  1  0.49833726  0.49839908  0.16482408  1
  Ni  Ni14  1  0.33231312  0.33321635  0.33419329  1
  Ni  Ni15  1  0.33384668  0.66730377  0.99827069  1
  Ni  Ni16  1  0.49978623  0.83472324  0.16518596  1
  Ni  Ni17  1  0.33276108  0.66449153  0.33437610  1
  Ni  Ni18  1  0.66433890  0.00112869  0.00055961  1
  Ni  Ni19  1  0.83243608  0.16700324  0.16788486  1
  Fe  Fe20  1  0.66547589  0.00248148  0.33227672  1
  Ni  Ni21  1  0.66591775  0.33273021  0.99915710  1
  Ni  Ni22  1  0.83491822  0.49811821  0.16676039  1
  Ni  Ni23  1  0.66735195  0.33234311  0.33297069  1
  Ni  Ni24  1  0.66563887  0.66557792  0.99876717  1
  Cr  Cr25  1  0.83342029  0.83412023  0.16606781  1
  Cr  Cr26  1  0.66578013  0.66542577  0.33463802  1
  Ni  Ni27  1  0.16766096  0.16849097  0.50051418  1
  Ni  Ni28  1  0.00202113  0.00104420  0.66817820  1
  Ni  Ni29  1  0.16728554  0.16532005  0.83197510  1
  Fe  Fe30  1  0.16760117  0.49838359  0.49938307  1
  Fe  Fe31  1  0.00255661  0.33341476  0.66733119  1
  Ni  Ni32  1  0.16765746  0.50120474  0.83160444  1
  Cr  Cr33  1  0.16651427  0.83250392  0.50083221  1
  Ni  Ni34  1  0.00190088  0.66486517  0.66691581  1
  Ni  Ni35  1  0.16759616  0.83291130  0.83317406  1
  Ni  Ni36  1  0.49793837  0.16739690  0.49958901  1
  Ni  Ni37  1  0.33324372  0.00090084  0.66726317  1
  Ni  Ni38  1  0.49907766  0.16621681  0.83379247  1
  Ni  Ni39  1  0.49756329  0.49900232  0.49877909  1
  Ni  Ni40  1  0.33174259  0.33222310  0.66579725  1
  Ni  Ni41  1  0.49801618  0.49962035  0.83494471  1
  Ni  Ni42  1  0.49870401  0.83303985  0.50053836  1
  Ni  Ni43  1  0.33205998  0.66631089  0.66678754  1
  Ni  Ni44  1  0.49718015  0.83359994  0.83371071  1
  Cr  Cr45  1  0.83384713  0.16653370  0.49907608  1
  Ni  Ni46  1  0.66416819  0.00072401  0.66617874  1
  Ni  Ni47  1  0.83307551  0.16615696  0.83298778  1
  Ni  Ni48  1  0.83463015  0.49946671  0.49853879  1
  Cr  Cr49  1  0.66581572  0.33306274  0.66795265  1
  Ni  Ni50  1  0.83376687  0.49931016  0.83414094  1
  Cr  Cr51  1  0.83394701  0.83348781  0.49972480  1
  Cr  Cr52  1  0.66524859  0.66606206  0.66640696  1
  Cr  Cr53  1  0.83461921  0.83427578  0.83364322  1
" 