8923,Ni73Fe6Cr20_5,-231.765406687436, 165.400000935566,Ni73Fe6Cr20,"# generated using pymatgen
 data_Cr4FeNi13
_symmetry_space_group_name_H-M   'P 1'
_cell_length_a   7.46791345
_cell_length_b   7.46791345
_cell_length_c   10.56122448
_cell_angle_alpha   90.00000000
_cell_angle_beta   90.00000000
_cell_angle_gamma   90.00000000
_symmetry_Int_Tables_number   1
_chemical_formula_structural   Cr4FeNi13
_chemical_formula_sum   'Cr12 Fe3 Ni39'
_cell_volume   588.99665084
_cell_formula_units_Z   3
loop_
 _symmetry_equiv_pos_site_id
 _symmetry_equiv_pos_as_xyz
  1  'x, y, z'
loop_
 _atom_site_type_symbol
 _atom_site_label
 _atom_site_symmetry_multiplicity
 _atom_site_fract_x
 _atom_site_fract_y
 _atom_site_fract_z
 _atom_site_occupancy
  Cr  Cr0  1  0.99674204  0.00144423  0.00007205  1
  Cr  Cr1  1  0.16766837  0.16868659  0.16644687  1
  Ni  Ni2  1  0.99954893  0.99904016  0.33265849  1
  Ni  Ni3  1  0.99875912  0.33502057  0.99902933  1
  Ni  Ni4  1  0.16765395  0.49999421  0.16567807  1
  Ni  Ni5  1  0.99967255  0.33332594  0.33063181  1
  Fe  Fe6  1  0.99761475  0.66443262  0.00128224  1
  Fe  Fe7  1  0.16606696  0.83060577  0.16642416  1
  Ni  Ni8  1  0.00011452  0.66697368  0.32883229  1
  Ni  Ni9  1  0.33651702  0.99932531  0.00021727  1
  Fe  Fe10  1  0.50287328  0.16863792  0.16495905  1
  Cr  Cr11  1  0.33548288  0.99802967  0.33350817  1
  Ni  Ni12  1  0.33328876  0.33407069  0.99940187  1
  Ni  Ni13  1  0.49944799  0.50148856  0.16726035  1
  Ni  Ni14  1  0.33501138  0.33497124  0.33390477  1
  Ni  Ni15  1  0.33466836  0.66642485  0.00288004  1
  Ni  Ni16  1  0.50148767  0.83173078  0.16475540  1
  Ni  Ni17  1  0.33447774  0.66579463  0.33234447  1
  Ni  Ni18  1  0.66524557  0.99938950  0.00036097  1
  Ni  Ni19  1  0.83221682  0.16654121  0.16814730  1
  Ni  Ni20  1  0.66678968  0.99971061  0.33053561  1
  Ni  Ni21  1  0.66842166  0.33350049  0.00140094  1
  Ni  Ni22  1  0.83265290  0.49995383  0.16665786  1
  Ni  Ni23  1  0.66533739  0.33413847  0.33039663  1
  Ni  Ni24  1  0.66647310  0.66719967  0.00064597  1
  Ni  Ni25  1  0.82973818  0.83301820  0.16789516  1
  Ni  Ni26  1  0.66468878  0.66657217  0.33196028  1
  Ni  Ni27  1  0.16788662  0.16588498  0.49911992  1
  Ni  Ni28  1  0.99953999  0.99911543  0.66715392  1
  Ni  Ni29  1  0.16782871  0.16813153  0.83404130  1
  Cr  Cr30  1  0.16668277  0.49944284  0.49813494  1
  Cr  Cr31  1  0.99973444  0.33269510  0.67047943  1
  Ni  Ni32  1  0.16576506  0.49777924  0.83647665  1
  Ni  Ni33  1  0.16552436  0.83379629  0.49713837  1
  Ni  Ni34  1  0.99852803  0.66797714  0.67030965  1
  Cr  Cr35  1  0.16780550  0.83184960  0.83633974  1
  Ni  Ni36  1  0.50048933  0.16827997  0.49875737  1
  Cr  Cr37  1  0.33440058  0.00153280  0.66554900  1
  Ni  Ni38  1  0.50083695  0.16619915  0.83621231  1
  Ni  Ni39  1  0.50008821  0.49889941  0.49848687  1
  Ni  Ni40  1  0.33523826  0.33159256  0.66661356  1
  Cr  Cr41  1  0.49970898  0.50023978  0.83380029  1
  Ni  Ni42  1  0.50188882  0.83271148  0.49920171  1
  Cr  Cr43  1  0.33458236  0.66616955  0.66387088  1
  Ni  Ni44  1  0.50357190  0.83471255  0.83533426  1
  Cr  Cr45  1  0.83262677  0.16541596  0.49738033  1
  Ni  Ni46  1  0.66617652  0.00034451  0.66902355  1
  Ni  Ni47  1  0.83116992  0.16611909  0.83359841  1
  Cr  Cr48  1  0.82983110  0.50103818  0.49853612  1
  Ni  Ni49  1  0.66454424  0.33266435  0.66765876  1
  Ni  Ni50  1  0.83290136  0.50093902  0.83494645  1
  Cr  Cr51  1  0.83321862  0.83318202  0.50072687  1
  Ni  Ni52  1  0.66728690  0.66695584  0.66748977  1
  Ni  Ni53  1  0.83035296  0.83317967  0.83220174  1
" 