6768,Ni73Fe18Cr7_1,-238.588545619782, 199.115337519335,Ni73Fe18Cr7,"# generated using pymatgen
 data_Cr5Fe10Ni39
_symmetry_space_group_name_H-M   'P 1'
_cell_length_a   7.43240393
_cell_length_b   7.43240393
_cell_length_c   10.51100643
_cell_angle_alpha   90.00000000
_cell_angle_beta   90.00000000
_cell_angle_gamma   90.00000000
_symmetry_Int_Tables_number   1
_chemical_formula_structural   Cr5Fe10Ni39
_chemical_formula_sum   'Cr5 Fe10 Ni39'
_cell_volume   580.63459766
_cell_formula_units_Z   1
loop_
 _symmetry_equiv_pos_site_id
 _symmetry_equiv_pos_as_xyz
  1  'x, y, z'
loop_
 _atom_site_type_symbol
 _atom_site_label
 _atom_site_symmetry_multiplicity
 _atom_site_fract_x
 _atom_site_fract_y
 _atom_site_fract_z
 _atom_site_occupancy
  Ni  Ni0  1  1.00144197  0.00400996  0.00367008  1
  Ni  Ni1  1  0.16843632  0.16980655  0.16750656  1
  Ni  Ni2  1  1.00099680  0.00245217  0.33541460  1
  Ni  Ni3  1  1.00215070  0.33512682  1.00183860  1
  Ni  Ni4  1  0.16981048  0.50283035  0.16896135  1
  Ni  Ni5  1  1.00210074  0.33555128  0.33470230  1
  Fe  Fe6  1  1.00165848  0.66827481  0.00296697  1
  Ni  Ni7  1  0.16767572  0.83435550  0.16815593  1
  Fe  Fe8  1  1.00201294  0.67009191  0.33528079  1
  Ni  Ni9  1  0.33606110  0.00272239  0.00351716  1
  Ni  Ni10  1  0.50345290  0.17054169  0.16815835  1
  Cr  Cr11  1  0.33506263  1.00205159  0.33584467  1
  Ni  Ni12  1  0.33518854  0.33624624  1.00226343  1
  Ni  Ni13  1  0.50136980  0.50138280  0.16871542  1
  Ni  Ni14  1  0.33588605  0.33740589  0.33556496  1
  Ni  Ni15  1  0.33702702  0.66802217  0.00340908  1
  Fe  Fe16  1  0.50298796  0.83483286  0.16776152  1
  Ni  Ni17  1  0.33670189  0.66733667  0.33520645  1
  Ni  Ni18  1  0.66948977  1.00217129  1.00181106  1
  Ni  Ni19  1  0.83510121  0.16840651  0.16885772  1
  Ni  Ni20  1  0.67065289  1.00163757  0.33541254  1
  Ni  Ni21  1  0.66965215  0.33609013  0.00338110  1
  Ni  Ni22  1  0.83580998  0.50214535  0.16867387  1
  Fe  Fe23  1  0.66785266  0.33598972  0.33459006  1
  Ni  Ni24  1  0.66836898  0.66873253  1.00184606  1
  Ni  Ni25  1  0.83654853  0.83644257  0.16875693  1
  Fe  Fe26  1  0.66916911  0.66880928  0.33606451  1
  Ni  Ni27  1  0.17018013  0.16809633  0.50423761  1
  Ni  Ni28  1  0.00290246  1.00201613  0.66791090  1
  Fe  Fe29  1  0.16887056  0.16954357  0.83598410  1
  Cr  Cr30  1  0.16948428  0.50285762  0.50194974  1
  Fe  Fe31  1  0.00368162  0.33582863  0.67041455  1
  Ni  Ni32  1  0.16926372  0.50122236  0.83579144  1
  Ni  Ni33  1  0.16834046  0.83608382  0.50351738  1
  Ni  Ni34  1  1.00090059  0.66926681  0.66833714  1
  Cr  Cr35  1  0.16909583  0.83424443  0.83568457  1
  Ni  Ni36  1  0.50089488  0.16882704  0.50255268  1
  Ni  Ni37  1  0.33572585  0.00254619  0.66721226  1
  Ni  Ni38  1  0.50298528  0.16806867  0.83628116  1
  Ni  Ni39  1  0.50245629  0.50314432  0.50204791  1
  Fe  Fe40  1  0.33521810  0.33466631  0.66935849  1
  Fe  Fe41  1  0.50184287  0.50371920  0.83680662  1
  Ni  Ni42  1  0.50306622  0.83501978  0.50377516  1
  Ni  Ni43  1  0.33698062  0.66948001  0.66838069  1
  Ni  Ni44  1  0.50436247  0.83633693  0.83573956  1
  Cr  Cr45  1  0.83584027  0.16734488  0.50090953  1
  Ni  Ni46  1  0.66836452  0.99988387  0.66976791  1
  Ni  Ni47  1  0.83499356  0.16779839  0.83687682  1
  Ni  Ni48  1  0.83484752  0.50498590  0.50207021  1
  Cr  Cr49  1  0.66864940  0.33684633  0.66917181  1
  Fe  Fe50  1  0.83590673  0.50329275  0.83637941  1
  Ni  Ni51  1  0.83558624  0.83452632  0.50322137  1
  Ni  Ni52  1  0.66910980  0.67015118  0.66813395  1
  Ni  Ni53  1  0.83363392  0.83658713  0.83500650  1
" 