7562,Ni73Fe18Cr7_16,-238.552551442024, 199.306714654039,Ni73Fe18Cr7,"# generated using pymatgen
 data_Cr5Fe10Ni39
_symmetry_space_group_name_H-M   'P 1'
_cell_length_a   7.43625650
_cell_length_b   7.43625650
_cell_length_c   10.51645479
_cell_angle_alpha   90.00000000
_cell_angle_beta   90.00000000
_cell_angle_gamma   90.00000000
_symmetry_Int_Tables_number   1
_chemical_formula_structural   Cr5Fe10Ni39
_chemical_formula_sum   'Cr5 Fe10 Ni39'
_cell_volume   581.53797737
_cell_formula_units_Z   1
loop_
 _symmetry_equiv_pos_site_id
 _symmetry_equiv_pos_as_xyz
  1  'x, y, z'
loop_
 _atom_site_type_symbol
 _atom_site_label
 _atom_site_symmetry_multiplicity
 _atom_site_fract_x
 _atom_site_fract_y
 _atom_site_fract_z
 _atom_site_occupancy
  Ni  Ni0  1  1.00151074  1.00104778  0.99986115  1
  Cr  Cr1  1  0.16885868  0.16724809  0.16898425  1
  Ni  Ni2  1  0.99962928  1.00079139  0.33657250  1
  Ni  Ni3  1  0.00424187  0.33679926  1.00083059  1
  Fe  Fe4  1  0.17013112  0.50239073  0.16955907  1
  Ni  Ni5  1  0.00295053  0.33721735  0.33667084  1
  Cr  Cr6  1  0.99991686  0.66881234  0.00254554  1
  Ni  Ni7  1  0.16979397  0.83531795  0.16923860  1
  Fe  Fe8  1  1.00052899  0.66751261  0.33493549  1
  Ni  Ni9  1  0.33743619  0.00291697  1.00202202  1
  Ni  Ni10  1  0.50198138  0.16928427  0.16925759  1
  Fe  Fe11  1  0.33717045  0.00392057  0.33560357  1
  Ni  Ni12  1  0.33578775  0.33579606  1.00164877  1
  Ni  Ni13  1  0.50301766  0.50244833  0.16842251  1
  Ni  Ni14  1  0.33614104  0.33715411  0.33665195  1
  Fe  Fe15  1  0.33634589  0.66982209  1.00128388  1
  Ni  Ni16  1  0.50117854  0.83454379  0.16888458  1
  Fe  Fe17  1  0.33679736  0.66782397  0.33554620  1
  Ni  Ni18  1  0.66735309  0.99886555  0.00211816  1
  Cr  Cr19  1  0.83436057  0.16986960  0.16704758  1
  Ni  Ni20  1  0.66806251  1.00009360  0.33551785  1
  Fe  Fe21  1  0.66802149  0.33582274  1.00169242  1
  Ni  Ni22  1  0.83370584  0.50210312  0.16958647  1
  Ni  Ni23  1  0.66725307  0.33536427  0.33614409  1
  Ni  Ni24  1  0.66820789  0.67036312  0.00256667  1
  Ni  Ni25  1  0.83522845  0.83460696  0.17042253  1
  Fe  Fe26  1  0.66895786  0.66757842  0.33516612  1
  Ni  Ni27  1  0.16704419  0.16853813  0.50113653  1
  Fe  Fe28  1  1.00171496  0.00265217  0.66977318  1
  Ni  Ni29  1  0.16772992  0.16733805  0.83583240  1
  Ni  Ni30  1  0.16771331  0.50248355  0.50063798  1
  Ni  Ni31  1  1.00204748  0.33659423  0.66831270  1
  Ni  Ni32  1  0.16865451  0.50261515  0.83573838  1
  Cr  Cr33  1  0.17001553  0.83538488  0.50367505  1
  Ni  Ni34  1  1.00058529  0.66626636  0.66893532  1
  Ni  Ni35  1  0.17011235  0.83650160  0.83455778  1
  Ni  Ni36  1  0.50354986  0.16771286  0.50027240  1
  Ni  Ni37  1  0.33852782  0.00244497  0.66884687  1
  Ni  Ni38  1  0.50321946  0.16789819  0.83676262  1
  Ni  Ni39  1  0.50359215  0.50380610  0.50186356  1
  Cr  Cr40  1  0.33407071  0.33461583  0.66758272  1
  Ni  Ni41  1  0.50378420  0.50361682  0.83604334  1
  Ni  Ni42  1  0.50238134  0.83470042  0.50190275  1
  Ni  Ni43  1  0.33632516  0.66853975  0.67031537  1
  Ni  Ni44  1  0.50161546  0.83491488  0.83544785  1
  Ni  Ni45  1  0.83567856  0.16995038  0.50203416  1
  Ni  Ni46  1  0.66790872  1.00098878  0.66849003  1
  Ni  Ni47  1  0.83560368  0.16940009  0.83582834  1
  Ni  Ni48  1  0.83493144  0.50089656  0.50200942  1
  Fe  Fe49  1  0.66912997  0.33549718  0.66810784  1
  Ni  Ni50  1  0.83398661  0.50097271  0.83460859  1
  Fe  Fe51  1  0.83347199  0.83547908  0.50230549  1
  Ni  Ni52  1  0.66925005  0.67066211  0.66797027  1
  Ni  Ni53  1  0.83458442  0.83581237  0.83402627  1
" 