7405,Ni73Fe18Cr7_9,-238.398272911586, 195.488657201122,Ni73Fe18Cr7,"# generated using pymatgen
 data_Cr5Fe10Ni39
_symmetry_space_group_name_H-M   'P 1'
_cell_length_a   7.43687508
_cell_length_b   7.43687508
_cell_length_c   10.51732960
_cell_angle_alpha   90.00000000
_cell_angle_beta   90.00000000
_cell_angle_gamma   90.00000000
_symmetry_Int_Tables_number   1
_chemical_formula_structural   Cr5Fe10Ni39
_chemical_formula_sum   'Cr5 Fe10 Ni39'
_cell_volume   581.68311599
_cell_formula_units_Z   1
loop_
 _symmetry_equiv_pos_site_id
 _symmetry_equiv_pos_as_xyz
  1  'x, y, z'
loop_
 _atom_site_type_symbol
 _atom_site_label
 _atom_site_symmetry_multiplicity
 _atom_site_fract_x
 _atom_site_fract_y
 _atom_site_fract_z
 _atom_site_occupancy
  Ni  Ni0  1  1.00182546  1.00175136  0.00277666  1
  Ni  Ni1  1  0.16810879  0.17058175  0.16784952  1
  Fe  Fe2  1  1.00180731  0.00418960  0.33440404  1
  Fe  Fe3  1  1.00197019  0.33305405  1.00113008  1
  Ni  Ni4  1  0.17021605  0.49987632  0.16910451  1
  Fe  Fe5  1  0.00269628  0.33492837  0.33632848  1
  Cr  Cr6  1  0.00253436  0.67007554  1.00065168  1
  Ni  Ni7  1  0.16888348  0.83566207  0.16815442  1
  Cr  Cr8  1  0.00347911  0.66907826  0.33592138  1
  Fe  Fe9  1  0.33577180  0.00291920  1.00188817  1
  Ni  Ni10  1  0.50268278  0.16946881  0.16795629  1
  Cr  Cr11  1  0.33490779  0.00215711  0.33601620  1
  Ni  Ni12  1  0.33654781  0.33516351  0.00231911  1
  Fe  Fe13  1  0.50087447  0.50195553  0.16924232  1
  Ni  Ni14  1  0.33637734  0.33646468  0.33567613  1
  Fe  Fe15  1  0.33692643  0.66895364  0.00226993  1
  Ni  Ni16  1  0.50405823  0.83461692  0.16819890  1
  Ni  Ni17  1  0.33609379  0.66746019  0.33467637  1
  Ni  Ni18  1  0.66910057  0.00293746  0.00275115  1
  Fe  Fe19  1  0.83541930  0.16750447  0.16820720  1
  Fe  Fe20  1  0.66791526  0.00253517  0.33445963  1
  Ni  Ni21  1  0.66700144  0.33431339  1.00195607  1
  Fe  Fe22  1  0.83375971  0.50100172  0.16900788  1
  Ni  Ni23  1  0.66815498  0.33539920  0.33543734  1
  Fe  Fe24  1  0.66746066  0.66925073  1.00158305  1
  Ni  Ni25  1  0.83316536  0.83673400  0.16884743  1
  Ni  Ni26  1  0.66714009  0.66712912  0.33379054  1
  Ni  Ni27  1  0.16816321  0.17025581  0.50274901  1
  Ni  Ni28  1  0.00302757  0.00205472  0.66930821  1
  Ni  Ni29  1  0.16865643  0.16913885  0.83557480  1
  Ni  Ni30  1  0.16900479  0.49994910  0.50177353  1
  Ni  Ni31  1  1.00161832  0.33569559  0.66894123  1
  Ni  Ni32  1  0.16845810  0.49995935  0.83517047  1
  Ni  Ni33  1  0.16954875  0.83592282  0.50239306  1
  Ni  Ni34  1  1.00117015  0.66832891  0.66949793  1
  Ni  Ni35  1  0.16810481  0.83696935  0.83553215  1
  Ni  Ni36  1  0.50262574  0.16999481  0.50322985  1
  Ni  Ni37  1  0.33507624  0.00380443  0.66935802  1
  Ni  Ni38  1  0.50211076  0.16890463  0.83496922  1
  Ni  Ni39  1  0.50270735  0.50113118  0.50001928  1
  Ni  Ni40  1  0.33569878  0.33314453  0.66809543  1
  Ni  Ni41  1  0.50312126  0.50103550  0.83682135  1
  Ni  Ni42  1  0.50236943  0.83495427  0.50145142  1
  Cr  Cr43  1  0.33443871  0.66876268  0.66771927  1
  Ni  Ni44  1  0.50377456  0.83618248  0.83640112  1
  Ni  Ni45  1  0.83529495  0.17054592  0.50108320  1
  Ni  Ni46  1  0.66798914  0.00337204  0.66901954  1
  Ni  Ni47  1  0.83532152  0.16850387  0.83585684  1
  Ni  Ni48  1  0.83438368  0.49975669  0.50299597  1
  Ni  Ni49  1  0.66877406  0.33502028  0.66864563  1
  Ni  Ni50  1  0.83449935  0.50159180  0.83414395  1
  Cr  Cr51  1  0.83393955  0.83574536  0.50389118  1
  Ni  Ni52  1  0.67052177  0.66769981  0.67004101  1
  Ni  Ni53  1  0.83426523  0.83595612  0.83425595  1
" 