6188,Ni73Fe18Cr8_11,-237.481751729114, 194.076996578472,Ni73Fe18Cr8,"# generated using pymatgen
 data_Cr2Fe3Ni13
_symmetry_space_group_name_H-M   'P 1'
_cell_length_a   7.43876208
_cell_length_b   7.43876208
_cell_length_c   10.51999822
_cell_angle_alpha   90.00000000
_cell_angle_beta   90.00000000
_cell_angle_gamma   90.00000000
_symmetry_Int_Tables_number   1
_chemical_formula_structural   Cr2Fe3Ni13
_chemical_formula_sum   'Cr6 Fe9 Ni39'
_cell_volume   582.12600885
_cell_formula_units_Z   3
loop_
 _symmetry_equiv_pos_site_id
 _symmetry_equiv_pos_as_xyz
  1  'x, y, z'
loop_
 _atom_site_type_symbol
 _atom_site_label
 _atom_site_symmetry_multiplicity
 _atom_site_fract_x
 _atom_site_fract_y
 _atom_site_fract_z
 _atom_site_occupancy
  Ni  Ni0  1  0.00235128  1.00059227  0.00253234  1
  Ni  Ni1  1  0.16730438  0.16789835  0.16927031  1
  Ni  Ni2  1  0.00236840  1.00097592  0.33473120  1
  Ni  Ni3  1  0.00319812  0.33514704  1.00064222  1
  Ni  Ni4  1  0.16964171  0.50230501  0.16938088  1
  Ni  Ni5  1  0.00320750  0.33539611  0.33645758  1
  Ni  Ni6  1  0.00192258  0.66996249  1.00070560  1
  Ni  Ni7  1  0.16887270  0.83550298  0.16831053  1
  Ni  Ni8  1  0.00276840  0.66933260  0.33639355  1
  Ni  Ni9  1  0.33506046  1.00073327  0.00195350  1
  Ni  Ni10  1  0.50231630  0.16698277  0.17055407  1
  Ni  Ni11  1  0.33572262  0.00300504  0.33551011  1
  Cr  Cr12  1  0.33437608  0.33463408  0.00221627  1
  Ni  Ni13  1  0.50013637  0.50337925  0.17005910  1
  Ni  Ni14  1  0.33536852  0.33385332  0.33431264  1
  Fe  Fe15  1  0.33498386  0.67068114  1.00129391  1
  Ni  Ni16  1  0.50181989  0.83534746  0.16821222  1
  Fe  Fe17  1  0.33376706  0.66937642  0.33488554  1
  Ni  Ni18  1  0.66829190  0.99946476  1.00148658  1
  Ni  Ni19  1  0.83608291  0.16621367  0.16916971  1
  Ni  Ni20  1  0.66761329  0.00256437  0.33555058  1
  Cr  Cr21  1  0.66858209  0.33538120  1.00180366  1
  Cr  Cr22  1  0.83610231  0.50134116  0.16896069  1
  Ni  Ni23  1  0.66712721  0.33345407  0.33496403  1
  Ni  Ni24  1  0.66872028  0.67109100  1.00120114  1
  Ni  Ni25  1  0.83500986  0.83768050  0.16820697  1
  Fe  Fe26  1  0.66852414  0.67044382  0.33463684  1
  Ni  Ni27  1  0.16578434  0.16843293  0.50045138  1
  Ni  Ni28  1  1.00088954  1.00048303  0.66844045  1
  Fe  Fe29  1  0.16553038  0.16736520  0.83650931  1
  Ni  Ni30  1  0.16634091  0.50297940  0.50128723  1
  Fe  Fe31  1  1.00014204  0.33603059  0.66863984  1
  Ni  Ni32  1  0.16738328  0.50378346  0.83503797  1
  Ni  Ni33  1  0.16818496  0.83429208  0.50150309  1
  Ni  Ni34  1  1.00129053  0.66930446  0.66860135  1
  Ni  Ni35  1  0.16845104  0.83390003  0.83589087  1
  Ni  Ni36  1  0.50451350  0.16686589  0.50050209  1
  Cr  Cr37  1  0.33444925  1.00093933  0.66810197  1
  Fe  Fe38  1  0.50399181  0.16705500  0.83541643  1
  Cr  Cr39  1  0.50192846  0.50299599  0.50085771  1
  Cr  Cr40  1  0.33573807  0.33535149  0.66939560  1
  Ni  Ni41  1  0.50254812  0.50485289  0.83431113  1
  Ni  Ni42  1  0.50201076  0.83596698  0.50154948  1
  Ni  Ni43  1  0.33438770  0.66911018  0.66977815  1
  Ni  Ni44  1  0.50228093  0.83363162  0.83594109  1
  Ni  Ni45  1  0.83540660  0.16870674  0.50193153  1
  Fe  Fe46  1  0.67025413  1.00119082  0.66851397  1
  Ni  Ni47  1  0.83603944  0.16828736  0.83460398  1
  Fe  Fe48  1  0.83705560  0.50136159  0.50227599  1
  Ni  Ni49  1  0.66994434  0.33562355  0.66959973  1
  Ni  Ni50  1  0.83577163  0.50134295  0.83366275  1
  Fe  Fe51  1  0.83611006  0.83600052  0.50189842  1
  Ni  Ni52  1  0.67002655  0.66799948  0.66943433  1
  Ni  Ni53  1  0.83497199  0.83607251  0.83512853  1
" 