7627,Ni73Fe18Cr7_19,-238.298122817643, 196.159116644294,Ni73Fe18Cr7,"# generated using pymatgen
 data_Cr5Fe10Ni39
_symmetry_space_group_name_H-M   'P 1'
_cell_length_a   7.43267347
_cell_length_b   7.43267347
_cell_length_c   10.51138763
_cell_angle_alpha   90.00000000
_cell_angle_beta   90.00000000
_cell_angle_gamma   90.00000000
_symmetry_Int_Tables_number   1
_chemical_formula_structural   Cr5Fe10Ni39
_chemical_formula_sum   'Cr5 Fe10 Ni39'
_cell_volume   580.69777203
_cell_formula_units_Z   1
loop_
 _symmetry_equiv_pos_site_id
 _symmetry_equiv_pos_as_xyz
  1  'x, y, z'
loop_
 _atom_site_type_symbol
 _atom_site_label
 _atom_site_symmetry_multiplicity
 _atom_site_fract_x
 _atom_site_fract_y
 _atom_site_fract_z
 _atom_site_occupancy
  Fe  Fe0  1  1.00142883  1.00156880  0.00298154  1
  Ni  Ni1  1  0.16887046  0.16911323  0.16934016  1
  Ni  Ni2  1  1.00194387  0.00371556  0.33623830  1
  Ni  Ni3  1  0.00289343  0.33489411  0.00356877  1
  Ni  Ni4  1  0.16845656  0.50220119  0.16806661  1
  Ni  Ni5  1  0.00328338  0.33449935  0.33447699  1
  Ni  Ni6  1  0.00342331  0.66835142  0.00318612  1
  Ni  Ni7  1  0.16762690  0.83570264  0.16924221  1
  Fe  Fe8  1  0.00345931  0.67013670  0.33439168  1
  Ni  Ni9  1  0.33488852  0.00251428  1.00198340  1
  Ni  Ni10  1  0.50252371  0.16964258  0.16847826  1
  Ni  Ni11  1  0.33444642  0.00304588  0.33652687  1
  Fe  Fe12  1  0.33578237  0.33558972  1.00159579  1
  Cr  Cr13  1  0.50213462  0.50138233  0.16999533  1
  Ni  Ni14  1  0.33322673  0.33494716  0.33643403  1
  Ni  Ni15  1  0.33338703  0.67023752  0.99938335  1
  Cr  Cr16  1  0.50156738  0.83752079  0.16916363  1
  Ni  Ni17  1  0.33381426  0.66897733  0.33837276  1
  Ni  Ni18  1  0.66933764  0.00312136  1.00110861  1
  Ni  Ni19  1  0.83563607  0.16871827  0.16925609  1
  Ni  Ni20  1  0.67049157  0.00288705  0.33669915  1
  Ni  Ni21  1  0.67143759  0.33330347  1.00142468  1
  Fe  Fe22  1  0.83709144  0.50170452  0.16870331  1
  Ni  Ni23  1  0.67039524  0.33343165  0.33637433  1
  Ni  Ni24  1  0.67019433  0.67020914  1.00142170  1
  Ni  Ni25  1  0.83701274  0.83630235  0.16858678  1
  Ni  Ni26  1  0.66995022  0.67056448  0.33611431  1
  Ni  Ni27  1  0.16825067  0.17062131  0.50071313  1
  Fe  Fe28  1  0.00242266  1.00203910  0.66810686  1
  Ni  Ni29  1  0.16726962  0.16946129  0.83711809  1
  Ni  Ni30  1  0.17012912  0.50187708  0.50345847  1
  Ni  Ni31  1  0.00423715  0.33365792  0.66869580  1
  Fe  Fe32  1  0.16900517  0.50267702  0.83572940  1
  Ni  Ni33  1  0.16875104  0.83450476  0.50082253  1
  Fe  Fe34  1  0.00435203  0.67129421  0.66941215  1
  Ni  Ni35  1  0.16877225  0.83628602  0.83679977  1
  Ni  Ni36  1  0.50269999  0.16972739  0.50125600  1
  Cr  Cr37  1  0.33696416  1.00134690  0.66760551  1
  Fe  Fe38  1  0.50323817  0.16793750  0.83632220  1
  Fe  Fe39  1  0.50046413  0.50244055  0.50252128  1
  Ni  Ni40  1  0.33251456  0.33719818  0.66980779  1
  Ni  Ni41  1  0.50098188  0.50286377  0.83471899  1
  Ni  Ni42  1  0.50321209  0.83486367  0.50094566  1
  Ni  Ni43  1  0.33628534  0.66790210  0.66920131  1
  Ni  Ni44  1  0.50275242  0.83304727  0.83715301  1
  Ni  Ni45  1  0.83573441  0.16799636  0.50333610  1
  Ni  Ni46  1  0.67080344  1.00072191  0.66895838  1
  Ni  Ni47  1  0.83738626  0.16780119  0.83450371  1
  Cr  Cr48  1  0.83617243  0.50176803  0.50160907  1
  Fe  Fe49  1  0.66571816  0.33376495  0.66913072  1
  Cr  Cr50  1  0.83440616  0.50201253  0.83597593  1
  Ni  Ni51  1  0.83504413  0.83689386  0.50298432  1
  Ni  Ni52  1  0.66694446  0.67254892  0.66936646  1
  Ni  Ni53  1  0.83565204  0.83733117  0.83550045  1
" 