5264,Ni73Fe6Cr20_0,-231.661947852225, 165.046898112099,Ni73Fe6Cr20,"# generated using pymatgen
 data_Cr4FeNi13
_symmetry_space_group_name_H-M   'P 1'
_cell_length_a   7.47101632
_cell_length_b   7.47101632
_cell_length_c   10.56561260
_cell_angle_alpha   90.00000000
_cell_angle_beta   90.00000000
_cell_angle_gamma   90.00000000
_symmetry_Int_Tables_number   1
_chemical_formula_structural   Cr4FeNi13
_chemical_formula_sum   'Cr12 Fe3 Ni39'
_cell_volume   589.73112920
_cell_formula_units_Z   3
loop_
 _symmetry_equiv_pos_site_id
 _symmetry_equiv_pos_as_xyz
  1  'x, y, z'
loop_
 _atom_site_type_symbol
 _atom_site_label
 _atom_site_symmetry_multiplicity
 _atom_site_fract_x
 _atom_site_fract_y
 _atom_site_fract_z
 _atom_site_occupancy
  Ni  Ni0  1  0.00206880  0.00394724  0.00052963  1
  Ni  Ni1  1  0.16534186  0.16713504  0.16633826  1
  Ni  Ni2  1  0.00111449  -0.00016696  0.33299207  1
  Ni  Ni3  1  0.99954693  0.33103275  0.99908018  1
  Ni  Ni4  1  0.16709783  0.49841450  0.16626543  1
  Ni  Ni5  1  0.99934919  0.33245948  0.33141481  1
  Cr  Cr6  1  0.00123361  0.66448760  0.00114867  1
  Ni  Ni7  1  0.16698866  0.83365405  0.16660488  1
  Ni  Ni8  1  0.99952339  0.66690981  0.33375182  1
  Ni  Ni9  1  0.33238051  -0.00001163  0.00032474  1
  Ni  Ni10  1  0.49984239  0.16819936  0.16788012  1
  Ni  Ni11  1  0.33292903  0.00164816  0.33354555  1
  Ni  Ni12  1  0.33312971  0.33322078  0.99943292  1
  Ni  Ni13  1  0.49897721  0.49824062  0.16444536  1
  Ni  Ni14  1  0.33399262  0.32994238  0.33271996  1
  Ni  Ni15  1  0.33584223  0.66599413  0.00047571  1
  Ni  Ni16  1  0.49802067  0.83276220  0.16498150  1
  Cr  Cr17  1  0.33201170  0.66749168  0.33143279  1
  Cr  Cr18  1  0.66476709  0.00132614  0.99908602  1
  Ni  Ni19  1  0.83401935  0.16809174  0.16685044  1
  Ni  Ni20  1  0.66515900  0.00182404  0.33348232  1
  Ni  Ni21  1  0.66652660  0.33449468  -0.00012828  1
  Fe  Fe22  1  0.83306302  0.49623642  0.16646006  1
  Ni  Ni23  1  0.66586102  0.33152975  0.33210232  1
  Ni  Ni24  1  0.66256639  0.66347321  0.99905825  1
  Cr  Cr25  1  0.83394201  0.83511929  0.16725714  1
  Cr  Cr26  1  0.66681003  0.66572551  0.33417449  1
  Ni  Ni27  1  0.16822988  0.16598868  0.49938243  1
  Cr  Cr28  1  0.00225200  0.00072794  0.66614478  1
  Ni  Ni29  1  0.16593601  0.16998756  0.83348335  1
  Cr  Cr30  1  0.16671747  0.49874870  0.50100994  1
  Ni  Ni31  1  0.00180366  0.33508645  0.66870850  1
  Ni  Ni32  1  0.16768655  0.49674711  0.83189941  1
  Ni  Ni33  1  0.16516870  0.83380392  0.49959318  1
  Ni  Ni34  1  0.99909619  0.66405242  0.66477119  1
  Cr  Cr35  1  0.16876261  0.83254365  0.83324936  1
  Ni  Ni36  1  0.49738981  0.16673797  0.49790066  1
  Ni  Ni37  1  0.33375861  0.00006267  0.66533381  1
  Ni  Ni38  1  0.49838139  0.16816625  0.83342226  1
  Ni  Ni39  1  0.50016881  0.49923241  0.50086272  1
  Ni  Ni40  1  0.33193877  0.33255797  0.66705053  1
  Ni  Ni41  1  0.49858880  0.50052375  0.83389358  1
  Ni  Ni42  1  0.50027612  0.83323261  0.50127520  1
  Ni  Ni43  1  0.33464641  0.66658235  0.66683667  1
  Ni  Ni44  1  0.49944402  0.83051169  0.83294450  1
  Cr  Cr45  1  0.83352563  0.16595228  0.49683991  1
  Cr  Cr46  1  0.66302554  0.99833533  0.66642452  1
  Ni  Ni47  1  0.83488677  0.16913650  0.83528346  1
  Fe  Fe48  1  0.83307535  0.50166169  0.49978587  1
  Cr  Cr49  1  0.66548652  0.33472349  0.66722728  1
  Fe  Fe50  1  0.83273693  0.49762505  0.83295933  1
  Ni  Ni51  1  0.83375776  0.83102649  0.49914057  1
  Ni  Ni52  1  0.66545876  0.66587392  0.66570531  1
  Cr  Cr53  1  0.83135284  0.83284642  0.83282173  1
" 