3896,Ni73Fe18Cr8_6,-237.521490423302, 191.151882120994,Ni73Fe18Cr8,"# generated using pymatgen
 data_Cr2Fe3Ni13
_symmetry_space_group_name_H-M   'P 1'
_cell_length_a   7.43970719
_cell_length_b   7.43970719
_cell_length_c   10.52133481
_cell_angle_alpha   90.00000000
_cell_angle_beta   90.00000000
_cell_angle_gamma   90.00000000
_symmetry_Int_Tables_number   1
_chemical_formula_structural   Cr2Fe3Ni13
_chemical_formula_sum   'Cr6 Fe9 Ni39'
_cell_volume   582.34791830
_cell_formula_units_Z   3
loop_
 _symmetry_equiv_pos_site_id
 _symmetry_equiv_pos_as_xyz
  1  'x, y, z'
loop_
 _atom_site_type_symbol
 _atom_site_label
 _atom_site_symmetry_multiplicity
 _atom_site_fract_x
 _atom_site_fract_y
 _atom_site_fract_z
 _atom_site_occupancy
  Ni  Ni0  1  1.00017588  1.00113667  1.00150931  1
  Ni  Ni1  1  0.16812763  0.16902457  0.16982096  1
  Ni  Ni2  1  1.00118255  0.00190079  0.33464040  1
  Fe  Fe3  1  1.00154153  0.33592242  1.00171288  1
  Ni  Ni4  1  0.16837447  0.50069767  0.16793922  1
  Fe  Fe5  1  1.00160998  0.33634416  0.33543517  1
  Ni  Ni6  1  1.00173829  0.66948577  0.00203251  1
  Ni  Ni7  1  0.16712648  0.83579350  0.16854814  1
  Ni  Ni8  1  0.99905223  0.66925779  0.33531654  1
  Cr  Cr9  1  0.33442434  1.00134525  0.00241100  1
  Fe  Fe10  1  0.50206902  0.17004083  0.16912102  1
  Fe  Fe11  1  0.33525315  0.00458973  0.33369126  1
  Ni  Ni12  1  0.33604800  0.33699915  1.00171573  1
  Ni  Ni13  1  0.50235660  0.50113116  0.16750791  1
  Ni  Ni14  1  0.33542644  0.33248863  0.33516047  1
  Ni  Ni15  1  0.33491018  0.66643985  0.00185339  1
  Ni  Ni16  1  0.50324217  0.83499417  0.16869991  1
  Cr  Cr17  1  0.33446369  0.66728969  0.33222363  1
  Ni  Ni18  1  0.67096872  0.00227156  0.00187985  1
  Fe  Fe19  1  0.83553298  0.16812756  0.16822278  1
  Fe  Fe20  1  0.66961778  0.00205812  0.33440439  1
  Ni  Ni21  1  0.66792686  0.33543808  1.00167236  1
  Ni  Ni22  1  0.83478030  0.50213040  0.16908020  1
  Ni  Ni23  1  0.66829161  0.33462110  0.33494811  1
  Ni  Ni24  1  0.66886429  0.66780441  0.00240962  1
  Ni  Ni25  1  0.83514677  0.83524251  0.16893572  1
  Ni  Ni26  1  0.67217767  0.66785071  0.33357774  1
  Fe  Fe27  1  0.16889929  0.16930546  0.50077447  1
  Ni  Ni28  1  1.00176177  1.00034366  0.66936472  1
  Fe  Fe29  1  0.16875443  0.16812456  0.83537851  1
  Ni  Ni30  1  0.16665572  0.50024786  0.50148216  1
  Cr  Cr31  1  1.00108976  0.33510660  0.66776791  1
  Ni  Ni32  1  0.16999178  0.50329486  0.83608677  1
  Cr  Cr33  1  0.16612724  0.83476170  0.50272913  1
  Ni  Ni34  1  1.00078830  0.67045586  0.66816489  1
  Ni  Ni35  1  0.16776465  0.83402642  0.83439714  1
  Ni  Ni36  1  0.50225098  0.16912767  0.50152356  1
  Ni  Ni37  1  0.33460229  0.00340464  0.66913020  1
  Ni  Ni38  1  0.50315973  0.16959095  0.83401406  1
  Cr  Cr39  1  0.50215031  0.49925514  0.50358443  1
  Ni  Ni40  1  0.33702908  0.33388719  0.66863772  1
  Ni  Ni41  1  0.50105222  0.50107726  0.83495182  1
  Cr  Cr42  1  0.50366176  0.83729065  0.50309610  1
  Ni  Ni43  1  0.33475070  0.66822196  0.67121186  1
  Ni  Ni44  1  0.50187924  0.83484434  0.83401165  1
  Ni  Ni45  1  0.83392306  0.16792999  0.50069307  1
  Fe  Fe46  1  0.66894789  0.00251294  0.66977767  1
  Ni  Ni47  1  0.83365265  0.16736538  0.83654948  1
  Ni  Ni48  1  0.83653135  0.50190929  0.50087566  1
  Ni  Ni49  1  0.66691152  0.33486008  0.66889038  1
  Ni  Ni50  1  0.83446852  0.50201384  0.83555455  1
  Ni  Ni51  1  0.83614573  0.83567599  0.50195917  1
  Ni  Ni52  1  0.66997450  0.66802824  0.66952756  1
  Ni  Ni53  1  0.83586907  0.83613439  0.83461831  1
" 