3401,Ni73Fe18Cr8_0,-237.852498368608, 194.207062570961,Ni73Fe18Cr8,"# generated using pymatgen
 data_Cr2Fe3Ni13
_symmetry_space_group_name_H-M   'P 1'
_cell_length_a   7.44219010
_cell_length_b   7.44219010
_cell_length_c   10.52484618
_cell_angle_alpha   90.00000000
_cell_angle_beta   90.00000000
_cell_angle_gamma   90.00000000
_symmetry_Int_Tables_number   1
_chemical_formula_structural   Cr2Fe3Ni13
_chemical_formula_sum   'Cr6 Fe9 Ni39'
_cell_volume   582.93116746
_cell_formula_units_Z   3
loop_
 _symmetry_equiv_pos_site_id
 _symmetry_equiv_pos_as_xyz
  1  'x, y, z'
loop_
 _atom_site_type_symbol
 _atom_site_label
 _atom_site_symmetry_multiplicity
 _atom_site_fract_x
 _atom_site_fract_y
 _atom_site_fract_z
 _atom_site_occupancy
  Ni  Ni0  1  0.00267395  0.99982588  0.00258003  1
  Ni  Ni1  1  0.16911962  0.16675951  0.16881566  1
  Ni  Ni2  1  0.00190062  1.00154172  0.33445388  1
  Cr  Cr3  1  1.00069122  0.33408459  0.99965637  1
  Cr  Cr4  1  0.16708328  0.50189556  0.16930478  1
  Ni  Ni5  1  0.00219479  0.33386692  0.33642945  1
  Ni  Ni6  1  0.00187195  0.67170123  1.00115913  1
  Ni  Ni7  1  0.16858384  0.83713148  0.16875346  1
  Ni  Ni8  1  0.99833263  0.66967902  0.33473280  1
  Ni  Ni9  1  0.33216229  0.00176177  0.00382756  1
  Fe  Fe10  1  0.50172232  0.16733219  0.16893663  1
  Ni  Ni11  1  0.33523924  0.00295983  0.33522257  1
  Ni  Ni12  1  0.33696262  0.33440338  0.00171005  1
  Fe  Fe13  1  0.50195657  0.50148108  0.16931484  1
  Ni  Ni14  1  0.33573919  0.33321440  0.33500412  1
  Ni  Ni15  1  0.33440132  0.66902175  0.00178550  1
  Ni  Ni16  1  0.50092398  0.83660297  0.16945347  1
  Fe  Fe17  1  0.33560036  0.67101117  0.33594788  1
  Fe  Fe18  1  0.67002691  0.00229439  0.00384647  1
  Ni  Ni19  1  0.83502854  0.16803044  0.16963713  1
  Ni  Ni20  1  0.66782094  0.99926616  0.33425809  1
  Ni  Ni21  1  0.66731981  0.33543616  0.00363584  1
  Ni  Ni22  1  0.83396479  0.50129809  0.17053935  1
  Fe  Fe23  1  0.66936718  0.33420636  0.33560951  1
  Cr  Cr24  1  0.67070865  0.66743771  0.00206006  1
  Ni  Ni25  1  0.83553330  0.83564103  0.16904220  1
  Ni  Ni26  1  0.66851689  0.66899969  0.33494661  1
  Ni  Ni27  1  0.16764751  0.16796557  0.50057747  1
  Ni  Ni28  1  0.00174001  0.00174801  0.66820788  1
  Ni  Ni29  1  0.16756876  0.16629199  0.83550741  1
  Fe  Fe30  1  0.16750343  0.50277470  0.50099082  1
  Ni  Ni31  1  0.99995576  0.33444818  0.66812916  1
  Ni  Ni32  1  0.16747406  0.50325574  0.83451395  1
  Fe  Fe33  1  0.16772678  0.83495787  0.50157139  1
  Ni  Ni34  1  1.00064691  0.66869798  0.66916838  1
  Ni  Ni35  1  0.16655177  0.83548505  0.83500148  1
  Ni  Ni36  1  0.50078042  0.16698785  0.50039677  1
  Ni  Ni37  1  0.33284668  1.00053582  0.66606246  1
  Cr  Cr38  1  0.50197488  0.16751938  0.83581573  1
  Ni  Ni39  1  0.50385972  0.50243674  0.50046673  1
  Cr  Cr40  1  0.33393736  0.33562511  0.66863680  1
  Ni  Ni41  1  0.50242015  0.50117066  0.83541076  1
  Ni  Ni42  1  0.50311241  0.83568253  0.50252444  1
  Ni  Ni43  1  0.33498634  0.66894594  0.66726566  1
  Cr  Cr44  1  0.50137088  0.83530015  0.83236003  1
  Fe  Fe45  1  0.83372624  0.16735522  0.50096151  1
  Ni  Ni46  1  0.67052977  1.00110709  0.66680958  1
  Fe  Fe47  1  0.83562758  0.16750397  0.83422419  1
  Ni  Ni48  1  0.83563864  0.50276476  0.50139990  1
  Ni  Ni49  1  0.67036922  0.33644783  0.66687042  1
  Ni  Ni50  1  0.83513991  0.50227948  0.83304079  1
  Ni  Ni51  1  0.83436693  0.83361379  0.50136770  1
  Ni  Ni52  1  0.66937040  0.66737648  0.66765810  1
  Ni  Ni53  1  0.83786280  0.83501983  0.83457916  1
" 