6357,Ni73Fe6Cr20_1,-231.557363778098, 163.613719183767,Ni73Fe6Cr20,"# generated using pymatgen
 data_Cr4FeNi13
_symmetry_space_group_name_H-M   'P 1'
_cell_length_a   7.46741082
_cell_length_b   7.46741082
_cell_length_c   10.56051366
_cell_angle_alpha   90.00000000
_cell_angle_beta   90.00000000
_cell_angle_gamma   90.00000000
_symmetry_Int_Tables_number   1
_chemical_formula_structural   Cr4FeNi13
_chemical_formula_sum   'Cr12 Fe3 Ni39'
_cell_volume   588.87773184
_cell_formula_units_Z   3
loop_
 _symmetry_equiv_pos_site_id
 _symmetry_equiv_pos_as_xyz
  1  'x, y, z'
loop_
 _atom_site_type_symbol
 _atom_site_label
 _atom_site_symmetry_multiplicity
 _atom_site_fract_x
 _atom_site_fract_y
 _atom_site_fract_z
 _atom_site_occupancy
  Fe  Fe0  1  0.99897806  0.00112891  0.00105928  1
  Ni  Ni1  1  0.16701773  0.16643344  0.16452039  1
  Cr  Cr2  1  0.99948443  0.00124502  0.33122741  1
  Ni  Ni3  1  0.00146082  0.33007565  0.00222371  1
  Ni  Ni4  1  0.16775847  0.50001853  0.16767021  1
  Ni  Ni5  1  0.99994828  0.33332054  0.33465906  1
  Cr  Cr6  1  0.99946126  0.66714935  0.00123393  1
  Ni  Ni7  1  0.16734047  0.83362171  0.16712785  1
  Ni  Ni8  1  0.00213005  0.66677691  0.33433371  1
  Ni  Ni9  1  0.33314457  0.00256028  0.00095515  1
  Ni  Ni10  1  0.50090690  0.16682656  0.16641381  1
  Ni  Ni11  1  0.33325432  0.00022151  0.33500846  1
  Fe  Fe12  1  0.33509882  0.33257529  0.00035964  1
  Ni  Ni13  1  0.49874664  0.49873802  0.16441925  1
  Cr  Cr14  1  0.33346756  0.33224084  0.33260847  1
  Ni  Ni15  1  0.33439564  0.66654995  0.00226445  1
  Cr  Cr16  1  0.49881734  0.83481349  0.16892439  1
  Ni  Ni17  1  0.33086124  0.66652197  0.33379583  1
  Ni  Ni18  1  0.66579805  0.00152781  0.00091488  1
  Ni  Ni19  1  0.83206621  0.16613791  0.16672347  1
  Ni  Ni20  1  0.66633841  0.00295324  0.33417050  1
  Ni  Ni21  1  0.66583608  0.33161852  0.00093641  1
  Cr  Cr22  1  0.83295876  0.49716270  0.16887881  1
  Ni  Ni23  1  0.66682519  0.33057297  0.33402335  1
  Ni  Ni24  1  0.66495570  0.66676976  0.99899290  1
  Ni  Ni25  1  0.83314898  0.83540944  0.16491060  1
  Cr  Cr26  1  0.66718846  0.66647719  0.33539255  1
  Ni  Ni27  1  0.16703520  0.16609434  0.50246484  1
  Ni  Ni28  1  0.99992336  0.00056887  0.66683847  1
  Ni  Ni29  1  0.16867322  0.16650855  0.83310592  1
  Ni  Ni30  1  0.16559054  0.49999422  0.49952647  1
  Ni  Ni31  1  0.00137393  0.33142722  0.66295640  1
  Cr  Cr32  1  0.16709367  0.49658960  0.83236653  1
  Ni  Ni33  1  0.16626301  0.83409617  0.49937002  1
  Ni  Ni34  1  0.99787931  0.66798079  0.66364003  1
  Cr  Cr35  1  0.16580854  0.83676446  0.83258561  1
  Ni  Ni36  1  0.50072683  0.16608831  0.50069285  1
  Ni  Ni37  1  0.33316077  0.00391684  0.66441813  1
  Ni  Ni38  1  0.49915066  0.16765484  0.83315816  1
  Ni  Ni39  1  0.50072003  0.49767070  0.50079733  1
  Ni  Ni40  1  0.33448033  0.33046130  0.66774573  1
  Ni  Ni41  1  0.50105736  0.49774978  0.83503494  1
  Fe  Fe42  1  0.50012952  0.83492087  0.49961410  1
  Cr  Cr43  1  0.33432496  0.66490394  0.66398018  1
  Cr  Cr44  1  0.50114824  0.83499743  0.83243733  1
  Ni  Ni45  1  0.83204586  0.16722609  0.50008568  1
  Ni  Ni46  1  0.66685551  0.00067880  0.66490432  1
  Cr  Cr47  1  0.83382048  0.16620042  0.83225053  1
  Ni  Ni48  1  0.83367995  0.49903694  0.50102354  1
  Ni  Ni49  1  0.66452409  0.33288576  0.66487425  1
  Cr  Cr50  1  0.83181312  0.49961312  0.83004652  1
  Ni  Ni51  1  0.83420846  0.83416099  0.50227387  1
  Ni  Ni52  1  0.66814005  0.66659197  0.66617995  1
  Ni  Ni53  1  0.83167128  0.83445689  0.83256655  1
" 