1492,Ni73Fe6Cr20_2,-231.476429587477, 165.295793671819,Ni73Fe6Cr20,"# generated using pymatgen
 data_Cr4FeNi13
_symmetry_space_group_name_H-M   'P 1'
_cell_length_a   7.46748014
_cell_length_b   7.46748014
_cell_length_c   10.56061169
_cell_angle_alpha   90.00000000
_cell_angle_beta   90.00000000
_cell_angle_gamma   90.00000000
_symmetry_Int_Tables_number   1
_chemical_formula_structural   Cr4FeNi13
_chemical_formula_sum   'Cr12 Fe3 Ni39'
_cell_volume   588.89413098
_cell_formula_units_Z   3
loop_
 _symmetry_equiv_pos_site_id
 _symmetry_equiv_pos_as_xyz
  1  'x, y, z'
loop_
 _atom_site_type_symbol
 _atom_site_label
 _atom_site_symmetry_multiplicity
 _atom_site_fract_x
 _atom_site_fract_y
 _atom_site_fract_z
 _atom_site_occupancy
  Ni  Ni0  1  0.99661602  0.00020568  0.99887444  1
  Ni  Ni1  1  0.16553777  0.16848029  0.16641940  1
  Cr  Cr2  1  0.99891062  0.99961950  0.33370704  1
  Ni  Ni3  1  0.99840977  0.33322672  0.99881257  1
  Cr  Cr4  1  0.16592066  0.49787587  0.16641958  1
  Ni  Ni5  1  0.99864139  0.33498095  0.33427804  1
  Ni  Ni6  1  0.99878093  0.66655813  0.99828094  1
  Cr  Cr7  1  0.16600118  0.83340674  0.16736292  1
  Ni  Ni8  1  0.99883912  0.66503363  0.33522892  1
  Cr  Cr9  1  0.33271621  0.99848053  0.99927198  1
  Cr  Cr10  1  0.49960357  0.16743699  0.16774241  1
  Ni  Ni11  1  0.33491998  0.00031812  0.33445796  1
  Ni  Ni12  1  0.33224655  0.33584387  0.00030108  1
  Ni  Ni13  1  0.50211578  0.50105343  0.16657683  1
  Ni  Ni14  1  0.33431606  0.33407905  0.33472676  1
  Ni  Ni15  1  0.33370262  0.66559769  0.99868639  1
  Ni  Ni16  1  0.50322176  0.83149808  0.16710184  1
  Ni  Ni17  1  0.33371796  0.66554925  0.33422503  1
  Ni  Ni18  1  0.67007418  0.99878121  0.99996875  1
  Fe  Fe19  1  0.83347686  0.16767967  0.16573577  1
  Ni  Ni20  1  0.66640968  0.00058398  0.33310168  1
  Ni  Ni21  1  0.66925686  0.33369591  0.00068495  1
  Ni  Ni22  1  0.83167861  0.50052991  0.16666536  1
  Ni  Ni23  1  0.66690171  0.33376190  0.33459255  1
  Fe  Fe24  1  0.66804363  0.66719445  0.00035175  1
  Ni  Ni25  1  0.83054827  0.83195655  0.16573374  1
  Fe  Fe26  1  0.66738024  0.66537294  0.33294598  1
  Ni  Ni27  1  0.16659245  0.16680001  0.50010896  1
  Ni  Ni28  1  0.00146051  0.00100363  0.66702781  1
  Ni  Ni29  1  0.16282427  0.16650513  0.83336507  1
  Ni  Ni30  1  0.16624439  0.49951698  0.49814359  1
  Ni  Ni31  1  0.99966793  0.33187373  0.66689255  1
  Ni  Ni32  1  0.16460037  0.49985024  0.83536371  1
  Ni  Ni33  1  0.16660535  0.83357774  0.50013081  1
  Cr  Cr34  1  0.00016256  0.66639281  0.66614288  1
  Ni  Ni35  1  0.16638871  0.83356738  0.83294514  1
  Ni  Ni36  1  0.49897140  0.16743277  0.49728406  1
  Ni  Ni37  1  0.33008441  0.99767925  0.66644279  1
  Cr  Cr38  1  0.50003366  0.16515986  0.83391752  1
  Ni  Ni39  1  0.50010441  0.49960877  0.49807608  1
  Cr  Cr40  1  0.33072689  0.33386261  0.66501717  1
  Cr  Cr41  1  0.50022141  0.50262704  0.83487007  1
  Cr  Cr42  1  0.49921680  0.83314559  0.49979096  1
  Ni  Ni43  1  0.33310104  0.66856033  0.66707369  1
  Ni  Ni44  1  0.50000760  0.83180518  0.83346236  1
  Ni  Ni45  1  0.83435353  0.16779622  0.49893307  1
  Cr  Cr46  1  0.66855280  0.99924202  0.66685608  1
  Ni  Ni47  1  0.83719709  0.16650887  0.83558913  1
  Ni  Ni48  1  0.83358215  0.49956951  0.49854080  1
  Cr  Cr49  1  0.66993009  0.33481698  0.66451770  1
  Ni  Ni50  1  0.83539936  0.49988753  0.83468752  1
  Ni  Ni51  1  0.83424696  0.83252103  0.49919383  1
  Ni  Ni52  1  0.66663112  0.66682761  0.66685847  1
  Ni  Ni53  1  0.83354087  0.83349626  0.83494965  1
" 