5402,Ni73Fe18Cr7_6,-238.188948995922, 196.551073292894,Ni73Fe18Cr7,"# generated using pymatgen
 data_Cr5Fe10Ni39
_symmetry_space_group_name_H-M   'P 1'
_cell_length_a   7.43207401
_cell_length_b   7.43207401
_cell_length_c   10.51053985
_cell_angle_alpha   90.00000000
_cell_angle_beta   90.00000000
_cell_angle_gamma   90.00000000
_symmetry_Int_Tables_number   1
_chemical_formula_structural   Cr5Fe10Ni39
_chemical_formula_sum   'Cr5 Fe10 Ni39'
_cell_volume   580.55727870
_cell_formula_units_Z   1
loop_
 _symmetry_equiv_pos_site_id
 _symmetry_equiv_pos_as_xyz
  1  'x, y, z'
loop_
 _atom_site_type_symbol
 _atom_site_label
 _atom_site_symmetry_multiplicity
 _atom_site_fract_x
 _atom_site_fract_y
 _atom_site_fract_z
 _atom_site_occupancy
  Ni  Ni0  1  0.00278995  1.00145329  1.00191936  1
  Fe  Fe1  1  0.16951155  0.16934977  0.16968020  1
  Ni  Ni2  1  1.00140122  0.00239662  0.33517476  1
  Cr  Cr3  1  0.00289885  0.33600359  0.00307965  1
  Ni  Ni4  1  0.16796126  0.50152456  0.16985612  1
  Ni  Ni5  1  1.00166335  0.33697402  0.33449569  1
  Ni  Ni6  1  1.00158066  0.66982913  1.00192033  1
  Cr  Cr7  1  0.16889058  0.83490465  0.16865136  1
  Ni  Ni8  1  1.00119748  0.66768713  0.33562017  1
  Ni  Ni9  1  0.33599683  0.00249562  1.00162033  1
  Ni  Ni10  1  0.50228818  0.16664089  0.16925161  1
  Ni  Ni11  1  0.33730534  0.00317543  0.33564695  1
  Fe  Fe12  1  0.33417850  0.33581466  1.00143289  1
  Cr  Cr13  1  0.50124721  0.50350549  0.17045654  1
  Ni  Ni14  1  0.33570050  0.33485295  0.33426112  1
  Ni  Ni15  1  0.33596953  0.67002025  1.00109107  1
  Ni  Ni16  1  0.50408500  0.83761564  0.16863933  1
  Fe  Fe17  1  0.33532780  0.66926658  0.33725311  1
  Fe  Fe18  1  0.66940972  0.99956811  0.00266984  1
  Ni  Ni19  1  0.83546689  0.16746205  0.17105023  1
  Ni  Ni20  1  0.66835215  0.00270906  0.33463881  1
  Cr  Cr21  1  0.66876191  0.33593447  1.00202444  1
  Ni  Ni22  1  0.83780358  0.50332513  0.16976431  1
  Ni  Ni23  1  0.66969217  0.33505922  0.33656035  1
  Ni  Ni24  1  0.66950640  0.67067394  1.00172297  1
  Ni  Ni25  1  0.83418966  0.83627167  0.16910631  1
  Ni  Ni26  1  0.67047366  0.66928972  0.33581572  1
  Cr  Cr27  1  0.16843504  0.16891111  0.50182267  1
  Ni  Ni28  1  1.00204418  1.00137063  0.66996639  1
  Ni  Ni29  1  0.16884052  0.16916892  0.83549087  1
  Ni  Ni30  1  0.16851348  0.50447429  0.50202332  1
  Fe  Fe31  1  1.00168316  0.33634408  0.66952504  1
  Ni  Ni32  1  0.17082420  0.50231801  0.83517622  1
  Ni  Ni33  1  0.17004922  0.83358336  0.50336580  1
  Ni  Ni34  1  0.00259613  0.66928981  0.66952048  1
  Fe  Fe35  1  0.16889506  0.83586535  0.83545832  1
  Ni  Ni36  1  0.50449491  0.16815441  0.50296022  1
  Ni  Ni37  1  0.33597500  1.00210509  0.66979120  1
  Fe  Fe38  1  0.50134476  0.16838309  0.83435393  1
  Fe  Fe39  1  0.50246630  0.50184010  0.50302095  1
  Ni  Ni40  1  0.33717761  0.33616982  0.67089990  1
  Ni  Ni41  1  0.50047865  0.50405990  0.83451251  1
  Ni  Ni42  1  0.50175656  0.83596319  0.50185372  1
  Ni  Ni43  1  0.33519848  0.66878143  0.66856857  1
  Ni  Ni44  1  0.50302653  0.83463615  0.83656153  1
  Ni  Ni45  1  0.83371619  0.16969294  0.50234321  1
  Ni  Ni46  1  0.66903894  0.00334925  0.66944031  1
  Ni  Ni47  1  0.83669290  0.16662112  0.83366262  1
  Ni  Ni48  1  0.83610367  0.50172863  0.50265857  1
  Ni  Ni49  1  0.66853247  0.33561852  0.66856489  1
  Fe  Fe50  1  0.83527414  0.50435714  0.83420897  1
  Fe  Fe51  1  0.83603547  0.83575432  0.50239561  1
  Ni  Ni52  1  0.66926413  0.66808974  0.66952434  1
  Ni  Ni53  1  0.83494804  0.83662164  0.83598197  1
" 