8721,Ni73Fe18Cr8_8,-237.798359050273, 195.858561287534,Ni73Fe18Cr8,"# generated using pymatgen
 data_Cr2Fe3Ni13
_symmetry_space_group_name_H-M   'P 1'
_cell_length_a   7.43963943
_cell_length_b   7.43963943
_cell_length_c   10.52123898
_cell_angle_alpha   90.00000000
_cell_angle_beta   90.00000000
_cell_angle_gamma   90.00000000
_symmetry_Int_Tables_number   1
_chemical_formula_structural   Cr2Fe3Ni13
_chemical_formula_sum   'Cr6 Fe9 Ni39'
_cell_volume   582.33200649
_cell_formula_units_Z   3
loop_
 _symmetry_equiv_pos_site_id
 _symmetry_equiv_pos_as_xyz
  1  'x, y, z'
loop_
 _atom_site_type_symbol
 _atom_site_label
 _atom_site_symmetry_multiplicity
 _atom_site_fract_x
 _atom_site_fract_y
 _atom_site_fract_z
 _atom_site_occupancy
  Ni  Ni0  1  0.00208396  0.00372439  0.99981275  1
  Fe  Fe1  1  0.17093765  0.16978510  0.16844425  1
  Ni  Ni2  1  0.00247958  0.00184704  0.33697660  1
  Ni  Ni3  1  0.00278711  0.33413901  1.00056590  1
  Fe  Fe4  1  0.17050309  0.49969871  0.16914228  1
  Ni  Ni5  1  0.00219352  0.33529517  0.33527294  1
  Cr  Cr6  1  1.00100985  0.66794428  1.00099996  1
  Cr  Cr7  1  0.16896097  0.83556400  0.16959163  1
  Ni  Ni8  1  0.00198096  0.66838440  0.33543218  1
  Ni  Ni9  1  0.33525487  0.00223066  1.00183509  1
  Ni  Ni10  1  0.50144415  0.16911374  0.16886688  1
  Ni  Ni11  1  0.33537033  0.00307593  0.33609118  1
  Ni  Ni12  1  0.33455096  0.33562944  0.00258613  1
  Ni  Ni13  1  0.50126276  0.50063035  0.16748054  1
  Ni  Ni14  1  0.33570701  0.33411136  0.33439321  1
  Ni  Ni15  1  0.33792383  0.66766537  1.00071247  1
  Ni  Ni16  1  0.50196329  0.83578309  0.16773210  1
  Ni  Ni17  1  0.33468283  0.66833640  0.33522746  1
  Ni  Ni18  1  0.66818722  1.00034659  1.00183044  1
  Cr  Cr19  1  0.83435262  0.16841040  0.16834141  1
  Ni  Ni20  1  0.66767428  0.00287087  0.33605444  1
  Ni  Ni21  1  0.66819187  0.33681214  0.00204215  1
  Fe  Fe22  1  0.83408116  0.50144141  0.16857675  1
  Ni  Ni23  1  0.66762991  0.33460916  0.33611580  1
  Ni  Ni24  1  0.66669603  0.66836703  1.00138799  1
  Fe  Fe25  1  0.83259584  0.83573877  0.16855922  1
  Cr  Cr26  1  0.66850057  0.66823722  0.33528492  1
  Ni  Ni27  1  0.16912240  0.16606272  0.50061909  1
  Ni  Ni28  1  0.00260012  1.00148528  0.66873711  1
  Ni  Ni29  1  0.16685013  0.16809616  0.83642142  1
  Cr  Cr30  1  0.16840935  0.50302760  0.50131855  1
  Fe  Fe31  1  1.00101423  0.33480126  0.66947630  1
  Ni  Ni32  1  0.16853829  0.50139833  0.83510301  1
  Ni  Ni33  1  0.16714767  0.83703817  0.50175836  1
  Ni  Ni34  1  1.00131760  0.66941057  0.66895612  1
  Ni  Ni35  1  0.16829256  0.83602932  0.83411446  1
  Ni  Ni36  1  0.50208769  0.16901316  0.50046827  1
  Ni  Ni37  1  0.33369521  1.00083163  0.66760102  1
  Cr  Cr38  1  0.50198739  0.16850549  0.83640489  1
  Ni  Ni39  1  0.50337922  0.49977692  0.50248799  1
  Fe  Fe40  1  0.33568820  0.33506339  0.66846145  1
  Ni  Ni41  1  0.50230143  0.50315419  0.83555833  1
  Fe  Fe42  1  0.50077601  0.83590952  0.50268213  1
  Ni  Ni43  1  0.33567761  0.66935953  0.66958774  1
  Ni  Ni44  1  0.50200963  0.83373689  0.83564910  1
  Fe  Fe45  1  0.83502372  0.16848971  0.50135563  1
  Ni  Ni46  1  0.66923185  1.00151971  0.66764329  1
  Fe  Fe47  1  0.83670978  0.16832866  0.83572565  1
  Ni  Ni48  1  0.83401291  0.50175353  0.50166914  1
  Ni  Ni49  1  0.66918370  0.33661597  0.66736692  1
  Ni  Ni50  1  0.83468815  0.50171396  0.83495120  1
  Ni  Ni51  1  0.83696473  0.83574363  0.50132627  1
  Ni  Ni52  1  0.66853062  0.66739022  0.66894443  1
  Ni  Ni53  1  0.83522352  0.83542245  0.83572544  1
" 