405,Ni73Fe18Cr8_13,-238.000623130833, 196.812690448305,Ni73Fe18Cr8,"# generated using pymatgen
 data_Cr2Fe3Ni13
_symmetry_space_group_name_H-M   'P 1'
_cell_length_a   7.43976793
_cell_length_b   7.43976793
_cell_length_c   10.52142070
_cell_angle_alpha   90.00000000
_cell_angle_beta   90.00000000
_cell_angle_gamma   90.00000000
_symmetry_Int_Tables_number   1
_chemical_formula_structural   Cr2Fe3Ni13
_chemical_formula_sum   'Cr6 Fe9 Ni39'
_cell_volume   582.36218035
_cell_formula_units_Z   3
loop_
 _symmetry_equiv_pos_site_id
 _symmetry_equiv_pos_as_xyz
  1  'x, y, z'
loop_
 _atom_site_type_symbol
 _atom_site_label
 _atom_site_symmetry_multiplicity
 _atom_site_fract_x
 _atom_site_fract_y
 _atom_site_fract_z
 _atom_site_occupancy
  Ni  Ni0  1  0.00222257  1.00134899  0.00286813  1
  Ni  Ni1  1  0.16898846  0.16821327  0.16796870  1
  Ni  Ni2  1  1.00113572  0.00309075  0.33486498  1
  Ni  Ni3  1  1.00171712  0.33554325  0.00271368  1
  Ni  Ni4  1  0.16773340  0.50012621  0.16759539  1
  Ni  Ni5  1  1.00164790  0.33377392  0.33480915  1
  Ni  Ni6  1  1.00145028  0.66860861  1.00181641  1
  Ni  Ni7  1  0.16617029  0.83716259  0.16780774  1
  Fe  Fe8  1  0.99887432  0.66829370  0.33440616  1
  Fe  Fe9  1  0.33384769  0.00271274  0.00232694  1
  Ni  Ni10  1  0.50053951  0.17027091  0.16828640  1
  Fe  Fe11  1  0.33569863  0.00401937  0.33548522  1
  Ni  Ni12  1  0.33451834  0.33501723  0.00414986  1
  Ni  Ni13  1  0.50357279  0.49984976  0.16849582  1
  Fe  Fe14  1  0.33562135  0.33342591  0.33504659  1
  Cr  Cr15  1  0.33442720  0.66876092  0.00216152  1
  Fe  Fe16  1  0.50312602  0.83550480  0.16943744  1
  Cr  Cr17  1  0.33611148  0.66777320  0.33546859  1
  Cr  Cr18  1  0.66961520  1.00177205  1.00126621  1
  Ni  Ni19  1  0.83597225  0.16870756  0.16923186  1
  Ni  Ni20  1  0.66954988  1.00157327  0.33580355  1
  Ni  Ni21  1  0.66926671  0.33578435  0.00251335  1
  Ni  Ni22  1  0.83419188  0.50266599  0.16738073  1
  Ni  Ni23  1  0.66924405  0.33508774  0.33516438  1
  Ni  Ni24  1  0.66987689  0.66802406  0.00351045  1
  Ni  Ni25  1  0.83624725  0.83412549  0.16890750  1
  Ni  Ni26  1  0.66831242  0.66884006  0.33432411  1
  Ni  Ni27  1  0.16865483  0.16916927  0.50165022  1
  Ni  Ni28  1  1.00108124  0.00198667  0.66776475  1
  Cr  Cr29  1  0.16801064  0.16885387  0.83600808  1
  Ni  Ni30  1  0.16846843  0.50030808  0.50349304  1
  Ni  Ni31  1  1.00164620  0.33499504  0.66797699  1
  Ni  Ni32  1  0.16727918  0.50265497  0.83441346  1
  Fe  Fe33  1  0.16794690  0.83631960  0.50300870  1
  Fe  Fe34  1  0.00382640  0.66842859  0.66909347  1
  Ni  Ni35  1  0.16751914  0.83438593  0.83388134  1
  Ni  Ni36  1  0.50155724  0.16857739  0.50321646  1
  Ni  Ni37  1  0.33570843  0.99994986  0.66801423  1
  Fe  Fe38  1  0.50250576  0.16733716  0.83407075  1
  Ni  Ni39  1  0.50144324  0.50060059  0.50184760  1
  Ni  Ni40  1  0.33438398  0.33627113  0.66617534  1
  Cr  Cr41  1  0.50135053  0.50049873  0.83497014  1
  Ni  Ni42  1  0.50275633  0.83632215  0.50201204  1
  Ni  Ni43  1  0.33313550  0.66927787  0.66806943  1
  Ni  Ni44  1  0.50170169  0.83649148  0.83477942  1
  Ni  Ni45  1  0.83529089  0.16785444  0.50216351  1
  Ni  Ni46  1  0.66871173  0.00323064  0.66834702  1
  Ni  Ni47  1  0.83471141  0.16816410  0.83410301  1
  Ni  Ni48  1  0.83558723  0.50150798  0.50153717  1
  Ni  Ni49  1  0.66947324  0.33242258  0.66782207  1
  Fe  Fe50  1  0.83771641  0.50150301  0.83645326  1
  Ni  Ni51  1  0.83499708  0.83613688  0.50112388  1
  Cr  Cr52  1  0.66757932  0.66965920  0.66772577  1
  Ni  Ni53  1  0.83627936  0.83601804  0.83546993  1
" 