50,Ni73Fe18Cr8_7,-237.744065227499, 193.692486742211,Ni73Fe18Cr8,"# generated using pymatgen
 data_Cr2Fe3Ni13
_symmetry_space_group_name_H-M   'P 1'
_cell_length_a   7.44159051
_cell_length_b   7.44159051
_cell_length_c   10.52399822
_cell_angle_alpha   90.00000000
_cell_angle_beta   90.00000000
_cell_angle_gamma   90.00000000
_symmetry_Int_Tables_number   1
_chemical_formula_structural   Cr2Fe3Ni13
_chemical_formula_sum   'Cr6 Fe9 Ni39'
_cell_volume   582.79028399
_cell_formula_units_Z   3
loop_
 _symmetry_equiv_pos_site_id
 _symmetry_equiv_pos_as_xyz
  1  'x, y, z'
loop_
 _atom_site_type_symbol
 _atom_site_label
 _atom_site_symmetry_multiplicity
 _atom_site_fract_x
 _atom_site_fract_y
 _atom_site_fract_z
 _atom_site_occupancy
  Cr  Cr0  1  1.00076950  0.99985233  1.00154361  1
  Ni  Ni1  1  0.16982103  0.17056058  0.17109536  1
  Ni  Ni2  1  0.00264907  0.00228009  0.33381258  1
  Cr  Cr3  1  0.00185659  0.33550503  0.00191653  1
  Ni  Ni4  1  0.16800465  0.50124594  0.16871425  1
  Ni  Ni5  1  1.00088005  0.33482308  0.33505817  1
  Ni  Ni6  1  0.00233445  0.66969277  0.00235482  1
  Fe  Fe7  1  0.16778566  0.83368448  0.17010814  1
  Ni  Ni8  1  0.00213146  0.66802763  0.33361876  1
  Cr  Cr9  1  0.33584752  1.00160217  0.00192822  1
  Ni  Ni10  1  0.50198616  0.16817435  0.16923652  1
  Ni  Ni11  1  0.33476394  1.00119030  0.33490088  1
  Ni  Ni12  1  0.33794430  0.33694745  1.00108559  1
  Fe  Fe13  1  0.50197196  0.50086629  0.16795752  1
  Ni  Ni14  1  0.33513117  0.33451669  0.33421472  1
  Ni  Ni15  1  0.33508003  0.66703772  1.00078133  1
  Ni  Ni16  1  0.50374260  0.83550505  0.16926337  1
  Ni  Ni17  1  0.33497073  0.66942603  0.33529084  1
  Fe  Fe18  1  0.66782511  1.00162804  0.00247695  1
  Ni  Ni19  1  0.83332002  0.16843850  0.17010673  1
  Ni  Ni20  1  0.66772044  0.00243794  0.33360112  1
  Ni  Ni21  1  0.66583393  0.33454636  0.00253654  1
  Ni  Ni22  1  0.83549526  0.50300019  0.16965204  1
  Ni  Ni23  1  0.66912273  0.33503643  0.33484448  1
  Fe  Fe24  1  0.66753420  0.66885007  0.00224921  1
  Ni  Ni25  1  0.83311540  0.83369060  0.16895356  1
  Ni  Ni26  1  0.66802477  0.66765627  0.33383841  1
  Ni  Ni27  1  0.16891277  0.16929981  0.50174736  1
  Ni  Ni28  1  0.00317504  0.00410839  0.67007028  1
  Ni  Ni29  1  0.17012915  0.16960130  0.83229147  1
  Ni  Ni30  1  0.16817660  0.49959442  0.50144652  1
  Ni  Ni31  1  1.00162259  0.33188297  0.66800298  1
  Ni  Ni32  1  0.17123535  0.50078686  0.83496828  1
  Ni  Ni33  1  0.17135438  0.83623778  0.50044424  1
  Cr  Cr34  1  0.00351447  0.66888965  0.66878336  1
  Ni  Ni35  1  0.16884830  0.83474202  0.83416329  1
  Fe  Fe36  1  0.50069187  0.16846693  0.50144474  1
  Ni  Ni37  1  0.33428052  1.00123609  0.66862020  1
  Ni  Ni38  1  0.50134756  0.16889764  0.83445502  1
  Fe  Fe39  1  0.50105510  0.50246902  0.50236748  1
  Ni  Ni40  1  0.33557898  0.33450721  0.66983351  1
  Ni  Ni41  1  0.50002117  0.50126731  0.83519832  1
  Ni  Ni42  1  0.50061972  0.83536633  0.50222457  1
  Ni  Ni43  1  0.33720173  0.66938970  0.66905755  1
  Ni  Ni44  1  0.50309707  0.83496466  0.83364868  1
  Fe  Fe45  1  0.83635820  0.17003531  0.50111465  1
  Fe  Fe46  1  0.66692449  0.00210701  0.66928072  1
  Fe  Fe47  1  0.83366365  0.16692607  0.83361306  1
  Ni  Ni48  1  0.83471051  0.49958088  0.50048128  1
  Ni  Ni49  1  0.66792715  0.33480201  0.66775463  1
  Cr  Cr50  1  0.83461014  0.50265600  0.83508364  1
  Cr  Cr51  1  0.83341305  0.83441475  0.50069791  1
  Ni  Ni52  1  0.66505464  0.66783125  0.66906559  1
  Ni  Ni53  1  0.83317796  0.83608115  0.83536531  1
" 