4989,Ni73Fe18Cr7_7,-238.898293442421, 200.898205733422,Ni73Fe18Cr7,"# generated using pymatgen
 data_Cr5Fe10Ni39
_symmetry_space_group_name_H-M   'P 1'
_cell_length_a   7.43260418
_cell_length_b   7.43260418
_cell_length_c   10.51128963
_cell_angle_alpha   90.00000000
_cell_angle_beta   90.00000000
_cell_angle_gamma   90.00000000
_symmetry_Int_Tables_number   1
_chemical_formula_structural   Cr5Fe10Ni39
_chemical_formula_sum   'Cr5 Fe10 Ni39'
_cell_volume   580.68153045
_cell_formula_units_Z   1
loop_
 _symmetry_equiv_pos_site_id
 _symmetry_equiv_pos_as_xyz
  1  'x, y, z'
loop_
 _atom_site_type_symbol
 _atom_site_label
 _atom_site_symmetry_multiplicity
 _atom_site_fract_x
 _atom_site_fract_y
 _atom_site_fract_z
 _atom_site_occupancy
  Ni  Ni0  1  1.00041269  0.00294915  1.00228187  1
  Cr  Cr1  1  0.16866867  0.16965959  0.16901183  1
  Fe  Fe2  1  1.00083321  0.99911454  0.33556277  1
  Ni  Ni3  1  1.00153531  0.33646564  1.00224391  1
  Ni  Ni4  1  0.16930827  0.50325685  0.16869630  1
  Fe  Fe5  1  0.99982109  0.33731806  0.33577815  1
  Ni  Ni6  1  1.00204178  0.66782695  0.00311236  1
  Ni  Ni7  1  0.16889322  0.83407992  0.16869222  1
  Ni  Ni8  1  1.00167619  0.66823159  0.33413185  1
  Fe  Fe9  1  0.33533133  1.00145362  0.00265551  1
  Ni  Ni10  1  0.50337862  0.17078104  0.16833004  1
  Ni  Ni11  1  0.33707332  1.00211279  0.33548101  1
  Ni  Ni12  1  0.33639595  0.33748874  1.00180834  1
  Ni  Ni13  1  0.50331344  0.50226871  0.17058208  1
  Fe  Fe14  1  0.33919324  0.33650728  0.33557086  1
  Ni  Ni15  1  0.33640256  0.66646322  0.00351090  1
  Ni  Ni16  1  0.50215418  0.83417790  0.16981025  1
  Ni  Ni17  1  0.33507782  0.67157157  0.33574960  1
  Cr  Cr18  1  0.66926571  0.00235331  0.00378679  1
  Ni  Ni19  1  0.83454666  0.17037800  0.17105682  1
  Ni  Ni20  1  0.66750667  0.00318085  0.33553890  1
  Ni  Ni21  1  0.66917842  0.33636475  1.00109222  1
  Ni  Ni22  1  0.83455894  0.50168395  0.16733872  1
  Ni  Ni23  1  0.67026152  0.33489176  0.33646481  1
  Ni  Ni24  1  0.66879473  0.66744870  0.00310430  1
  Ni  Ni25  1  0.83553000  0.83442437  0.16955704  1
  Ni  Ni26  1  0.67026666  0.66880720  0.33529132  1
  Ni  Ni27  1  0.16899506  0.16861553  0.50145108  1
  Fe  Fe28  1  1.00155185  1.00195423  0.66889285  1
  Ni  Ni29  1  0.16686972  0.17248455  0.83678123  1
  Cr  Cr30  1  0.16879898  0.50265821  0.50190110  1
  Ni  Ni31  1  1.00228100  0.33537856  0.66939023  1
  Ni  Ni32  1  0.17050540  0.49993838  0.83572429  1
  Ni  Ni33  1  0.16784668  0.83676517  0.50207851  1
  Ni  Ni34  1  1.00088342  0.66685977  0.66957199  1
  Cr  Cr35  1  0.16775622  0.83327707  0.83666414  1
  Ni  Ni36  1  0.50259733  0.16981934  0.50242150  1
  Cr  Cr37  1  0.33792348  0.00248582  0.67033882  1
  Fe  Fe38  1  0.50273661  0.17040354  0.83571365  1
  Fe  Fe39  1  0.50399340  0.50389435  0.50206939  1
  Ni  Ni40  1  0.33442495  0.33547602  0.66864794  1
  Ni  Ni41  1  0.50221649  0.50285384  0.83372546  1
  Ni  Ni42  1  0.50408171  0.83615151  0.50159096  1
  Ni  Ni43  1  0.33657190  0.66769750  0.66768924  1
  Ni  Ni44  1  0.50507956  0.83176713  0.83603947  1
  Fe  Fe45  1  0.83565494  0.16802007  0.50248509  1
  Ni  Ni46  1  0.67009687  0.00270258  0.66827762  1
  Ni  Ni47  1  0.83634622  0.16987832  0.83351015  1
  Ni  Ni48  1  0.83413540  0.50283158  0.50347650  1
  Fe  Fe49  1  0.66829450  0.33708700  0.66862647  1
  Fe  Fe50  1  0.83613925  0.50348210  0.83592385  1
  Ni  Ni51  1  0.83473684  0.83452418  0.50268642  1
  Ni  Ni52  1  0.66970457  0.67091430  0.66846714  1
  Ni  Ni53  1  0.83347815  0.83594005  0.83473485  1
" 