3198,Ni73Fe18Cr7_13,-238.507690134428, 196.30691083384,Ni73Fe18Cr7,"# generated using pymatgen
 data_Cr5Fe10Ni39
_symmetry_space_group_name_H-M   'P 1'
_cell_length_a   7.43375695
_cell_length_b   7.43375695
_cell_length_c   10.51291989
_cell_angle_alpha   90.00000000
_cell_angle_beta   90.00000000
_cell_angle_gamma   90.00000000
_symmetry_Int_Tables_number   1
_chemical_formula_structural   Cr5Fe10Ni39
_chemical_formula_sum   'Cr5 Fe10 Ni39'
_cell_volume   580.95175741
_cell_formula_units_Z   1
loop_
 _symmetry_equiv_pos_site_id
 _symmetry_equiv_pos_as_xyz
  1  'x, y, z'
loop_
 _atom_site_type_symbol
 _atom_site_label
 _atom_site_symmetry_multiplicity
 _atom_site_fract_x
 _atom_site_fract_y
 _atom_site_fract_z
 _atom_site_occupancy
  Fe  Fe0  1  0.00321011  0.00397202  1.00103516  1
  Ni  Ni1  1  0.16807306  0.16887491  0.17001533  1
  Cr  Cr2  1  0.00247927  0.00262071  0.33683187  1
  Ni  Ni3  1  1.00162076  0.33696261  0.00238328  1
  Ni  Ni4  1  0.16839065  0.50233806  0.16958925  1
  Ni  Ni5  1  0.00356798  0.33826915  0.33579286  1
  Fe  Fe6  1  0.00298615  0.66865451  1.00186276  1
  Ni  Ni7  1  0.17199769  0.83581268  0.16733336  1
  Ni  Ni8  1  0.00365695  0.66592208  0.33571341  1
  Ni  Ni9  1  0.33658704  1.00143239  1.00204659  1
  Fe  Fe10  1  0.50189617  0.16643095  0.16922891  1
  Ni  Ni11  1  0.33763149  1.00194918  0.33539928  1
  Cr  Cr12  1  0.33351427  0.33443589  0.00427314  1
  Ni  Ni13  1  0.50200229  0.50526429  0.16887963  1
  Ni  Ni14  1  0.33408462  0.33642390  0.33525076  1
  Fe  Fe15  1  0.33623420  0.67120562  0.00325435  1
  Ni  Ni16  1  0.50063408  0.83487792  0.16904900  1
  Ni  Ni17  1  0.33432935  0.66842307  0.33473119  1
  Ni  Ni18  1  0.66769722  1.00128448  1.00130945  1
  Ni  Ni19  1  0.83738012  0.17034611  0.16608493  1
  Ni  Ni20  1  0.66646809  1.00177360  0.33650142  1
  Fe  Fe21  1  0.67026747  0.33448358  0.00259404  1
  Ni  Ni22  1  0.83638395  0.50114141  0.16760418  1
  Cr  Cr23  1  0.66924194  0.33472085  0.33439485  1
  Ni  Ni24  1  0.67000579  0.66985050  0.00300983  1
  Cr  Cr25  1  0.83453933  0.83574202  0.16972861  1
  Fe  Fe26  1  0.66754021  0.66888664  0.33656495  1
  Ni  Ni27  1  0.16981268  0.16969796  0.50252194  1
  Ni  Ni28  1  1.00117310  1.00136552  0.66957619  1
  Ni  Ni29  1  0.16830256  0.16811481  0.83442372  1
  Ni  Ni30  1  0.16933374  0.50201918  0.50252224  1
  Fe  Fe31  1  0.00231461  0.33532669  0.66893751  1
  Fe  Fe32  1  0.16655632  0.50142298  0.83432840  1
  Ni  Ni33  1  0.17013125  0.83495260  0.50350740  1
  Ni  Ni34  1  1.00107468  0.66875297  0.66948892  1
  Fe  Fe35  1  0.16893097  0.83690251  0.83451199  1
  Ni  Ni36  1  0.50043910  0.16795281  0.50299627  1
  Ni  Ni37  1  0.33618892  0.00300191  0.66898421  1
  Ni  Ni38  1  0.50194214  0.16664560  0.83506949  1
  Ni  Ni39  1  0.50049926  0.50352535  0.50305528  1
  Ni  Ni40  1  0.33451896  0.33470853  0.66762246  1
  Cr  Cr41  1  0.50353799  0.50377480  0.83390946  1
  Ni  Ni42  1  0.50159183  0.83515163  0.50235179  1
  Ni  Ni43  1  0.33459253  0.66907938  0.66928867  1
  Ni  Ni44  1  0.50252928  0.83632278  0.83542008  1
  Ni  Ni45  1  0.83641036  0.16861782  0.50446783  1
  Ni  Ni46  1  0.66928067  1.00145804  0.66932133  1
  Ni  Ni47  1  0.83661026  0.16879197  0.83599202  1
  Ni  Ni48  1  0.83672825  0.50332187  0.50262390  1
  Fe  Fe49  1  0.66936655  0.33469513  0.66776433  1
  Ni  Ni50  1  0.83642904  0.50263079  0.83625404  1
  Ni  Ni51  1  0.83485592  0.83474513  0.50279676  1
  Ni  Ni52  1  0.67062250  0.67056551  0.66712873  1
  Ni  Ni53  1  0.83472067  0.83527093  0.83558699  1
" 