5888,Ni73Fe18Cr8_18,-237.279172126564, 192.049467584534,Ni73Fe18Cr8,"# generated using pymatgen
 data_Cr2Fe3Ni13
_symmetry_space_group_name_H-M   'P 1'
_cell_length_a   7.43414529
_cell_length_b   7.43414529
_cell_length_c   10.51346909
_cell_angle_alpha   90.00000000
_cell_angle_beta   90.00000000
_cell_angle_gamma   90.00000000
_symmetry_Int_Tables_number   1
_chemical_formula_structural   Cr2Fe3Ni13
_chemical_formula_sum   'Cr6 Fe9 Ni39'
_cell_volume   581.04280980
_cell_formula_units_Z   3
loop_
 _symmetry_equiv_pos_site_id
 _symmetry_equiv_pos_as_xyz
  1  'x, y, z'
loop_
 _atom_site_type_symbol
 _atom_site_label
 _atom_site_symmetry_multiplicity
 _atom_site_fract_x
 _atom_site_fract_y
 _atom_site_fract_z
 _atom_site_occupancy
  Fe  Fe0  1  0.00247950  0.00280330  0.00266360  1
  Ni  Ni1  1  0.16886560  0.16919973  0.16930297  1
  Ni  Ni2  1  1.00114909  0.00241378  0.33424920  1
  Ni  Ni3  1  0.00467449  0.33618221  1.00143569  1
  Ni  Ni4  1  0.17036498  0.50156720  0.16929133  1
  Ni  Ni5  1  0.00381367  0.33441312  0.33521687  1
  Ni  Ni6  1  0.00314773  0.66946744  1.00122240  1
  Ni  Ni7  1  0.16829314  0.83587389  0.16875669  1
  Ni  Ni8  1  0.00299042  0.66981086  0.33501444  1
  Ni  Ni9  1  0.33528220  0.00267297  1.00134237  1
  Fe  Fe10  1  0.50108028  0.16890703  0.17006688  1
  Ni  Ni11  1  0.33547560  0.00343687  0.33546963  1
  Ni  Ni12  1  0.33347256  0.33503737  1.00194785  1
  Fe  Fe13  1  0.49970396  0.50134819  0.17026126  1
  Ni  Ni14  1  0.33515934  0.33574180  0.33570746  1
  Fe  Fe15  1  0.33422553  0.66807771  1.00107556  1
  Cr  Cr16  1  0.50212757  0.83552952  0.16976370  1
  Ni  Ni17  1  0.33496216  0.66745826  0.33537361  1
  Ni  Ni18  1  0.66902589  1.00114131  1.00122206  1
  Ni  Ni19  1  0.83645902  0.16704940  0.17032313  1
  Ni  Ni20  1  0.67001379  0.00261169  0.33665175  1
  Cr  Cr21  1  0.66886371  0.33438055  1.00123439  1
  Cr  Cr22  1  0.83618985  0.50229390  0.17019605  1
  Ni  Ni23  1  0.66766224  0.33389877  0.33563117  1
  Fe  Fe24  1  0.66907993  0.67038885  1.00021580  1
  Ni  Ni25  1  0.83620657  0.83719992  0.16907177  1
  Ni  Ni26  1  0.66868458  0.67012666  0.33600264  1
  Ni  Ni27  1  0.16886860  0.17107406  0.50100470  1
  Fe  Fe28  1  0.99957145  0.00352564  0.66923856  1
  Ni  Ni29  1  0.16801144  0.16986817  0.83632880  1
  Ni  Ni30  1  0.17147963  0.50051220  0.50208697  1
  Ni  Ni31  1  0.00287147  0.33540030  0.66999051  1
  Ni  Ni32  1  0.16955143  0.50164221  0.83526143  1
  Cr  Cr33  1  0.16850456  0.83499190  0.50086504  1
  Fe  Fe34  1  1.00194609  0.66826578  0.67070900  1
  Ni  Ni35  1  0.16920590  0.83513066  0.83710886  1
  Ni  Ni36  1  0.50303726  0.17005357  0.50115407  1
  Cr  Cr37  1  0.33666453  0.00268249  0.66928233  1
  Fe  Fe38  1  0.50220838  0.16870300  0.83528272  1
  Ni  Ni39  1  0.50069490  0.50179937  0.50152462  1
  Ni  Ni40  1  0.33461587  0.33747218  0.66898151  1
  Ni  Ni41  1  0.50163096  0.50365716  0.83501301  1
  Fe  Fe42  1  0.50452142  0.83500208  0.50167337  1
  Ni  Ni43  1  0.33617461  0.66670480  0.67007962  1
  Ni  Ni44  1  0.50307851  0.83421344  0.83559264  1
  Ni  Ni45  1  0.83473293  0.16720210  0.50182885  1
  Ni  Ni46  1  0.67049182  1.00163907  0.66876437  1
  Ni  Ni47  1  0.83637106  0.16841883  0.83448589  1
  Cr  Cr48  1  0.83499547  0.50188365  0.50213222  1
  Ni  Ni49  1  0.66915054  0.33492892  0.66987994  1
  Ni  Ni50  1  0.83545463  0.50246870  0.83468047  1
  Ni  Ni51  1  0.83344273  0.83739932  0.50159232  1
  Ni  Ni52  1  0.66841553  0.67007060  0.67027356  1
  Ni  Ni53  1  0.83435253  0.83575513  0.83597195  1
" 