6424,Ni73Fe6Cr20_15,-231.632949061578, 165.429988906022,Ni73Fe6Cr20,"# generated using pymatgen
 data_Cr4FeNi13
_symmetry_space_group_name_H-M   'P 1'
_cell_length_a   7.46866352
_cell_length_b   7.46866352
_cell_length_c   10.56228524
_cell_angle_alpha   90.00000000
_cell_angle_beta   90.00000000
_cell_angle_gamma   90.00000000
_symmetry_Int_Tables_number   1
_chemical_formula_structural   Cr4FeNi13
_chemical_formula_sum   'Cr12 Fe3 Ni39'
_cell_volume   589.17414350
_cell_formula_units_Z   3
loop_
 _symmetry_equiv_pos_site_id
 _symmetry_equiv_pos_as_xyz
  1  'x, y, z'
loop_
 _atom_site_type_symbol
 _atom_site_label
 _atom_site_symmetry_multiplicity
 _atom_site_fract_x
 _atom_site_fract_y
 _atom_site_fract_z
 _atom_site_occupancy
  Cr  Cr0  1  0.99941752  0.99763563  0.99820824  1
  Cr  Cr1  1  0.16692171  0.16920954  0.16861791  1
  Ni  Ni2  1  0.00053269  0.00068602  0.33194382  1
  Cr  Cr3  1  0.99879879  0.33567891  0.99838218  1
  Ni  Ni4  1  0.16626484  0.50130294  0.16617352  1
  Ni  Ni5  1  0.99897933  0.33469262  0.33434406  1
  Ni  Ni6  1  0.99983327  0.66604299  0.99952787  1
  Ni  Ni7  1  0.16630808  0.83163041  0.16589165  1
  Ni  Ni8  1  0.99936127  0.66428424  0.33124874  1
  Ni  Ni9  1  0.33363953  0.99948394  0.99919054  1
  Cr  Cr10  1  0.49964048  0.16847213  0.16492855  1
  Ni  Ni11  1  0.33130123  0.00119708  0.33332893  1
  Ni  Ni12  1  0.33488286  0.33551168  0.99677454  1
  Ni  Ni13  1  0.50096082  0.50034441  0.16431761  1
  Ni  Ni14  1  0.33364565  0.33481732  0.33625627  1
  Fe  Fe15  1  0.33279369  0.66578506  0.00047285  1
  Ni  Ni16  1  0.50057188  0.83198756  0.16460596  1
  Cr  Cr17  1  0.33487582  0.66485469  0.33009671  1
  Ni  Ni18  1  0.66607472  0.99959289  0.99898224  1
  Ni  Ni19  1  0.83176872  0.16811751  0.16687191  1
  Cr  Cr20  1  0.66688775  0.00007986  0.33319869  1
  Ni  Ni21  1  0.66514935  0.33504551  0.99917805  1
  Ni  Ni22  1  0.83257592  0.50100561  0.16764615  1
  Ni  Ni23  1  0.66670517  0.33621440  0.33351366  1
  Ni  Ni24  1  0.66771312  0.66508497  0.00096064  1
  Ni  Ni25  1  0.83279168  0.83043322  0.16624191  1
  Ni  Ni26  1  0.66775777  0.66223692  0.33221596  1
  Ni  Ni27  1  0.16730618  0.16972814  0.49922285  1
  Cr  Cr28  1  0.99933103  0.00325068  0.67029660  1
  Ni  Ni29  1  0.16996256  0.16861419  0.83218284  1
  Ni  Ni30  1  0.16536708  0.49717174  0.50097364  1
  Ni  Ni31  1  0.00093820  0.33545457  0.66685598  1
  Ni  Ni32  1  0.16622699  0.50016010  0.83226817  1
  Cr  Cr33  1  0.16590957  0.83211941  0.50036944  1
  Ni  Ni34  1  0.00071974  0.66270431  0.66904869  1
  Ni  Ni35  1  0.16735441  0.83067979  0.83316873  1
  Ni  Ni36  1  0.49800015  0.16849906  0.50006111  1
  Ni  Ni37  1  0.33324984  0.00132748  0.66700854  1
  Ni  Ni38  1  0.49886574  0.16664567  0.83434218  1
  Ni  Ni39  1  0.50008795  0.49823487  0.50087236  1
  Fe  Fe40  1  0.33229010  0.33365672  0.66653736  1
  Fe  Fe41  1  0.50043720  0.49939366  0.83408678  1
  Cr  Cr42  1  0.50032769  0.83275570  0.50236365  1
  Ni  Ni43  1  0.33230459  0.66398396  0.66811886  1
  Cr  Cr44  1  0.50103492  0.83351594  0.83237482  1
  Ni  Ni45  1  0.83395025  0.16939530  0.49861830  1
  Ni  Ni46  1  0.66512101  0.00138427  0.66792815  1
  Ni  Ni47  1  0.83068119  0.16800341  0.83427379  1
  Ni  Ni48  1  0.83421046  0.49846808  0.49899106  1
  Cr  Cr49  1  0.66772238  0.33290679  0.66655917  1
  Ni  Ni50  1  0.83420083  0.50161076  0.83306008  1
  Cr  Cr51  1  0.83341905  0.82921716  0.50225635  1
  Ni  Ni52  1  0.66654692  0.66392524  0.66680134  1
  Ni  Ni53  1  0.83243864  0.82992326  0.83239836  1
" 