4434,Ni73Fe18Cr7_4,-238.787002765776, 198.723730176555,Ni73Fe18Cr7,"# generated using pymatgen
 data_Cr5Fe10Ni39
_symmetry_space_group_name_H-M   'P 1'
_cell_length_a   7.43307068
_cell_length_b   7.43307068
_cell_length_c   10.51194937
_cell_angle_alpha   90.00000000
_cell_angle_beta   90.00000000
_cell_angle_gamma   90.00000000
_symmetry_Int_Tables_number   1
_chemical_formula_structural   Cr5Fe10Ni39
_chemical_formula_sum   'Cr5 Fe10 Ni39'
_cell_volume   580.79087723
_cell_formula_units_Z   1
loop_
 _symmetry_equiv_pos_site_id
 _symmetry_equiv_pos_as_xyz
  1  'x, y, z'
loop_
 _atom_site_type_symbol
 _atom_site_label
 _atom_site_symmetry_multiplicity
 _atom_site_fract_x
 _atom_site_fract_y
 _atom_site_fract_z
 _atom_site_occupancy
  Ni  Ni0  1  0.00389813  0.00516885  1.00099168  1
  Ni  Ni1  1  0.16822308  0.16798035  0.16888631  1
  Ni  Ni2  1  0.00405942  0.00395030  0.33614568  1
  Ni  Ni3  1  1.00090293  0.33475746  0.00267756  1
  Ni  Ni4  1  0.16837773  0.50389426  0.16704964  1
  Fe  Fe5  1  1.00101352  0.33517393  0.33412391  1
  Fe  Fe6  1  0.00352388  0.66847142  1.00049340  1
  Ni  Ni7  1  0.16997046  0.83540696  0.16879437  1
  Fe  Fe8  1  1.00226802  0.66967771  0.33633027  1
  Ni  Ni9  1  0.33386039  1.00134747  0.00364347  1
  Ni  Ni10  1  0.50178790  0.16851808  0.16558639  1
  Ni  Ni11  1  0.33236501  1.00068470  0.33540617  1
  Fe  Fe12  1  0.33418738  0.33570337  1.00185732  1
  Ni  Ni13  1  0.50290999  0.50321693  0.16759705  1
  Cr  Cr14  1  0.33779061  0.33476141  0.33292775  1
  Ni  Ni15  1  0.33780935  0.66945281  1.00217829  1
  Ni  Ni16  1  0.50019885  0.83459684  0.16926300  1
  Ni  Ni17  1  0.33677758  0.67017383  0.33472133  1
  Fe  Fe18  1  0.66781889  1.00161040  1.00030377  1
  Ni  Ni19  1  0.83622801  0.17074648  0.16739683  1
  Cr  Cr20  1  0.66879977  0.00411460  0.33660255  1
  Fe  Fe21  1  0.66915846  0.33566970  1.00163159  1
  Ni  Ni22  1  0.83557549  0.50167452  0.16938505  1
  Ni  Ni23  1  0.67127717  0.33787566  0.33418898  1
  Ni  Ni24  1  0.66761292  0.66612759  1.00152304  1
  Cr  Cr25  1  0.83614707  0.83494913  0.16686206  1
  Ni  Ni26  1  0.66807428  0.66541861  0.33695596  1
  Ni  Ni27  1  0.16768236  0.16765753  0.50227035  1
  Ni  Ni28  1  1.00103054  0.00232469  0.66941605  1
  Ni  Ni29  1  0.16866256  0.16961217  0.83547703  1
  Cr  Cr30  1  0.16939133  0.50214756  0.50472704  1
  Fe  Fe31  1  1.00087066  0.33556517  0.67088673  1
  Fe  Fe32  1  0.16890509  0.50193090  0.83634470  1
  Ni  Ni33  1  0.16707287  0.83558398  0.50173366  1
  Ni  Ni34  1  1.00107547  0.67034784  0.67155490  1
  Fe  Fe35  1  0.16924753  0.83610655  0.83647347  1
  Ni  Ni36  1  0.50278324  0.17154342  0.50383096  1
  Cr  Cr37  1  0.33470550  0.00229630  0.66697035  1
  Ni  Ni38  1  0.50152873  0.16919985  0.83675595  1
  Ni  Ni39  1  0.50368513  0.50203753  0.50376173  1
  Ni  Ni40  1  0.33692049  0.33615590  0.67163822  1
  Ni  Ni41  1  0.50213433  0.50278676  0.83488666  1
  Fe  Fe42  1  0.50287163  0.83431435  0.50245314  1
  Ni  Ni43  1  0.33628569  0.66748420  0.67019383  1
  Ni  Ni44  1  0.50362393  0.83444013  0.83529158  1
  Ni  Ni45  1  0.83630625  0.16966490  0.50407149  1
  Ni  Ni46  1  0.67164445  0.00280805  0.67019140  1
  Ni  Ni47  1  0.83619502  0.16846234  0.83530258  1
  Ni  Ni48  1  0.83383473  0.50259303  0.50232786  1
  Ni  Ni49  1  0.66907709  0.33631888  0.66953907  1
  Ni  Ni50  1  0.83474429  0.50314610  0.83538039  1
  Ni  Ni51  1  0.83739983  0.83493967  0.50426817  1
  Ni  Ni52  1  0.66973864  0.66766768  0.66822641  1
  Ni  Ni53  1  0.83538465  0.83515943  0.83592116  1
" 