2466,Ni73Fe6Cr20_8,-231.54751670592, 165.463403915629,Ni73Fe6Cr20,"# generated using pymatgen
 data_Cr4FeNi13
_symmetry_space_group_name_H-M   'P 1'
_cell_length_a   7.46696494
_cell_length_b   7.46696494
_cell_length_c   10.55988308
_cell_angle_alpha   90.00000000
_cell_angle_beta   90.00000000
_cell_angle_gamma   90.00000000
_symmetry_Int_Tables_number   1
_chemical_formula_structural   Cr4FeNi13
_chemical_formula_sum   'Cr12 Fe3 Ni39'
_cell_volume   588.77225142
_cell_formula_units_Z   3
loop_
 _symmetry_equiv_pos_site_id
 _symmetry_equiv_pos_as_xyz
  1  'x, y, z'
loop_
 _atom_site_type_symbol
 _atom_site_label
 _atom_site_symmetry_multiplicity
 _atom_site_fract_x
 _atom_site_fract_y
 _atom_site_fract_z
 _atom_site_occupancy
  Cr  Cr0  1  0.99768809  0.00042995  0.00011043  1
  Ni  Ni1  1  0.16657020  0.16900100  0.16792763  1
  Cr  Cr2  1  0.99984063  0.00104084  0.33252497  1
  Ni  Ni3  1  0.00006441  0.33311073  0.00072132  1
  Cr  Cr4  1  0.16558505  0.49795480  0.16453877  1
  Fe  Fe5  1  0.99764332  0.33109221  0.33322008  1
  Ni  Ni6  1  0.00016495  0.66664117  0.99989315  1
  Fe  Fe7  1  0.16670169  0.83435575  0.16587442  1
  Cr  Cr8  1  0.99624296  0.66816997  0.33376839  1
  Cr  Cr9  1  0.33240411  0.99856684  0.99974327  1
  Cr  Cr10  1  0.50036404  0.16539760  0.16750342  1
  Ni  Ni11  1  0.33336573  0.00172599  0.33475292  1
  Ni  Ni12  1  0.33248383  0.33676140  0.99897255  1
  Fe  Fe13  1  0.50334051  0.50020111  0.16577003  1
  Ni  Ni14  1  0.33516233  0.33050197  0.33416757  1
  Ni  Ni15  1  0.33441436  0.66495600  0.99904889  1
  Ni  Ni16  1  0.50264995  0.83267305  0.16672237  1
  Cr  Cr17  1  0.33675515  0.66799239  0.33368088  1
  Ni  Ni18  1  0.66911374  0.99838523  0.00019210  1
  Ni  Ni19  1  0.83310012  0.16830752  0.16612076  1
  Ni  Ni20  1  0.66625822  0.99990655  0.33387386  1
  Ni  Ni21  1  0.66751723  0.33475701  0.00087073  1
  Ni  Ni22  1  0.83250397  0.50006880  0.16631037  1
  Ni  Ni23  1  0.66663698  0.33434534  0.33447662  1
  Ni  Ni24  1  0.66548263  0.66686049  0.00150846  1
  Ni  Ni25  1  0.82918486  0.83165876  0.16548459  1
  Ni  Ni26  1  0.66666272  0.66570679  0.33341851  1
  Ni  Ni27  1  0.16760134  0.16520604  0.49942245  1
  Ni  Ni28  1  0.99995872  0.99997329  0.66689271  1
  Ni  Ni29  1  0.16471535  0.16819045  0.83264959  1
  Cr  Cr30  1  0.16377335  0.49855706  0.50063766  1
  Ni  Ni31  1  0.99804886  0.33083060  0.66613428  1
  Ni  Ni32  1  0.16641650  0.50008412  0.83560598  1
  Ni  Ni33  1  0.16713613  0.83662757  0.50111745  1
  Ni  Ni34  1  0.99827645  0.66920914  0.66664701  1
  Ni  Ni35  1  0.16624162  0.83175049  0.83300363  1
  Ni  Ni36  1  0.50040386  0.16509020  0.49868650  1
  Ni  Ni37  1  0.33145809  0.99906722  0.66480880  1
  Cr  Cr38  1  0.50211164  0.16551807  0.83331464  1
  Ni  Ni39  1  0.50433840  0.49912154  0.49810715  1
  Cr  Cr40  1  0.33446974  0.33242562  0.66736777  1
  Ni  Ni41  1  0.49922686  0.50194027  0.83644318  1
  Ni  Ni42  1  0.50186911  0.83579025  0.49974550  1
  Cr  Cr43  1  0.33471650  0.66827962  0.66782472  1
  Ni  Ni44  1  0.50150357  0.83202607  0.83350394  1
  Ni  Ni45  1  0.83198542  0.16770956  0.50067480  1
  Ni  Ni46  1  0.66860898  0.99930556  0.66592327  1
  Ni  Ni47  1  0.83419815  0.16582677  0.83320300  1
  Ni  Ni48  1  0.83103031  0.49962015  0.50038313  1
  Ni  Ni49  1  0.66868038  0.33344197  0.66463920  1
  Cr  Cr50  1  0.83457936  0.50040165  0.83279108  1
  Ni  Ni51  1  0.83101621  0.83266298  0.50176895  1
  Ni  Ni52  1  0.66776277  0.66726072  0.66506071  1
  Ni  Ni53  1  0.83226948  0.83381268  0.83274474  1
" 