1465,Ni73Fe18Cr7_5,-238.369124564521, 199.023931940887,Ni73Fe18Cr7,"# generated using pymatgen
 data_Cr5Fe10Ni39
_symmetry_space_group_name_H-M   'P 1'
_cell_length_a   7.43197218
_cell_length_b   7.43197218
_cell_length_c   10.51039585
_cell_angle_alpha   90.00000000
_cell_angle_beta   90.00000000
_cell_angle_gamma   90.00000000
_symmetry_Int_Tables_number   1
_chemical_formula_structural   Cr5Fe10Ni39
_chemical_formula_sum   'Cr5 Fe10 Ni39'
_cell_volume   580.53341664
_cell_formula_units_Z   1
loop_
 _symmetry_equiv_pos_site_id
 _symmetry_equiv_pos_as_xyz
  1  'x, y, z'
loop_
 _atom_site_type_symbol
 _atom_site_label
 _atom_site_symmetry_multiplicity
 _atom_site_fract_x
 _atom_site_fract_y
 _atom_site_fract_z
 _atom_site_occupancy
  Fe  Fe0  1  0.00266991  0.00338934  0.00248142  1
  Ni  Ni1  1  0.16813285  0.16845598  0.16787253  1
  Ni  Ni2  1  1.00157188  1.00183144  0.33493054  1
  Ni  Ni3  1  1.00125013  0.33369841  0.00242907  1
  Cr  Cr4  1  0.17005194  0.50192705  0.16885628  1
  Fe  Fe5  1  1.00031448  0.33448560  0.33645379  1
  Fe  Fe6  1  1.00216433  0.67019513  1.00211125  1
  Fe  Fe7  1  0.16801099  0.83622370  0.16832038  1
  Ni  Ni8  1  1.00111971  0.67020081  0.33637781  1
  Ni  Ni9  1  0.33469685  0.00236419  1.00160886  1
  Fe  Fe10  1  0.50424532  0.16975385  0.16787657  1
  Cr  Cr11  1  0.33478463  0.00278186  0.33633820  1
  Ni  Ni12  1  0.33626807  0.33373549  0.00286496  1
  Ni  Ni13  1  0.50250258  0.50249397  0.16966246  1
  Fe  Fe14  1  0.33683082  0.33630402  0.33688439  1
  Ni  Ni15  1  0.33548273  0.67098289  0.00317517  1
  Ni  Ni16  1  0.50318085  0.83524456  0.16894979  1
  Fe  Fe17  1  0.33712931  0.66863246  0.33646512  1
  Ni  Ni18  1  0.66882407  0.00391206  0.00303008  1
  Ni  Ni19  1  0.83574287  0.16778183  0.16898739  1
  Ni  Ni20  1  0.67096188  1.00235056  0.33551422  1
  Ni  Ni21  1  0.66956304  0.33448451  1.00223677  1
  Ni  Ni22  1  0.83438601  0.50199518  0.16953660  1
  Ni  Ni23  1  0.66912152  0.33656841  0.33503931  1
  Cr  Cr24  1  0.66905950  0.66804224  1.00202295  1
  Ni  Ni25  1  0.83526669  0.83730187  0.17012719  1
  Ni  Ni26  1  0.66989332  0.66816041  0.33566048  1
  Ni  Ni27  1  0.16948815  0.17047256  0.50280582  1
  Cr  Cr28  1  0.00252792  0.00296259  0.66879884  1
  Ni  Ni29  1  0.17048491  0.16796155  0.83639603  1
  Ni  Ni30  1  0.16975926  0.50282731  0.50260962  1
  Ni  Ni31  1  1.00214249  0.33639545  0.66751892  1
  Cr  Cr32  1  0.16963086  0.50240464  0.83534044  1
  Ni  Ni33  1  0.16840249  0.83378090  0.50175823  1
  Ni  Ni34  1  1.00194193  0.66828755  0.66867441  1
  Ni  Ni35  1  0.16948721  0.83621735  0.83762400  1
  Ni  Ni36  1  0.50308423  0.17007714  0.50282518  1
  Fe  Fe37  1  0.33689234  0.00282825  0.66932003  1
  Ni  Ni38  1  0.50255147  0.16927195  0.83647995  1
  Ni  Ni39  1  0.50160025  0.50201082  0.50205610  1
  Ni  Ni40  1  0.33619212  0.33536179  0.66811706  1
  Ni  Ni41  1  0.50281975  0.50110515  0.83536230  1
  Fe  Fe42  1  0.50363181  0.83492261  0.50271512  1
  Ni  Ni43  1  0.33631156  0.66923617  0.66778794  1
  Fe  Fe44  1  0.50192084  0.83676738  0.83561854  1
  Ni  Ni45  1  0.83450923  0.16871829  0.50141738  1
  Ni  Ni46  1  0.66779458  1.00228117  0.66853739  1
  Ni  Ni47  1  0.83404375  0.16903055  0.83666877  1
  Ni  Ni48  1  0.83572082  0.50309644  0.50257565  1
  Ni  Ni49  1  0.66874396  0.33607405  0.66980457  1
  Ni  Ni50  1  0.83452753  0.50210145  0.83496385  1
  Ni  Ni51  1  0.83532670  0.83526447  0.50111157  1
  Ni  Ni52  1  0.66882688  0.66872386  0.66888956  1
  Ni  Ni53  1  0.83583807  0.83594812  0.83583651  1
" 