1378,Ni73Fe18Cr8_9,-237.688046165321, 194.606809284873,Ni73Fe18Cr8,"# generated using pymatgen
 data_Cr2Fe3Ni13
_symmetry_space_group_name_H-M   'P 1'
_cell_length_a   7.43620543
_cell_length_b   7.43620543
_cell_length_c   10.51638258
_cell_angle_alpha   90.00000000
_cell_angle_beta   90.00000000
_cell_angle_gamma   90.00000000
_symmetry_Int_Tables_number   1
_chemical_formula_structural   Cr2Fe3Ni13
_chemical_formula_sum   'Cr6 Fe9 Ni39'
_cell_volume   581.52599827
_cell_formula_units_Z   3
loop_
 _symmetry_equiv_pos_site_id
 _symmetry_equiv_pos_as_xyz
  1  'x, y, z'
loop_
 _atom_site_type_symbol
 _atom_site_label
 _atom_site_symmetry_multiplicity
 _atom_site_fract_x
 _atom_site_fract_y
 _atom_site_fract_z
 _atom_site_occupancy
  Fe  Fe0  1  0.00463924  0.00272295  0.00324557  1
  Fe  Fe1  1  0.17017990  0.17004867  0.16953186  1
  Ni  Ni2  1  0.00220090  0.00341945  0.33491320  1
  Ni  Ni3  1  1.00165601  0.33517991  1.00131188  1
  Ni  Ni4  1  0.16781244  0.50240348  0.16940131  1
  Ni  Ni5  1  0.00240851  0.33550864  0.33657045  1
  Ni  Ni6  1  0.00237283  0.66770162  0.00491312  1
  Ni  Ni7  1  0.16855989  0.83620350  0.16896522  1
  Fe  Fe8  1  0.00447035  0.66920544  0.33564878  1
  Ni  Ni9  1  0.33405737  0.00219494  1.00194767  1
  Ni  Ni10  1  0.50185135  0.16902521  0.16983674  1
  Ni  Ni11  1  0.33521311  1.00183925  0.33564925  1
  Ni  Ni12  1  0.33401824  0.33296110  0.00384607  1
  Ni  Ni13  1  0.50151563  0.50033254  0.16740015  1
  Ni  Ni14  1  0.33329038  0.33581420  0.33554249  1
  Ni  Ni15  1  0.33462292  0.67124609  0.00370510  1
  Ni  Ni16  1  0.49967818  0.83665459  0.16856890  1
  Ni  Ni17  1  0.33429609  0.66863245  0.33595298  1
  Cr  Cr18  1  0.66658405  0.00252494  0.00222266  1
  Fe  Fe19  1  0.83620417  0.17014304  0.16952677  1
  Ni  Ni20  1  0.66912233  0.00275714  0.33632898  1
  Ni  Ni21  1  0.67082411  0.33524342  0.00349548  1
  Ni  Ni22  1  0.83691808  0.50034321  0.16720900  1
  Fe  Fe23  1  0.66784684  0.33413201  0.33492438  1
  Ni  Ni24  1  0.66942132  0.66778162  0.00275468  1
  Fe  Fe25  1  0.83549353  0.83443637  0.16970208  1
  Cr  Cr26  1  0.66758997  0.66924893  0.33576424  1
  Ni  Ni27  1  0.16972970  0.16817025  0.50153831  1
  Fe  Fe28  1  0.00378810  1.00191146  0.66742609  1
  Ni  Ni29  1  0.16876547  0.16679328  0.83631532  1
  Ni  Ni30  1  0.16826597  0.50147185  0.50138973  1
  Fe  Fe31  1  0.00343704  0.33477705  0.66798696  1
  Cr  Cr32  1  0.16746401  0.50320118  0.83517618  1
  Ni  Ni33  1  0.16831045  0.83656669  0.50162808  1
  Ni  Ni34  1  0.00209644  0.66824119  0.66592936  1
  Ni  Ni35  1  0.16952885  0.83728920  0.83550191  1
  Ni  Ni36  1  0.50057316  0.16730616  0.50056417  1
  Ni  Ni37  1  0.33544179  0.00270419  0.66892288  1
  Ni  Ni38  1  0.50085507  0.16739067  0.83563620  1
  Ni  Ni39  1  0.50074970  0.50114803  0.50149236  1
  Ni  Ni40  1  0.33303140  0.33274115  0.66700028  1
  Cr  Cr41  1  0.50291703  0.50313139  0.83766117  1
  Ni  Ni42  1  0.50178447  0.83748974  0.50337834  1
  Ni  Ni43  1  0.33430601  0.67092012  0.66645041  1
  Ni  Ni44  1  0.49987714  0.83701759  0.83419415  1
  Fe  Fe45  1  0.83634179  0.16719135  0.50099461  1
  Ni  Ni46  1  0.66802713  1.00150398  0.66731248  1
  Ni  Ni47  1  0.83718521  0.16962902  0.83506268  1
  Ni  Ni48  1  0.83737133  0.50269289  0.50229621  1
  Cr  Cr49  1  0.66934145  0.33418792  0.66771210  1
  Ni  Ni50  1  0.83679180  0.50111088  0.83652494  1
  Ni  Ni51  1  0.83652363  0.83612010  0.50175484  1
  Ni  Ni52  1  0.66984764  0.67040869  0.66794126  1
  Cr  Cr53  1  0.83678484  0.83316364  0.83531431  1
" 