3403,Ni73Fe18Cr7_12,-238.305636605275, 194.696942962317,Ni73Fe18Cr7,"# generated using pymatgen
 data_Cr5Fe10Ni39
_symmetry_space_group_name_H-M   'P 1'
_cell_length_a   7.43288367
_cell_length_b   7.43288367
_cell_length_c   10.51168489
_cell_angle_alpha   90.00000000
_cell_angle_beta   90.00000000
_cell_angle_gamma   90.00000000
_symmetry_Int_Tables_number   1
_chemical_formula_structural   Cr5Fe10Ni39
_chemical_formula_sum   'Cr5 Fe10 Ni39'
_cell_volume   580.74703952
_cell_formula_units_Z   1
loop_
 _symmetry_equiv_pos_site_id
 _symmetry_equiv_pos_as_xyz
  1  'x, y, z'
loop_
 _atom_site_type_symbol
 _atom_site_label
 _atom_site_symmetry_multiplicity
 _atom_site_fract_x
 _atom_site_fract_y
 _atom_site_fract_z
 _atom_site_occupancy
  Ni  Ni0  1  0.99997950  1.00177826  1.00153966  1
  Ni  Ni1  1  0.16760755  0.17001861  0.16950949  1
  Ni  Ni2  1  1.00181412  1.00198839  0.33538898  1
  Ni  Ni3  1  0.00433490  0.33517909  0.00267001  1
  Ni  Ni4  1  0.16825935  0.50189904  0.16907586  1
  Ni  Ni5  1  0.00404980  0.33542678  0.33582858  1
  Ni  Ni6  1  0.00480967  0.66994010  0.00269065  1
  Ni  Ni7  1  0.16841179  0.83498016  0.17032349  1
  Ni  Ni8  1  0.00361298  0.66947801  0.33607336  1
  Cr  Cr9  1  0.33579736  1.00171951  1.00160191  1
  Ni  Ni10  1  0.50147685  0.16782951  0.17011636  1
  Fe  Fe11  1  0.33552235  1.00223541  0.33539597  1
  Ni  Ni12  1  0.33483428  0.33865570  1.00142614  1
  Ni  Ni13  1  0.50106133  0.50431839  0.16890916  1
  Ni  Ni14  1  0.33477172  0.33673028  0.33553872  1
  Ni  Ni15  1  0.33463835  0.66673023  1.00202950  1
  Ni  Ni16  1  0.50310085  0.83474982  0.17015543  1
  Ni  Ni17  1  0.33541700  0.66839209  0.33521232  1
  Ni  Ni18  1  0.67093247  1.00197246  1.00175015  1
  Ni  Ni19  1  0.83780809  0.16798157  0.16935180  1
  Ni  Ni20  1  0.66916460  1.00134243  0.33553879  1
  Cr  Cr21  1  0.66762823  0.33325490  0.00382720  1
  Ni  Ni22  1  0.83757561  0.50352146  0.16933404  1
  Cr  Cr23  1  0.66841652  0.33466631  0.33511571  1
  Fe  Fe24  1  0.66802078  0.67110357  0.00344193  1
  Fe  Fe25  1  0.83579363  0.83598202  0.16923781  1
  Ni  Ni26  1  0.66787199  0.67061741  0.33622165  1
  Ni  Ni27  1  0.16938826  0.16903321  0.50194454  1
  Ni  Ni28  1  1.00112279  1.00164759  0.66996921  1
  Ni  Ni29  1  0.16824444  0.16960687  0.83543079  1
  Fe  Fe30  1  0.16856051  0.50182512  0.50093864  1
  Fe  Fe31  1  0.00233972  0.33442482  0.66847200  1
  Ni  Ni32  1  0.16964535  0.50125797  0.83679579  1
  Fe  Fe33  1  0.16797076  0.83604697  0.50148358  1
  Ni  Ni34  1  0.00297112  0.67061495  0.66813631  1
  Ni  Ni35  1  0.16716035  0.83602867  0.83514406  1
  Ni  Ni36  1  0.50018777  0.16799770  0.50302069  1
  Fe  Fe37  1  0.33580723  0.00391987  0.66927705  1
  Ni  Ni38  1  0.50173266  0.16857057  0.83375099  1
  Ni  Ni39  1  0.50351239  0.50256808  0.50210641  1
  Fe  Fe40  1  0.33598396  0.33347196  0.66918855  1
  Ni  Ni41  1  0.50052454  0.50248200  0.83587563  1
  Ni  Ni42  1  0.50415791  0.83633034  0.50117769  1
  Cr  Cr43  1  0.33447355  0.66876564  0.66971482  1
  Ni  Ni44  1  0.50405486  0.83584335  0.83555830  1
  Fe  Fe45  1  0.83531438  0.16775382  0.50308903  1
  Ni  Ni46  1  0.66968375  0.00443427  0.66960714  1
  Ni  Ni47  1  0.83691170  0.16609099  0.83429423  1
  Ni  Ni48  1  0.83627022  0.50445150  0.50307685  1
  Ni  Ni49  1  0.66745064  0.33333973  0.66803663  1
  Cr  Cr50  1  0.83660667  0.50358845  0.83503540  1
  Ni  Ni51  1  0.83522603  0.83405515  0.50198578  1
  Fe  Fe52  1  0.67040077  0.67021671  0.66741187  1
  Ni  Ni53  1  0.83568674  0.83724291  0.83627412  1
" 