6548,Ni73Fe18Cr8_4,-237.718830363354, 193.369050104839,Ni73Fe18Cr8,"# generated using pymatgen
 data_Cr2Fe3Ni13
_symmetry_space_group_name_H-M   'P 1'
_cell_length_a   7.44080009
_cell_length_b   7.44080009
_cell_length_c   10.52288040
_cell_angle_alpha   90.00000000
_cell_angle_beta   90.00000000
_cell_angle_gamma   90.00000000
_symmetry_Int_Tables_number   1
_chemical_formula_structural   Cr2Fe3Ni13
_chemical_formula_sum   'Cr6 Fe9 Ni39'
_cell_volume   582.60459816
_cell_formula_units_Z   3
loop_
 _symmetry_equiv_pos_site_id
 _symmetry_equiv_pos_as_xyz
  1  'x, y, z'
loop_
 _atom_site_type_symbol
 _atom_site_label
 _atom_site_symmetry_multiplicity
 _atom_site_fract_x
 _atom_site_fract_y
 _atom_site_fract_z
 _atom_site_occupancy
  Ni  Ni0  1  0.00224849  0.00383073  0.00394037  1
  Ni  Ni1  1  0.16746692  0.16951297  0.16786137  1
  Fe  Fe2  1  0.00232780  0.00397737  0.33524758  1
  Ni  Ni3  1  1.00006654  0.33416203  1.00127828  1
  Ni  Ni4  1  0.16944291  0.50051423  0.16949225  1
  Ni  Ni5  1  1.00079898  0.33648359  0.33523006  1
  Cr  Cr6  1  0.00449044  0.66588438  1.00123524  1
  Ni  Ni7  1  0.16726433  0.83551072  0.16797855  1
  Fe  Fe8  1  1.00160976  0.66736533  0.33488069  1
  Ni  Ni9  1  0.33539398  1.00074077  1.00053502  1
  Ni  Ni10  1  0.50253358  0.17066672  0.16724225  1
  Cr  Cr11  1  0.33752272  0.00310383  0.33561043  1
  Fe  Fe12  1  0.33435493  0.33404062  0.00200461  1
  Ni  Ni13  1  0.50168244  0.50000282  0.16850762  1
  Ni  Ni14  1  0.33558419  0.33678845  0.33427758  1
  Ni  Ni15  1  0.33532671  0.66797746  1.00106568  1
  Cr  Cr16  1  0.50252798  0.83351066  0.16716782  1
  Ni  Ni17  1  0.33286203  0.66722673  0.33578929  1
  Ni  Ni18  1  0.66752441  0.00514218  0.00247704  1
  Ni  Ni19  1  0.83528438  0.16855231  0.16870091  1
  Ni  Ni20  1  0.67059331  0.00340766  0.33550949  1
  Ni  Ni21  1  0.66905623  0.33395964  0.00183012  1
  Ni  Ni22  1  0.83350763  0.50050697  0.16877003  1
  Ni  Ni23  1  0.66889587  0.33315482  0.33535656  1
  Fe  Fe24  1  0.66811176  0.66727913  1.00111164  1
  Ni  Ni25  1  0.83562158  0.83637140  0.17012985  1
  Fe  Fe26  1  0.66758137  0.66596926  0.33586265  1
  Ni  Ni27  1  0.16857839  0.16872508  0.50188598  1
  Ni  Ni28  1  1.00161126  0.00234372  0.66718223  1
  Ni  Ni29  1  0.16798341  0.16704749  0.83536209  1
  Ni  Ni30  1  0.17059914  0.50177157  0.50022553  1
  Cr  Cr31  1  1.00101902  0.33455692  0.66922645  1
  Ni  Ni32  1  0.17251091  0.49986307  0.83538849  1
  Ni  Ni33  1  0.16850624  0.83544009  0.50252822  1
  Cr  Cr34  1  0.00388301  0.66721637  0.66935799  1
  Ni  Ni35  1  0.17189670  0.83795849  0.83498062  1
  Ni  Ni36  1  0.50281555  0.17051625  0.50309556  1
  Fe  Fe37  1  0.33538626  0.00293316  0.66839910  1
  Fe  Fe38  1  0.50197423  0.16893091  0.83503602  1
  Ni  Ni39  1  0.50172209  0.50129660  0.50136742  1
  Ni  Ni40  1  0.33692232  0.33640777  0.66806509  1
  Ni  Ni41  1  0.50174727  0.50245568  0.83516708  1
  Fe  Fe42  1  0.50205084  0.83461874  0.50275023  1
  Ni  Ni43  1  0.33638741  0.66852995  0.66811599  1
  Ni  Ni44  1  0.50021175  0.83438571  0.83399775  1
  Ni  Ni45  1  0.83422397  0.16783490  0.50136935  1
  Ni  Ni46  1  0.66734780  0.00321552  0.66751916  1
  Ni  Ni47  1  0.83506624  0.16848070  0.83553180  1
  Ni  Ni48  1  0.83232231  0.50092558  0.50130833  1
  Ni  Ni49  1  0.66659556  0.33417396  0.66823805  1
  Ni  Ni50  1  0.83090489  0.49854732  0.83514233  1
  Fe  Fe51  1  0.83440540  0.83569741  0.50150764  1
  Ni  Ni52  1  0.66540813  0.66777822  0.66784712  1
  Cr  Cr53  1  0.83348149  0.83794885  0.83555423  1
" 