6758,Ni73Fe6Cr20_6,-231.441866131624, 160.962470015228,Ni73Fe6Cr20,"# generated using pymatgen
 data_Cr4FeNi13
_symmetry_space_group_name_H-M   'P 1'
_cell_length_a   7.46971076
_cell_length_b   7.46971076
_cell_length_c   10.56376626
_cell_angle_alpha   90.00000000
_cell_angle_beta   90.00000000
_cell_angle_gamma   90.00000000
_symmetry_Int_Tables_number   1
_chemical_formula_structural   Cr4FeNi13
_chemical_formula_sum   'Cr12 Fe3 Ni39'
_cell_volume   589.42201690
_cell_formula_units_Z   3
loop_
 _symmetry_equiv_pos_site_id
 _symmetry_equiv_pos_as_xyz
  1  'x, y, z'
loop_
 _atom_site_type_symbol
 _atom_site_label
 _atom_site_symmetry_multiplicity
 _atom_site_fract_x
 _atom_site_fract_y
 _atom_site_fract_z
 _atom_site_occupancy
  Cr  Cr0  1  0.00225255  0.00075156  0.00262425  1
  Ni  Ni1  1  0.16745357  0.16780739  0.16686688  1
  Ni  Ni2  1  0.00285653  0.00066362  0.33042285  1
  Ni  Ni3  1  0.00076462  0.33419123  0.00213449  1
  Ni  Ni4  1  0.16449634  0.50011707  0.16639865  1
  Ni  Ni5  1  0.00017654  0.33344271  0.33223198  1
  Ni  Ni6  1  0.99803915  0.66538938  0.00149574  1
  Ni  Ni7  1  0.16798169  0.83190338  0.16630394  1
  Ni  Ni8  1  0.00296705  0.66499842  0.33207853  1
  Ni  Ni9  1  0.33377330  0.00108305  0.99949062  1
  Ni  Ni10  1  0.49813436  0.16561056  0.16751675  1
  Ni  Ni11  1  0.33120369  0.00084769  0.33160596  1
  Ni  Ni12  1  0.33200934  0.33077188  0.00090641  1
  Cr  Cr13  1  0.49624592  0.49986583  0.16465294  1
  Fe  Fe14  1  0.33147886  0.33183738  0.33323941  1
  Ni  Ni15  1  0.33359654  0.66782907  0.00007459  1
  Ni  Ni16  1  0.49736943  0.83436395  0.16665946  1
  Ni  Ni17  1  0.32955534  0.66697085  0.33328461  1
  Cr  Cr18  1  0.66603010  0.99851820  0.00295318  1
  Ni  Ni19  1  0.83383964  0.16855340  0.16894836  1
  Ni  Ni20  1  0.66521607  0.00355209  0.32932732  1
  Fe  Fe21  1  0.66667269  0.33354445  0.00009148  1
  Ni  Ni22  1  0.83536570  0.49883927  0.16473063  1
  Ni  Ni23  1  0.66722822  0.33172959  0.33273771  1
  Ni  Ni24  1  0.66749042  0.66619458  0.99913551  1
  Ni  Ni25  1  0.83437490  0.83214655  0.16860070  1
  Cr  Cr26  1  0.66790709  0.66475294  0.33244723  1
  Ni  Ni27  1  0.16661437  0.16527419  0.49910474  1
  Ni  Ni28  1  0.00369600  0.99940700  0.66780075  1
  Ni  Ni29  1  0.16841635  0.16598983  0.83316657  1
  Ni  Ni30  1  0.16429657  0.50000248  0.49668965  1
  Ni  Ni31  1  0.00009437  0.33408344  0.66548451  1
  Cr  Cr32  1  0.16509519  0.49820531  0.83676543  1
  Ni  Ni33  1  0.16604203  0.83406062  0.49988719  1
  Ni  Ni34  1  0.99969863  0.66562952  0.66626483  1
  Fe  Fe35  1  0.16645777  0.83343685  0.83411163  1
  Ni  Ni36  1  0.49888245  0.16713276  0.49889558  1
  Ni  Ni37  1  0.33199839  0.00134721  0.66829360  1
  Ni  Ni38  1  0.49785807  0.16629603  0.83317971  1
  Ni  Ni39  1  0.49925495  0.49627391  0.49715846  1
  Cr  Cr40  1  0.33321848  0.33218580  0.66341461  1
  Ni  Ni41  1  0.50089691  0.49909997  0.83655128  1
  Cr  Cr42  1  0.49787507  0.83715413  0.49698324  1
  Cr  Cr43  1  0.33214646  0.66675052  0.66544027  1
  Ni  Ni44  1  0.49949166  0.83408734  0.83469189  1
  Cr  Cr45  1  0.83295726  0.16587006  0.50085352  1
  Ni  Ni46  1  0.66406373  0.00129194  0.66796294  1
  Cr  Cr47  1  0.83539573  0.16826346  0.83066206  1
  Ni  Ni48  1  0.83562256  0.49724019  0.50069823  1
  Ni  Ni49  1  0.66585921  0.33330227  0.66738049  1
  Ni  Ni50  1  0.83338570  0.50118691  0.83417578  1
  Cr  Cr51  1  0.83686083  0.83526066  0.49926193  1
  Cr  Cr52  1  0.66627453  0.66372800  0.66681935  1
  Ni  Ni53  1  0.83344084  0.83153728  0.83171534  1
" 