3026,Ni73Fe18Cr8_16,-237.673298551597, 194.2910570512,Ni73Fe18Cr8,"# generated using pymatgen
 data_Cr2Fe3Ni13
_symmetry_space_group_name_H-M   'P 1'
_cell_length_a   7.43851519
_cell_length_b   7.43851519
_cell_length_c   10.51964907
_cell_angle_alpha   90.00000000
_cell_angle_beta   90.00000000
_cell_angle_gamma   90.00000000
_symmetry_Int_Tables_number   1
_chemical_formula_structural   Cr2Fe3Ni13
_chemical_formula_sum   'Cr6 Fe9 Ni39'
_cell_volume   582.06804950
_cell_formula_units_Z   3
loop_
 _symmetry_equiv_pos_site_id
 _symmetry_equiv_pos_as_xyz
  1  'x, y, z'
loop_
 _atom_site_type_symbol
 _atom_site_label
 _atom_site_symmetry_multiplicity
 _atom_site_fract_x
 _atom_site_fract_y
 _atom_site_fract_z
 _atom_site_occupancy
  Ni  Ni0  1  1.00059813  1.00183526  1.00009872  1
  Cr  Cr1  1  0.16870417  0.16997462  0.16727892  1
  Ni  Ni2  1  1.00095751  0.00211117  0.33714046  1
  Ni  Ni3  1  1.00063978  0.33542190  0.00207693  1
  Ni  Ni4  1  0.16873825  0.50203275  0.16925903  1
  Fe  Fe5  1  1.00116779  0.33566870  0.33543378  1
  Ni  Ni6  1  1.00045033  0.66849594  0.00322107  1
  Cr  Cr7  1  0.16828290  0.83366807  0.16780132  1
  Fe  Fe8  1  0.00239558  0.66851926  0.33625851  1
  Ni  Ni9  1  0.33639758  0.00208289  1.00030455  1
  Ni  Ni10  1  0.50396671  0.16886626  0.16847587  1
  Ni  Ni11  1  0.33612705  1.00165761  0.33742428  1
  Ni  Ni12  1  0.33665197  0.33547572  0.00298217  1
  Ni  Ni13  1  0.50097158  0.50101455  0.16711084  1
  Fe  Fe14  1  0.33577073  0.33453641  0.33533577  1
  Ni  Ni15  1  0.33659456  0.66819605  0.00202540  1
  Ni  Ni16  1  0.50314693  0.83587214  0.16775231  1
  Ni  Ni17  1  0.33337134  0.66860107  0.33569056  1
  Ni  Ni18  1  0.66876055  1.00189343  0.00308512  1
  Ni  Ni19  1  0.83329390  0.16842385  0.16893658  1
  Ni  Ni20  1  0.66866924  0.00389155  0.33523174  1
  Ni  Ni21  1  0.66845957  0.33562211  0.00200184  1
  Ni  Ni22  1  0.83604299  0.50121318  0.16672166  1
  Ni  Ni23  1  0.66943967  0.33305961  0.33456131  1
  Ni  Ni24  1  0.66870668  0.66823826  1.00189233  1
  Ni  Ni25  1  0.83430890  0.83611742  0.16751360  1
  Cr  Cr26  1  0.66889268  0.66908355  0.33419235  1
  Ni  Ni27  1  0.16893228  0.16822200  0.50294638  1
  Ni  Ni28  1  0.00433113  1.00098840  0.66851552  1
  Fe  Fe29  1  0.16926190  0.16653880  0.83511457  1
  Ni  Ni30  1  0.16665082  0.50183178  0.50104966  1
  Fe  Fe31  1  1.00123749  0.33457590  0.66781573  1
  Cr  Cr32  1  0.16926391  0.50175850  0.83561548  1
  Ni  Ni33  1  0.16787990  0.83569937  0.50266446  1
  Ni  Ni34  1  1.00064427  0.66942597  0.66657160  1
  Fe  Fe35  1  0.16873275  0.83729283  0.83516216  1
  Ni  Ni36  1  0.50061439  0.16755544  0.50108848  1
  Ni  Ni37  1  0.33299135  0.00279967  0.66802355  1
  Ni  Ni38  1  0.50156956  0.16939947  0.83618853  1
  Cr  Cr39  1  0.50146107  0.50107359  0.50370902  1
  Ni  Ni40  1  0.33571925  0.33356639  0.66782554  1
  Ni  Ni41  1  0.50258667  0.50165636  0.83513515  1
  Ni  Ni42  1  0.50060289  0.83743325  0.50205947  1
  Fe  Fe43  1  0.33561413  0.67013041  0.66828053  1
  Ni  Ni44  1  0.50187262  0.83469867  0.83594064  1
  Fe  Fe45  1  0.83600771  0.16879667  0.50093368  1
  Cr  Cr46  1  0.66817957  1.00172551  0.66724365  1
  Ni  Ni47  1  0.83587694  0.16814978  0.83593411  1
  Ni  Ni48  1  0.83793741  0.50181832  0.50400264  1
  Ni  Ni49  1  0.66839431  0.33725235  0.66919266  1
  Fe  Fe50  1  0.83229319  0.50215824  0.83525175  1
  Ni  Ni51  1  0.83726964  0.83515174  0.50185646  1
  Ni  Ni52  1  0.67020574  0.66669903  0.66925563  1
  Ni  Ni53  1  0.83592777  0.83559397  0.83638163  1
" 