2357,Ni73Fe18Cr7_17,-238.860994008012, 199.871435188994,Ni73Fe18Cr7,"# generated using pymatgen
 data_Cr5Fe10Ni39
_symmetry_space_group_name_H-M   'P 1'
_cell_length_a   7.43494889
_cell_length_b   7.43494889
_cell_length_c   10.51460556
_cell_angle_alpha   90.00000000
_cell_angle_beta   90.00000000
_cell_angle_gamma   90.00000000
_symmetry_Int_Tables_number   1
_chemical_formula_structural   Cr5Fe10Ni39
_chemical_formula_sum   'Cr5 Fe10 Ni39'
_cell_volume   581.23125554
_cell_formula_units_Z   1
loop_
 _symmetry_equiv_pos_site_id
 _symmetry_equiv_pos_as_xyz
  1  'x, y, z'
loop_
 _atom_site_type_symbol
 _atom_site_label
 _atom_site_symmetry_multiplicity
 _atom_site_fract_x
 _atom_site_fract_y
 _atom_site_fract_z
 _atom_site_occupancy
  Fe  Fe0  1  0.00288770  0.00370779  0.00355335  1
  Ni  Ni1  1  0.16851056  0.16948967  0.16866213  1
  Ni  Ni2  1  0.00251075  1.00142094  0.33414378  1
  Ni  Ni3  1  1.00120466  0.33648073  0.00240341  1
  Ni  Ni4  1  0.16803479  0.50204887  0.16967411  1
  Fe  Fe5  1  0.00372133  0.33530152  0.33343377  1
  Ni  Ni6  1  0.00411037  0.66749298  0.00293774  1
  Ni  Ni7  1  0.16920258  0.83524707  0.16809579  1
  Ni  Ni8  1  0.00374447  0.67016867  0.33498594  1
  Ni  Ni9  1  0.33514385  1.00086789  1.00078314  1
  Cr  Cr10  1  0.49998149  0.16641734  0.16758529  1
  Ni  Ni11  1  0.33385498  1.00035150  0.33652953  1
  Ni  Ni12  1  0.33470751  0.33670985  0.00216072  1
  Fe  Fe13  1  0.50122633  0.50434852  0.16763147  1
  Fe  Fe14  1  0.33338415  0.33556278  0.33650216  1
  Ni  Ni15  1  0.33362816  0.66911459  0.00231264  1
  Ni  Ni16  1  0.50195673  0.83573243  0.16939923  1
  Ni  Ni17  1  0.33429264  0.66943491  0.33550640  1
  Ni  Ni18  1  0.66908073  0.00394188  0.00277645  1
  Ni  Ni19  1  0.83717353  0.16803010  0.16817843  1
  Ni  Ni20  1  0.67014745  1.00126537  0.33688178  1
  Ni  Ni21  1  0.67050142  0.33512310  1.00085995  1
  Ni  Ni22  1  0.83791996  0.50350620  0.16695377  1
  Cr  Cr23  1  0.66946776  0.33488199  0.33463294  1
  Fe  Fe24  1  0.66734235  0.66782396  0.00254666  1
  Ni  Ni25  1  0.83529828  0.83502454  0.16936671  1
  Ni  Ni26  1  0.66830418  0.66996551  0.33425998  1
  Fe  Fe27  1  0.16967200  0.16756040  0.50171037  1
  Ni  Ni28  1  0.00289799  0.00229059  0.66865805  1
  Fe  Fe29  1  0.16956100  0.16979174  0.83634820  1
  Ni  Ni30  1  0.16871998  0.50098577  0.50118754  1
  Fe  Fe31  1  0.00333720  0.33448878  0.67077711  1
  Ni  Ni32  1  0.16771804  0.50081163  0.83568392  1
  Ni  Ni33  1  0.16747504  0.83577750  0.50202844  1
  Ni  Ni34  1  0.00327099  0.66953807  0.66874881  1
  Fe  Fe35  1  0.16924474  0.83555690  0.83602663  1
  Ni  Ni36  1  0.50066996  0.16753482  0.50357656  1
  Ni  Ni37  1  0.33486442  0.00386385  0.66928692  1
  Ni  Ni38  1  0.50181033  0.16816041  0.83522610  1
  Ni  Ni39  1  0.50057920  0.50117902  0.50183754  1
  Ni  Ni40  1  0.33640123  0.33434399  0.66842413  1
  Ni  Ni41  1  0.50174275  0.50045588  0.83659446  1
  Ni  Ni42  1  0.50302187  0.83764377  0.50149412  1
  Cr  Cr43  1  0.33517318  0.66914293  0.66881939  1
  Ni  Ni44  1  0.50191717  0.83801488  0.83551917  1
  Fe  Fe45  1  0.83571363  0.16681145  0.50293392  1
  Ni  Ni46  1  0.66881331  0.00412102  0.66700514  1
  Ni  Ni47  1  0.83477702  0.16970484  0.83522767  1
  Cr  Cr48  1  0.83754759  0.50454823  0.50471120  1
  Ni  Ni49  1  0.66773647  0.33426845  0.67057307  1
  Ni  Ni50  1  0.83708630  0.50089269  0.83512113  1
  Ni  Ni51  1  0.83599165  0.83655700  0.50167089  1
  Ni  Ni52  1  0.66860059  0.66794673  0.66908251  1
  Cr  Cr53  1  0.83488408  0.83511440  0.83553618  1
" 