6911,Ni73Fe6Cr20_19,-231.617516964899, 162.6879065408,Ni73Fe6Cr20,"# generated using pymatgen
 data_Cr4FeNi13
_symmetry_space_group_name_H-M   'P 1'
_cell_length_a   7.46769990
_cell_length_b   7.46769990
_cell_length_c   10.56092248
_cell_angle_alpha   90.00000000
_cell_angle_beta   90.00000000
_cell_angle_gamma   90.00000000
_symmetry_Int_Tables_number   1
_chemical_formula_structural   Cr4FeNi13
_chemical_formula_sum   'Cr12 Fe3 Ni39'
_cell_volume   588.94612510
_cell_formula_units_Z   3
loop_
 _symmetry_equiv_pos_site_id
 _symmetry_equiv_pos_as_xyz
  1  'x, y, z'
loop_
 _atom_site_type_symbol
 _atom_site_label
 _atom_site_symmetry_multiplicity
 _atom_site_fract_x
 _atom_site_fract_y
 _atom_site_fract_z
 _atom_site_occupancy
  Ni  Ni0  1  0.99882047  0.00257832  0.99946742  1
  Ni  Ni1  1  0.16597787  0.16918180  0.16718325  1
  Ni  Ni2  1  0.99836005  0.00472001  0.33421336  1
  Ni  Ni3  1  0.99933782  0.33235008  0.00109732  1
  Ni  Ni4  1  0.16799998  0.49482065  0.16609421  1
  Ni  Ni5  1  0.00196712  0.33056460  0.33226648  1
  Cr  Cr6  1  0.99961744  0.66485076  0.99874122  1
  Cr  Cr7  1  0.16754928  0.83666889  0.16545773  1
  Cr  Cr8  1  0.99801501  0.66464218  0.33253700  1
  Ni  Ni9  1  0.33466647  0.00120836  0.99974825  1
  Ni  Ni10  1  0.50002525  0.16912846  0.16655107  1
  Ni  Ni11  1  0.33490622  0.00524391  0.33387418  1
  Ni  Ni12  1  0.33426126  0.33409659  0.00136358  1
  Ni  Ni13  1  0.50047690  0.49720460  0.16620290  1
  Ni  Ni14  1  0.33254626  0.33129066  0.33337394  1
  Ni  Ni15  1  0.33507604  0.66456401  0.99767281  1
  Cr  Cr16  1  0.50088825  0.83375478  0.16584805  1
  Cr  Cr17  1  0.33564992  0.66363994  0.33490950  1
  Ni  Ni18  1  0.66640922  0.00172455  0.99766941  1
  Ni  Ni19  1  0.83384587  0.16809051  0.16710227  1
  Ni  Ni20  1  0.66655111  0.00074765  0.33568346  1
  Ni  Ni21  1  0.66625100  0.33287003  0.00016806  1
  Fe  Fe22  1  0.83143545  0.49572265  0.16601327  1
  Fe  Fe23  1  0.66504914  0.33166197  0.33229324  1
  Ni  Ni24  1  0.66463824  0.66511675  0.99885480  1
  Cr  Cr25  1  0.83141880  0.83514692  0.16701483  1
  Ni  Ni26  1  0.66575780  0.66677106  0.33385024  1
  Ni  Ni27  1  0.16533445  0.16837944  0.49705774  1
  Ni  Ni28  1  0.99608939  0.99978347  0.66615249  1
  Cr  Cr29  1  0.16489379  0.16679492  0.83553927  1
  Ni  Ni30  1  0.16713787  0.49677968  0.50131113  1
  Ni  Ni31  1  0.99850387  0.33370912  0.66651459  1
  Ni  Ni32  1  0.16640612  0.50204996  0.83241608  1
  Cr  Cr33  1  0.16530479  0.83443653  0.50081566  1
  Ni  Ni34  1  0.00140681  0.66636212  0.66821173  1
  Ni  Ni35  1  0.16634852  0.83137810  0.83329752  1
  Ni  Ni36  1  0.50112013  0.16666933  0.49793010  1
  Cr  Cr37  1  0.33617099  0.99895255  0.66652775  1
  Ni  Ni38  1  0.50411706  0.16677769  0.83543394  1
  Ni  Ni39  1  0.49948148  0.49878114  0.49894378  1
  Cr  Cr40  1  0.33449365  0.33548436  0.66562143  1
  Ni  Ni41  1  0.50035104  0.50014037  0.83484516  1
  Ni  Ni42  1  0.50309014  0.83436744  0.49859670  1
  Ni  Ni43  1  0.33212052  0.66534265  0.66734301  1
  Ni  Ni44  1  0.50019214  0.83292201  0.83519097  1
  Fe  Fe45  1  0.83331852  0.16516615  0.50040322  1
  Ni  Ni46  1  0.66873076  0.00150960  0.66644813  1
  Ni  Ni47  1  0.83149028  0.16670885  0.83228374  1
  Cr  Cr48  1  0.83317502  0.49884112  0.49980198  1
  Ni  Ni49  1  0.66758937  0.33065415  0.66726815  1
  Ni  Ni50  1  0.83305847  0.49819936  0.83411031  1
  Ni  Ni51  1  0.83142605  0.83614467  0.49971017  1
  Cr  Cr52  1  0.66545779  0.66800928  0.66763828  1
  Ni  Ni53  1  0.83333434  0.83493682  0.83297672  1
" 