2932,Ni73Fe6Cr20_4,-231.257008693794, 158.890970087583,Ni73Fe6Cr20,"# generated using pymatgen
 data_Cr4FeNi13
_symmetry_space_group_name_H-M   'P 1'
_cell_length_a   7.47038942
_cell_length_b   7.47038942
_cell_length_c   10.56472603
_cell_angle_alpha   90.00000000
_cell_angle_beta   90.00000000
_cell_angle_gamma   90.00000000
_symmetry_Int_Tables_number   1
_chemical_formula_structural   Cr4FeNi13
_chemical_formula_sum   'Cr12 Fe3 Ni39'
_cell_volume   589.58268634
_cell_formula_units_Z   3
loop_
 _symmetry_equiv_pos_site_id
 _symmetry_equiv_pos_as_xyz
  1  'x, y, z'
loop_
 _atom_site_type_symbol
 _atom_site_label
 _atom_site_symmetry_multiplicity
 _atom_site_fract_x
 _atom_site_fract_y
 _atom_site_fract_z
 _atom_site_occupancy
  Fe  Fe0  1  0.99862749  0.99684797  0.99884356  1
  Cr  Cr1  1  0.16677506  0.16657593  0.16703558  1
  Ni  Ni2  1  0.00038097  0.99893001  0.33386134  1
  Ni  Ni3  1  0.99736263  0.33464290  0.00109910  1
  Ni  Ni4  1  0.16403798  0.50258389  0.16736600  1
  Ni  Ni5  1  0.99965077  0.33371546  0.33382895  1
  Ni  Ni6  1  -0.00014831  0.66753723  0.00231224  1
  Ni  Ni7  1  0.16645994  0.83035433  0.16689182  1
  Ni  Ni8  1  0.00213873  0.66668283  0.33110790  1
  Ni  Ni9  1  0.33543177  0.99658037  0.00052012  1
  Ni  Ni10  1  0.50091449  0.16434252  0.16784688  1
  Fe  Fe11  1  0.33279448  0.00015307  0.33306511  1
  Cr  Cr12  1  0.33430720  0.33286953  0.99941246  1
  Cr  Cr13  1  0.49955377  0.49994331  0.16607803  1
  Ni  Ni14  1  0.33299028  0.33153899  0.33301716  1
  Ni  Ni15  1  0.33242996  0.67001165  0.99976607  1
  Ni  Ni16  1  0.49916293  0.83470561  0.16573123  1
  Ni  Ni17  1  0.32928752  0.66764409  0.33102439  1
  Ni  Ni18  1  0.66514402  0.99906674  0.99919114  1
  Cr  Cr19  1  0.83163909  0.16650582  0.16565386  1
  Ni  Ni20  1  0.66572722  0.00263266  0.33199957  1
  Ni  Ni21  1  0.66761944  0.33163944  0.99918229  1
  Ni  Ni22  1  0.83575090  0.50083175  0.16646477  1
  Ni  Ni23  1  0.66668908  0.32978339  0.33383202  1
  Ni  Ni24  1  0.66704749  0.66862200  -0.00014501  1
  Ni  Ni25  1  0.83370542  0.83172915  0.16557562  1
  Cr  Cr26  1  0.66819413  0.66696866  0.33134074  1
  Ni  Ni27  1  0.16551896  0.16575003  0.49988173  1
  Ni  Ni28  1  0.00000686  0.99954200  0.66691590  1
  Cr  Cr29  1  0.16504842  0.16490287  0.83234581  1
  Cr  Cr30  1  0.16576734  0.49978452  0.49994697  1
  Ni  Ni31  1  0.99841004  0.33148242  0.66440057  1
  Cr  Cr32  1  0.16790212  0.50148267  0.83266024  1
  Ni  Ni33  1  0.16568728  0.83436856  0.49982063  1
  Ni  Ni34  1  0.00015325  0.66830325  0.66590994  1
  Ni  Ni35  1  0.16676292  0.83286678  0.83261712  1
  Ni  Ni36  1  0.50033023  0.16735351  0.49930156  1
  Ni  Ni37  1  0.33294957  0.99971769  0.66568596  1
  Ni  Ni38  1  0.50254255  0.16581855  0.83218006  1
  Cr  Cr39  1  0.50000300  0.49822039  0.50137616  1
  Ni  Ni40  1  0.33480835  0.33156925  0.66648528  1
  Ni  Ni41  1  0.50054497  0.50089768  0.83190472  1
  Cr  Cr42  1  0.49824952  0.83436772  0.50036638  1
  Ni  Ni43  1  0.33289040  0.66804274  0.66853871  1
  Ni  Ni44  1  0.50006374  0.83261295  0.83307652  1
  Ni  Ni45  1  0.83347963  0.16777882  0.49992404  1
  Ni  Ni46  1  0.66637189  0.00145824  0.66813643  1
  Ni  Ni47  1  0.83124059  0.16478414  0.83299548  1
  Fe  Fe48  1  0.83430522  0.49680232  0.50027176  1
  Ni  Ni49  1  0.66611084  0.33142464  0.66631375  1
  Cr  Cr50  1  0.83144525  0.49952776  0.83265457  1
  Cr  Cr51  1  0.83486652  0.83431122  0.50078789  1
  Ni  Ni52  1  0.66628587  0.66644536  0.66836809  1
  Ni  Ni53  1  0.83250205  0.83486643  0.83315262  1
" 