2630,Ni73Fe18Cr8_12,-237.721878093857, 192.902931706444,Ni73Fe18Cr8,"# generated using pymatgen
 data_Cr2Fe3Ni13
_symmetry_space_group_name_H-M   'P 1'
_cell_length_a   7.44036241
_cell_length_b   7.44036241
_cell_length_c   10.52226142
_cell_angle_alpha   90.00000000
_cell_angle_beta   90.00000000
_cell_angle_gamma   90.00000000
_symmetry_Int_Tables_number   1
_chemical_formula_structural   Cr2Fe3Ni13
_chemical_formula_sum   'Cr6 Fe9 Ni39'
_cell_volume   582.50179388
_cell_formula_units_Z   3
loop_
 _symmetry_equiv_pos_site_id
 _symmetry_equiv_pos_as_xyz
  1  'x, y, z'
loop_
 _atom_site_type_symbol
 _atom_site_label
 _atom_site_symmetry_multiplicity
 _atom_site_fract_x
 _atom_site_fract_y
 _atom_site_fract_z
 _atom_site_occupancy
  Ni  Ni0  1  0.99961169  0.00240761  1.00084695  1
  Ni  Ni1  1  0.16722535  0.16876149  0.16957918  1
  Fe  Fe2  1  0.00204838  1.00023973  0.33325450  1
  Ni  Ni3  1  0.00246159  0.33571199  1.00153569  1
  Ni  Ni4  1  0.16823810  0.50128265  0.16894443  1
  Ni  Ni5  1  0.00283331  0.33693227  0.33285008  1
  Ni  Ni6  1  1.00114961  0.66725903  1.00131940  1
  Ni  Ni7  1  0.16822504  0.83533456  0.16991998  1
  Ni  Ni8  1  0.00226071  0.66775387  0.33484863  1
  Cr  Cr9  1  0.33614496  0.00204563  1.00130916  1
  Fe  Fe10  1  0.50146892  0.16945879  0.16984417  1
  Ni  Ni11  1  0.33685258  1.00176095  0.33474103  1
  Ni  Ni12  1  0.33362390  0.33658131  1.00140663  1
  Ni  Ni13  1  0.50234073  0.50259310  0.16884325  1
  Ni  Ni14  1  0.33482204  0.33521972  0.33512854  1
  Ni  Ni15  1  0.33499911  0.66644993  1.00119832  1
  Ni  Ni16  1  0.50246052  0.83413152  0.16981447  1
  Ni  Ni17  1  0.33432737  0.66839959  0.33579430  1
  Ni  Ni18  1  0.67010254  1.00103599  1.00145984  1
  Fe  Fe19  1  0.83569545  0.16896007  0.16823976  1
  Ni  Ni20  1  0.66708218  1.00118726  0.33476067  1
  Fe  Fe21  1  0.66886330  0.33591551  1.00173855  1
  Ni  Ni22  1  0.83480087  0.50159272  0.16912936  1
  Ni  Ni23  1  0.66772262  0.33440805  0.33440196  1
  Ni  Ni24  1  0.66923197  0.66930427  1.00135933  1
  Fe  Fe25  1  0.83528325  0.83397842  0.16833051  1
  Ni  Ni26  1  0.66879390  0.66978419  0.33507609  1
  Cr  Cr27  1  0.17087791  0.16803723  0.50119848  1
  Fe  Fe28  1  0.00200652  0.99972069  0.67091564  1
  Ni  Ni29  1  0.16800342  0.16810863  0.83475728  1
  Ni  Ni30  1  0.17223919  0.50327865  0.49945223  1
  Cr  Cr31  1  0.00316762  0.33564628  0.67105723  1
  Ni  Ni32  1  0.17008550  0.50153268  0.83698274  1
  Fe  Fe33  1  0.16981361  0.83373821  0.50091063  1
  Cr  Cr34  1  0.00187348  0.66879737  0.66954382  1
  Ni  Ni35  1  0.16820249  0.83573631  0.83462801  1
  Ni  Ni36  1  0.50132621  0.16854865  0.50134234  1
  Ni  Ni37  1  0.33750558  0.00206319  0.66933721  1
  Ni  Ni38  1  0.50243558  0.16902942  0.83398003  1
  Ni  Ni39  1  0.49998310  0.50197550  0.50180001  1
  Ni  Ni40  1  0.33649750  0.33491236  0.66884406  1
  Ni  Ni41  1  0.50183313  0.50209698  0.83473781  1
  Fe  Fe42  1  0.50210365  0.83492590  0.50180428  1
  Ni  Ni43  1  0.33672896  0.66840367  0.66838819  1
  Ni  Ni44  1  0.50279960  0.83425619  0.83370490  1
  Cr  Cr45  1  0.83315298  0.16609924  0.50115450  1
  Ni  Ni46  1  0.66683083  1.00070246  0.66915795  1
  Ni  Ni47  1  0.83493880  0.16714541  0.83556317  1
  Cr  Cr48  1  0.83304708  0.50366369  0.50020829  1
  Fe  Fe49  1  0.66405773  0.33523243  0.66967710  1
  Ni  Ni50  1  0.83345641  0.50189668  0.83632737  1
  Ni  Ni51  1  0.83408679  0.83582221  0.50057442  1
  Ni  Ni52  1  0.66673466  0.67063995  0.66894497  1
  Ni  Ni53  1  0.83437846  0.83633653  0.83616929  1
" 