4838,Ni73Fe6Cr20_14,-231.629372073552, 166.144731420868,Ni73Fe6Cr20,"# generated using pymatgen
 data_Cr4FeNi13
_symmetry_space_group_name_H-M   'P 1'
_cell_length_a   7.46755129
_cell_length_b   7.46755129
_cell_length_c   10.56071231
_cell_angle_alpha   90.00000000
_cell_angle_beta   90.00000000
_cell_angle_gamma   90.00000000
_symmetry_Int_Tables_number   1
_chemical_formula_structural   Cr4FeNi13
_chemical_formula_sum   'Cr12 Fe3 Ni39'
_cell_volume   588.91096508
_cell_formula_units_Z   3
loop_
 _symmetry_equiv_pos_site_id
 _symmetry_equiv_pos_as_xyz
  1  'x, y, z'
loop_
 _atom_site_type_symbol
 _atom_site_label
 _atom_site_symmetry_multiplicity
 _atom_site_fract_x
 _atom_site_fract_y
 _atom_site_fract_z
 _atom_site_occupancy
  Ni  Ni0  1  0.99867916  0.99854008  0.00029947  1
  Ni  Ni1  1  0.16688943  0.16729836  0.16605716  1
  Ni  Ni2  1  0.00168395  0.00030005  0.33353958  1
  Ni  Ni3  1  0.00023054  0.33483102  -0.00001173  1
  Ni  Ni4  1  0.16429240  0.49853741  0.16659022  1
  Ni  Ni5  1  0.00202054  0.33355005  0.33310631  1
  Ni  Ni6  1  0.99922186  0.66657050  0.99991203  1
  Ni  Ni7  1  0.16303774  0.83395840  0.16583390  1
  Ni  Ni8  1  0.00117377  0.66615794  0.33067024  1
  Fe  Fe9  1  0.33251515  0.99940974  0.99924850  1
  Cr  Cr10  1  0.49808053  0.16853052  0.16363909  1
  Cr  Cr11  1  0.33167586  0.00081944  0.33377602  1
  Ni  Ni12  1  0.33192122  0.33368389  0.00124273  1
  Fe  Fe13  1  0.50132642  0.49949588  0.16668190  1
  Ni  Ni14  1  0.33211705  0.33424064  0.33372789  1
  Cr  Cr15  1  0.33065857  0.66580354  0.00055068  1
  Fe  Fe16  1  0.50142563  0.83220575  0.16534001  1
  Cr  Cr17  1  0.33231602  0.66473359  0.33371564  1
  Ni  Ni18  1  0.66763541  0.99867348  0.99803559  1
  Cr  Cr19  1  0.83524632  0.16736366  0.16685768  1
  Cr  Cr20  1  0.66711395  0.00031664  0.33520965  1
  Ni  Ni21  1  0.66767833  0.33329419  0.99869068  1
  Ni  Ni22  1  0.83336914  0.50227806  0.16627158  1
  Ni  Ni23  1  0.66580783  0.33526836  0.33425729  1
  Ni  Ni24  1  0.66845116  0.66788857  0.00095176  1
  Ni  Ni25  1  0.83471017  0.83025338  0.16613184  1
  Ni  Ni26  1  0.66600306  0.66501305  0.33085812  1
  Ni  Ni27  1  0.16654918  0.16729641  0.49957729  1
  Ni  Ni28  1  0.00142384  0.00208685  0.66607794  1
  Cr  Cr29  1  0.16787214  0.16690102  0.83456885  1
  Ni  Ni30  1  0.16833283  0.49839342  0.50014536  1
  Ni  Ni31  1  0.00007113  0.33142188  0.66718513  1
  Ni  Ni32  1  0.16560752  0.49970734  0.83337116  1
  Ni  Ni33  1  0.16757688  0.83425119  0.50087861  1
  Cr  Cr34  1  0.00226541  0.66562810  0.67009478  1
  Ni  Ni35  1  0.16657695  0.83375443  0.83307068  1
  Ni  Ni36  1  0.49814145  0.16973037  0.50136161  1
  Ni  Ni37  1  0.33321518  0.99922681  0.66654656  1
  Ni  Ni38  1  0.50021620  0.16609372  0.83424252  1
  Ni  Ni39  1  0.49947097  0.49905851  0.49975280  1
  Ni  Ni40  1  0.33289376  0.33343801  0.66447776  1
  Cr  Cr41  1  0.50002657  0.49859937  0.83180342  1
  Ni  Ni42  1  0.49835011  0.83108195  0.50141562  1
  Ni  Ni43  1  0.33363143  0.66725218  0.66533336  1
  Ni  Ni44  1  0.49981942  0.83437360  0.83378493  1
  Ni  Ni45  1  0.83543599  0.16887525  0.49953271  1
  Cr  Cr46  1  0.66726945  0.00179330  0.66699691  1
  Ni  Ni47  1  0.83288933  0.16742909  0.83422835  1
  Cr  Cr48  1  0.83254590  0.49942296  0.49918502  1
  Ni  Ni49  1  0.66686368  0.33254517  0.66671801  1
  Ni  Ni50  1  0.83323766  0.49959096  0.83503206  1
  Cr  Cr51  1  0.83551052  0.83194552  0.49831664  1
  Ni  Ni52  1  0.66368136  0.66638544  0.66777363  1
  Ni  Ni53  1  0.83342274  0.83287979  0.83552334  1
" 