6488,Ni73Fe6Cr20_10,-231.700209122577, 165.837031829288,Ni73Fe6Cr20,"# generated using pymatgen
 data_Cr4FeNi13
_symmetry_space_group_name_H-M   'P 1'
_cell_length_a   7.46954840
_cell_length_b   7.46954840
_cell_length_c   10.56353666
_cell_angle_alpha   90.00000000
_cell_angle_beta   90.00000000
_cell_angle_gamma   90.00000000
_symmetry_Int_Tables_number   1
_chemical_formula_structural   Cr4FeNi13
_chemical_formula_sum   'Cr12 Fe3 Ni39'
_cell_volume   589.38358437
_cell_formula_units_Z   3
loop_
 _symmetry_equiv_pos_site_id
 _symmetry_equiv_pos_as_xyz
  1  'x, y, z'
loop_
 _atom_site_type_symbol
 _atom_site_label
 _atom_site_symmetry_multiplicity
 _atom_site_fract_x
 _atom_site_fract_y
 _atom_site_fract_z
 _atom_site_occupancy
  Ni  Ni0  1  0.00029026  0.99754884  0.00213486  1
  Ni  Ni1  1  0.16653006  0.16457912  0.16513846  1
  Cr  Cr2  1  0.99973721  0.99776325  0.33381383  1
  Ni  Ni3  1  0.99803184  0.33500531  0.00256967  1
  Ni  Ni4  1  0.16728631  0.50276236  0.16538128  1
  Cr  Cr5  1  0.00039099  0.33319629  0.32972187  1
  Ni  Ni6  1  0.99956633  0.66715389  -0.00002142  1
  Ni  Ni7  1  0.16725417  0.83271172  0.16528115  1
  Ni  Ni8  1  0.00217685  0.66844869  0.33117545  1
  Ni  Ni9  1  0.33295311  0.99635045  0.99958393  1
  Cr  Cr10  1  0.50038310  0.16515814  0.16540990  1
  Ni  Ni11  1  0.33384117  0.99892890  0.33406344  1
  Cr  Cr12  1  0.33222765  0.33636729  0.99839401  1
  Ni  Ni13  1  0.49980894  0.50082739  0.16686126  1
  Ni  Ni14  1  0.33346371  0.33209640  0.33215184  1
  Ni  Ni15  1  0.33326605  0.66864621  0.00038527  1
  Fe  Fe16  1  0.49956535  0.83261398  0.16531285  1
  Ni  Ni17  1  0.33160713  0.66867711  0.33029219  1
  Ni  Ni18  1  0.66700116  0.99657248  -0.00015518  1
  Ni  Ni19  1  0.83245273  0.16550553  0.16412184  1
  Ni  Ni20  1  0.66575253  0.00103932  0.33443950  1
  Ni  Ni21  1  0.66754588  0.33512999  0.00009110  1
  Ni  Ni22  1  0.83210294  0.50070517  0.16402604  1
  Ni  Ni23  1  0.66554163  0.33057517  0.33162288  1
  Ni  Ni24  1  0.66628100  0.66629310  0.99934574  1
  Ni  Ni25  1  0.83443996  0.83326359  0.16395890  1
  Cr  Cr26  1  0.66829929  0.66987713  0.33157053  1
  Ni  Ni27  1  0.16871042  0.16507726  0.50147637  1
  Ni  Ni28  1  0.00154992  0.99826166  0.66443443  1
  Cr  Cr29  1  0.16647875  0.16259966  0.83326440  1
  Cr  Cr30  1  0.16764942  0.50249010  0.50136879  1
  Ni  Ni31  1  0.00150371  0.33318282  0.66725539  1
  Fe  Fe32  1  0.16424542  0.50323433  0.83300454  1
  Ni  Ni33  1  0.16798091  0.83459115  0.50108955  1
  Ni  Ni34  1  0.99974977  0.66937561  0.66866656  1
  Ni  Ni35  1  0.16693845  0.83238614  0.83337306  1
  Ni  Ni36  1  0.49720514  0.16501337  0.49918951  1
  Ni  Ni37  1  0.33225536  0.99834631  0.66591738  1
  Fe  Fe38  1  0.50020439  0.16375896  0.83441442  1
  Cr  Cr39  1  0.49806170  0.50086019  0.49781676  1
  Ni  Ni40  1  0.33193824  0.33262744  0.66798801  1
  Ni  Ni41  1  0.50014526  0.50277802  0.83308627  1
  Ni  Ni42  1  0.49747086  0.83477890  0.49900145  1
  Ni  Ni43  1  0.33321229  0.66840424  0.66872094  1
  Ni  Ni44  1  0.49827158  0.83026767  0.83522591  1
  Ni  Ni45  1  0.83313137  0.16511490  0.49935969  1
  Cr  Cr46  1  0.66553608  0.99609229  0.66546506  1
  Cr  Cr47  1  0.83550733  0.16493929  0.83724840  1
  Cr  Cr48  1  0.83399818  0.50162832  0.50079929  1
  Cr  Cr49  1  0.66528099  0.33319828  0.66757949  1
  Ni  Ni50  1  0.83198889  0.50191468  0.83456890  1
  Ni  Ni51  1  0.83427189  0.83406373  0.50170721  1
  Ni  Ni52  1  0.66585668  0.66801560  0.66838537  1
  Ni  Ni53  1  0.83402010  0.83016269  0.83388208  1
" 