5165,Ni73Fe18Cr7_10,-238.736143128209, 200.43122115395,Ni73Fe18Cr7,"# generated using pymatgen
 data_Cr5Fe10Ni39
_symmetry_space_group_name_H-M   'P 1'
_cell_length_a   7.43240596
_cell_length_b   7.43240596
_cell_length_c   10.51100931
_cell_angle_alpha   90.00000000
_cell_angle_beta   90.00000000
_cell_angle_gamma   90.00000000
_symmetry_Int_Tables_number   1
_chemical_formula_structural   Cr5Fe10Ni39
_chemical_formula_sum   'Cr5 Fe10 Ni39'
_cell_volume   580.63507481
_cell_formula_units_Z   1
loop_
 _symmetry_equiv_pos_site_id
 _symmetry_equiv_pos_as_xyz
  1  'x, y, z'
loop_
 _atom_site_type_symbol
 _atom_site_label
 _atom_site_symmetry_multiplicity
 _atom_site_fract_x
 _atom_site_fract_y
 _atom_site_fract_z
 _atom_site_occupancy
  Ni  Ni0  1  1.00215449  0.00340855  1.00195807  1
  Ni  Ni1  1  0.16976419  0.16953146  0.16892350  1
  Ni  Ni2  1  1.00117628  1.00122548  0.33502632  1
  Ni  Ni3  1  0.00354959  0.33423679  1.00161679  1
  Ni  Ni4  1  0.16853150  0.50037379  0.16955204  1
  Ni  Ni5  1  1.00174277  0.33578620  0.33411982  1
  Cr  Cr6  1  0.00319860  0.66911605  1.00212126  1
  Ni  Ni7  1  0.16795357  0.83708784  0.16886239  1
  Ni  Ni8  1  1.00169717  0.66997373  0.33549986  1
  Ni  Ni9  1  0.33581955  1.00202679  0.00236294  1
  Ni  Ni10  1  0.50086906  0.16822526  0.17037502  1
  Ni  Ni11  1  0.33632494  0.00329054  0.33481747  1
  Ni  Ni12  1  0.33449676  0.33568813  1.00201116  1
  Fe  Fe13  1  0.50123817  0.50214724  0.16922529  1
  Ni  Ni14  1  0.33680816  0.33477568  0.33522669  1
  Ni  Ni15  1  0.33630005  0.66928283  1.00142873  1
  Fe  Fe16  1  0.50213861  0.83718924  0.16820803  1
  Cr  Cr17  1  0.33439930  0.66914141  0.33707293  1
  Ni  Ni18  1  0.66901391  1.00160093  1.00157297  1
  Fe  Fe19  1  0.83752082  0.16763994  0.16993918  1
  Ni  Ni20  1  0.66949109  0.00324697  0.33667700  1
  Cr  Cr21  1  0.66918517  0.33476129  1.00171848  1
  Fe  Fe22  1  0.83681473  0.50223029  0.17082778  1
  Ni  Ni23  1  0.66844556  0.33424444  0.33561308  1
  Fe  Fe24  1  0.66747234  0.67109204  1.00165056  1
  Ni  Ni25  1  0.83487029  0.83568060  0.17063161  1
  Ni  Ni26  1  0.67050600  0.66950054  0.33454688  1
  Cr  Cr27  1  0.16960687  0.16941032  0.50106206  1
  Fe  Fe28  1  1.00186145  1.00139737  0.66987482  1
  Ni  Ni29  1  0.16893529  0.16993793  0.83685578  1
  Ni  Ni30  1  0.16958430  0.50366301  0.50261451  1
  Fe  Fe31  1  0.00270904  0.33664446  0.67089414  1
  Ni  Ni32  1  0.16946523  0.50069349  0.83482512  1
  Ni  Ni33  1  0.16878785  0.83457965  0.50276611  1
  Ni  Ni34  1  0.00319862  0.67000658  0.66918003  1
  Fe  Fe35  1  0.17006711  0.83639109  0.83489771  1
  Ni  Ni36  1  0.50392525  0.16854181  0.50204335  1
  Ni  Ni37  1  0.33634142  1.00161116  0.66981060  1
  Ni  Ni38  1  0.50116828  0.16791149  0.83458149  1
  Ni  Ni39  1  0.50191929  0.50207863  0.50270975  1
  Ni  Ni40  1  0.33754816  0.33637632  0.66975754  1
  Ni  Ni41  1  0.50157362  0.50366619  0.83515753  1
  Ni  Ni42  1  0.50292691  0.83636967  0.50214207  1
  Ni  Ni43  1  0.33485717  0.66900547  0.66883366  1
  Ni  Ni44  1  0.50339651  0.83541684  0.83696957  1
  Ni  Ni45  1  0.83368379  0.16774676  0.50148161  1
  Fe  Fe46  1  0.66789900  1.00215024  0.66927183  1
  Ni  Ni47  1  0.83689525  0.16811141  0.83568232  1
  Cr  Cr48  1  0.83576695  0.50250939  0.50170551  1
  Ni  Ni49  1  0.66798595  0.33484638  0.66944018  1
  Ni  Ni50  1  0.83595635  0.50292431  0.83483631  1
  Fe  Fe51  1  0.83543328  0.83659492  0.50174386  1
  Ni  Ni52  1  0.66893977  0.66879806  0.67050388  1
  Ni  Ni53  1  0.83392871  0.83595711  0.83461693  1
" 