1283,Ni73Fe18Cr8_14,-237.978705855593, 194.864106177322,Ni73Fe18Cr8,"# generated using pymatgen
 data_Cr2Fe3Ni13
_symmetry_space_group_name_H-M   'P 1'
_cell_length_a   7.44122228
_cell_length_b   7.44122228
_cell_length_c   10.52347746
_cell_angle_alpha   90.00000000
_cell_angle_beta   90.00000000
_cell_angle_gamma   90.00000000
_symmetry_Int_Tables_number   1
_chemical_formula_structural   Cr2Fe3Ni13
_chemical_formula_sum   'Cr6 Fe9 Ni39'
_cell_volume   582.70377322
_cell_formula_units_Z   3
loop_
 _symmetry_equiv_pos_site_id
 _symmetry_equiv_pos_as_xyz
  1  'x, y, z'
loop_
 _atom_site_type_symbol
 _atom_site_label
 _atom_site_symmetry_multiplicity
 _atom_site_fract_x
 _atom_site_fract_y
 _atom_site_fract_z
 _atom_site_occupancy
  Fe  Fe0  1  1.00014708  1.00155579  1.00154267  1
  Ni  Ni1  1  0.16818595  0.17033432  0.16874748  1
  Cr  Cr2  1  1.00153541  0.00264555  0.33349611  1
  Ni  Ni3  1  1.00012565  0.33392298  0.00374355  1
  Ni  Ni4  1  0.16872723  0.50211757  0.16913539  1
  Ni  Ni5  1  1.00164756  0.33687697  0.33469380  1
  Ni  Ni6  1  0.00229113  0.66937871  0.00331689  1
  Ni  Ni7  1  0.16771506  0.83275794  0.16836905  1
  Ni  Ni8  1  1.00109926  0.66567106  0.33405792  1
  Cr  Cr9  1  0.33528270  1.00045788  0.00207554  1
  Ni  Ni10  1  0.50293499  0.16952884  0.16959670  1
  Ni  Ni11  1  0.33778180  0.00230773  0.33409636  1
  Fe  Fe12  1  0.33569380  0.33679128  0.00280026  1
  Ni  Ni13  1  0.50054446  0.50107757  0.16809653  1
  Ni  Ni14  1  0.33496490  0.33481397  0.33408913  1
  Ni  Ni15  1  0.33520613  0.66877179  0.00230088  1
  Ni  Ni16  1  0.50236642  0.83460066  0.17053709  1
  Ni  Ni17  1  0.33587022  0.66808378  0.33359751  1
  Fe  Fe18  1  0.67033335  0.00181908  0.00174097  1
  Ni  Ni19  1  0.83408604  0.16851036  0.16800370  1
  Ni  Ni20  1  0.66617846  0.00175871  0.33436153  1
  Ni  Ni21  1  0.66896968  0.33408647  0.00204508  1
  Fe  Fe22  1  0.83544332  0.50137677  0.16884063  1
  Ni  Ni23  1  0.66859377  0.33496262  0.33508971  1
  Fe  Fe24  1  0.66752348  0.66869865  0.00231231  1
  Ni  Ni25  1  0.83512529  0.83514477  0.16747506  1
  Ni  Ni26  1  0.66823647  0.66848259  0.33444644  1
  Fe  Fe27  1  0.17025277  0.17071327  0.50133290  1
  Ni  Ni28  1  1.00112590  1.00059246  0.67106721  1
  Fe  Fe29  1  0.16864601  0.16619872  0.83496982  1
  Ni  Ni30  1  0.16877192  0.50147985  0.50079030  1
  Cr  Cr31  1  1.00104115  0.33408941  0.66623742  1
  Cr  Cr32  1  0.17108258  0.50363350  0.83495418  1
  Cr  Cr33  1  0.16807712  0.83337825  0.50242066  1
  Ni  Ni34  1  1.00096591  0.67117238  0.66782900  1
  Ni  Ni35  1  0.16703316  0.83536532  0.83399898  1
  Ni  Ni36  1  0.50212076  0.16946614  0.50157407  1
  Ni  Ni37  1  0.33581808  0.00204349  0.66932925  1
  Ni  Ni38  1  0.50330430  0.16946384  0.83403748  1
  Ni  Ni39  1  0.50159809  0.49964185  0.50274704  1
  Ni  Ni40  1  0.33767765  0.33418971  0.66896771  1
  Ni  Ni41  1  0.50092793  0.50061676  0.83436508  1
  Fe  Fe42  1  0.50353194  0.83421640  0.50165912  1
  Ni  Ni43  1  0.33672734  0.66897097  0.66930537  1
  Ni  Ni44  1  0.50194509  0.83512519  0.83308339  1
  Fe  Fe45  1  0.83297942  0.16925888  0.50179366  1
  Ni  Ni46  1  0.66826382  1.00154751  0.66915960  1
  Ni  Ni47  1  0.83332897  0.16530918  0.83517191  1
  Ni  Ni48  1  0.83483698  0.50283743  0.50057707  1
  Ni  Ni49  1  0.66606495  0.33434877  0.66806986  1
  Cr  Cr50  1  0.83313722  0.50242844  0.83536321  1
  Ni  Ni51  1  0.83409497  0.83403427  0.50336447  1
  Ni  Ni52  1  0.66751324  0.66930899  0.66855765  1
  Ni  Ni53  1  0.83622869  0.83774018  0.83437087  1
" 