8466,Ni73Fe6Cr20_16,-231.417696133218, 161.950157703299,Ni73Fe6Cr20,"# generated using pymatgen
 data_Cr4FeNi13
_symmetry_space_group_name_H-M   'P 1'
_cell_length_a   7.47005008
_cell_length_b   7.47005008
_cell_length_c   10.56424613
_cell_angle_alpha   90.00000000
_cell_angle_beta   90.00000000
_cell_angle_gamma   90.00000000
_symmetry_Int_Tables_number   1
_chemical_formula_structural   Cr4FeNi13
_chemical_formula_sum   'Cr12 Fe3 Ni39'
_cell_volume   589.50234528
_cell_formula_units_Z   3
loop_
 _symmetry_equiv_pos_site_id
 _symmetry_equiv_pos_as_xyz
  1  'x, y, z'
loop_
 _atom_site_type_symbol
 _atom_site_label
 _atom_site_symmetry_multiplicity
 _atom_site_fract_x
 _atom_site_fract_y
 _atom_site_fract_z
 _atom_site_occupancy
  Cr  Cr0  1  0.00056791  0.99935620  0.99919454  1
  Ni  Ni1  1  0.17067368  0.16540054  0.16623557  1
  Cr  Cr2  1  0.00108700  0.99700671  0.33255614  1
  Ni  Ni3  1  0.00063836  0.33389903  0.99740737  1
  Cr  Cr4  1  0.16715179  0.50013971  0.16407830  1
  Cr  Cr5  1  0.00070264  0.33412748  0.33461730  1
  Ni  Ni6  1  0.00016484  0.66605973  0.99878681  1
  Ni  Ni7  1  0.16742397  0.83393893  0.16552917  1
  Ni  Ni8  1  0.99842595  0.66802511  0.33479432  1
  Ni  Ni9  1  0.33376181  0.00077217  0.00167504  1
  Ni  Ni10  1  0.49828596  0.16596766  0.16647932  1
  Fe  Fe11  1  0.33536986  0.00041408  0.33273059  1
  Ni  Ni12  1  0.33320587  0.33183713  0.00052667  1
  Ni  Ni13  1  0.50043032  0.49895862  0.16595584  1
  Fe  Fe14  1  0.33634766  0.33170514  0.33376021  1
  Ni  Ni15  1  0.33234236  0.66678783  0.00067817  1
  Ni  Ni16  1  0.50043326  0.83446958  0.16572114  1
  Cr  Cr17  1  0.33424951  0.66722345  0.33335657  1
  Ni  Ni18  1  0.66482631  0.00030095  0.00005906  1
  Cr  Cr19  1  0.83087584  0.16601462  0.16543188  1
  Ni  Ni20  1  0.66383420  0.99890808  0.33294732  1
  Ni  Ni21  1  0.66555428  0.33248038  0.99944869  1
  Cr  Cr22  1  0.83158322  0.50176539  0.16600215  1
  Ni  Ni23  1  0.66278273  0.33368090  0.33373108  1
  Ni  Ni24  1  0.66688960  0.66661584  0.00155750  1
  Ni  Ni25  1  0.83154026  0.83179412  0.16707176  1
  Ni  Ni26  1  0.66681303  0.66680810  0.33394145  1
  Fe  Fe27  1  0.17019905  0.16570096  0.50115149  1
  Ni  Ni28  1  0.00089861  0.99717613  0.66711202  1
  Ni  Ni29  1  0.16728636  0.16698887  0.83274841  1
  Ni  Ni30  1  0.16706403  0.50124906  0.50085711  1
  Cr  Cr31  1  0.00150754  0.33356568  0.66784253  1
  Ni  Ni32  1  0.16482098  0.50012953  0.83404734  1
  Ni  Ni33  1  0.16619312  0.83196287  0.50146526  1
  Ni  Ni34  1  0.00034871  0.66856101  0.66581614  1
  Ni  Ni35  1  0.16499503  0.83227820  0.83240188  1
  Ni  Ni36  1  0.49809567  0.16601451  0.49884611  1
  Ni  Ni37  1  0.33213830  0.00027904  0.66503541  1
  Ni  Ni38  1  0.49946628  0.16577718  0.83407223  1
  Ni  Ni39  1  0.49939212  0.49930216  0.49948384  1
  Ni  Ni40  1  0.33230563  0.33232214  0.66486120  1
  Cr  Cr41  1  0.49849564  0.49931183  0.83400729  1
  Ni  Ni42  1  0.50043252  0.83407984  0.50063584  1
  Ni  Ni43  1  0.33135240  0.66679457  0.66496572  1
  Cr  Cr44  1  0.49952430  0.83477787  0.83264207  1
  Cr  Cr45  1  0.83105371  0.16488933  0.49978199  1
  Ni  Ni46  1  0.66636123  0.99813120  0.66639049  1
  Ni  Ni47  1  0.83264428  0.16594863  0.83424642  1
  Ni  Ni48  1  0.83294157  0.50358568  0.49850379  1
  Cr  Cr49  1  0.66505811  0.33335072  0.66687476  1
  Ni  Ni50  1  0.83567761  0.50060182  0.83486284  1
  Ni  Ni51  1  0.83277218  0.83066937  0.50038178  1
  Ni  Ni52  1  0.66769662  0.66839505  0.66389731  1
  Ni  Ni53  1  0.83446399  0.83284706  0.83194258  1
" 