7671,Ni73Fe18Cr8_3,-237.758742259064, 193.641377947422,Ni73Fe18Cr8,"# generated using pymatgen
 data_Cr2Fe3Ni13
_symmetry_space_group_name_H-M   'P 1'
_cell_length_a   7.44400224
_cell_length_b   7.44400224
_cell_length_c   10.52740893
_cell_angle_alpha   90.00000000
_cell_angle_beta   90.00000000
_cell_angle_gamma   90.00000000
_symmetry_Int_Tables_number   1
_chemical_formula_structural   Cr2Fe3Ni13
_chemical_formula_sum   'Cr6 Fe9 Ni39'
_cell_volume   583.35709441
_cell_formula_units_Z   3
loop_
 _symmetry_equiv_pos_site_id
 _symmetry_equiv_pos_as_xyz
  1  'x, y, z'
loop_
 _atom_site_type_symbol
 _atom_site_label
 _atom_site_symmetry_multiplicity
 _atom_site_fract_x
 _atom_site_fract_y
 _atom_site_fract_z
 _atom_site_occupancy
  Fe  Fe0  1  0.00222992  0.00189443  0.00180168  1
  Ni  Ni1  1  0.16790398  0.16664127  0.16876200  1
  Ni  Ni2  1  0.00232708  1.00123438  0.33515727  1
  Ni  Ni3  1  0.00342670  0.33329932  0.00300772  1
  Fe  Fe4  1  0.16869320  0.49959100  0.16971299  1
  Ni  Ni5  1  0.00174371  0.33470971  0.33521550  1
  Ni  Ni6  1  0.00214773  0.67000582  0.00354166  1
  Ni  Ni7  1  0.16807811  0.83693494  0.16948886  1
  Ni  Ni8  1  0.00212700  0.66844857  0.33445408  1
  Ni  Ni9  1  0.33508998  0.00307506  1.00153822  1
  Ni  Ni10  1  0.50082215  0.16655279  0.16971288  1
  Ni  Ni11  1  0.33428064  1.00119447  0.33460953  1
  Ni  Ni12  1  0.33372880  0.33128821  1.00153199  1
  Ni  Ni13  1  0.50222255  0.50079202  0.17140178  1
  Ni  Ni14  1  0.33470365  0.33465094  0.33480187  1
  Cr  Cr15  1  0.33425681  0.67049593  0.00231094  1
  Ni  Ni16  1  0.50012394  0.83724959  0.17056943  1
  Ni  Ni17  1  0.33424080  0.66878042  0.33530449  1
  Ni  Ni18  1  0.66690898  0.00198982  1.00064526  1
  Ni  Ni19  1  0.83591017  0.16861589  0.16934958  1
  Ni  Ni20  1  0.66788335  0.00164893  0.33534579  1
  Cr  Cr21  1  0.66701289  0.33192759  0.00177340  1
  Ni  Ni22  1  0.83667244  0.50056577  0.17042628  1
  Ni  Ni23  1  0.66833469  0.33472195  0.33479618  1
  Cr  Cr24  1  0.66868639  0.67123646  0.00180950  1
  Fe  Fe25  1  0.83441696  0.83718448  0.16927473  1
  Ni  Ni26  1  0.66829617  0.66817552  0.33492166  1
  Fe  Fe27  1  0.16900326  0.16821064  0.50094899  1
  Ni  Ni28  1  0.00294792  1.00154337  0.66894818  1
  Ni  Ni29  1  0.16792702  0.16618233  0.83448361  1
  Ni  Ni30  1  0.16721571  0.50213933  0.50039044  1
  Ni  Ni31  1  0.00328253  0.33305885  0.66640391  1
  Cr  Cr32  1  0.16819883  0.50102045  0.83394912  1
  Ni  Ni33  1  0.16882250  0.83593734  0.50146365  1
  Ni  Ni34  1  0.00184531  0.66973288  0.66678905  1
  Ni  Ni35  1  0.16753921  0.83780672  0.83394590  1
  Fe  Fe36  1  0.50002056  0.16734378  0.50027623  1
  Ni  Ni37  1  0.33447198  1.00146126  0.66852379  1
  Ni  Ni38  1  0.49965440  0.16542996  0.83474372  1
  Ni  Ni39  1  0.50185152  0.50321699  0.50058803  1
  Fe  Fe40  1  0.33392719  0.33326624  0.66706248  1
  Ni  Ni41  1  0.49940678  0.50185314  0.83225994  1
  Ni  Ni42  1  0.50088150  0.83569001  0.50105595  1
  Fe  Fe43  1  0.33484831  0.67052274  0.66609692  1
  Ni  Ni44  1  0.50109650  0.83741869  0.83272953  1
  Fe  Fe45  1  0.83583579  0.16674340  0.50075522  1
  Ni  Ni46  1  0.66726971  0.99998298  0.66877865  1
  Ni  Ni47  1  0.83707334  0.16453792  0.83472936  1
  Ni  Ni48  1  0.83541569  0.50090713  0.50069723  1
  Cr  Cr49  1  0.66804554  0.33340112  0.66838909  1
  Cr  Cr50  1  0.83649566  0.50217734  0.83405858  1
  Fe  Fe51  1  0.83472129  0.83287215  0.50217366  1
  Ni  Ni52  1  0.66749199  0.67022935  0.66810121  1
  Ni  Ni53  1  0.83602857  0.83799606  0.83397972  1
" 