456,Ni73Fe6Cr20_18,-231.67589015466, 163.452796326294,Ni73Fe6Cr20,"# generated using pymatgen
 data_Cr4FeNi13
_symmetry_space_group_name_H-M   'P 1'
_cell_length_a   7.46576629
_cell_length_b   7.46576629
_cell_length_c   10.55818793
_cell_angle_alpha   90.00000000
_cell_angle_beta   90.00000000
_cell_angle_gamma   90.00000000
_symmetry_Int_Tables_number   1
_chemical_formula_structural   Cr4FeNi13
_chemical_formula_sum   'Cr12 Fe3 Ni39'
_cell_volume   588.48875497
_cell_formula_units_Z   3
loop_
 _symmetry_equiv_pos_site_id
 _symmetry_equiv_pos_as_xyz
  1  'x, y, z'
loop_
 _atom_site_type_symbol
 _atom_site_label
 _atom_site_symmetry_multiplicity
 _atom_site_fract_x
 _atom_site_fract_y
 _atom_site_fract_z
 _atom_site_occupancy
  Ni  Ni0  1  0.00216578  0.99936683  0.00074838  1
  Ni  Ni1  1  0.16670037  0.16491836  0.16613885  1
  Ni  Ni2  1  0.00327375  0.99904505  0.33213063  1
  Fe  Fe3  1  0.00106212  0.33338646  0.99950196  1
  Ni  Ni4  1  0.16606160  0.50082432  0.16497073  1
  Cr  Cr5  1  0.00202357  0.33315028  0.33211431  1
  Ni  Ni6  1  0.00216200  0.66722517  0.00082641  1
  Ni  Ni7  1  0.16566881  0.83444946  0.16615424  1
  Cr  Cr8  1  0.00153260  0.66818626  0.33355336  1
  Ni  Ni9  1  0.32827630  0.00203444  0.00159797  1
  Ni  Ni10  1  0.49905791  0.16817924  0.16743020  1
  Ni  Ni11  1  0.32984006  0.00282930  0.33282028  1
  Ni  Ni12  1  0.33210645  0.33330957  0.00025496  1
  Cr  Cr13  1  0.49835984  0.49786462  0.16694259  1
  Ni  Ni14  1  0.33450461  0.33207084  0.33467482  1
  Ni  Ni15  1  0.32801609  0.66493785  0.99939783  1
  Cr  Cr16  1  0.49493108  0.83440572  0.16627596  1
  Ni  Ni17  1  0.33040262  0.66536418  0.33382285  1
  Cr  Cr18  1  0.66920854  0.00280468  0.00122382  1
  Ni  Ni19  1  0.83449258  0.16787382  0.16565524  1
  Cr  Cr20  1  0.66779612  0.00260630  0.33150787  1
  Ni  Ni21  1  0.66759872  0.33342022  0.00087782  1
  Ni  Ni22  1  0.83510931  0.49765057  0.16509512  1
  Ni  Ni23  1  0.66428951  0.33322033  0.33291053  1
  Cr  Cr24  1  0.66978588  0.66439148  0.99926569  1
  Ni  Ni25  1  0.83838493  0.83469270  0.16624234  1
  Cr  Cr26  1  0.66874600  0.66414403  0.33397969  1
  Ni  Ni27  1  0.16851278  0.16495468  0.50114895  1
  Ni  Ni28  1  0.00108283  0.99894293  0.66745183  1
  Ni  Ni29  1  0.16372046  0.16581024  0.83297590  1
  Ni  Ni30  1  0.16796154  0.50101717  0.50188852  1
  Ni  Ni31  1  0.00136884  0.33440315  0.66845334  1
  Ni  Ni32  1  0.16587780  0.50119870  0.83343638  1
  Ni  Ni33  1  0.16696579  0.83424042  0.50029770  1
  Ni  Ni34  1  0.99983217  0.66681603  0.66641159  1
  Ni  Ni35  1  0.16575430  0.83326209  0.83388348  1
  Ni  Ni36  1  0.49839141  0.16878806  0.50042501  1
  Ni  Ni37  1  0.33067970  0.00159385  0.66582249  1
  Cr  Cr38  1  0.49981590  0.16833739  0.83214052  1
  Ni  Ni39  1  0.49995349  0.49843231  0.50106967  1
  Ni  Ni40  1  0.33257938  0.33419632  0.66531749  1
  Ni  Ni41  1  0.50008302  0.50019939  0.83217420  1
  Cr  Cr42  1  0.49703105  0.83323606  0.50155030  1
  Ni  Ni43  1  0.33165336  0.66446468  0.66702335  1
  Cr  Cr44  1  0.49645517  0.83146672  0.83230770  1
  Cr  Cr45  1  0.83442383  0.16826828  0.50184746  1
  Ni  Ni46  1  0.66882301  1.00006564  0.66703883  1
  Ni  Ni47  1  0.83615723  0.16864055  0.83289524  1
  Ni  Ni48  1  0.83234336  0.49985777  0.50246476  1
  Ni  Ni49  1  0.66635831  0.33533506  0.66648760  1
  Ni  Ni50  1  0.83429607  0.49807472  0.83269290  1
  Fe  Fe51  1  0.83623878  0.83280399  0.50241375  1
  Ni  Ni52  1  0.66901276  0.66477457  0.66681414  1
  Fe  Fe53  1  0.83770442  0.83310108  0.83208638  1
" 