172,Ni73Fe18Cr7_15,-238.553448063784, 198.209955491005,Ni73Fe18Cr7,"# generated using pymatgen
 data_Cr5Fe10Ni39
_symmetry_space_group_name_H-M   'P 1'
_cell_length_a   7.43175743
_cell_length_b   7.43175743
_cell_length_c   10.51009215
_cell_angle_alpha   90.00000000
_cell_angle_beta   90.00000000
_cell_angle_gamma   90.00000000
_symmetry_Int_Tables_number   1
_chemical_formula_structural   Cr5Fe10Ni39
_chemical_formula_sum   'Cr5 Fe10 Ni39'
_cell_volume   580.48309466
_cell_formula_units_Z   1
loop_
 _symmetry_equiv_pos_site_id
 _symmetry_equiv_pos_as_xyz
  1  'x, y, z'
loop_
 _atom_site_type_symbol
 _atom_site_label
 _atom_site_symmetry_multiplicity
 _atom_site_fract_x
 _atom_site_fract_y
 _atom_site_fract_z
 _atom_site_occupancy
  Fe  Fe0  1  0.00342644  1.00169771  0.00293250  1
  Ni  Ni1  1  0.16897184  0.16832169  0.16910925  1
  Ni  Ni2  1  0.00278409  1.00217148  0.33594280  1
  Ni  Ni3  1  0.00346568  0.33704212  0.00306571  1
  Ni  Ni4  1  0.16887815  0.50344423  0.16896435  1
  Ni  Ni5  1  1.00194308  0.33499824  0.33531395  1
  Ni  Ni6  1  1.00231080  0.66838482  0.00266719  1
  Ni  Ni7  1  0.16886191  0.83535596  0.16979574  1
  Ni  Ni8  1  0.00347695  0.66995359  0.33526588  1
  Ni  Ni9  1  0.33619274  0.00297978  1.00200290  1
  Ni  Ni10  1  0.50340571  0.16911352  0.16911761  1
  Fe  Fe11  1  0.33455062  0.00348066  0.33494694  1
  Ni  Ni12  1  0.33535346  0.33507540  0.00249880  1
  Ni  Ni13  1  0.50201707  0.50116900  0.16896302  1
  Fe  Fe14  1  0.33657290  0.33477668  0.33476035  1
  Ni  Ni15  1  0.33522289  0.66906709  0.00262609  1
  Fe  Fe16  1  0.50147299  0.83659951  0.16792097  1
  Fe  Fe17  1  0.33375221  0.66886836  0.33423649  1
  Ni  Ni18  1  0.66762084  1.00182679  0.00357162  1
  Ni  Ni19  1  0.83474548  0.16909744  0.16962400  1
  Ni  Ni20  1  0.66966864  0.00498498  0.33512296  1
  Ni  Ni21  1  0.66830463  0.33607303  0.00350691  1
  Ni  Ni22  1  0.83622632  0.50127793  0.16824326  1
  Ni  Ni23  1  0.66867386  0.33401911  0.33613276  1
  Ni  Ni24  1  0.66958842  0.66922158  1.00186950  1
  Fe  Fe25  1  0.83665495  0.83645304  0.16851498  1
  Cr  Cr26  1  0.67009468  0.66791635  0.33538624  1
  Fe  Fe27  1  0.16898266  0.16734207  0.50267873  1
  Ni  Ni28  1  0.00530288  1.00064014  0.66790363  1
  Ni  Ni29  1  0.17129538  0.16819119  0.83524828  1
  Cr  Cr30  1  0.16876468  0.50379447  0.50227119  1
  Fe  Fe31  1  0.00269079  0.33635614  0.66948243  1
  Ni  Ni32  1  0.16951487  0.50325958  0.83606137  1
  Ni  Ni33  1  0.16678774  0.83717561  0.50261658  1
  Ni  Ni34  1  1.00162356  0.67041016  0.66918952  1
  Ni  Ni35  1  0.16873987  0.83567143  0.83470788  1
  Ni  Ni36  1  0.50260979  0.17113428  0.50156396  1
  Ni  Ni37  1  0.33279526  0.00368200  0.66944579  1
  Ni  Ni38  1  0.50016870  0.17002296  0.83643908  1
  Ni  Ni39  1  0.50390262  0.49933397  0.50336410  1
  Ni  Ni40  1  0.33703387  0.33478516  0.66972985  1
  Ni  Ni41  1  0.50246189  0.50194092  0.83479517  1
  Cr  Cr42  1  0.50092692  0.83601040  0.50299087  1
  Ni  Ni43  1  0.33518677  0.66865517  0.67018029  1
  Fe  Fe44  1  0.50131787  0.83465566  0.83649730  1
  Fe  Fe45  1  0.83583377  0.16961928  0.50082894  1
  Cr  Cr46  1  0.66897173  1.00223816  0.66876673  1
  Cr  Cr47  1  0.83554082  0.16964107  0.83668453  1
  Ni  Ni48  1  0.83464875  0.50189054  0.50365546  1
  Ni  Ni49  1  0.66726949  0.33846311  0.66748209  1
  Ni  Ni50  1  0.83514618  0.50449845  0.83522486  1
  Ni  Ni51  1  0.83916491  0.83587986  0.50224896  1
  Ni  Ni52  1  0.67031220  0.66617056  0.66970880  1
  Ni  Ni53  1  0.83697990  0.83337882  0.83634207  1
" 