8053,Ni73Fe18Cr7_8,-238.399869217793, 196.649752742199,Ni73Fe18Cr7,"# generated using pymatgen
 data_Cr5Fe10Ni39
_symmetry_space_group_name_H-M   'P 1'
_cell_length_a   7.43273732
_cell_length_b   7.43273732
_cell_length_c   10.51147793
_cell_angle_alpha   90.00000000
_cell_angle_beta   90.00000000
_cell_angle_gamma   90.00000000
_symmetry_Int_Tables_number   1
_chemical_formula_structural   Cr5Fe10Ni39
_chemical_formula_sum   'Cr5 Fe10 Ni39'
_cell_volume   580.71273811
_cell_formula_units_Z   1
loop_
 _symmetry_equiv_pos_site_id
 _symmetry_equiv_pos_as_xyz
  1  'x, y, z'
loop_
 _atom_site_type_symbol
 _atom_site_label
 _atom_site_symmetry_multiplicity
 _atom_site_fract_x
 _atom_site_fract_y
 _atom_site_fract_z
 _atom_site_occupancy
  Ni  Ni0  1  0.00318434  1.00196033  1.00222307  1
  Ni  Ni1  1  0.16735851  0.16860301  0.16773884  1
  Ni  Ni2  1  0.00275782  1.00179933  0.33547400  1
  Ni  Ni3  1  0.00498271  0.33480176  1.00214769  1
  Fe  Fe4  1  0.16798338  0.50176960  0.16800475  1
  Ni  Ni5  1  1.00099152  0.33546207  0.33505398  1
  Ni  Ni6  1  1.00205033  0.67016275  1.00162771  1
  Fe  Fe7  1  0.16880302  0.83641725  0.16878264  1
  Ni  Ni8  1  1.00163727  0.66966895  0.33578948  1
  Fe  Fe9  1  0.33408452  1.00173170  0.00305974  1
  Ni  Ni10  1  0.50218135  0.16729920  0.16950046  1
  Ni  Ni11  1  0.33560520  1.00126386  0.33585753  1
  Ni  Ni12  1  0.33361520  0.33605186  0.00258074  1
  Ni  Ni13  1  0.50278964  0.50461035  0.16903880  1
  Cr  Cr14  1  0.33679043  0.33469865  0.33571543  1
  Fe  Fe15  1  0.33545210  0.66823815  1.00165479  1
  Ni  Ni16  1  0.50253999  0.83501082  0.16884638  1
  Fe  Fe17  1  0.33636636  0.67059109  0.33600887  1
  Fe  Fe18  1  0.67072947  1.00025695  0.00290929  1
  Ni  Ni19  1  0.83738890  0.16885180  0.17015394  1
  Ni  Ni20  1  0.66856050  1.00191683  0.33510749  1
  Cr  Cr21  1  0.66852093  0.33696680  0.00355717  1
  Ni  Ni22  1  0.83649642  0.50277632  0.17025994  1
  Ni  Ni23  1  0.66968832  0.33598240  0.33544892  1
  Ni  Ni24  1  0.66853361  0.67051549  1.00166916  1
  Fe  Fe25  1  0.83491835  0.83569167  0.16914584  1
  Ni  Ni26  1  0.66915756  0.66902386  0.33559431  1
  Ni  Ni27  1  0.16856173  0.17003946  0.50294713  1
  Cr  Cr28  1  0.00298035  1.00195803  0.66888287  1
  Ni  Ni29  1  0.16731042  0.17064845  0.83623794  1
  Ni  Ni30  1  0.16747829  0.50173316  0.50203408  1
  Ni  Ni31  1  0.00276225  0.33682291  0.66972762  1
  Ni  Ni32  1  0.16809101  0.50140452  0.83703190  1
  Fe  Fe33  1  0.16920694  0.83628604  0.50101015  1
  Ni  Ni34  1  1.00057035  0.66768805  0.66951255  1
  Ni  Ni35  1  0.16807258  0.83486793  0.83674254  1
  Ni  Ni36  1  0.50292519  0.16789283  0.50310531  1
  Ni  Ni37  1  0.33663234  0.00368786  0.66842712  1
  Cr  Cr38  1  0.50159718  0.16838044  0.83400128  1
  Ni  Ni39  1  0.50297212  0.50284829  0.50220411  1
  Ni  Ni40  1  0.33545574  0.33452157  0.66875809  1
  Ni  Ni41  1  0.50153596  0.50461950  0.83568007  1
  Ni  Ni42  1  0.50402763  0.83618686  0.50192073  1
  Cr  Cr43  1  0.33596431  0.66921474  0.66893953  1
  Ni  Ni44  1  0.50394057  0.83401711  0.83615629  1
  Ni  Ni45  1  0.83544008  0.16898111  0.50103170  1
  Ni  Ni46  1  0.66767864  1.00149538  0.66879785  1
  Ni  Ni47  1  0.83813687  0.16825369  0.83573560  1
  Fe  Fe48  1  0.83530676  0.50195819  0.50174941  1
  Ni  Ni49  1  0.66870252  0.33655965  0.66794834  1
  Fe  Fe50  1  0.83689809  0.50366905  0.83528034  1
  Ni  Ni51  1  0.83432426  0.83510562  0.50117203  1
  Ni  Ni52  1  0.66998045  0.66886603  0.66966505  1
  Ni  Ni53  1  0.83491442  0.83480551  0.83698424  1
" 