8157,Ni73Fe6Cr20_11,-231.701588253431, 165.272661539595,Ni73Fe6Cr20,"# generated using pymatgen
 data_Cr4FeNi13
_symmetry_space_group_name_H-M   'P 1'
_cell_length_a   7.46544473
_cell_length_b   7.46544473
_cell_length_c   10.55773319
_cell_angle_alpha   90.00000000
_cell_angle_beta   90.00000000
_cell_angle_gamma   90.00000000
_symmetry_Int_Tables_number   1
_chemical_formula_structural   Cr4FeNi13
_chemical_formula_sum   'Cr12 Fe3 Ni39'
_cell_volume   588.41271838
_cell_formula_units_Z   3
loop_
 _symmetry_equiv_pos_site_id
 _symmetry_equiv_pos_as_xyz
  1  'x, y, z'
loop_
 _atom_site_type_symbol
 _atom_site_label
 _atom_site_symmetry_multiplicity
 _atom_site_fract_x
 _atom_site_fract_y
 _atom_site_fract_z
 _atom_site_occupancy
  Ni  Ni0  1  0.99755518  0.99747417  0.00050435  1
  Ni  Ni1  1  0.16554323  0.16689933  0.16832004  1
  Fe  Fe2  1  0.00069824  0.00198982  0.33332702  1
  Cr  Cr3  1  0.99943863  0.33276047  0.00281496  1
  Ni  Ni4  1  0.16775284  0.50001818  0.16603351  1
  Ni  Ni5  1  0.00022923  0.33219515  0.33342157  1
  Ni  Ni6  1  0.00217640  0.67035520  0.00080911  1
  Ni  Ni7  1  0.16630426  0.83340470  0.16533008  1
  Cr  Cr8  1  0.00048323  0.66537743  0.33325864  1
  Cr  Cr9  1  0.33214555  0.99819312  0.00055726  1
  Cr  Cr10  1  0.50044040  0.16731081  0.16699802  1
  Ni  Ni11  1  0.33364540  0.99917901  0.33476393  1
  Ni  Ni12  1  0.33510869  0.33701885  0.00125265  1
  Ni  Ni13  1  0.49965509  0.50075320  0.16655647  1
  Ni  Ni14  1  0.33217850  0.33369434  0.33404545  1
  Ni  Ni15  1  0.33164208  0.66516597  0.00182848  1
  Ni  Ni16  1  0.50048527  0.83204892  0.16834803  1
  Ni  Ni17  1  0.33522876  0.66744993  0.33255679  1
  Ni  Ni18  1  0.67102679  0.00093663  0.00047720  1
  Fe  Fe19  1  0.83402032  0.16613106  0.16720415  1
  Ni  Ni20  1  0.66635900  0.99917971  0.33364527  1
  Ni  Ni21  1  0.66583627  0.33239398  1.00009266  1
  Ni  Ni22  1  0.83291408  0.49999728  0.16728445  1
  Ni  Ni23  1  0.66791426  0.33378225  0.33410837  1
  Cr  Cr24  1  0.66629742  0.66692750  0.00129826  1
  Ni  Ni25  1  0.83353339  0.83425679  0.16598226  1
  Ni  Ni26  1  0.66486395  0.66735951  0.33361234  1
  Ni  Ni27  1  0.16692744  0.16642745  0.50069737  1
  Ni  Ni28  1  0.00119237  0.99946143  0.66686049  1
  Cr  Cr29  1  0.16592243  0.16506975  0.83118328  1
  Ni  Ni30  1  0.16605153  0.49839448  0.50030939  1
  Ni  Ni31  1  0.99928822  0.33262582  0.66430632  1
  Cr  Cr32  1  0.16789794  0.50183132  0.83370973  1
  Ni  Ni33  1  0.16760685  0.83550133  0.50101609  1
  Ni  Ni34  1  0.99863642  0.66823669  0.66639691  1
  Ni  Ni35  1  0.16294585  0.83371867  0.83397701  1
  Ni  Ni36  1  0.49923527  0.16704265  0.50016071  1
  Ni  Ni37  1  0.33055531  0.00100596  0.66448343  1
  Cr  Cr38  1  0.50139386  0.16990702  0.83332518  1
  Ni  Ni39  1  0.50178837  0.49945375  0.49984105  1
  Ni  Ni40  1  0.33391887  0.33253686  0.66502294  1
  Ni  Ni41  1  0.50068787  0.49810636  0.83392421  1
  Ni  Ni42  1  0.49961811  0.83382452  0.49805448  1
  Cr  Cr43  1  0.33348932  0.66693154  0.66584922  1
  Cr  Cr44  1  0.50003239  0.83244628  0.83401288  1
  Ni  Ni45  1  0.83415911  0.16859752  0.49929597  1
  Cr  Cr46  1  0.66769915  0.00025034  0.66634543  1
  Ni  Ni47  1  0.83296199  0.16477280  0.83463599  1
  Ni  Ni48  1  0.83248318  0.49877781  0.50167167  1
  Ni  Ni49  1  0.66711525  0.33509237  0.66612249  1
  Cr  Cr50  1  0.83203184  0.50046806  0.83115632  1
  Fe  Fe51  1  0.83309368  0.83306594  0.50051417  1
  Ni  Ni52  1  0.66866272  0.66487469  0.66522293  1
  Ni  Ni53  1  0.83692523  0.83512236  0.83327011  1
" 