791,Ni73Fe18Cr8_1,-237.470170416239, 192.143438577338,Ni73Fe18Cr8,"# generated using pymatgen
 data_Cr2Fe3Ni13
_symmetry_space_group_name_H-M   'P 1'
_cell_length_a   7.43860683
_cell_length_b   7.43860683
_cell_length_c   10.51977867
_cell_angle_alpha   90.00000000
_cell_angle_beta   90.00000000
_cell_angle_gamma   90.00000000
_symmetry_Int_Tables_number   1
_chemical_formula_structural   Cr2Fe3Ni13
_chemical_formula_sum   'Cr6 Fe9 Ni39'
_cell_volume   582.08956248
_cell_formula_units_Z   3
loop_
 _symmetry_equiv_pos_site_id
 _symmetry_equiv_pos_as_xyz
  1  'x, y, z'
loop_
 _atom_site_type_symbol
 _atom_site_label
 _atom_site_symmetry_multiplicity
 _atom_site_fract_x
 _atom_site_fract_y
 _atom_site_fract_z
 _atom_site_occupancy
  Cr  Cr0  1  1.00176673  1.00173994  0.00204350  1
  Ni  Ni1  1  0.16761682  0.16996801  0.16844952  1
  Fe  Fe2  1  0.00194992  0.00243761  0.33538851  1
  Fe  Fe3  1  1.00130746  0.33666778  1.00131659  1
  Fe  Fe4  1  0.16924268  0.50126241  0.16933367  1
  Ni  Ni5  1  1.00171560  0.33604536  0.33501219  1
  Ni  Ni6  1  0.00272606  0.66665177  0.00201682  1
  Ni  Ni7  1  0.16746760  0.83354540  0.16835626  1
  Ni  Ni8  1  0.00231321  0.66795967  0.33496654  1
  Ni  Ni9  1  0.33526684  0.00273977  1.00117549  1
  Ni  Ni10  1  0.50188516  0.17208179  0.16641175  1
  Cr  Cr11  1  0.33301489  0.00403976  0.33598443  1
  Fe  Fe12  1  0.33629586  0.33575420  0.00214265  1
  Ni  Ni13  1  0.50240320  0.50117206  0.16860887  1
  Ni  Ni14  1  0.33554312  0.33681553  0.33476979  1
  Ni  Ni15  1  0.33376489  0.66744967  1.00120484  1
  Cr  Cr16  1  0.50142540  0.83264239  0.16697172  1
  Ni  Ni17  1  0.33290782  0.66498812  0.33543438  1
  Ni  Ni18  1  0.66798442  0.00395774  1.00075201  1
  Ni  Ni19  1  0.83622086  0.17175659  0.16795760  1
  Cr  Cr20  1  0.67062713  0.00496775  0.33519654  1
  Ni  Ni21  1  0.66859184  0.33526196  0.00235231  1
  Fe  Fe22  1  0.83528103  0.50118137  0.16844516  1
  Ni  Ni23  1  0.66859047  0.33664592  0.33561753  1
  Ni  Ni24  1  0.66937774  0.66630143  1.00168226  1
  Fe  Fe25  1  0.83578800  0.83421542  0.16807268  1
  Ni  Ni26  1  0.67079603  0.66443777  0.33479039  1
  Ni  Ni27  1  0.16796666  0.17135839  0.50159286  1
  Cr  Cr28  1  1.00137554  1.00170369  0.66734232  1
  Ni  Ni29  1  0.17009055  0.17135046  0.83559114  1
  Ni  Ni30  1  0.16785632  0.50140221  0.50178092  1
  Ni  Ni31  1  1.00182674  0.33706627  0.66921578  1
  Fe  Fe32  1  0.16827396  0.50186677  0.83403232  1
  Ni  Ni33  1  0.16719857  0.83295992  0.50232899  1
  Ni  Ni34  1  1.00176802  0.66681322  0.66866979  1
  Fe  Fe35  1  0.16920357  0.83477013  0.83526160  1
  Ni  Ni36  1  0.50156874  0.17217461  0.50356986  1
  Ni  Ni37  1  0.33551148  0.00312682  0.66969595  1
  Ni  Ni38  1  0.50124407  0.16766628  0.83596252  1
  Ni  Ni39  1  0.50184566  0.50081150  0.50180005  1
  Ni  Ni40  1  0.33547488  0.33512198  0.66808468  1
  Fe  Fe41  1  0.50368635  0.50110437  0.83499982  1
  Cr  Cr42  1  0.50203942  0.83252177  0.50383264  1
  Ni  Ni43  1  0.33405543  0.66728074  0.66919509  1
  Ni  Ni44  1  0.50178474  0.83442188  0.83592559  1
  Ni  Ni45  1  0.83612287  0.17145218  0.50252301  1
  Ni  Ni46  1  0.66820674  0.00327145  0.67033647  1
  Ni  Ni47  1  0.83448304  0.17127890  0.83516094  1
  Ni  Ni48  1  0.83603183  0.50166866  0.50180478  1
  Ni  Ni49  1  0.66861654  0.33532173  0.66779334  1
  Ni  Ni50  1  0.83619392  0.50197840  0.83561654  1
  Ni  Ni51  1  0.83671508  0.83259708  0.50121676  1
  Ni  Ni52  1  0.66989380  0.66693595  0.66932182  1
  Ni  Ni53  1  0.83232650  0.83251925  0.83612224  1
" 