112,Ni74Fe22Cr2_13,-241.301702891494, 207.932160681027,Ni74Fe22Cr2,"# generated using pymatgen
 data_Cr(Fe3Ni10)2
_symmetry_space_group_name_H-M   'P 1'
_cell_length_a   7.42130835
_cell_length_b   7.42130835
_cell_length_c   10.49531492
_cell_angle_alpha   90.00000000
_cell_angle_beta   90.00000000
_cell_angle_gamma   90.00000000
_symmetry_Int_Tables_number   1
_chemical_formula_structural   Cr(Fe3Ni10)2
_chemical_formula_sum   'Cr2 Fe12 Ni40'
_cell_volume   578.03805020
_cell_formula_units_Z   2
loop_
 _symmetry_equiv_pos_site_id
 _symmetry_equiv_pos_as_xyz
  1  'x, y, z'
loop_
 _atom_site_type_symbol
 _atom_site_label
 _atom_site_symmetry_multiplicity
 _atom_site_fract_x
 _atom_site_fract_y
 _atom_site_fract_z
 _atom_site_occupancy
  Ni  Ni0  1  0.00347476  1.00227600  1.00288445  1
  Fe  Fe1  1  0.16793510  0.16758927  0.16975975  1
  Ni  Ni2  1  0.00455033  0.00315564  0.33762279  1
  Fe  Fe3  1  1.00184609  0.33497626  1.00237233  1
  Cr  Cr4  1  0.16933537  0.50461858  0.16888402  1
  Ni  Ni5  1  1.00113177  0.33559389  0.33700115  1
  Ni  Ni6  1  1.00197831  0.67136470  1.00298945  1
  Ni  Ni7  1  0.17040151  0.83606450  0.16973617  1
  Ni  Ni8  1  1.00214177  0.67018026  0.33690730  1
  Ni  Ni9  1  0.33560355  0.00347958  1.00305072  1
  Fe  Fe10  1  0.50387991  0.16913886  0.16927220  1
  Ni  Ni11  1  0.33501983  1.00198643  0.33508523  1
  Ni  Ni12  1  0.33772432  0.33498997  0.00333669  1
  Fe  Fe13  1  0.50490616  0.50495823  0.16862853  1
  Fe  Fe14  1  0.33526309  0.33760586  0.33674834  1
  Ni  Ni15  1  0.33684006  0.67065461  1.00102834  1
  Ni  Ni16  1  0.50263758  0.83644430  0.16837910  1
  Ni  Ni17  1  0.33775243  0.67186287  0.33822488  1
  Ni  Ni18  1  0.67004915  0.00354937  0.00339195  1
  Ni  Ni19  1  0.83534226  0.16991937  0.16975357  1
  Fe  Fe20  1  0.67121465  1.00122062  0.33597717  1
  Ni  Ni21  1  0.66951334  0.33658941  1.00230065  1
  Ni  Ni22  1  0.83588223  0.50247154  0.16862407  1
  Ni  Ni23  1  0.67107646  0.33823713  0.33614723  1
  Ni  Ni24  1  0.67058309  0.66930099  1.00283824  1
  Ni  Ni25  1  0.83640214  0.83650766  0.17012482  1
  Ni  Ni26  1  0.66972303  0.66831190  0.33623690  1
  Ni  Ni27  1  0.16903705  0.17032916  0.50269305  1
  Fe  Fe28  1  1.00252582  0.00342225  0.66981229  1
  Ni  Ni29  1  0.17025714  0.16970512  0.83708419  1
  Ni  Ni30  1  0.16925613  0.50333351  0.50365836  1
  Ni  Ni31  1  0.00330934  0.33680215  0.66998782  1
  Fe  Fe32  1  0.16945232  0.50247396  0.83627725  1
  Ni  Ni33  1  0.17022578  0.83567376  0.50309468  1
  Ni  Ni34  1  1.00248786  0.66977751  0.66893065  1
  Ni  Ni35  1  0.16917739  0.83563861  0.83660670  1
  Cr  Cr36  1  0.50426608  0.16902955  0.50302981  1
  Ni  Ni37  1  0.33510864  0.00313627  0.67112455  1
  Ni  Ni38  1  0.50336383  0.17129193  0.83703120  1
  Fe  Fe39  1  0.50389599  0.50431259  0.50412559  1
  Ni  Ni40  1  0.33536832  0.33534927  0.66947767  1
  Ni  Ni41  1  0.50253765  0.50241955  0.83629424  1
  Ni  Ni42  1  0.50300640  0.83574378  0.50420698  1
  Fe  Fe43  1  0.33678048  0.66916713  0.66992868  1
  Fe  Fe44  1  0.50389095  0.83803999  0.83671913  1
  Ni  Ni45  1  0.83706309  0.17039300  0.50386499  1
  Ni  Ni46  1  0.66946963  1.00230551  0.67016204  1
  Ni  Ni47  1  0.83541685  0.16926676  0.83594995  1
  Ni  Ni48  1  0.83730065  0.50284280  0.50319672  1
  Ni  Ni49  1  0.67059549  0.33735356  0.67049383  1
  Fe  Fe50  1  0.83636246  0.50318972  0.83620389  1
  Ni  Ni51  1  0.83601886  0.83598562  0.50223791  1
  Ni  Ni52  1  0.67119958  0.66983237  0.66981937  1
  Ni  Ni53  1  0.83682520  0.83654410  0.83708972  1
" 