248,Ni74Fe24Cr0_15,-242.508122234625, 212.031317118211,Ni74Fe24Cr0,"# generated using pymatgen
 data_CrFe13Ni40
_symmetry_space_group_name_H-M   'P 1'
_cell_length_a   7.42082417
_cell_length_b   7.42082417
_cell_length_c   10.49463018
_cell_angle_alpha   90.00000000
_cell_angle_beta   90.00000000
_cell_angle_gamma   90.00000000
_symmetry_Int_Tables_number   1
_chemical_formula_structural   CrFe13Ni40
_chemical_formula_sum   'Cr1 Fe13 Ni40'
_cell_volume   577.92492062
_cell_formula_units_Z   1
loop_
 _symmetry_equiv_pos_site_id
 _symmetry_equiv_pos_as_xyz
  1  'x, y, z'
loop_
 _atom_site_type_symbol
 _atom_site_label
 _atom_site_symmetry_multiplicity
 _atom_site_fract_x
 _atom_site_fract_y
 _atom_site_fract_z
 _atom_site_occupancy
  Ni  Ni0  1  0.00439133  0.00395930  1.00301879  1
  Ni  Ni1  1  0.16821280  0.16920137  0.16960401  1
  Ni  Ni2  1  0.00497764  0.00441490  0.33636875  1
  Ni  Ni3  1  1.00218818  0.33578471  1.00243036  1
  Ni  Ni4  1  0.17010109  0.50343331  0.16993515  1
  Ni  Ni5  1  1.00202535  0.33509809  0.33728531  1
  Ni  Ni6  1  0.00362092  0.66959805  0.00328193  1
  Ni  Ni7  1  0.17016448  0.83670934  0.16986856  1
  Fe  Fe8  1  0.00350719  0.66978003  0.33662146  1
  Ni  Ni9  1  0.33554707  1.00220237  1.00286806  1
  Fe  Fe10  1  0.50248130  0.16949591  0.16967471  1
  Ni  Ni11  1  0.33467481  1.00197887  0.33678603  1
  Fe  Fe12  1  0.33615931  0.33665932  1.00234643  1
  Ni  Ni13  1  0.50348715  0.50424467  0.16960385  1
  Fe  Fe14  1  0.33622060  0.33659829  0.33733472  1
  Ni  Ni15  1  0.33674741  0.67093065  1.00243616  1
  Ni  Ni16  1  0.50310770  0.83558285  0.17036175  1
  Ni  Ni17  1  0.33743709  0.67109542  0.33728286  1
  Ni  Ni18  1  0.66940448  0.00363196  1.00270261  1
  Ni  Ni19  1  0.83688173  0.16957826  0.17036216  1
  Fe  Fe20  1  0.66976014  1.00311064  0.33600985  1
  Ni  Ni21  1  0.67073392  0.33698406  1.00290034  1
  Fe  Fe22  1  0.83662062  0.50276367  0.16961322  1
  Ni  Ni23  1  0.67095556  0.33785879  0.33675021  1
  Ni  Ni24  1  0.66897707  0.66872612  1.00292507  1
  Fe  Fe25  1  0.83684818  0.83650771  0.16990489  1
  Ni  Ni26  1  0.66851946  0.66814181  0.33646526  1
  Ni  Ni27  1  0.16937104  0.16990567  0.50209328  1
  Ni  Ni28  1  1.00266383  0.00369429  0.66995382  1
  Ni  Ni29  1  0.16832830  0.16985089  0.83764725  1
  Ni  Ni30  1  0.17005543  0.50334665  0.50320752  1
  Fe  Fe31  1  0.00358323  0.33701774  0.67000609  1
  Ni  Ni32  1  0.16976727  0.50363683  0.83620210  1
  Ni  Ni33  1  0.16815050  0.83609165  0.50180118  1
  Fe  Fe34  1  0.00346210  0.66933661  0.66989064  1
  Ni  Ni35  1  0.16942542  0.83585778  0.83767526  1
  Ni  Ni36  1  0.50393523  0.17106341  0.50162497  1
  Cr  Cr37  1  0.33451304  1.00262106  0.67002833  1
  Ni  Ni38  1  0.50480155  0.17020114  0.83836509  1
  Ni  Ni39  1  0.50365529  0.50259311  0.50352752  1
  Ni  Ni40  1  0.33704124  0.33827725  0.66944001  1
  Ni  Ni41  1  0.50371077  0.50363068  0.83621060  1
  Fe  Fe42  1  0.50320690  0.83452318  0.50204751  1
  Ni  Ni43  1  0.33729491  0.66820820  0.66962452  1
  Ni  Ni44  1  0.50370234  0.83551163  0.83682252  1
  Fe  Fe45  1  0.83719560  0.17038730  0.50279115  1
  Fe  Fe46  1  0.67051993  0.00334226  0.67046419  1
  Ni  Ni47  1  0.83621325  0.16985852  0.83550539  1
  Ni  Ni48  1  0.83563458  0.50381224  0.50242169  1
  Ni  Ni49  1  0.66996509  0.33802171  0.66969140  1
  Ni  Ni50  1  0.83586661  0.50253298  0.83705521  1
  Ni  Ni51  1  0.83679058  0.83637267  0.50314428  1
  Ni  Ni52  1  0.66912408  0.66788508  0.66995237  1
  Fe  Fe53  1  0.83644910  0.83652881  0.83624342  1
" 