630,Ni74Fe22Cr2_3,-241.045639527511, 206.773045432377,Ni74Fe22Cr2,"# generated using pymatgen
 data_Cr(Fe3Ni10)2
_symmetry_space_group_name_H-M   'P 1'
_cell_length_a   7.42127100
_cell_length_b   7.42127100
_cell_length_c   10.49526210
_cell_angle_alpha   90.00000000
_cell_angle_beta   90.00000000
_cell_angle_gamma   90.00000000
_symmetry_Int_Tables_number   1
_chemical_formula_structural   Cr(Fe3Ni10)2
_chemical_formula_sum   'Cr2 Fe12 Ni40'
_cell_volume   578.02932297
_cell_formula_units_Z   2
loop_
 _symmetry_equiv_pos_site_id
 _symmetry_equiv_pos_as_xyz
  1  'x, y, z'
loop_
 _atom_site_type_symbol
 _atom_site_label
 _atom_site_symmetry_multiplicity
 _atom_site_fract_x
 _atom_site_fract_y
 _atom_site_fract_z
 _atom_site_occupancy
  Ni  Ni0  1  1.00272788  0.00402741  1.00297680  1
  Ni  Ni1  1  0.16974588  0.16964750  0.16931333  1
  Ni  Ni2  1  1.00162555  1.00279845  0.33656253  1
  Ni  Ni3  1  0.00418738  0.33571600  0.00315965  1
  Ni  Ni4  1  0.17149883  0.50337103  0.16978848  1
  Fe  Fe5  1  0.00503944  0.33452158  0.33647762  1
  Ni  Ni6  1  0.00416309  0.66950725  1.00217861  1
  Ni  Ni7  1  0.16945704  0.83623227  0.16946470  1
  Ni  Ni8  1  0.00569993  0.67149556  0.33627304  1
  Ni  Ni9  1  0.33707679  0.00328042  0.00404063  1
  Ni  Ni10  1  0.50280303  0.16935940  0.16958943  1
  Fe  Fe11  1  0.33664617  0.00336926  0.33624955  1
  Fe  Fe12  1  0.33596586  0.33655870  0.00344382  1
  Ni  Ni13  1  0.50102154  0.50363234  0.17010699  1
  Ni  Ni14  1  0.33742064  0.33796088  0.33630147  1
  Ni  Ni15  1  0.33678519  0.66911076  0.00309328  1
  Ni  Ni16  1  0.50335087  0.83626101  0.16908289  1
  Ni  Ni17  1  0.33590548  0.66772075  0.33676486  1
  Ni  Ni18  1  0.66944827  0.00325617  0.00326679  1
  Ni  Ni19  1  0.83670322  0.16731820  0.16978645  1
  Ni  Ni20  1  0.67065349  0.00431687  0.33659183  1
  Fe  Fe21  1  0.66897107  0.33529942  1.00282171  1
  Cr  Cr22  1  0.83678997  0.50407361  0.16941135  1
  Ni  Ni23  1  0.66688021  0.33389224  0.33665898  1
  Ni  Ni24  1  0.66830298  0.67057111  0.00325099  1
  Ni  Ni25  1  0.83644370  0.83801463  0.16998272  1
  Fe  Fe26  1  0.66779602  0.67159122  0.33653807  1
  Ni  Ni27  1  0.16968909  0.17022841  0.50340473  1
  Ni  Ni28  1  1.00283952  0.00391550  0.66971314  1
  Ni  Ni29  1  0.16943287  0.17024596  0.83653338  1
  Ni  Ni30  1  0.17140502  0.50270055  0.50290214  1
  Ni  Ni31  1  0.00433055  0.33591650  0.66950071  1
  Ni  Ni32  1  0.17001855  0.50301674  0.83656111  1
  Fe  Fe33  1  0.16963396  0.83663924  0.50263342  1
  Ni  Ni34  1  0.00349312  0.66941843  0.67080064  1
  Fe  Fe35  1  0.16965231  0.83711589  0.83710273  1
  Ni  Ni36  1  0.50266049  0.16916013  0.50341946  1
  Ni  Ni37  1  0.33716493  0.00395092  0.66893946  1
  Ni  Ni38  1  0.50299526  0.16989578  0.83624337  1
  Ni  Ni39  1  0.50091504  0.50373948  0.50287724  1
  Fe  Fe40  1  0.33590508  0.33604652  0.66927102  1
  Ni  Ni41  1  0.50241405  0.50337264  0.83626909  1
  Ni  Ni42  1  0.50402361  0.83635312  0.50360955  1
  Fe  Fe43  1  0.33624210  0.66984409  0.66944132  1
  Fe  Fe44  1  0.50324511  0.83711329  0.83658396  1
  Ni  Ni45  1  0.83690279  0.16711903  0.50328931  1
  Ni  Ni46  1  0.66924909  0.00311081  0.66939403  1
  Ni  Ni47  1  0.83682437  0.16826694  0.83617698  1
  Cr  Cr48  1  0.83688375  0.50392128  0.50336323  1
  Fe  Fe49  1  0.66943073  0.33484251  0.67001004  1
  Fe  Fe50  1  0.83686764  0.50255665  0.83635761  1
  Ni  Ni51  1  0.83586503  0.83806878  0.50273703  1
  Ni  Ni52  1  0.66888229  0.67051221  0.66969934  1
  Ni  Ni53  1  0.83646821  0.83656862  0.83653341  1
" 