1735,Ni74Fe24Cr0_7,-242.494613568398, 208.587302190705,Ni74Fe24Cr0,"# generated using pymatgen
 data_CrFe13Ni40
_symmetry_space_group_name_H-M   'P 1'
_cell_length_a   7.42753433
_cell_length_b   7.42753433
_cell_length_c   10.50411978
_cell_angle_alpha   90.00000000
_cell_angle_beta   90.00000000
_cell_angle_gamma   90.00000000
_symmetry_Int_Tables_number   1
_chemical_formula_structural   CrFe13Ni40
_chemical_formula_sum   'Cr1 Fe13 Ni40'
_cell_volume   579.49407641
_cell_formula_units_Z   1
loop_
 _symmetry_equiv_pos_site_id
 _symmetry_equiv_pos_as_xyz
  1  'x, y, z'
loop_
 _atom_site_type_symbol
 _atom_site_label
 _atom_site_symmetry_multiplicity
 _atom_site_fract_x
 _atom_site_fract_y
 _atom_site_fract_z
 _atom_site_occupancy
  Ni  Ni0  1  1.00183045  0.00359665  0.00310226  1
  Ni  Ni1  1  0.16862513  0.17144970  0.16975860  1
  Fe  Fe2  1  0.00275704  0.00375631  0.33567419  1
  Ni  Ni3  1  1.00228263  0.33470635  1.00263889  1
  Ni  Ni4  1  0.17069414  0.50119913  0.17043594  1
  Ni  Ni5  1  1.00234151  0.33769028  0.33603031  1
  Cr  Cr6  1  0.00322209  0.66901024  0.00268953  1
  Fe  Fe7  1  0.17141255  0.83768856  0.16912580  1
  Ni  Ni8  1  0.00406660  0.66961671  0.33560064  1
  Ni  Ni9  1  0.33741091  1.00228142  0.00343036  1
  Ni  Ni10  1  0.50279792  0.16933640  0.16972596  1
  Fe  Fe11  1  0.33656337  0.00438678  0.33552579  1
  Ni  Ni12  1  0.33649732  0.33629097  0.00280163  1
  Ni  Ni13  1  0.50028626  0.50263287  0.16978131  1
  Ni  Ni14  1  0.33655659  0.33718476  0.33625341  1
  Ni  Ni15  1  0.33741187  0.66950403  1.00259512  1
  Ni  Ni16  1  0.50441417  0.83593954  0.17032639  1
  Ni  Ni17  1  0.33447408  0.66965761  0.33550467  1
  Ni  Ni18  1  0.66911608  0.00282662  1.00230380  1
  Ni  Ni19  1  0.83645951  0.16728875  0.16990379  1
  Ni  Ni20  1  0.66898385  0.00319661  0.33619860  1
  Ni  Ni21  1  0.66903623  0.33483806  0.00337973  1
  Fe  Fe22  1  0.83433390  0.50058549  0.16936828  1
  Ni  Ni23  1  0.66876838  0.33370246  0.33533845  1
  Ni  Ni24  1  0.66776639  0.67007333  1.00263681  1
  Ni  Ni25  1  0.83518744  0.83797886  0.17041856  1
  Fe  Fe26  1  0.66875235  0.66713888  0.33481015  1
  Fe  Fe27  1  0.17062093  0.17159871  0.50278325  1
  Ni  Ni28  1  1.00209394  1.00220811  0.66851806  1
  Fe  Fe29  1  0.16976352  0.16890372  0.83634846  1
  Ni  Ni30  1  0.16930391  0.50331438  0.50303870  1
  Ni  Ni31  1  1.00246950  0.33639569  0.66944811  1
  Ni  Ni32  1  0.17038880  0.50218260  0.83453283  1
  Fe  Fe33  1  0.17089013  0.83497967  0.50392580  1
  Ni  Ni34  1  0.00352510  0.66938902  0.66915399  1
  Ni  Ni35  1  0.16967876  0.83646361  0.83530824  1
  Ni  Ni36  1  0.50342382  0.16937809  0.50205102  1
  Ni  Ni37  1  0.33721769  1.00258673  0.66876718  1
  Ni  Ni38  1  0.50356049  0.16922940  0.83608771  1
  Ni  Ni39  1  0.50096322  0.50198232  0.50279872  1
  Ni  Ni40  1  0.33693153  0.33604130  0.66916274  1
  Ni  Ni41  1  0.50166335  0.50209781  0.83563009  1
  Fe  Fe42  1  0.50173383  0.83514855  0.50252846  1
  Ni  Ni43  1  0.33512629  0.66924096  0.66992380  1
  Ni  Ni44  1  0.50243654  0.83659642  0.83517371  1
  Fe  Fe45  1  0.83541059  0.17111626  0.50290224  1
  Ni  Ni46  1  0.66883605  0.00369133  0.66937094  1
  Ni  Ni47  1  0.83595725  0.16854416  0.83554873  1
  Fe  Fe48  1  0.83538161  0.50144176  0.50314304  1
  Ni  Ni49  1  0.66857790  0.33440192  0.66922354  1
  Ni  Ni50  1  0.83581334  0.50136161  0.83495003  1
  Fe  Fe51  1  0.83523089  0.83527704  0.50244003  1
  Fe  Fe52  1  0.66874671  0.66859187  0.67081385  1
  Ni  Ni53  1  0.83584118  0.83791524  0.83470338  1
" 