2380,Ni74Fe24Cr0_11,-241.767424715095, 209.768363962211,Ni74Fe24Cr0,"# generated using pymatgen
 data_CrFe13Ni40
_symmetry_space_group_name_H-M   'P 1'
_cell_length_a   7.41720848
_cell_length_b   7.41720848
_cell_length_c   10.48951683
_cell_angle_alpha   90.00000000
_cell_angle_beta   90.00000000
_cell_angle_gamma   90.00000000
_symmetry_Int_Tables_number   1
_chemical_formula_structural   CrFe13Ni40
_chemical_formula_sum   'Cr1 Fe13 Ni40'
_cell_volume   577.08057634
_cell_formula_units_Z   1
loop_
 _symmetry_equiv_pos_site_id
 _symmetry_equiv_pos_as_xyz
  1  'x, y, z'
loop_
 _atom_site_type_symbol
 _atom_site_label
 _atom_site_symmetry_multiplicity
 _atom_site_fract_x
 _atom_site_fract_y
 _atom_site_fract_z
 _atom_site_occupancy
  Ni  Ni0  1  0.00365147  1.00232914  1.00243217  1
  Ni  Ni1  1  0.16942009  0.17113156  0.16996161  1
  Ni  Ni2  1  0.00442686  1.00289214  0.33719786  1
  Ni  Ni3  1  1.00208114  0.33690020  0.00392784  1
  Ni  Ni4  1  0.16978658  0.50208826  0.17080676  1
  Ni  Ni5  1  1.00203862  0.33652894  0.33600543  1
  Ni  Ni6  1  0.00352918  0.67089925  0.00361570  1
  Fe  Fe7  1  0.16997739  0.83733958  0.17065409  1
  Ni  Ni8  1  1.00205775  0.67068995  0.33663091  1
  Ni  Ni9  1  0.33706010  1.00291288  1.00271094  1
  Ni  Ni10  1  0.50293252  0.16956147  0.17031907  1
  Ni  Ni11  1  0.33697411  1.00313877  0.33716987  1
  Ni  Ni12  1  0.33782171  0.33625051  1.00304904  1
  Ni  Ni13  1  0.50288355  0.50390781  0.16977919  1
  Ni  Ni14  1  0.33800574  0.33469810  0.33717171  1
  Ni  Ni15  1  0.33605931  0.67100524  0.00444667  1
  Ni  Ni16  1  0.50505341  0.83647666  0.17057460  1
  Fe  Fe17  1  0.33651241  0.66919351  0.33668005  1
  Fe  Fe18  1  0.67040100  0.00381094  1.00281158  1
  Ni  Ni19  1  0.83802894  0.16908129  0.16946403  1
  Fe  Fe20  1  0.67088742  0.00488446  0.33725016  1
  Ni  Ni21  1  0.66963998  0.33633253  0.00391886  1
  Ni  Ni22  1  0.83727365  0.50422307  0.16960800  1
  Ni  Ni23  1  0.66999792  0.33723023  0.33614676  1
  Fe  Fe24  1  0.67021385  0.67009775  0.00446025  1
  Ni  Ni25  1  0.83634491  0.83692144  0.17131692  1
  Ni  Ni26  1  0.67064415  0.66938026  0.33715949  1
  Ni  Ni27  1  0.16913488  0.17005941  0.50409759  1
  Fe  Fe28  1  0.00375616  0.00483904  0.67002731  1
  Ni  Ni29  1  0.16916992  0.17174755  0.83590335  1
  Fe  Fe30  1  0.16979781  0.50134834  0.50269086  1
  Ni  Ni31  1  1.00180508  0.33853321  0.66992229  1
  Ni  Ni32  1  0.16913800  0.50111843  0.83710115  1
  Ni  Ni33  1  0.16866416  0.83794124  0.50317834  1
  Ni  Ni34  1  1.00137629  0.67004670  0.66971715  1
  Fe  Fe35  1  0.17082890  0.83714411  0.83707394  1
  Ni  Ni36  1  0.50330244  0.17029812  0.50366468  1
  Ni  Ni37  1  0.33835701  0.00405938  0.67029745  1
  Ni  Ni38  1  0.50209443  0.17011246  0.83588857  1
  Ni  Ni39  1  0.50451045  0.50279434  0.50297460  1
  Ni  Ni40  1  0.33789084  0.33493285  0.66992118  1
  Ni  Ni41  1  0.50311557  0.50321592  0.83768440  1
  Ni  Ni42  1  0.50409276  0.83672346  0.50263370  1
  Cr  Cr43  1  0.33546157  0.67105637  0.66965994  1
  Ni  Ni44  1  0.50692516  0.83673034  0.83712812  1
  Ni  Ni45  1  0.83797783  0.17020908  0.50353376  1
  Ni  Ni46  1  0.66895774  0.00419663  0.66916600  1
  Fe  Fe47  1  0.83559442  0.17045769  0.83660888  1
  Fe  Fe48  1  0.83661998  0.50235047  0.50236352  1
  Ni  Ni49  1  0.67002649  0.33569570  0.66969852  1
  Fe  Fe50  1  0.83610637  0.50286613  0.83742777  1
  Fe  Fe51  1  0.83622331  0.83780895  0.50343125  1
  Fe  Fe52  1  0.67014197  0.66906082  0.66939957  1
  Ni  Ni53  1  0.83665028  0.83617091  0.83496010  1
" 