3936,Ni74Fe22Cr2_2,-241.021816933273, 207.845909469467,Ni74Fe22Cr2,"# generated using pymatgen
 data_Cr(Fe3Ni10)2
_symmetry_space_group_name_H-M   'P 1'
_cell_length_a   7.42032860
_cell_length_b   7.42032860
_cell_length_c   10.49392934
_cell_angle_alpha   90.00000000
_cell_angle_beta   90.00000000
_cell_angle_gamma   90.00000000
_symmetry_Int_Tables_number   1
_chemical_formula_structural   Cr(Fe3Ni10)2
_chemical_formula_sum   'Cr2 Fe12 Ni40'
_cell_volume   577.80914467
_cell_formula_units_Z   2
loop_
 _symmetry_equiv_pos_site_id
 _symmetry_equiv_pos_as_xyz
  1  'x, y, z'
loop_
 _atom_site_type_symbol
 _atom_site_label
 _atom_site_symmetry_multiplicity
 _atom_site_fract_x
 _atom_site_fract_y
 _atom_site_fract_z
 _atom_site_occupancy
  Fe  Fe0  1  1.00285760  0.00343722  1.00280033  1
  Ni  Ni1  1  0.17059567  0.17111193  0.16985137  1
  Ni  Ni2  1  1.00229658  1.00155448  0.33573595  1
  Ni  Ni3  1  0.00376728  0.33710606  1.00264798  1
  Ni  Ni4  1  0.16902810  0.50197303  0.17031659  1
  Ni  Ni5  1  1.00149175  0.33706950  0.33542076  1
  Ni  Ni6  1  0.00373618  0.66963437  0.00317668  1
  Fe  Fe7  1  0.16981602  0.83595888  0.17049410  1
  Ni  Ni8  1  0.00334243  0.67081853  0.33575939  1
  Fe  Fe9  1  0.33723394  0.00331695  1.00291566  1
  Ni  Ni10  1  0.50225305  0.16897938  0.17012756  1
  Ni  Ni11  1  0.33718553  1.00218073  0.33572534  1
  Ni  Ni12  1  0.33630886  0.33677344  0.00334438  1
  Fe  Fe13  1  0.50283853  0.50292507  0.16966111  1
  Ni  Ni14  1  0.33828406  0.33673971  0.33453465  1
  Ni  Ni15  1  0.33574979  0.66937023  1.00236877  1
  Ni  Ni16  1  0.50431468  0.83720512  0.17016608  1
  Ni  Ni17  1  0.33580715  0.67052421  0.33641410  1
  Ni  Ni18  1  0.66963009  0.00326697  1.00255702  1
  Fe  Fe19  1  0.83620786  0.16997895  0.17005902  1
  Ni  Ni20  1  0.66996286  0.00403115  0.33737991  1
  Ni  Ni21  1  0.66936667  0.33569153  1.00289419  1
  Ni  Ni22  1  0.83744124  0.50403505  0.17018382  1
  Ni  Ni23  1  0.66966795  0.33569167  0.33674898  1
  Ni  Ni24  1  0.66995858  0.67048521  0.00338036  1
  Ni  Ni25  1  0.83531118  0.83563948  0.16975536  1
  Fe  Fe26  1  0.67021435  0.66979715  0.33656215  1
  Cr  Cr27  1  0.16934345  0.16827682  0.50339418  1
  Ni  Ni28  1  1.00284825  1.00106294  0.67051794  1
  Ni  Ni29  1  0.16944116  0.17023769  0.83624429  1
  Cr  Cr30  1  0.17000104  0.50415052  0.50327519  1
  Fe  Fe31  1  1.00092645  0.33566700  0.67156580  1
  Ni  Ni32  1  0.17019760  0.50301585  0.83602795  1
  Ni  Ni33  1  0.16940234  0.83683416  0.50232922  1
  Ni  Ni34  1  1.00239766  0.67143099  0.67051290  1
  Ni  Ni35  1  0.17017248  0.83619130  0.83664364  1
  Fe  Fe36  1  0.50539254  0.17011505  0.50308587  1
  Ni  Ni37  1  0.33674915  0.00319116  0.67066677  1
  Ni  Ni38  1  0.50355665  0.16971155  0.83587613  1
  Ni  Ni39  1  0.50524539  0.50339126  0.50235480  1
  Ni  Ni40  1  0.33870057  0.33593434  0.67156665  1
  Ni  Ni41  1  0.50277390  0.50351555  0.83729004  1
  Fe  Fe42  1  0.50370348  0.83642466  0.50308946  1
  Fe  Fe43  1  0.33771784  0.67106849  0.67097958  1
  Ni  Ni44  1  0.50333014  0.83621834  0.83606325  1
  Ni  Ni45  1  0.83473836  0.16916252  0.50210293  1
  Ni  Ni46  1  0.66984765  0.00357426  0.66950408  1
  Ni  Ni47  1  0.83644477  0.16968213  0.83683018  1
  Ni  Ni48  1  0.83398341  0.50344856  0.50335421  1
  Ni  Ni49  1  0.66873338  0.33638650  0.66980137  1
  Fe  Fe50  1  0.83633299  0.50291996  0.83675335  1
  Ni  Ni51  1  0.83617827  0.83683193  0.50337833  1
  Ni  Ni52  1  0.67086268  0.66948409  0.66954214  1
  Fe  Fe53  1  0.83630471  0.83677066  0.83626241  1
" 