2437,Ni74Fe12Cr12_11,-235.4458342454, 180.37600669245,Ni74Fe12Cr12,"# generated using pymatgen
 data_Cr4Fe3Ni20
_symmetry_space_group_name_H-M   'P 1'
_cell_length_a   7.44775452
_cell_length_b   7.44775452
_cell_length_c   10.53271545
_cell_angle_alpha   90.00000000
_cell_angle_beta   90.00000000
_cell_angle_gamma   90.00000000
_symmetry_Int_Tables_number   1
_chemical_formula_structural   Cr4Fe3Ni20
_chemical_formula_sum   'Cr8 Fe6 Ni40'
_cell_volume   584.23969228
_cell_formula_units_Z   2
loop_
 _symmetry_equiv_pos_site_id
 _symmetry_equiv_pos_as_xyz
  1  'x, y, z'
loop_
 _atom_site_type_symbol
 _atom_site_label
 _atom_site_symmetry_multiplicity
 _atom_site_fract_x
 _atom_site_fract_y
 _atom_site_fract_z
 _atom_site_occupancy
  Cr  Cr0  1  0.00194669  1.00129446  0.00159710  1
  Ni  Ni1  1  0.16784858  0.16854584  0.16823915  1
  Ni  Ni2  1  1.00102897  1.00049715  0.33359673  1
  Ni  Ni3  1  0.00345106  0.33711417  0.00224170  1
  Ni  Ni4  1  0.16532555  0.50122757  0.16827520  1
  Ni  Ni5  1  1.00115441  0.33589180  0.33234963  1
  Ni  Ni6  1  0.00165698  0.66542546  1.00049531  1
  Ni  Ni7  1  0.16935844  0.83411286  0.16879799  1
  Ni  Ni8  1  0.00141134  0.66749573  0.33509661  1
  Ni  Ni9  1  0.33685035  1.00109325  1.00033907  1
  Ni  Ni10  1  0.50103564  0.16483801  0.16911795  1
  Ni  Ni11  1  0.33593592  1.00104982  0.33450512  1
  Fe  Fe12  1  0.33198545  0.33366841  1.00044603  1
  Cr  Cr13  1  0.50095757  0.50304061  0.16833401  1
  Ni  Ni14  1  0.33469243  0.33422295  0.33427678  1
  Ni  Ni15  1  0.33393650  0.66920664  1.00024985  1
  Ni  Ni16  1  0.50077653  0.83657335  0.16780530  1
  Ni  Ni17  1  0.33388611  0.66861313  0.33584750  1
  Ni  Ni18  1  0.66476242  0.99929947  0.00243285  1
  Ni  Ni19  1  0.83500009  0.16886907  0.16986559  1
  Ni  Ni20  1  0.66692057  0.00130411  0.33306419  1
  Cr  Cr21  1  0.66866143  0.33405762  1.00042410  1
  Ni  Ni22  1  0.83745857  0.50096775  0.16861265  1
  Ni  Ni23  1  0.66803705  0.33384152  0.33612729  1
  Ni  Ni24  1  0.66829061  0.67038693  0.99975036  1
  Fe  Fe25  1  0.83397343  0.83415830  0.16878251  1
  Ni  Ni26  1  0.66858934  0.66874196  0.33571610  1
  Cr  Cr27  1  0.16961863  0.16605809  0.50063650  1
  Ni  Ni28  1  0.00291993  0.99781905  0.66895705  1
  Ni  Ni29  1  0.17116075  0.16816266  0.83484943  1
  Fe  Fe30  1  0.16932032  0.50420787  0.50048479  1
  Cr  Cr31  1  0.00243458  0.33624575  0.66893621  1
  Ni  Ni32  1  0.16788135  0.50203665  0.83563621  1
  Ni  Ni33  1  0.16800199  0.83332722  0.50195148  1
  Ni  Ni34  1  1.00124827  0.66966615  0.66829520  1
  Ni  Ni35  1  0.16899876  0.83368531  0.83313637  1
  Ni  Ni36  1  0.50050954  0.16945418  0.50029802  1
  Fe  Fe37  1  0.33351477  0.99981001  0.66896297  1
  Ni  Ni38  1  0.49802725  0.16749164  0.83446959  1
  Ni  Ni39  1  0.50237571  0.50156095  0.50206318  1
  Ni  Ni40  1  0.33662321  0.33546101  0.66950998  1
  Fe  Fe41  1  0.50007212  0.50294777  0.83321391  1
  Ni  Ni42  1  0.50013075  0.83287316  0.50016579  1
  Ni  Ni43  1  0.33481727  0.66712151  0.66778899  1
  Ni  Ni44  1  0.50044014  0.83410788  0.83591237  1
  Cr  Cr45  1  0.83370631  0.16848815  0.49981879  1
  Cr  Cr46  1  0.66725258  0.99956515  0.66810782  1
  Cr  Cr47  1  0.83505564  0.16827204  0.83402259  1
  Ni  Ni48  1  0.83269389  0.50378388  0.50064204  1
  Fe  Fe49  1  0.66507354  0.33838128  0.66733626  1
  Ni  Ni50  1  0.83511622  0.50445006  0.83462930  1
  Ni  Ni51  1  0.83575226  0.83146653  0.50064135  1
  Ni  Ni52  1  0.66781839  0.66713004  0.66841895  1
  Ni  Ni53  1  0.83444614  0.83083042  0.83467051  1
" 