7618,Ni74Fe12Cr12_13,-235.722710757924, 184.295483877889,Ni74Fe12Cr12,"# generated using pymatgen
 data_Cr4Fe3Ni20
_symmetry_space_group_name_H-M   'P 1'
_cell_length_a   7.44749341
_cell_length_b   7.44749341
_cell_length_c   10.53234619
_cell_angle_alpha   90.00000000
_cell_angle_beta   90.00000000
_cell_angle_gamma   90.00000000
_symmetry_Int_Tables_number   1
_chemical_formula_structural   Cr4Fe3Ni20
_chemical_formula_sum   'Cr8 Fe6 Ni40'
_cell_volume   584.17824622
_cell_formula_units_Z   2
loop_
 _symmetry_equiv_pos_site_id
 _symmetry_equiv_pos_as_xyz
  1  'x, y, z'
loop_
 _atom_site_type_symbol
 _atom_site_label
 _atom_site_symmetry_multiplicity
 _atom_site_fract_x
 _atom_site_fract_y
 _atom_site_fract_z
 _atom_site_occupancy
  Fe  Fe0  1  0.99898583  0.99970725  0.00249925  1
  Fe  Fe1  1  0.16929617  0.16658742  0.16939793  1
  Cr  Cr2  1  1.00014893  1.00082649  0.33422460  1
  Cr  Cr3  1  0.99884591  0.33472493  0.00230665  1
  Cr  Cr4  1  0.16723245  0.50477471  0.16997628  1
  Ni  Ni5  1  1.00027430  0.33497446  0.33557849  1
  Ni  Ni6  1  0.99953435  0.66865222  1.00052633  1
  Ni  Ni7  1  0.16880674  0.83434735  0.16650661  1
  Ni  Ni8  1  1.00015494  0.66767732  0.33615492  1
  Ni  Ni9  1  0.33717433  0.99950322  0.00337963  1
  Ni  Ni10  1  0.50321007  0.16714654  0.16853382  1
  Ni  Ni11  1  0.33515731  0.99988961  0.33386793  1
  Cr  Cr12  1  0.33773251  0.33507479  1.00036852  1
  Ni  Ni13  1  0.50376253  0.50164082  0.16770453  1
  Ni  Ni14  1  0.33469386  0.33489907  0.33492825  1
  Ni  Ni15  1  0.33633446  0.66989966  1.00117585  1
  Ni  Ni16  1  0.50078860  0.83504988  0.16851226  1
  Ni  Ni17  1  0.33609287  0.66903811  0.33511745  1
  Ni  Ni18  1  0.66724726  1.00076339  1.00095593  1
  Ni  Ni19  1  0.83136962  0.16848869  0.16794644  1
  Ni  Ni20  1  0.66768465  0.99949887  0.33451876  1
  Ni  Ni21  1  0.66864411  0.33443322  1.00085753  1
  Ni  Ni22  1  0.83276033  0.50179666  0.16891200  1
  Ni  Ni23  1  0.66906150  0.33580113  0.33341874  1
  Ni  Ni24  1  0.66792957  0.66879853  0.00155700  1
  Ni  Ni25  1  0.83426394  0.83335147  0.16633507  1
  Ni  Ni26  1  0.66778781  0.66858712  0.33404553  1
  Ni  Ni27  1  0.16851810  0.16703881  0.50092256  1
  Ni  Ni28  1  0.99954615  1.00075502  0.66735408  1
  Cr  Cr29  1  0.16932946  0.16598303  0.83467860  1
  Fe  Fe30  1  0.16926172  0.50221337  0.50040936  1
  Cr  Cr31  1  1.00073313  0.33460817  0.66631642  1
  Ni  Ni32  1  0.16732867  0.50430519  0.83294668  1
  Ni  Ni33  1  0.16887057  0.83400474  0.50237986  1
  Fe  Fe34  1  0.99998148  0.66857156  0.66717191  1
  Cr  Cr35  1  0.16871074  0.83295173  0.83523441  1
  Cr  Cr36  1  0.50252152  0.16793038  0.50187678  1
  Ni  Ni37  1  0.33514349  0.99990985  0.66699806  1
  Ni  Ni38  1  0.50422925  0.16618825  0.83345705  1
  Ni  Ni39  1  0.50238730  0.50240870  0.50175143  1
  Ni  Ni40  1  0.33532167  0.33655018  0.66853326  1
  Fe  Fe41  1  0.50246824  0.50225949  0.83387437  1
  Ni  Ni42  1  0.50075525  0.83304611  0.50082737  1
  Ni  Ni43  1  0.33632093  0.66761272  0.66750552  1
  Ni  Ni44  1  0.50158962  0.83551020  0.83459872  1
  Ni  Ni45  1  0.83433465  0.16871749  0.50167443  1
  Ni  Ni46  1  0.66910132  0.99950930  0.66845922  1
  Ni  Ni47  1  0.83066441  0.16803473  0.83430777  1
  Ni  Ni48  1  0.83318027  0.50193512  0.49965832  1
  Ni  Ni49  1  0.66807711  0.33602792  0.66954015  1
  Ni  Ni50  1  0.83348406  0.50227987  0.83529907  1
  Ni  Ni51  1  0.83424410  0.83322417  0.50306528  1
  Ni  Ni52  1  0.66715934  0.66855174  0.66818960  1
  Fe  Fe53  1  0.83265390  0.83483067  0.83455485  1
" 