7545,Ni74Fe12Cr12_17,-235.270575518525, 178.4349786293,Ni74Fe12Cr12,"# generated using pymatgen
 data_Cr4Fe3Ni20
_symmetry_space_group_name_H-M   'P 1'
_cell_length_a   7.44962801
_cell_length_b   7.44962801
_cell_length_c   10.53536497
_cell_angle_alpha   90.00000000
_cell_angle_beta   90.00000000
_cell_angle_gamma   90.00000000
_symmetry_Int_Tables_number   1
_chemical_formula_structural   Cr4Fe3Ni20
_chemical_formula_sum   'Cr8 Fe6 Ni40'
_cell_volume   584.68070249
_cell_formula_units_Z   2
loop_
 _symmetry_equiv_pos_site_id
 _symmetry_equiv_pos_as_xyz
  1  'x, y, z'
loop_
 _atom_site_type_symbol
 _atom_site_label
 _atom_site_symmetry_multiplicity
 _atom_site_fract_x
 _atom_site_fract_y
 _atom_site_fract_z
 _atom_site_occupancy
  Cr  Cr0  1  0.99938347  1.00007579  1.00028894  1
  Cr  Cr1  1  0.16778638  0.16788321  0.16844249  1
  Ni  Ni2  1  1.00081385  0.00299782  0.33476144  1
  Fe  Fe3  1  0.99918720  0.33735764  1.00008764  1
  Fe  Fe4  1  0.16776727  0.50298754  0.16648294  1
  Ni  Ni5  1  0.99921479  0.33202437  0.33429398  1
  Ni  Ni6  1  0.00181362  0.66683658  1.00075893  1
  Fe  Fe7  1  0.16935448  0.83299528  0.16858305  1
  Cr  Cr8  1  0.00286496  0.66840926  0.33306295  1
  Fe  Fe9  1  0.33803302  0.99987369  1.00033106  1
  Ni  Ni10  1  0.50291339  0.16653016  0.16688724  1
  Ni  Ni11  1  0.33490924  0.99874307  0.33510898  1
  Fe  Fe12  1  0.33638411  0.33595493  0.99972187  1
  Ni  Ni13  1  0.50249901  0.50318408  0.16750542  1
  Cr  Cr14  1  0.33605236  0.33578288  0.33591465  1
  Ni  Ni15  1  0.33417704  0.66698922  0.00151778  1
  Ni  Ni16  1  0.50169447  0.83379176  0.16852925  1
  Ni  Ni17  1  0.33609237  0.66945027  0.33501656  1
  Ni  Ni18  1  0.66698550  0.00209718  1.00103530  1
  Ni  Ni19  1  0.83320629  0.16857786  0.16956357  1
  Ni  Ni20  1  0.66778504  0.00245458  0.33354893  1
  Ni  Ni21  1  0.66713525  0.33416771  0.00138276  1
  Ni  Ni22  1  0.83374517  0.50126402  0.16703997  1
  Ni  Ni23  1  0.66874748  0.33320552  0.33380029  1
  Ni  Ni24  1  0.66751961  0.66724341  0.00151283  1
  Ni  Ni25  1  0.83250119  0.83366758  0.16803914  1
  Ni  Ni26  1  0.66448989  0.66784742  0.33214530  1
  Ni  Ni27  1  0.16785144  0.16787046  0.50108344  1
  Cr  Cr28  1  0.00137425  0.00171559  0.66802896  1
  Ni  Ni29  1  0.16925962  0.16998850  0.83392801  1
  Ni  Ni30  1  0.16945321  0.50096706  0.50259960  1
  Ni  Ni31  1  0.00227319  0.33506552  0.66875447  1
  Ni  Ni32  1  0.16701946  0.50075278  0.83439285  1
  Ni  Ni33  1  0.17157273  0.83466942  0.50095568  1
  Ni  Ni34  1  0.00493567  0.66623752  0.67010484  1
  Fe  Fe35  1  0.16929426  0.83242001  0.83386521  1
  Ni  Ni36  1  0.50106075  0.16655868  0.50200349  1
  Ni  Ni37  1  0.33567433  0.00152477  0.66806941  1
  Ni  Ni38  1  0.50058949  0.16688085  0.83461753  1
  Ni  Ni39  1  0.49884334  0.50166685  0.50090149  1
  Ni  Ni40  1  0.33445726  0.33478081  0.66806230  1
  Ni  Ni41  1  0.50010427  0.50113580  0.83509951  1
  Ni  Ni42  1  0.49803514  0.83528235  0.49983868  1
  Ni  Ni43  1  0.33247485  0.66720074  0.66697217  1
  Ni  Ni44  1  0.50116388  0.83548964  0.83513884  1
  Ni  Ni45  1  0.83459493  0.16867833  0.49964653  1
  Ni  Ni46  1  0.66581453  0.00418513  0.66892388  1
  Ni  Ni47  1  0.83366029  0.16893178  0.83429442  1
  Cr  Cr48  1  0.83465544  0.49843423  0.50154233  1
  Ni  Ni49  1  0.66677669  0.33186588  0.66832335  1
  Ni  Ni50  1  0.83638313  0.50132727  0.83531967  1
  Cr  Cr51  1  0.83323638  0.83636179  0.50034030  1
  Cr  Cr52  1  0.66624327  0.66749980  0.66958053  1
  Ni  Ni53  1  0.83327634  0.83325017  0.83538384  1
" 