4722,Ni74Fe22Cr2_11,-241.294898586743, 208.261543610178,Ni74Fe22Cr2,"# generated using pymatgen
 data_Cr(Fe3Ni10)2
_symmetry_space_group_name_H-M   'P 1'
_cell_length_a   7.42424919
_cell_length_b   7.42424919
_cell_length_c   10.49947389
_cell_angle_alpha   90.00000000
_cell_angle_beta   90.00000000
_cell_angle_gamma   90.00000000
_symmetry_Int_Tables_number   1
_chemical_formula_structural   Cr(Fe3Ni10)2
_chemical_formula_sum   'Cr2 Fe12 Ni40'
_cell_volume   578.72549889
_cell_formula_units_Z   2
loop_
 _symmetry_equiv_pos_site_id
 _symmetry_equiv_pos_as_xyz
  1  'x, y, z'
loop_
 _atom_site_type_symbol
 _atom_site_label
 _atom_site_symmetry_multiplicity
 _atom_site_fract_x
 _atom_site_fract_y
 _atom_site_fract_z
 _atom_site_occupancy
  Ni  Ni0  1  1.00229708  1.00285691  0.00322947  1
  Ni  Ni1  1  0.16936595  0.16964520  0.16947709  1
  Ni  Ni2  1  1.00062530  0.00382485  0.33543925  1
  Ni  Ni3  1  1.00260863  0.33610578  0.00292053  1
  Ni  Ni4  1  0.16945707  0.50307944  0.17005900  1
  Ni  Ni5  1  0.00452558  0.33499329  0.33565076  1
  Ni  Ni6  1  0.00335890  0.66968518  0.00325275  1
  Ni  Ni7  1  0.16991864  0.83592143  0.16931173  1
  Ni  Ni8  1  1.00271033  0.66982839  0.33492570  1
  Ni  Ni9  1  0.33666154  1.00283059  0.00348635  1
  Fe  Fe10  1  0.50294019  0.16960256  0.16866911  1
  Fe  Fe11  1  0.33618563  0.00312722  0.33558698  1
  Ni  Ni12  1  0.33663087  0.33641381  1.00242751  1
  Fe  Fe13  1  0.50251739  0.50281806  0.16923537  1
  Ni  Ni14  1  0.33541699  0.33707613  0.33678248  1
  Ni  Ni15  1  0.33590915  0.66940458  1.00280016  1
  Fe  Fe16  1  0.50285909  0.83622737  0.16967789  1
  Ni  Ni17  1  0.33725164  0.66776098  0.33602301  1
  Ni  Ni18  1  0.66969147  0.00357613  1.00232618  1
  Ni  Ni19  1  0.83622425  0.16972610  0.16981804  1
  Ni  Ni20  1  0.67076539  1.00199742  0.33728317  1
  Ni  Ni21  1  0.66940531  0.33535272  0.00348336  1
  Ni  Ni22  1  0.83626332  0.50286700  0.16906127  1
  Fe  Fe23  1  0.66991103  0.33575562  0.33525090  1
  Fe  Fe24  1  0.66949224  0.66960846  1.00288149  1
  Ni  Ni25  1  0.83588544  0.83605456  0.17016561  1
  Ni  Ni26  1  0.66868417  0.67166102  0.33527199  1
  Ni  Ni27  1  0.16932905  0.17167906  0.50296564  1
  Ni  Ni28  1  1.00198319  0.00380828  0.66997991  1
  Ni  Ni29  1  0.16924030  0.17022116  0.83620718  1
  Ni  Ni30  1  0.17122391  0.50098603  0.50272694  1
  Ni  Ni31  1  0.00367081  0.33490664  0.67007230  1
  Ni  Ni32  1  0.17004419  0.50266845  0.83586218  1
  Cr  Cr33  1  0.17001415  0.83556240  0.50291259  1
  Ni  Ni34  1  1.00260683  0.66993366  0.67047078  1
  Fe  Fe35  1  0.17049815  0.83666672  0.83654587  1
  Fe  Fe36  1  0.50265902  0.16932804  0.50342348  1
  Ni  Ni37  1  0.33680924  0.00374599  0.66994159  1
  Ni  Ni38  1  0.50315875  0.16916551  0.83610872  1
  Fe  Fe39  1  0.50119921  0.50328016  0.50348552  1
  Ni  Ni40  1  0.33643392  0.33628015  0.66943410  1
  Ni  Ni41  1  0.50235052  0.50371514  0.83583753  1
  Ni  Ni42  1  0.50463076  0.83593967  0.50274028  1
  Ni  Ni43  1  0.33755921  0.66862297  0.66982325  1
  Ni  Ni44  1  0.50291318  0.83576546  0.83633953  1
  Ni  Ni45  1  0.83629217  0.16821905  0.50265963  1
  Fe  Fe46  1  0.66956423  1.00275136  0.66940064  1
  Ni  Ni47  1  0.83624833  0.16965753  0.83617044  1
  Cr  Cr48  1  0.83719991  0.50280012  0.50291137  1
  Ni  Ni49  1  0.66853863  0.33565734  0.66969178  1
  Fe  Fe50  1  0.83582082  0.50176780  0.83621141  1
  Ni  Ni51  1  0.83337535  0.83782700  0.50283224  1
  Ni  Ni52  1  0.66848055  0.67030869  0.67026976  1
  Fe  Fe53  1  0.83623941  0.83658118  0.83612456  1
" 