6724,Ni74Fe12Cr12_19,-235.381446088772, 181.402012561855,Ni74Fe12Cr12,"# generated using pymatgen
 data_Cr4Fe3Ni20
_symmetry_space_group_name_H-M   'P 1'
_cell_length_a   7.44997308
_cell_length_b   7.44997308
_cell_length_c   10.53585296
_cell_angle_alpha   90.00000000
_cell_angle_beta   90.00000000
_cell_angle_gamma   90.00000000
_symmetry_Int_Tables_number   1
_chemical_formula_structural   Cr4Fe3Ni20
_chemical_formula_sum   'Cr8 Fe6 Ni40'
_cell_volume   584.76195258
_cell_formula_units_Z   2
loop_
 _symmetry_equiv_pos_site_id
 _symmetry_equiv_pos_as_xyz
  1  'x, y, z'
loop_
 _atom_site_type_symbol
 _atom_site_label
 _atom_site_symmetry_multiplicity
 _atom_site_fract_x
 _atom_site_fract_y
 _atom_site_fract_z
 _atom_site_occupancy
  Ni  Ni0  1  0.99889711  0.00152622  0.00334957  1
  Ni  Ni1  1  0.16702116  0.16745386  0.16620567  1
  Ni  Ni2  1  0.99977498  0.00207240  0.33384072  1
  Ni  Ni3  1  0.99987545  0.33308080  0.99898855  1
  Cr  Cr4  1  0.16742408  0.49952801  0.16927446  1
  Ni  Ni5  1  0.00127317  0.33055689  0.33763203  1
  Ni  Ni6  1  0.99856307  0.66908753  1.00052592  1
  Ni  Ni7  1  0.16650866  0.83625643  0.16788590  1
  Fe  Fe8  1  0.00197980  0.66953875  0.33640379  1
  Ni  Ni9  1  0.33625683  0.00292059  0.00238526  1
  Ni  Ni10  1  0.50241898  0.16825691  0.16791119  1
  Cr  Cr11  1  0.33345580  1.00088555  0.33459877  1
  Ni  Ni12  1  0.33644745  0.33269307  0.00131341  1
  Ni  Ni13  1  0.50141158  0.49922781  0.16708671  1
  Ni  Ni14  1  0.33389446  0.33435913  0.33407785  1
  Cr  Cr15  1  0.33672529  0.66748782  1.00111979  1
  Ni  Ni16  1  0.50246578  0.83598417  0.16679568  1
  Ni  Ni17  1  0.33339664  0.66803199  0.33483468  1
  Ni  Ni18  1  0.66833202  0.00145240  1.00079238  1
  Ni  Ni19  1  0.83407531  0.16651537  0.16759302  1
  Ni  Ni20  1  0.67055548  0.00263142  0.33544867  1
  Ni  Ni21  1  0.66698453  0.33343100  1.00060909  1
  Cr  Cr22  1  0.83371130  0.49932110  0.16787688  1
  Ni  Ni23  1  0.66844400  0.33127850  0.33435520  1
  Ni  Ni24  1  0.66879960  0.66847912  0.99959185  1
  Ni  Ni25  1  0.83439780  0.83734030  0.16657995  1
  Cr  Cr26  1  0.66714052  0.67000917  0.33379529  1
  Ni  Ni27  1  0.16669981  0.16864745  0.50244282  1
  Ni  Ni28  1  0.99910910  0.00124068  0.66641223  1
  Cr  Cr29  1  0.16786413  0.16863110  0.83554836  1
  Ni  Ni30  1  0.16711475  0.50079251  0.50118548  1
  Fe  Fe31  1  0.99988234  0.33638580  0.66723877  1
  Ni  Ni32  1  0.16645642  0.50038064  0.83293069  1
  Ni  Ni33  1  0.16774403  0.83418328  0.50169556  1
  Ni  Ni34  1  1.00013233  0.66893695  0.66614085  1
  Cr  Cr35  1  0.16710815  0.83442328  0.83440159  1
  Fe  Fe36  1  0.50208166  0.16759203  0.50163876  1
  Fe  Fe37  1  0.33574172  1.00079512  0.66692025  1
  Ni  Ni38  1  0.50275110  0.16715608  0.83404750  1
  Cr  Cr39  1  0.50124255  0.50105103  0.50050870  1
  Ni  Ni40  1  0.33503740  0.33474222  0.66766307  1
  Fe  Fe41  1  0.50258098  0.49984550  0.83366344  1
  Ni  Ni42  1  0.50148779  0.83557357  0.50328562  1
  Ni  Ni43  1  0.33447635  0.66681259  0.66747485  1
  Ni  Ni44  1  0.50378429  0.83595692  0.83358001  1
  Ni  Ni45  1  0.83465249  0.16780356  0.50135667  1
  Fe  Fe46  1  0.66868083  1.00067501  0.66804433  1
  Ni  Ni47  1  0.83220821  0.16798940  0.83472241  1
  Ni  Ni48  1  0.83600683  0.49996884  0.50192598  1
  Ni  Ni49  1  0.66828593  0.33380671  0.66813239  1
  Ni  Ni50  1  0.83467831  0.50123317  0.83408783  1
  Ni  Ni51  1  0.83446664  0.83580284  0.50196476  1
  Ni  Ni52  1  0.66900653  0.66769349  0.66923247  1
  Ni  Ni53  1  0.83236957  0.83435499  0.83476346  1
" 