7080,Ni74Fe24Cr0_1,-242.435623086652, 211.191644897622,Ni74Fe24Cr0,"# generated using pymatgen
 data_CrFe13Ni40
_symmetry_space_group_name_H-M   'P 1'
_cell_length_a   7.42435958
_cell_length_b   7.42435958
_cell_length_c   10.49963001
_cell_angle_alpha   90.00000000
_cell_angle_beta   90.00000000
_cell_angle_gamma   90.00000000
_symmetry_Int_Tables_number   1
_chemical_formula_structural   CrFe13Ni40
_chemical_formula_sum   'Cr1 Fe13 Ni40'
_cell_volume   578.75131427
_cell_formula_units_Z   1
loop_
 _symmetry_equiv_pos_site_id
 _symmetry_equiv_pos_as_xyz
  1  'x, y, z'
loop_
 _atom_site_type_symbol
 _atom_site_label
 _atom_site_symmetry_multiplicity
 _atom_site_fract_x
 _atom_site_fract_y
 _atom_site_fract_z
 _atom_site_occupancy
  Fe  Fe0  1  0.00312917  0.00303723  1.00222359  1
  Fe  Fe1  1  0.17032985  0.16923464  0.16931852  1
  Ni  Ni2  1  0.00343981  0.00365003  0.33597453  1
  Ni  Ni3  1  1.00253324  0.33745704  0.00307174  1
  Fe  Fe4  1  0.17048232  0.50187595  0.16860334  1
  Ni  Ni5  1  1.00244448  0.33518603  0.33626220  1
  Ni  Ni6  1  1.00172910  0.66938454  1.00176893  1
  Ni  Ni7  1  0.17101909  0.83712786  0.16867364  1
  Cr  Cr8  1  1.00215327  0.66973310  0.33784421  1
  Ni  Ni9  1  0.33643832  0.00316617  0.00288963  1
  Ni  Ni10  1  0.50290320  0.16901823  0.16958024  1
  Ni  Ni11  1  0.33692184  0.00304196  0.33651162  1
  Ni  Ni12  1  0.33674844  0.33453485  1.00206331  1
  Fe  Fe13  1  0.50318510  0.50271275  0.16931857  1
  Ni  Ni14  1  0.33723626  0.33510371  0.33672104  1
  Fe  Fe15  1  0.33612287  0.66905290  1.00210440  1
  Ni  Ni16  1  0.50148135  0.83744367  0.17013771  1
  Fe  Fe17  1  0.33758384  0.67003498  0.33718663  1
  Fe  Fe18  1  0.66897389  0.00337231  0.00306344  1
  Fe  Fe19  1  0.83579434  0.16954210  0.17024701  1
  Ni  Ni20  1  0.66826143  0.00310930  0.33650378  1
  Ni  Ni21  1  0.66934653  0.33718544  1.00286474  1
  Ni  Ni22  1  0.83612032  0.50105814  0.16892450  1
  Ni  Ni23  1  0.66894934  0.33604032  0.33595295  1
  Ni  Ni24  1  0.67072609  0.66907679  0.00308204  1
  Fe  Fe25  1  0.83495811  0.83683054  0.16878569  1
  Fe  Fe26  1  0.66803236  0.66959867  0.33650516  1
  Fe  Fe27  1  0.16921353  0.16929354  0.50290556  1
  Ni  Ni28  1  0.00423115  1.00222294  0.66951156  1
  Ni  Ni29  1  0.16954182  0.16959853  0.83652162  1
  Ni  Ni30  1  0.16970332  0.50266266  0.50300202  1
  Ni  Ni31  1  1.00163648  0.33667253  0.66929252  1
  Ni  Ni32  1  0.16885225  0.50300080  0.83704840  1
  Ni  Ni33  1  0.17034993  0.83651974  0.50348752  1
  Ni  Ni34  1  1.00250858  0.66972792  0.66998162  1
  Ni  Ni35  1  0.16954594  0.83602695  0.83646355  1
  Ni  Ni36  1  0.50356321  0.16947984  0.50249411  1
  Ni  Ni37  1  0.33582762  1.00194195  0.66922411  1
  Ni  Ni38  1  0.50290482  0.16962809  0.83654994  1
  Ni  Ni39  1  0.50275523  0.50235972  0.50146944  1
  Fe  Fe40  1  0.33596880  0.33707342  0.66979492  1
  Ni  Ni41  1  0.50301384  0.50239110  0.83711835  1
  Ni  Ni42  1  0.50207031  0.83678690  0.50199368  1
  Ni  Ni43  1  0.33638609  0.67117210  0.66987350  1
  Ni  Ni44  1  0.50229333  0.83660629  0.83649527  1
  Ni  Ni45  1  0.83590090  0.17012584  0.50163876  1
  Fe  Fe46  1  0.67009830  1.00239106  0.66899335  1
  Ni  Ni47  1  0.83617889  0.17032536  0.83708611  1
  Ni  Ni48  1  0.83616435  0.50117062  0.50379204  1
  Ni  Ni49  1  0.67001256  0.33723783  0.66980496  1
  Ni  Ni50  1  0.83675572  0.50238742  0.83591045  1
  Ni  Ni51  1  0.83620332  0.83733042  0.50268882  1
  Ni  Ni52  1  0.66973019  0.66858210  0.66896838  1
  Ni  Ni53  1  0.83678817  0.83591767  0.83694887  1
" 