619,Ni74Fe24Cr0_14,-241.766716746897, 210.820379029632,Ni74Fe24Cr0,"# generated using pymatgen
 data_CrFe13Ni40
_symmetry_space_group_name_H-M   'P 1'
_cell_length_a   7.41750055
_cell_length_b   7.41750055
_cell_length_c   10.48992988
_cell_angle_alpha   90.00000000
_cell_angle_beta   90.00000000
_cell_angle_gamma   90.00000000
_symmetry_Int_Tables_number   1
_chemical_formula_structural   CrFe13Ni40
_chemical_formula_sum   'Cr1 Fe13 Ni40'
_cell_volume   577.14874987
_cell_formula_units_Z   1
loop_
 _symmetry_equiv_pos_site_id
 _symmetry_equiv_pos_as_xyz
  1  'x, y, z'
loop_
 _atom_site_type_symbol
 _atom_site_label
 _atom_site_symmetry_multiplicity
 _atom_site_fract_x
 _atom_site_fract_y
 _atom_site_fract_z
 _atom_site_occupancy
  Ni  Ni0  1  1.00305292  0.00398117  0.00378589  1
  Ni  Ni1  1  0.16829703  0.16892978  0.16986437  1
  Ni  Ni2  1  1.00332052  0.00342085  0.33661878  1
  Ni  Ni3  1  0.00415952  0.33634655  1.00265534  1
  Ni  Ni4  1  0.16852965  0.50466652  0.16892069  1
  Ni  Ni5  1  0.00339578  0.33721186  0.33790082  1
  Ni  Ni6  1  1.00231062  0.66965865  1.00280669  1
  Ni  Ni7  1  0.16979292  0.83678156  0.16905552  1
  Ni  Ni8  1  1.00166163  0.66941967  0.33624186  1
  Ni  Ni9  1  0.33722144  0.00433008  1.00294335  1
  Ni  Ni10  1  0.50489498  0.16887116  0.16808823  1
  Ni  Ni11  1  0.33744284  0.00381055  0.33695126  1
  Fe  Fe12  1  0.33624762  0.33662606  1.00314335  1
  Ni  Ni13  1  0.50467455  0.50491866  0.16984461  1
  Cr  Cr14  1  0.33646418  0.33646289  0.33615115  1
  Ni  Ni15  1  0.33746951  0.67024427  0.00386747  1
  Ni  Ni16  1  0.50305918  0.83657020  0.17002405  1
  Fe  Fe17  1  0.33548180  0.67231330  0.33667078  1
  Ni  Ni18  1  0.66984615  1.00242651  1.00274664  1
  Ni  Ni19  1  0.83717158  0.17011842  0.16970743  1
  Ni  Ni20  1  0.66937425  1.00226908  0.33704563  1
  Fe  Fe21  1  0.67051601  0.33670134  1.00244496  1
  Ni  Ni22  1  0.83704732  0.50284188  0.16946099  1
  Fe  Fe23  1  0.67215095  0.33576830  0.33739704  1
  Ni  Ni24  1  0.67019213  0.67105983  1.00259334  1
  Ni  Ni25  1  0.83699268  0.83693403  0.17037144  1
  Ni  Ni26  1  0.67064594  0.67041536  0.33742161  1
  Fe  Fe27  1  0.17020490  0.16972200  0.50415267  1
  Fe  Fe28  1  1.00291399  1.00292702  0.67007111  1
  Ni  Ni29  1  0.16919871  0.17036900  0.83554342  1
  Ni  Ni30  1  0.16884795  0.50586127  0.50474960  1
  Fe  Fe31  1  1.00275952  0.33845117  0.67001678  1
  Fe  Fe32  1  0.17059704  0.50365876  0.83649670  1
  Ni  Ni33  1  0.16980260  0.83600106  0.50357454  1
  Ni  Ni34  1  1.00261723  0.67084462  0.67085399  1
  Fe  Fe35  1  0.17102553  0.83746462  0.83731508  1
  Ni  Ni36  1  0.50566559  0.16887698  0.50534745  1
  Fe  Fe37  1  0.33782826  1.00214072  0.67024934  1
  Ni  Ni38  1  0.50328432  0.17030223  0.83664798  1
  Ni  Ni39  1  0.50388225  0.50454669  0.50392292  1
  Ni  Ni40  1  0.33720982  0.33582422  0.67046682  1
  Ni  Ni41  1  0.50237403  0.50421685  0.83598790  1
  Ni  Ni42  1  0.50180162  0.83635442  0.50375791  1
  Ni  Ni43  1  0.33684049  0.66870947  0.66910982  1
  Ni  Ni44  1  0.50350503  0.83528970  0.83633226  1
  Ni  Ni45  1  0.83704263  0.17013167  0.50380214  1
  Fe  Fe46  1  0.66949419  1.00264574  0.67070044  1
  Ni  Ni47  1  0.83744386  0.16936012  0.83680252  1
  Ni  Ni48  1  0.83726699  0.50227067  0.50424867  1
  Ni  Ni49  1  0.66872099  0.33635725  0.66971169  1
  Fe  Fe50  1  0.83500968  0.50285233  0.83642447  1
  Fe  Fe51  1  0.83610042  0.83541089  0.50309549  1
  Ni  Ni52  1  0.67039157  0.66965510  0.66999434  1
  Ni  Ni53  1  0.83711036  0.83701015  0.83625393  1
" 