3354,Ni74Fe24Cr0_10,-242.2446982734, 212.175756722567,Ni74Fe24Cr0,"# generated using pymatgen
 data_CrFe13Ni40
_symmetry_space_group_name_H-M   'P 1'
_cell_length_a   7.41928280
_cell_length_b   7.41928280
_cell_length_c   10.49245036
_cell_angle_alpha   90.00000000
_cell_angle_beta   90.00000000
_cell_angle_gamma   90.00000000
_symmetry_Int_Tables_number   1
_chemical_formula_structural   CrFe13Ni40
_chemical_formula_sum   'Cr1 Fe13 Ni40'
_cell_volume   577.56487560
_cell_formula_units_Z   1
loop_
 _symmetry_equiv_pos_site_id
 _symmetry_equiv_pos_as_xyz
  1  'x, y, z'
loop_
 _atom_site_type_symbol
 _atom_site_label
 _atom_site_symmetry_multiplicity
 _atom_site_fract_x
 _atom_site_fract_y
 _atom_site_fract_z
 _atom_site_occupancy
  Ni  Ni0  1  0.00498755  0.00407865  1.00206284  1
  Ni  Ni1  1  0.17074387  0.17046646  0.16988270  1
  Ni  Ni2  1  1.00299734  1.00290965  0.33734907  1
  Ni  Ni3  1  0.00363539  0.33609630  0.00347783  1
  Ni  Ni4  1  0.17047475  0.50344000  0.17050722  1
  Fe  Fe5  1  0.00340078  0.33637971  0.33679875  1
  Fe  Fe6  1  0.00333941  0.66929075  1.00298139  1
  Fe  Fe7  1  0.16958009  0.83785813  0.17072242  1
  Ni  Ni8  1  1.00295692  0.67014559  0.33631893  1
  Ni  Ni9  1  0.33423034  0.00359295  0.00326057  1
  Ni  Ni10  1  0.50231998  0.17023365  0.17071484  1
  Ni  Ni11  1  0.33629070  0.00408052  0.33622407  1
  Ni  Ni12  1  0.33558980  0.33658593  1.00290398  1
  Fe  Fe13  1  0.50331190  0.50231455  0.17035184  1
  Ni  Ni14  1  0.33656708  0.33629122  0.33661419  1
  Ni  Ni15  1  0.33676527  0.66947957  1.00234766  1
  Fe  Fe16  1  0.50219464  0.83637510  0.17028281  1
  Ni  Ni17  1  0.33602174  0.66928722  0.33771757  1
  Cr  Cr18  1  0.67038273  0.00338079  0.00328014  1
  Ni  Ni19  1  0.83659310  0.16936391  0.17044884  1
  Ni  Ni20  1  0.67036676  0.00345389  0.33665480  1
  Ni  Ni21  1  0.67043352  0.33862832  1.00203541  1
  Fe  Fe22  1  0.83640223  0.50230027  0.16979912  1
  Ni  Ni23  1  0.66950692  0.33632864  0.33709350  1
  Ni  Ni24  1  0.66994770  0.66812425  1.00316660  1
  Ni  Ni25  1  0.83659289  0.83571275  0.17103051  1
  Ni  Ni26  1  0.67067762  0.66986978  0.33660302  1
  Ni  Ni27  1  0.17050878  0.16952911  0.50259050  1
  Fe  Fe28  1  1.00313443  0.00363950  0.66990864  1
  Ni  Ni29  1  0.17068177  0.17059890  0.83718280  1
  Ni  Ni30  1  0.17012687  0.50432415  0.50290441  1
  Ni  Ni31  1  0.00431284  0.33752778  0.66932889  1
  Ni  Ni32  1  0.16951179  0.50309191  0.83624657  1
  Ni  Ni33  1  0.17012789  0.83580355  0.50292424  1
  Ni  Ni34  1  1.00203228  0.66866360  0.67045788  1
  Fe  Fe35  1  0.16970139  0.83736975  0.83632118  1
  Ni  Ni36  1  0.50340050  0.16970083  0.50287470  1
  Ni  Ni37  1  0.33742123  0.00460588  0.67017380  1
  Ni  Ni38  1  0.50207277  0.16942975  0.83606551  1
  Ni  Ni39  1  0.50311683  0.50348884  0.50323593  1
  Ni  Ni40  1  0.33517976  0.33552539  0.67014109  1
  Fe  Fe41  1  0.50385735  0.50292089  0.83675512  1
  Fe  Fe42  1  0.50291279  0.83673234  0.50359181  1
  Fe  Fe43  1  0.33624346  0.66970608  0.66964470  1
  Ni  Ni44  1  0.50327330  0.83623684  0.83599346  1
  Ni  Ni45  1  0.83574724  0.16970025  0.50294931  1
  Ni  Ni46  1  0.66929955  1.00232199  0.66981248  1
  Ni  Ni47  1  0.83690347  0.17029936  0.83625418  1
  Ni  Ni48  1  0.83641321  0.50386980  0.50237414  1
  Fe  Fe49  1  0.67019346  0.33622590  0.66953959  1
  Ni  Ni50  1  0.83717115  0.50429039  0.83768220  1
  Fe  Fe51  1  0.83686185  0.83618106  0.50291253  1
  Ni  Ni52  1  0.67130207  0.67090313  0.66988968  1
  Ni  Ni53  1  0.83600502  0.83506853  0.83543811  1
" 