4697,Ni74Fe24Cr0_18,-242.022709736805, 209.619707870267,Ni74Fe24Cr0,"# generated using pymatgen
 data_CrFe13Ni40
_symmetry_space_group_name_H-M   'P 1'
_cell_length_a   7.41956253
_cell_length_b   7.41956253
_cell_length_c   10.49284596
_cell_angle_alpha   90.00000000
_cell_angle_beta   90.00000000
_cell_angle_gamma   90.00000000
_symmetry_Int_Tables_number   1
_chemical_formula_structural   CrFe13Ni40
_chemical_formula_sum   'Cr1 Fe13 Ni40'
_cell_volume   577.63020706
_cell_formula_units_Z   1
loop_
 _symmetry_equiv_pos_site_id
 _symmetry_equiv_pos_as_xyz
  1  'x, y, z'
loop_
 _atom_site_type_symbol
 _atom_site_label
 _atom_site_symmetry_multiplicity
 _atom_site_fract_x
 _atom_site_fract_y
 _atom_site_fract_z
 _atom_site_occupancy
  Ni  Ni0  1  0.00365406  1.00234374  0.00347370  1
  Fe  Fe1  1  0.17023199  0.17032262  0.16976204  1
  Fe  Fe2  1  1.00219233  0.00364057  0.33678759  1
  Fe  Fe3  1  0.00326095  0.33653117  1.00304725  1
  Ni  Ni4  1  0.17073061  0.50335020  0.16996170  1
  Ni  Ni5  1  1.00272044  0.33683435  0.33662781  1
  Ni  Ni6  1  0.00341320  0.67047998  0.00391496  1
  Fe  Fe7  1  0.16890972  0.83606208  0.16898965  1
  Fe  Fe8  1  1.00285382  0.66949078  0.33691185  1
  Ni  Ni9  1  0.33506289  0.00424467  1.00224659  1
  Fe  Fe10  1  0.50343506  0.17205953  0.16963588  1
  Ni  Ni11  1  0.33571538  0.00341798  0.33724501  1
  Ni  Ni12  1  0.33696417  0.33650194  0.00426935  1
  Ni  Ni13  1  0.50193463  0.50274578  0.16951591  1
  Fe  Fe14  1  0.33744256  0.33712904  0.33691352  1
  Ni  Ni15  1  0.33503317  0.66885506  1.00174431  1
  Cr  Cr16  1  0.50371350  0.83601627  0.16938119  1
  Ni  Ni17  1  0.33571959  0.66959337  0.33777437  1
  Ni  Ni18  1  0.67088433  0.00427894  1.00220713  1
  Ni  Ni19  1  0.83662467  0.16923882  0.16998584  1
  Ni  Ni20  1  0.67010702  0.00422745  0.33761471  1
  Ni  Ni21  1  0.66925697  0.33674157  0.00345684  1
  Fe  Fe22  1  0.83587581  0.50285458  0.16993102  1
  Ni  Ni23  1  0.67084157  0.33683701  0.33679540  1
  Ni  Ni24  1  0.67115457  0.66857801  1.00260060  1
  Fe  Fe25  1  0.83761722  0.83605432  0.16946484  1
  Ni  Ni26  1  0.67034704  0.66853607  0.33724761  1
  Ni  Ni27  1  0.17004654  0.17034780  0.50276012  1
  Ni  Ni28  1  0.00380104  1.00313863  0.66933591  1
  Ni  Ni29  1  0.17008461  0.17006426  0.83718274  1
  Ni  Ni30  1  0.17032049  0.50293550  0.50294508  1
  Ni  Ni31  1  0.00352411  0.33692116  0.67048930  1
  Ni  Ni32  1  0.16955430  0.50342205  0.83669760  1
  Fe  Fe33  1  0.16971661  0.83682949  0.50363568  1
  Ni  Ni34  1  1.00268330  0.66954054  0.66926381  1
  Ni  Ni35  1  0.17055121  0.83611304  0.83726145  1
  Ni  Ni36  1  0.50320941  0.16947144  0.50182644  1
  Ni  Ni37  1  0.33605345  0.00398493  0.67010689  1
  Ni  Ni38  1  0.50331796  0.16845029  0.83774794  1
  Ni  Ni39  1  0.50263314  0.50350766  0.50282357  1
  Ni  Ni40  1  0.33602613  0.33577002  0.66890530  1
  Fe  Fe41  1  0.50349511  0.50298117  0.83697631  1
  Fe  Fe42  1  0.50383927  0.83676760  0.50293957  1
  Fe  Fe43  1  0.33623665  0.66956831  0.66997633  1
  Ni  Ni44  1  0.50335310  0.83722053  0.83641642  1
  Ni  Ni45  1  0.83634440  0.16896757  0.50362074  1
  Ni  Ni46  1  0.66974490  1.00314238  0.66977503  1
  Ni  Ni47  1  0.83619714  0.16945109  0.83599485  1
  Ni  Ni48  1  0.83664780  0.50373646  0.50213093  1
  Ni  Ni49  1  0.67005069  0.33688902  0.66934440  1
  Ni  Ni50  1  0.83730975  0.50345747  0.83718316  1
  Ni  Ni51  1  0.83576867  0.83689679  0.50245855  1
  Ni  Ni52  1  0.67089628  0.66956744  0.66974749  1
  Ni  Ni53  1  0.83569619  0.83669100  0.83774726  1
" 