5121,Ni74Fe22Cr2_6,-241.480768260488, 207.789561672838,Ni74Fe22Cr2,"# generated using pymatgen
 data_Cr(Fe3Ni10)2
_symmetry_space_group_name_H-M   'P 1'
_cell_length_a   7.42683558
_cell_length_b   7.42683558
_cell_length_c   10.50313161
_cell_angle_alpha   90.00000000
_cell_angle_beta   90.00000000
_cell_angle_gamma   90.00000000
_symmetry_Int_Tables_number   1
_chemical_formula_structural   Cr(Fe3Ni10)2
_chemical_formula_sum   'Cr2 Fe12 Ni40'
_cell_volume   579.33054416
_cell_formula_units_Z   2
loop_
 _symmetry_equiv_pos_site_id
 _symmetry_equiv_pos_as_xyz
  1  'x, y, z'
loop_
 _atom_site_type_symbol
 _atom_site_label
 _atom_site_symmetry_multiplicity
 _atom_site_fract_x
 _atom_site_fract_y
 _atom_site_fract_z
 _atom_site_occupancy
  Ni  Ni0  1  1.00130439  0.00352421  1.00222441  1
  Ni  Ni1  1  0.16926359  0.17053912  0.16930182  1
  Fe  Fe2  1  1.00199760  0.00433936  0.33684969  1
  Ni  Ni3  1  1.00158120  0.33640467  0.00308050  1
  Ni  Ni4  1  0.16933138  0.50129430  0.16938333  1
  Ni  Ni5  1  1.00251211  0.33718929  0.33573143  1
  Ni  Ni6  1  0.00318470  0.66819231  1.00231237  1
  Cr  Cr7  1  0.16940550  0.83641965  0.16930146  1
  Ni  Ni8  1  0.00337060  0.66797124  0.33651271  1
  Ni  Ni9  1  0.33713058  1.00131683  0.00328775  1
  Ni  Ni10  1  0.50290555  0.16914501  0.16937085  1
  Fe  Fe11  1  0.33650999  0.00409887  0.33649929  1
  Fe  Fe12  1  0.33474990  0.33621534  0.00395180  1
  Ni  Ni13  1  0.50307766  0.50291916  0.16886613  1
  Ni  Ni14  1  0.33609297  0.33723043  0.33520518  1
  Ni  Ni15  1  0.33635136  0.66929554  1.00201773  1
  Ni  Ni16  1  0.50414917  0.83605540  0.16923371  1
  Ni  Ni17  1  0.33555671  0.66825421  0.33673597  1
  Ni  Ni18  1  0.66968428  0.00292117  0.00383899  1
  Ni  Ni19  1  0.83595025  0.16946393  0.16874350  1
  Ni  Ni20  1  0.66923513  0.00350076  0.33528086  1
  Ni  Ni21  1  0.67079007  0.33562245  0.00410606  1
  Ni  Ni22  1  0.83571240  0.50253511  0.16961667  1
  Ni  Ni23  1  0.66951593  0.33451430  0.33589303  1
  Fe  Fe24  1  0.66952568  0.66967491  0.00283006  1
  Ni  Ni25  1  0.83432200  0.83612180  0.16918567  1
  Fe  Fe26  1  0.66931430  0.66805026  0.33554688  1
  Ni  Ni27  1  0.16877153  0.16820061  0.50301258  1
  Ni  Ni28  1  1.00202916  1.00257056  0.66944579  1
  Ni  Ni29  1  0.16703427  0.16811935  0.83580575  1
  Ni  Ni30  1  0.16962517  0.50342794  0.50320998  1
  Ni  Ni31  1  1.00195556  0.33645506  0.66931172  1
  Fe  Fe32  1  0.16931763  0.50247650  0.83588048  1
  Ni  Ni33  1  0.16990695  0.83649672  0.50338466  1
  Ni  Ni34  1  0.00391002  0.66909422  0.66929888  1
  Fe  Fe35  1  0.16962071  0.83611529  0.83569678  1
  Fe  Fe36  1  0.50259915  0.17049355  0.50260471  1
  Ni  Ni37  1  0.33610779  1.00111436  0.66813602  1
  Cr  Cr38  1  0.50246984  0.16912524  0.83548896  1
  Ni  Ni39  1  0.50301932  0.50320691  0.50338073  1
  Ni  Ni40  1  0.33586124  0.33759407  0.66879489  1
  Ni  Ni41  1  0.50344285  0.50552225  0.83587403  1
  Fe  Fe42  1  0.50192149  0.83594117  0.50299792  1
  Ni  Ni43  1  0.33536706  0.66941442  0.66937091  1
  Ni  Ni44  1  0.50183040  0.83397160  0.83591686  1
  Ni  Ni45  1  0.83650002  0.16972293  0.50347458  1
  Ni  Ni46  1  0.66998527  0.00306762  0.66899959  1
  Ni  Ni47  1  0.83864160  0.16973891  0.83590515  1
  Ni  Ni48  1  0.83547723  0.50206916  0.50288093  1
  Ni  Ni49  1  0.67030394  0.33571219  0.66812195  1
  Ni  Ni50  1  0.83572512  0.50249577  0.83562404  1
  Fe  Fe51  1  0.83735389  0.83587216  0.50239941  1
  Fe  Fe52  1  0.66900719  0.66866709  0.66974371  1
  Fe  Fe53  1  0.83588000  0.83669410  0.83652055  1
" 