690,Ni74Fe12Cr12_7,-235.680666337783, 184.1590166212,Ni74Fe12Cr12,"# generated using pymatgen
 data_Cr4Fe3Ni20
_symmetry_space_group_name_H-M   'P 1'
_cell_length_a   7.44936703
_cell_length_b   7.44936703
_cell_length_c   10.53499588
_cell_angle_alpha   90.00000000
_cell_angle_beta   90.00000000
_cell_angle_gamma   90.00000000
_symmetry_Int_Tables_number   1
_chemical_formula_structural   Cr4Fe3Ni20
_chemical_formula_sum   'Cr8 Fe6 Ni40'
_cell_volume   584.61925484
_cell_formula_units_Z   2
loop_
 _symmetry_equiv_pos_site_id
 _symmetry_equiv_pos_as_xyz
  1  'x, y, z'
loop_
 _atom_site_type_symbol
 _atom_site_label
 _atom_site_symmetry_multiplicity
 _atom_site_fract_x
 _atom_site_fract_y
 _atom_site_fract_z
 _atom_site_occupancy
  Fe  Fe0  1  1.00019289  0.00409933  0.00140347  1
  Ni  Ni1  1  0.16490512  0.16835879  0.16807171  1
  Ni  Ni2  1  0.99826134  0.00201496  0.33301868  1
  Ni  Ni3  1  0.99883664  0.33283465  1.00071096  1
  Cr  Cr4  1  0.16973883  0.49896420  0.16928576  1
  Ni  Ni5  1  0.99944101  0.33486977  0.33590278  1
  Cr  Cr6  1  0.99943016  0.66726865  0.00131943  1
  Fe  Fe7  1  0.16793808  0.83467886  0.16905973  1
  Ni  Ni8  1  0.99899038  0.66677175  0.33516408  1
  Cr  Cr9  1  0.33554771  0.00190102  1.00085048  1
  Ni  Ni10  1  0.50384191  0.16915263  0.16777422  1
  Cr  Cr11  1  0.33739000  0.00365921  0.33467576  1
  Ni  Ni12  1  0.33540351  0.33248345  0.00292409  1
  Ni  Ni13  1  0.50280547  0.50191826  0.16744459  1
  Ni  Ni14  1  0.33601017  0.33518896  0.33489732  1
  Ni  Ni15  1  0.33668299  0.66992449  1.00105695  1
  Ni  Ni16  1  0.50346818  0.83252788  0.16770941  1
  Ni  Ni17  1  0.33580074  0.66663275  0.33510496  1
  Ni  Ni18  1  0.66698060  0.00207600  0.00173374  1
  Ni  Ni19  1  0.83450782  0.16779555  0.16746396  1
  Ni  Ni20  1  0.66872257  0.00169242  0.33504310  1
  Ni  Ni21  1  0.66945831  0.33345241  1.00105297  1
  Ni  Ni22  1  0.83219373  0.49953486  0.16829282  1
  Ni  Ni23  1  0.66812802  0.33399568  0.33484660  1
  Ni  Ni24  1  0.66716782  0.66808973  0.00357355  1
  Fe  Fe25  1  0.83201909  0.83574416  0.16954983  1
  Fe  Fe26  1  0.66780646  0.66665622  0.33506360  1
  Ni  Ni27  1  0.16618729  0.17034719  0.50135437  1
  Ni  Ni28  1  1.00110641  0.00291302  0.66862451  1
  Ni  Ni29  1  0.16659854  0.16728459  0.83411526  1
  Ni  Ni30  1  0.16798509  0.49950150  0.50074347  1
  Ni  Ni31  1  1.00098852  0.33475582  0.66695079  1
  Cr  Cr32  1  0.16821744  0.49988129  0.83326487  1
  Cr  Cr33  1  0.16612768  0.83494634  0.50218144  1
  Ni  Ni34  1  0.99835934  0.66612802  0.66695530  1
  Ni  Ni35  1  0.16930687  0.83643016  0.83336759  1
  Ni  Ni36  1  0.50261887  0.16848298  0.50163069  1
  Ni  Ni37  1  0.33643431  0.00365054  0.66901610  1
  Ni  Ni38  1  0.50254487  0.16693966  0.83407543  1
  Ni  Ni39  1  0.50073183  0.50120588  0.50011601  1
  Ni  Ni40  1  0.33409502  0.33109295  0.66563720  1
  Cr  Cr41  1  0.50324886  0.50122559  0.83608873  1
  Ni  Ni42  1  0.50408693  0.83377703  0.50258963  1
  Fe  Fe43  1  0.33520061  0.66886248  0.66681250  1
  Ni  Ni44  1  0.50094284  0.83500198  0.83337152  1
  Ni  Ni45  1  0.83499234  0.16666256  0.50114539  1
  Ni  Ni46  1  0.66606154  1.00099895  0.66678693  1
  Ni  Ni47  1  0.83450997  0.16880682  0.83476054  1
  Ni  Ni48  1  0.83480034  0.50112445  0.50136616  1
  Fe  Fe49  1  0.66942198  0.33302683  0.66673690  1
  Ni  Ni50  1  0.83338070  0.49878593  0.83384748  1
  Ni  Ni51  1  0.83289566  0.83552143  0.49999721  1
  Ni  Ni52  1  0.66927865  0.66808039  0.66580605  1
  Cr  Cr53  1  0.83229065  0.83636171  0.83374609  1
" 