3880,Ni74Fe12Cr12_3,-235.338115593468, 181.482995147933,Ni74Fe12Cr12,"# generated using pymatgen
 data_Cr4Fe3Ni20
_symmetry_space_group_name_H-M   'P 1'
_cell_length_a   7.44731618
_cell_length_b   7.44731618
_cell_length_c   10.53209555
_cell_angle_alpha   90.00000000
_cell_angle_beta   90.00000000
_cell_angle_gamma   90.00000000
_symmetry_Int_Tables_number   1
_chemical_formula_structural   Cr4Fe3Ni20
_chemical_formula_sum   'Cr8 Fe6 Ni40'
_cell_volume   584.13654214
_cell_formula_units_Z   2
loop_
 _symmetry_equiv_pos_site_id
 _symmetry_equiv_pos_as_xyz
  1  'x, y, z'
loop_
 _atom_site_type_symbol
 _atom_site_label
 _atom_site_symmetry_multiplicity
 _atom_site_fract_x
 _atom_site_fract_y
 _atom_site_fract_z
 _atom_site_occupancy
  Ni  Ni0  1  0.00162149  0.00383070  1.00062487  1
  Ni  Ni1  1  0.16798132  0.16702051  0.16716674  1
  Ni  Ni2  1  0.00229168  1.00074128  0.33489892  1
  Ni  Ni3  1  0.00223107  0.33199535  0.00148506  1
  Ni  Ni4  1  0.16970724  0.50055315  0.16779269  1
  Cr  Cr5  1  1.00113594  0.33428167  0.33428568  1
  Cr  Cr6  1  0.00427078  0.66810737  1.00127754  1
  Ni  Ni7  1  0.17048463  0.83639923  0.16908536  1
  Fe  Fe8  1  0.00251742  0.67013882  0.33676161  1
  Ni  Ni9  1  0.33514465  1.00043822  0.00203232  1
  Fe  Fe10  1  0.50104084  0.16604176  0.16785586  1
  Ni  Ni11  1  0.33481405  0.99937206  0.33379370  1
  Ni  Ni12  1  0.33390740  0.33475968  1.00103067  1
  Cr  Cr13  1  0.50022356  0.50149910  0.16790113  1
  Fe  Fe14  1  0.33598705  0.33377572  0.33558848  1
  Ni  Ni15  1  0.33515550  0.66877544  1.00023560  1
  Ni  Ni16  1  0.49948039  0.83612962  0.16815501  1
  Ni  Ni17  1  0.33456191  0.66977493  0.33525258  1
  Ni  Ni18  1  0.66720640  0.00258580  1.00067133  1
  Ni  Ni19  1  0.83481063  0.16726870  0.16706991  1
  Ni  Ni20  1  0.66686991  0.00152346  0.33540724  1
  Ni  Ni21  1  0.66783443  0.33200067  1.00080526  1
  Cr  Cr22  1  0.83424160  0.49964947  0.16769131  1
  Ni  Ni23  1  0.66757194  0.33390576  0.33626331  1
  Fe  Fe24  1  0.66446198  0.66975873  0.99995420  1
  Cr  Cr25  1  0.83388761  0.83713551  0.16876664  1
  Ni  Ni26  1  0.66620051  0.66854360  0.33632664  1
  Fe  Fe27  1  0.16826115  0.16772390  0.50148884  1
  Ni  Ni28  1  0.99950717  1.00129866  0.66845031  1
  Ni  Ni29  1  0.16702606  0.16871979  0.83542867  1
  Ni  Ni30  1  0.16852895  0.50239452  0.50227839  1
  Ni  Ni31  1  0.00187880  0.33446657  0.66802145  1
  Ni  Ni32  1  0.17069860  0.50038087  0.83390371  1
  Ni  Ni33  1  0.16650094  0.83358018  0.50013387  1
  Ni  Ni34  1  0.00395436  0.66820864  0.66620221  1
  Ni  Ni35  1  0.16787604  0.83487385  0.83475520  1
  Ni  Ni36  1  0.50260971  0.16923606  0.49988366  1
  Cr  Cr37  1  0.33518816  1.00036037  0.66858167  1
  Ni  Ni38  1  0.50230935  0.16891257  0.83602539  1
  Ni  Ni39  1  0.50091011  0.49957064  0.50075179  1
  Ni  Ni40  1  0.33433277  0.33708113  0.66773418  1
  Ni  Ni41  1  0.49877044  0.50032349  0.83507694  1
  Ni  Ni42  1  0.50170150  0.83516589  0.49933025  1
  Ni  Ni43  1  0.33268773  0.66602710  0.66848617  1
  Ni  Ni44  1  0.50140165  0.83473812  0.83649230  1
  Fe  Fe45  1  0.83320936  0.16715855  0.50212092  1
  Ni  Ni46  1  0.66994538  0.00294402  0.66789300  1
  Ni  Ni47  1  0.83463792  0.16609040  0.83449021  1
  Ni  Ni48  1  0.83453529  0.50148810  0.50074390  1
  Ni  Ni49  1  0.66776379  0.33263332  0.66690348  1
  Cr  Cr50  1  0.83462019  0.49960115  0.83514323  1
  Ni  Ni51  1  0.83577134  0.83527963  0.50046476  1
  Cr  Cr52  1  0.66657191  0.66885733  0.66804730  1
  Ni  Ni53  1  0.83469503  0.83841447  0.83452420  1
" 