2730,Ni74Fe24Cr0_5,-242.241536062211, 211.265478256388,Ni74Fe24Cr0,"# generated using pymatgen
 data_CrFe13Ni40
_symmetry_space_group_name_H-M   'P 1'
_cell_length_a   7.42143337
_cell_length_b   7.42143337
_cell_length_c   10.49549172
_cell_angle_alpha   90.00000000
_cell_angle_beta   90.00000000
_cell_angle_gamma   90.00000000
_symmetry_Int_Tables_number   1
_chemical_formula_structural   CrFe13Ni40
_chemical_formula_sum   'Cr1 Fe13 Ni40'
_cell_volume   578.06726336
_cell_formula_units_Z   1
loop_
 _symmetry_equiv_pos_site_id
 _symmetry_equiv_pos_as_xyz
  1  'x, y, z'
loop_
 _atom_site_type_symbol
 _atom_site_label
 _atom_site_symmetry_multiplicity
 _atom_site_fract_x
 _atom_site_fract_y
 _atom_site_fract_z
 _atom_site_occupancy
  Ni  Ni0  1  0.00386429  0.00381938  0.00355014  1
  Ni  Ni1  1  0.16953064  0.17058731  0.16985628  1
  Fe  Fe2  1  1.00229116  1.00187571  0.33561506  1
  Ni  Ni3  1  0.00313949  0.33640345  1.00274742  1
  Ni  Ni4  1  0.17059533  0.50094337  0.17033157  1
  Ni  Ni5  1  0.00309314  0.33819453  0.33561277  1
  Fe  Fe6  1  1.00201994  0.67026919  1.00267170  1
  Fe  Fe7  1  0.17056278  0.83624816  0.16958947  1
  Ni  Ni8  1  1.00305425  0.66827012  0.33614258  1
  Ni  Ni9  1  0.33626582  1.00274599  0.00308297  1
  Fe  Fe10  1  0.50252341  0.16915171  0.16935277  1
  Ni  Ni11  1  0.33802886  1.00244869  0.33539624  1
  Fe  Fe12  1  0.33664195  0.33564342  1.00302250  1
  Ni  Ni13  1  0.50246976  0.50371676  0.16982581  1
  Ni  Ni14  1  0.33582467  0.33717008  0.33498801  1
  Fe  Fe15  1  0.33716480  0.66991134  1.00295902  1
  Ni  Ni16  1  0.50494511  0.83605903  0.16996133  1
  Ni  Ni17  1  0.33616690  0.66959263  0.33631538  1
  Ni  Ni18  1  0.66908949  1.00236509  1.00274684  1
  Fe  Fe19  1  0.83648899  0.16980235  0.16976773  1
  Ni  Ni20  1  0.66897583  1.00240848  0.33602893  1
  Ni  Ni21  1  0.67044685  0.33722484  0.00358125  1
  Fe  Fe22  1  0.83646431  0.50349162  0.16961489  1
  Fe  Fe23  1  0.66914443  0.33725699  0.33695343  1
  Ni  Ni24  1  0.66938240  0.66963355  1.00304449  1
  Ni  Ni25  1  0.83500807  0.83712831  0.16995529  1
  Ni  Ni26  1  0.66999948  0.67047942  0.33634653  1
  Cr  Cr27  1  0.16952748  0.17059456  0.50382550  1
  Ni  Ni28  1  1.00245064  1.00250574  0.67045326  1
  Ni  Ni29  1  0.17023507  0.16976390  0.83626635  1
  Ni  Ni30  1  0.17050423  0.50351787  0.50306991  1
  Ni  Ni31  1  1.00246862  0.33765001  0.67085573  1
  Ni  Ni32  1  0.16974325  0.50168467  0.83581430  1
  Fe  Fe33  1  0.16903598  0.83379370  0.50376826  1
  Ni  Ni34  1  0.00325084  0.66905986  0.66999133  1
  Ni  Ni35  1  0.16918066  0.83776984  0.83642910  1
  Fe  Fe36  1  0.50533569  0.17038225  0.50370945  1
  Ni  Ni37  1  0.33723800  1.00224105  0.67074371  1
  Ni  Ni38  1  0.50200630  0.16947976  0.83623128  1
  Ni  Ni39  1  0.50283451  0.50355273  0.50303196  1
  Ni  Ni40  1  0.33665506  0.33734790  0.67119091  1
  Ni  Ni41  1  0.50336011  0.50282701  0.83636257  1
  Fe  Fe42  1  0.50381716  0.83578326  0.50282948  1
  Ni  Ni43  1  0.33613493  0.66962613  0.66956948  1
  Ni  Ni44  1  0.50420503  0.83691030  0.83618623  1
  Ni  Ni45  1  0.83555009  0.16856427  0.50312366  1
  Ni  Ni46  1  0.66953156  1.00302372  0.67044143  1
  Fe  Fe47  1  0.83642733  0.16986391  0.83604516  1
  Ni  Ni48  1  0.83587829  0.50385255  0.50230291  1
  Ni  Ni49  1  0.67009805  0.33654917  0.66925317  1
  Ni  Ni50  1  0.83611698  0.50388938  0.83630540  1
  Ni  Ni51  1  0.83551712  0.83680040  0.50309957  1
  Ni  Ni52  1  0.66983209  0.66964906  0.66982371  1
  Ni  Ni53  1  0.83583249  0.83642521  0.83616546  1
" 