2229,Ni74Fe12Cr12_9,-235.604472545458, 184.168662138594,Ni74Fe12Cr12,"# generated using pymatgen
 data_Cr4Fe3Ni20
_symmetry_space_group_name_H-M   'P 1'
_cell_length_a   7.44911285
_cell_length_b   7.44911285
_cell_length_c   10.53463642
_cell_angle_alpha   90.00000000
_cell_angle_beta   90.00000000
_cell_angle_gamma   90.00000000
_symmetry_Int_Tables_number   1
_chemical_formula_structural   Cr4Fe3Ni20
_chemical_formula_sum   'Cr8 Fe6 Ni40'
_cell_volume   584.55941409
_cell_formula_units_Z   2
loop_
 _symmetry_equiv_pos_site_id
 _symmetry_equiv_pos_as_xyz
  1  'x, y, z'
loop_
 _atom_site_type_symbol
 _atom_site_label
 _atom_site_symmetry_multiplicity
 _atom_site_fract_x
 _atom_site_fract_y
 _atom_site_fract_z
 _atom_site_occupancy
  Ni  Ni0  1  0.99882549  0.00284834  0.00157317  1
  Ni  Ni1  1  0.16642486  0.17071528  0.16803986  1
  Ni  Ni2  1  1.00099810  0.00334713  0.33461459  1
  Ni  Ni3  1  0.00188645  0.33532747  0.00238102  1
  Ni  Ni4  1  0.16770687  0.49922770  0.16772102  1
  Ni  Ni5  1  0.00358684  0.33406191  0.33466545  1
  Ni  Ni6  1  0.99964847  0.66543899  1.00073502  1
  Cr  Cr7  1  0.16715950  0.83317977  0.16924457  1
  Ni  Ni8  1  0.00183746  0.66620205  0.33480372  1
  Cr  Cr9  1  0.33610389  0.00205882  1.00069857  1
  Fe  Fe10  1  0.50202946  0.16767240  0.16776662  1
  Fe  Fe11  1  0.33490993  0.00156884  0.33596350  1
  Fe  Fe12  1  0.33421288  0.33639713  1.00117943  1
  Fe  Fe13  1  0.50078125  0.50253233  0.16725861  1
  Ni  Ni14  1  0.33217473  0.33490195  0.33389531  1
  Ni  Ni15  1  0.33624741  0.66473809  1.00063292  1
  Ni  Ni16  1  0.50385784  0.83391695  0.16857607  1
  Ni  Ni17  1  0.33525228  0.66668861  0.33598530  1
  Ni  Ni18  1  0.66848756  1.00054613  0.00204143  1
  Ni  Ni19  1  0.83539523  0.16712129  0.16719023  1
  Ni  Ni20  1  0.66736095  1.00027121  0.33324818  1
  Ni  Ni21  1  0.66779003  0.33526954  1.00102898  1
  Ni  Ni22  1  0.83565072  0.50129981  0.16685703  1
  Cr  Cr23  1  0.66851556  0.33444341  0.33609153  1
  Ni  Ni24  1  0.66771689  0.66780161  0.00121920  1
  Ni  Ni25  1  0.83223317  0.83519279  0.16701031  1
  Ni  Ni26  1  0.66652326  0.66928153  0.33344152  1
  Ni  Ni27  1  0.16785740  0.16645089  0.49992238  1
  Ni  Ni28  1  0.00172442  1.00078319  0.66742298  1
  Fe  Fe29  1  0.16851716  0.16846740  0.83521243  1
  Ni  Ni30  1  0.16810545  0.50269709  0.49921856  1
  Cr  Cr31  1  1.00079842  0.33551473  0.66617252  1
  Ni  Ni32  1  0.16827161  0.50202621  0.83667347  1
  Ni  Ni33  1  0.16982862  0.83446108  0.50136822  1
  Ni  Ni34  1  1.00081442  0.66767530  0.66807508  1
  Cr  Cr35  1  0.16693484  0.83312172  0.83327729  1
  Ni  Ni36  1  0.50125099  0.16652971  0.50125220  1
  Ni  Ni37  1  0.33601852  1.00054985  0.66636207  1
  Ni  Ni38  1  0.50183643  0.16792220  0.83469390  1
  Ni  Ni39  1  0.50075548  0.50237366  0.50125473  1
  Cr  Cr40  1  0.33535527  0.33453142  0.66857455  1
  Ni  Ni41  1  0.50133903  0.50164550  0.83572270  1
  Ni  Ni42  1  0.49895994  0.83470879  0.50158651  1
  Ni  Ni43  1  0.33595700  0.66887773  0.66700288  1
  Ni  Ni44  1  0.50288587  0.83404941  0.83344399  1
  Ni  Ni45  1  0.83450226  0.16824502  0.50104814  1
  Ni  Ni46  1  0.66587168  1.00052694  0.66831948  1
  Cr  Cr47  1  0.83318549  0.16676949  0.83489550  1
  Ni  Ni48  1  0.83474603  0.50040576  0.50161398  1
  Fe  Fe49  1  0.66701442  0.33536240  0.66732705  1
  Ni  Ni50  1  0.83400029  0.50307329  0.83514279  1
  Cr  Cr51  1  0.83496766  0.83468096  0.50123249  1
  Ni  Ni52  1  0.66683993  0.66798602  0.66895439  1
  Ni  Ni53  1  0.83335049  0.83351935  0.83537275  1
" 