8604,Ni74Fe22Cr2_8,-241.447341285568, 207.42640303915,Ni74Fe22Cr2,"# generated using pymatgen
 data_Cr(Fe3Ni10)2
_symmetry_space_group_name_H-M   'P 1'
_cell_length_a   7.42621622
_cell_length_b   7.42621622
_cell_length_c   10.50225570
_cell_angle_alpha   90.00000000
_cell_angle_beta   90.00000000
_cell_angle_gamma   90.00000000
_symmetry_Int_Tables_number   1
_chemical_formula_structural   Cr(Fe3Ni10)2
_chemical_formula_sum   'Cr2 Fe12 Ni40'
_cell_volume   579.18561623
_cell_formula_units_Z   2
loop_
 _symmetry_equiv_pos_site_id
 _symmetry_equiv_pos_as_xyz
  1  'x, y, z'
loop_
 _atom_site_type_symbol
 _atom_site_label
 _atom_site_symmetry_multiplicity
 _atom_site_fract_x
 _atom_site_fract_y
 _atom_site_fract_z
 _atom_site_occupancy
  Ni  Ni0  1  1.00261870  1.00224981  1.00255848  1
  Ni  Ni1  1  0.16705862  0.16923817  0.16983609  1
  Ni  Ni2  1  0.00300014  0.00284173  0.33640181  1
  Fe  Fe3  1  1.00231081  0.33553110  0.00320688  1
  Fe  Fe4  1  0.16986930  0.50312302  0.16986911  1
  Ni  Ni5  1  1.00192236  0.33423806  0.33495491  1
  Ni  Ni6  1  1.00261325  0.67071555  0.00327003  1
  Ni  Ni7  1  0.16912508  0.83595140  0.16980657  1
  Ni  Ni8  1  1.00198235  0.67116430  0.33526931  1
  Ni  Ni9  1  0.33483093  1.00250647  1.00224981  1
  Cr  Cr10  1  0.50336893  0.16991615  0.16942421  1
  Fe  Fe11  1  0.33457068  1.00136151  0.33664993  1
  Ni  Ni12  1  0.33618533  0.33636665  1.00198483  1
  Ni  Ni13  1  0.50233611  0.50429959  0.16983559  1
  Ni  Ni14  1  0.33646387  0.33608062  0.33628739  1
  Ni  Ni15  1  0.33590613  0.66937208  1.00272692  1
  Ni  Ni16  1  0.50200456  0.83353867  0.16895045  1
  Ni  Ni17  1  0.33696788  0.66987500  0.33522853  1
  Ni  Ni18  1  0.67080098  1.00251654  1.00214636  1
  Ni  Ni19  1  0.83837660  0.16958592  0.16907953  1
  Fe  Fe20  1  0.67086606  1.00190537  0.33658654  1
  Ni  Ni21  1  0.66946437  0.33637509  1.00192503  1
  Fe  Fe22  1  0.83574421  0.50329515  0.16976758  1
  Ni  Ni23  1  0.66986015  0.33709831  0.33729905  1
  Ni  Ni24  1  0.66972633  0.66935656  1.00262802  1
  Ni  Ni25  1  0.83711806  0.83644701  0.16979474  1
  Ni  Ni26  1  0.66929093  0.66880296  0.33631285  1
  Fe  Fe27  1  0.16971028  0.16837214  0.50195220  1
  Fe  Fe28  1  1.00265844  1.00221666  0.66949835  1
  Fe  Fe29  1  0.17020396  0.16888284  0.83674244  1
  Cr  Cr30  1  0.16967689  0.50401968  0.50270895  1
  Fe  Fe31  1  1.00114319  0.33579716  0.66953379  1
  Fe  Fe32  1  0.16972779  0.50358631  0.83584529  1
  Ni  Ni33  1  0.17030220  0.83723097  0.50243683  1
  Ni  Ni34  1  1.00184223  0.67069740  0.66970684  1
  Ni  Ni35  1  0.16969622  0.83579204  0.83600434  1
  Fe  Fe36  1  0.50296707  0.17002041  0.50362128  1
  Ni  Ni37  1  0.33588339  0.00318595  0.66910607  1
  Ni  Ni38  1  0.50318650  0.17001801  0.83583220  1
  Ni  Ni39  1  0.50424892  0.50294652  0.50284006  1
  Ni  Ni40  1  0.33750255  0.33486971  0.66998884  1
  Ni  Ni41  1  0.50269945  0.50224843  0.83557590  1
  Ni  Ni42  1  0.50140327  0.83559566  0.50261921  1
  Ni  Ni43  1  0.33619774  0.67019114  0.67029417  1
  Ni  Ni44  1  0.50161996  0.83598299  0.83667306  1
  Ni  Ni45  1  0.83602450  0.17040864  0.50246475  1
  Ni  Ni46  1  0.66948768  0.00327582  0.66944185  1
  Ni  Ni47  1  0.83565169  0.17000572  0.83669950  1
  Ni  Ni48  1  0.83441288  0.50112770  0.50241615  1
  Ni  Ni49  1  0.66898602  0.33588961  0.66902940  1
  Ni  Ni50  1  0.83583286  0.50197126  0.83589883  1
  Fe  Fe51  1  0.83586924  0.83501948  0.50269521  1
  Ni  Ni52  1  0.67020273  0.66907586  0.66930282  1
  Ni  Ni53  1  0.83693307  0.83627255  0.83547455  1
" 