8736,Ni74Fe24Cr0_13,-242.450701960804, 212.292707398916,Ni74Fe24Cr0,"# generated using pymatgen
 data_CrFe13Ni40
_symmetry_space_group_name_H-M   'P 1'
_cell_length_a   7.42127530
_cell_length_b   7.42127530
_cell_length_c   10.49526819
_cell_angle_alpha   90.00000000
_cell_angle_beta   90.00000000
_cell_angle_gamma   90.00000000
_symmetry_Int_Tables_number   1
_chemical_formula_structural   CrFe13Ni40
_chemical_formula_sum   'Cr1 Fe13 Ni40'
_cell_volume   578.03032875
_cell_formula_units_Z   1
loop_
 _symmetry_equiv_pos_site_id
 _symmetry_equiv_pos_as_xyz
  1  'x, y, z'
loop_
 _atom_site_type_symbol
 _atom_site_label
 _atom_site_symmetry_multiplicity
 _atom_site_fract_x
 _atom_site_fract_y
 _atom_site_fract_z
 _atom_site_occupancy
  Ni  Ni0  1  1.00289946  0.00385630  1.00242776  1
  Ni  Ni1  1  0.16991995  0.17128929  0.16972949  1
  Ni  Ni2  1  0.00315593  0.00365230  0.33728934  1
  Ni  Ni3  1  1.00268990  0.33549550  1.00269835  1
  Ni  Ni4  1  0.16998793  0.50296013  0.16983532  1
  Ni  Ni5  1  1.00256765  0.33452453  0.33613786  1
  Ni  Ni6  1  0.00406967  0.66989915  1.00281485  1
  Fe  Fe7  1  0.16886999  0.83687493  0.17018201  1
  Ni  Ni8  1  0.00313708  0.67107451  0.33572222  1
  Fe  Fe9  1  0.33695008  0.00314397  1.00248395  1
  Ni  Ni10  1  0.50313565  0.16963860  0.16970581  1
  Fe  Fe11  1  0.33639796  0.00367849  0.33750724  1
  Fe  Fe12  1  0.33629451  0.33689291  0.00367821  1
  Fe  Fe13  1  0.50311477  0.50237769  0.17006958  1
  Ni  Ni14  1  0.33725976  0.33563382  0.33629797  1
  Ni  Ni15  1  0.33623238  0.66987182  1.00218555  1
  Fe  Fe16  1  0.50343438  0.83689578  0.16962123  1
  Ni  Ni17  1  0.33695873  0.67023829  0.33665248  1
  Ni  Ni18  1  0.67005673  0.00415713  1.00200259  1
  Ni  Ni19  1  0.83619746  0.16849563  0.16967411  1
  Ni  Ni20  1  0.67026292  0.00395115  0.33738363  1
  Ni  Ni21  1  0.67002644  0.33543072  1.00308127  1
  Fe  Fe22  1  0.83697537  0.50207308  0.16977051  1
  Ni  Ni23  1  0.66942491  0.33564618  0.33681046  1
  Ni  Ni24  1  0.66894984  0.66966029  1.00238647  1
  Ni  Ni25  1  0.83618991  0.83671478  0.16960457  1
  Ni  Ni26  1  0.66915577  0.66965110  0.33720469  1
  Ni  Ni27  1  0.16999514  0.16833946  0.50257904  1
  Fe  Fe28  1  1.00281118  1.00214597  0.66919470  1
  Fe  Fe29  1  0.16951462  0.16995264  0.83656329  1
  Cr  Cr30  1  0.16994135  0.50340881  0.50275863  1
  Fe  Fe31  1  1.00199535  0.33661739  0.67061835  1
  Ni  Ni32  1  0.16990111  0.50352645  0.83668622  1
  Ni  Ni33  1  0.16969090  0.83747487  0.50242136  1
  Ni  Ni34  1  1.00277834  0.67077123  0.67071371  1
  Fe  Fe35  1  0.16987309  0.83545640  0.83580020  1
  Ni  Ni36  1  0.50311684  0.16947450  0.50269627  1
  Ni  Ni37  1  0.33587225  1.00280946  0.66923166  1
  Ni  Ni38  1  0.50342752  0.16934955  0.83685136  1
  Ni  Ni39  1  0.50422371  0.50340696  0.50285109  1
  Fe  Fe40  1  0.33804008  0.33650061  0.67008278  1
  Ni  Ni41  1  0.50179329  0.50349790  0.83676341  1
  Ni  Ni42  1  0.50339074  0.83636967  0.50257977  1
  Ni  Ni43  1  0.33700106  0.67158376  0.67041270  1
  Ni  Ni44  1  0.50367249  0.83640375  0.83699774  1
  Ni  Ni45  1  0.83613920  0.16917319  0.50233811  1
  Fe  Fe46  1  0.66915403  1.00213656  0.66987592  1
  Ni  Ni47  1  0.83591864  0.16908042  0.83723892  1
  Ni  Ni48  1  0.83503586  0.50371116  0.50241404  1
  Ni  Ni49  1  0.66978110  0.33649120  0.66936193  1
  Ni  Ni50  1  0.83755730  0.50376892  0.83723105  1
  Ni  Ni51  1  0.83616850  0.83636422  0.50302921  1
  Ni  Ni52  1  0.66947253  0.66853617  0.66966226  1
  Ni  Ni53  1  0.83594691  0.83639901  0.83661705  1
" 