6337,Ni74Fe12Cr12_16,-235.558796360283, 180.670119833799,Ni74Fe12Cr12,"# generated using pymatgen
 data_Cr4Fe3Ni20
_symmetry_space_group_name_H-M   'P 1'
_cell_length_a   7.45004887
_cell_length_b   7.45004887
_cell_length_c   10.53596016
_cell_angle_alpha   90.00000000
_cell_angle_beta   90.00000000
_cell_angle_gamma   90.00000000
_symmetry_Int_Tables_number   1
_chemical_formula_structural   Cr4Fe3Ni20
_chemical_formula_sum   'Cr8 Fe6 Ni40'
_cell_volume   584.77980095
_cell_formula_units_Z   2
loop_
 _symmetry_equiv_pos_site_id
 _symmetry_equiv_pos_as_xyz
  1  'x, y, z'
loop_
 _atom_site_type_symbol
 _atom_site_label
 _atom_site_symmetry_multiplicity
 _atom_site_fract_x
 _atom_site_fract_y
 _atom_site_fract_z
 _atom_site_occupancy
  Ni  Ni0  1  0.00220898  0.00381069  0.99985589  1
  Ni  Ni1  1  0.16732563  0.16969199  0.16789464  1
  Ni  Ni2  1  0.00154757  0.00495724  0.33618274  1
  Ni  Ni3  1  0.00153660  0.33269359  0.00129324  1
  Ni  Ni4  1  0.16846342  0.49857452  0.16691477  1
  Ni  Ni5  1  1.00093684  0.33257653  0.33419685  1
  Fe  Fe6  1  1.00105822  0.66506160  0.99926942  1
  Cr  Cr7  1  0.16824822  0.83563232  0.16693105  1
  Cr  Cr8  1  0.00278892  0.66510787  0.33658962  1
  Fe  Fe9  1  0.33319632  0.00505738  1.00012244  1
  Ni  Ni10  1  0.50043170  0.17104520  0.16841531  1
  Ni  Ni11  1  0.33357176  0.00353411  0.33435315  1
  Ni  Ni12  1  0.33424988  0.33547583  0.00151469  1
  Ni  Ni13  1  0.50035241  0.49852389  0.16728646  1
  Fe  Fe14  1  0.33417318  0.33419035  0.33477706  1
  Ni  Ni15  1  0.33434196  0.66439643  1.00018053  1
  Cr  Cr16  1  0.49948010  0.83453034  0.16775084  1
  Ni  Ni17  1  0.33381392  0.66536207  0.33564004  1
  Cr  Cr18  1  0.66938540  0.00434358  1.00011540  1
  Ni  Ni19  1  0.83549727  0.17093463  0.16862320  1
  Ni  Ni20  1  0.66836103  0.00565017  0.33566455  1
  Ni  Ni21  1  0.66747821  0.33587687  1.00087988  1
  Ni  Ni22  1  0.83450460  0.49683663  0.16589520  1
  Ni  Ni23  1  0.66806311  0.33274647  0.33417007  1
  Ni  Ni24  1  0.66716348  0.66426512  1.00092442  1
  Cr  Cr25  1  0.83560357  0.83529932  0.16736088  1
  Cr  Cr26  1  0.66708903  0.66453938  0.33453495  1
  Ni  Ni27  1  0.16767554  0.16804802  0.50077968  1
  Ni  Ni28  1  0.00162926  0.00184807  0.66734668  1
  Ni  Ni29  1  0.16743980  0.16774111  0.83475714  1
  Ni  Ni30  1  0.16809507  0.49976844  0.50244269  1
  Ni  Ni31  1  0.00178029  0.33356746  0.66772167  1
  Fe  Fe32  1  0.16774332  0.49979202  0.83378712  1
  Ni  Ni33  1  0.16744505  0.83553958  0.50201196  1
  Ni  Ni34  1  1.00079641  0.66790867  0.66830920  1
  Ni  Ni35  1  0.16636770  0.83487654  0.83465203  1
  Ni  Ni36  1  0.50074888  0.16959979  0.50133312  1
  Ni  Ni37  1  0.33208987  0.00331539  0.66880033  1
  Ni  Ni38  1  0.49985506  0.17143074  0.83368793  1
  Ni  Ni39  1  0.50054423  0.49873567  0.50163626  1
  Ni  Ni40  1  0.33424724  0.33395995  0.66735984  1
  Ni  Ni41  1  0.50175611  0.49956127  0.83438952  1
  Cr  Cr42  1  0.49985990  0.83545635  0.50169341  1
  Ni  Ni43  1  0.33358241  0.66610902  0.66736371  1
  Cr  Cr44  1  0.49972796  0.83306405  0.83386868  1
  Ni  Ni45  1  0.83508303  0.16876441  0.50094176  1
  Fe  Fe46  1  0.66924599  0.00272606  0.66791634  1
  Ni  Ni47  1  0.83609132  0.16971198  0.83368344  1
  Ni  Ni48  1  0.83477588  0.49884921  0.50251563  1
  Fe  Fe49  1  0.66792608  0.33487935  0.66788071  1
  Ni  Ni50  1  0.83391072  0.50044582  0.83494076  1
  Ni  Ni51  1  0.83619548  0.83592549  0.50292016  1
  Ni  Ni52  1  0.66905613  0.66607703  0.66778619  1
  Ni  Ni53  1  0.83706568  0.83319012  0.83374248  1
" 