2440,Ni74Fe12Cr12_15,-235.594650925074, 184.081216445317,Ni74Fe12Cr12,"# generated using pymatgen
 data_Cr4Fe3Ni20
_symmetry_space_group_name_H-M   'P 1'
_cell_length_a   7.45057112
_cell_length_b   7.45057112
_cell_length_c   10.53669872
_cell_angle_alpha   90.00000000
_cell_angle_beta   90.00000000
_cell_angle_gamma   90.00000000
_symmetry_Int_Tables_number   1
_chemical_formula_structural   Cr4Fe3Ni20
_chemical_formula_sum   'Cr8 Fe6 Ni40'
_cell_volume   584.90278758
_cell_formula_units_Z   2
loop_
 _symmetry_equiv_pos_site_id
 _symmetry_equiv_pos_as_xyz
  1  'x, y, z'
loop_
 _atom_site_type_symbol
 _atom_site_label
 _atom_site_symmetry_multiplicity
 _atom_site_fract_x
 _atom_site_fract_y
 _atom_site_fract_z
 _atom_site_occupancy
  Fe  Fe0  1  1.00100303  1.00046319  1.00109721  1
  Ni  Ni1  1  0.16666962  0.16797300  0.16669897  1
  Ni  Ni2  1  0.00183822  0.99968811  0.33443760  1
  Fe  Fe3  1  1.00109310  0.33346871  0.00114823  1
  Ni  Ni4  1  0.16858630  0.50081288  0.16739820  1
  Cr  Cr5  1  0.00180840  0.33411744  0.33466994  1
  Fe  Fe6  1  1.00049369  0.66930302  0.00206030  1
  Ni  Ni7  1  0.16637793  0.83451734  0.16775307  1
  Ni  Ni8  1  0.00165874  0.66931367  0.33449349  1
  Ni  Ni9  1  0.33244616  1.00086787  0.00113337  1
  Cr  Cr10  1  0.49970421  0.16644350  0.16797264  1
  Ni  Ni11  1  0.33207785  1.00079178  0.33362813  1
  Ni  Ni12  1  0.33471654  0.33410161  1.00053759  1
  Ni  Ni13  1  0.49979304  0.50261334  0.16635203  1
  Ni  Ni14  1  0.33263413  0.33419333  0.33486711  1
  Ni  Ni15  1  0.33398217  0.66828282  0.00288735  1
  Ni  Ni16  1  0.50240998  0.83291022  0.16810263  1
  Ni  Ni17  1  0.33222047  0.66819614  0.33169238  1
  Ni  Ni18  1  0.66905322  0.00140555  1.00090705  1
  Fe  Fe19  1  0.83585167  0.16484462  0.16618240  1
  Ni  Ni20  1  0.66970116  0.99986423  0.33430914  1
  Ni  Ni21  1  0.66905186  0.33512444  1.00029237  1
  Fe  Fe22  1  0.83521059  0.50391728  0.16618196  1
  Cr  Cr23  1  0.66808340  0.33418853  0.33388603  1
  Ni  Ni24  1  0.66866625  0.66683029  0.00149267  1
  Ni  Ni25  1  0.83425203  0.83466665  0.16839954  1
  Ni  Ni26  1  0.66971137  0.66878327  0.33233094  1
  Ni  Ni27  1  0.16771446  0.16707152  0.50175557  1
  Ni  Ni28  1  0.00189711  0.00333350  0.66850753  1
  Ni  Ni29  1  0.16716479  0.16650062  0.83488609  1
  Ni  Ni30  1  0.16718960  0.50066972  0.50061240  1
  Ni  Ni31  1  0.99886708  0.33219775  0.66723130  1
  Cr  Cr32  1  0.16839597  0.50028157  0.83447989  1
  Ni  Ni33  1  0.16640113  0.83551869  0.49961203  1
  Cr  Cr34  1  1.00087685  0.66948023  0.66649943  1
  Ni  Ni35  1  0.16609809  0.83670728  0.83609924  1
  Ni  Ni36  1  0.50058160  0.16692411  0.50182606  1
  Ni  Ni37  1  0.33217794  0.00184448  0.66851156  1
  Ni  Ni38  1  0.50142630  0.16914135  0.83429500  1
  Cr  Cr39  1  0.50013854  0.50117735  0.50242429  1
  Fe  Fe40  1  0.33449711  0.33213988  0.66792236  1
  Ni  Ni41  1  0.50265522  0.49933642  0.83486773  1
  Cr  Cr42  1  0.50245972  0.83602665  0.49941287  1
  Ni  Ni43  1  0.33361352  0.66954793  0.66843900  1
  Cr  Cr44  1  0.50176397  0.83432863  0.83476679  1
  Ni  Ni45  1  0.83499493  0.16548424  0.50192023  1
  Ni  Ni46  1  0.66925775  0.00378050  0.66807867  1
  Ni  Ni47  1  0.83478228  0.16736794  0.83552465  1
  Ni  Ni48  1  0.83532509  0.50191684  0.50143439  1
  Ni  Ni49  1  0.67021093  0.33322539  0.66947951  1
  Ni  Ni50  1  0.83281815  0.50041729  0.83574569  1
  Ni  Ni51  1  0.83542493  0.83578718  0.50046190  1
  Ni  Ni52  1  0.66890467  0.66619932  0.66944493  1
  Ni  Ni53  1  0.83497604  0.83561964  0.83455743  1
" 