8356,Ni74Fe22Cr2_10,-241.460299892965, 208.430789328483,Ni74Fe22Cr2,"# generated using pymatgen
 data_Cr(Fe3Ni10)2
_symmetry_space_group_name_H-M   'P 1'
_cell_length_a   7.42428250
_cell_length_b   7.42428250
_cell_length_c   10.49952101
_cell_angle_alpha   90.00000000
_cell_angle_beta   90.00000000
_cell_angle_gamma   90.00000000
_symmetry_Int_Tables_number   1
_chemical_formula_structural   Cr(Fe3Ni10)2
_chemical_formula_sum   'Cr2 Fe12 Ni40'
_cell_volume   578.73329028
_cell_formula_units_Z   2
loop_
 _symmetry_equiv_pos_site_id
 _symmetry_equiv_pos_as_xyz
  1  'x, y, z'
loop_
 _atom_site_type_symbol
 _atom_site_label
 _atom_site_symmetry_multiplicity
 _atom_site_fract_x
 _atom_site_fract_y
 _atom_site_fract_z
 _atom_site_occupancy
  Ni  Ni0  1  0.99950170  0.00461427  1.00253055  1
  Fe  Fe1  1  0.16884075  0.17089554  0.16975956  1
  Ni  Ni2  1  1.00174899  0.00473635  0.33744350  1
  Ni  Ni3  1  1.00228200  0.33656023  0.00300385  1
  Fe  Fe4  1  0.17000245  0.50224705  0.17047736  1
  Ni  Ni5  1  1.00223628  0.33652761  0.33514220  1
  Ni  Ni6  1  0.00379839  0.66768726  0.00288155  1
  Cr  Cr7  1  0.16929030  0.83716729  0.17067420  1
  Ni  Ni8  1  1.00257771  0.66782074  0.33659834  1
  Fe  Fe9  1  0.33665842  0.00485704  1.00266695  1
  Ni  Ni10  1  0.50302094  0.17061846  0.16935633  1
  Ni  Ni11  1  0.33802877  0.00303554  0.33574812  1
  Fe  Fe12  1  0.33671456  0.33666760  1.00187153  1
  Ni  Ni13  1  0.50340238  0.50222410  0.17121831  1
  Fe  Fe14  1  0.33664816  0.33566290  0.33773957  1
  Ni  Ni15  1  0.33760562  0.66740861  1.00247628  1
  Ni  Ni16  1  0.50290326  0.83569681  0.16825567  1
  Ni  Ni17  1  0.33699387  0.66930298  0.33824157  1
  Ni  Ni18  1  0.66956253  0.00407464  0.00333336  1
  Ni  Ni19  1  0.83601447  0.17062862  0.17019773  1
  Ni  Ni20  1  0.66858520  0.00379097  0.33531493  1
  Ni  Ni21  1  0.66979998  0.33460453  1.00232779  1
  Ni  Ni22  1  0.83547988  0.50164986  0.16931014  1
  Ni  Ni23  1  0.67032197  0.33508345  0.33695944  1
  Fe  Fe24  1  0.67123974  0.66850045  0.00317930  1
  Ni  Ni25  1  0.83574218  0.83617354  0.16986529  1
  Ni  Ni26  1  0.66886497  0.66956889  0.33496564  1
  Ni  Ni27  1  0.16954132  0.17009062  0.50238928  1
  Fe  Fe28  1  1.00165055  0.00469059  0.66885509  1
  Ni  Ni29  1  0.16913249  0.17084206  0.83651818  1
  Ni  Ni30  1  0.16830436  0.50233960  0.50333098  1
  Ni  Ni31  1  0.00306420  0.33686957  0.67041947  1
  Fe  Fe32  1  0.16888225  0.50260870  0.83523843  1
  Fe  Fe33  1  0.16919907  0.83709785  0.50256746  1
  Ni  Ni34  1  1.00210174  0.66750890  0.66881430  1
  Cr  Cr35  1  0.16999225  0.83756982  0.83408285  1
  Ni  Ni36  1  0.50279663  0.16777201  0.50376058  1
  Ni  Ni37  1  0.33837079  0.00350761  0.66977791  1
  Fe  Fe38  1  0.50494843  0.16933619  0.83555589  1
  Fe  Fe39  1  0.50408559  0.50099649  0.50366696  1
  Ni  Ni40  1  0.33538499  0.33556576  0.67007453  1
  Ni  Ni41  1  0.50370036  0.50331768  0.83450456  1
  Ni  Ni42  1  0.50206430  0.83597024  0.50242238  1
  Ni  Ni43  1  0.33673109  0.66934860  0.66785527  1
  Ni  Ni44  1  0.50340214  0.83476105  0.83786668  1
  Ni  Ni45  1  0.83639849  0.17172240  0.50311254  1
  Ni  Ni46  1  0.66861826  1.00283077  0.66997096  1
  Ni  Ni47  1  0.83776846  0.17068261  0.83540520  1
  Ni  Ni48  1  0.83656933  0.50240249  0.50282526  1
  Ni  Ni49  1  0.67037345  0.33519348  0.66950363  1
  Ni  Ni50  1  0.83496938  0.50191368  0.83637221  1
  Fe  Fe51  1  0.83502361  0.83651773  0.50243510  1
  Ni  Ni52  1  0.66946808  0.67038984  0.67039906  1
  Ni  Ni53  1  0.83511740  0.83587282  0.83626066  1
" 