4176,Ni74Fe22Cr2_16,-241.260517284509, 206.704387452434,Ni74Fe22Cr2,"# generated using pymatgen
 data_Cr(Fe3Ni10)2
_symmetry_space_group_name_H-M   'P 1'
_cell_length_a   7.42431754
_cell_length_b   7.42431754
_cell_length_c   10.49957055
_cell_angle_alpha   90.00000000
_cell_angle_beta   90.00000000
_cell_angle_gamma   90.00000000
_symmetry_Int_Tables_number   1
_chemical_formula_structural   Cr(Fe3Ni10)2
_chemical_formula_sum   'Cr2 Fe12 Ni40'
_cell_volume   578.74148286
_cell_formula_units_Z   2
loop_
 _symmetry_equiv_pos_site_id
 _symmetry_equiv_pos_as_xyz
  1  'x, y, z'
loop_
 _atom_site_type_symbol
 _atom_site_label
 _atom_site_symmetry_multiplicity
 _atom_site_fract_x
 _atom_site_fract_y
 _atom_site_fract_z
 _atom_site_occupancy
  Ni  Ni0  1  1.00267161  1.00240210  0.00305362  1
  Ni  Ni1  1  0.17053486  0.16887916  0.16899056  1
  Ni  Ni2  1  1.00200117  1.00093506  0.33637728  1
  Fe  Fe3  1  1.00250271  0.33590605  0.00299536  1
  Fe  Fe4  1  0.17067793  0.50358681  0.16899760  1
  Cr  Cr5  1  1.00234337  0.33560235  0.33590627  1
  Ni  Ni6  1  0.00293867  0.67031227  1.00286885  1
  Fe  Fe7  1  0.16926123  0.83625796  0.16945970  1
  Ni  Ni8  1  0.00374581  0.67181690  0.33660136  1
  Ni  Ni9  1  0.33570215  0.00317597  0.00319268  1
  Ni  Ni10  1  0.50189928  0.17045270  0.16992345  1
  Fe  Fe11  1  0.33593439  0.00346931  0.33595751  1
  Ni  Ni12  1  0.33673340  0.33621061  0.00290674  1
  Ni  Ni13  1  0.50308496  0.50294762  0.16920358  1
  Ni  Ni14  1  0.33828399  0.33697080  0.33661598  1
  Ni  Ni15  1  0.33572602  0.66924602  1.00240713  1
  Ni  Ni16  1  0.50285481  0.83523283  0.17004874  1
  Ni  Ni17  1  0.33553017  0.66893339  0.33635859  1
  Ni  Ni18  1  0.67025835  0.00340990  1.00214156  1
  Ni  Ni19  1  0.83619800  0.16910821  0.16868977  1
  Ni  Ni20  1  0.67044664  0.00369492  0.33659082  1
  Ni  Ni21  1  0.66919541  0.33594211  0.00317317  1
  Ni  Ni22  1  0.83498795  0.50426801  0.16944589  1
  Ni  Ni23  1  0.66755731  0.33522134  0.33632394  1
  Ni  Ni24  1  0.66996911  0.66927952  0.00335714  1
  Ni  Ni25  1  0.83656342  0.83525814  0.16939215  1
  Fe  Fe26  1  0.66976782  0.66931689  0.33579535  1
  Ni  Ni27  1  0.16980214  0.16912081  0.50308209  1
  Ni  Ni28  1  1.00094327  0.00290064  0.66920000  1
  Ni  Ni29  1  0.16937603  0.16991744  0.83655908  1
  Fe  Fe30  1  0.17101250  0.50342738  0.50328468  1
  Fe  Fe31  1  1.00241180  0.33546167  0.66964215  1
  Fe  Fe32  1  0.16976774  0.50313857  0.83635209  1
  Ni  Ni33  1  0.16780754  0.83556328  0.50167172  1
  Fe  Fe34  1  1.00236058  0.67022040  0.66968193  1
  Ni  Ni35  1  0.16908150  0.83560621  0.83730395  1
  Ni  Ni36  1  0.50304684  0.17214409  0.50168020  1
  Cr  Cr37  1  0.33588764  0.00291200  0.66936476  1
  Ni  Ni38  1  0.50282567  0.17050660  0.83702810  1
  Ni  Ni39  1  0.50250039  0.50219447  0.50309211  1
  Ni  Ni40  1  0.33644319  0.33821556  0.66910820  1
  Fe  Fe41  1  0.50318537  0.50287319  0.83597611  1
  Fe  Fe42  1  0.50369418  0.83608565  0.50249082  1
  Ni  Ni43  1  0.33607943  0.66742477  0.66986628  1
  Ni  Ni44  1  0.50310008  0.83503357  0.83637231  1
  Ni  Ni45  1  0.83578308  0.16833422  0.50387316  1
  Ni  Ni46  1  0.67235478  0.00326641  0.66990330  1
  Ni  Ni47  1  0.83643119  0.16988856  0.83607037  1
  Fe  Fe48  1  0.83518279  0.50310485  0.50358184  1
  Ni  Ni49  1  0.66949901  0.33619181  0.66913465  1
  Ni  Ni50  1  0.83586165  0.50338433  0.83588617  1
  Ni  Ni51  1  0.83754749  0.83610558  0.50314373  1
  Ni  Ni52  1  0.66958761  0.66917540  0.66917262  1
  Ni  Ni53  1  0.83645234  0.83536193  0.83609917  1
" 