8711,Ni74Fe22Cr2_17,-241.445029513343, 208.766261851522,Ni74Fe22Cr2,"# generated using pymatgen
 data_Cr(Fe3Ni10)2
_symmetry_space_group_name_H-M   'P 1'
_cell_length_a   7.42561342
_cell_length_b   7.42561342
_cell_length_c   10.50140321
_cell_angle_alpha   90.00000000
_cell_angle_beta   90.00000000
_cell_angle_gamma   90.00000000
_symmetry_Int_Tables_number   1
_chemical_formula_structural   Cr(Fe3Ni10)2
_chemical_formula_sum   'Cr2 Fe12 Ni40'
_cell_volume   579.04458623
_cell_formula_units_Z   2
loop_
 _symmetry_equiv_pos_site_id
 _symmetry_equiv_pos_as_xyz
  1  'x, y, z'
loop_
 _atom_site_type_symbol
 _atom_site_label
 _atom_site_symmetry_multiplicity
 _atom_site_fract_x
 _atom_site_fract_y
 _atom_site_fract_z
 _atom_site_occupancy
  Ni  Ni0  1  1.00199752  0.00398528  0.00414013  1
  Ni  Ni1  1  0.17017357  0.16953339  0.16863722  1
  Ni  Ni2  1  1.00154300  1.00164035  0.33518501  1
  Ni  Ni3  1  1.00235732  0.33624399  1.00261919  1
  Ni  Ni4  1  0.16857151  0.50238458  0.16954674  1
  Fe  Fe5  1  1.00259750  0.33689802  0.33541007  1
  Ni  Ni6  1  0.00286875  0.66813665  0.00334944  1
  Ni  Ni7  1  0.16940315  0.83644490  0.16974732  1
  Ni  Ni8  1  0.00427863  0.66927235  0.33690249  1
  Ni  Ni9  1  0.33715962  1.00265461  0.00325198  1
  Ni  Ni10  1  0.50209750  0.16868603  0.16969079  1
  Ni  Ni11  1  0.33726631  1.00105739  0.33626667  1
  Fe  Fe12  1  0.33581682  0.33582520  1.00207545  1
  Fe  Fe13  1  0.50238951  0.50360137  0.16905282  1
  Fe  Fe14  1  0.33613675  0.33648247  0.33564049  1
  Ni  Ni15  1  0.33681919  0.66892478  0.00413943  1
  Ni  Ni16  1  0.50311607  0.83705523  0.16880581  1
  Ni  Ni17  1  0.33507016  0.66931047  0.33630045  1
  Ni  Ni18  1  0.66921416  0.00316986  1.00266811  1
  Fe  Fe19  1  0.83654120  0.16871021  0.16913249  1
  Ni  Ni20  1  0.66956630  0.00382055  0.33633683  1
  Ni  Ni21  1  0.67000406  0.33590925  1.00256724  1
  Ni  Ni22  1  0.83670770  0.50340592  0.16898799  1
  Fe  Fe23  1  0.66963323  0.33588078  0.33643161  1
  Ni  Ni24  1  0.66867728  0.66928909  1.00270086  1
  Ni  Ni25  1  0.83585274  0.83544831  0.16931528  1
  Fe  Fe26  1  0.66975479  0.67110043  0.33594933  1
  Cr  Cr27  1  0.16901560  0.16920414  0.50341972  1
  Ni  Ni28  1  1.00005385  0.00335262  0.66904284  1
  Ni  Ni29  1  0.16912465  0.17191623  0.83652713  1
  Ni  Ni30  1  0.16969627  0.50419383  0.50291208  1
  Ni  Ni31  1  1.00199640  0.33652534  0.66992367  1
  Ni  Ni32  1  0.16998482  0.50021783  0.83590827  1
  Ni  Ni33  1  0.16966008  0.83465742  0.50237032  1
  Fe  Fe34  1  1.00209718  0.66822241  0.66807815  1
  Cr  Cr35  1  0.16911370  0.83645779  0.83648868  1
  Fe  Fe36  1  0.50508765  0.16934769  0.50284450  1
  Fe  Fe37  1  0.33778934  0.00360276  0.66969302  1
  Ni  Ni38  1  0.50315695  0.16996899  0.83534669  1
  Ni  Ni39  1  0.50292648  0.50336416  0.50221063  1
  Ni  Ni40  1  0.33686180  0.33877370  0.67047446  1
  Ni  Ni41  1  0.50252296  0.50238964  0.83692499  1
  Ni  Ni42  1  0.50302856  0.83555765  0.50308460  1
  Ni  Ni43  1  0.33659639  0.66767176  0.66792691  1
  Ni  Ni44  1  0.50525706  0.83601205  0.83648330  1
  Ni  Ni45  1  0.83485246  0.16941714  0.50221328  1
  Ni  Ni46  1  0.67034114  0.00361299  0.66936044  1
  Ni  Ni47  1  0.83608985  0.16917704  0.83670002  1
  Ni  Ni48  1  0.83574793  0.50254274  0.50353184  1
  Ni  Ni49  1  0.66951413  0.33515252  0.66886083  1
  Fe  Fe50  1  0.83577618  0.50192389  0.83677269  1
  Ni  Ni51  1  0.83568310  0.83641217  0.50278609  1
  Fe  Fe52  1  0.66915584  0.66924031  0.66965227  1
  Ni  Ni53  1  0.83391264  0.83687108  0.83626865  1
" 