579,Ni74Fe22Cr2_7,-241.348831314221, 207.816281194894,Ni74Fe22Cr2,"# generated using pymatgen
 data_Cr(Fe3Ni10)2
_symmetry_space_group_name_H-M   'P 1'
_cell_length_a   7.42501317
_cell_length_b   7.42501317
_cell_length_c   10.50055433
_cell_angle_alpha   90.00000000
_cell_angle_beta   90.00000000
_cell_angle_gamma   90.00000000
_symmetry_Int_Tables_number   1
_chemical_formula_structural   Cr(Fe3Ni10)2
_chemical_formula_sum   'Cr2 Fe12 Ni40'
_cell_volume   578.90417675
_cell_formula_units_Z   2
loop_
 _symmetry_equiv_pos_site_id
 _symmetry_equiv_pos_as_xyz
  1  'x, y, z'
loop_
 _atom_site_type_symbol
 _atom_site_label
 _atom_site_symmetry_multiplicity
 _atom_site_fract_x
 _atom_site_fract_y
 _atom_site_fract_z
 _atom_site_occupancy
  Ni  Ni0  1  0.00358304  0.00438273  1.00233766  1
  Ni  Ni1  1  0.17082073  0.16875507  0.16985618  1
  Ni  Ni2  1  0.00390908  0.00426500  0.33711702  1
  Ni  Ni3  1  0.00359053  0.33691885  0.00375619  1
  Ni  Ni4  1  0.16763096  0.50265777  0.16892166  1
  Ni  Ni5  1  0.00382669  0.33693299  0.33556797  1
  Ni  Ni6  1  0.00321756  0.66719706  1.00224647  1
  Ni  Ni7  1  0.17024513  0.83708733  0.16870250  1
  Ni  Ni8  1  1.00274568  0.66730128  0.33673863  1
  Ni  Ni9  1  0.33696110  0.00331634  0.00381169  1
  Ni  Ni10  1  0.50185294  0.16778059  0.16903505  1
  Ni  Ni11  1  0.33699532  0.00394972  0.33533296  1
  Ni  Ni12  1  0.33440357  0.33542952  1.00152480  1
  Cr  Cr13  1  0.50318711  0.50220078  0.16992775  1
  Ni  Ni14  1  0.33440416  0.33457184  0.33760464  1
  Ni  Ni15  1  0.33583552  0.66974393  0.00314100  1
  Fe  Fe16  1  0.50075536  0.83787776  0.16974348  1
  Fe  Fe17  1  0.33418982  0.67105991  0.33719316  1
  Ni  Ni18  1  0.66794793  0.00294617  1.00231938  1
  Fe  Fe19  1  0.83736062  0.17110792  0.16998460  1
  Ni  Ni20  1  0.66758966  0.00287241  0.33709746  1
  Fe  Fe21  1  0.67014008  0.33589438  1.00161591  1
  Ni  Ni22  1  0.83755469  0.50246215  0.16864537  1
  Fe  Fe23  1  0.67099417  0.33468114  0.33761862  1
  Ni  Ni24  1  0.66943246  0.66975598  1.00081988  1
  Cr  Cr25  1  0.83699705  0.83531608  0.17030536  1
  Ni  Ni26  1  0.66994617  0.66988855  0.33821692  1
  Ni  Ni27  1  0.16989571  0.16892127  0.50265320  1
  Ni  Ni28  1  0.00313360  0.00362556  0.66903315  1
  Ni  Ni29  1  0.17016956  0.16930738  0.83598450  1
  Ni  Ni30  1  0.16865598  0.50308250  0.50275248  1
  Ni  Ni31  1  1.00261107  0.33650466  0.66916651  1
  Ni  Ni32  1  0.16979413  0.50213673  0.83682419  1
  Ni  Ni33  1  0.16988318  0.83649147  0.50323334  1
  Ni  Ni34  1  1.00279371  0.66836413  0.66950536  1
  Fe  Fe35  1  0.16898080  0.83519629  0.83618281  1
  Ni  Ni36  1  0.50302337  0.16829922  0.50327318  1
  Ni  Ni37  1  0.33650643  1.00279149  0.66934181  1
  Fe  Fe38  1  0.50289175  0.17006969  0.83630255  1
  Fe  Fe39  1  0.50257761  0.50264121  0.50343274  1
  Fe  Fe40  1  0.33579423  0.33615972  0.66961677  1
  Ni  Ni41  1  0.50335795  0.50299851  0.83555879  1
  Ni  Ni42  1  0.50307251  0.83707266  0.50224441  1
  Ni  Ni43  1  0.33650345  0.66953251  0.66894508  1
  Fe  Fe44  1  0.50296486  0.83504890  0.83571543  1
  Ni  Ni45  1  0.83557556  0.16952193  0.50271502  1
  Ni  Ni46  1  0.66885493  0.00297587  0.66906929  1
  Fe  Fe47  1  0.83690789  0.17014544  0.83538873  1
  Ni  Ni48  1  0.83615429  0.50313221  0.50285194  1
  Ni  Ni49  1  0.67002600  0.33650326  0.66916557  1
  Ni  Ni50  1  0.83533961  0.50462985  0.83699503  1
  Fe  Fe51  1  0.83653881  0.83671499  0.50307527  1
  Ni  Ni52  1  0.66919130  0.66901702  0.66945630  1
  Ni  Ni53  1  0.83553684  0.83561452  0.83518647  1
" 