6669,Ni74Fe22Cr2_5,-241.304267465172, 205.117078064834,Ni74Fe22Cr2,"# generated using pymatgen
 data_Cr(Fe3Ni10)2
_symmetry_space_group_name_H-M   'P 1'
_cell_length_a   7.42604689
_cell_length_b   7.42604689
_cell_length_c   10.50201623
_cell_angle_alpha   90.00000000
_cell_angle_beta   90.00000000
_cell_angle_gamma   90.00000000
_symmetry_Int_Tables_number   1
_chemical_formula_structural   Cr(Fe3Ni10)2
_chemical_formula_sum   'Cr2 Fe12 Ni40'
_cell_volume   579.14599776
_cell_formula_units_Z   2
loop_
 _symmetry_equiv_pos_site_id
 _symmetry_equiv_pos_as_xyz
  1  'x, y, z'
loop_
 _atom_site_type_symbol
 _atom_site_label
 _atom_site_symmetry_multiplicity
 _atom_site_fract_x
 _atom_site_fract_y
 _atom_site_fract_z
 _atom_site_occupancy
  Ni  Ni0  1  0.00381357  0.00443691  1.00223041  1
  Fe  Fe1  1  0.16898672  0.16887628  0.16895116  1
  Ni  Ni2  1  0.00366302  0.00464417  0.33675614  1
  Ni  Ni3  1  1.00210751  0.33540134  1.00223082  1
  Fe  Fe4  1  0.17093332  0.50277284  0.16937384  1
  Ni  Ni5  1  1.00195443  0.33496146  0.33662938  1
  Ni  Ni6  1  0.00524821  0.66844433  1.00130274  1
  Ni  Ni7  1  0.17071089  0.83582645  0.16925444  1
  Fe  Fe8  1  0.00483445  0.67038956  0.33803542  1
  Ni  Ni9  1  0.33623833  1.00132910  0.00337421  1
  Ni  Ni10  1  0.50288917  0.17029854  0.16926598  1
  Ni  Ni11  1  0.33617711  1.00071563  0.33590869  1
  Fe  Fe12  1  0.33657720  0.33616977  1.00235684  1
  Ni  Ni13  1  0.50055957  0.50155514  0.16968512  1
  Fe  Fe14  1  0.33663348  0.33527057  0.33601968  1
  Ni  Ni15  1  0.33624575  0.67010086  0.00305836  1
  Fe  Fe16  1  0.50107381  0.83650335  0.16924935  1
  Ni  Ni17  1  0.33611102  0.67034430  0.33557198  1
  Ni  Ni18  1  0.66823054  0.00447227  1.00226458  1
  Ni  Ni19  1  0.83537174  0.16926458  0.16920350  1
  Ni  Ni20  1  0.66844042  0.00475578  0.33665640  1
  Ni  Ni21  1  0.66989631  0.33541311  1.00216545  1
  Cr  Cr22  1  0.83595633  0.50136892  0.16908757  1
  Ni  Ni23  1  0.67010992  0.33489568  0.33662451  1
  Ni  Ni24  1  0.66679131  0.66839823  1.00133274  1
  Cr  Cr25  1  0.83718578  0.83825139  0.16942240  1
  Fe  Fe26  1  0.66771659  0.67008348  0.33773322  1
  Fe  Fe27  1  0.16889393  0.16798708  0.50318621  1
  Ni  Ni28  1  0.00331056  0.00350408  0.66929621  1
  Ni  Ni29  1  0.16939979  0.17009210  0.83588912  1
  Ni  Ni30  1  0.16926426  0.50372719  0.50188812  1
  Ni  Ni31  1  1.00169414  0.33622237  0.66942428  1
  Ni  Ni32  1  0.16916688  0.50268120  0.83721813  1
  Ni  Ni33  1  0.16903346  0.83463104  0.50320592  1
  Ni  Ni34  1  0.00368945  0.66855200  0.66914721  1
  Fe  Fe35  1  0.16953477  0.83616233  0.83628959  1
  Ni  Ni36  1  0.50365901  0.16909934  0.50283299  1
  Ni  Ni37  1  0.33623033  1.00149711  0.66899713  1
  Ni  Ni38  1  0.50269487  0.16927325  0.83618339  1
  Fe  Fe39  1  0.50300982  0.50360019  0.50273547  1
  Fe  Fe40  1  0.33602826  0.33615942  0.66990550  1
  Ni  Ni41  1  0.50233593  0.50290060  0.83590461  1
  Ni  Ni42  1  0.50268026  0.83685996  0.50159603  1
  Ni  Ni43  1  0.33615028  0.67025724  0.66965503  1
  Ni  Ni44  1  0.50337964  0.83610609  0.83692238  1
  Ni  Ni45  1  0.83516306  0.16886464  0.50214223  1
  Ni  Ni46  1  0.66874182  0.00349447  0.66935788  1
  Ni  Ni47  1  0.83618760  0.16904954  0.83693802  1
  Fe  Fe48  1  0.83616116  0.50271722  0.50338720  1
  Ni  Ni49  1  0.67044705  0.33614353  0.66949452  1
  Ni  Ni50  1  0.83677914  0.50336190  0.83602631  1
  Ni  Ni51  1  0.83656876  0.83666899  0.50231582  1
  Ni  Ni52  1  0.66844347  0.66864553  0.66914813  1
  Ni  Ni53  1  0.83596827  0.83587008  0.83624012  1
" 