147,Ni74Fe22Cr2_0,-241.471644442501, 208.927434837828,Ni74Fe22Cr2,"# generated using pymatgen
 data_Cr(Fe3Ni10)2
_symmetry_space_group_name_H-M   'P 1'
_cell_length_a   7.43025016
_cell_length_b   7.43025016
_cell_length_c   10.50796055
_cell_angle_alpha   90.00000000
_cell_angle_beta   90.00000000
_cell_angle_gamma   90.00000000
_symmetry_Int_Tables_number   1
_chemical_formula_structural   Cr(Fe3Ni10)2
_chemical_formula_sum   'Cr2 Fe12 Ni40'
_cell_volume   580.12997431
_cell_formula_units_Z   2
loop_
 _symmetry_equiv_pos_site_id
 _symmetry_equiv_pos_as_xyz
  1  'x, y, z'
loop_
 _atom_site_type_symbol
 _atom_site_label
 _atom_site_symmetry_multiplicity
 _atom_site_fract_x
 _atom_site_fract_y
 _atom_site_fract_z
 _atom_site_occupancy
  Fe  Fe0  1  0.00376272  1.00170309  1.00242482  1
  Ni  Ni1  1  0.17047781  0.16657045  0.16944384  1
  Ni  Ni2  1  1.00126862  1.00211884  0.33419901  1
  Fe  Fe3  1  0.00273574  0.33520476  1.00091587  1
  Cr  Cr4  1  0.16973987  0.50243314  0.16944644  1
  Fe  Fe5  1  1.00181449  0.33367927  0.33738784  1
  Ni  Ni6  1  1.00217393  0.66976488  1.00166294  1
  Ni  Ni7  1  0.16826802  0.83816660  0.16893057  1
  Fe  Fe8  1  1.00047073  0.66967344  0.33558419  1
  Ni  Ni9  1  0.33652522  0.00254569  0.00257066  1
  Ni  Ni10  1  0.50178246  0.16946376  0.16928516  1
  Ni  Ni11  1  0.33636098  0.00354512  0.33488659  1
  Ni  Ni12  1  0.33686149  0.33570793  1.00173055  1
  Ni  Ni13  1  0.50442548  0.50133201  0.16913992  1
  Ni  Ni14  1  0.33718650  0.33554204  0.33681577  1
  Ni  Ni15  1  0.33520131  0.66917480  1.00222731  1
  Fe  Fe16  1  0.50203998  0.83635044  0.16892632  1
  Fe  Fe17  1  0.33797860  0.66941833  0.33610171  1
  Ni  Ni18  1  0.66922116  0.00278176  0.00303272  1
  Fe  Fe19  1  0.83544914  0.16884746  0.16967349  1
  Ni  Ni20  1  0.66979923  0.00269546  0.33606355  1
  Fe  Fe21  1  0.66796682  0.33621231  1.00242483  1
  Ni  Ni22  1  0.83363588  0.50353970  0.16919156  1
  Ni  Ni23  1  0.66842049  0.33583599  0.33530557  1
  Fe  Fe24  1  0.66852113  0.66931177  0.00248108  1
  Ni  Ni25  1  0.83652768  0.83552369  0.16940399  1
  Fe  Fe26  1  0.66897949  0.66930783  0.33593464  1
  Ni  Ni27  1  0.16941329  0.17092416  0.50213438  1
  Ni  Ni28  1  1.00012893  1.00237543  0.67045327  1
  Ni  Ni29  1  0.16950863  0.16896332  0.83584839  1
  Ni  Ni30  1  0.16918070  0.50054533  0.50235342  1
  Ni  Ni31  1  0.00255797  0.33648712  0.66860807  1
  Ni  Ni32  1  0.16922771  0.50277953  0.83574397  1
  Cr  Cr33  1  0.16877977  0.83644404  0.50275553  1
  Ni  Ni34  1  0.00253702  0.66856609  0.66976403  1
  Ni  Ni35  1  0.16891711  0.83568557  0.83632756  1
  Ni  Ni36  1  0.50254919  0.16940803  0.50252982  1
  Fe  Fe37  1  0.33621736  0.00380228  0.67006461  1
  Ni  Ni38  1  0.50223714  0.16919014  0.83561309  1
  Ni  Ni39  1  0.50252934  0.50180658  0.50217146  1
  Ni  Ni40  1  0.33602897  0.33727595  0.66888285  1
  Ni  Ni41  1  0.50217243  0.50221010  0.83611832  1
  Ni  Ni42  1  0.50440378  0.83621503  0.50181260  1
  Ni  Ni43  1  0.33550438  0.66723378  0.67003933  1
  Ni  Ni44  1  0.50225752  0.83602930  0.83625034  1
  Ni  Ni45  1  0.83546528  0.16904954  0.50184929  1
  Ni  Ni46  1  0.67017346  0.00289813  0.66833243  1
  Ni  Ni47  1  0.83568401  0.16887844  0.83625474  1
  Ni  Ni48  1  0.83571863  0.50239712  0.50226332  1
  Ni  Ni49  1  0.66884163  0.33486797  0.66934566  1
  Ni  Ni50  1  0.83602727  0.50280028  0.83597126  1
  Ni  Ni51  1  0.83420312  0.83597939  0.50266030  1
  Fe  Fe52  1  0.66960061  0.66870216  0.66901233  1
  Ni  Ni53  1  0.83625415  0.83574898  0.83536306  1
" 