924,Ni74Fe22Cr2_4,-241.534966442883, 209.578012099617,Ni74Fe22Cr2,"# generated using pymatgen
 data_Cr(Fe3Ni10)2
_symmetry_space_group_name_H-M   'P 1'
_cell_length_a   7.42586884
_cell_length_b   7.42586884
_cell_length_c   10.50176443
_cell_angle_alpha   90.00000000
_cell_angle_beta   90.00000000
_cell_angle_gamma   90.00000000
_symmetry_Int_Tables_number   1
_chemical_formula_structural   Cr(Fe3Ni10)2
_chemical_formula_sum   'Cr2 Fe12 Ni40'
_cell_volume   579.10434173
_cell_formula_units_Z   2
loop_
 _symmetry_equiv_pos_site_id
 _symmetry_equiv_pos_as_xyz
  1  'x, y, z'
loop_
 _atom_site_type_symbol
 _atom_site_label
 _atom_site_symmetry_multiplicity
 _atom_site_fract_x
 _atom_site_fract_y
 _atom_site_fract_z
 _atom_site_occupancy
  Cr  Cr0  1  0.00288622  1.00125554  0.00295667  1
  Ni  Ni1  1  0.17067381  0.16940630  0.17020118  1
  Ni  Ni2  1  0.00368661  1.00237712  0.33658838  1
  Fe  Fe3  1  1.00243247  0.33798264  0.00328759  1
  Fe  Fe4  1  0.16867357  0.50298884  0.16913832  1
  Ni  Ni5  1  1.00228446  0.33678212  0.33611441  1
  Ni  Ni6  1  0.00302601  0.66832868  1.00242872  1
  Ni  Ni7  1  0.17086679  0.83555673  0.16980811  1
  Ni  Ni8  1  0.00337175  0.66915956  0.33601745  1
  Ni  Ni9  1  0.33667112  0.00393745  0.00356914  1
  Ni  Ni10  1  0.50271461  0.16841654  0.16900514  1
  Ni  Ni11  1  0.33573363  0.00293930  0.33570922  1
  Ni  Ni12  1  0.33747597  0.33625435  1.00270698  1
  Fe  Fe13  1  0.50345657  0.50261746  0.16869007  1
  Fe  Fe14  1  0.33560478  0.33480146  0.33623434  1
  Ni  Ni15  1  0.33475183  0.66812557  0.00320360  1
  Ni  Ni16  1  0.50211537  0.83695998  0.16920854  1
  Fe  Fe17  1  0.33543615  0.67011522  0.33600131  1
  Ni  Ni18  1  0.66833528  0.00424720  0.00333011  1
  Ni  Ni19  1  0.83492749  0.17076860  0.17043629  1
  Ni  Ni20  1  0.66889839  0.00402860  0.33617592  1
  Ni  Ni21  1  0.66812440  0.33653944  1.00242797  1
  Ni  Ni22  1  0.83632957  0.50275108  0.16897318  1
  Ni  Ni23  1  0.66947283  0.33596565  0.33626520  1
  Ni  Ni24  1  0.67053840  0.66753255  0.00364893  1
  Ni  Ni25  1  0.83533616  0.83480212  0.17007708  1
  Fe  Fe26  1  0.67051963  0.66960152  0.33588508  1
  Ni  Ni27  1  0.16950887  0.16846767  0.50297469  1
  Ni  Ni28  1  0.00384841  1.00165695  0.66889987  1
  Fe  Fe29  1  0.17036520  0.17001671  0.83541360  1
  Ni  Ni30  1  0.16916662  0.50375153  0.50235881  1
  Fe  Fe31  1  1.00163462  0.33580108  0.66871488  1
  Ni  Ni32  1  0.16900161  0.50389189  0.83645398  1
  Ni  Ni33  1  0.16970882  0.83609907  0.50280607  1
  Ni  Ni34  1  0.00284477  0.66983651  0.66987035  1
  Ni  Ni35  1  0.16873453  0.83457191  0.83570192  1
  Ni  Ni36  1  0.50324611  0.16933194  0.50280641  1
  Ni  Ni37  1  0.33459715  0.00408445  0.66904217  1
  Ni  Ni38  1  0.50352726  0.17072648  0.83650494  1
  Ni  Ni39  1  0.50327721  0.50257095  0.50290841  1
  Fe  Fe40  1  0.33685995  0.33594889  0.66967622  1
  Ni  Ni41  1  0.50279927  0.50090013  0.83648055  1
  Fe  Fe42  1  0.50242769  0.83673577  0.50267030  1
  Fe  Fe43  1  0.33542091  0.66919275  0.66907440  1
  Cr  Cr44  1  0.50250697  0.83680112  0.83662271  1
  Ni  Ni45  1  0.83555717  0.16986440  0.50227100  1
  Ni  Ni46  1  0.66987477  0.00442820  0.66881442  1
  Ni  Ni47  1  0.83438371  0.17045062  0.83560849  1
  Ni  Ni48  1  0.83587319  0.50238165  0.50314523  1
  Ni  Ni49  1  0.66855791  0.33671639  0.66962340  1
  Ni  Ni50  1  0.83651484  0.50256466  0.83619545  1
  Fe  Fe51  1  0.83677527  0.83621674  0.50313121  1
  Ni  Ni52  1  0.67098914  0.66717246  0.66846140  1
  Ni  Ni53  1  0.83737762  0.83530094  0.83540364  1
" 