59,Ni74Fe24Cr0_4,-242.014692033083, 209.593602086139,Ni74Fe24Cr0,"# generated using pymatgen
 data_CrFe13Ni40
_symmetry_space_group_name_H-M   'P 1'
_cell_length_a   7.42076285
_cell_length_b   7.42076285
_cell_length_c   10.49454347
_cell_angle_alpha   90.00000000
_cell_angle_beta   90.00000000
_cell_angle_gamma   90.00000000
_symmetry_Int_Tables_number   1
_chemical_formula_structural   CrFe13Ni40
_chemical_formula_sum   'Cr1 Fe13 Ni40'
_cell_volume   577.91059464
_cell_formula_units_Z   1
loop_
 _symmetry_equiv_pos_site_id
 _symmetry_equiv_pos_as_xyz
  1  'x, y, z'
loop_
 _atom_site_type_symbol
 _atom_site_label
 _atom_site_symmetry_multiplicity
 _atom_site_fract_x
 _atom_site_fract_y
 _atom_site_fract_z
 _atom_site_occupancy
  Ni  Ni0  1  1.00307037  0.00365350  1.00261767  1
  Ni  Ni1  1  0.17001032  0.16972009  0.17022758  1
  Ni  Ni2  1  0.00384404  1.00309225  0.33671368  1
  Ni  Ni3  1  1.00251321  0.33650409  1.00303011  1
  Ni  Ni4  1  0.16967939  0.50185685  0.16966977  1
  Ni  Ni5  1  1.00247628  0.33651168  0.33630141  1
  Fe  Fe6  1  0.00322538  0.66908338  1.00287154  1
  Fe  Fe7  1  0.17000836  0.83582390  0.17053558  1
  Ni  Ni8  1  1.00303884  0.66975200  0.33647465  1
  Ni  Ni9  1  0.33665430  1.00231347  1.00261959  1
  Fe  Fe10  1  0.50255186  0.17146857  0.16947563  1
  Ni  Ni11  1  0.33581044  1.00253188  0.33615773  1
  Ni  Ni12  1  0.33580122  0.33643393  0.00362545  1
  Ni  Ni13  1  0.50340314  0.50293928  0.16999439  1
  Ni  Ni14  1  0.33688616  0.33677871  0.33653215  1
  Ni  Ni15  1  0.33586697  0.67060474  0.00405107  1
  Fe  Fe16  1  0.50214669  0.83539461  0.16958316  1
  Ni  Ni17  1  0.33688474  0.67004281  0.33674683  1
  Ni  Ni18  1  0.66963205  0.00358974  1.00279785  1
  Fe  Fe19  1  0.83720192  0.17138411  0.16950226  1
  Fe  Fe20  1  0.66955733  1.00283124  0.33707046  1
  Ni  Ni21  1  0.67104163  0.33571912  0.00376024  1
  Ni  Ni22  1  0.83627335  0.50350103  0.16963022  1
  Ni  Ni23  1  0.66999297  0.33758674  0.33635898  1
  Fe  Fe24  1  0.67033897  0.67046282  0.00373492  1
  Fe  Fe25  1  0.83720076  0.83588937  0.16995573  1
  Ni  Ni26  1  0.66943228  0.66867741  0.33660530  1
  Fe  Fe27  1  0.16995249  0.16937595  0.50276741  1
  Ni  Ni28  1  0.00337269  0.00319858  0.67002421  1
  Ni  Ni29  1  0.17033255  0.16980758  0.83640196  1
  Ni  Ni30  1  0.16929711  0.50306537  0.50259274  1
  Ni  Ni31  1  1.00204036  0.33692293  0.67002440  1
  Ni  Ni32  1  0.16733931  0.50174874  0.83709395  1
  Ni  Ni33  1  0.16910097  0.83683733  0.50304351  1
  Ni  Ni34  1  0.00334670  0.66923524  0.67017049  1
  Fe  Fe35  1  0.17025711  0.83649302  0.83582820  1
  Ni  Ni36  1  0.50276290  0.16941645  0.50277691  1
  Ni  Ni37  1  0.33684197  1.00189563  0.67057921  1
  Ni  Ni38  1  0.50201405  0.16707518  0.83739066  1
  Ni  Ni39  1  0.50338478  0.50257611  0.50285165  1
  Fe  Fe40  1  0.33566722  0.33560459  0.66912170  1
  Cr  Cr41  1  0.50330383  0.50268594  0.83589650  1
  Ni  Ni42  1  0.50361744  0.83736203  0.50309482  1
  Ni  Ni43  1  0.33598181  0.67142384  0.66855550  1
  Ni  Ni44  1  0.50440383  0.83945105  0.83639586  1
  Fe  Fe45  1  0.83616666  0.17001254  0.50327919  1
  Ni  Ni46  1  0.66914144  0.00320347  0.66979309  1
  Fe  Fe47  1  0.83626852  0.16996983  0.83657407  1
  Ni  Ni48  1  0.83667326  0.50392089  0.50297846  1
  Ni  Ni49  1  0.67132940  0.33606085  0.66923582  1
  Ni  Ni50  1  0.83866570  0.50414001  0.83674840  1
  Ni  Ni51  1  0.83663749  0.83621869  0.50264459  1
  Ni  Ni52  1  0.67002892  0.67009336  0.66930528  1
  Ni  Ni53  1  0.83593287  0.83646180  0.83659179  1
" 