114,Ni74Fe12Cr12_14,-235.53572896647, 180.274776709994,Ni74Fe12Cr12,"# generated using pymatgen
 data_Cr4Fe3Ni20
_symmetry_space_group_name_H-M   'P 1'
_cell_length_a   7.45245090
_cell_length_b   7.45245090
_cell_length_c   10.53935714
_cell_angle_alpha   90.00000000
_cell_angle_beta   90.00000000
_cell_angle_gamma   90.00000000
_symmetry_Int_Tables_number   1
_chemical_formula_structural   Cr4Fe3Ni20
_chemical_formula_sum   'Cr8 Fe6 Ni40'
_cell_volume   585.34561329
_cell_formula_units_Z   2
loop_
 _symmetry_equiv_pos_site_id
 _symmetry_equiv_pos_as_xyz
  1  'x, y, z'
loop_
 _atom_site_type_symbol
 _atom_site_label
 _atom_site_symmetry_multiplicity
 _atom_site_fract_x
 _atom_site_fract_y
 _atom_site_fract_z
 _atom_site_occupancy
  Fe  Fe0  1  1.00052286  0.99956666  1.00065866  1
  Cr  Cr1  1  0.16629519  0.16735011  0.16771021  1
  Fe  Fe2  1  1.00033704  0.99946036  0.33594605  1
  Ni  Ni3  1  0.00424816  0.33630136  0.00191773  1
  Ni  Ni4  1  0.16666317  0.50322298  0.16605945  1
  Ni  Ni5  1  0.99711454  0.33468021  0.33411842  1
  Ni  Ni6  1  0.00129636  0.66849856  0.00136917  1
  Ni  Ni7  1  0.16809482  0.83248425  0.16721818  1
  Ni  Ni8  1  0.99976125  0.66884654  0.33354755  1
  Ni  Ni9  1  0.33496526  0.00187752  1.00024018  1
  Ni  Ni10  1  0.50245359  0.16555002  0.16672920  1
  Ni  Ni11  1  0.33510053  0.99836846  0.33604511  1
  Ni  Ni12  1  0.33227249  0.33256169  1.00077743  1
  Ni  Ni13  1  0.50099845  0.50330481  0.16731836  1
  Cr  Cr14  1  0.33642232  0.33358390  0.33397305  1
  Fe  Fe15  1  0.33315528  0.66714856  0.00297944  1
  Ni  Ni16  1  0.50108907  0.83404846  0.16760736  1
  Ni  Ni17  1  0.33472627  0.67155958  0.33234912  1
  Ni  Ni18  1  0.66632787  0.99888181  0.00310286  1
  Ni  Ni19  1  0.83362274  0.16705222  0.16833015  1
  Fe  Fe20  1  0.66738358  1.00069003  0.33427656  1
  Cr  Cr21  1  0.66643876  0.33332734  0.00356416  1
  Ni  Ni22  1  0.83531626  0.50182179  0.16843570  1
  Ni  Ni23  1  0.66959651  0.33425207  0.33421912  1
  Ni  Ni24  1  0.67016310  0.67119501  0.00344326  1
  Ni  Ni25  1  0.83371321  0.83403652  0.16672814  1
  Ni  Ni26  1  0.66841946  0.66762502  0.33436557  1
  Ni  Ni27  1  0.16646772  0.16527606  0.50234672  1
  Ni  Ni28  1  0.00131659  0.99967761  0.66728309  1
  Ni  Ni29  1  0.16911706  0.16870885  0.83400654  1
  Cr  Cr30  1  0.16673663  0.50155013  0.50115061  1
  Ni  Ni31  1  0.00240156  0.33320681  0.66689324  1
  Ni  Ni32  1  0.16759574  0.49983559  0.83485984  1
  Ni  Ni33  1  0.16803392  0.83596779  0.50141123  1
  Ni  Ni34  1  0.00100386  0.67004539  0.66792227  1
  Fe  Fe35  1  0.16604854  0.83437405  0.83406158  1
  Ni  Ni36  1  0.50180208  0.16654161  0.50270429  1
  Fe  Fe37  1  0.33360752  0.00197774  0.66636634  1
  Ni  Ni38  1  0.49764679  0.16609305  0.83358646  1
  Ni  Ni39  1  0.50348622  0.50244076  0.50235008  1
  Ni  Ni40  1  0.33443305  0.33243614  0.66838341  1
  Cr  Cr41  1  0.49896674  0.50091380  0.83309582  1
  Ni  Ni42  1  0.50094642  0.83390577  0.50086442  1
  Ni  Ni43  1  0.33310972  0.66806795  0.66697179  1
  Cr  Cr44  1  0.50304134  0.83540767  0.83418053  1
  Ni  Ni45  1  0.83463964  0.16786021  0.50107210  1
  Ni  Ni46  1  0.66805012  1.00094654  0.66625006  1
  Cr  Cr47  1  0.83495923  0.16514539  0.83400558  1
  Ni  Ni48  1  0.83259954  0.50081609  0.50154660  1
  Ni  Ni49  1  0.66605146  0.33274667  0.66485552  1
  Cr  Cr50  1  0.83641497  0.50363663  0.83225296  1
  Ni  Ni51  1  0.83391355  0.83422604  0.50190705  1
  Ni  Ni52  1  0.66878959  0.66926637  0.66506062  1
  Ni  Ni53  1  0.83520568  0.83451689  0.83446448  1
" 