5722,Ni74Fe24Cr0_8,-242.142946649798, 210.316998569888,Ni74Fe24Cr0,"# generated using pymatgen
 data_CrFe13Ni40
_symmetry_space_group_name_H-M   'P 1'
_cell_length_a   7.42089326
_cell_length_b   7.42089326
_cell_length_c   10.49472789
_cell_angle_alpha   90.00000000
_cell_angle_beta   90.00000000
_cell_angle_gamma   90.00000000
_symmetry_Int_Tables_number   1
_chemical_formula_structural   CrFe13Ni40
_chemical_formula_sum   'Cr1 Fe13 Ni40'
_cell_volume   577.94106327
_cell_formula_units_Z   1
loop_
 _symmetry_equiv_pos_site_id
 _symmetry_equiv_pos_as_xyz
  1  'x, y, z'
loop_
 _atom_site_type_symbol
 _atom_site_label
 _atom_site_symmetry_multiplicity
 _atom_site_fract_x
 _atom_site_fract_y
 _atom_site_fract_z
 _atom_site_occupancy
  Fe  Fe0  1  1.00279482  0.00468576  1.00237125  1
  Fe  Fe1  1  0.16934772  0.17035833  0.16947885  1
  Ni  Ni2  1  1.00211625  1.00212937  0.33613806  1
  Ni  Ni3  1  0.00336936  0.33705302  1.00213698  1
  Ni  Ni4  1  0.16937021  0.50306704  0.16923518  1
  Ni  Ni5  1  0.00370145  0.33678081  0.33706932  1
  Fe  Fe6  1  1.00266324  0.66926579  1.00304314  1
  Fe  Fe7  1  0.16932097  0.83630644  0.17008790  1
  Ni  Ni8  1  0.00370215  0.67041914  0.33651012  1
  Ni  Ni9  1  0.33657349  1.00180404  0.00376638  1
  Ni  Ni10  1  0.50317344  0.16905523  0.16980815  1
  Fe  Fe11  1  0.33696034  1.00297596  0.33630124  1
  Ni  Ni12  1  0.33536311  0.33738805  0.00377172  1
  Fe  Fe13  1  0.50401216  0.50263901  0.17006227  1
  Ni  Ni14  1  0.33650361  0.33762736  0.33611006  1
  Fe  Fe15  1  0.33705319  0.66939391  0.00353513  1
  Ni  Ni16  1  0.50317504  0.83779090  0.16894863  1
  Ni  Ni17  1  0.33617790  0.66925025  0.33643879  1
  Ni  Ni18  1  0.67004446  1.00180209  0.00375242  1
  Ni  Ni19  1  0.83531394  0.16994158  0.16910108  1
  Ni  Ni20  1  0.67029435  1.00245550  0.33637981  1
  Ni  Ni21  1  0.67059535  0.33672817  0.00384372  1
  Ni  Ni22  1  0.83770201  0.50306341  0.16987187  1
  Ni  Ni23  1  0.66912514  0.33604227  0.33633553  1
  Fe  Fe24  1  0.66961461  0.66925852  0.00346776  1
  Ni  Ni25  1  0.83589770  0.83632420  0.16982207  1
  Ni  Ni26  1  0.66945053  0.67083207  0.33666472  1
  Ni  Ni27  1  0.17033852  0.16996725  0.50286437  1
  Ni  Ni28  1  1.00226373  1.00204414  0.67096598  1
  Ni  Ni29  1  0.16846474  0.16908425  0.83706707  1
  Ni  Ni30  1  0.16979054  0.50316906  0.50394364  1
  Ni  Ni31  1  0.00376306  0.33678346  0.67012344  1
  Fe  Fe32  1  0.16875843  0.50227399  0.83639140  1
  Ni  Ni33  1  0.16971994  0.83619473  0.50217238  1
  Ni  Ni34  1  0.00376910  0.67050075  0.66964906  1
  Ni  Ni35  1  0.16909393  0.83692383  0.83703720  1
  Ni  Ni36  1  0.50284649  0.16997060  0.50290561  1
  Fe  Fe37  1  0.33445866  0.00326285  0.66917570  1
  Cr  Cr38  1  0.50307820  0.17093925  0.83603228  1
  Ni  Ni39  1  0.50278076  0.50254754  0.50206483  1
  Ni  Ni40  1  0.33574749  0.33805186  0.66944708  1
  Ni  Ni41  1  0.50337015  0.50394456  0.83747043  1
  Ni  Ni42  1  0.50284671  0.83681038  0.50384463  1
  Fe  Fe43  1  0.33602545  0.66933814  0.66891094  1
  Fe  Fe44  1  0.50381904  0.83553277  0.83697010  1
  Ni  Ni45  1  0.83614250  0.16989985  0.50342198  1
  Ni  Ni46  1  0.67106198  1.00202207  0.66919527  1
  Ni  Ni47  1  0.83834381  0.16994025  0.83680628  1
  Ni  Ni48  1  0.83675968  0.50316804  0.50272660  1
  Ni  Ni49  1  0.66981707  0.33654541  0.66914897  1
  Ni  Ni50  1  0.83599187  0.50331197  0.83673047  1
  Ni  Ni51  1  0.83676180  0.83625893  0.50272990  1
  Fe  Fe52  1  0.67097524  0.66892913  0.66930099  1
  Ni  Ni53  1  0.83772144  0.83607356  0.83677808  1
" 