4045,Ni74Fe12Cr12_4,-235.629529165414, 183.569953716739,Ni74Fe12Cr12,"# generated using pymatgen
 data_Cr4Fe3Ni20
_symmetry_space_group_name_H-M   'P 1'
_cell_length_a   7.44741591
_cell_length_b   7.44741591
_cell_length_c   10.53223658
_cell_angle_alpha   90.00000000
_cell_angle_beta   90.00000000
_cell_angle_gamma   90.00000000
_symmetry_Int_Tables_number   1
_chemical_formula_structural   Cr4Fe3Ni20
_chemical_formula_sum   'Cr8 Fe6 Ni40'
_cell_volume   584.16000889
_cell_formula_units_Z   2
loop_
 _symmetry_equiv_pos_site_id
 _symmetry_equiv_pos_as_xyz
  1  'x, y, z'
loop_
 _atom_site_type_symbol
 _atom_site_label
 _atom_site_symmetry_multiplicity
 _atom_site_fract_x
 _atom_site_fract_y
 _atom_site_fract_z
 _atom_site_occupancy
  Fe  Fe0  1  0.99960814  0.00312420  0.00156381  1
  Fe  Fe1  1  0.16679515  0.16910321  0.16765185  1
  Ni  Ni2  1  1.00078540  0.00213456  0.33498355  1
  Ni  Ni3  1  0.00329110  0.33589754  1.00084633  1
  Ni  Ni4  1  0.16839269  0.50030428  0.16777472  1
  Ni  Ni5  1  0.00220449  0.33495097  0.33496298  1
  Ni  Ni6  1  0.99889399  0.66514380  0.00180795  1
  Cr  Cr7  1  0.16712969  0.83379118  0.16763406  1
  Ni  Ni8  1  1.00016365  0.66720423  0.33504941  1
  Ni  Ni9  1  0.33621116  0.00454096  1.00004432  1
  Fe  Fe10  1  0.50222142  0.16864885  0.16875744  1
  Ni  Ni11  1  0.33415822  0.00364338  0.33687267  1
  Ni  Ni12  1  0.33219701  0.33417352  0.00184454  1
  Ni  Ni13  1  0.49970081  0.50076327  0.16915936  1
  Ni  Ni14  1  0.33283995  0.33345113  0.33242605  1
  Ni  Ni15  1  0.33482205  0.66570604  0.99918930  1
  Cr  Cr16  1  0.50194550  0.83394918  0.16808414  1
  Ni  Ni17  1  0.33292846  0.66743849  0.33645063  1
  Ni  Ni18  1  0.66825769  1.00031984  0.99997471  1
  Ni  Ni19  1  0.83572543  0.16751626  0.16901477  1
  Ni  Ni20  1  0.66868081  0.00167986  0.33542348  1
  Cr  Cr21  1  0.66859941  0.33519196  1.00016786  1
  Ni  Ni22  1  0.83580065  0.50041864  0.16995965  1
  Ni  Ni23  1  0.66907108  0.33352597  0.33450349  1
  Ni  Ni24  1  0.66994852  0.66905848  1.00076513  1
  Ni  Ni25  1  0.83501638  0.83635984  0.16777444  1
  Ni  Ni26  1  0.67048229  0.66857198  0.33387489  1
  Fe  Fe27  1  0.16658217  0.16833888  0.50127022  1
  Ni  Ni28  1  0.00228205  0.00137230  0.66792469  1
  Ni  Ni29  1  0.16641604  0.16846969  0.83588607  1
  Ni  Ni30  1  0.16589953  0.50187855  0.50032775  1
  Ni  Ni31  1  1.00110581  0.33558967  0.66834398  1
  Ni  Ni32  1  0.16676834  0.50053150  0.83569830  1
  Fe  Fe33  1  0.16651482  0.83506863  0.50092923  1
  Ni  Ni34  1  1.00109611  0.66735103  0.66686087  1
  Cr  Cr35  1  0.16730222  0.83457623  0.83493674  1
  Ni  Ni36  1  0.50212984  0.16651475  0.49884022  1
  Ni  Ni37  1  0.33366677  0.00137511  0.66685375  1
  Ni  Ni38  1  0.50066123  0.16719999  0.83577612  1
  Cr  Cr39  1  0.50209910  0.50002667  0.49918924  1
  Cr  Cr40  1  0.33396935  0.33219629  0.67019438  1
  Ni  Ni41  1  0.50012397  0.50179242  0.83574877  1
  Ni  Ni42  1  0.49916210  0.83661260  0.49952620  1
  Fe  Fe43  1  0.33324798  0.66843826  0.66759383  1
  Ni  Ni44  1  0.50003911  0.83513013  0.83621372  1
  Ni  Ni45  1  0.83567510  0.16866432  0.50139828  1
  Cr  Cr46  1  0.66697755  0.00195720  0.66854637  1
  Ni  Ni47  1  0.83677928  0.16821206  0.83365684  1
  Ni  Ni48  1  0.83792123  0.49918579  0.50008621  1
  Ni  Ni49  1  0.66999308  0.33391132  0.66890258  1
  Ni  Ni50  1  0.83693400  0.50030387  0.83389842  1
  Ni  Ni51  1  0.83606144  0.83603280  0.49847543  1
  Cr  Cr52  1  0.67051243  0.66825730  0.66975751  1
  Ni  Ni53  1  0.83538135  0.83557414  0.83777587  1
" 