5613,Ni74Fe22Cr2_1,-241.394089718688, 209.091676238439,Ni74Fe22Cr2,"# generated using pymatgen
 data_Cr(Fe3Ni10)2
_symmetry_space_group_name_H-M   'P 1'
_cell_length_a   7.42564594
_cell_length_b   7.42564594
_cell_length_c   10.50144919
_cell_angle_alpha   90.00000000
_cell_angle_beta   90.00000000
_cell_angle_gamma   90.00000000
_symmetry_Int_Tables_number   1
_chemical_formula_structural   Cr(Fe3Ni10)2
_chemical_formula_sum   'Cr2 Fe12 Ni40'
_cell_volume   579.05219347
_cell_formula_units_Z   2
loop_
 _symmetry_equiv_pos_site_id
 _symmetry_equiv_pos_as_xyz
  1  'x, y, z'
loop_
 _atom_site_type_symbol
 _atom_site_label
 _atom_site_symmetry_multiplicity
 _atom_site_fract_x
 _atom_site_fract_y
 _atom_site_fract_z
 _atom_site_occupancy
  Ni  Ni0  1  1.00247696  0.00326549  1.00201831  1
  Fe  Fe1  1  0.17070311  0.16979996  0.16998224  1
  Ni  Ni2  1  0.00326736  1.00078865  0.33555764  1
  Ni  Ni3  1  1.00221799  0.33608227  0.00402206  1
  Ni  Ni4  1  0.16988238  0.50388557  0.16921785  1
  Fe  Fe5  1  0.00502225  0.33579878  0.33508992  1
  Ni  Ni6  1  0.00288469  0.66898952  1.00119724  1
  Fe  Fe7  1  0.16935268  0.83557891  0.16929342  1
  Ni  Ni8  1  0.00341538  0.66993761  0.33783989  1
  Ni  Ni9  1  0.33640796  1.00254775  1.00251450  1
  Ni  Ni10  1  0.50329188  0.16922277  0.16935816  1
  Ni  Ni11  1  0.33601287  0.00279038  0.33771680  1
  Ni  Ni12  1  0.33606292  0.33626390  1.00123352  1
  Ni  Ni13  1  0.50123760  0.50230444  0.16818195  1
  Ni  Ni14  1  0.33724184  0.33666133  0.33763562  1
  Ni  Ni15  1  0.33585470  0.66977454  0.00330703  1
  Ni  Ni16  1  0.50239629  0.83697702  0.17013985  1
  Ni  Ni17  1  0.33466587  0.66908789  0.33579453  1
  Ni  Ni18  1  0.66943384  0.00328449  1.00258079  1
  Ni  Ni19  1  0.83559188  0.16847810  0.16959235  1
  Ni  Ni20  1  0.66920109  0.00315021  0.33569222  1
  Ni  Ni21  1  0.67029364  0.33578686  1.00228890  1
  Ni  Ni22  1  0.83740452  0.50309438  0.17052675  1
  Ni  Ni23  1  0.66806014  0.33659171  0.33546840  1
  Ni  Ni24  1  0.66933573  0.66911980  0.00285128  1
  Ni  Ni25  1  0.83692144  0.83687604  0.16805386  1
  Fe  Fe26  1  0.66892236  0.67041892  0.33531988  1
  Ni  Ni27  1  0.17084581  0.16916228  0.50344427  1
  Fe  Fe28  1  1.00233868  1.00195896  0.67012345  1
  Fe  Fe29  1  0.16973730  0.17074477  0.83621425  1
  Ni  Ni30  1  0.16974857  0.50284855  0.50249650  1
  Ni  Ni31  1  0.00394862  0.33614421  0.66898742  1
  Ni  Ni32  1  0.16816657  0.50348115  0.83667846  1
  Ni  Ni33  1  0.16737732  0.83635017  0.50167195  1
  Fe  Fe34  1  1.00046804  0.66878671  0.66945304  1
  Ni  Ni35  1  0.16862223  0.83610204  0.83739723  1
  Ni  Ni36  1  0.50229040  0.17030827  0.50331361  1
  Fe  Fe37  1  0.33694038  0.00446147  0.66975096  1
  Ni  Ni38  1  0.50465904  0.16901264  0.83594454  1
  Ni  Ni39  1  0.50287122  0.50157473  0.50159679  1
  Fe  Fe40  1  0.33813394  0.33569608  0.66954041  1
  Ni  Ni41  1  0.50339536  0.50245862  0.83804585  1
  Fe  Fe42  1  0.50291608  0.83738009  0.50180833  1
  Cr  Cr43  1  0.33572838  0.66974759  0.66945899  1
  Ni  Ni44  1  0.50223176  0.83711530  0.83683121  1
  Cr  Cr45  1  0.83475945  0.16812362  0.50093367  1
  Ni  Ni46  1  0.66886748  1.00242285  0.67014685  1
  Ni  Ni47  1  0.83583853  0.16937608  0.83679456  1
  Fe  Fe48  1  0.83622847  0.50308663  0.50309003  1
  Ni  Ni49  1  0.67016404  0.33646701  0.67050992  1
  Ni  Ni50  1  0.83674723  0.50130620  0.83541641  1
  Ni  Ni51  1  0.83662595  0.83550745  0.50360393  1
  Ni  Ni52  1  0.66917818  0.66932502  0.66833044  1
  Fe  Fe53  1  0.83415004  0.83503267  0.83648043  1
" 