2435,Ni74Fe22Cr2_18,-241.628019443563, 209.675639126672,Ni74Fe22Cr2,"# generated using pymatgen
 data_Cr(Fe3Ni10)2
_symmetry_space_group_name_H-M   'P 1'
_cell_length_a   7.42713687
_cell_length_b   7.42713687
_cell_length_c   10.50355769
_cell_angle_alpha   90.00000000
_cell_angle_beta   90.00000000
_cell_angle_gamma   90.00000000
_symmetry_Int_Tables_number   1
_chemical_formula_structural   Cr(Fe3Ni10)2
_chemical_formula_sum   'Cr2 Fe12 Ni40'
_cell_volume   579.40105220
_cell_formula_units_Z   2
loop_
 _symmetry_equiv_pos_site_id
 _symmetry_equiv_pos_as_xyz
  1  'x, y, z'
loop_
 _atom_site_type_symbol
 _atom_site_label
 _atom_site_symmetry_multiplicity
 _atom_site_fract_x
 _atom_site_fract_y
 _atom_site_fract_z
 _atom_site_occupancy
  Ni  Ni0  1  1.00266361  0.00275591  0.00303802  1
  Ni  Ni1  1  0.17033611  0.16893354  0.16907682  1
  Ni  Ni2  1  0.00368786  1.00225126  0.33515411  1
  Ni  Ni3  1  0.00500649  0.33678615  0.00324894  1
  Ni  Ni4  1  0.16948286  0.50324498  0.17030186  1
  Ni  Ni5  1  0.00374010  0.33691481  0.33524186  1
  Ni  Ni6  1  1.00097127  0.66844028  0.00281217  1
  Ni  Ni7  1  0.16971882  0.83608628  0.16873926  1
  Ni  Ni8  1  0.00355095  0.66881336  0.33594044  1
  Ni  Ni9  1  0.33625505  0.00429672  1.00220700  1
  Ni  Ni10  1  0.50261256  0.16873582  0.16953367  1
  Ni  Ni11  1  0.33579708  0.00379171  0.33578898  1
  Ni  Ni12  1  0.33490586  0.33582978  0.00303585  1
  Fe  Fe13  1  0.50196413  0.50061539  0.16896052  1
  Ni  Ni14  1  0.33520792  0.33562923  0.33621443  1
  Fe  Fe15  1  0.33395922  0.66955156  1.00199556  1
  Fe  Fe16  1  0.50187388  0.83785872  0.16892078  1
  Fe  Fe17  1  0.33369271  0.66938335  0.33785806  1
  Ni  Ni18  1  0.66888198  1.00054887  0.00370223  1
  Ni  Ni19  1  0.83517540  0.16896260  0.16933216  1
  Ni  Ni20  1  0.66863587  0.00329159  0.33599382  1
  Fe  Fe21  1  0.67093739  0.33481129  0.00298434  1
  Ni  Ni22  1  0.83657559  0.50213276  0.16764850  1
  Ni  Ni23  1  0.66880699  0.33567898  0.33524525  1
  Ni  Ni24  1  0.66970241  0.66977638  1.00235141  1
  Ni  Ni25  1  0.83657589  0.83676697  0.16906614  1
  Cr  Cr26  1  0.67082537  0.66929967  0.33630746  1
  Ni  Ni27  1  0.16948881  0.16871977  0.50284862  1
  Ni  Ni28  1  0.00450958  0.00292545  0.66994118  1
  Ni  Ni29  1  0.16984760  0.16970502  0.83609360  1
  Ni  Ni30  1  0.16921570  0.50238929  0.50290382  1
  Ni  Ni31  1  0.00367566  0.33635575  0.66954612  1
  Ni  Ni32  1  0.16944523  0.50190570  0.83495769  1
  Ni  Ni33  1  0.17106995  0.83708152  0.50399129  1
  Ni  Ni34  1  1.00248090  0.66865633  0.66932753  1
  Fe  Fe35  1  0.16642060  0.83588298  0.83592698  1
  Fe  Fe36  1  0.50040232  0.17147838  0.50112956  1
  Ni  Ni37  1  0.33494471  0.00364554  0.67011670  1
  Fe  Fe38  1  0.50284725  0.17102825  0.83752516  1
  Ni  Ni39  1  0.50275467  0.50280301  0.50399508  1
  Ni  Ni40  1  0.33546002  0.33564219  0.66891117  1
  Fe  Fe41  1  0.50299730  0.50185876  0.83521946  1
  Ni  Ni42  1  0.50066377  0.83635036  0.50258951  1
  Ni  Ni43  1  0.33600300  0.66895076  0.66939149  1
  Fe  Fe44  1  0.50197215  0.83506607  0.83598785  1
  Fe  Fe45  1  0.83802627  0.17121758  0.50154791  1
  Cr  Cr46  1  0.66924893  0.00271659  0.66748788  1
  Ni  Ni47  1  0.83706781  0.16970156  0.83704795  1
  Ni  Ni48  1  0.83599025  0.50093941  0.50452544  1
  Ni  Ni49  1  0.66894185  0.33760642  0.66989442  1
  Ni  Ni50  1  0.83598062  0.50305365  0.83581831  1
  Fe  Fe51  1  0.83962786  0.83468622  0.50261894  1
  Ni  Ni52  1  0.66952745  0.66831729  0.66917972  1
  Ni  Ni53  1  0.83493457  0.83521641  0.83586518  1
" 