1994,Ni74Fe24Cr0_3,-242.249295085793, 212.612354603389,Ni74Fe24Cr0,"# generated using pymatgen
 data_CrFe13Ni40
_symmetry_space_group_name_H-M   'P 1'
_cell_length_a   7.41909995
_cell_length_b   7.41909995
_cell_length_c   10.49219177
_cell_angle_alpha   90.00000000
_cell_angle_beta   90.00000000
_cell_angle_gamma   90.00000000
_symmetry_Int_Tables_number   1
_chemical_formula_structural   CrFe13Ni40
_chemical_formula_sum   'Cr1 Fe13 Ni40'
_cell_volume   577.52217419
_cell_formula_units_Z   1
loop_
 _symmetry_equiv_pos_site_id
 _symmetry_equiv_pos_as_xyz
  1  'x, y, z'
loop_
 _atom_site_type_symbol
 _atom_site_label
 _atom_site_symmetry_multiplicity
 _atom_site_fract_x
 _atom_site_fract_y
 _atom_site_fract_z
 _atom_site_occupancy
  Ni  Ni0  1  1.00311076  1.00262565  1.00271793  1
  Ni  Ni1  1  0.16926855  0.17098683  0.16904804  1
  Ni  Ni2  1  0.00346093  0.00377909  0.33645749  1
  Ni  Ni3  1  0.00354079  0.33737569  1.00306028  1
  Ni  Ni4  1  0.16878742  0.50252333  0.17029414  1
  Fe  Fe5  1  1.00298926  0.33554125  0.33618394  1
  Ni  Ni6  1  0.00361113  0.66927374  0.00509433  1
  Fe  Fe7  1  0.17093445  0.83750270  0.17034041  1
  Fe  Fe8  1  1.00261321  0.67132928  0.33725423  1
  Ni  Ni9  1  0.33709223  1.00305809  0.00373650  1
  Ni  Ni10  1  0.50329338  0.16804145  0.16947093  1
  Ni  Ni11  1  0.33613517  1.00274209  0.33594062  1
  Ni  Ni12  1  0.33557684  0.33620092  1.00312081  1
  Cr  Cr13  1  0.50090024  0.50453240  0.16846695  1
  Fe  Fe14  1  0.33711034  0.33503643  0.33736025  1
  Ni  Ni15  1  0.33451236  0.67012046  1.00132792  1
  Ni  Ni16  1  0.50468366  0.83769569  0.16975008  1
  Ni  Ni17  1  0.33570096  0.67018146  0.33874376  1
  Ni  Ni18  1  0.66988721  0.00375610  0.00351484  1
  Ni  Ni19  1  0.83761770  0.16778874  0.16882766  1
  Ni  Ni20  1  0.67042938  0.00393779  0.33745984  1
  Fe  Fe21  1  0.67036268  0.33533451  1.00244100  1
  Fe  Fe22  1  0.83679517  0.50221842  0.17020602  1
  Ni  Ni23  1  0.67092732  0.33581288  0.33691863  1
  Fe  Fe24  1  0.67035196  0.67228607  1.00175093  1
  Ni  Ni25  1  0.83601375  0.83772509  0.16984097  1
  Ni  Ni26  1  0.66993697  0.66952220  0.33743081  1
  Ni  Ni27  1  0.16926740  0.16987207  0.50359259  1
  Ni  Ni28  1  0.00349329  1.00181439  0.67058969  1
  Fe  Fe29  1  0.17035868  0.16939074  0.83682436  1
  Ni  Ni30  1  0.16990407  0.50234882  0.50372178  1
  Fe  Fe31  1  1.00223089  0.33612724  0.67045059  1
  Ni  Ni32  1  0.16999969  0.50128225  0.83598532  1
  Ni  Ni33  1  0.16963047  0.83725112  0.50392988  1
  Ni  Ni34  1  1.00264580  0.66928804  0.66894714  1
  Fe  Fe35  1  0.16940685  0.83428389  0.83599178  1
  Ni  Ni36  1  0.50310099  0.16964817  0.50286835  1
  Ni  Ni37  1  0.33621660  0.00468579  0.66977963  1
  Fe  Fe38  1  0.50350269  0.17047921  0.83606153  1
  Ni  Ni39  1  0.50317994  0.50335537  0.50405456  1
  Ni  Ni40  1  0.33710972  0.33663875  0.66885361  1
  Ni  Ni41  1  0.50227642  0.50392500  0.83676676  1
  Ni  Ni42  1  0.50380656  0.83674019  0.50338117  1
  Fe  Fe43  1  0.33763796  0.67081765  0.66984380  1
  Ni  Ni44  1  0.50448449  0.83757627  0.83630220  1
  Ni  Ni45  1  0.83723573  0.16942444  0.50441648  1
  Ni  Ni46  1  0.66994684  0.00357869  0.66824522  1
  Fe  Fe47  1  0.83569658  0.17017401  0.83628935  1
  Ni  Ni48  1  0.83685994  0.50283749  0.50272276  1
  Ni  Ni49  1  0.66908321  0.33792852  0.67019313  1
  Ni  Ni50  1  0.83753121  0.50452814  0.83820481  1
  Ni  Ni51  1  0.83632962  0.83724875  0.50369009  1
  Ni  Ni52  1  0.67167235  0.66887805  0.66987532  1
  Ni  Ni53  1  0.83624196  0.83744237  0.83615255  1
" 