4534,Ni74Fe22Cr2_14,-241.402856072111, 207.752647606455,Ni74Fe22Cr2,"# generated using pymatgen
 data_Cr(Fe3Ni10)2
_symmetry_space_group_name_H-M   'P 1'
_cell_length_a   7.42560392
_cell_length_b   7.42560392
_cell_length_c   10.50138977
_cell_angle_alpha   90.00000000
_cell_angle_beta   90.00000000
_cell_angle_gamma   90.00000000
_symmetry_Int_Tables_number   1
_chemical_formula_structural   Cr(Fe3Ni10)2
_chemical_formula_sum   'Cr2 Fe12 Ni40'
_cell_volume   579.04236402
_cell_formula_units_Z   2
loop_
 _symmetry_equiv_pos_site_id
 _symmetry_equiv_pos_as_xyz
  1  'x, y, z'
loop_
 _atom_site_type_symbol
 _atom_site_label
 _atom_site_symmetry_multiplicity
 _atom_site_fract_x
 _atom_site_fract_y
 _atom_site_fract_z
 _atom_site_occupancy
  Ni  Ni0  1  0.00393539  1.00231192  1.00221429  1
  Ni  Ni1  1  0.16830242  0.16771267  0.16964437  1
  Ni  Ni2  1  1.00252985  1.00166960  0.33678716  1
  Ni  Ni3  1  0.00330436  0.33584059  1.00261992  1
  Fe  Fe4  1  0.16943906  0.50278335  0.16902201  1
  Fe  Fe5  1  0.00292247  0.33440185  0.33543411  1
  Ni  Ni6  1  0.00333570  0.67021804  1.00216916  1
  Ni  Ni7  1  0.17034859  0.83741067  0.16907541  1
  Ni  Ni8  1  0.00332010  0.67145151  0.33539025  1
  Fe  Fe9  1  0.33399518  1.00244557  0.00307341  1
  Fe  Fe10  1  0.50202164  0.17061643  0.17078511  1
  Ni  Ni11  1  0.33606363  0.00373584  0.33604082  1
  Ni  Ni12  1  0.33628595  0.33664874  1.00188530  1
  Ni  Ni13  1  0.50474704  0.50398906  0.16954522  1
  Ni  Ni14  1  0.33696481  0.33559842  0.33714545  1
  Ni  Ni15  1  0.33575748  0.66891089  0.00290384  1
  Ni  Ni16  1  0.50106582  0.83419685  0.17071965  1
  Fe  Fe17  1  0.33669092  0.67006419  0.33620578  1
  Cr  Cr18  1  0.67018763  0.00303394  0.00323805  1
  Ni  Ni19  1  0.83769930  0.17139645  0.17070766  1
  Ni  Ni20  1  0.66977867  0.00301751  0.33682203  1
  Ni  Ni21  1  0.66878012  0.33725002  1.00242129  1
  Ni  Ni22  1  0.83448486  0.50194543  0.16909745  1
  Ni  Ni23  1  0.66736528  0.33481166  0.33523758  1
  Ni  Ni24  1  0.66927780  0.66828409  1.00193189  1
  Fe  Fe25  1  0.83705690  0.83511746  0.17012360  1
  Ni  Ni26  1  0.66943665  0.67054741  0.33566556  1
  Ni  Ni27  1  0.16933317  0.16833377  0.50258389  1
  Fe  Fe28  1  0.00337859  0.00347334  0.66962862  1
  Ni  Ni29  1  0.16904587  0.16881576  0.83614399  1
  Ni  Ni30  1  0.17119804  0.50359304  0.50190763  1
  Ni  Ni31  1  0.00367141  0.33546718  0.66994531  1
  Ni  Ni32  1  0.16914495  0.50319362  0.83639809  1
  Ni  Ni33  1  0.16983351  0.83645015  0.50252547  1
  Ni  Ni34  1  0.00447041  0.67070582  0.67081000  1
  Ni  Ni35  1  0.16962387  0.83636496  0.83676882  1
  Ni  Ni36  1  0.50309665  0.16970588  0.50172907  1
  Fe  Fe37  1  0.33551923  0.00336413  0.66919244  1
  Ni  Ni38  1  0.50225332  0.17046655  0.83616395  1
  Ni  Ni39  1  0.50176226  0.50275395  0.50262244  1
  Ni  Ni40  1  0.33659707  0.33654923  0.66933757  1
  Ni  Ni41  1  0.50378214  0.50316608  0.83620169  1
  Fe  Fe42  1  0.50211391  0.83651890  0.50227406  1
  Ni  Ni43  1  0.33521740  0.66903718  0.66866236  1
  Ni  Ni44  1  0.50165000  0.83473548  0.83521614  1
  Ni  Ni45  1  0.83594033  0.16832804  0.50246734  1
  Fe  Fe46  1  0.66947602  0.00370216  0.66962046  1
  Ni  Ni47  1  0.83706884  0.17094695  0.83520557  1
  Cr  Cr48  1  0.83542429  0.50166740  0.50284988  1
  Ni  Ni49  1  0.66810414  0.33416265  0.67071551  1
  Ni  Ni50  1  0.83544348  0.50258597  0.83665110  1
  Fe  Fe51  1  0.83687721  0.83773304  0.50250915  1
  Fe  Fe52  1  0.66847357  0.66862345  0.67086265  1
  Ni  Ni53  1  0.83709475  0.83483722  0.83579249  1
" 