7018,Ni74Fe24Cr0_19,-242.185667079584, 210.519262728977,Ni74Fe24Cr0,"# generated using pymatgen
 data_CrFe13Ni40
_symmetry_space_group_name_H-M   'P 1'
_cell_length_a   7.41965110
_cell_length_b   7.41965110
_cell_length_c   10.49297121
_cell_angle_alpha   90.00000000
_cell_angle_beta   90.00000000
_cell_angle_gamma   90.00000000
_symmetry_Int_Tables_number   1
_chemical_formula_structural   CrFe13Ni40
_chemical_formula_sum   'Cr1 Fe13 Ni40'
_cell_volume   577.65089221
_cell_formula_units_Z   1
loop_
 _symmetry_equiv_pos_site_id
 _symmetry_equiv_pos_as_xyz
  1  'x, y, z'
loop_
 _atom_site_type_symbol
 _atom_site_label
 _atom_site_symmetry_multiplicity
 _atom_site_fract_x
 _atom_site_fract_y
 _atom_site_fract_z
 _atom_site_occupancy
  Ni  Ni0  1  0.00368756  0.00408654  0.00350267  1
  Ni  Ni1  1  0.16909985  0.17052014  0.16931421  1
  Ni  Ni2  1  1.00284558  1.00309542  0.33649260  1
  Ni  Ni3  1  1.00291260  0.33627934  1.00216673  1
  Ni  Ni4  1  0.17026206  0.50205056  0.17047809  1
  Ni  Ni5  1  0.00337695  0.33608472  0.33697493  1
  Ni  Ni6  1  1.00230563  0.66921401  0.00397050  1
  Fe  Fe7  1  0.16893052  0.83602752  0.17009460  1
  Ni  Ni8  1  0.00398104  0.67040297  0.33646338  1
  Ni  Ni9  1  0.33669993  0.00405369  0.00355106  1
  Fe  Fe10  1  0.50388078  0.17067974  0.16947704  1
  Fe  Fe11  1  0.33628104  1.00301604  0.33620407  1
  Fe  Fe12  1  0.33531035  0.33640533  0.00360310  1
  Ni  Ni13  1  0.50293612  0.50448193  0.16939922  1
  Ni  Ni14  1  0.33707763  0.33732239  0.33643808  1
  Fe  Fe15  1  0.33719101  0.66888399  0.00415953  1
  Ni  Ni16  1  0.50350076  0.83547658  0.16997680  1
  Ni  Ni17  1  0.33652949  0.66922638  0.33592189  1
  Fe  Fe18  1  0.67091486  1.00272581  1.00278963  1
  Ni  Ni19  1  0.83791607  0.16995510  0.16983674  1
  Ni  Ni20  1  0.67030766  0.00364129  0.33599708  1
  Ni  Ni21  1  0.66976574  0.33711959  0.00338777  1
  Ni  Ni22  1  0.83638114  0.50298591  0.17027536  1
  Ni  Ni23  1  0.66913107  0.33618704  0.33638880  1
  Ni  Ni24  1  0.66973491  0.66901223  1.00187544  1
  Ni  Ni25  1  0.83548170  0.83664029  0.16990879  1
  Ni  Ni26  1  0.66906841  0.66975553  0.33764137  1
  Ni  Ni27  1  0.16916963  0.16918946  0.50369136  1
  Ni  Ni28  1  1.00202134  0.00335248  0.66958702  1
  Ni  Ni29  1  0.16995235  0.17214333  0.83657652  1
  Fe  Fe30  1  0.16955966  0.50441286  0.50285089  1
  Fe  Fe31  1  1.00259628  0.33628099  0.67026310  1
  Ni  Ni32  1  0.16941859  0.50080610  0.83612616  1
  Ni  Ni33  1  0.17065940  0.83757639  0.50238916  1
  Ni  Ni34  1  0.00401243  0.67005465  0.66914926  1
  Cr  Cr35  1  0.16988952  0.83690020  0.83737910  1
  Fe  Fe36  1  0.50450901  0.16973840  0.50364102  1
  Fe  Fe37  1  0.33737917  0.00348414  0.66977326  1
  Ni  Ni38  1  0.50300312  0.16923116  0.83659739  1
  Ni  Ni39  1  0.50370777  0.50432154  0.50327354  1
  Fe  Fe40  1  0.33618562  0.33626965  0.66969361  1
  Fe  Fe41  1  0.50392255  0.50269144  0.83639298  1
  Ni  Ni42  1  0.50264970  0.83526651  0.50340337  1
  Ni  Ni43  1  0.33647069  0.66891302  0.66973554  1
  Ni  Ni44  1  0.50506436  0.83684127  0.83620278  1
  Ni  Ni45  1  0.83777747  0.17024797  0.50307911  1
  Ni  Ni46  1  0.67027293  0.00445445  0.67122793  1
  Ni  Ni47  1  0.83662460  0.17040687  0.83666715  1
  Ni  Ni48  1  0.83546501  0.50282975  0.50241079  1
  Ni  Ni49  1  0.66913176  0.33535723  0.66980399  1
  Ni  Ni50  1  0.83683752  0.50286666  0.83689388  1
  Ni  Ni51  1  0.83627531  0.83650586  0.50339984  1
  Fe  Fe52  1  0.67048156  0.67069373  0.66970327  1
  Ni  Ni53  1  0.83392739  0.83630901  0.83627370  1
" 