1133,Ni74Fe24Cr0_9,-241.995173034792, 211.95822649549,Ni74Fe24Cr0,"# generated using pymatgen
 data_CrFe13Ni40
_symmetry_space_group_name_H-M   'P 1'
_cell_length_a   7.41668332
_cell_length_b   7.41668332
_cell_length_c   10.48877414
_cell_angle_alpha   90.00000000
_cell_angle_beta   90.00000000
_cell_angle_gamma   90.00000000
_symmetry_Int_Tables_number   1
_chemical_formula_structural   CrFe13Ni40
_chemical_formula_sum   'Cr1 Fe13 Ni40'
_cell_volume   576.95800776
_cell_formula_units_Z   1
loop_
 _symmetry_equiv_pos_site_id
 _symmetry_equiv_pos_as_xyz
  1  'x, y, z'
loop_
 _atom_site_type_symbol
 _atom_site_label
 _atom_site_symmetry_multiplicity
 _atom_site_fract_x
 _atom_site_fract_y
 _atom_site_fract_z
 _atom_site_occupancy
  Ni  Ni0  1  1.00300271  0.00378796  1.00285401  1
  Ni  Ni1  1  0.17063113  0.16932301  0.17038562  1
  Fe  Fe2  1  1.00333166  1.00326440  0.33621218  1
  Ni  Ni3  1  1.00291196  0.33666435  1.00333936  1
  Fe  Fe4  1  0.16860669  0.50345380  0.16992944  1
  Ni  Ni5  1  1.00279447  0.33725332  0.33638457  1
  Ni  Ni6  1  1.00319303  0.66973201  1.00255425  1
  Ni  Ni7  1  0.17030054  0.83729066  0.16957466  1
  Ni  Ni8  1  1.00310703  0.66917309  0.33711055  1
  Ni  Ni9  1  0.33703478  1.00318279  1.00273447  1
  Fe  Fe10  1  0.50346731  0.16948532  0.17057675  1
  Ni  Ni11  1  0.33762817  1.00316149  0.33691994  1
  Ni  Ni12  1  0.33618644  0.33636883  1.00243111  1
  Fe  Fe13  1  0.50344056  0.50344791  0.17052975  1
  Ni  Ni14  1  0.33605259  0.33617242  0.33752155  1
  Ni  Ni15  1  0.33653039  0.67063335  1.00325526  1
  Fe  Fe16  1  0.50341625  0.83725302  0.16998604  1
  Ni  Ni17  1  0.33632792  0.67085236  0.33669471  1
  Fe  Fe18  1  0.67057738  1.00333513  1.00322739  1
  Ni  Ni19  1  0.83709550  0.17010547  0.17020705  1
  Ni  Ni20  1  0.66966982  0.00347321  0.33684541  1
  Fe  Fe21  1  0.67038410  0.33671434  1.00292440  1
  Ni  Ni22  1  0.83600191  0.50387956  0.17023431  1
  Ni  Ni23  1  0.67133304  0.33596999  0.33733333  1
  Fe  Fe24  1  0.67050613  0.67013635  1.00286817  1
  Ni  Ni25  1  0.83710555  0.83619836  0.17020710  1
  Ni  Ni26  1  0.67074038  0.67074403  0.33731109  1
  Ni  Ni27  1  0.17104617  0.16943511  0.50311141  1
  Fe  Fe28  1  0.00453651  0.00355149  0.67030445  1
  Ni  Ni29  1  0.17075990  0.17013425  0.83668025  1
  Ni  Ni30  1  0.17102703  0.50376639  0.50231293  1
  Ni  Ni31  1  1.00242633  0.33692469  0.67045829  1
  Ni  Ni32  1  0.17076690  0.50298119  0.83745415  1
  Ni  Ni33  1  0.17001973  0.83698315  0.50360530  1
  Fe  Fe34  1  1.00292646  0.66968555  0.66977358  1
  Fe  Fe35  1  0.17068864  0.83674407  0.83722757  1
  Ni  Ni36  1  0.50215915  0.17161643  0.50214230  1
  Ni  Ni37  1  0.33561770  1.00248846  0.67054786  1
  Ni  Ni38  1  0.50172217  0.17076221  0.83811162  1
  Ni  Ni39  1  0.50359300  0.50301532  0.50349315  1
  Fe  Fe40  1  0.33744408  0.33701101  0.67012318  1
  Ni  Ni41  1  0.50314554  0.50379839  0.83668072  1
  Fe  Fe42  1  0.50231056  0.83582923  0.50295852  1
  Ni  Ni43  1  0.33698118  0.67107921  0.67024263  1
  Ni  Ni44  1  0.50278474  0.83562817  0.83766158  1
  Ni  Ni45  1  0.83699077  0.17059229  0.50198561  1
  Cr  Cr46  1  0.66922060  0.00384882  0.67003161  1
  Ni  Ni47  1  0.83771092  0.17050792  0.83798730  1
  Ni  Ni48  1  0.83557085  0.50403965  0.50340245  1
  Ni  Ni49  1  0.67188902  0.33827529  0.67022198  1
  Ni  Ni50  1  0.83627603  0.50404512  0.83654769  1
  Ni  Ni51  1  0.83773779  0.83554814  0.50173559  1
  Ni  Ni52  1  0.66972693  0.66836727  0.67016779  1
  Ni  Ni53  1  0.83689211  0.83563290  0.83822624  1
" 