882,Ni74Fe12Cr12_2,-235.66332780629, 184.628269686361,Ni74Fe12Cr12,"# generated using pymatgen
 data_Cr4Fe3Ni20
_symmetry_space_group_name_H-M   'P 1'
_cell_length_a   7.44888532
_cell_length_b   7.44888532
_cell_length_c   10.53431464
_cell_angle_alpha   90.00000000
_cell_angle_beta   90.00000000
_cell_angle_gamma   90.00000000
_symmetry_Int_Tables_number   1
_chemical_formula_structural   Cr4Fe3Ni20
_chemical_formula_sum   'Cr8 Fe6 Ni40'
_cell_volume   584.50584957
_cell_formula_units_Z   2
loop_
 _symmetry_equiv_pos_site_id
 _symmetry_equiv_pos_as_xyz
  1  'x, y, z'
loop_
 _atom_site_type_symbol
 _atom_site_label
 _atom_site_symmetry_multiplicity
 _atom_site_fract_x
 _atom_site_fract_y
 _atom_site_fract_z
 _atom_site_occupancy
  Cr  Cr0  1  0.00161990  0.99889607  0.00180007  1
  Cr  Cr1  1  0.16892828  0.16699725  0.16838822  1
  Ni  Ni2  1  0.00184445  0.00205102  0.33581035  1
  Ni  Ni3  1  1.00064937  0.33707970  0.00203611  1
  Fe  Fe4  1  0.16897435  0.49973692  0.16885732  1
  Ni  Ni5  1  1.00053620  0.33363182  0.33608553  1
  Ni  Ni6  1  0.99871271  0.66731560  0.00202080  1
  Ni  Ni7  1  0.16964881  0.83422505  0.16911118  1
  Cr  Cr8  1  0.00192278  0.66742709  0.33497341  1
  Ni  Ni9  1  0.33551584  0.00178104  0.99916405  1
  Ni  Ni10  1  0.50109708  0.16990770  0.16746263  1
  Ni  Ni11  1  0.33445931  1.00052953  0.33621573  1
  Ni  Ni12  1  0.33716329  0.33303341  1.00105742  1
  Ni  Ni13  1  0.50482204  0.50129456  0.16858626  1
  Ni  Ni14  1  0.33596092  0.33561429  0.33539951  1
  Cr  Cr15  1  0.33533295  0.66755419  0.00265605  1
  Ni  Ni16  1  0.49827328  0.83252831  0.16848012  1
  Ni  Ni17  1  0.33610271  0.66728667  0.33489431  1
  Cr  Cr18  1  0.66507728  1.00079065  0.00287130  1
  Ni  Ni19  1  0.83432816  0.17321097  0.16908476  1
  Cr  Cr20  1  0.66789630  0.00196588  0.33394867  1
  Ni  Ni21  1  0.66626013  0.33651439  0.00192989  1
  Ni  Ni22  1  0.83231192  0.49987513  0.16672229  1
  Ni  Ni23  1  0.66728409  0.33567201  0.33484637  1
  Ni  Ni24  1  0.66963687  0.66630715  1.00071497  1
  Fe  Fe25  1  0.83288626  0.83262747  0.16915586  1
  Ni  Ni26  1  0.66560140  0.66627233  0.33489395  1
  Ni  Ni27  1  0.16706155  0.16753782  0.50183295  1
  Ni  Ni28  1  0.00140047  1.00054483  0.66621289  1
  Ni  Ni29  1  0.17005898  0.16556657  0.83344519  1
  Ni  Ni30  1  0.16986865  0.50112782  0.50125806  1
  Ni  Ni31  1  0.00241687  0.33435065  0.66586955  1
  Cr  Cr32  1  0.16617404  0.50061958  0.83526399  1
  Ni  Ni33  1  0.16859087  0.83501460  0.50174206  1
  Ni  Ni34  1  0.00157821  0.66869201  0.66740279  1
  Ni  Ni35  1  0.16790243  0.83584333  0.83237628  1
  Ni  Ni36  1  0.50113021  0.16916752  0.50160330  1
  Fe  Fe37  1  0.33493294  0.00181778  0.66702673  1
  Ni  Ni38  1  0.49955216  0.16933875  0.83428897  1
  Ni  Ni39  1  0.50144093  0.50210299  0.50093196  1
  Ni  Ni40  1  0.33546099  0.33476784  0.66759980  1
  Ni  Ni41  1  0.50497880  0.50053167  0.83412368  1
  Ni  Ni42  1  0.50062645  0.83239974  0.50207719  1
  Ni  Ni43  1  0.33494643  0.66707569  0.66637628  1
  Fe  Fe44  1  0.50063963  0.83381292  0.83259885  1
  Ni  Ni45  1  0.83530312  0.16822735  0.50136440  1
  Ni  Ni46  1  0.66730140  1.00121329  0.66681171  1
  Cr  Cr47  1  0.83465733  0.17208768  0.83341408  1
  Fe  Fe48  1  0.83341578  0.50090004  0.50250504  1
  Ni  Ni49  1  0.66578367  0.33451313  0.66660758  1
  Ni  Ni50  1  0.83174630  0.50323722  0.83371674  1
  Ni  Ni51  1  0.83435032  0.83498010  0.50269622  1
  Ni  Ni52  1  0.66701306  0.66786508  0.66772690  1
  Fe  Fe53  1  0.83465467  0.83237073  0.83179262  1
" 