6372,Ni74Fe12Cr12_8,-235.385463520443, 181.452581995489,Ni74Fe12Cr12,"# generated using pymatgen
 data_Cr4Fe3Ni20
_symmetry_space_group_name_H-M   'P 1'
_cell_length_a   7.44983568
_cell_length_b   7.44983568
_cell_length_c   10.53565866
_cell_angle_alpha   90.00000000
_cell_angle_beta   90.00000000
_cell_angle_gamma   90.00000000
_symmetry_Int_Tables_number   1
_chemical_formula_structural   Cr4Fe3Ni20
_chemical_formula_sum   'Cr8 Fe6 Ni40'
_cell_volume   584.72960084
_cell_formula_units_Z   2
loop_
 _symmetry_equiv_pos_site_id
 _symmetry_equiv_pos_as_xyz
  1  'x, y, z'
loop_
 _atom_site_type_symbol
 _atom_site_label
 _atom_site_symmetry_multiplicity
 _atom_site_fract_x
 _atom_site_fract_y
 _atom_site_fract_z
 _atom_site_occupancy
  Ni  Ni0  1  1.00016714  1.00033371  0.99957406  1
  Cr  Cr1  1  0.16645226  0.16545847  0.16788025  1
  Ni  Ni2  1  0.00163618  0.00167817  0.33481196  1
  Cr  Cr3  1  0.00249008  0.33621891  0.99966034  1
  Ni  Ni4  1  0.17091778  0.50224578  0.16936510  1
  Ni  Ni5  1  0.00179624  0.33628289  0.33591587  1
  Cr  Cr6  1  0.00181077  0.66736807  0.00211979  1
  Ni  Ni7  1  0.16903825  0.83439274  0.16971945  1
  Ni  Ni8  1  0.00190129  0.66575444  0.33312739  1
  Ni  Ni9  1  0.33630898  1.00023522  1.00009810  1
  Fe  Fe10  1  0.50065380  0.16802926  0.16644027  1
  Ni  Ni11  1  0.33459014  1.00100520  0.33691474  1
  Ni  Ni12  1  0.33595680  0.33449377  1.00088291  1
  Ni  Ni13  1  0.50133488  0.50225194  0.16683987  1
  Ni  Ni14  1  0.33352722  0.33473353  0.33410165  1
  Ni  Ni15  1  0.33512606  0.66859908  0.00148612  1
  Ni  Ni16  1  0.50002348  0.83168650  0.16711260  1
  Ni  Ni17  1  0.33427983  0.66774550  0.33459989  1
  Ni  Ni18  1  0.66679165  1.00060708  1.00072388  1
  Ni  Ni19  1  0.83383701  0.16760952  0.16762020  1
  Cr  Cr20  1  0.66505198  1.00031958  0.33405330  1
  Ni  Ni21  1  0.66756442  0.33357266  0.00209237  1
  Ni  Ni22  1  0.83165469  0.50077741  0.17077626  1
  Fe  Fe23  1  0.66790457  0.33479510  0.33322548  1
  Ni  Ni24  1  0.66745316  0.66893281  0.00170398  1
  Ni  Ni25  1  0.83436312  0.83531900  0.16668717  1
  Ni  Ni26  1  0.66775930  0.66730341  0.33284125  1
  Ni  Ni27  1  0.16704603  0.16787337  0.50138186  1
  Ni  Ni28  1  0.00312485  0.00233959  0.66858516  1
  Ni  Ni29  1  0.16798831  0.16620718  0.83348506  1
  Ni  Ni30  1  0.16800684  0.50102311  0.50121877  1
  Ni  Ni31  1  0.00314938  0.33563163  0.66779416  1
  Ni  Ni32  1  0.16825265  0.50161545  0.83302942  1
  Ni  Ni33  1  0.16876159  0.83489057  0.50034352  1
  Ni  Ni34  1  1.00113782  0.66563841  0.66860075  1
  Ni  Ni35  1  0.16891378  0.83629027  0.83354216  1
  Ni  Ni36  1  0.49979437  0.16960251  0.50058497  1
  Ni  Ni37  1  0.33401113  0.00309707  0.66638453  1
  Ni  Ni38  1  0.50053879  0.16718221  0.83642159  1
  Cr  Cr39  1  0.50171544  0.50208982  0.50289642  1
  Ni  Ni40  1  0.33191141  0.33188070  0.66855901  1
  Cr  Cr41  1  0.50097256  0.50196154  0.83453014  1
  Ni  Ni42  1  0.49837493  0.83330831  0.50166291  1
  Fe  Fe43  1  0.33102987  0.67022623  0.66787221  1
  Ni  Ni44  1  0.49946773  0.83443292  0.83460041  1
  Ni  Ni45  1  0.83675178  0.17071835  0.50102670  1
  Cr  Cr46  1  0.66444498  1.00070128  0.66831368  1
  Ni  Ni47  1  0.83542666  0.16785292  0.83483232  1
  Fe  Fe48  1  0.83652268  0.50073592  0.50142910  1
  Fe  Fe49  1  0.66964831  0.33246978  0.66883218  1
  Ni  Ni50  1  0.83338220  0.50013746  0.83179320  1
  Cr  Cr51  1  0.83726007  0.83416545  0.50091724  1
  Ni  Ni52  1  0.66932356  0.66815051  0.66878905  1
  Fe  Fe53  1  0.83503134  0.83440783  0.83457937  1
" 