3346,Ni74Fe22Cr2_15,-241.321788158182, 208.578976339633,Ni74Fe22Cr2,"# generated using pymatgen
 data_Cr(Fe3Ni10)2
_symmetry_space_group_name_H-M   'P 1'
_cell_length_a   7.42461096
_cell_length_b   7.42461096
_cell_length_c   10.49998552
_cell_angle_alpha   90.00000000
_cell_angle_beta   90.00000000
_cell_angle_gamma   90.00000000
_symmetry_Int_Tables_number   1
_chemical_formula_structural   Cr(Fe3Ni10)2
_chemical_formula_sum   'Cr2 Fe12 Ni40'
_cell_volume   578.81010561
_cell_formula_units_Z   2
loop_
 _symmetry_equiv_pos_site_id
 _symmetry_equiv_pos_as_xyz
  1  'x, y, z'
loop_
 _atom_site_type_symbol
 _atom_site_label
 _atom_site_symmetry_multiplicity
 _atom_site_fract_x
 _atom_site_fract_y
 _atom_site_fract_z
 _atom_site_occupancy
  Ni  Ni0  1  0.00307669  1.00257793  1.00273221  1
  Ni  Ni1  1  0.16957453  0.17002334  0.16906996  1
  Fe  Fe2  1  0.00306693  0.00313605  0.33603421  1
  Ni  Ni3  1  1.00192274  0.33524935  0.00338759  1
  Ni  Ni4  1  0.16934540  0.50190078  0.16925844  1
  Ni  Ni5  1  0.00321708  0.33513846  0.33580974  1
  Ni  Ni6  1  1.00221371  0.67074672  0.00423096  1
  Ni  Ni7  1  0.17018659  0.83664826  0.16904313  1
  Fe  Fe8  1  0.00396885  0.66931412  0.33507411  1
  Ni  Ni9  1  0.33569355  1.00222626  1.00209904  1
  Fe  Fe10  1  0.50209717  0.16974060  0.16981853  1
  Ni  Ni11  1  0.33607251  1.00205189  0.33683748  1
  Ni  Ni12  1  0.33677349  0.33553428  0.00425032  1
  Ni  Ni13  1  0.50301396  0.50330957  0.16926937  1
  Ni  Ni14  1  0.33605335  0.33654907  0.33663574  1
  Ni  Ni15  1  0.33684143  0.67081319  0.00438092  1
  Ni  Ni16  1  0.50297388  0.83605112  0.16966846  1
  Ni  Ni17  1  0.33686207  0.66997154  0.33624927  1
  Ni  Ni18  1  0.66980684  1.00251361  0.00363624  1
  Fe  Fe19  1  0.83670957  0.16999922  0.16914547  1
  Fe  Fe20  1  0.66861795  1.00279833  0.33696702  1
  Ni  Ni21  1  0.66987638  0.33640287  0.00288268  1
  Ni  Ni22  1  0.83621715  0.50269317  0.16927606  1
  Ni  Ni23  1  0.66930311  0.33593490  0.33565225  1
  Ni  Ni24  1  0.66952282  0.66965984  1.00214946  1
  Ni  Ni25  1  0.83541190  0.83581532  0.16876717  1
  Ni  Ni26  1  0.66824622  0.67033984  0.33608883  1
  Fe  Fe27  1  0.16979778  0.17018523  0.50275940  1
  Ni  Ni28  1  1.00175007  1.00252370  0.66923282  1
  Ni  Ni29  1  0.16874987  0.16793853  0.83573096  1
  Ni  Ni30  1  0.17132254  0.50225075  0.50269425  1
  Ni  Ni31  1  1.00253940  0.33435124  0.66937151  1
  Cr  Cr32  1  0.16834455  0.50224840  0.83736333  1
  Fe  Fe33  1  0.16997221  0.83569563  0.50322186  1
  Ni  Ni34  1  0.00365367  0.67170105  0.66892031  1
  Ni  Ni35  1  0.17090391  0.83829043  0.83637515  1
  Ni  Ni36  1  0.50301744  0.16895108  0.50312685  1
  Fe  Fe37  1  0.33594832  0.00303173  0.66982994  1
  Fe  Fe38  1  0.50296328  0.16947065  0.83590704  1
  Ni  Ni39  1  0.50033738  0.50283201  0.50352314  1
  Ni  Ni40  1  0.33720487  0.33654388  0.66768989  1
  Fe  Fe41  1  0.50404723  0.50257516  0.83634114  1
  Ni  Ni42  1  0.50298195  0.83679294  0.50259231  1
  Ni  Ni43  1  0.33646068  0.66987556  0.66795036  1
  Ni  Ni44  1  0.50246178  0.83668267  0.83631458  1
  Ni  Ni45  1  0.83591143  0.16788172  0.50275184  1
  Ni  Ni46  1  0.67065911  0.00327011  0.66853561  1
  Ni  Ni47  1  0.83655502  0.17054953  0.83624488  1
  Cr  Cr48  1  0.83681431  0.50211283  0.50329749  1
  Ni  Ni49  1  0.66882727  0.33463875  0.67004310  1
  Ni  Ni50  1  0.83493918  0.50152935  0.83609939  1
  Ni  Ni51  1  0.83533061  0.83847318  0.50373772  1
  Fe  Fe52  1  0.66903611  0.67004579  0.66997104  1
  Fe  Fe53  1  0.83712728  0.83674163  0.83628262  1
" 