3296,Ni74Fe12Cr12_1,-235.381724958041, 178.555418349989,Ni74Fe12Cr12,"# generated using pymatgen
 data_Cr4Fe3Ni20
_symmetry_space_group_name_H-M   'P 1'
_cell_length_a   7.45197593
_cell_length_b   7.45197593
_cell_length_c   10.53868542
_cell_angle_alpha   90.00000000
_cell_angle_beta   90.00000000
_cell_angle_gamma   90.00000000
_symmetry_Int_Tables_number   1
_chemical_formula_structural   Cr4Fe3Ni20
_chemical_formula_sum   'Cr8 Fe6 Ni40'
_cell_volume   585.23370132
_cell_formula_units_Z   2
loop_
 _symmetry_equiv_pos_site_id
 _symmetry_equiv_pos_as_xyz
  1  'x, y, z'
loop_
 _atom_site_type_symbol
 _atom_site_label
 _atom_site_symmetry_multiplicity
 _atom_site_fract_x
 _atom_site_fract_y
 _atom_site_fract_z
 _atom_site_occupancy
  Ni  Ni0  1  0.00282607  1.00018412  1.00093121  1
  Ni  Ni1  1  0.16841268  0.16986582  0.16577031  1
  Cr  Cr2  1  1.00067684  0.99859858  0.33347096  1
  Ni  Ni3  1  0.00365839  0.33456187  0.00110941  1
  Ni  Ni4  1  0.16613785  0.49857469  0.16725177  1
  Fe  Fe5  1  0.00153508  0.33627191  0.33399953  1
  Ni  Ni6  1  1.00053350  0.66827953  0.00197963  1
  Fe  Fe7  1  0.16805484  0.83251986  0.16522248  1
  Fe  Fe8  1  0.99904225  0.66556655  0.33488014  1
  Fe  Fe9  1  0.33244124  1.00060301  0.00126537  1
  Ni  Ni10  1  0.49839032  0.16797735  0.16957960  1
  Cr  Cr11  1  0.33455594  0.00196167  0.33533775  1
  Ni  Ni12  1  0.33196431  0.33591971  0.00246058  1
  Ni  Ni13  1  0.50077756  0.50127960  0.16723504  1
  Ni  Ni14  1  0.33444338  0.33516360  0.33443279  1
  Fe  Fe15  1  0.33401021  0.66655995  1.00048358  1
  Ni  Ni16  1  0.50325531  0.83381989  0.16668316  1
  Cr  Cr17  1  0.33417187  0.66542758  0.33515906  1
  Cr  Cr18  1  0.67078351  0.99847926  0.00218858  1
  Fe  Fe19  1  0.83458228  0.16966254  0.16772076  1
  Ni  Ni20  1  0.66799451  0.99977558  0.33322928  1
  Cr  Cr21  1  0.66815989  0.33803240  1.00041629  1
  Ni  Ni22  1  0.83578814  0.50365306  0.16861321  1
  Ni  Ni23  1  0.66568149  0.33625488  0.33289758  1
  Ni  Ni24  1  0.66820700  0.66796089  1.00101045  1
  Ni  Ni25  1  0.83369747  0.83161628  0.16816004  1
  Ni  Ni26  1  0.66864187  0.66728892  0.33393531  1
  Ni  Ni27  1  0.16838944  0.16856549  0.50234810  1
  Ni  Ni28  1  0.00207448  0.99958295  0.66931270  1
  Ni  Ni29  1  0.16501790  0.16712262  0.83498878  1
  Ni  Ni30  1  0.16536655  0.50101750  0.50050208  1
  Ni  Ni31  1  1.00060564  0.33535520  0.66889540  1
  Ni  Ni32  1  0.16587507  0.50181456  0.83549422  1
  Ni  Ni33  1  0.16654701  0.83330422  0.50343909  1
  Ni  Ni34  1  0.00140693  0.66816239  0.66661573  1
  Ni  Ni35  1  0.16713995  0.83410545  0.83510397  1
  Ni  Ni36  1  0.50109248  0.16730988  0.50009669  1
  Ni  Ni37  1  0.33237992  0.99816962  0.66643557  1
  Cr  Cr38  1  0.49950903  0.16625068  0.83222095  1
  Ni  Ni39  1  0.50300121  0.50127520  0.50071159  1
  Cr  Cr40  1  0.33336950  0.33709657  0.66578824  1
  Ni  Ni41  1  0.50075587  0.50492963  0.83502227  1
  Ni  Ni42  1  0.50313193  0.83448331  0.50284732  1
  Ni  Ni43  1  0.33390821  0.66909692  0.66819395  1
  Ni  Ni44  1  0.50056459  0.83173597  0.83340531  1
  Cr  Cr45  1  0.83299617  0.16848579  0.50220919  1
  Ni  Ni46  1  0.66845005  0.99873018  0.66695205  1
  Ni  Ni47  1  0.83843539  0.16746057  0.83340891  1
  Ni  Ni48  1  0.83437427  0.50313752  0.50081626  1
  Ni  Ni49  1  0.66934815  0.33695560  0.66815383  1
  Ni  Ni50  1  0.83636986  0.50282494  0.83350198  1
  Ni  Ni51  1  0.83313516  0.83161731  0.50162612  1
  Ni  Ni52  1  0.66769918  0.66732941  0.66799472  1
  Ni  Ni53  1  0.83523996  0.83282913  0.83309879  1
" 