3627,Ni74Fe22Cr2_9,-241.176925995, 208.134903117384,Ni74Fe22Cr2,"# generated using pymatgen
 data_Cr(Fe3Ni10)2
_symmetry_space_group_name_H-M   'P 1'
_cell_length_a   7.42226816
_cell_length_b   7.42226816
_cell_length_c   10.49667229
_cell_angle_alpha   90.00000000
_cell_angle_beta   90.00000000
_cell_angle_gamma   90.00000000
_symmetry_Int_Tables_number   1
_chemical_formula_structural   Cr(Fe3Ni10)2
_chemical_formula_sum   'Cr2 Fe12 Ni40'
_cell_volume   578.26235504
_cell_formula_units_Z   2
loop_
 _symmetry_equiv_pos_site_id
 _symmetry_equiv_pos_as_xyz
  1  'x, y, z'
loop_
 _atom_site_type_symbol
 _atom_site_label
 _atom_site_symmetry_multiplicity
 _atom_site_fract_x
 _atom_site_fract_y
 _atom_site_fract_z
 _atom_site_occupancy
  Ni  Ni0  1  0.00402759  1.00270135  1.00237141  1
  Fe  Fe1  1  0.16939216  0.16980154  0.16912282  1
  Ni  Ni2  1  1.00284520  0.00324699  0.33663196  1
  Ni  Ni3  1  1.00211530  0.33513572  0.00317750  1
  Ni  Ni4  1  0.17067500  0.50435462  0.16965095  1
  Ni  Ni5  1  0.00358469  0.33622751  0.33680363  1
  Ni  Ni6  1  1.00136414  0.67113694  0.00342464  1
  Ni  Ni7  1  0.16868739  0.83469051  0.16865597  1
  Ni  Ni8  1  1.00220389  0.66960124  0.33645013  1
  Ni  Ni9  1  0.33410446  0.00419823  0.00359438  1
  Ni  Ni10  1  0.50398045  0.17053560  0.16944954  1
  Ni  Ni11  1  0.33610868  0.00353283  0.33688246  1
  Ni  Ni12  1  0.33758082  0.33508980  0.00330443  1
  Ni  Ni13  1  0.50138332  0.50149563  0.16856420  1
  Ni  Ni14  1  0.33571684  0.33634399  0.33627894  1
  Ni  Ni15  1  0.33684762  0.66980531  0.00411441  1
  Fe  Fe16  1  0.50284472  0.83604246  0.16979127  1
  Ni  Ni17  1  0.33697385  0.66911718  0.33691237  1
  Fe  Fe18  1  0.67064245  0.00413166  0.00412282  1
  Ni  Ni19  1  0.83473628  0.16855206  0.16909192  1
  Ni  Ni20  1  0.67005661  1.00192335  0.33673144  1
  Ni  Ni21  1  0.66940670  0.33781740  1.00233417  1
  Fe  Fe22  1  0.83662161  0.50301385  0.16927573  1
  Fe  Fe23  1  0.66931271  0.33590748  0.33652491  1
  Ni  Ni24  1  0.67092103  0.66782451  0.00354748  1
  Ni  Ni25  1  0.83758052  0.83741554  0.16942913  1
  Ni  Ni26  1  0.66992776  0.66973100  0.33652238  1
  Fe  Fe27  1  0.16909139  0.17024564  0.50346960  1
  Ni  Ni28  1  0.00364054  1.00239002  0.67005732  1
  Ni  Ni29  1  0.17127594  0.16835745  0.83671107  1
  Ni  Ni30  1  0.17024152  0.50427239  0.50283509  1
  Fe  Fe31  1  1.00136360  0.33485963  0.66866649  1
  Cr  Cr32  1  0.16950801  0.50368272  0.83658247  1
  Ni  Ni33  1  0.16893964  0.83530267  0.50358768  1
  Fe  Fe34  1  1.00141591  0.67108160  0.66876267  1
  Ni  Ni35  1  0.16760241  0.83780303  0.83674166  1
  Ni  Ni36  1  0.50390274  0.17008623  0.50299774  1
  Ni  Ni37  1  0.33440250  0.00494262  0.66863840  1
  Ni  Ni38  1  0.50308982  0.17118566  0.83665337  1
  Ni  Ni39  1  0.50221914  0.50124419  0.50402225  1
  Ni  Ni40  1  0.33771718  0.33504022  0.66947584  1
  Fe  Fe41  1  0.50474109  0.50178215  0.83659503  1
  Fe  Fe42  1  0.50402197  0.83594449  0.50312275  1
  Fe  Fe43  1  0.33698686  0.67050834  0.66771777  1
  Cr  Cr44  1  0.50299468  0.83817677  0.83686586  1
  Ni  Ni45  1  0.83426508  0.16892640  0.50367938  1
  Ni  Ni46  1  0.67108682  0.00326047  0.66948387  1
  Fe  Fe47  1  0.83709964  0.16924201  0.83629457  1
  Ni  Ni48  1  0.83653862  0.50304057  0.50182480  1
  Ni  Ni49  1  0.66884285  0.33775047  0.66973971  1
  Ni  Ni50  1  0.83537098  0.50349788  0.83698561  1
  Ni  Ni51  1  0.83739745  0.83701731  0.50320227  1
  Ni  Ni52  1  0.67143814  0.66800752  0.66894674  1
  Ni  Ni53  1  0.83805798  0.83587154  0.83647327  1
" 