6876,Ni74Fe22Cr2_12,-241.248396839143, 202.627641506628,Ni74Fe22Cr2,"# generated using pymatgen
 data_Cr(Fe3Ni10)2
_symmetry_space_group_name_H-M   'P 1'
_cell_length_a   7.42570872
_cell_length_b   7.42570872
_cell_length_c   10.50153798
_cell_angle_alpha   90.00000000
_cell_angle_beta   90.00000000
_cell_angle_gamma   90.00000000
_symmetry_Int_Tables_number   1
_chemical_formula_structural   Cr(Fe3Ni10)2
_chemical_formula_sum   'Cr2 Fe12 Ni40'
_cell_volume   579.06688095
_cell_formula_units_Z   2
loop_
 _symmetry_equiv_pos_site_id
 _symmetry_equiv_pos_as_xyz
  1  'x, y, z'
loop_
 _atom_site_type_symbol
 _atom_site_label
 _atom_site_symmetry_multiplicity
 _atom_site_fract_x
 _atom_site_fract_y
 _atom_site_fract_z
 _atom_site_occupancy
  Ni  Ni0  1  0.00336395  0.00315988  1.00188209  1
  Ni  Ni1  1  0.16949192  0.16929367  0.16943915  1
  Ni  Ni2  1  0.00349766  0.00320800  0.33685523  1
  Ni  Ni3  1  0.00499642  0.33585696  0.00284474  1
  Ni  Ni4  1  0.16953904  0.50223575  0.16994933  1
  Ni  Ni5  1  0.00335802  0.33619135  0.33579309  1
  Fe  Fe6  1  0.00316208  0.66977053  1.00273551  1
  Ni  Ni7  1  0.16952505  0.83682209  0.17012849  1
  Fe  Fe8  1  1.00232955  0.66910844  0.33589297  1
  Ni  Ni9  1  0.33541610  1.00212007  1.00273164  1
  Ni  Ni10  1  0.50197336  0.16825875  0.17097497  1
  Ni  Ni11  1  0.33548347  0.00292764  0.33573517  1
  Ni  Ni12  1  0.33330056  0.33639988  1.00235720  1
  Ni  Ni13  1  0.50227571  0.50362437  0.17073467  1
  Ni  Ni14  1  0.33514086  0.33597218  0.33600867  1
  Ni  Ni15  1  0.33671828  0.66982697  1.00208489  1
  Ni  Ni16  1  0.50332611  0.83646670  0.16960420  1
  Fe  Fe17  1  0.33651515  0.66912665  0.33541115  1
  Ni  Ni18  1  0.66956798  0.99974260  1.00263112  1
  Ni  Ni19  1  0.83688553  0.16824150  0.17104246  1
  Ni  Ni20  1  0.66936855  1.00152452  0.33587044  1
  Cr  Cr21  1  0.67004633  0.33705078  1.00248254  1
  Ni  Ni22  1  0.83653939  0.50359974  0.17077469  1
  Ni  Ni23  1  0.66985273  0.33753042  0.33688653  1
  Ni  Ni24  1  0.66902602  0.67145972  1.00257082  1
  Ni  Ni25  1  0.83550179  0.83651519  0.16964005  1
  Ni  Ni26  1  0.66957720  0.66929924  0.33570174  1
  Ni  Ni27  1  0.16873006  0.17004916  0.50184881  1
  Fe  Fe28  1  1.00124087  0.00336385  0.66999601  1
  Ni  Ni29  1  0.16876928  0.17015213  0.83706878  1
  Ni  Ni30  1  0.16975044  0.50187950  0.50292680  1
  Ni  Ni31  1  0.00374856  0.33690796  0.66970715  1
  Ni  Ni32  1  0.16982526  0.50229087  0.83546590  1
  Fe  Fe33  1  0.16878893  0.83498990  0.50166005  1
  Fe  Fe34  1  1.00251529  0.66878252  0.66972250  1
  Ni  Ni35  1  0.16880558  0.83590502  0.83631193  1
  Fe  Fe36  1  0.50287739  0.17141897  0.50171853  1
  Cr  Cr37  1  0.33614438  0.00340517  0.67052870  1
  Ni  Ni38  1  0.50269736  0.16902128  0.83554507  1
  Ni  Ni39  1  0.50302357  0.50303442  0.50296789  1
  Ni  Ni40  1  0.33436885  0.33770890  0.66998192  1
  Ni  Ni41  1  0.50194330  0.50371681  0.83464403  1
  Fe  Fe42  1  0.50373947  0.83471163  0.50199781  1
  Fe  Fe43  1  0.33652096  0.66728858  0.67023181  1
  Ni  Ni44  1  0.50408591  0.83560692  0.83686536  1
  Fe  Fe45  1  0.83668128  0.17073717  0.50240702  1
  Ni  Ni46  1  0.67074513  1.00094600  0.66984194  1
  Ni  Ni47  1  0.83687979  0.16800570  0.83444195  1
  Ni  Ni48  1  0.83557622  0.50303312  0.50265937  1
  Fe  Fe49  1  0.66926731  0.33638785  0.66951227  1
  Ni  Ni50  1  0.83658444  0.50368742  0.83492408  1
  Fe  Fe51  1  0.83582747  0.83539670  0.50268291  1
  Ni  Ni52  1  0.66993808  0.66988766  0.67007689  1
  Ni  Ni53  1  0.83545489  0.83666009  0.83580986  1
" 