6017,Ni74Fe12Cr12_12,-235.53903755317, 179.350598507283,Ni74Fe12Cr12,"# generated using pymatgen
 data_Cr4Fe3Ni20
_symmetry_space_group_name_H-M   'P 1'
_cell_length_a   7.45067178
_cell_length_b   7.45067178
_cell_length_c   10.53684108
_cell_angle_alpha   90.00000000
_cell_angle_beta   90.00000000
_cell_angle_gamma   90.00000000
_symmetry_Int_Tables_number   1
_chemical_formula_structural   Cr4Fe3Ni20
_chemical_formula_sum   'Cr8 Fe6 Ni40'
_cell_volume   584.92649486
_cell_formula_units_Z   2
loop_
 _symmetry_equiv_pos_site_id
 _symmetry_equiv_pos_as_xyz
  1  'x, y, z'
loop_
 _atom_site_type_symbol
 _atom_site_label
 _atom_site_symmetry_multiplicity
 _atom_site_fract_x
 _atom_site_fract_y
 _atom_site_fract_z
 _atom_site_occupancy
  Ni  Ni0  1  0.00139294  0.00306063  1.00032344  1
  Ni  Ni1  1  0.16807197  0.16857964  0.16744546  1
  Ni  Ni2  1  0.00118759  0.00331619  0.33456497  1
  Ni  Ni3  1  0.00260795  0.33338297  0.00156451  1
  Ni  Ni4  1  0.16942283  0.49977790  0.16765159  1
  Ni  Ni5  1  0.00213531  0.33340894  0.33363063  1
  Fe  Fe6  1  1.00102906  0.66720923  0.00145452  1
  Cr  Cr7  1  0.16755203  0.83591535  0.16741591  1
  Ni  Ni8  1  0.00238834  0.66654845  0.33293002  1
  Ni  Ni9  1  0.33306964  0.00162226  0.99987356  1
  Fe  Fe10  1  0.49911290  0.16863206  0.16914124  1
  Ni  Ni11  1  0.33487870  0.00199558  0.33516415  1
  Ni  Ni12  1  0.33234117  0.33464497  0.00139530  1
  Ni  Ni13  1  0.50024074  0.50167516  0.16867511  1
  Ni  Ni14  1  0.33374254  0.33454103  0.33402415  1
  Ni  Ni15  1  0.33568359  0.66684183  0.99983634  1
  Fe  Fe16  1  0.50073437  0.83303696  0.16782541  1
  Ni  Ni17  1  0.33500730  0.66709988  0.33618277  1
  Cr  Cr18  1  0.66798099  1.00058989  0.00183579  1
  Ni  Ni19  1  0.83682663  0.16731302  0.17036899  1
  Ni  Ni20  1  0.66709389  0.00214871  0.33322065  1
  Cr  Cr21  1  0.66843025  0.33429267  0.00202411  1
  Ni  Ni22  1  0.83375935  0.50188208  0.16829530  1
  Ni  Ni23  1  0.66729183  0.33336788  0.33338685  1
  Ni  Ni24  1  0.66710509  0.66775520  1.00100447  1
  Ni  Ni25  1  0.83397646  0.83406344  0.16830660  1
  Ni  Ni26  1  0.66570702  0.66801161  0.33235574  1
  Ni  Ni27  1  0.16862515  0.16718028  0.50123394  1
  Ni  Ni28  1  0.00208748  0.00339270  0.66843388  1
  Ni  Ni29  1  0.16790303  0.16698577  0.83469586  1
  Ni  Ni30  1  0.17018639  0.49928257  0.49914827  1
  Ni  Ni31  1  0.00234249  0.33137705  0.66793951  1
  Fe  Fe32  1  0.16898298  0.49890698  0.83582932  1
  Ni  Ni33  1  0.16864496  0.83672190  0.49949822  1
  Cr  Cr34  1  0.00361970  0.66759974  0.66932862  1
  Ni  Ni35  1  0.16755551  0.83665596  0.83608092  1
  Ni  Ni36  1  0.50081103  0.16943313  0.50146155  1
  Ni  Ni37  1  0.33415838  0.00260158  0.66836519  1
  Ni  Ni38  1  0.49906365  0.16898834  0.83358937  1
  Ni  Ni39  1  0.49963169  0.49803588  0.49960430  1
  Ni  Ni40  1  0.33401025  0.33303140  0.66800190  1
  Ni  Ni41  1  0.50031004  0.49983590  0.83485310  1
  Fe  Fe42  1  0.50001084  0.83734647  0.49982889  1
  Cr  Cr43  1  0.33386574  0.66815443  0.66576899  1
  Ni  Ni44  1  0.49999383  0.83448342  0.83522994  1
  Ni  Ni45  1  0.83372589  0.16725332  0.50143964  1
  Ni  Ni46  1  0.66699920  0.00377336  0.66920197  1
  Ni  Ni47  1  0.83617849  0.16700898  0.83194560  1
  Cr  Cr48  1  0.83302909  0.49779341  0.49929530  1
  Ni  Ni49  1  0.66709180  0.33181558  0.66881613  1
  Fe  Fe50  1  0.83470635  0.49948144  0.83548470  1
  Cr  Cr51  1  0.83562697  0.83764565  0.49918433  1
  Cr  Cr52  1  0.66572398  0.66826773  0.66921989  1
  Ni  Ni53  1  0.83568793  0.83557680  0.83596640  1
" 