7386,Ni74Fe24Cr0_17,-242.472724793921, 212.332963115044,Ni74Fe24Cr0,"# generated using pymatgen
 data_CrFe13Ni40
_symmetry_space_group_name_H-M   'P 1'
_cell_length_a   7.42284690
_cell_length_b   7.42284690
_cell_length_c   10.49749076
_cell_angle_alpha   90.00000000
_cell_angle_beta   90.00000000
_cell_angle_gamma   90.00000000
_symmetry_Int_Tables_number   1
_chemical_formula_structural   CrFe13Ni40
_chemical_formula_sum   'Cr1 Fe13 Ni40'
_cell_volume   578.39763386
_cell_formula_units_Z   1
loop_
 _symmetry_equiv_pos_site_id
 _symmetry_equiv_pos_as_xyz
  1  'x, y, z'
loop_
 _atom_site_type_symbol
 _atom_site_label
 _atom_site_symmetry_multiplicity
 _atom_site_fract_x
 _atom_site_fract_y
 _atom_site_fract_z
 _atom_site_occupancy
  Ni  Ni0  1  0.00319425  0.00377278  1.00182659  1
  Ni  Ni1  1  0.16941425  0.16916939  0.16939876  1
  Ni  Ni2  1  1.00282682  0.00463963  0.33584664  1
  Ni  Ni3  1  0.00316416  0.33570601  0.00401306  1
  Ni  Ni4  1  0.16932405  0.50265895  0.16969674  1
  Ni  Ni5  1  0.00335382  0.33548907  0.33593375  1
  Ni  Ni6  1  1.00052960  0.66931862  0.00495564  1
  Ni  Ni7  1  0.16964064  0.83750660  0.16940621  1
  Fe  Fe8  1  0.00315803  0.66933701  0.33559007  1
  Ni  Ni9  1  0.33692216  0.00433324  1.00249655  1
  Ni  Ni10  1  0.50294034  0.16855442  0.17149395  1
  Ni  Ni11  1  0.33619988  0.00300240  0.33708320  1
  Fe  Fe12  1  0.33769206  0.33443184  0.00347048  1
  Ni  Ni13  1  0.50341227  0.50363347  0.16880460  1
  Ni  Ni14  1  0.33553692  0.33701687  0.33593745  1
  Fe  Fe15  1  0.33641769  0.67169942  0.00420918  1
  Ni  Ni16  1  0.50312871  0.83670870  0.16970881  1
  Ni  Ni17  1  0.33756081  0.66920970  0.33526263  1
  Ni  Ni18  1  0.66854677  1.00209842  0.00399615  1
  Ni  Ni19  1  0.83698476  0.16900926  0.16903219  1
  Ni  Ni20  1  0.66998099  1.00260723  0.33556446  1
  Fe  Fe21  1  0.67046987  0.33555393  0.00371356  1
  Ni  Ni22  1  0.83639562  0.50294814  0.17033577  1
  Ni  Ni23  1  0.67013559  0.33690945  0.33667698  1
  Ni  Ni24  1  0.66952502  0.66974293  1.00271363  1
  Ni  Ni25  1  0.83592371  0.83678737  0.17016823  1
  Ni  Ni26  1  0.66864511  0.66987706  0.33635470  1
  Ni  Ni27  1  0.16850814  0.16936594  0.50318751  1
  Fe  Fe28  1  0.00325173  1.00194229  0.66936778  1
  Ni  Ni29  1  0.16897864  0.16735698  0.83581550  1
  Ni  Ni30  1  0.16937259  0.50190219  0.50286363  1
  Ni  Ni31  1  0.00358458  0.33561259  0.66920627  1
  Cr  Cr32  1  0.16873212  0.50195609  0.83728415  1
  Fe  Fe33  1  0.16980656  0.83449435  0.50163931  1
  Ni  Ni34  1  1.00220726  0.66902268  0.66842080  1
  Fe  Fe35  1  0.17031916  0.83609408  0.83753453  1
  Fe  Fe36  1  0.50340110  0.17155040  0.50221846  1
  Fe  Fe37  1  0.33616644  1.00183108  0.66958118  1
  Ni  Ni38  1  0.50248969  0.16812630  0.83448373  1
  Ni  Ni39  1  0.50277821  0.50619605  0.50426705  1
  Ni  Ni40  1  0.33559566  0.33577715  0.66891200  1
  Ni  Ni41  1  0.50539829  0.50397667  0.83591664  1
  Ni  Ni42  1  0.50310928  0.83680356  0.50282473  1
  Ni  Ni43  1  0.33709995  0.66934126  0.67020254  1
  Ni  Ni44  1  0.50383233  0.83699932  0.83687162  1
  Ni  Ni45  1  0.83765735  0.16928542  0.50365315  1
  Ni  Ni46  1  0.66954031  1.00240980  0.66947388  1
  Fe  Fe47  1  0.83473215  0.17052187  0.83641437  1
  Ni  Ni48  1  0.83687347  0.50249206  0.50310094  1
  Fe  Fe49  1  0.66964819  0.33846923  0.66876479  1
  Ni  Ni50  1  0.83549371  0.50366035  0.83568392  1
  Fe  Fe51  1  0.83584995  0.83587634  0.50189753  1
  Ni  Ni52  1  0.66974656  0.67191969  0.67011305  1
  Fe  Fe53  1  0.83557916  0.83607080  0.83738744  1
" 