381,Ni74Fe12Cr12_6,-235.673077237596, 182.770342462256,Ni74Fe12Cr12,"# generated using pymatgen
 data_Cr4Fe3Ni20
_symmetry_space_group_name_H-M   'P 1'
_cell_length_a   7.45087799
_cell_length_b   7.45087799
_cell_length_c   10.53713270
_cell_angle_alpha   90.00000000
_cell_angle_beta   90.00000000
_cell_angle_gamma   90.00000000
_symmetry_Int_Tables_number   1
_chemical_formula_structural   Cr4Fe3Ni20
_chemical_formula_sum   'Cr8 Fe6 Ni40'
_cell_volume   584.97506323
_cell_formula_units_Z   2
loop_
 _symmetry_equiv_pos_site_id
 _symmetry_equiv_pos_as_xyz
  1  'x, y, z'
loop_
 _atom_site_type_symbol
 _atom_site_label
 _atom_site_symmetry_multiplicity
 _atom_site_fract_x
 _atom_site_fract_y
 _atom_site_fract_z
 _atom_site_occupancy
  Cr  Cr0  1  0.00220635  0.99919830  0.00170776  1
  Ni  Ni1  1  0.17047925  0.16874657  0.16810291  1
  Fe  Fe2  1  1.00097102  0.99978040  0.33485594  1
  Ni  Ni3  1  0.00297610  0.33826746  1.00053051  1
  Ni  Ni4  1  0.16728231  0.50010917  0.16671963  1
  Ni  Ni5  1  0.00162602  0.33520182  0.33373451  1
  Ni  Ni6  1  0.00119099  0.66596520  0.00189236  1
  Ni  Ni7  1  0.16864420  0.83439840  0.16754953  1
  Fe  Fe8  1  0.00201870  0.66813529  0.33318793  1
  Ni  Ni9  1  0.33476951  1.00037674  0.00224585  1
  Ni  Ni10  1  0.49668070  0.16758244  0.16878683  1
  Ni  Ni11  1  0.33522379  1.00027000  0.33305464  1
  Ni  Ni12  1  0.33312335  0.33526069  0.00276087  1
  Ni  Ni13  1  0.50053812  0.50192898  0.16814135  1
  Ni  Ni14  1  0.33457975  0.33520625  0.33324675  1
  Ni  Ni15  1  0.33355992  0.66761758  1.00073823  1
  Ni  Ni16  1  0.50034039  0.83374360  0.16765467  1
  Ni  Ni17  1  0.33393461  0.66777850  0.33523687  1
  Cr  Cr18  1  0.66527617  0.99926067  1.00035592  1
  Cr  Cr19  1  0.83563638  0.16900010  0.16953324  1
  Ni  Ni20  1  0.66749854  1.00047258  0.33567423  1
  Cr  Cr21  1  0.66669540  0.33620154  0.00113140  1
  Ni  Ni22  1  0.83543620  0.50376251  0.16765623  1
  Ni  Ni23  1  0.66704841  0.33391381  0.33452528  1
  Ni  Ni24  1  0.66850959  0.66761354  0.00114745  1
  Ni  Ni25  1  0.83427399  0.83054576  0.16907305  1
  Ni  Ni26  1  0.66749058  0.66886900  0.33324929  1
  Cr  Cr27  1  0.16809386  0.16779906  0.50068732  1
  Ni  Ni28  1  0.99882434  1.00064088  0.66703354  1
  Cr  Cr29  1  0.16920462  0.16826709  0.83428081  1
  Ni  Ni30  1  0.17031216  0.50145562  0.50113027  1
  Fe  Fe31  1  1.00015890  0.33345480  0.66819620  1
  Fe  Fe32  1  0.16930528  0.50208398  0.83559685  1
  Ni  Ni33  1  0.16867010  0.83418144  0.50125921  1
  Cr  Cr34  1  0.00255908  0.66927251  0.66785628  1
  Fe  Fe35  1  0.17002547  0.83278481  0.83436474  1
  Ni  Ni36  1  0.50224318  0.16761566  0.50150243  1
  Ni  Ni37  1  0.33575892  0.99989021  0.66795282  1
  Ni  Ni38  1  0.49968850  0.16752770  0.83296612  1
  Ni  Ni39  1  0.49947334  0.50136270  0.50175423  1
  Ni  Ni40  1  0.33679424  0.33603347  0.66724771  1
  Ni  Ni41  1  0.50153204  0.50222901  0.83336271  1
  Ni  Ni42  1  0.50112120  0.83427698  0.50183135  1
  Ni  Ni43  1  0.33530439  0.66732945  0.66727939  1
  Ni  Ni44  1  0.50132961  0.83349812  0.83377000  1
  Ni  Ni45  1  0.83337574  0.16597412  0.50266354  1
  Ni  Ni46  1  0.66866711  0.00212899  0.66755589  1
  Fe  Fe47  1  0.83240715  0.16846499  0.83143219  1
  Cr  Cr48  1  0.83280818  0.50053923  0.49980801  1
  Ni  Ni49  1  0.66655041  0.33270746  0.66818996  1
  Ni  Ni50  1  0.83405983  0.50210383  0.83534413  1
  Ni  Ni51  1  0.83346737  0.83695013  0.50037871  1
  Ni  Ni52  1  0.66581197  0.66841733  0.66885441  1
  Ni  Ni53  1  0.83303706  0.83239794  0.83380233  1
" 