5084,Ni74Fe24Cr0_0,-242.380381351647, 209.612620581944,Ni74Fe24Cr0,"# generated using pymatgen
 data_CrFe13Ni40
_symmetry_space_group_name_H-M   'P 1'
_cell_length_a   7.42118731
_cell_length_b   7.42118731
_cell_length_c   10.49514374
_cell_angle_alpha   90.00000000
_cell_angle_beta   90.00000000
_cell_angle_gamma   90.00000000
_symmetry_Int_Tables_number   1
_chemical_formula_structural   CrFe13Ni40
_chemical_formula_sum   'Cr1 Fe13 Ni40'
_cell_volume   578.00976792
_cell_formula_units_Z   1
loop_
 _symmetry_equiv_pos_site_id
 _symmetry_equiv_pos_as_xyz
  1  'x, y, z'
loop_
 _atom_site_type_symbol
 _atom_site_label
 _atom_site_symmetry_multiplicity
 _atom_site_fract_x
 _atom_site_fract_y
 _atom_site_fract_z
 _atom_site_occupancy
  Ni  Ni0  1  0.00327464  0.00374131  1.00286081  1
  Ni  Ni1  1  0.17014601  0.16964511  0.17062144  1
  Ni  Ni2  1  0.00323516  0.00357362  0.33695449  1
  Ni  Ni3  1  1.00261493  0.33566117  1.00234576  1
  Ni  Ni4  1  0.16885240  0.50338991  0.16983196  1
  Ni  Ni5  1  1.00261487  0.33579093  0.33750365  1
  Fe  Fe6  1  1.00296555  0.66963368  0.00343298  1
  Ni  Ni7  1  0.17044202  0.83623426  0.16983168  1
  Ni  Ni8  1  0.00324278  0.66990484  0.33669456  1
  Ni  Ni9  1  0.33569607  1.00235252  1.00249484  1
  Ni  Ni10  1  0.50323132  0.16943326  0.16986013  1
  Ni  Ni11  1  0.33493956  1.00184241  0.33590099  1
  Ni  Ni12  1  0.33627895  0.33697568  1.00206271  1
  Fe  Fe13  1  0.50256208  0.50266527  0.16990025  1
  Ni  Ni14  1  0.33555995  0.33752332  0.33629432  1
  Ni  Ni15  1  0.33707785  0.66994270  1.00272371  1
  Ni  Ni16  1  0.50245068  0.83693083  0.17053291  1
  Ni  Ni17  1  0.33666231  0.66990482  0.33696776  1
  Ni  Ni18  1  0.67029949  1.00294288  1.00192750  1
  Ni  Ni19  1  0.83589213  0.17102341  0.16982510  1
  Ni  Ni20  1  0.67109561  1.00247209  0.33643125  1
  Ni  Ni21  1  0.67037452  0.33704394  1.00308778  1
  Ni  Ni22  1  0.83658481  0.50261232  0.17062840  1
  Ni  Ni23  1  0.67109177  0.33751315  0.33527166  1
  Ni  Ni24  1  0.66898541  0.66928261  1.00223583  1
  Fe  Fe25  1  0.83659768  0.83711845  0.17004708  1
  Ni  Ni26  1  0.66936268  0.66928370  0.33749585  1
  Ni  Ni27  1  0.16806919  0.16892296  0.50221293  1
  Ni  Ni28  1  0.00376173  0.00338806  0.66945614  1
  Ni  Ni29  1  0.17079627  0.16892693  0.83643504  1
  Fe  Fe30  1  0.16977097  0.50319985  0.50193226  1
  Fe  Fe31  1  0.00356717  0.33547368  0.66973776  1
  Fe  Fe32  1  0.17068474  0.50362440  0.83729106  1
  Ni  Ni33  1  0.16868924  0.83665140  0.50276285  1
  Fe  Fe34  1  0.00326471  0.67097930  0.66952424  1
  Ni  Ni35  1  0.16953565  0.83731938  0.83667647  1
  Cr  Cr36  1  0.50258937  0.17058476  0.50220822  1
  Ni  Ni37  1  0.33426394  1.00093508  0.67087142  1
  Ni  Ni38  1  0.50217630  0.17037183  0.83660220  1
  Ni  Ni39  1  0.50356457  0.50424953  0.50223918  1
  Fe  Fe40  1  0.33598654  0.33645876  0.67065722  1
  Ni  Ni41  1  0.50435630  0.50249562  0.83729583  1
  Fe  Fe42  1  0.50262234  0.83531986  0.50262876  1
  Ni  Ni43  1  0.33684778  0.67054129  0.66957577  1
  Ni  Ni44  1  0.50290804  0.83640096  0.83534473  1
  Ni  Ni45  1  0.83822495  0.16957669  0.50324260  1
  Fe  Fe46  1  0.67031438  1.00212755  0.67065489  1
  Fe  Fe47  1  0.83593642  0.16934885  0.83667593  1
  Fe  Fe48  1  0.83641370  0.50260941  0.50251958  1
  Ni  Ni49  1  0.67116775  0.33784415  0.67091149  1
  Ni  Ni50  1  0.83538149  0.50375213  0.83593455  1
  Ni  Ni51  1  0.83767097  0.83606218  0.50227299  1
  Fe  Fe52  1  0.66932920  0.67010722  0.67025465  1
  Ni  Ni53  1  0.83682546  0.83514037  0.83716623  1
" 