3041,Ni74Fe24Cr0_16,-242.061000960773, 209.958884508529,Ni74Fe24Cr0,"# generated using pymatgen
 data_CrFe13Ni40
_symmetry_space_group_name_H-M   'P 1'
_cell_length_a   7.41901061
_cell_length_b   7.41901061
_cell_length_c   10.49206543
_cell_angle_alpha   90.00000000
_cell_angle_beta   90.00000000
_cell_angle_gamma   90.00000000
_symmetry_Int_Tables_number   1
_chemical_formula_structural   CrFe13Ni40
_chemical_formula_sum   'Cr1 Fe13 Ni40'
_cell_volume   577.50131145
_cell_formula_units_Z   1
loop_
 _symmetry_equiv_pos_site_id
 _symmetry_equiv_pos_as_xyz
  1  'x, y, z'
loop_
 _atom_site_type_symbol
 _atom_site_label
 _atom_site_symmetry_multiplicity
 _atom_site_fract_x
 _atom_site_fract_y
 _atom_site_fract_z
 _atom_site_occupancy
  Fe  Fe0  1  0.00339478  1.00231493  1.00312279  1
  Fe  Fe1  1  0.17032733  0.16996095  0.17076052  1
  Ni  Ni2  1  0.00360918  1.00207555  0.33614386  1
  Ni  Ni3  1  0.00400363  0.33699459  0.00487362  1
  Ni  Ni4  1  0.16929640  0.50353476  0.17022109  1
  Ni  Ni5  1  1.00259386  0.33678418  0.33686517  1
  Ni  Ni6  1  0.00390672  0.67063929  0.00357850  1
  Ni  Ni7  1  0.17002936  0.83649366  0.16979480  1
  Fe  Fe8  1  0.00436932  0.66883951  0.33561655  1
  Ni  Ni9  1  0.33744295  1.00261247  1.00307259  1
  Ni  Ni10  1  0.50289980  0.16961568  0.17090661  1
  Ni  Ni11  1  0.33569875  1.00180848  0.33716915  1
  Ni  Ni12  1  0.33630089  0.33662459  1.00322009  1
  Fe  Fe13  1  0.50296826  0.50317436  0.16946833  1
  Ni  Ni14  1  0.33654173  0.33689190  0.33715535  1
  Ni  Ni15  1  0.33576346  0.67044522  0.00394035  1
  Fe  Fe16  1  0.50261574  0.83644565  0.16971994  1
  Fe  Fe17  1  0.33491944  0.66879354  0.33732822  1
  Ni  Ni18  1  0.66971105  1.00271339  0.00419589  1
  Fe  Fe19  1  0.83737788  0.17022633  0.17032605  1
  Fe  Fe20  1  0.66998469  0.00569669  0.33635573  1
  Ni  Ni21  1  0.66945108  0.33548625  0.00447215  1
  Ni  Ni22  1  0.83680727  0.50349947  0.16988382  1
  Ni  Ni23  1  0.67049591  0.33838474  0.33628275  1
  Ni  Ni24  1  0.66989693  0.67150002  0.00371571  1
  Ni  Ni25  1  0.83701226  0.83601230  0.17046573  1
  Fe  Fe26  1  0.67040476  0.66947821  0.33620682  1
  Ni  Ni27  1  0.16904499  0.16909742  0.50225761  1
  Ni  Ni28  1  1.00285433  0.00361349  0.67056900  1
  Ni  Ni29  1  0.17051819  0.16978695  0.83742186  1
  Ni  Ni30  1  0.16945404  0.50308529  0.50309260  1
  Ni  Ni31  1  0.00361215  0.33481620  0.66822553  1
  Ni  Ni32  1  0.17151496  0.50314368  0.83651915  1
  Ni  Ni33  1  0.17086842  0.83730459  0.50299646  1
  Fe  Fe34  1  0.00543103  0.67060153  0.66968844  1
  Ni  Ni35  1  0.17055445  0.83680008  0.83705484  1
  Fe  Fe36  1  0.50186886  0.17097622  0.50310450  1
  Ni  Ni37  1  0.33641449  1.00165932  0.66938885  1
  Ni  Ni38  1  0.50342648  0.16939008  0.83477881  1
  Ni  Ni39  1  0.50391263  0.50397720  0.50244749  1
  Ni  Ni40  1  0.33625120  0.33792163  0.66932457  1
  Ni  Ni41  1  0.50173855  0.50285813  0.83815049  1
  Ni  Ni42  1  0.50276613  0.83706732  0.50157959  1
  Ni  Ni43  1  0.33701555  0.67036874  0.66994080  1
  Ni  Ni44  1  0.50309911  0.83748294  0.83802656  1
  Ni  Ni45  1  0.83667287  0.17045294  0.50198717  1
  Ni  Ni46  1  0.67045866  1.00298750  0.66835921  1
  Ni  Ni47  1  0.83576973  0.16848218  0.83834727  1
  Ni  Ni48  1  0.83632751  0.50217414  0.50282635  1
  Ni  Ni49  1  0.66968065  0.33550145  0.66888695  1
  Cr  Cr50  1  0.83648715  0.50255366  0.83629937  1
  Fe  Fe51  1  0.83793342  0.83637539  0.50306158  1
  Fe  Fe52  1  0.66725248  0.67075232  0.66952635  1
  Ni  Ni53  1  0.83606954  0.83854392  0.83609737  1
" 