3930,Ni74Fe24Cr0_6,-242.495894833171, 211.343817938189,Ni74Fe24Cr0,"# generated using pymatgen
 data_CrFe13Ni40
_symmetry_space_group_name_H-M   'P 1'
_cell_length_a   7.41951719
_cell_length_b   7.41951719
_cell_length_c   10.49278184
_cell_angle_alpha   90.00000000
_cell_angle_beta   90.00000000
_cell_angle_gamma   90.00000000
_symmetry_Int_Tables_number   1
_chemical_formula_structural   CrFe13Ni40
_chemical_formula_sum   'Cr1 Fe13 Ni40'
_cell_volume   577.61961713
_cell_formula_units_Z   1
loop_
 _symmetry_equiv_pos_site_id
 _symmetry_equiv_pos_as_xyz
  1  'x, y, z'
loop_
 _atom_site_type_symbol
 _atom_site_label
 _atom_site_symmetry_multiplicity
 _atom_site_fract_x
 _atom_site_fract_y
 _atom_site_fract_z
 _atom_site_occupancy
  Ni  Ni0  1  1.00263117  1.00272096  0.00365216  1
  Fe  Fe1  1  0.16801571  0.16932691  0.16993499  1
  Fe  Fe2  1  0.00321151  0.00383042  0.33615919  1
  Fe  Fe3  1  1.00290684  0.33662763  1.00292661  1
  Ni  Ni4  1  0.16971029  0.50348244  0.16977274  1
  Ni  Ni5  1  1.00266681  0.33698239  0.33612889  1
  Ni  Ni6  1  1.00296770  0.67072372  1.00182140  1
  Ni  Ni7  1  0.17082508  0.83574419  0.17023416  1
  Ni  Ni8  1  0.00347387  0.66941084  0.33776510  1
  Ni  Ni9  1  0.33543916  1.00234036  1.00161843  1
  Cr  Cr10  1  0.50353489  0.16888932  0.16980532  1
  Ni  Ni11  1  0.33656124  1.00202068  0.33797262  1
  Ni  Ni12  1  0.33592169  0.33733397  1.00211212  1
  Fe  Fe13  1  0.50344802  0.50522703  0.16957473  1
  Ni  Ni14  1  0.33537584  0.33733452  0.33811231  1
  Ni  Ni15  1  0.33627023  0.66993588  1.00296880  1
  Ni  Ni16  1  0.50272347  0.83570675  0.16964681  1
  Ni  Ni17  1  0.33575790  0.67025333  0.33661768  1
  Ni  Ni18  1  0.67153612  1.00237534  1.00164449  1
  Ni  Ni19  1  0.83752010  0.17007603  0.17005021  1
  Ni  Ni20  1  0.67072485  1.00283153  0.33766398  1
  Ni  Ni21  1  0.67075322  0.33699749  1.00131164  1
  Ni  Ni22  1  0.83748349  0.50264017  0.17005244  1
  Ni  Ni23  1  0.67156763  0.33618088  0.33867866  1
  Ni  Ni24  1  0.67037262  0.67023880  0.00386237  1
  Ni  Ni25  1  0.83605952  0.83689460  0.16969403  1
  Fe  Fe26  1  0.66954011  0.66968845  0.33700000  1
  Ni  Ni27  1  0.16980688  0.17105575  0.50187309  1
  Fe  Fe28  1  0.00344658  0.00362690  0.67064716  1
  Ni  Ni29  1  0.16981048  0.17026461  0.83792195  1
  Ni  Ni30  1  0.17069035  0.50176072  0.50338137  1
  Ni  Ni31  1  0.00357024  0.33605028  0.67020493  1
  Ni  Ni32  1  0.17072923  0.50252621  0.83645371  1
  Fe  Fe33  1  0.16985703  0.83564059  0.50267543  1
  Fe  Fe34  1  0.00338035  0.66867660  0.67004272  1
  Ni  Ni35  1  0.17100088  0.83681703  0.83632673  1
  Fe  Fe36  1  0.50344701  0.17052059  0.50211831  1
  Fe  Fe37  1  0.33623720  1.00296947  0.67003918  1
  Fe  Fe38  1  0.50290244  0.17017036  0.83755701  1
  Ni  Ni39  1  0.50232253  0.50380701  0.50197241  1
  Ni  Ni40  1  0.33536223  0.33692818  0.66938239  1
  Ni  Ni41  1  0.50262835  0.50375593  0.83754345  1
  Ni  Ni42  1  0.50347005  0.83624185  0.50246211  1
  Ni  Ni43  1  0.33708660  0.66955684  0.67002025  1
  Ni  Ni44  1  0.50296781  0.83620531  0.83750053  1
  Ni  Ni45  1  0.83714547  0.16990759  0.50243842  1
  Fe  Fe46  1  0.66992427  1.00261368  0.66968017  1
  Ni  Ni47  1  0.83686673  0.16992595  0.83712124  1
  Ni  Ni48  1  0.83659459  0.50257624  0.50307855  1
  Fe  Fe49  1  0.66992387  0.33803117  0.66986782  1
  Ni  Ni50  1  0.83625127  0.50256375  0.83648021  1
  Ni  Ni51  1  0.83509902  0.83712599  0.50269993  1
  Ni  Ni52  1  0.66980337  0.67071170  0.66947690  1
  Ni  Ni53  1  0.83564171  0.83712069  0.83721775  1
" 