7507,Ni74Fe12Cr12_10,-235.828602078659, 184.028817572188,Ni74Fe12Cr12,"# generated using pymatgen
 data_Cr4Fe3Ni20
_symmetry_space_group_name_H-M   'P 1'
_cell_length_a   7.45157095
_cell_length_b   7.45157095
_cell_length_c   10.53811269
_cell_angle_alpha   90.00000000
_cell_angle_beta   90.00000000
_cell_angle_gamma   90.00000000
_symmetry_Int_Tables_number   1
_chemical_formula_structural   Cr4Fe3Ni20
_chemical_formula_sum   'Cr8 Fe6 Ni40'
_cell_volume   585.13829269
_cell_formula_units_Z   2
loop_
 _symmetry_equiv_pos_site_id
 _symmetry_equiv_pos_as_xyz
  1  'x, y, z'
loop_
 _atom_site_type_symbol
 _atom_site_label
 _atom_site_symmetry_multiplicity
 _atom_site_fract_x
 _atom_site_fract_y
 _atom_site_fract_z
 _atom_site_occupancy
  Ni  Ni0  1  0.00223909  0.00221959  0.00192038  1
  Ni  Ni1  1  0.16752968  0.16724903  0.16809979  1
  Ni  Ni2  1  0.00291400  0.00178260  0.33451124  1
  Ni  Ni3  1  1.00089166  0.33190607  0.99936400  1
  Ni  Ni4  1  0.16994816  0.50022273  0.16787052  1
  Ni  Ni5  1  0.00164852  0.33216684  0.33577795  1
  Fe  Fe6  1  0.00328982  0.66732410  1.00038227  1
  Ni  Ni7  1  0.16830623  0.83564070  0.16776378  1
  Fe  Fe8  1  0.00214111  0.66835875  0.33592420  1
  Ni  Ni9  1  0.33213845  1.00080265  0.00186083  1
  Fe  Fe10  1  0.49959246  0.16852119  0.16674917  1
  Ni  Ni11  1  0.33073657  0.99934578  0.33354982  1
  Ni  Ni12  1  0.33457657  0.33441798  1.00063560  1
  Ni  Ni13  1  0.49977311  0.50145795  0.16815889  1
  Ni  Ni14  1  0.33308230  0.33569497  0.33348591  1
  Ni  Ni15  1  0.33510971  0.66789555  0.00108316  1
  Ni  Ni16  1  0.50045206  0.83346376  0.16732752  1
  Ni  Ni17  1  0.33578863  0.66807660  0.33499779  1
  Fe  Fe18  1  0.66755391  0.00301860  0.00264005  1
  Ni  Ni19  1  0.83558641  0.16656608  0.16736619  1
  Cr  Cr20  1  0.66920477  0.99919667  0.33377381  1
  Ni  Ni21  1  0.66764784  0.33488272  0.99975881  1
  Cr  Cr22  1  0.83410320  0.50083947  0.16770542  1
  Ni  Ni23  1  0.66838472  0.33722476  0.33450483  1
  Ni  Ni24  1  0.66622629  0.66654623  0.00212370  1
  Ni  Ni25  1  0.83435935  0.83587429  0.16686948  1
  Ni  Ni26  1  0.66594715  0.66681007  0.33545757  1
  Ni  Ni27  1  0.16651308  0.16910777  0.49920389  1
  Cr  Cr28  1  0.00133284  0.00212335  0.66659665  1
  Ni  Ni29  1  0.16793026  0.16975298  0.83581118  1
  Ni  Ni30  1  0.16719801  0.50075587  0.50152882  1
  Ni  Ni31  1  1.00015650  0.33520433  0.66796993  1
  Ni  Ni32  1  0.16760538  0.50042321  0.83371817  1
  Ni  Ni33  1  0.16739060  0.83324973  0.49965563  1
  Ni  Ni34  1  0.00281822  0.66593695  0.66732197  1
  Ni  Ni35  1  0.16779748  0.83293402  0.83569775  1
  Cr  Cr36  1  0.50005955  0.16917375  0.50121157  1
  Cr  Cr37  1  0.33305323  1.00024351  0.66770431  1
  Ni  Ni38  1  0.50182358  0.17044609  0.83537628  1
  Ni  Ni39  1  0.50092247  0.50183536  0.50029002  1
  Ni  Ni40  1  0.33406687  0.33673728  0.66899446  1
  Ni  Ni41  1  0.50023866  0.49782659  0.83466588  1
  Ni  Ni42  1  0.50086370  0.83231558  0.50048260  1
  Ni  Ni43  1  0.33292860  0.66592605  0.66703227  1
  Cr  Cr44  1  0.49931735  0.83476799  0.83488689  1
  Fe  Fe45  1  0.83638919  0.16974186  0.50078808  1
  Fe  Fe46  1  0.66835350  0.00349749  0.66688944  1
  Ni  Ni47  1  0.83335930  0.17063317  0.83418668  1
  Ni  Ni48  1  0.83499754  0.50096068  0.50048574  1
  Ni  Ni49  1  0.66889501  0.33465972  0.66885204  1
  Ni  Ni50  1  0.83527515  0.49795637  0.83492739  1
  Ni  Ni51  1  0.83486268  0.83299415  0.50009922  1
  Cr  Cr52  1  0.66683688  0.66538942  0.66558314  1
  Cr  Cr53  1  0.83592068  0.83397915  0.83645536  1
" 