2627,Ni74Fe12Cr12_5,-235.584235795684, 180.316439031267,Ni74Fe12Cr12,"# generated using pymatgen
 data_Cr4Fe3Ni20
_symmetry_space_group_name_H-M   'P 1'
_cell_length_a   7.45062211
_cell_length_b   7.45062211
_cell_length_c   10.53677084
_cell_angle_alpha   90.00000000
_cell_angle_beta   90.00000000
_cell_angle_gamma   90.00000000
_symmetry_Int_Tables_number   1
_chemical_formula_structural   Cr4Fe3Ni20
_chemical_formula_sum   'Cr8 Fe6 Ni40'
_cell_volume   584.91479789
_cell_formula_units_Z   2
loop_
 _symmetry_equiv_pos_site_id
 _symmetry_equiv_pos_as_xyz
  1  'x, y, z'
loop_
 _atom_site_type_symbol
 _atom_site_label
 _atom_site_symmetry_multiplicity
 _atom_site_fract_x
 _atom_site_fract_y
 _atom_site_fract_z
 _atom_site_occupancy
  Ni  Ni0  1  1.00026373  1.00049505  0.00179708  1
  Fe  Fe1  1  0.16495019  0.16613485  0.16800046  1
  Ni  Ni2  1  1.00019070  1.00008268  0.33432813  1
  Ni  Ni3  1  0.00143447  0.33420881  0.00166291  1
  Ni  Ni4  1  0.16308717  0.50251872  0.16643632  1
  Ni  Ni5  1  0.99844087  0.33468076  0.33364364  1
  Ni  Ni6  1  0.00344667  0.66860203  0.00128274  1
  Ni  Ni7  1  0.16554728  0.83444801  0.16646743  1
  Ni  Ni8  1  0.99945126  0.66854210  0.33429610  1
  Fe  Fe9  1  0.33350227  1.00015136  1.00028437  1
  Ni  Ni10  1  0.50250245  0.16469050  0.16875070  1
  Ni  Ni11  1  0.33333986  0.00233001  0.33361689  1
  Cr  Cr12  1  0.33291407  0.33487545  1.00054316  1
  Cr  Cr13  1  0.50159917  0.50046197  0.16877516  1
  Cr  Cr14  1  0.33447491  0.33258259  0.33603498  1
  Ni  Ni15  1  0.33100083  0.66899282  0.99927966  1
  Cr  Cr16  1  0.50083766  0.83801522  0.16782370  1
  Cr  Cr17  1  0.33166361  0.66823343  0.33549910  1
  Ni  Ni18  1  0.66933440  0.00164332  0.99985098  1
  Ni  Ni19  1  0.83486581  0.16714679  0.16820675  1
  Ni  Ni20  1  0.66977454  0.00334268  0.33436324  1
  Cr  Cr21  1  0.66977460  0.33199879  1.00004141  1
  Ni  Ni22  1  0.83901735  0.50042007  0.16952639  1
  Ni  Ni23  1  0.66988859  0.33305581  0.33493550  1
  Cr  Cr24  1  0.66898989  0.66919128  1.00031590  1
  Ni  Ni25  1  0.83736050  0.83574000  0.16889257  1
  Fe  Fe26  1  0.67300274  0.66712414  0.33578749  1
  Ni  Ni27  1  0.16715645  0.16708872  0.50101968  1
  Ni  Ni28  1  0.00146405  0.00144971  0.66718084  1
  Ni  Ni29  1  0.16698499  0.16792080  0.83432347  1
  Ni  Ni30  1  0.16628192  0.50087392  0.50248622  1
  Ni  Ni31  1  1.00086462  0.33337877  0.66800058  1
  Ni  Ni32  1  0.16733810  0.50133884  0.83438559  1
  Ni  Ni33  1  0.16570241  0.83534232  0.50180358  1
  Fe  Fe34  1  0.00126046  0.66704696  0.66735171  1
  Fe  Fe35  1  0.16796840  0.83448767  0.83457115  1
  Ni  Ni36  1  0.50138036  0.16862915  0.50139271  1
  Ni  Ni37  1  0.33284536  0.00164830  0.66863226  1
  Ni  Ni38  1  0.50092125  0.16546191  0.83316115  1
  Ni  Ni39  1  0.50227413  0.49935218  0.50278244  1
  Ni  Ni40  1  0.33529335  0.33502807  0.66725335  1
  Ni  Ni41  1  0.49950034  0.50272603  0.83190692  1
  Cr  Cr42  1  0.50147342  0.83553478  0.50087947  1
  Ni  Ni43  1  0.33511453  0.66663089  0.66901151  1
  Ni  Ni44  1  0.50066296  0.83511768  0.83462796  1
  Ni  Ni45  1  0.83476908  0.16804527  0.50088675  1
  Fe  Fe46  1  0.66818741  0.00246769  0.66892752  1
  Ni  Ni47  1  0.83539953  0.16675417  0.83421136  1
  Ni  Ni48  1  0.83475395  0.50080873  0.50020109  1
  Ni  Ni49  1  0.66714878  0.33564877  0.66784971  1
  Ni  Ni50  1  0.83647069  0.50108324  0.83358018  1
  Ni  Ni51  1  0.83629534  0.83445182  0.50012818  1
  Ni  Ni52  1  0.66734592  0.66602805  0.66823835  1
  Ni  Ni53  1  0.83401029  0.83547001  0.83428716  1
" 