4603,Ni74Fe22Cr2_19,-241.193276672069, 208.669340475305,Ni74Fe22Cr2,"# generated using pymatgen
 data_Cr(Fe3Ni10)2
_symmetry_space_group_name_H-M   'P 1'
_cell_length_a   7.42227783
_cell_length_b   7.42227783
_cell_length_c   10.49668597
_cell_angle_alpha   90.00000000
_cell_angle_beta   90.00000000
_cell_angle_gamma   90.00000000
_symmetry_Int_Tables_number   1
_chemical_formula_structural   Cr(Fe3Ni10)2
_chemical_formula_sum   'Cr2 Fe12 Ni40'
_cell_volume   578.26461523
_cell_formula_units_Z   2
loop_
 _symmetry_equiv_pos_site_id
 _symmetry_equiv_pos_as_xyz
  1  'x, y, z'
loop_
 _atom_site_type_symbol
 _atom_site_label
 _atom_site_symmetry_multiplicity
 _atom_site_fract_x
 _atom_site_fract_y
 _atom_site_fract_z
 _atom_site_occupancy
  Ni  Ni0  1  0.00558785  1.00280475  0.00382648  1
  Ni  Ni1  1  0.17011573  0.17128633  0.16917209  1
  Ni  Ni2  1  0.00469702  0.00308767  0.33575751  1
  Ni  Ni3  1  1.00285294  0.33603707  1.00255668  1
  Ni  Ni4  1  0.16918121  0.50105666  0.17064303  1
  Ni  Ni5  1  1.00226529  0.33664245  0.33714496  1
  Ni  Ni6  1  0.00378134  0.66944068  0.00373661  1
  Ni  Ni7  1  0.16781611  0.83690619  0.16986203  1
  Ni  Ni8  1  0.00322492  0.66983044  0.33576280  1
  Ni  Ni9  1  0.33520461  0.00364508  1.00201965  1
  Ni  Ni10  1  0.50083145  0.17120922  0.17128689  1
  Ni  Ni11  1  0.33517367  0.00413229  0.33776876  1
  Fe  Fe12  1  0.33344686  0.33757028  1.00222010  1
  Ni  Ni13  1  0.50187496  0.50124995  0.16976733  1
  Fe  Fe14  1  0.33584898  0.33631873  0.33765522  1
  Ni  Ni15  1  0.33481774  0.67051643  1.00224867  1
  Cr  Cr16  1  0.50458891  0.83645105  0.16972570  1
  Fe  Fe17  1  0.33596395  0.66972638  0.33724990  1
  Fe  Fe18  1  0.67122425  1.00110687  1.00208075  1
  Fe  Fe19  1  0.83762473  0.16874367  0.17117360  1
  Ni  Ni20  1  0.66963131  0.00413438  0.33651674  1
  Cr  Cr21  1  0.66916563  0.33599672  1.00274270  1
  Fe  Fe22  1  0.83751817  0.50350631  0.17048237  1
  Ni  Ni23  1  0.66905275  0.33698302  0.33628012  1
  Ni  Ni24  1  0.66989296  0.66778203  1.00183179  1
  Ni  Ni25  1  0.83756972  0.83549760  0.16965967  1
  Ni  Ni26  1  0.67063158  0.66735688  0.33670266  1
  Ni  Ni27  1  0.16973270  0.17094044  0.50368835  1
  Ni  Ni28  1  0.00409352  1.00223859  0.66945465  1
  Ni  Ni29  1  0.17070800  0.17058122  0.83652366  1
  Fe  Fe30  1  0.16949724  0.50556898  0.50368371  1
  Fe  Fe31  1  0.00324130  0.33644801  0.66935518  1
  Ni  Ni32  1  0.16727877  0.50205845  0.83501861  1
  Ni  Ni33  1  0.16893699  0.83915676  0.50255711  1
  Ni  Ni34  1  1.00298379  0.67076366  0.66951535  1
  Ni  Ni35  1  0.16925244  0.83678153  0.83656291  1
  Fe  Fe36  1  0.50366976  0.16844672  0.50363632  1
  Ni  Ni37  1  0.33557456  0.00310009  0.66954691  1
  Ni  Ni38  1  0.50148787  0.16887790  0.83518205  1
  Ni  Ni39  1  0.50484431  0.50253096  0.50380071  1
  Ni  Ni40  1  0.33766383  0.33629959  0.67002916  1
  Fe  Fe41  1  0.50089136  0.50511579  0.83487448  1
  Ni  Ni42  1  0.50436555  0.83554952  0.50305334  1
  Ni  Ni43  1  0.33557912  0.67074336  0.66918029  1
  Ni  Ni44  1  0.50405377  0.83780846  0.83605588  1
  Fe  Fe45  1  0.83631028  0.16827235  0.50265209  1
  Ni  Ni46  1  0.66997026  0.00344057  0.67021871  1
  Fe  Fe47  1  0.83840258  0.16781500  0.83508205  1
  Ni  Ni48  1  0.83574870  0.50304323  0.50282116  1
  Ni  Ni49  1  0.66972375  0.33652465  0.66971045  1
  Ni  Ni50  1  0.83739373  0.50387522  0.83535601  1
  Ni  Ni51  1  0.83572652  0.83496523  0.50283172  1
  Ni  Ni52  1  0.66989745  0.66849616  0.67011465  1
  Ni  Ni53  1  0.83624610  0.83439736  0.83647862  1
" 