3153,Ni74Fe12Cr12_18,-235.677055748256, 182.978372991033,Ni74Fe12Cr12,"# generated using pymatgen
 data_Cr4Fe3Ni20
_symmetry_space_group_name_H-M   'P 1'
_cell_length_a   7.45523407
_cell_length_b   7.45523407
_cell_length_c   10.54329313
_cell_angle_alpha   90.00000000
_cell_angle_beta   90.00000000
_cell_angle_gamma   90.00000000
_symmetry_Int_Tables_number   1
_chemical_formula_structural   Cr4Fe3Ni20
_chemical_formula_sum   'Cr8 Fe6 Ni40'
_cell_volume   586.00166172
_cell_formula_units_Z   2
loop_
 _symmetry_equiv_pos_site_id
 _symmetry_equiv_pos_as_xyz
  1  'x, y, z'
loop_
 _atom_site_type_symbol
 _atom_site_label
 _atom_site_symmetry_multiplicity
 _atom_site_fract_x
 _atom_site_fract_y
 _atom_site_fract_z
 _atom_site_occupancy
  Ni  Ni0  1  0.99961144  1.00065765  1.00050777  1
  Cr  Cr1  1  0.16740125  0.16602531  0.16851288  1
  Ni  Ni2  1  0.99950328  0.99988534  0.33464527  1
  Cr  Cr3  1  0.99969304  0.33358147  0.99943730  1
  Ni  Ni4  1  0.16950001  0.50157976  0.16870412  1
  Ni  Ni5  1  0.99936291  0.33492695  0.33454173  1
  Cr  Cr6  1  1.00046586  0.66786708  0.00184010  1
  Ni  Ni7  1  0.16792885  0.83462467  0.16746644  1
  Ni  Ni8  1  0.99907127  0.66756730  0.33367529  1
  Ni  Ni9  1  0.33585214  1.00018412  1.00017849  1
  Fe  Fe10  1  0.50224276  0.16782776  0.16729797  1
  Ni  Ni11  1  0.33491900  0.00128858  0.33517399  1
  Ni  Ni12  1  0.33624392  0.33407891  1.00037573  1
  Ni  Ni13  1  0.50149969  0.50057183  0.16635568  1
  Ni  Ni14  1  0.33493254  0.33339774  0.33451777  1
  Ni  Ni15  1  0.33633038  0.66811283  0.00267199  1
  Ni  Ni16  1  0.50096379  0.83352803  0.16684410  1
  Cr  Cr17  1  0.33364397  0.66762808  0.33298329  1
  Fe  Fe18  1  0.66704837  1.00051173  1.00076382  1
  Ni  Ni19  1  0.83247430  0.16670627  0.16845567  1
  Ni  Ni20  1  0.66796036  0.00099534  0.33308531  1
  Ni  Ni21  1  0.66633807  0.33350817  0.00154028  1
  Ni  Ni22  1  0.83137706  0.50055118  0.16980804  1
  Ni  Ni23  1  0.66807899  0.33382788  0.33381187  1
  Ni  Ni24  1  0.66586657  0.66829543  0.00110638  1
  Ni  Ni25  1  0.83348539  0.83511995  0.16876990  1
  Ni  Ni26  1  0.66948172  0.66755296  0.33422642  1
  Fe  Fe27  1  0.16655642  0.16725663  0.50118601  1
  Ni  Ni28  1  0.00157055  0.00162353  0.66722196  1
  Ni  Ni29  1  0.16835034  0.16780011  0.83218212  1
  Fe  Fe30  1  0.16466870  0.49951592  0.50084800  1
  Ni  Ni31  1  1.00066336  0.33449100  0.66849250  1
  Ni  Ni32  1  0.16718795  0.49765457  0.83285893  1
  Ni  Ni33  1  0.16584229  0.83697580  0.50047715  1
  Ni  Ni34  1  0.99814741  0.66626297  0.66710659  1
  Cr  Cr35  1  0.16739282  0.83638124  0.83478130  1
  Fe  Fe36  1  0.50075898  0.16852920  0.50035522  1
  Ni  Ni37  1  0.33320376  0.00311312  0.66702347  1
  Ni  Ni38  1  0.49926190  0.16724866  0.83495359  1
  Ni  Ni39  1  0.50283696  0.49865356  0.50093358  1
  Ni  Ni40  1  0.33287703  0.33177100  0.66748348  1
  Cr  Cr41  1  0.50185196  0.50018705  0.83508883  1
  Fe  Fe42  1  0.50266272  0.83445943  0.49993543  1
  Cr  Cr43  1  0.33429435  0.66784189  0.66669253  1
  Ni  Ni44  1  0.50200024  0.83559101  0.83511743  1
  Ni  Ni45  1  0.83525797  0.16830915  0.49982746  1
  Cr  Cr46  1  0.66739181  1.00048855  0.66858081  1
  Ni  Ni47  1  0.83476378  0.16755991  0.83409396  1
  Ni  Ni48  1  0.83236897  0.50060966  0.50107282  1
  Ni  Ni49  1  0.66883071  0.33519306  0.66702622  1
  Ni  Ni50  1  0.83343272  0.50039440  0.83149690  1
  Ni  Ni51  1  0.83613096  0.83345737  0.49996559  1
  Ni  Ni52  1  0.67032268  0.66659166  0.66704209  1
  Ni  Ni53  1  0.83287984  0.83442133  0.83364252  1
" 