3146,Ni74Fe12Cr12_0,-235.729336635164, 184.527840764806,Ni74Fe12Cr12,"# generated using pymatgen
 data_Cr4Fe3Ni20
_symmetry_space_group_name_H-M   'P 1'
_cell_length_a   7.44912046
_cell_length_b   7.44912046
_cell_length_c   10.53464718
_cell_angle_alpha   90.00000000
_cell_angle_beta   90.00000000
_cell_angle_gamma   90.00000000
_symmetry_Int_Tables_number   1
_chemical_formula_structural   Cr4Fe3Ni20
_chemical_formula_sum   'Cr8 Fe6 Ni40'
_cell_volume   584.56120565
_cell_formula_units_Z   2
loop_
 _symmetry_equiv_pos_site_id
 _symmetry_equiv_pos_as_xyz
  1  'x, y, z'
loop_
 _atom_site_type_symbol
 _atom_site_label
 _atom_site_symmetry_multiplicity
 _atom_site_fract_x
 _atom_site_fract_y
 _atom_site_fract_z
 _atom_site_occupancy
  Ni  Ni0  1  1.00090177  1.00090360  0.00161681  1
  Ni  Ni1  1  0.16625726  0.16667271  0.16705448  1
  Cr  Cr2  1  0.00218651  0.00140663  0.33353594  1
  Ni  Ni3  1  0.99872819  0.33327457  0.00198312  1
  Cr  Cr4  1  0.16761619  0.50157847  0.16780184  1
  Ni  Ni5  1  1.00061940  0.33514369  0.33468739  1
  Ni  Ni6  1  0.99987473  0.66943282  0.00201099  1
  Ni  Ni7  1  0.16915341  0.83523363  0.16673983  1
  Fe  Fe8  1  0.00154857  0.66746303  0.33555500  1
  Ni  Ni9  1  0.33372095  0.99957042  0.00122553  1
  Cr  Cr10  1  0.50178110  0.16729236  0.16841324  1
  Ni  Ni11  1  0.33471848  0.99998418  0.33574820  1
  Ni  Ni12  1  0.33577691  0.33448659  0.00172178  1
  Ni  Ni13  1  0.50240653  0.50248054  0.16669048  1
  Fe  Fe14  1  0.33519627  0.33377643  0.33610751  1
  Ni  Ni15  1  0.33596004  0.66955295  1.00092243  1
  Ni  Ni16  1  0.49969705  0.83387853  0.16742187  1
  Ni  Ni17  1  0.33432557  0.66925132  0.33550778  1
  Ni  Ni18  1  0.66898738  1.00071933  1.00093549  1
  Ni  Ni19  1  0.83553213  0.16937673  0.16705422  1
  Ni  Ni20  1  0.66628018  0.00159981  0.33468860  1
  Ni  Ni21  1  0.66910611  0.33551286  1.00019618  1
  Ni  Ni22  1  0.83417926  0.49958206  0.16712064  1
  Ni  Ni23  1  0.66893071  0.33475457  0.33471897  1
  Ni  Ni24  1  0.66777422  0.66737743  1.00079283  1
  Fe  Fe25  1  0.83426371  0.83485167  0.16595876  1
  Cr  Cr26  1  0.66715221  0.66769453  0.33481077  1
  Ni  Ni27  1  0.17047672  0.16797831  0.50159315  1
  Fe  Fe28  1  0.00303191  0.99891672  0.66813084  1
  Cr  Cr29  1  0.16804765  0.16619949  0.83523588  1
  Fe  Fe30  1  0.16830108  0.50175196  0.50143901  1
  Fe  Fe31  1  1.00043147  0.33592890  0.66711194  1
  Cr  Cr32  1  0.16808271  0.50315255  0.83485952  1
  Ni  Ni33  1  0.16904425  0.83404990  0.50221095  1
  Ni  Ni34  1  1.00041802  0.66865537  0.66605311  1
  Ni  Ni35  1  0.16801475  0.83457508  0.83465527  1
  Ni  Ni36  1  0.49851622  0.16864054  0.50010315  1
  Ni  Ni37  1  0.33321672  1.00078029  0.66663882  1
  Ni  Ni38  1  0.50240140  0.16858682  0.83507647  1
  Ni  Ni39  1  0.50092603  0.50055816  0.50191914  1
  Ni  Ni40  1  0.33606007  0.33411977  0.66540359  1
  Ni  Ni41  1  0.50329728  0.50128343  0.83499506  1
  Ni  Ni42  1  0.49893032  0.83441053  0.50084297  1
  Ni  Ni43  1  0.33443675  0.66870983  0.66718469  1
  Ni  Ni44  1  0.50041933  0.83374032  0.83534476  1
  Cr  Cr45  1  0.83374355  0.16942935  0.50131177  1
  Cr  Cr46  1  0.66685692  1.00064005  0.66815358  1
  Ni  Ni47  1  0.83336860  0.16882994  0.83567267  1
  Ni  Ni48  1  0.83498050  0.50199067  0.50202052  1
  Ni  Ni49  1  0.66718835  0.33695622  0.66869660  1
  Ni  Ni50  1  0.83254114  0.50110566  0.83446669  1
  Ni  Ni51  1  0.83563791  0.83164192  0.50152448  1
  Ni  Ni52  1  0.66875759  0.66582062  0.66779283  1
  Ni  Ni53  1  0.83517649  0.83367468  0.83552039  1
" 