3420,Ni74Fe24Cr0_12,-242.126437869348, 211.636986635367,Ni74Fe24Cr0,"# generated using pymatgen
 data_CrFe13Ni40
_symmetry_space_group_name_H-M   'P 1'
_cell_length_a   7.42015723
_cell_length_b   7.42015723
_cell_length_c   10.49368699
_cell_angle_alpha   90.00000000
_cell_angle_beta   90.00000000
_cell_angle_gamma   90.00000000
_symmetry_Int_Tables_number   1
_chemical_formula_structural   CrFe13Ni40
_chemical_formula_sum   'Cr1 Fe13 Ni40'
_cell_volume   577.76911302
_cell_formula_units_Z   1
loop_
 _symmetry_equiv_pos_site_id
 _symmetry_equiv_pos_as_xyz
  1  'x, y, z'
loop_
 _atom_site_type_symbol
 _atom_site_label
 _atom_site_symmetry_multiplicity
 _atom_site_fract_x
 _atom_site_fract_y
 _atom_site_fract_z
 _atom_site_occupancy
  Ni  Ni0  1  1.00310767  0.00395582  0.00349853  1
  Ni  Ni1  1  0.16980784  0.17020793  0.16992215  1
  Fe  Fe2  1  1.00270345  0.00455570  0.33618294  1
  Ni  Ni3  1  0.00338952  0.33626070  0.00368712  1
  Ni  Ni4  1  0.16979785  0.50266467  0.16927099  1
  Ni  Ni5  1  0.00333279  0.33706024  0.33631769  1
  Fe  Fe6  1  1.00315740  0.66980738  1.00268425  1
  Ni  Ni7  1  0.16953886  0.83660755  0.17003194  1
  Fe  Fe8  1  0.00321827  0.66929459  0.33664548  1
  Ni  Ni9  1  0.33639168  1.00239181  1.00300293  1
  Ni  Ni10  1  0.50321584  0.16989076  0.17017242  1
  Ni  Ni11  1  0.33726466  1.00291917  0.33674726  1
  Ni  Ni12  1  0.33558574  0.33729483  0.00335891  1
  Ni  Ni13  1  0.50263577  0.50238984  0.16960167  1
  Ni  Ni14  1  0.33564245  0.33659949  0.33664185  1
  Ni  Ni15  1  0.33714631  0.66979073  0.00360301  1
  Ni  Ni16  1  0.50321505  0.83719570  0.16953556  1
  Fe  Fe17  1  0.33706412  0.66908432  0.33644394  1
  Ni  Ni18  1  0.66997946  1.00239411  0.00349464  1
  Ni  Ni19  1  0.83645479  0.16962947  0.16942778  1
  Ni  Ni20  1  0.66923558  1.00291867  0.33623986  1
  Ni  Ni21  1  0.67050398  0.33701292  1.00306625  1
  Ni  Ni22  1  0.83704485  0.50266313  0.17034862  1
  Ni  Ni23  1  0.67050202  0.33624791  0.33700271  1
  Ni  Ni24  1  0.66893997  0.67007155  0.00331121  1
  Ni  Ni25  1  0.83672399  0.83718877  0.16953735  1
  Fe  Fe26  1  0.66919686  0.66960143  0.33632778  1
  Fe  Fe27  1  0.17094659  0.16916181  0.50152752  1
  Ni  Ni28  1  1.00240764  1.00173668  0.66898351  1
  Fe  Fe29  1  0.17071186  0.16887852  0.83828854  1
  Ni  Ni30  1  0.17098010  0.50374794  0.50257756  1
  Cr  Cr31  1  0.00319995  0.33670872  0.66994485  1
  Ni  Ni32  1  0.17024779  0.50427601  0.83763232  1
  Fe  Fe33  1  0.17026687  0.83649627  0.50375450  1
  Ni  Ni34  1  0.00353255  0.67110627  0.67010728  1
  Ni  Ni35  1  0.16883270  0.83599011  0.83566300  1
  Ni  Ni36  1  0.50388730  0.17006554  0.50322928  1
  Fe  Fe37  1  0.33692974  1.00175380  0.66998933  1
  Ni  Ni38  1  0.50330753  0.17000866  0.83608037  1
  Ni  Ni39  1  0.50171265  0.50236360  0.50389124  1
  Fe  Fe40  1  0.33831802  0.33745357  0.66970528  1
  Ni  Ni41  1  0.50269211  0.50215351  0.83598573  1
  Ni  Ni42  1  0.50389221  0.83704642  0.50371668  1
  Ni  Ni43  1  0.33707836  0.66971815  0.66937093  1
  Ni  Ni44  1  0.50330761  0.83731563  0.83622564  1
  Ni  Ni45  1  0.83537968  0.16791176  0.50268515  1
  Ni  Ni46  1  0.66993850  1.00205179  0.66974493  1
  Fe  Fe47  1  0.83543798  0.16870918  0.83748393  1
  Fe  Fe48  1  0.83491406  0.50382650  0.50244111  1
  Fe  Fe49  1  0.66839494  0.33688564  0.66976204  1
  Ni  Ni50  1  0.83653877  0.50428228  0.83648731  1
  Ni  Ni51  1  0.83676471  0.83781625  0.50380654  1
  Ni  Ni52  1  0.66886747  0.67085079  0.66930180  1
  Ni  Ni53  1  0.83733732  0.83660716  0.83613055  1
" 