8401,Ni74Fe24Cr0_2,-242.009327294815, 211.169987078178,Ni74Fe24Cr0,"# generated using pymatgen
 data_CrFe13Ni40
_symmetry_space_group_name_H-M   'P 1'
_cell_length_a   7.42055136
_cell_length_b   7.42055136
_cell_length_c   10.49424438
_cell_angle_alpha   90.00000000
_cell_angle_beta   90.00000000
_cell_angle_gamma   90.00000000
_symmetry_Int_Tables_number   1
_chemical_formula_structural   CrFe13Ni40
_chemical_formula_sum   'Cr1 Fe13 Ni40'
_cell_volume   577.86118607
_cell_formula_units_Z   1
loop_
 _symmetry_equiv_pos_site_id
 _symmetry_equiv_pos_as_xyz
  1  'x, y, z'
loop_
 _atom_site_type_symbol
 _atom_site_label
 _atom_site_symmetry_multiplicity
 _atom_site_fract_x
 _atom_site_fract_y
 _atom_site_fract_z
 _atom_site_occupancy
  Fe  Fe0  1  1.00282418  0.00506909  1.00294622  1
  Ni  Ni1  1  0.16941109  0.17020534  0.16899793  1
  Fe  Fe2  1  1.00288523  0.00329644  0.33676123  1
  Ni  Ni3  1  1.00310385  0.33596168  0.00376417  1
  Ni  Ni4  1  0.17116875  0.50196206  0.17069967  1
  Fe  Fe5  1  0.00313808  0.33648932  0.33594982  1
  Cr  Cr6  1  1.00219174  0.66898448  1.00313180  1
  Ni  Ni7  1  0.17087923  0.83723235  0.17097300  1
  Ni  Ni8  1  1.00162266  0.67004985  0.33650673  1
  Ni  Ni9  1  0.33754224  0.00345634  1.00294258  1
  Ni  Ni10  1  0.50291721  0.17021449  0.16992255  1
  Ni  Ni11  1  0.33667851  0.00442166  0.33677683  1
  Ni  Ni12  1  0.33638044  0.33567181  0.00357579  1
  Ni  Ni13  1  0.50266772  0.50345898  0.16921840  1
  Ni  Ni14  1  0.33720798  0.33464226  0.33607107  1
  Ni  Ni15  1  0.33785541  0.67027060  0.00383284  1
  Ni  Ni16  1  0.50294630  0.83572394  0.16958130  1
  Fe  Fe17  1  0.33743986  0.66923337  0.33551724  1
  Ni  Ni18  1  0.66874711  1.00285792  0.00408411  1
  Ni  Ni19  1  0.83706983  0.16992838  0.16989431  1
  Fe  Fe20  1  0.66942709  1.00307139  0.33666967  1
  Ni  Ni21  1  0.66991566  0.33627579  1.00300932  1
  Ni  Ni22  1  0.83556508  0.50199012  0.17065581  1
  Ni  Ni23  1  0.66904671  0.33698125  0.33667917  1
  Ni  Ni24  1  0.66903714  0.67026487  0.00322198  1
  Ni  Ni25  1  0.83557418  0.83748359  0.17011696  1
  Ni  Ni26  1  0.67195120  0.66951807  0.33604279  1
  Ni  Ni27  1  0.16932545  0.17026801  0.50374247  1
  Ni  Ni28  1  1.00279100  1.00199317  0.67002895  1
  Fe  Fe29  1  0.16952681  0.17011257  0.83604354  1
  Fe  Fe30  1  0.16998374  0.50232665  0.50350794  1
  Ni  Ni31  1  0.00367351  0.33779408  0.66920407  1
  Ni  Ni32  1  0.17122198  0.50227570  0.83535760  1
  Fe  Fe33  1  0.16998589  0.83777497  0.50338136  1
  Ni  Ni34  1  1.00218266  0.66961383  0.66976427  1
  Ni  Ni35  1  0.17093489  0.83704046  0.83493963  1
  Ni  Ni36  1  0.50260043  0.17027006  0.50360889  1
  Ni  Ni37  1  0.33733227  0.00400891  0.66967979  1
  Fe  Fe38  1  0.50338562  0.16948348  0.83664387  1
  Ni  Ni39  1  0.50234052  0.50328733  0.50325676  1
  Ni  Ni40  1  0.33616705  0.33549417  0.66975272  1
  Ni  Ni41  1  0.50231111  0.50380963  0.83692559  1
  Ni  Ni42  1  0.50351259  0.83583940  0.50331357  1
  Fe  Fe43  1  0.33587644  0.67023134  0.67094247  1
  Ni  Ni44  1  0.50266845  0.83557151  0.83650604  1
  Ni  Ni45  1  0.83747406  0.16909879  0.50313313  1
  Ni  Ni46  1  0.66927723  1.00252168  0.66882647  1
  Ni  Ni47  1  0.83733656  0.16972745  0.83637109  1
  Fe  Fe48  1  0.83571638  0.50301328  0.50275594  1
  Fe  Fe49  1  0.67035650  0.33539878  0.66966125  1
  Ni  Ni50  1  0.83586355  0.50145801  0.83506700  1
  Ni  Ni51  1  0.83634252  0.83723017  0.50373663  1
  Fe  Fe52  1  0.67000351  0.67060614  0.66993796  1
  Ni  Ni53  1  0.83579343  0.83821362  0.83554637  1
" 