5465,Ni75Fe3Cr20_8,-231.118741722283, 158.273081372177,Ni75Fe3Cr20,"# generated using pymatgen
 data_Cr12FeNi41
_symmetry_space_group_name_H-M   'P 1'
_cell_length_a   7.47307062
_cell_length_b   7.47307062
_cell_length_c   10.56851782
_cell_angle_alpha   90.00000000
_cell_angle_beta   90.00000000
_cell_angle_gamma   90.00000000
_symmetry_Int_Tables_number   1
_chemical_formula_structural   Cr12FeNi41
_chemical_formula_sum   'Cr12 Fe1 Ni41'
_cell_volume   590.21773622
_cell_formula_units_Z   1
loop_
 _symmetry_equiv_pos_site_id
 _symmetry_equiv_pos_as_xyz
  1  'x, y, z'
loop_
 _atom_site_type_symbol
 _atom_site_label
 _atom_site_symmetry_multiplicity
 _atom_site_fract_x
 _atom_site_fract_y
 _atom_site_fract_z
 _atom_site_occupancy
  Ni  Ni0  1  0.99888038  0.99813061  -0.00001507  1
  Cr  Cr1  1  0.16750116  0.16403481  0.16559980  1
  Ni  Ni2  1  0.99772649  0.99711588  0.33345559  1
  Cr  Cr3  1  0.99790509  0.33467128  0.99861579  1
  Ni  Ni4  1  0.16719627  0.50171526  0.16696512  1
  Cr  Cr5  1  0.99741512  0.33334788  0.33407567  1
  Ni  Ni6  1  0.99753091  0.66702079  0.00108940  1
  Ni  Ni7  1  0.16504260  0.83221888  0.16717055  1
  Ni  Ni8  1  0.99913119  0.66917690  0.33191803  1
  Ni  Ni9  1  0.33373954  0.00048409  0.00019182  1
  Ni  Ni10  1  0.50067905  0.16718465  0.16698335  1
  Fe  Fe11  1  0.33421710  0.99789445  0.33303021  1
  Ni  Ni12  1  0.33516222  0.33275992  0.99864234  1
  Ni  Ni13  1  0.50094980  0.49873630  0.16695855  1
  Ni  Ni14  1  0.33497110  0.33293566  0.33178567  1
  Cr  Cr15  1  0.33466978  0.66542496  0.00047824  1
  Ni  Ni16  1  0.50023545  0.83288625  0.16785873  1
  Ni  Ni17  1  0.33321592  0.66763213  0.33164853  1
  Cr  Cr18  1  0.66650766  0.99836614  0.99876991  1
  Ni  Ni19  1  0.83039380  0.16504491  0.16707429  1
  Ni  Ni20  1  0.66694041  0.99910021  0.33368023  1
  Ni  Ni21  1  0.66465511  0.33416424  0.00039596  1
  Ni  Ni22  1  0.83052743  0.50168502  0.16675916  1
  Ni  Ni23  1  0.66528779  0.33169588  0.33159601  1
  Ni  Ni24  1  0.66754787  0.66503721  -0.00035164  1
  Ni  Ni25  1  0.83356229  0.83212909  0.16662768  1
  Ni  Ni26  1  0.66655605  0.66796458  0.33194985  1
  Ni  Ni27  1  0.16624180  0.16452092  0.49810493  1
  Cr  Cr28  1  0.99668278  0.00129155  0.66525088  1
  Ni  Ni29  1  0.16613545  0.16762820  0.83471556  1
  Cr  Cr30  1  0.16538041  0.50144018  0.50040628  1
  Ni  Ni31  1  0.99859723  0.33368945  0.66668819  1
  Ni  Ni32  1  0.16512229  0.49919181  0.83192524  1
  Ni  Ni33  1  0.16595763  0.83297091  0.49742364  1
  Ni  Ni34  1  0.99789806  0.66529113  0.66594133  1
  Cr  Cr35  1  0.16463713  0.83276946  0.83439588  1
  Ni  Ni36  1  0.50082380  0.16378012  0.49651676  1
  Cr  Cr37  1  0.33611041  0.99867120  0.66501434  1
  Ni  Ni38  1  0.49991857  0.16622509  0.83502591  1
  Cr  Cr39  1  0.50204666  0.50131326  0.49804197  1
  Cr  Cr40  1  0.33150822  0.33251901  0.66835120  1
  Ni  Ni41  1  0.50117510  0.50035627  0.83387122  1
  Ni  Ni42  1  0.50105647  0.83353998  0.49931770  1
  Ni  Ni43  1  0.33385382  0.66734013  0.66699453  1
  Ni  Ni44  1  0.50217324  0.83212784  0.83148096  1
  Ni  Ni45  1  0.83175877  0.16508899  0.49875019  1
  Ni  Ni46  1  0.66647213  0.99766479  0.66611984  1
  Ni  Ni47  1  0.83265167  0.16627807  0.83303859  1
  Ni  Ni48  1  0.83260919  0.50165842  0.49959704  1
  Cr  Cr49  1  0.66847970  0.33092688  0.66650661  1
  Ni  Ni50  1  0.83248253  0.50144046  0.83252199  1
  Ni  Ni51  1  0.83198438  0.83205239  0.49913709  1
  Ni  Ni52  1  0.66698476  0.66889049  0.66717951  1
  Ni  Ni53  1  0.83134930  0.83101409  0.83296790  1
" 