3252,Ni75Fe3Cr20_19,-230.861381425821, 155.363970569837,Ni75Fe3Cr20,"# generated using pymatgen
 data_Cr12FeNi41
_symmetry_space_group_name_H-M   'P 1'
_cell_length_a   7.47473805
_cell_length_b   7.47473805
_cell_length_c   10.57087593
_cell_angle_alpha   90.00000000
_cell_angle_beta   90.00000000
_cell_angle_gamma   90.00000000
_symmetry_Int_Tables_number   1
_chemical_formula_structural   Cr12FeNi41
_chemical_formula_sum   'Cr12 Fe1 Ni41'
_cell_volume   590.61290280
_cell_formula_units_Z   1
loop_
 _symmetry_equiv_pos_site_id
 _symmetry_equiv_pos_as_xyz
  1  'x, y, z'
loop_
 _atom_site_type_symbol
 _atom_site_label
 _atom_site_symmetry_multiplicity
 _atom_site_fract_x
 _atom_site_fract_y
 _atom_site_fract_z
 _atom_site_occupancy
  Ni  Ni0  1  0.99826687  0.00085575  0.00111035  1
  Ni  Ni1  1  0.16592108  0.16833388  0.16597479  1
  Cr  Cr2  1  -0.00006313  -0.00018101  0.33200511  1
  Ni  Ni3  1  0.00158495  0.33251285  -0.00005317  1
  Ni  Ni4  1  0.16806201  0.49771268  0.16604689  1
  Ni  Ni5  1  0.00101625  0.33288889  0.33336548  1
  Cr  Cr6  1  0.99764026  0.66570132  0.00108973  1
  Ni  Ni7  1  0.16853528  0.83240255  0.16620871  1
  Cr  Cr8  1  0.99822658  0.66520180  0.33262205  1
  Cr  Cr9  1  0.33335669  0.00142050  -0.00029429  1
  Ni  Ni10  1  0.49877841  0.16516060  0.16685203  1
  Ni  Ni11  1  0.33293580  0.99897827  0.33241212  1
  Ni  Ni12  1  0.33150144  0.33406985  0.99938368  1
  Ni  Ni13  1  0.49742104  0.50159956  0.16624344  1
  Ni  Ni14  1  0.33085196  0.33341013  0.33150973  1
  Ni  Ni15  1  0.33493102  0.66371271  -0.00030614  1
  Ni  Ni16  1  0.50033529  0.83164804  0.16712408  1
  Ni  Ni17  1  0.33371828  0.66604492  0.33347880  1
  Ni  Ni18  1  0.66671408  0.99751277  -0.00007897  1
  Ni  Ni19  1  0.83369222  0.16545150  0.16554439  1
  Ni  Ni20  1  0.66577734  0.99739860  0.33221741  1
  Cr  Cr21  1  0.66429592  0.33439763  -0.00005581  1
  Ni  Ni22  1  0.83296416  0.49915264  0.16614382  1
  Cr  Cr23  1  0.66759268  0.33466026  0.33223896  1
  Ni  Ni24  1  0.66508383  0.66722053  -0.00044752  1
  Ni  Ni25  1  0.82954811  0.83390737  0.16467842  1
  Ni  Ni26  1  0.66514371  0.66727831  0.33263062  1
  Ni  Ni27  1  0.16359640  0.16717471  0.49862600  1
  Ni  Ni28  1  0.99837526  0.99846683  0.66471954  1
  Ni  Ni29  1  0.16469565  0.16872322  0.83386505  1
  Ni  Ni30  1  0.16631279  0.49975884  0.49960003  1
  Fe  Fe31  1  0.99933507  0.33402932  0.66532287  1
  Ni  Ni32  1  0.16626607  0.49829201  0.83296241  1
  Ni  Ni33  1  0.16708933  0.83154203  0.50030040  1
  Ni  Ni34  1  -0.00037869  0.66613537  0.66536978  1
  Cr  Cr35  1  0.16474264  0.83122736  0.83237046  1
  Cr  Cr36  1  0.50113809  0.16531655  0.49796430  1
  Cr  Cr37  1  0.33266927  0.99865011  0.66605515  1
  Ni  Ni38  1  0.50035114  0.16618579  0.83302844  1
  Ni  Ni39  1  0.49836588  0.50199641  0.49849568  1
  Cr  Cr40  1  0.33425338  0.33424202  0.66784617  1
  Ni  Ni41  1  0.49844657  0.50072580  0.83376649  1
  Ni  Ni42  1  0.49953404  0.83097132  0.49789603  1
  Ni  Ni43  1  0.33154787  0.66480866  0.66535770  1
  Ni  Ni44  1  0.50187004  0.83149408  0.83342628  1
  Ni  Ni45  1  0.83446434  0.16608471  0.50112675  1
  Ni  Ni46  1  0.66803973  -0.00046155  0.66623569  1
  Cr  Cr47  1  0.83379739  0.16493223  0.83177017  1
  Ni  Ni48  1  0.83379081  0.49862151  0.50041995  1
  Ni  Ni49  1  0.66714511  0.33324918  0.66609680  1
  Ni  Ni50  1  0.83385049  0.50001486  0.83200452  1
  Ni  Ni51  1  0.83173455  0.83375705  0.50062609  1
  Cr  Cr52  1  0.66620368  0.66484715  0.66625407  1
  Ni  Ni53  1  0.83115182  0.83298239  0.83306928  1
" 