4027,Ni75Fe25_0,-233.935337293083, 191.01624301522,Ni75Fe25,"# generated using pymatgen
 data_Fe20Ni7
_symmetry_space_group_name_H-M   'P 1'
_cell_length_a   7.39110416
_cell_length_b   7.39110416
_cell_length_c   10.45259974
_cell_angle_alpha   90.00000000
_cell_angle_beta   90.00000000
_cell_angle_gamma   90.00000000
_symmetry_Int_Tables_number   1
_chemical_formula_structural   Fe20Ni7
_chemical_formula_sum   'Fe40 Ni14'
_cell_volume   571.00901520
_cell_formula_units_Z   2
loop_
 _symmetry_equiv_pos_site_id
 _symmetry_equiv_pos_as_xyz
  1  'x, y, z'
loop_
 _atom_site_type_symbol
 _atom_site_label
 _atom_site_symmetry_multiplicity
 _atom_site_fract_x
 _atom_site_fract_y
 _atom_site_fract_z
 _atom_site_occupancy
  Ni  Ni0  1  0.00690162  0.00580754  0.00552687  1
  Fe  Fe1  1  0.17295983  0.17210043  0.17210017  1
  Fe  Fe2  1  0.00517731  0.00535043  0.33834803  1
  Fe  Fe3  1  0.00556925  0.33839062  1.00505171  1
  Ni  Ni4  1  0.17201313  0.50533775  0.17258302  1
  Fe  Fe5  1  0.00556558  0.33737150  0.33855781  1
  Fe  Fe6  1  0.00573185  0.67231136  1.00471834  1
  Fe  Fe7  1  0.17294940  0.83868787  0.17167833  1
  Fe  Fe8  1  0.00543579  0.67269127  0.33876493  1
  Ni  Ni9  1  0.33741378  0.00620586  0.00543333  1
  Ni  Ni10  1  0.50581811  0.17139042  0.17207908  1
  Ni  Ni11  1  0.33894601  0.00620432  0.33846392  1
  Fe  Fe12  1  0.33838162  0.33856081  0.00556645  1
  Ni  Ni13  1  0.50452633  0.50485068  0.17082161  1
  Fe  Fe14  1  0.33919428  0.33783915  0.33834473  1
  Fe  Fe15  1  0.33830754  0.67222856  1.00513343  1
  Fe  Fe16  1  0.50462772  0.83839313  0.17129333  1
  Fe  Fe17  1  0.33911100  0.67201224  0.33825735  1
  Fe  Fe18  1  0.67154868  1.00478631  0.00555962  1
  Fe  Fe19  1  0.83804577  0.17256024  0.17180392  1
  Ni  Ni20  1  0.67043463  0.00541553  0.33798610  1
  Fe  Fe21  1  0.67146097  0.33770935  0.00565071  1
  Fe  Fe22  1  0.83774962  0.50484493  0.17159244  1
  Fe  Fe23  1  0.67065119  0.33758485  0.33825596  1
  Ni  Ni24  1  0.67190295  0.67042344  0.00545495  1
  Fe  Fe25  1  0.83783566  0.83800550  0.17167453  1
  Fe  Fe26  1  0.67086511  0.67239517  0.33855567  1
  Ni  Ni27  1  0.17083149  0.17133050  0.50492467  1
  Fe  Fe28  1  1.00467316  1.00449950  0.67201017  1
  Fe  Fe29  1  0.17231404  0.17121287  0.83830130  1
  Fe  Fe30  1  0.17184775  0.50483542  0.50543659  1
  Fe  Fe31  1  1.00505931  0.33939998  0.67180234  1
  Ni  Ni32  1  0.17114120  0.50513542  0.83769519  1
  Fe  Fe33  1  0.17222526  0.83856348  0.50505301  1
  Ni  Ni34  1  1.00416828  0.67095901  0.67229567  1
  Fe  Fe35  1  0.17202502  0.83842740  0.83868424  1
  Fe  Fe36  1  0.50461580  0.17180746  0.50411924  1
  Fe  Fe37  1  0.33847152  1.00412492  0.67180335  1
  Fe  Fe38  1  0.50432848  0.17158258  0.83919118  1
  Ni  Ni39  1  0.50550781  0.50583475  0.50562481  1
  Fe  Fe40  1  0.33817054  0.33986572  0.67149976  1
  Fe  Fe41  1  0.50531043  0.50600044  0.83829790  1
  Fe  Fe42  1  0.50484511  0.83885075  0.50551833  1
  Fe  Fe43  1  0.33868989  0.67142226  0.67202110  1
  Ni  Ni44  1  0.50631285  0.83874456  0.83867834  1
  Fe  Fe45  1  0.83826060  0.17218127  0.50492230  1
  Fe  Fe46  1  0.67226735  1.00398389  0.67151116  1
  Fe  Fe47  1  0.83877072  0.17167469  0.83868607  1
  Fe  Fe48  1  0.83855033  0.50505898  0.50573392  1
  Fe  Fe49  1  0.67217984  0.33961699  0.67150463  1
  Fe  Fe50  1  0.83817248  0.50628759  0.83808628  1
  Fe  Fe51  1  0.83834113  0.83816998  0.50535042  1
  Ni  Ni52  1  0.67267270  0.67094893  0.67102823  1
  Fe  Fe53  1  0.83854664  0.83744592  0.83838791  1
" 