1457,Ni75Fe25_2,-234.765062603082, 194.615906943444,Ni75Fe25,"# generated using pymatgen
 data_Fe20Ni7
_symmetry_space_group_name_H-M   'P 1'
_cell_length_a   7.39806915
_cell_length_b   7.39806915
_cell_length_c   10.46244973
_cell_angle_alpha   90.00000000
_cell_angle_beta   90.00000000
_cell_angle_gamma   90.00000000
_symmetry_Int_Tables_number   1
_chemical_formula_structural   Fe20Ni7
_chemical_formula_sum   'Fe40 Ni14'
_cell_volume   572.62480575
_cell_formula_units_Z   2
loop_
 _symmetry_equiv_pos_site_id
 _symmetry_equiv_pos_as_xyz
  1  'x, y, z'
loop_
 _atom_site_type_symbol
 _atom_site_label
 _atom_site_symmetry_multiplicity
 _atom_site_fract_x
 _atom_site_fract_y
 _atom_site_fract_z
 _atom_site_occupancy
  Fe  Fe0  1  1.00443644  1.00442727  1.00427302  1
  Fe  Fe1  1  0.17230320  0.17146543  0.17157523  1
  Fe  Fe2  1  0.00474386  0.00474440  0.33799541  1
  Fe  Fe3  1  1.00449581  0.33753975  1.00443552  1
  Fe  Fe4  1  0.17153451  0.50519704  0.17087570  1
  Fe  Fe5  1  1.00451509  0.33702806  0.33830718  1
  Ni  Ni6  1  0.00582047  0.67006809  1.00399487  1
  Fe  Fe7  1  0.17221784  0.83732081  0.17079053  1
  Fe  Fe8  1  1.00435262  0.67221279  0.33770969  1
  Ni  Ni9  1  0.33904857  1.00399571  1.00416070  1
  Fe  Fe10  1  0.50488978  0.17101695  0.17169544  1
  Ni  Ni11  1  0.33925246  1.00456148  0.33905638  1
  Fe  Fe12  1  0.33891212  0.33861452  1.00466159  1
  Ni  Ni13  1  0.50447737  0.50504586  0.17160549  1
  Fe  Fe14  1  0.33902819  0.33717235  0.33830804  1
  Ni  Ni15  1  0.33614647  0.67171352  1.00448490  1
  Fe  Fe16  1  0.50435251  0.83839385  0.17169347  1
  Fe  Fe17  1  0.33918983  0.67207055  0.33771009  1
  Ni  Ni18  1  0.67037487  0.00651936  1.00416088  1
  Fe  Fe19  1  0.83679594  0.17169473  0.17050458  1
  Ni  Ni20  1  0.67016339  0.00532582  0.33916608  1
  Ni  Ni21  1  0.67201546  0.33701946  1.00437430  1
  Fe  Fe22  1  0.83786919  0.50466103  0.17155113  1
  Fe  Fe23  1  0.67044275  0.33756532  0.33793995  1
  Fe  Fe24  1  0.67027244  0.67130736  1.00466163  1
  Fe  Fe25  1  0.83741247  0.83762916  0.17117840  1
  Fe  Fe26  1  0.67044266  0.67184489  0.33870100  1
  Fe  Fe27  1  0.17260470  0.17169915  0.50443534  1
  Fe  Fe28  1  1.00451820  0.00496892  0.67171783  1
  Fe  Fe29  1  0.17154236  0.17161629  0.83797591  1
  Fe  Fe30  1  0.17211325  0.50466445  0.50474167  1
  Fe  Fe31  1  1.00428875  0.33782949  0.67124383  1
  Fe  Fe32  1  0.17110492  0.50468020  0.83836599  1
  Fe  Fe33  1  0.17252182  0.83762201  0.50451785  1
  Fe  Fe34  1  1.00443391  0.67118457  0.67153217  1
  Fe  Fe35  1  0.17147474  0.83768652  0.83867569  1
  Ni  Ni36  1  0.50426113  0.17084256  0.50456915  1
  Fe  Fe37  1  0.33812302  1.00466064  0.67070904  1
  Fe  Fe38  1  0.50543140  0.17147991  0.83815945  1
  Ni  Ni39  1  0.50514730  0.50494391  0.50417879  1
  Fe  Fe40  1  0.33851839  0.33830607  0.67101656  1
  Ni  Ni41  1  0.50426400  0.50525935  0.83820174  1
  Ni  Ni42  1  0.50388422  0.83820027  0.50418556  1
  Fe  Fe43  1  0.33868071  0.67102112  0.67169609  1
  Fe  Fe44  1  0.50486686  0.83844645  0.83808010  1
  Fe  Fe45  1  0.83628120  0.17164141  0.50503495  1
  Fe  Fe46  1  0.67134440  0.00480700  0.67109998  1
  Ni  Ni47  1  0.83915072  0.17055377  0.83846753  1
  Ni  Ni48  1  0.83792621  0.50456088  0.50466784  1
  Fe  Fe49  1  0.67118076  0.33838600  0.67169725  1
  Fe  Fe50  1  0.83778197  0.50412016  0.83777278  1
  Fe  Fe51  1  0.83628213  0.83760160  0.50443591  1
  Fe  Fe52  1  0.67086964  0.67079272  0.67062253  1
  Fe  Fe53  1  0.83764082  0.83801285  0.83837113  1
" 