7990,Ni75Fe2Cr21_10,-230.082005691129, 153.201113574605,Ni75Fe2Cr21,"# generated using pymatgen
 data_Cr13FeNi40
_symmetry_space_group_name_H-M   'P 1'
_cell_length_a   7.47947019
_cell_length_b   7.47947019
_cell_length_c   10.57756819
_cell_angle_alpha   90.00000000
_cell_angle_beta   90.00000000
_cell_angle_gamma   90.00000000
_symmetry_Int_Tables_number   1
_chemical_formula_structural   Cr13FeNi40
_chemical_formula_sum   'Cr13 Fe1 Ni40'
_cell_volume   591.73533726
_cell_formula_units_Z   1
loop_
 _symmetry_equiv_pos_site_id
 _symmetry_equiv_pos_as_xyz
  1  'x, y, z'
loop_
 _atom_site_type_symbol
 _atom_site_label
 _atom_site_symmetry_multiplicity
 _atom_site_fract_x
 _atom_site_fract_y
 _atom_site_fract_z
 _atom_site_occupancy
  Ni  Ni0  1  0.99909453  -0.00011372  0.99816817  1
  Ni  Ni1  1  0.16624392  0.16426095  0.16583921  1
  Ni  Ni2  1  0.00253476  0.99734187  0.33360488  1
  Ni  Ni3  1  0.00081926  0.33158891  0.99761520  1
  Ni  Ni4  1  0.16735395  0.50142254  0.16449078  1
  Cr  Cr5  1  0.99894236  0.33208138  0.33381296  1
  Fe  Fe6  1  0.00219131  0.66615711  0.99748835  1
  Ni  Ni7  1  0.16735081  0.83182654  0.16694810  1
  Ni  Ni8  1  0.00065298  0.66775614  0.33351577  1
  Cr  Cr9  1  0.33246624  0.99752790  -0.00058039  1
  Ni  Ni10  1  0.49819806  0.16526468  0.16662430  1
  Ni  Ni11  1  0.33063655  0.99713741  0.33194782  1
  Cr  Cr12  1  0.33082691  0.33433538  -0.00059270  1
  Ni  Ni13  1  0.49718986  0.50052033  0.16764384  1
  Cr  Cr14  1  0.33382172  0.33240397  0.33190073  1
  Ni  Ni15  1  0.33123556  0.66603500  -0.00019101  1
  Ni  Ni16  1  0.49619165  0.83172396  0.16640506  1
  Ni  Ni17  1  0.33273018  0.66774802  0.33148559  1
  Ni  Ni18  1  0.66668243  0.99865499  0.99729743  1
  Cr  Cr19  1  0.83288782  0.16526625  0.16479141  1
  Cr  Cr20  1  0.66475026  0.99906655  0.33348848  1
  Cr  Cr21  1  0.66610518  0.33146175  0.99900039  1
  Cr  Cr22  1  0.83291129  0.49935989  0.16700600  1
  Ni  Ni23  1  0.66433020  0.33450418  0.33346897  1
  Cr  Cr24  1  0.66362042  0.66728535  0.99781834  1
  Cr  Cr25  1  0.83391151  0.83288304  0.16577349  1
  Ni  Ni26  1  0.66412598  0.66431098  0.33399671  1
  Ni  Ni27  1  0.16571503  0.16561448  0.49882400  1
  Cr  Cr28  1  0.99797235  -0.00079548  0.66509023  1
  Ni  Ni29  1  0.16414245  0.16762601  0.83284333  1
  Ni  Ni30  1  0.16470955  0.49995989  0.50005401  1
  Ni  Ni31  1  0.99906138  0.33412416  0.66625032  1
  Ni  Ni32  1  0.16425086  0.49906426  0.83296377  1
  Ni  Ni33  1  0.16470461  0.83193393  0.49580090  1
  Ni  Ni34  1  0.99718493  0.66372845  0.66633969  1
  Ni  Ni35  1  0.16424751  0.83081761  0.83475782  1
  Ni  Ni36  1  0.50007836  0.16662420  0.49982917  1
  Cr  Cr37  1  0.33362294  0.00051098  0.66560261  1
  Ni  Ni38  1  0.50108496  0.16561171  0.83105635  1
  Ni  Ni39  1  0.50108203  0.49894847  0.49860067  1
  Ni  Ni40  1  0.33255227  0.33262580  0.66626607  1
  Ni  Ni41  1  0.49906689  0.49916888  0.83126590  1
  Ni  Ni42  1  0.50007787  0.83193624  0.49803860  1
  Cr  Cr43  1  0.33271215  0.66459116  0.66627319  1
  Ni  Ni44  1  0.50108288  0.83272843  0.83306423  1
  Ni  Ni45  1  0.83171536  0.16662036  0.49964915  1
  Ni  Ni46  1  0.66589755  -0.00071917  0.66678158  1
  Ni  Ni47  1  0.83228286  0.16561105  0.83324687  1
  Ni  Ni48  1  0.83171633  0.49995770  0.49964633  1
  Ni  Ni49  1  0.66589486  0.33278132  0.66575081  1
  Ni  Ni50  1  0.83419210  0.49906091  0.83090852  1
  Ni  Ni51  1  0.83272640  0.83093041  0.49908317  1
  Ni  Ni52  1  0.66739744  0.66544651  0.66569883  1
  Ni  Ni53  1  0.83217835  0.83283634  0.83270196  1
" 