5180,Ni75Fe15Cr9_7,-237.657302695406, 190.755954766461,Ni75Fe15Cr9,"# generated using pymatgen
 data_Cr3(FeNi5)4
_symmetry_space_group_name_H-M   'P 1'
_cell_length_a   7.44367334
_cell_length_b   7.44367334
_cell_length_c   10.52694379
_cell_angle_alpha   90.00000000
_cell_angle_beta   90.00000000
_cell_angle_gamma   90.00000000
_symmetry_Int_Tables_number   1
_chemical_formula_structural   Cr3(FeNi5)4
_chemical_formula_sum   'Cr6 Fe8 Ni40'
_cell_volume   583.27977382
_cell_formula_units_Z   2
loop_
 _symmetry_equiv_pos_site_id
 _symmetry_equiv_pos_as_xyz
  1  'x, y, z'
loop_
 _atom_site_type_symbol
 _atom_site_label
 _atom_site_symmetry_multiplicity
 _atom_site_fract_x
 _atom_site_fract_y
 _atom_site_fract_z
 _atom_site_occupancy
  Fe  Fe0  1  0.00260494  0.00178258  0.00165400  1
  Ni  Ni1  1  0.16854212  0.16782622  0.16751500  1
  Ni  Ni2  1  0.00267830  1.00069507  0.33307241  1
  Ni  Ni3  1  1.00106806  0.33626765  0.00173591  1
  Ni  Ni4  1  0.16756381  0.50243729  0.16891232  1
  Ni  Ni5  1  0.00268557  0.33573265  0.33400712  1
  Ni  Ni6  1  0.00214242  0.66788914  1.00141762  1
  Ni  Ni7  1  0.16766947  0.83442205  0.16790812  1
  Ni  Ni8  1  0.00188986  0.66849007  0.33565469  1
  Ni  Ni9  1  0.33361309  1.00016973  0.00210923  1
  Cr  Cr10  1  0.50119703  0.16882153  0.16936434  1
  Ni  Ni11  1  0.33384918  1.00018135  0.33612422  1
  Ni  Ni12  1  0.33293387  0.33667607  1.00080910  1
  Ni  Ni13  1  0.50197899  0.50175690  0.16670465  1
  Ni  Ni14  1  0.33393976  0.33590912  0.33565523  1
  Ni  Ni15  1  0.33243296  0.66777775  0.00272727  1
  Fe  Fe16  1  0.49999748  0.83295541  0.16810595  1
  Ni  Ni17  1  0.33471639  0.66826593  0.33408995  1
  Ni  Ni18  1  0.67076846  1.00109990  0.00287205  1
  Fe  Fe19  1  0.83713016  0.17009783  0.16826325  1
  Ni  Ni20  1  0.66826526  0.99967479  0.33516593  1
  Ni  Ni21  1  0.67063660  0.33514488  1.00142896  1
  Ni  Ni22  1  0.83524174  0.50249162  0.16884202  1
  Ni  Ni23  1  0.66841661  0.33655069  0.33457844  1
  Fe  Fe24  1  0.66951023  0.66657239  0.00202569  1
  Fe  Fe25  1  0.83594676  0.83352252  0.16893156  1
  Ni  Ni26  1  0.66802789  0.66809334  0.33460315  1
  Ni  Ni27  1  0.17020621  0.16767952  0.50220028  1
  Ni  Ni28  1  0.00199387  1.00051934  0.67055968  1
  Fe  Fe29  1  0.16579942  0.16815752  0.83515134  1
  Ni  Ni30  1  0.16711128  0.50151755  0.49985160  1
  Ni  Ni31  1  0.00356959  0.33594059  0.66901444  1
  Ni  Ni32  1  0.16629760  0.50209800  0.83590656  1
  Ni  Ni33  1  0.16586270  0.83565157  0.50088808  1
  Ni  Ni34  1  1.00052382  0.66829369  0.66792484  1
  Ni  Ni35  1  0.16614246  0.83417777  0.83575412  1
  Ni  Ni36  1  0.49939359  0.16760758  0.50074670  1
  Ni  Ni37  1  0.33287381  0.00237573  0.66651684  1
  Cr  Cr38  1  0.50026277  0.16855768  0.83455778  1
  Ni  Ni39  1  0.50185013  0.50037524  0.50035168  1
  Ni  Ni40  1  0.33202135  0.33448298  0.66803359  1
  Fe  Fe41  1  0.50172282  0.50280321  0.83650480  1
  Fe  Fe42  1  0.50215743  0.83458345  0.50079841  1
  Cr  Cr43  1  0.33318299  0.66719137  0.66688523  1
  Cr  Cr44  1  0.50149718  0.83565961  0.83566354  1
  Cr  Cr45  1  0.83613929  0.16751948  0.49971241  1
  Ni  Ni46  1  0.66947788  0.99947725  0.66695944  1
  Ni  Ni47  1  0.83528840  0.16754864  0.83668320  1
  Ni  Ni48  1  0.83583255  0.50498106  0.50091144  1
  Cr  Cr49  1  0.66899088  0.33668539  0.66801031  1
  Ni  Ni50  1  0.83735367  0.50269375  0.83507996  1
  Ni  Ni51  1  0.83602829  0.83315102  0.50207673  1
  Ni  Ni52  1  0.67107825  0.66939224  0.66848824  1
  Ni  Ni53  1  0.83667888  0.83435840  0.83527473  1
" 