7913,Ni75Fe2Cr21_5,-230.216894686858, 154.182052916394,Ni75Fe2Cr21,"# generated using pymatgen
 data_Cr13FeNi40
_symmetry_space_group_name_H-M   'P 1'
_cell_length_a   7.47460299
_cell_length_b   7.47460299
_cell_length_c   10.57068492
_cell_angle_alpha   90.00000000
_cell_angle_beta   90.00000000
_cell_angle_gamma   90.00000000
_symmetry_Int_Tables_number   1
_chemical_formula_structural   Cr13FeNi40
_chemical_formula_sum   'Cr13 Fe1 Ni40'
_cell_volume   590.58088739
_cell_formula_units_Z   1
loop_
 _symmetry_equiv_pos_site_id
 _symmetry_equiv_pos_as_xyz
  1  'x, y, z'
loop_
 _atom_site_type_symbol
 _atom_site_label
 _atom_site_symmetry_multiplicity
 _atom_site_fract_x
 _atom_site_fract_y
 _atom_site_fract_z
 _atom_site_occupancy
  Cr  Cr0  1  0.00022506  -0.00039569  0.00061332  1
  Ni  Ni1  1  0.16565437  0.16619645  0.16815089  1
  Ni  Ni2  1  0.99930754  0.00052583  0.33331340  1
  Ni  Ni3  1  0.99702876  0.33434486  0.00048032  1
  Ni  Ni4  1  0.16484826  0.49831602  0.16682923  1
  Ni  Ni5  1  0.00048315  0.33058201  0.33133978  1
  Cr  Cr6  1  0.99926088  0.66471421  -0.00025644  1
  Ni  Ni7  1  0.16751978  0.83393573  0.16691398  1
  Cr  Cr8  1  -0.00008123  0.66733288  0.33177009  1
  Ni  Ni9  1  0.33311487  0.99783760  -0.00016593  1
  Ni  Ni10  1  0.49939530  0.16578887  0.16770716  1
  Ni  Ni11  1  0.33141436  0.00151249  0.33177659  1
  Cr  Cr12  1  0.33339141  0.33188266  -0.00025647  1
  Cr  Cr13  1  0.50097989  0.49997655  0.16780951  1
  Ni  Ni14  1  0.33240796  0.33173971  0.33414760  1
  Ni  Ni15  1  0.33243823  0.66760382  0.99709475  1
  Cr  Cr16  1  0.49845512  0.83323948  0.16639773  1
  Ni  Ni17  1  0.33157545  0.66516568  0.33397780  1
  Cr  Cr18  1  0.66495032  0.00103946  0.99818367  1
  Ni  Ni19  1  0.83343866  0.16852753  0.16795795  1
  Ni  Ni20  1  0.66779149  0.00127703  0.33312896  1
  Ni  Ni21  1  0.66821802  0.33376395  0.99839753  1
  Ni  Ni22  1  0.83296818  0.49733401  0.16536860  1
  Ni  Ni23  1  0.66557933  0.33074437  0.33249933  1
  Ni  Ni24  1  0.66649271  0.66445404  0.99791194  1
  Ni  Ni25  1  0.83249903  0.83265320  0.16856013  1
  Ni  Ni26  1  0.66666165  0.66641932  0.33230505  1
  Ni  Ni27  1  0.16535684  0.16746359  0.49841072  1
  Ni  Ni28  1  0.99669888  -0.00001138  0.66488634  1
  Cr  Cr29  1  0.16436289  0.16703424  0.83201381  1
  Ni  Ni30  1  0.16918983  0.49757608  0.49988246  1
  Ni  Ni31  1  -0.00037744  0.33135149  0.66666104  1
  Ni  Ni32  1  0.16700387  0.50054093  0.83178569  1
  Ni  Ni33  1  0.16623692  0.83342295  0.49882194  1
  Cr  Cr34  1  0.00177415  0.66765703  0.66698507  1
  Ni  Ni35  1  0.16867792  0.83086208  0.83279774  1
  Ni  Ni36  1  0.50024798  0.16787146  0.49862875  1
  Cr  Cr37  1  0.33326004  0.00009319  0.66705253  1
  Ni  Ni38  1  0.50225119  0.16668074  0.83217342  1
  Fe  Fe39  1  0.49708960  0.49701574  0.49893796  1
  Ni  Ni40  1  0.33381721  0.33521479  0.66489413  1
  Ni  Ni41  1  0.49980622  0.50036611  0.83189673  1
  Cr  Cr42  1  0.49978846  0.83265510  0.49724678  1
  Ni  Ni43  1  0.33134438  0.66331496  0.66737802  1
  Ni  Ni44  1  0.49860478  0.83138419  0.83428726  1
  Ni  Ni45  1  0.83287229  0.16490834  0.50006897  1
  Ni  Ni46  1  0.66896818  0.00241351  0.66709969  1
  Ni  Ni47  1  0.83101214  0.16834930  0.83048356  1
  Cr  Cr48  1  0.83246481  0.49669139  0.49838814  1
  Ni  Ni49  1  0.66503933  0.32972106  0.66761618  1
  Ni  Ni50  1  0.83160846  0.49681233  0.83469121  1
  Ni  Ni51  1  0.83302640  0.83693297  0.49858136  1
  Cr  Cr52  1  0.66535727  0.66650086  0.66774587  1
  Ni  Ni53  1  0.83120708  0.83337308  0.83133639  1
" 