4206,Ni75Fe2Cr21_13,-230.520771071969, 159.186121117744,Ni75Fe2Cr21,"# generated using pymatgen
 data_Cr13FeNi40
_symmetry_space_group_name_H-M   'P 1'
_cell_length_a   7.47463579
_cell_length_b   7.47463579
_cell_length_c   10.57073130
_cell_angle_alpha   90.00000000
_cell_angle_beta   90.00000000
_cell_angle_gamma   90.00000000
_symmetry_Int_Tables_number   1
_chemical_formula_structural   Cr13FeNi40
_chemical_formula_sum   'Cr13 Fe1 Ni40'
_cell_volume   590.58866224
_cell_formula_units_Z   1
loop_
 _symmetry_equiv_pos_site_id
 _symmetry_equiv_pos_as_xyz
  1  'x, y, z'
loop_
 _atom_site_type_symbol
 _atom_site_label
 _atom_site_symmetry_multiplicity
 _atom_site_fract_x
 _atom_site_fract_y
 _atom_site_fract_z
 _atom_site_occupancy
  Ni  Ni0  1  0.99828465  0.99795834  0.99940992  1
  Ni  Ni1  1  0.16418569  0.16410688  0.16414729  1
  Ni  Ni2  1  0.99906326  0.99754910  0.33201942  1
  Ni  Ni3  1  -0.00005371  0.33400776  0.00054196  1
  Ni  Ni4  1  0.16595178  0.50195334  0.16391197  1
  Cr  Cr5  1  0.99887191  0.33483949  0.33113726  1
  Ni  Ni6  1  0.99910295  0.66634893  -0.00026457  1
  Ni  Ni7  1  0.16574117  0.83237716  0.16633120  1
  Ni  Ni8  1  0.99801848  0.66740654  0.33197285  1
  Ni  Ni9  1  0.33196483  0.99621526  0.00090957  1
  Cr  Cr10  1  0.50016615  0.16461418  0.16594505  1
  Ni  Ni11  1  0.33223471  0.99838446  0.33169582  1
  Ni  Ni12  1  0.33014163  0.33571683  0.00043536  1
  Ni  Ni13  1  0.49960523  0.50330826  0.16636484  1
  Cr  Cr14  1  0.33339258  0.33318733  0.33428199  1
  Ni  Ni15  1  0.33275313  0.66686036  0.99869762  1
  Ni  Ni16  1  0.49954979  0.83055784  0.16600264  1
  Ni  Ni17  1  0.33279967  0.66640234  0.33143669  1
  Ni  Ni18  1  0.66795553  0.99573149  0.99940651  1
  Ni  Ni19  1  0.83468679  0.16431309  0.16551428  1
  Ni  Ni20  1  0.66714235  0.99797610  0.33147223  1
  Cr  Cr21  1  0.66831725  0.33545197  0.00024544  1
  Ni  Ni22  1  0.83272688  0.50173749  0.16645287  1
  Ni  Ni23  1  0.66644599  0.33455008  0.33348868  1
  Ni  Ni24  1  0.66654763  0.66857604  0.99918021  1
  Ni  Ni25  1  0.83315050  0.83249420  0.16697063  1
  Ni  Ni26  1  0.66763652  0.66603423  0.33182550  1
  Ni  Ni27  1  0.16650279  0.16502501  0.49817104  1
  Fe  Fe28  1  0.99692581  0.99796123  0.66734350  1
  Cr  Cr29  1  0.16360060  0.16567812  0.83633203  1
  Ni  Ni30  1  0.16696984  0.50107291  0.49855403  1
  Cr  Cr31  1  0.99860768  0.33444358  0.66613904  1
  Ni  Ni32  1  0.16676481  0.50250924  0.83574377  1
  Cr  Cr33  1  0.16393069  0.83194918  0.49745600  1
  Cr  Cr34  1  0.99848463  0.66635737  0.66693043  1
  Ni  Ni35  1  0.16593169  0.83039895  0.83468149  1
  Ni  Ni36  1  0.50095299  0.16669588  0.49856178  1
  Cr  Cr37  1  0.33354754  0.99697127  0.66590742  1
  Cr  Cr38  1  0.50184585  0.16611277  0.83435734  1
  Ni  Ni39  1  0.50163380  0.49993134  0.49995702  1
  Cr  Cr40  1  0.33373561  0.33529110  0.66345825  1
  Ni  Ni41  1  0.49980645  0.50340340  0.83226364  1
  Cr  Cr42  1  0.50171864  0.83100493  0.49769720  1
  Ni  Ni43  1  0.33420304  0.66522509  0.66810452  1
  Ni  Ni44  1  0.50046664  0.82988364  0.83408898  1
  Cr  Cr45  1  0.83122900  0.16407440  0.49992513  1
  Ni  Ni46  1  0.66773969  0.99794137  0.66755667  1
  Ni  Ni47  1  0.83253958  0.16468088  0.83299566  1
  Ni  Ni48  1  0.83015326  0.50171254  0.49841456  1
  Ni  Ni49  1  0.66688704  0.33419854  0.66570701  1
  Ni  Ni50  1  0.83188633  0.50057777  0.83369416  1
  Ni  Ni51  1  0.83186992  0.83146009  0.49868826  1
  Ni  Ni52  1  0.66634177  0.66635780  0.66730116  1
  Ni  Ni53  1  0.83193083  0.83301239  0.83302655  1
" 