2313,Ni75Fe15Cr9_1,-237.642157840779, 191.582479973623,Ni75Fe15Cr9,"# generated using pymatgen
 data_Cr3(FeNi5)4
_symmetry_space_group_name_H-M   'P 1'
_cell_length_a   7.44024002
_cell_length_b   7.44024002
_cell_length_c   10.52208834
_cell_angle_alpha   90.00000000
_cell_angle_beta   90.00000000
_cell_angle_gamma   90.00000000
_symmetry_Int_Tables_number   1
_chemical_formula_structural   Cr3(FeNi5)4
_chemical_formula_sum   'Cr6 Fe8 Ni40'
_cell_volume   582.47304856
_cell_formula_units_Z   2
loop_
 _symmetry_equiv_pos_site_id
 _symmetry_equiv_pos_as_xyz
  1  'x, y, z'
loop_
 _atom_site_type_symbol
 _atom_site_label
 _atom_site_symmetry_multiplicity
 _atom_site_fract_x
 _atom_site_fract_y
 _atom_site_fract_z
 _atom_site_occupancy
  Cr  Cr0  1  0.00612338  0.00312969  1.00043128  1
  Ni  Ni1  1  0.16970643  0.16830702  0.17026562  1
  Ni  Ni2  1  0.00365081  0.00318944  0.33561225  1
  Fe  Fe3  1  0.99997215  0.33451456  1.00045553  1
  Cr  Cr4  1  0.16832434  0.50259622  0.16703933  1
  Ni  Ni5  1  0.00246361  0.33389990  0.33541274  1
  Ni  Ni6  1  1.00161270  0.66711274  1.00035212  1
  Ni  Ni7  1  0.17082674  0.83537287  0.17015945  1
  Ni  Ni8  1  0.00395505  0.66813869  0.33677879  1
  Ni  Ni9  1  0.33412489  0.00334808  0.00285383  1
  Ni  Ni10  1  0.50134740  0.16970331  0.16987332  1
  Fe  Fe11  1  0.33546267  0.00203700  0.33560754  1
  Fe  Fe12  1  0.33580264  0.33322521  1.00091557  1
  Ni  Ni13  1  0.50159140  0.50030331  0.16799514  1
  Ni  Ni14  1  0.33546604  0.33475202  0.33531208  1
  Fe  Fe15  1  0.33660131  0.67057790  1.00158277  1
  Ni  Ni16  1  0.49881599  0.83542722  0.16841786  1
  Ni  Ni17  1  0.33467297  0.66813574  0.33572240  1
  Cr  Cr18  1  0.66609450  0.00344845  1.00029124  1
  Ni  Ni19  1  0.83439422  0.17135799  0.16980614  1
  Ni  Ni20  1  0.66767706  0.00377757  0.33544424  1
  Ni  Ni21  1  0.66689840  0.33761549  0.00218761  1
  Ni  Ni22  1  0.83482105  0.49888958  0.16858572  1
  Ni  Ni23  1  0.66751915  0.33367769  0.33510522  1
  Ni  Ni24  1  0.66821784  0.66496536  1.00152374  1
  Cr  Cr25  1  0.83673099  0.83471584  0.16985008  1
  Cr  Cr26  1  0.66666207  0.66674886  0.33636500  1
  Fe  Fe27  1  0.16899450  0.16836463  0.50247537  1
  Ni  Ni28  1  0.00326816  1.00153663  0.66926118  1
  Ni  Ni29  1  0.17020225  0.16911856  0.83341660  1
  Ni  Ni30  1  0.16908233  0.50177740  0.50234714  1
  Ni  Ni31  1  0.00314574  0.33546137  0.66942720  1
  Ni  Ni32  1  0.16933842  0.50273218  0.83510408  1
  Ni  Ni33  1  0.16764177  0.83355492  0.50114287  1
  Ni  Ni34  1  0.00307954  0.66833272  0.66809304  1
  Ni  Ni35  1  0.16913728  0.83362824  0.83408884  1
  Ni  Ni36  1  0.50363227  0.16923220  0.50203411  1
  Ni  Ni37  1  0.33442778  0.00287419  0.66812166  1
  Ni  Ni38  1  0.50110556  0.17027296  0.83375838  1
  Ni  Ni39  1  0.49758902  0.49878110  0.50150907  1
  Ni  Ni40  1  0.33498429  0.33447946  0.66884819  1
  Ni  Ni41  1  0.50029702  0.49994024  0.83566078  1
  Ni  Ni42  1  0.50028234  0.83747803  0.50234099  1
  Fe  Fe43  1  0.33380690  0.66798444  0.66705221  1
  Fe  Fe44  1  0.49994730  0.83539279  0.83493051  1
  Ni  Ni45  1  0.83435465  0.16768397  0.50257480  1
  Ni  Ni46  1  0.66757161  0.00276075  0.66965815  1
  Ni  Ni47  1  0.83387776  0.16990702  0.83286557  1
  Fe  Fe48  1  0.83649360  0.50005862  0.50174757  1
  Ni  Ni49  1  0.66726078  0.33461822  0.66814057  1
  Ni  Ni50  1  0.83556305  0.50101831  0.83540040  1
  Ni  Ni51  1  0.83711826  0.83945273  0.50207058  1
  Cr  Cr52  1  0.66871733  0.66738612  0.66760090  1
  Ni  Ni53  1  0.83682717  0.83448694  0.83366508  1
" 