3479,Ni75Fe3Cr20_1,-230.877193696614, 151.475710363867,Ni75Fe3Cr20,"# generated using pymatgen
 data_Cr12FeNi41
_symmetry_space_group_name_H-M   'P 1'
_cell_length_a   7.47855344
_cell_length_b   7.47855344
_cell_length_c   10.57627170
_cell_angle_alpha   90.00000000
_cell_angle_beta   90.00000000
_cell_angle_gamma   90.00000000
_symmetry_Int_Tables_number   1
_chemical_formula_structural   Cr12FeNi41
_chemical_formula_sum   'Cr12 Fe1 Ni41'
_cell_volume   591.51777713
_cell_formula_units_Z   1
loop_
 _symmetry_equiv_pos_site_id
 _symmetry_equiv_pos_as_xyz
  1  'x, y, z'
loop_
 _atom_site_type_symbol
 _atom_site_label
 _atom_site_symmetry_multiplicity
 _atom_site_fract_x
 _atom_site_fract_y
 _atom_site_fract_z
 _atom_site_occupancy
  Ni  Ni0  1  0.99696902  0.99830143  0.99821097  1
  Cr  Cr1  1  0.16131245  0.16728358  0.16277358  1
  Ni  Ni2  1  0.99530137  0.99860263  0.33310906  1
  Ni  Ni3  1  0.99738580  0.33379310  0.99762810  1
  Ni  Ni4  1  0.16583819  0.50093574  0.16049001  1
  Cr  Cr5  1  0.99607849  0.33359393  0.33328489  1
  Ni  Ni6  1  0.99827702  0.66573218  0.99910086  1
  Ni  Ni7  1  0.16296763  0.83106257  0.16288543  1
  Cr  Cr8  1  0.99723271  0.66674025  0.33109608  1
  Cr  Cr9  1  0.33370836  0.99816557  0.99809028  1
  Ni  Ni10  1  0.50292086  0.16696762  0.16444608  1
  Cr  Cr11  1  0.32895494  0.99767709  0.32857096  1
  Ni  Ni12  1  0.33349950  0.33447109  0.99776260  1
  Ni  Ni13  1  0.50118841  0.49931104  0.16431446  1
  Cr  Cr14  1  0.33246370  0.33391508  0.33174013  1
  Ni  Ni15  1  0.33267992  0.66473087  0.99922298  1
  Ni  Ni16  1  0.50252858  0.83131851  0.16469127  1
  Cr  Cr17  1  0.33186366  0.66554645  0.33045019  1
  Ni  Ni18  1  0.66801753  0.99913492  0.99813268  1
  Ni  Ni19  1  0.82947741  0.16511848  0.16474809  1
  Ni  Ni20  1  0.66856007  0.99896942  0.33029433  1
  Ni  Ni21  1  0.66663263  0.33307880  0.99905790  1
  Ni  Ni22  1  0.83111062  0.49907447  0.16363814  1
  Ni  Ni23  1  0.66680779  0.33350976  0.33140765  1
  Ni  Ni24  1  0.66671965  0.66553040  0.99889591  1
  Ni  Ni25  1  0.83168731  0.83340509  0.16492724  1
  Ni  Ni26  1  0.66702760  0.66466404  0.33197768  1
  Fe  Fe27  1  0.16345692  0.16593672  0.50178255  1
  Ni  Ni28  1  0.99788592  0.99913631  0.66612872  1
  Ni  Ni29  1  0.16359713  0.16795941  0.83202594  1
  Ni  Ni30  1  0.16528318  0.50053206  0.50374488  1
  Ni  Ni31  1  0.00039781  0.33282224  0.66635175  1
  Ni  Ni32  1  0.16555977  0.49932235  0.83315925  1
  Ni  Ni33  1  0.16265675  0.83139405  0.50126122  1
  Ni  Ni34  1  0.00071160  0.66576529  0.66665714  1
  Ni  Ni35  1  0.16354295  0.83048335  0.83321837  1
  Cr  Cr36  1  0.50236532  0.16612714  0.49883083  1
  Cr  Cr37  1  0.33219101  0.99872809  0.67027775  1
  Ni  Ni38  1  0.50063068  0.16711277  0.83435231  1
  Ni  Ni39  1  0.49866787  0.49833499  0.49950679  1
  Ni  Ni40  1  0.33090598  0.33485913  0.66765520  1
  Ni  Ni41  1  0.49739058  0.49957672  0.83438093  1
  Cr  Cr42  1  0.50166164  0.83099119  0.49985675  1
  Ni  Ni43  1  0.33081344  0.66391946  0.66781720  1
  Ni  Ni44  1  0.50088052  0.83127270  0.83358909  1
  Ni  Ni45  1  0.83414877  0.16446524  0.49939978  1
  Ni  Ni46  1  0.66972997  -0.00058358  0.66935428  1
  Ni  Ni47  1  0.83403909  0.16485599  0.83419047  1
  Ni  Ni48  1  0.83320277  0.49892501  0.49953521  1
  Cr  Cr49  1  0.66814791  0.33268469  0.66892986  1
  Ni  Ni50  1  0.83496090  0.49935297  0.83490764  1
  Ni  Ni51  1  0.83544296  0.83437707  0.49943651  1
  Cr  Cr52  1  0.66901523  0.66581715  0.66790944  1
  Ni  Ni53  1  0.83396237  0.83365764  0.83325280  1
" 