8288,Ni75Fe2Cr21_2,-230.161645653703, 152.272890408184,Ni75Fe2Cr21,"# generated using pymatgen
 data_Cr13FeNi40
_symmetry_space_group_name_H-M   'P 1'
_cell_length_a   7.48103811
_cell_length_b   7.48103811
_cell_length_c   10.57978556
_cell_angle_alpha   90.00000000
_cell_angle_beta   90.00000000
_cell_angle_gamma   90.00000000
_symmetry_Int_Tables_number   1
_chemical_formula_structural   Cr13FeNi40
_chemical_formula_sum   'Cr13 Fe1 Ni40'
_cell_volume   592.10755129
_cell_formula_units_Z   1
loop_
 _symmetry_equiv_pos_site_id
 _symmetry_equiv_pos_as_xyz
  1  'x, y, z'
loop_
 _atom_site_type_symbol
 _atom_site_label
 _atom_site_symmetry_multiplicity
 _atom_site_fract_x
 _atom_site_fract_y
 _atom_site_fract_z
 _atom_site_occupancy
  Cr  Cr0  1  0.99741027  -0.00048538  0.99471930  1
  Cr  Cr1  1  0.16814849  0.16507305  0.16713473  1
  Ni  Ni2  1  0.99866978  -0.00020082  0.33486130  1
  Cr  Cr3  1  0.99722509  0.33322306  0.99522418  1
  Cr  Cr4  1  0.16476831  0.49834564  0.16715499  1
  Ni  Ni5  1  0.99889239  0.33125805  0.33365292  1
  Ni  Ni6  1  0.99533086  0.66577140  0.99730386  1
  Cr  Cr7  1  0.16625682  0.83389647  0.16625335  1
  Ni  Ni8  1  0.99834665  0.66645267  0.33259836  1
  Ni  Ni9  1  0.33605432  0.00060071  0.99695275  1
  Ni  Ni10  1  0.50011163  0.16494685  0.16352288  1
  Ni  Ni11  1  0.33287464  0.00057084  0.33393631  1
  Ni  Ni12  1  0.33619989  0.33067553  0.99717654  1
  Ni  Ni13  1  0.50123487  0.49779344  0.16356769  1
  Ni  Ni14  1  0.33289556  0.33049980  0.33404041  1
  Cr  Cr15  1  0.33319938  0.66503118  0.99505367  1
  Ni  Ni16  1  0.50010236  0.83421769  0.16345216  1
  Cr  Cr17  1  0.33489775  0.66531282  0.33703531  1
  Ni  Ni18  1  0.66426105  -0.00025343  -0.00091923  1
  Ni  Ni19  1  0.83107682  0.16671304  0.16580521  1
  Cr  Cr20  1  0.66500483  -0.00022735  0.33317357  1
  Ni  Ni21  1  0.66447573  0.33209012  -0.00066297  1
  Ni  Ni22  1  0.83124358  0.49929918  0.16439043  1
  Cr  Cr23  1  0.66413484  0.33142257  0.33140050  1
  Ni  Ni24  1  0.66642868  0.66559728  -0.00060129  1
  Fe  Fe25  1  0.83123288  0.83293240  0.16453610  1
  Cr  Cr26  1  0.66559821  0.66605506  0.33182204  1
  Ni  Ni27  1  0.16512764  0.16620495  0.49753734  1
  Ni  Ni28  1  0.99709989  0.00092649  0.66585488  1
  Ni  Ni29  1  0.16735633  0.16638560  0.83142999  1
  Ni  Ni30  1  0.16644847  0.49713454  0.49873800  1
  Ni  Ni31  1  0.00000318  0.32974046  0.66710777  1
  Ni  Ni32  1  0.16654638  0.49787497  0.83130779  1
  Ni  Ni33  1  0.16485908  0.83368506  0.49783561  1
  Cr  Cr34  1  0.00142422  0.66747779  0.66819012  1
  Ni  Ni35  1  0.16592217  0.83281999  0.83268992  1
  Ni  Ni36  1  0.49808978  0.16619178  0.50013904  1
  Cr  Cr37  1  0.33167194  0.99870271  0.66641604  1
  Ni  Ni38  1  0.50047602  0.16621439  0.83396357  1
  Ni  Ni39  1  0.49707267  0.49754050  0.50279891  1
  Ni  Ni40  1  0.33248937  0.33354834  0.66584582  1
  Ni  Ni41  1  0.50092189  0.49809145  0.83105445  1
  Ni  Ni42  1  0.49939455  0.83324985  0.50190425  1
  Ni  Ni43  1  0.33434066  0.66393505  0.66548309  1
  Ni  Ni44  1  0.50131783  0.83273226  0.83221845  1
  Ni  Ni45  1  0.83367434  0.16400977  0.50157712  1
  Ni  Ni46  1  0.66704817  -0.00064292  0.66557021  1
  Ni  Ni47  1  0.82958798  0.16569666  0.82929468  1
  Cr  Cr48  1  0.83202705  0.49782549  0.50173031  1
  Ni  Ni49  1  0.66451562  0.33080738  0.66689615  1
  Ni  Ni50  1  0.82984072  0.49917059  0.83237615  1
  Ni  Ni51  1  0.83299647  0.83431706  0.49959300  1
  Ni  Ni52  1  0.66345133  0.66689495  0.66650661  1
  Ni  Ni53  1  0.82972713  0.83235948  0.83286219  1
" 