7005,Ni75Fe3Cr20_9,-230.841160688922, 152.995353392816,Ni75Fe3Cr20,"# generated using pymatgen
 data_Cr12FeNi41
_symmetry_space_group_name_H-M   'P 1'
_cell_length_a   7.47943416
_cell_length_b   7.47943416
_cell_length_c   10.57751723
_cell_angle_alpha   90.00000000
_cell_angle_beta   90.00000000
_cell_angle_gamma   90.00000000
_symmetry_Int_Tables_number   1
_chemical_formula_structural   Cr12FeNi41
_chemical_formula_sum   'Cr12 Fe1 Ni41'
_cell_volume   591.72678548
_cell_formula_units_Z   1
loop_
 _symmetry_equiv_pos_site_id
 _symmetry_equiv_pos_as_xyz
  1  'x, y, z'
loop_
 _atom_site_type_symbol
 _atom_site_label
 _atom_site_symmetry_multiplicity
 _atom_site_fract_x
 _atom_site_fract_y
 _atom_site_fract_z
 _atom_site_occupancy
  Ni  Ni0  1  0.00078142  -0.00045152  -0.00064409  1
  Ni  Ni1  1  0.16445237  0.16722122  0.16158144  1
  Cr  Cr2  1  0.00074921  -0.00037942  0.32962516  1
  Ni  Ni3  1  0.99908966  0.33229775  -0.00055900  1
  Ni  Ni4  1  0.16570639  0.50052244  0.16434142  1
  Cr  Cr5  1  -0.00015489  0.33368344  0.33175611  1
  Ni  Ni6  1  0.00023178  0.66552053  0.99884189  1
  Fe  Fe7  1  0.16555603  0.82982553  0.16409946  1
  Ni  Ni8  1  -0.00000175  0.66485090  0.33216071  1
  Ni  Ni9  1  0.32894384  -0.00066271  0.99911619  1
  Cr  Cr10  1  0.49914061  0.16741725  0.16459448  1
  Cr  Cr11  1  0.33139123  0.99833302  0.33374272  1
  Ni  Ni12  1  0.33105606  0.33337748  0.99784848  1
  Ni  Ni13  1  0.49822127  0.50129004  0.16556598  1
  Cr  Cr14  1  0.33104332  0.33408161  0.33467644  1
  Ni  Ni15  1  0.33025827  0.66457037  0.00045511  1
  Ni  Ni16  1  0.49856253  0.82999324  0.16719980  1
  Ni  Ni17  1  0.33255368  0.66554482  0.33222152  1
  Cr  Cr18  1  0.66893117  -0.00008672  0.99843907  1
  Ni  Ni19  1  0.83345516  0.16668425  0.16481648  1
  Ni  Ni20  1  0.66498578  0.99814199  0.33174902  1
  Ni  Ni21  1  0.66730043  0.33361732  0.99844559  1
  Ni  Ni22  1  0.83344996  0.49989592  0.16616040  1
  Ni  Ni23  1  0.66578536  0.33480826  0.33202916  1
  Cr  Cr24  1  0.66717128  0.66318900  0.99779582  1
  Ni  Ni25  1  0.83307096  0.83095736  0.16659307  1
  Ni  Ni26  1  0.66505831  0.66469037  0.33177777  1
  Ni  Ni27  1  0.16720819  0.16602617  0.50341784  1
  Ni  Ni28  1  0.00161167  -0.00044453  0.66801473  1
  Ni  Ni29  1  0.16580605  0.16635102  0.83254714  1
  Ni  Ni30  1  0.16477759  0.50049974  0.50012724  1
  Ni  Ni31  1  0.00022999  0.33332728  0.66634928  1
  Ni  Ni32  1  0.16473797  0.49810771  0.83328440  1
  Ni  Ni33  1  0.16633490  0.83096046  0.49947591  1
  Ni  Ni34  1  0.00040565  0.66463211  0.66680565  1
  Ni  Ni35  1  0.16307089  0.83296255  0.83399270  1
  Ni  Ni36  1  0.49949662  0.16594782  0.50116000  1
  Ni  Ni37  1  0.33109867  0.00141944  0.66475651  1
  Ni  Ni38  1  0.49772091  0.16856544  0.83141405  1
  Ni  Ni39  1  0.49983361  0.49830144  0.49780802  1
  Ni  Ni40  1  0.33231638  0.33101275  0.66573607  1
  Ni  Ni41  1  0.49705257  0.49394871  0.83434623  1
  Ni  Ni42  1  0.49850119  0.83327499  0.49773145  1
  Cr  Cr43  1  0.33079668  0.66410467  0.66513595  1
  Cr  Cr44  1  0.49576500  0.83488357  0.83250646  1
  Cr  Cr45  1  0.83105747  0.16725011  0.50009420  1
  Ni  Ni46  1  0.66494535  0.00166745  0.66661894  1
  Ni  Ni47  1  0.83401505  0.16709278  0.83220044  1
  Ni  Ni48  1  0.83297717  0.49946341  0.49894435  1
  Ni  Ni49  1  0.66511747  0.33221077  0.66683131  1
  Ni  Ni50  1  0.83580611  0.49678290  0.83237486  1
  Cr  Cr51  1  0.83295275  0.83106520  0.50000441  1
  Cr  Cr52  1  0.66692707  0.66320101  0.66802418  1
  Ni  Ni53  1  0.83793336  0.83373711  0.83115328  1
" 