529,Ni75Fe3Cr20_12,-230.920242483999, 154.935962745766,Ni75Fe3Cr20,"# generated using pymatgen
 data_Cr12FeNi41
_symmetry_space_group_name_H-M   'P 1'
_cell_length_a   7.47577442
_cell_length_b   7.47577442
_cell_length_c   10.57234157
_cell_angle_alpha   90.00000000
_cell_angle_beta   90.00000000
_cell_angle_gamma   90.00000000
_symmetry_Int_Tables_number   1
_chemical_formula_structural   Cr12FeNi41
_chemical_formula_sum   'Cr12 Fe1 Ni41'
_cell_volume   590.85860117
_cell_formula_units_Z   1
loop_
 _symmetry_equiv_pos_site_id
 _symmetry_equiv_pos_as_xyz
  1  'x, y, z'
loop_
 _atom_site_type_symbol
 _atom_site_label
 _atom_site_symmetry_multiplicity
 _atom_site_fract_x
 _atom_site_fract_y
 _atom_site_fract_z
 _atom_site_occupancy
  Ni  Ni0  1  0.99932895  -0.00014255  0.99888288  1
  Ni  Ni1  1  0.16536297  0.16765840  0.16578007  1
  Ni  Ni2  1  0.99659560  -0.00054926  0.33286330  1
  Ni  Ni3  1  0.00243669  0.33138840  -0.00018341  1
  Ni  Ni4  1  0.16729449  0.49738033  0.16571612  1
  Ni  Ni5  1  0.00041769  0.33277565  0.33306572  1
  Ni  Ni6  1  0.00088988  0.66734641  0.99801028  1
  Cr  Cr7  1  0.16335356  0.83239753  0.16517824  1
  Ni  Ni8  1  0.99922390  0.66589431  0.33459648  1
  Ni  Ni9  1  0.33357611  0.00018989  0.99806912  1
  Ni  Ni10  1  0.49923522  0.16576933  0.16386193  1
  Cr  Cr11  1  0.33507293  0.00016762  0.33053282  1
  Ni  Ni12  1  0.33154209  0.33153378  0.00085996  1
  Ni  Ni13  1  0.49712192  0.49890753  0.16305241  1
  Ni  Ni14  1  0.33086352  0.33413699  0.33029989  1
  Ni  Ni15  1  0.33266994  0.66645033  0.99919267  1
  Ni  Ni16  1  0.50133014  0.83371657  0.16401362  1
  Cr  Cr17  1  0.33259130  0.66389627  0.33417732  1
  Ni  Ni18  1  0.66520969  0.99871206  0.00078184  1
  Ni  Ni19  1  0.83378419  0.16366124  0.16603508  1
  Ni  Ni20  1  0.66938236  0.99900604  0.33140604  1
  Ni  Ni21  1  0.66454234  0.33021756  0.00146132  1
  Cr  Cr22  1  0.83505183  0.50142941  0.16214178  1
  Cr  Cr23  1  0.66538900  0.33108278  0.33156461  1
  Ni  Ni24  1  0.66485221  0.66968920  0.00020071  1
  Ni  Ni25  1  0.83184453  0.83562471  0.16504596  1
  Cr  Cr26  1  0.66638677  0.66816679  0.33378212  1
  Cr  Cr27  1  0.16486584  0.16459581  0.49948077  1
  Ni  Ni28  1  0.99934166  0.99924646  0.66660729  1
  Ni  Ni29  1  0.16777752  0.16535893  0.83227440  1
  Ni  Ni30  1  0.16659598  0.49969406  0.49902519  1
  Ni  Ni31  1  0.00056868  0.33183336  0.66499789  1
  Ni  Ni32  1  0.16763389  0.49886645  0.83402171  1
  Ni  Ni33  1  0.16423109  0.83181704  0.50024270  1
  Cr  Cr34  1  0.00027018  0.66649956  0.66695468  1
  Ni  Ni35  1  0.16722038  0.83400600  0.83358692  1
  Cr  Cr36  1  0.49974108  0.16621277  0.50230430  1
  Ni  Ni37  1  0.33252583  0.99763846  0.66885235  1
  Ni  Ni38  1  0.49759489  0.16426615  0.83260089  1
  Ni  Ni39  1  0.49839386  0.49931338  0.50234606  1
  Ni  Ni40  1  0.33160161  0.33343211  0.66737753  1
  Cr  Cr41  1  0.49936226  0.49900064  0.83310717  1
  Fe  Fe42  1  0.49985569  0.83269231  0.50184348  1
  Ni  Ni43  1  0.33342828  0.66699920  0.66509788  1
  Ni  Ni44  1  0.49921478  0.83418792  0.83186518  1
  Ni  Ni45  1  0.83284868  0.16437137  0.50001466  1
  Ni  Ni46  1  0.66622388  0.99760557  0.66596985  1
  Cr  Cr47  1  0.83194424  0.16543918  0.83156767  1
  Ni  Ni48  1  0.83286079  0.49926334  0.50075957  1
  Ni  Ni49  1  0.66627456  0.33255849  0.66436986  1
  Cr  Cr50  1  0.83226818  0.50045653  0.83489435  1
  Ni  Ni51  1  0.83371780  0.83434134  0.49909188  1
  Ni  Ni52  1  0.66480347  0.66814415  0.66415073  1
  Ni  Ni53  1  0.83196678  0.83413377  0.83468786  1
" 