6559,Ni75Fe15Cr9_6,-237.280965256967, 189.509193997333,Ni75Fe15Cr9,"# generated using pymatgen
 data_Cr3(FeNi5)4
_symmetry_space_group_name_H-M   'P 1'
_cell_length_a   7.44063322
_cell_length_b   7.44063322
_cell_length_c   10.52264441
_cell_angle_alpha   90.00000000
_cell_angle_beta   90.00000000
_cell_angle_gamma   90.00000000
_symmetry_Int_Tables_number   1
_chemical_formula_structural   Cr3(FeNi5)4
_chemical_formula_sum   'Cr6 Fe8 Ni40'
_cell_volume   582.56540089
_cell_formula_units_Z   2
loop_
 _symmetry_equiv_pos_site_id
 _symmetry_equiv_pos_as_xyz
  1  'x, y, z'
loop_
 _atom_site_type_symbol
 _atom_site_label
 _atom_site_symmetry_multiplicity
 _atom_site_fract_x
 _atom_site_fract_y
 _atom_site_fract_z
 _atom_site_occupancy
  Ni  Ni0  1  1.00027421  0.99815971  1.00073752  1
  Cr  Cr1  1  0.17037568  0.16680120  0.16865013  1
  Ni  Ni2  1  1.00041209  1.00054547  0.33542887  1
  Cr  Cr3  1  1.00164603  0.33464141  0.99855896  1
  Cr  Cr4  1  0.17100272  0.50304676  0.16893861  1
  Fe  Fe5  1  1.00108162  0.33402256  0.33798053  1
  Ni  Ni6  1  0.00276871  0.67201794  1.00077688  1
  Fe  Fe7  1  0.16835459  0.83562230  0.16811487  1
  Fe  Fe8  1  1.00142723  0.67052463  0.33686583  1
  Ni  Ni9  1  0.33586948  1.00011090  1.00117694  1
  Ni  Ni10  1  0.50219866  0.16770647  0.16896101  1
  Ni  Ni11  1  0.33516847  1.00066173  0.33575003  1
  Ni  Ni12  1  0.33727326  0.33633665  1.00015216  1
  Ni  Ni13  1  0.50074349  0.50197508  0.16972988  1
  Ni  Ni14  1  0.33733419  0.33627315  0.33602839  1
  Ni  Ni15  1  0.33456146  0.66887743  1.00122582  1
  Fe  Fe16  1  0.50241053  0.83556202  0.16874547  1
  Ni  Ni17  1  0.33545398  0.66839109  0.33569415  1
  Ni  Ni18  1  0.66918257  1.00087056  0.00261885  1
  Ni  Ni19  1  0.83283955  0.16402079  0.17074984  1
  Ni  Ni20  1  0.66974421  0.00242016  0.33431915  1
  Cr  Cr21  1  0.66612269  0.33328679  1.00140894  1
  Cr  Cr22  1  0.83375899  0.50409686  0.16956356  1
  Ni  Ni23  1  0.66774221  0.33466864  0.33520532  1
  Fe  Fe24  1  0.66757366  0.67128534  1.00116041  1
  Ni  Ni25  1  0.83457639  0.83683294  0.16806927  1
  Ni  Ni26  1  0.66784967  0.66823596  0.33564466  1
  Ni  Ni27  1  0.16960102  0.16892500  0.50180152  1
  Ni  Ni28  1  1.00114630  0.00310659  0.66916044  1
  Ni  Ni29  1  0.16949198  0.16820022  0.83443300  1
  Ni  Ni30  1  0.16833605  0.50035825  0.50048348  1
  Ni  Ni31  1  1.00093141  0.33400997  0.66852875  1
  Ni  Ni32  1  0.16984112  0.50114100  0.83575585  1
  Ni  Ni33  1  0.16933069  0.83604188  0.50002803  1
  Cr  Cr34  1  0.00312783  0.66887702  0.66867242  1
  Ni  Ni35  1  0.16893467  0.83598451  0.83674988  1
  Ni  Ni36  1  0.50058720  0.16766059  0.50121175  1
  Ni  Ni37  1  0.33541778  1.00128258  0.66839553  1
  Ni  Ni38  1  0.50030702  0.16771941  0.83515263  1
  Fe  Fe39  1  0.50103403  0.50212226  0.50128242  1
  Ni  Ni40  1  0.33563237  0.33583134  0.66914482  1
  Ni  Ni41  1  0.50068303  0.50235145  0.83433963  1
  Ni  Ni42  1  0.50212460  0.83603975  0.50140602  1
  Ni  Ni43  1  0.33592598  0.66821136  0.66840378  1
  Ni  Ni44  1  0.50207172  0.83525758  0.83548972  1
  Fe  Fe45  1  0.83546866  0.16776441  0.50196330  1
  Ni  Ni46  1  0.66876035  0.00281612  0.66839018  1
  Ni  Ni47  1  0.83552638  0.16681090  0.83348842  1
  Ni  Ni48  1  0.83513351  0.50189369  0.50036795  1
  Ni  Ni49  1  0.66875988  0.33451559  0.66853364  1
  Ni  Ni50  1  0.83479871  0.50290895  0.83497327  1
  Ni  Ni51  1  0.83386859  0.83477546  0.50067876  1
  Fe  Fe52  1  0.66694566  0.66864116  0.66818043  1
  Ni  Ni53  1  0.83431762  0.83560894  0.83657885  1
" 