3175,Ni75Fe2Cr21_4,-230.123426065306, 151.426223322889,Ni75Fe2Cr21,"# generated using pymatgen
 data_Cr13FeNi40
_symmetry_space_group_name_H-M   'P 1'
_cell_length_a   7.47681410
_cell_length_b   7.47681410
_cell_length_c   10.57381190
_cell_angle_alpha   90.00000000
_cell_angle_beta   90.00000000
_cell_angle_gamma   90.00000000
_symmetry_Int_Tables_number   1
_chemical_formula_structural   Cr13FeNi40
_chemical_formula_sum   'Cr13 Fe1 Ni40'
_cell_volume   591.10515382
_cell_formula_units_Z   1
loop_
 _symmetry_equiv_pos_site_id
 _symmetry_equiv_pos_as_xyz
  1  'x, y, z'
loop_
 _atom_site_type_symbol
 _atom_site_label
 _atom_site_symmetry_multiplicity
 _atom_site_fract_x
 _atom_site_fract_y
 _atom_site_fract_z
 _atom_site_occupancy
  Ni  Ni0  1  0.00022133  0.99840228  0.00032340  1
  Ni  Ni1  1  0.16690666  0.16518750  0.16714998  1
  Ni  Ni2  1  0.00091134  0.99925100  0.33067975  1
  Cr  Cr3  1  0.99904844  0.33242842  -0.00021567  1
  Ni  Ni4  1  0.16757470  0.49914923  0.16750601  1
  Ni  Ni5  1  0.99866549  0.33380452  0.33261191  1
  Cr  Cr6  1  0.00065545  0.66745894  0.99908105  1
  Ni  Ni7  1  0.16512961  0.83371810  0.16692214  1
  Ni  Ni8  1  0.00032601  0.66499994  0.33154515  1
  Ni  Ni9  1  0.33129762  -0.00037036  0.99930014  1
  Ni  Ni10  1  0.49745140  0.16960813  0.16544865  1
  Ni  Ni11  1  0.33024839  0.99848443  0.33197808  1
  Ni  Ni12  1  0.33529015  0.33348321  0.00053472  1
  Ni  Ni13  1  0.49883969  0.49663580  0.16718040  1
  Ni  Ni14  1  0.33238579  0.33445186  0.33031170  1
  Ni  Ni15  1  0.33169305  0.66494605  0.99765479  1
  Cr  Cr16  1  0.49726877  0.83125998  0.16686517  1
  Ni  Ni17  1  0.33153120  0.66508704  0.33423657  1
  Cr  Cr18  1  0.66702414  0.00162372  0.99858363  1
  Ni  Ni19  1  0.83370263  0.16723876  0.16715010  1
  Cr  Cr20  1  0.66647945  0.00025628  0.33165894  1
  Ni  Ni21  1  0.66386055  0.33237365  0.99910901  1
  Ni  Ni22  1  0.83165885  0.49839826  0.16875535  1
  Ni  Ni23  1  0.66698488  0.33508348  0.33174643  1
  Cr  Cr24  1  0.66606426  0.66416438  0.99869611  1
  Ni  Ni25  1  0.83618286  0.83238517  0.16768928  1
  Ni  Ni26  1  0.66619854  0.66279966  0.33261301  1
  Cr  Cr27  1  0.16359006  0.16537687  0.49869952  1
  Ni  Ni28  1  0.99814893  0.00019740  0.66705173  1
  Cr  Cr29  1  0.16597041  0.16478189  0.83247366  1
  Ni  Ni30  1  0.16526153  0.50111048  0.49803206  1
  Ni  Ni31  1  0.99588587  0.33258268  0.66568258  1
  Ni  Ni32  1  0.16781159  0.50121562  0.83244820  1
  Ni  Ni33  1  0.16920167  0.83135583  0.49872151  1
  Cr  Cr34  1  0.00227928  0.66455141  0.66759365  1
  Ni  Ni35  1  0.16802441  0.83255834  0.83242898  1
  Cr  Cr36  1  0.50062469  0.16515990  0.49955811  1
  Ni  Ni37  1  0.33386803  0.99531344  0.66679315  1
  Ni  Ni38  1  0.50120685  0.16605099  0.83303163  1
  Fe  Fe39  1  0.49942341  0.50090899  0.49754769  1
  Cr  Cr40  1  0.33272805  0.33544814  0.66677945  1
  Ni  Ni41  1  0.49881850  0.49879925  0.83331222  1
  Ni  Ni42  1  0.49585121  0.83118069  0.49992962  1
  Ni  Ni43  1  0.33240915  0.66806127  0.66615055  1
  Ni  Ni44  1  0.49681741  0.83323756  0.83105160  1
  Ni  Ni45  1  0.83315475  0.16930108  0.50094999  1
  Ni  Ni46  1  0.66598556  0.00122276  0.66797370  1
  Ni  Ni47  1  0.83075558  0.16627204  0.82997262  1
  Ni  Ni48  1  0.83314724  0.49603900  0.49767789  1
  Ni  Ni49  1  0.66881549  0.33106507  0.66725244  1
  Ni  Ni50  1  0.83140543  0.49676533  0.83160514  1
  Cr  Cr51  1  0.83298727  0.83306191  0.49800357  1
  Cr  Cr52  1  0.66372903  0.66581924  0.66677701  1
  Ni  Ni53  1  0.83322900  0.83498502  0.83211752  1
" 