7599,Ni75Fe3Cr20_15,-230.997449277262, 155.357153272377,Ni75Fe3Cr20,"# generated using pymatgen
 data_Cr12FeNi41
_symmetry_space_group_name_H-M   'P 1'
_cell_length_a   7.47559837
_cell_length_b   7.47559837
_cell_length_c   10.57209260
_cell_angle_alpha   90.00000000
_cell_angle_beta   90.00000000
_cell_angle_gamma   90.00000000
_symmetry_Int_Tables_number   1
_chemical_formula_structural   Cr12FeNi41
_chemical_formula_sum   'Cr12 Fe1 Ni41'
_cell_volume   590.81685863
_cell_formula_units_Z   1
loop_
 _symmetry_equiv_pos_site_id
 _symmetry_equiv_pos_as_xyz
  1  'x, y, z'
loop_
 _atom_site_type_symbol
 _atom_site_label
 _atom_site_symmetry_multiplicity
 _atom_site_fract_x
 _atom_site_fract_y
 _atom_site_fract_z
 _atom_site_occupancy
  Cr  Cr0  1  0.99827795  0.99842714  0.00007410  1
  Ni  Ni1  1  0.16665503  0.16631894  0.16736009  1
  Ni  Ni2  1  0.00025007  0.99841838  0.33220057  1
  Ni  Ni3  1  0.99847086  0.33393402  0.00036230  1
  Ni  Ni4  1  0.16472307  0.49855455  0.16520990  1
  Ni  Ni5  1  0.00131010  0.33282045  0.33256776  1
  Ni  Ni6  1  -0.00004968  0.66565102  0.99934930  1
  Ni  Ni7  1  0.16706384  0.83340733  0.16627926  1
  Ni  Ni8  1  0.99921717  0.66705498  0.33369654  1
  Ni  Ni9  1  0.33567632  0.99850359  0.00029112  1
  Ni  Ni10  1  0.49744148  0.16352943  0.16430024  1
  Ni  Ni11  1  0.33088139  0.00118413  0.33084528  1
  Ni  Ni12  1  0.33312998  0.33143236  0.00218158  1
  Cr  Cr13  1  0.49905090  0.50044730  0.16453040  1
  Ni  Ni14  1  0.33095665  0.33127675  0.33249302  1
  Ni  Ni15  1  0.33175480  0.66831921  -0.00001703  1
  Ni  Ni16  1  0.49873902  0.83471260  0.16393068  1
  Cr  Cr17  1  0.33109470  0.66522542  0.33346567  1
  Ni  Ni18  1  0.66402325  -0.00007487  0.99938774  1
  Ni  Ni19  1  0.83415239  0.16586385  0.16518861  1
  Cr  Cr20  1  0.66723534  0.99918506  0.33129386  1
  Ni  Ni21  1  0.66665604  0.32999131  0.99795196  1
  Cr  Cr22  1  0.83461764  0.50005751  0.16479100  1
  Cr  Cr23  1  0.66524636  0.33234878  0.33567760  1
  Ni  Ni24  1  0.66661606  0.66844436  0.99883997  1
  Fe  Fe25  1  0.83307397  0.83297481  0.16618087  1
  Ni  Ni26  1  0.66874952  0.66693837  0.33369470  1
  Cr  Cr27  1  0.16491719  0.16423799  0.49822790  1
  Ni  Ni28  1  0.99732741  0.99716017  0.66564111  1
  Cr  Cr29  1  0.16571850  0.16434005  0.83263786  1
  Ni  Ni30  1  0.16397247  0.50081562  0.49879829  1
  Ni  Ni31  1  0.99473894  0.33375011  0.66533212  1
  Cr  Cr32  1  0.16322725  0.50126826  0.83447844  1
  Ni  Ni33  1  0.16364437  0.83198459  0.50073893  1
  Ni  Ni34  1  0.99888806  0.66734464  0.66518104  1
  Ni  Ni35  1  0.16721508  0.83218862  0.83127617  1
  Ni  Ni36  1  0.50010995  0.16702118  0.50010242  1
  Ni  Ni37  1  0.33373262  0.99658516  0.66717031  1
  Ni  Ni38  1  0.50227569  0.16286708  0.83390747  1
  Ni  Ni39  1  0.50092977  0.49902112  0.49991717  1
  Cr  Cr40  1  0.33500717  0.33359253  0.66365133  1
  Cr  Cr41  1  0.50229991  0.50099735  0.83413367  1
  Cr  Cr42  1  0.49950246  0.83285886  0.50117847  1
  Ni  Ni43  1  0.33147722  0.66877643  0.66536525  1
  Ni  Ni44  1  0.49958892  0.83453476  0.83314127  1
  Ni  Ni45  1  0.83311358  0.16659752  0.50144194  1
  Ni  Ni46  1  0.66720571  0.00066459  0.66728664  1
  Ni  Ni47  1  0.83025471  0.16706021  0.83167684  1
  Ni  Ni48  1  0.83337237  0.50032363  0.50053555  1
  Ni  Ni49  1  0.66857919  0.33150566  0.66518754  1
  Ni  Ni50  1  0.83255325  0.49943246  0.83273930  1
  Ni  Ni51  1  0.83505678  0.83136290  0.49913996  1
  Ni  Ni52  1  0.66791035  0.66610115  0.66567226  1
  Ni  Ni53  1  0.83148364  0.83177741  0.83243045  1
" 