400,Ni75Fe2Cr21_19,-230.34284711869, 155.789112581967,Ni75Fe2Cr21,"# generated using pymatgen
 data_Cr13FeNi40
_symmetry_space_group_name_H-M   'P 1'
_cell_length_a   7.47456731
_cell_length_b   7.47456731
_cell_length_c   10.57063446
_cell_angle_alpha   90.00000000
_cell_angle_beta   90.00000000
_cell_angle_gamma   90.00000000
_symmetry_Int_Tables_number   1
_chemical_formula_structural   Cr13FeNi40
_chemical_formula_sum   'Cr13 Fe1 Ni40'
_cell_volume   590.57242970
_cell_formula_units_Z   1
loop_
 _symmetry_equiv_pos_site_id
 _symmetry_equiv_pos_as_xyz
  1  'x, y, z'
loop_
 _atom_site_type_symbol
 _atom_site_label
 _atom_site_symmetry_multiplicity
 _atom_site_fract_x
 _atom_site_fract_y
 _atom_site_fract_z
 _atom_site_occupancy
  Ni  Ni0  1  0.00000200  -0.00046361  -0.00032175  1
  Ni  Ni1  1  0.16318081  0.16331934  0.16777662  1
  Ni  Ni2  1  -0.00029043  0.00161365  0.33088649  1
  Ni  Ni3  1  0.99561698  0.33069099  -0.00037724  1
  Cr  Cr4  1  0.16430661  0.49910988  0.16488560  1
  Ni  Ni5  1  0.99925520  0.33065863  0.33289987  1
  Ni  Ni6  1  0.99885406  0.66830684  0.99921270  1
  Ni  Ni7  1  0.16598690  0.83616490  0.16348883  1
  Cr  Cr8  1  0.99539443  0.66647613  0.33268716  1
  Ni  Ni9  1  0.33155165  0.99684090  0.99925115  1
  Cr  Cr10  1  0.50147537  0.16387717  0.16732131  1
  Ni  Ni11  1  0.33282862  0.00181295  0.33224510  1
  Cr  Cr12  1  0.33308374  0.32984545  0.99717377  1
  Cr  Cr13  1  0.50145050  0.49992966  0.16648907  1
  Ni  Ni14  1  0.33222180  0.32932188  0.33685281  1
  Ni  Ni15  1  0.33246227  0.67128324  0.99801614  1
  Ni  Ni16  1  0.49952659  0.83480220  0.16634726  1
  Cr  Cr17  1  0.33530006  0.66760790  0.33340145  1
  Ni  Ni18  1  0.66692367  0.00009069  0.99763419  1
  Ni  Ni19  1  0.83446159  0.16586730  0.16575118  1
  Ni  Ni20  1  0.66589344  0.99758702  0.33381949  1
  Ni  Ni21  1  0.66995318  0.33150731  0.99767099  1
  Ni  Ni22  1  0.83324090  0.49758594  0.16622480  1
  Ni  Ni23  1  0.66706837  0.33399662  0.33315432  1
  Cr  Cr24  1  0.66729078  0.66606542  -0.00046359  1
  Ni  Ni25  1  0.83295817  0.83505142  0.16680061  1
  Ni  Ni26  1  0.66704880  0.66686159  0.33384312  1
  Ni  Ni27  1  0.16707694  0.16925858  0.49811908  1
  Ni  Ni28  1  0.99900296  0.99942084  0.66800505  1
  Ni  Ni29  1  0.16427555  0.16463314  0.83265960  1
  Ni  Ni30  1  0.16657258  0.49611485  0.50181227  1
  Ni  Ni31  1  0.00100733  0.33235971  0.66598683  1
  Cr  Cr32  1  0.16551066  0.50149439  0.83142656  1
  Cr  Cr33  1  0.16451550  0.83320210  0.50091916  1
  Ni  Ni34  1  0.99863593  0.66663063  0.66620972  1
  Ni  Ni35  1  0.16538804  0.83330709  0.83437302  1
  Ni  Ni36  1  0.49796080  0.16657320  0.49756011  1
  Cr  Cr37  1  0.33303063  0.00137533  0.66706618  1
  Ni  Ni38  1  0.50094272  0.16524911  0.83368282  1
  Ni  Ni39  1  0.49814557  0.49856076  0.49853395  1
  Ni  Ni40  1  0.33214468  0.33296132  0.66449933  1
  Ni  Ni41  1  0.49905871  0.49940082  0.83290286  1
  Ni  Ni42  1  0.50199050  0.83341007  0.49805479  1
  Ni  Ni43  1  0.33339968  0.66506005  0.66660544  1
  Ni  Ni44  1  0.49856227  0.83379738  0.83402239  1
  Cr  Cr45  1  0.83346358  0.16423417  0.49877369  1
  Fe  Fe46  1  0.66695109  0.99871639  0.66712935  1
  Ni  Ni47  1  0.83330648  0.16509171  0.83425502  1
  Ni  Ni48  1  0.83379017  0.50010258  0.49812083  1
  Cr  Cr49  1  0.66507574  0.33288820  0.66831365  1
  Ni  Ni50  1  0.83390634  0.49833171  0.83424701  1
  Ni  Ni51  1  0.83090690  0.83279805  0.49958768  1
  Cr  Cr52  1  0.66659042  0.66700001  0.66523023  1
  Ni  Ni53  1  0.83457916  0.83505334  0.83206891  1
" 