2562,Ni75Fe25_13,-234.928088157465, 195.225304856943,Ni75Fe25,"# generated using pymatgen
 data_Fe20Ni7
_symmetry_space_group_name_H-M   'P 1'
_cell_length_a   7.39876079
_cell_length_b   7.39876079
_cell_length_c   10.46342785
_cell_angle_alpha   90.00000000
_cell_angle_beta   90.00000000
_cell_angle_gamma   90.00000000
_symmetry_Int_Tables_number   1
_chemical_formula_structural   Fe20Ni7
_chemical_formula_sum   'Fe40 Ni14'
_cell_volume   572.78542300
_cell_formula_units_Z   2
loop_
 _symmetry_equiv_pos_site_id
 _symmetry_equiv_pos_as_xyz
  1  'x, y, z'
loop_
 _atom_site_type_symbol
 _atom_site_label
 _atom_site_symmetry_multiplicity
 _atom_site_fract_x
 _atom_site_fract_y
 _atom_site_fract_z
 _atom_site_occupancy
  Fe  Fe0  1  0.00529636  1.00439990  1.00431668  1
  Fe  Fe1  1  0.17119666  0.17190368  0.17220451  1
  Fe  Fe2  1  0.00492660  0.00530464  0.33826016  1
  Ni  Ni3  1  0.00467975  0.33835124  1.00381563  1
  Fe  Fe4  1  0.17127677  0.50407046  0.17136152  1
  Ni  Ni5  1  0.00598155  0.33791786  0.33911205  1
  Fe  Fe6  1  0.00523561  0.67193838  1.00407207  1
  Fe  Fe7  1  0.17174142  0.83786831  0.17005832  1
  Fe  Fe8  1  1.00450724  0.67030398  0.33794847  1
  Ni  Ni9  1  0.33931378  1.00354766  1.00375491  1
  Fe  Fe10  1  0.50438374  0.17096964  0.17045330  1
  Fe  Fe11  1  0.33778463  0.00515459  0.33797353  1
  Fe  Fe12  1  0.33839748  0.33719822  0.00506654  1
  Fe  Fe13  1  0.50430426  0.50500879  0.17176069  1
  Ni  Ni14  1  0.33601066  0.33791963  0.33785267  1
  Ni  Ni15  1  0.33804466  0.67194371  1.00452270  1
  Fe  Fe16  1  0.50477908  0.83786704  0.17142392  1
  Fe  Fe17  1  0.33820194  0.67045591  0.33766000  1
  Ni  Ni18  1  0.67062063  1.00405244  1.00424874  1
  Fe  Fe19  1  0.83826467  0.17143408  0.17053524  1
  Fe  Fe20  1  0.67113191  0.00488393  0.33817804  1
  Fe  Fe21  1  0.67093531  0.33725931  1.00376374  1
  Fe  Fe22  1  0.83826253  0.50446372  0.17116236  1
  Fe  Fe23  1  0.67128325  0.33865703  0.33786617  1
  Fe  Fe24  1  0.67105308  0.67134470  0.00523157  1
  Fe  Fe25  1  0.83732459  0.83794948  0.17161196  1
  Ni  Ni26  1  0.67108009  0.67257931  0.33851074  1
  Ni  Ni27  1  0.17106688  0.17149591  0.50453449  1
  Fe  Fe28  1  1.00446727  0.00468366  0.67126802  1
  Fe  Fe29  1  0.17068332  0.17150166  0.83780844  1
  Fe  Fe30  1  0.17187951  0.50405147  0.50407751  1
  Fe  Fe31  1  1.00370355  0.33728450  0.67142872  1
  Fe  Fe32  1  0.17074387  0.50411911  0.83840591  1
  Fe  Fe33  1  0.17174280  0.83840744  0.50529670  1
  Fe  Fe34  1  1.00409648  0.67187768  0.67182480  1
  Ni  Ni35  1  0.17198159  0.83774623  0.83804950  1
  Fe  Fe36  1  0.50398819  0.17073920  0.50521066  1
  Fe  Fe37  1  0.33832512  1.00453339  0.67163275  1
  Ni  Ni38  1  0.50528925  0.17097513  0.83804792  1
  Fe  Fe39  1  0.50393401  0.50472048  0.50398807  1
  Fe  Fe40  1  0.33862812  0.33697221  0.67043632  1
  Fe  Fe41  1  0.50475982  0.50438731  0.83809586  1
  Ni  Ni42  1  0.50454637  0.83754323  0.50414950  1
  Fe  Fe43  1  0.33838534  0.67233737  0.67179827  1
  Fe  Fe44  1  0.50519458  0.83886182  0.83788907  1
  Fe  Fe45  1  0.83805500  0.17060437  0.50512969  1
  Ni  Ni46  1  0.67118021  1.00404686  0.67097684  1
  Ni  Ni47  1  0.83695862  0.17262425  0.83832527  1
  Fe  Fe48  1  0.83803009  0.50477733  0.50458886  1
  Fe  Fe49  1  0.67151062  0.33734340  0.67221626  1
  Ni  Ni50  1  0.83784819  0.50385221  0.83870610  1
  Fe  Fe51  1  0.83738365  0.83846495  0.50444695  1
  Fe  Fe52  1  0.67136397  0.67157110  0.67035285  1
  Fe  Fe53  1  0.83743167  0.83892646  0.83778476  1
" 