4010,Ni75Fe15Cr9_5,-237.711773980981, 193.19747605742,Ni75Fe15Cr9,"# generated using pymatgen
 data_Cr3(FeNi5)4
_symmetry_space_group_name_H-M   'P 1'
_cell_length_a   7.44138038
_cell_length_b   7.44138038
_cell_length_c   10.52370106
_cell_angle_alpha   90.00000000
_cell_angle_beta   90.00000000
_cell_angle_gamma   90.00000000
_symmetry_Int_Tables_number   1
_chemical_formula_structural   Cr3(FeNi5)4
_chemical_formula_sum   'Cr6 Fe8 Ni40'
_cell_volume   582.74091607
_cell_formula_units_Z   2
loop_
 _symmetry_equiv_pos_site_id
 _symmetry_equiv_pos_as_xyz
  1  'x, y, z'
loop_
 _atom_site_type_symbol
 _atom_site_label
 _atom_site_symmetry_multiplicity
 _atom_site_fract_x
 _atom_site_fract_y
 _atom_site_fract_z
 _atom_site_occupancy
  Ni  Ni0  1  1.00164873  0.00237210  1.00068778  1
  Ni  Ni1  1  0.16612751  0.16815677  0.16778309  1
  Ni  Ni2  1  0.00277601  0.00211408  0.33572990  1
  Fe  Fe3  1  0.00200223  0.33227320  0.99946841  1
  Cr  Cr4  1  0.17034852  0.49893778  0.16830676  1
  Ni  Ni5  1  1.00048699  0.33422460  0.33546175  1
  Cr  Cr6  1  0.00213798  0.66871936  0.00223929  1
  Fe  Fe7  1  0.16917462  0.83892508  0.16816752  1
  Ni  Ni8  1  0.99921173  0.66859579  0.33557935  1
  Ni  Ni9  1  0.33417885  0.00206459  1.00096213  1
  Cr  Cr10  1  0.50054029  0.17043150  0.16890978  1
  Ni  Ni11  1  0.33224529  0.00321709  0.33615051  1
  Ni  Ni12  1  0.33582493  0.33466721  0.99899141  1
  Ni  Ni13  1  0.50168140  0.50197066  0.16815030  1
  Ni  Ni14  1  0.33431969  0.33387843  0.33825775  1
  Ni  Ni15  1  0.33513184  0.66884454  1.00012118  1
  Ni  Ni16  1  0.50305193  0.83407758  0.16598886  1
  Cr  Cr17  1  0.33604148  0.67093769  0.33543211  1
  Ni  Ni18  1  0.66941763  0.00295368  1.00049046  1
  Ni  Ni19  1  0.83760530  0.16711116  0.16675190  1
  Cr  Cr20  1  0.66753996  1.00158734  0.33610800  1
  Ni  Ni21  1  0.66896319  0.33371521  1.00124480  1
  Fe  Fe22  1  0.83292301  0.49943581  0.16960306  1
  Ni  Ni23  1  0.66990308  0.33718384  0.33613051  1
  Cr  Cr24  1  0.66812909  0.66779925  1.00032995  1
  Ni  Ni25  1  0.83582327  0.83699346  0.16945271  1
  Ni  Ni26  1  0.67039670  0.66685333  0.33583215  1
  Ni  Ni27  1  0.16770182  0.16951126  0.50213623  1
  Fe  Fe28  1  0.00310915  0.00317097  0.66823176  1
  Fe  Fe29  1  0.16872220  0.16856387  0.83435276  1
  Ni  Ni30  1  0.16802308  0.50142300  0.50307797  1
  Ni  Ni31  1  1.00118857  0.33640942  0.67001753  1
  Ni  Ni32  1  0.16968374  0.50246304  0.83417115  1
  Ni  Ni33  1  0.16653149  0.83510469  0.50124095  1
  Ni  Ni34  1  0.00233479  0.66823626  0.66819233  1
  Ni  Ni35  1  0.16796713  0.83478153  0.83507634  1
  Ni  Ni36  1  0.50160361  0.16959543  0.50192738  1
  Ni  Ni37  1  0.33617441  1.00156988  0.66755532  1
  Ni  Ni38  1  0.50259931  0.16896799  0.83514707  1
  Ni  Ni39  1  0.50096407  0.50064952  0.50239097  1
  Ni  Ni40  1  0.33515943  0.33482319  0.66791231  1
  Ni  Ni41  1  0.49985491  0.49910982  0.83454021  1
  Ni  Ni42  1  0.50226230  0.83455914  0.50442508  1
  Ni  Ni43  1  0.33274655  0.66875772  0.66945488  1
  Fe  Fe44  1  0.50125828  0.83593538  0.83410027  1
  Ni  Ni45  1  0.83600915  0.16779626  0.50264161  1
  Ni  Ni46  1  0.66831790  0.00303124  0.66910242  1
  Ni  Ni47  1  0.83366942  0.16731681  0.83588450  1
  Fe  Fe48  1  0.83560925  0.50099998  0.50293427  1
  Ni  Ni49  1  0.66871891  0.33301975  0.66826461  1
  Ni  Ni50  1  0.83522999  0.50030655  0.83361684  1
  Ni  Ni51  1  0.83605336  0.83506603  0.50355743  1
  Fe  Fe52  1  0.66723237  0.66682614  0.66855238  1
  Ni  Ni53  1  0.83677347  0.83709391  0.83229393  1
" 