6991,Ni75Fe25_14,-234.543711273191, 194.336049680113,Ni75Fe25,"# generated using pymatgen
 data_Fe20Ni7
_symmetry_space_group_name_H-M   'P 1'
_cell_length_a   7.39792715
_cell_length_b   7.39792715
_cell_length_c   10.46224891
_cell_angle_alpha   90.00000000
_cell_angle_beta   90.00000000
_cell_angle_gamma   90.00000000
_symmetry_Int_Tables_number   1
_chemical_formula_structural   Fe20Ni7
_chemical_formula_sum   'Fe40 Ni14'
_cell_volume   572.59183232
_cell_formula_units_Z   2
loop_
 _symmetry_equiv_pos_site_id
 _symmetry_equiv_pos_as_xyz
  1  'x, y, z'
loop_
 _atom_site_type_symbol
 _atom_site_label
 _atom_site_symmetry_multiplicity
 _atom_site_fract_x
 _atom_site_fract_y
 _atom_site_fract_z
 _atom_site_occupancy
  Ni  Ni0  1  0.00494413  0.00568872  0.00514228  1
  Ni  Ni1  1  0.17203032  0.17240341  0.17201923  1
  Fe  Fe2  1  0.00477926  1.00362958  0.33709271  1
  Fe  Fe3  1  0.00497549  0.33603493  0.00475344  1
  Ni  Ni4  1  0.17140690  0.50265917  0.17032307  1
  Ni  Ni5  1  1.00378044  0.33782362  0.33784097  1
  Fe  Fe6  1  1.00413240  0.67314530  0.00484261  1
  Fe  Fe7  1  0.17163265  0.83787854  0.17111364  1
  Fe  Fe8  1  0.00482092  0.67098385  0.33743196  1
  Ni  Ni9  1  0.33792012  1.00446625  0.00518619  1
  Fe  Fe10  1  0.50471193  0.17023067  0.17078819  1
  Fe  Fe11  1  0.33731559  0.00499814  0.33681138  1
  Fe  Fe12  1  0.33759888  0.33535927  1.00442418  1
  Fe  Fe13  1  0.50389995  0.50568770  0.17163829  1
  Fe  Fe14  1  0.33705252  0.33874736  0.33808140  1
  Fe  Fe15  1  0.33820275  0.67326736  0.00646811  1
  Ni  Ni16  1  0.50668875  0.83825900  0.17218966  1
  Ni  Ni17  1  0.33838150  0.67166080  0.33761130  1
  Ni  Ni18  1  0.67151159  0.00494383  1.00433539  1
  Fe  Fe19  1  0.83878236  0.17031597  0.17147651  1
  Fe  Fe20  1  0.67197524  1.00392979  0.33817331  1
  Fe  Fe21  1  0.67160273  0.33669868  1.00408153  1
  Fe  Fe22  1  0.83883167  0.50471653  0.17049823  1
  Fe  Fe23  1  0.67098196  0.33888166  0.33818714  1
  Fe  Fe24  1  0.67156171  0.67338222  1.00370421  1
  Ni  Ni25  1  0.83625716  0.83761589  0.17096745  1
  Fe  Fe26  1  0.67227346  0.67109048  0.33874709  1
  Fe  Fe27  1  0.17008028  0.17071443  0.50466643  1
  Fe  Fe28  1  1.00356285  1.00388077  0.67194211  1
  Ni  Ni29  1  0.17223644  0.17120438  0.83705371  1
  Fe  Fe30  1  0.17055742  0.50555538  0.50314893  1
  Fe  Fe31  1  1.00336562  0.33812355  0.67115359  1
  Fe  Fe32  1  0.17051361  0.50428358  0.83871624  1
  Fe  Fe33  1  0.17089781  0.83772690  0.50459220  1
  Fe  Fe34  1  1.00273208  0.67201683  0.67145957  1
  Fe  Fe35  1  0.17076985  0.83829363  0.83851026  1
  Fe  Fe36  1  0.50599066  0.17010801  0.50522509  1
  Fe  Fe37  1  0.33918292  1.00421552  0.67244627  1
  Fe  Fe38  1  0.50550582  0.17114742  0.83820460  1
  Fe  Fe39  1  0.50521291  0.50587817  0.50469888  1
  Fe  Fe40  1  0.33927346  0.33772632  0.67124671  1
  Fe  Fe41  1  0.50447351  0.50438453  0.83757637  1
  Fe  Fe42  1  0.50513895  0.83812759  0.50403354  1
  Fe  Fe43  1  0.33907409  0.67200825  0.67027149  1
  Fe  Fe44  1  0.50491085  0.83839653  0.83883049  1
  Fe  Fe45  1  0.83781273  0.17034968  0.50442997  1
  Ni  Ni46  1  0.67144748  1.00414516  0.67210707  1
  Fe  Fe47  1  0.83870868  0.17168393  0.83819223  1
  Fe  Fe48  1  0.83813171  0.50474488  0.50564145  1
  Fe  Fe49  1  0.67147249  0.33835584  0.67165042  1
  Ni  Ni50  1  0.83726528  0.50593475  0.83791969  1
  Ni  Ni51  1  0.83710063  0.83761767  0.50526376  1
  Ni  Ni52  1  0.67051449  0.67210986  0.67142732  1
  Fe  Fe53  1  0.83828194  0.83903468  0.83792913  1
" 