1460,Ni75Fe3Cr20_7,-230.985619717733, 154.630154492488,Ni75Fe3Cr20,"# generated using pymatgen
 data_Cr12FeNi41
_symmetry_space_group_name_H-M   'P 1'
_cell_length_a   7.47454602
_cell_length_b   7.47454602
_cell_length_c   10.57060436
_cell_angle_alpha   90.00000000
_cell_angle_beta   90.00000000
_cell_angle_gamma   90.00000000
_symmetry_Int_Tables_number   1
_chemical_formula_structural   Cr12FeNi41
_chemical_formula_sum   'Cr12 Fe1 Ni41'
_cell_volume   590.56738520
_cell_formula_units_Z   1
loop_
 _symmetry_equiv_pos_site_id
 _symmetry_equiv_pos_as_xyz
  1  'x, y, z'
loop_
 _atom_site_type_symbol
 _atom_site_label
 _atom_site_symmetry_multiplicity
 _atom_site_fract_x
 _atom_site_fract_y
 _atom_site_fract_z
 _atom_site_occupancy
  Ni  Ni0  1  0.99860674  0.00024264  0.99852184  1
  Cr  Cr1  1  0.16683606  0.16495427  0.16644898  1
  Ni  Ni2  1  0.00074411  0.99812774  0.33173091  1
  Ni  Ni3  1  0.99855151  0.33024610  0.99823718  1
  Cr  Cr4  1  0.16645958  0.50009385  0.16629588  1
  Ni  Ni5  1  0.99745209  0.33304150  0.33306029  1
  Cr  Cr6  1  0.00062293  0.66860492  0.00094784  1
  Ni  Ni7  1  0.16505665  0.83365433  0.16756705  1
  Ni  Ni8  1  0.00029330  0.66725300  0.33143506  1
  Ni  Ni9  1  0.33294480  -0.00015391  0.99752520  1
  Ni  Ni10  1  0.50197458  0.16593465  0.16643270  1
  Ni  Ni11  1  0.33273762  -0.00031572  0.33543269  1
  Ni  Ni12  1  0.33428493  0.33157053  0.99637652  1
  Cr  Cr13  1  0.49815799  0.49616214  0.16521440  1
  Ni  Ni14  1  0.33515943  0.33069612  0.33483588  1
  Ni  Ni15  1  0.33167190  0.66708563  0.99646722  1
  Cr  Cr16  1  0.49696433  0.83659807  0.16589913  1
  Ni  Ni17  1  0.33074101  0.66814845  0.33451035  1
  Ni  Ni18  1  0.66699924  0.00267101  0.99896914  1
  Ni  Ni19  1  0.83121607  0.16596037  0.16575475  1
  Ni  Ni20  1  0.66508993  0.00244373  0.33127051  1
  Ni  Ni21  1  0.66574585  0.32903731  0.00009741  1
  Ni  Ni22  1  0.83398483  0.49627769  0.16809526  1
  Ni  Ni23  1  0.66596749  0.33114938  0.33261441  1
  Cr  Cr24  1  0.66631827  0.66737927  0.99858878  1
  Ni  Ni25  1  0.83533124  0.83631569  0.16703366  1
  Cr  Cr26  1  0.66774581  0.66528978  0.33376071  1
  Ni  Ni27  1  0.16703628  0.16345812  0.49865161  1
  Ni  Ni28  1  0.00106847  0.99864792  0.66842706  1
  Ni  Ni29  1  0.16497329  0.16521920  0.83340582  1
  Cr  Cr30  1  0.16467077  0.49996941  0.49806815  1
  Ni  Ni31  1  0.99805549  0.33240140  0.66712884  1
  Ni  Ni32  1  0.16807847  0.49955314  0.83355203  1
  Ni  Ni33  1  0.16837264  0.83433241  0.49878217  1
  Ni  Ni34  1  0.00080668  0.66735895  0.66669159  1
  Ni  Ni35  1  0.16739275  0.83367556  0.83219442  1
  Ni  Ni36  1  0.49892700  0.16502119  0.49759202  1
  Ni  Ni37  1  0.33313406  0.99712425  0.66551389  1
  Ni  Ni38  1  0.50055055  0.16496101  0.83443355  1
  Ni  Ni39  1  0.50083379  0.49967470  0.49942490  1
  Cr  Cr40  1  0.33381504  0.33083156  0.66681803  1
  Ni  Ni41  1  0.49724103  0.49968813  0.83315598  1
  Ni  Ni42  1  0.49650600  0.83382632  0.50052807  1
  Ni  Ni43  1  0.33303888  0.66875107  0.66732647  1
  Ni  Ni44  1  0.49827766  0.83388581  0.83183017  1
  Cr  Cr45  1  0.83352087  0.16736070  0.50014632  1
  Ni  Ni46  1  0.66427448  0.00011336  0.66843962  1
  Ni  Ni47  1  0.83287616  0.16422324  0.83325216  1
  Ni  Ni48  1  0.83190937  0.49833061  0.49991219  1
  Ni  Ni49  1  0.66595858  0.33241241  0.66572149  1
  Cr  Cr50  1  0.83317427  0.49707517  0.83004643  1
  Cr  Cr51  1  0.83362103  0.83299153  0.50128297  1
  Fe  Fe52  1  0.66438455  0.66656510  0.66619026  1
  Ni  Ni53  1  0.83275735  0.83699299  0.83127383  1
" 