3356,Ni75Fe25_8,-234.181831038467, 195.726740848501,Ni75Fe25,"# generated using pymatgen
 data_Fe20Ni7
_symmetry_space_group_name_H-M   'P 1'
_cell_length_a   7.39356408
_cell_length_b   7.39356408
_cell_length_c   10.45607860
_cell_angle_alpha   90.00000000
_cell_angle_beta   90.00000000
_cell_angle_gamma   90.00000000
_symmetry_Int_Tables_number   1
_chemical_formula_structural   Fe20Ni7
_chemical_formula_sum   'Fe40 Ni14'
_cell_volume   571.57933908
_cell_formula_units_Z   2
loop_
 _symmetry_equiv_pos_site_id
 _symmetry_equiv_pos_as_xyz
  1  'x, y, z'
loop_
 _atom_site_type_symbol
 _atom_site_label
 _atom_site_symmetry_multiplicity
 _atom_site_fract_x
 _atom_site_fract_y
 _atom_site_fract_z
 _atom_site_occupancy
  Ni  Ni0  1  0.00558562  0.00503522  0.00546803  1
  Ni  Ni1  1  0.17111076  0.17084889  0.17184170  1
  Fe  Fe2  1  0.00519097  1.00465843  0.33799002  1
  Ni  Ni3  1  1.00427097  0.33771374  0.00498218  1
  Fe  Fe4  1  0.17181317  0.50505834  0.17136982  1
  Fe  Fe5  1  1.00496818  0.33847817  0.33795276  1
  Fe  Fe6  1  1.00435227  0.67111230  1.00495997  1
  Ni  Ni7  1  0.17111245  0.83919775  0.17112824  1
  Ni  Ni8  1  0.00537356  0.67215156  0.33838093  1
  Fe  Fe9  1  0.33748785  0.00611313  0.00559564  1
  Fe  Fe10  1  0.50412875  0.17187781  0.17193942  1
  Fe  Fe11  1  0.33786073  1.00435446  0.33830128  1
  Fe  Fe12  1  0.33763516  0.33790994  0.00520072  1
  Ni  Ni13  1  0.50550522  0.50486889  0.17154304  1
  Fe  Fe14  1  0.33800071  0.33869073  0.33816365  1
  Fe  Fe15  1  0.33772423  0.67088494  0.00520055  1
  Fe  Fe16  1  0.50381212  0.83828967  0.17225028  1
  Fe  Fe17  1  0.33807373  0.67186256  0.33807330  1
  Fe  Fe18  1  0.67275887  0.00572716  1.00465326  1
  Fe  Fe19  1  0.83897752  0.17186305  0.17148423  1
  Fe  Fe20  1  0.67185500  1.00458151  0.33933382  1
  Ni  Ni21  1  0.67143618  0.33902801  1.00485000  1
  Fe  Fe22  1  0.83895938  0.50474315  0.17105693  1
  Fe  Fe23  1  0.67194130  0.33868847  0.33808777  1
  Fe  Fe24  1  0.67283213  0.67096087  1.00465704  1
  Fe  Fe25  1  0.83929504  0.83830297  0.17119417  1
  Fe  Fe26  1  0.67163969  0.67163745  0.33830120  1
  Fe  Fe27  1  0.17202587  0.17088336  0.50475165  1
  Ni  Ni28  1  0.00505476  1.00467191  0.67082065  1
  Fe  Fe29  1  0.16989796  0.17185443  0.83905767  1
  Fe  Fe30  1  0.17202454  0.50466753  0.50536082  1
  Fe  Fe31  1  1.00491926  0.33816389  0.67230267  1
  Ni  Ni32  1  0.17085122  0.50453598  0.83973471  1
  Fe  Fe33  1  0.17172350  0.83935793  0.50435055  1
  Fe  Fe34  1  1.00483301  0.67177191  0.67178635  1
  Fe  Fe35  1  0.17019754  0.83768945  0.83874648  1
  Ni  Ni36  1  0.50565472  0.17083629  0.50427366  1
  Fe  Fe37  1  0.33847919  0.00497131  0.67100722  1
  Fe  Fe38  1  0.50572418  0.17247896  0.83791239  1
  Fe  Fe39  1  0.50549849  0.50435055  0.50435427  1
  Fe  Fe40  1  0.33768809  0.33777321  0.67154883  1
  Fe  Fe41  1  0.50572454  0.50535860  0.83914540  1
  Ni  Ni42  1  0.50475084  0.83876996  0.50456320  1
  Fe  Fe43  1  0.33777168  0.67216106  0.67163642  1
  Fe  Fe44  1  0.50541853  0.83707245  0.83760028  1
  Ni  Ni45  1  0.83803867  0.17175023  0.50536511  1
  Fe  Fe46  1  0.67191423  1.00488381  0.67091726  1
  Fe  Fe47  1  0.83928682  0.17216030  0.83822914  1
  Fe  Fe48  1  0.83738598  0.50465556  0.50509675  1
  Fe  Fe49  1  0.67230219  0.33746109  0.67176204  1
  Ni  Ni50  1  0.83920337  0.50544880  0.83850541  1
  Fe  Fe51  1  0.83768673  0.83937116  0.50549602  1
  Fe  Fe52  1  0.67230160  0.67256335  0.67194831  1
  Ni  Ni53  1  0.83828989  0.83804672  0.83811575  1
" 