2859,Ni75Fe3Cr20_16,-230.984587944389, 153.648395697372,Ni75Fe3Cr20,"# generated using pymatgen
 data_Cr12FeNi41
_symmetry_space_group_name_H-M   'P 1'
_cell_length_a   7.47627489
_cell_length_b   7.47627489
_cell_length_c   10.57304934
_cell_angle_alpha   90.00000000
_cell_angle_beta   90.00000000
_cell_angle_gamma   90.00000000
_symmetry_Int_Tables_number   1
_chemical_formula_structural   Cr12FeNi41
_chemical_formula_sum   'Cr12 Fe1 Ni41'
_cell_volume   590.97727502
_cell_formula_units_Z   1
loop_
 _symmetry_equiv_pos_site_id
 _symmetry_equiv_pos_as_xyz
  1  'x, y, z'
loop_
 _atom_site_type_symbol
 _atom_site_label
 _atom_site_symmetry_multiplicity
 _atom_site_fract_x
 _atom_site_fract_y
 _atom_site_fract_z
 _atom_site_occupancy
  Cr  Cr0  1  0.00210460  0.99767537  0.99845474  1
  Ni  Ni1  1  0.17072003  0.16533685  0.16676658  1
  Ni  Ni2  1  0.00005387  0.99679528  0.33375699  1
  Cr  Cr3  1  0.00035848  0.33403301  0.99865890  1
  Ni  Ni4  1  0.16698607  0.50035698  0.16566197  1
  Cr  Cr5  1  0.00306118  0.33279138  0.33264427  1
  Ni  Ni6  1  -0.00049203  0.66583911  -0.00005367  1
  Ni  Ni7  1  0.16582117  0.83243834  0.16585804  1
  Ni  Ni8  1  0.99844351  0.66881977  0.33178299  1
  Ni  Ni9  1  0.33202177  0.99831052  0.00061873  1
  Ni  Ni10  1  0.49594660  0.16645168  0.16644849  1
  Ni  Ni11  1  0.33200287  0.00175825  0.33144013  1
  Ni  Ni12  1  0.33352649  0.33393584  0.00112544  1
  Ni  Ni13  1  0.49943600  0.49920774  0.16421204  1
  Ni  Ni14  1  0.33185731  0.33003663  0.33185225  1
  Ni  Ni15  1  0.33317478  0.66588977  0.99883590  1
  Ni  Ni16  1  0.49955913  0.83252078  0.16567106  1
  Cr  Cr17  1  0.33136950  0.66552447  0.33217756  1
  Cr  Cr18  1  0.66459452  0.99750170  0.99912065  1
  Cr  Cr19  1  0.83215019  0.16495593  0.16668592  1
  Ni  Ni20  1  0.66612853  0.99750420  0.33328605  1
  Ni  Ni21  1  0.66419871  0.33642150  0.99925056  1
  Ni  Ni22  1  0.83172998  0.50399758  0.16445933  1
  Cr  Cr23  1  0.66357050  0.33228032  0.33207181  1
  Ni  Ni24  1  0.66548783  0.66429463  0.00008039  1
  Ni  Ni25  1  0.83277579  0.82883659  0.16860514  1
  Ni  Ni26  1  0.66864188  0.66907594  0.32939006  1
  Ni  Ni27  1  0.16678075  0.16534619  0.50004987  1
  Ni  Ni28  1  0.99924566  -0.00019020  0.66583119  1
  Ni  Ni29  1  0.16552331  0.16638764  0.83135254  1
  Ni  Ni30  1  0.16581980  0.49922496  0.50110003  1
  Ni  Ni31  1  0.00042811  0.33144055  0.66681240  1
  Ni  Ni32  1  0.16733537  0.50050926  0.83145198  1
  Ni  Ni33  1  0.16297590  0.83354521  0.50051920  1
  Ni  Ni34  1  0.00219776  0.66690893  0.66633404  1
  Ni  Ni35  1  0.16623898  0.83122137  0.83185348  1
  Ni  Ni36  1  0.49865301  0.16537023  0.49989723  1
  Ni  Ni37  1  0.33095650  0.99937668  0.66615518  1
  Cr  Cr38  1  0.49871383  0.16698568  0.83212590  1
  Cr  Cr39  1  0.49672646  0.49704528  0.50040241  1
  Ni  Ni40  1  0.33081386  0.33283245  0.66524224  1
  Ni  Ni41  1  0.49810238  0.50010248  0.83373464  1
  Cr  Cr42  1  0.49940045  0.83560360  0.49980934  1
  Ni  Ni43  1  0.32930354  0.66587677  0.66795092  1
  Ni  Ni44  1  0.49806828  0.83053283  0.83286463  1
  Ni  Ni45  1  0.83271285  0.16254339  0.50169445  1
  Ni  Ni46  1  0.66790923  0.00123772  0.66540687  1
  Ni  Ni47  1  0.83333717  0.16645091  0.82942794  1
  Cr  Cr48  1  0.83513455  0.50074087  0.49989927  1
  Ni  Ni49  1  0.66692682  0.32988075  0.66703106  1
  Fe  Fe50  1  0.83318098  0.49982338  0.83312048  1
  Ni  Ni51  1  0.83555555  0.83554984  0.49771399  1
  Cr  Cr52  1  0.66559813  0.66743912  0.66826042  1
  Ni  Ni53  1  0.83380787  0.83230031  0.83177236  1
" 