2890,Ni75Fe2Cr21_16,-230.297634133156, 157.488971839045,Ni75Fe2Cr21,"# generated using pymatgen
 data_Cr13FeNi40
_symmetry_space_group_name_H-M   'P 1'
_cell_length_a   7.47807251
_cell_length_b   7.47807251
_cell_length_c   10.57559157
_cell_angle_alpha   90.00000000
_cell_angle_beta   90.00000000
_cell_angle_gamma   90.00000000
_symmetry_Int_Tables_number   1
_chemical_formula_structural   Cr13FeNi40
_chemical_formula_sum   'Cr13 Fe1 Ni40'
_cell_volume   591.40366808
_cell_formula_units_Z   1
loop_
 _symmetry_equiv_pos_site_id
 _symmetry_equiv_pos_as_xyz
  1  'x, y, z'
loop_
 _atom_site_type_symbol
 _atom_site_label
 _atom_site_symmetry_multiplicity
 _atom_site_fract_x
 _atom_site_fract_y
 _atom_site_fract_z
 _atom_site_occupancy
  Ni  Ni0  1  -0.00013750  0.00235252  0.99803648  1
  Ni  Ni1  1  0.16587187  0.16689140  0.16440950  1
  Cr  Cr2  1  0.99884203  0.00100772  0.33317219  1
  Ni  Ni3  1  0.99910857  0.33002495  -0.00022256  1
  Ni  Ni4  1  0.16554431  0.49852536  0.16654419  1
  Ni  Ni5  1  -0.00006774  0.33351188  0.33167653  1
  Cr  Cr6  1  0.00130713  0.66559188  0.99814207  1
  Fe  Fe7  1  0.16766914  0.83254967  0.16560476  1
  Ni  Ni8  1  -0.00032922  0.66387190  0.33210699  1
  Ni  Ni9  1  0.33089223  -0.00024039  -0.00061873  1
  Ni  Ni10  1  0.49890764  0.16552055  0.16460477  1
  Ni  Ni11  1  0.33421666  0.99883117  0.33286294  1
  Ni  Ni12  1  0.33197143  0.33293808  0.00007432  1
  Ni  Ni13  1  0.49805203  0.49871482  0.16497597  1
  Cr  Cr14  1  0.33130201  0.33279631  0.33322735  1
  Ni  Ni15  1  0.33206823  0.66509033  0.99852924  1
  Cr  Cr16  1  0.49744275  0.83378206  0.16698936  1
  Ni  Ni17  1  0.33264164  0.66600276  0.33243599  1
  Ni  Ni18  1  0.66703389  0.00225421  0.99881763  1
  Ni  Ni19  1  0.83301084  0.16772113  0.16418257  1
  Ni  Ni20  1  0.66492230  0.99856800  0.33450757  1
  Ni  Ni21  1  0.66670925  0.33119817  0.00014798  1
  Ni  Ni22  1  0.83419214  0.49683696  0.16703891  1
  Cr  Cr23  1  0.66626105  0.33178542  0.33157981  1
  Cr  Cr24  1  0.66412260  0.66416297  0.99727214  1
  Cr  Cr25  1  0.83260941  0.83299133  0.16755721  1
  Ni  Ni26  1  0.66547664  0.66728253  0.33388387  1
  Ni  Ni27  1  0.16787939  0.16739234  0.49936538  1
  Cr  Cr28  1  -0.00033727  0.99864401  0.66709674  1
  Ni  Ni29  1  0.16552818  0.16543297  0.83401437  1
  Ni  Ni30  1  0.16725495  0.49896812  0.49897893  1
  Cr  Cr31  1  0.00042793  0.33262374  0.66610217  1
  Ni  Ni32  1  0.16693337  0.49995621  0.83226521  1
  Cr  Cr33  1  0.16731854  0.83103669  0.49861583  1
  Ni  Ni34  1  0.99917473  0.66589515  0.66725691  1
  Ni  Ni35  1  0.16710158  0.83240027  0.83333883  1
  Ni  Ni36  1  0.49831986  0.16441842  0.49964786  1
  Ni  Ni37  1  0.33257100  -0.00070990  0.66554300  1
  Cr  Cr38  1  0.49837473  0.16652755  0.83370207  1
  Ni  Ni39  1  0.49776323  0.50076357  0.50102365  1
  Ni  Ni40  1  0.33345249  0.33394116  0.66466010  1
  Ni  Ni41  1  0.49870521  0.50072761  0.83178908  1
  Ni  Ni42  1  0.50027487  0.83260696  0.49816035  1
  Ni  Ni43  1  0.33374456  0.66455833  0.66682212  1
  Ni  Ni44  1  0.49774281  0.83083532  0.83239244  1
  Ni  Ni45  1  0.83158940  0.16488179  0.49796934  1
  Cr  Cr46  1  0.66594316  0.99827734  0.66447581  1
  Ni  Ni47  1  0.83371446  0.16639564  0.83563744  1
  Cr  Cr48  1  0.83333118  0.50100484  0.49889561  1
  Ni  Ni49  1  0.66398455  0.33466056  0.66606570  1
  Ni  Ni50  1  0.83214880  0.49915350  0.83192114  1
  Ni  Ni51  1  0.82979868  0.83198353  0.49844514  1
  Ni  Ni52  1  0.66486797  0.66501552  0.66646292  1
  Ni  Ni53  1  0.83294430  0.83223906  0.83200679  1
" 