2807,Ni75Fe15Cr9_17,-237.346675906347, 191.548091477733,Ni75Fe15Cr9,"# generated using pymatgen
 data_Cr3(FeNi5)4
_symmetry_space_group_name_H-M   'P 1'
_cell_length_a   7.44021865
_cell_length_b   7.44021865
_cell_length_c   10.52205813
_cell_angle_alpha   90.00000000
_cell_angle_beta   90.00000000
_cell_angle_gamma   90.00000000
_symmetry_Int_Tables_number   1
_chemical_formula_structural   Cr3(FeNi5)4
_chemical_formula_sum   'Cr6 Fe8 Ni40'
_cell_volume   582.46803124
_cell_formula_units_Z   2
loop_
 _symmetry_equiv_pos_site_id
 _symmetry_equiv_pos_as_xyz
  1  'x, y, z'
loop_
 _atom_site_type_symbol
 _atom_site_label
 _atom_site_symmetry_multiplicity
 _atom_site_fract_x
 _atom_site_fract_y
 _atom_site_fract_z
 _atom_site_occupancy
  Ni  Ni0  1  1.00050974  0.00275812  0.00218939  1
  Ni  Ni1  1  0.16710284  0.16870234  0.16795014  1
  Ni  Ni2  1  1.00167412  0.00211458  0.33374918  1
  Ni  Ni3  1  1.00109792  0.33452873  0.00183843  1
  Ni  Ni4  1  0.16796733  0.50219889  0.16756233  1
  Ni  Ni5  1  1.00047619  0.33529822  0.33571864  1
  Fe  Fe6  1  1.00060066  0.66826872  1.00175120  1
  Fe  Fe7  1  0.16597944  0.83477929  0.16944933  1
  Ni  Ni8  1  0.99996956  0.66799614  0.33393867  1
  Cr  Cr9  1  0.33317898  1.00177154  0.00249087  1
  Ni  Ni10  1  0.50290011  0.16943754  0.16854468  1
  Ni  Ni11  1  0.33500891  0.00209943  0.33517905  1
  Fe  Fe12  1  0.33495490  0.33764226  0.00272289  1
  Ni  Ni13  1  0.50162532  0.50105148  0.16685477  1
  Cr  Cr14  1  0.33519653  0.33411374  0.33474746  1
  Ni  Ni15  1  0.33578758  0.66627607  1.00108591  1
  Cr  Cr16  1  0.50338058  0.83505475  0.16955760  1
  Fe  Fe17  1  0.33539857  0.66822701  0.33527719  1
  Ni  Ni18  1  0.67161241  1.00150788  1.00152096  1
  Ni  Ni19  1  0.83540491  0.16764195  0.16795370  1
  Ni  Ni20  1  0.66872498  1.00160173  0.33622191  1
  Ni  Ni21  1  0.66977146  0.33703949  0.00319709  1
  Ni  Ni22  1  0.83581350  0.50198467  0.16814620  1
  Ni  Ni23  1  0.66971356  0.33602179  0.33486244  1
  Ni  Ni24  1  0.66818385  0.66685993  1.00100275  1
  Ni  Ni25  1  0.83655388  0.83578287  0.16832445  1
  Ni  Ni26  1  0.66970155  0.66778622  0.33583888  1
  Ni  Ni27  1  0.16814499  0.16922078  0.50345977  1
  Ni  Ni28  1  0.00229644  0.00310449  0.66946685  1
  Fe  Fe29  1  0.16504409  0.16990412  0.83398257  1
  Ni  Ni30  1  0.16789116  0.50124155  0.50313124  1
  Ni  Ni31  1  0.00209384  0.33455793  0.66785184  1
  Ni  Ni32  1  0.16907383  0.50285656  0.83471516  1
  Cr  Cr33  1  0.16829842  0.83451317  0.50096390  1
  Ni  Ni34  1  0.00242750  0.66774831  0.66979504  1
  Fe  Fe35  1  0.16717103  0.83369840  0.83382939  1
  Ni  Ni36  1  0.50252937  0.16723378  0.50236017  1
  Ni  Ni37  1  0.33426551  0.00203795  0.66805363  1
  Cr  Cr38  1  0.50323799  0.16950780  0.83462494  1
  Ni  Ni39  1  0.50131410  0.50176634  0.50203069  1
  Ni  Ni40  1  0.33425294  0.33541149  0.66830950  1
  Ni  Ni41  1  0.49967646  0.50266057  0.83652166  1
  Ni  Ni42  1  0.50231255  0.83640957  0.50177064  1
  Ni  Ni43  1  0.33499142  0.66795971  0.66880079  1
  Fe  Fe44  1  0.50234127  0.83260575  0.83517841  1
  Ni  Ni45  1  0.83473563  0.16822419  0.50208989  1
  Fe  Fe46  1  0.66954757  0.00285468  0.66744210  1
  Ni  Ni47  1  0.83625208  0.16710816  0.83536498  1
  Ni  Ni48  1  0.83620342  0.50102864  0.50118910  1
  Ni  Ni49  1  0.66905875  0.33528181  0.66734923  1
  Ni  Ni50  1  0.83665716  0.50180627  0.83607274  1
  Ni  Ni51  1  0.83421116  0.83615789  0.50092951  1
  Cr  Cr52  1  0.66859545  0.66741946  0.66824666  1
  Ni  Ni53  1  0.83644676  0.83649557  0.83615375  1
" 