4593,Ni75Fe3Cr20_6,-231.015911206225, 154.877695753116,Ni75Fe3Cr20,"# generated using pymatgen
 data_Cr12FeNi41
_symmetry_space_group_name_H-M   'P 1'
_cell_length_a   7.47396819
_cell_length_b   7.47396819
_cell_length_c   10.56978718
_cell_angle_alpha   90.00000000
_cell_angle_beta   90.00000000
_cell_angle_gamma   90.00000000
_symmetry_Int_Tables_number   1
_chemical_formula_structural   Cr12FeNi41
_chemical_formula_sum   'Cr12 Fe1 Ni41'
_cell_volume   590.43043083
_cell_formula_units_Z   1
loop_
 _symmetry_equiv_pos_site_id
 _symmetry_equiv_pos_as_xyz
  1  'x, y, z'
loop_
 _atom_site_type_symbol
 _atom_site_label
 _atom_site_symmetry_multiplicity
 _atom_site_fract_x
 _atom_site_fract_y
 _atom_site_fract_z
 _atom_site_occupancy
  Ni  Ni0  1  0.00176302  0.99771058  0.00036159  1
  Ni  Ni1  1  0.16406849  0.16613899  0.16500939  1
  Ni  Ni2  1  0.99775301  0.99923403  0.33222448  1
  Ni  Ni3  1  0.00322454  0.33367208  0.99841197  1
  Ni  Ni4  1  0.16639368  0.50144691  0.16539765  1
  Ni  Ni5  1  -0.00008300  0.33309613  0.33498293  1
  Ni  Ni6  1  0.00024602  0.66739284  0.99800729  1
  Ni  Ni7  1  0.16513049  0.83112504  0.16529570  1
  Ni  Ni8  1  0.99918759  0.66626445  0.33282002  1
  Ni  Ni9  1  0.33142328  0.99870798  0.99845824  1
  Cr  Cr10  1  0.50156296  0.16661051  0.16284046  1
  Cr  Cr11  1  0.33111846  0.99730790  0.33059891  1
  Ni  Ni12  1  0.33038189  0.33281791  -0.00036059  1
  Ni  Ni13  1  0.49856776  0.50235994  0.16597665  1
  Cr  Cr14  1  0.33097304  0.33578653  0.33178642  1
  Ni  Ni15  1  0.33213109  0.66716321  0.00105454  1
  Ni  Ni16  1  0.49993247  0.83054611  0.16589044  1
  Ni  Ni17  1  0.33372379  0.66550409  0.33193818  1
  Ni  Ni18  1  0.66531164  0.99553711  0.99816422  1
  Cr  Cr19  1  0.83357053  0.16504488  0.16636714  1
  Ni  Ni20  1  0.66832591  0.99612583  0.33430558  1
  Ni  Ni21  1  0.66501827  0.33478868  0.99857243  1
  Cr  Cr22  1  0.83318294  0.50060343  0.16518265  1
  Ni  Ni23  1  0.66748685  0.33542930  0.33459244  1
  Ni  Ni24  1  0.66623409  0.66835581  -0.00043109  1
  Ni  Ni25  1  0.83348815  0.83281452  0.16652548  1
  Ni  Ni26  1  0.66569081  0.66707388  0.33383309  1
  Fe  Fe27  1  0.16438404  0.16717845  0.50016560  1
  Cr  Cr28  1  0.99831804  0.99898312  0.66665494  1
  Ni  Ni29  1  0.16834793  0.16689666  0.83290712  1
  Ni  Ni30  1  0.16521958  0.50014700  0.50058362  1
  Ni  Ni31  1  0.00234275  0.33506178  0.66506032  1
  Ni  Ni32  1  0.16479064  0.50044905  0.83246514  1
  Cr  Cr33  1  0.16683037  0.82929075  0.49990776  1
  Ni  Ni34  1  0.00005030  0.66398437  0.66763968  1
  Ni  Ni35  1  0.16731849  0.83136084  0.83375309  1
  Cr  Cr36  1  0.50060457  0.16453951  0.50144871  1
  Ni  Ni37  1  0.33390881  0.99927907  0.66871330  1
  Ni  Ni38  1  0.49697059  0.16368625  0.83374126  1
  Ni  Ni39  1  0.49775942  0.50157898  0.49803371  1
  Ni  Ni40  1  0.32949241  0.33307714  0.66628571  1
  Cr  Cr41  1  0.49667759  0.49973977  0.83487185  1
  Ni  Ni42  1  0.50003147  0.83145626  0.49983787  1
  Ni  Ni43  1  0.33200197  0.66609082  0.66591025  1
  Ni  Ni44  1  0.49773298  0.83523095  0.83289390  1
  Ni  Ni45  1  0.83367597  0.16624693  0.49731903  1
  Ni  Ni46  1  0.66489634  0.99756929  0.66630017  1
  Cr  Cr47  1  0.83194366  0.16688723  0.83594000  1
  Ni  Ni48  1  0.83576574  0.49952657  0.49814750  1
  Cr  Cr49  1  0.66805532  0.33394514  0.66595024  1
  Ni  Ni50  1  0.83715911  0.50101790  0.83456591  1
  Ni  Ni51  1  0.83259294  0.83305321  0.49764716  1
  Cr  Cr52  1  0.66871461  0.66843785  0.66580716  1
  Ni  Ni53  1  0.83360576  0.83162560  0.83464196  1
" 