7064,Ni75Fe2Cr21_3,-230.389719887418, 153.965908558634,Ni75Fe2Cr21,"# generated using pymatgen
 data_Cr13FeNi40
_symmetry_space_group_name_H-M   'P 1'
_cell_length_a   7.47863646
_cell_length_b   7.47863646
_cell_length_c   10.57638911
_cell_angle_alpha   90.00000000
_cell_angle_beta   90.00000000
_cell_angle_gamma   90.00000000
_symmetry_Int_Tables_number   1
_chemical_formula_structural   Cr13FeNi40
_chemical_formula_sum   'Cr13 Fe1 Ni40'
_cell_volume   591.53747724
_cell_formula_units_Z   1
loop_
 _symmetry_equiv_pos_site_id
 _symmetry_equiv_pos_as_xyz
  1  'x, y, z'
loop_
 _atom_site_type_symbol
 _atom_site_label
 _atom_site_symmetry_multiplicity
 _atom_site_fract_x
 _atom_site_fract_y
 _atom_site_fract_z
 _atom_site_occupancy
  Ni  Ni0  1  0.00367375  0.99707383  0.00009265  1
  Ni  Ni1  1  0.16832194  0.16697122  0.16525249  1
  Fe  Fe2  1  0.00323607  0.00097394  0.33272487  1
  Ni  Ni3  1  0.00111973  0.33668101  0.00075070  1
  Ni  Ni4  1  0.16669006  0.49913071  0.16558846  1
  Ni  Ni5  1  0.00068331  0.33488955  0.33345333  1
  Ni  Ni6  1  0.00215404  0.66414484  0.99889967  1
  Ni  Ni7  1  0.16867784  0.83164224  0.16614931  1
  Ni  Ni8  1  0.00313589  0.66235379  0.33220968  1
  Ni  Ni9  1  0.33092178  0.99866719  0.00009539  1
  Ni  Ni10  1  0.49663904  0.16753963  0.16627025  1
  Ni  Ni11  1  0.33150199  0.00034545  0.33130953  1
  Ni  Ni12  1  0.33278340  0.33385985  0.00063740  1
  Ni  Ni13  1  0.49593715  0.49709585  0.16644700  1
  Ni  Ni14  1  0.33156172  0.33232045  0.33272474  1
  Ni  Ni15  1  0.33012971  0.66540308  0.00026274  1
  Ni  Ni16  1  0.49463981  0.83303417  0.16723613  1
  Ni  Ni17  1  0.32852427  0.66486954  0.33114285  1
  Cr  Cr18  1  0.66221733  0.99854861  0.99717182  1
  Cr  Cr19  1  0.83409572  0.16840704  0.16571883  1
  Ni  Ni20  1  0.66227054  0.00249833  0.33272839  1
  Ni  Ni21  1  0.66406543  0.33455738  0.00023723  1
  Ni  Ni22  1  0.83490228  0.49720606  0.16568078  1
  Ni  Ni23  1  0.66561680  0.33119530  0.33266740  1
  Cr  Cr24  1  0.66483395  0.66248000  -0.00018849  1
  Cr  Cr25  1  0.83571291  0.83175751  0.16782716  1
  Cr  Cr26  1  0.66453162  0.66066089  0.32954586  1
  Ni  Ni27  1  0.16630646  0.16897340  0.49709182  1
  Cr  Cr28  1  0.00163244  -0.00024455  0.66432135  1
  Cr  Cr29  1  0.16744086  0.17114994  0.83586416  1
  Ni  Ni30  1  0.16656762  0.49910552  0.49974192  1
  Ni  Ni31  1  0.00124014  0.33718376  0.66360841  1
  Ni  Ni32  1  0.16667101  0.50161828  0.83239759  1
  Ni  Ni33  1  0.16587018  0.83040296  0.49694464  1
  Ni  Ni34  1  0.00074546  0.66303570  0.66662088  1
  Ni  Ni35  1  0.16632246  0.82930482  0.83453336  1
  Ni  Ni36  1  0.49777855  0.16857648  0.49639707  1
  Cr  Cr37  1  0.33183331  0.00105337  0.66659553  1
  Ni  Ni38  1  0.49707009  0.16898688  0.83505890  1
  Ni  Ni39  1  0.49680007  0.49677476  0.49900142  1
  Ni  Ni40  1  0.33100933  0.33569123  0.66443503  1
  Ni  Ni41  1  0.49670423  0.49935018  0.83227155  1
  Cr  Cr42  1  0.49632010  0.82879597  0.49790589  1
  Ni  Ni43  1  0.33066081  0.66336537  0.66627959  1
  Ni  Ni44  1  0.49641222  0.82922221  0.83242023  1
  Ni  Ni45  1  0.83401102  0.16880830  0.49568364  1
  Cr  Cr46  1  0.66471755  0.99898178  0.66790529  1
  Cr  Cr47  1  0.83511551  0.16889695  0.83607383  1
  Ni  Ni48  1  0.83441737  0.49744273  0.49896702  1
  Cr  Cr49  1  0.66507978  0.33396795  0.66469972  1
  Ni  Ni50  1  0.83430230  0.50102529  0.83299249  1
  Cr  Cr51  1  0.83357466  0.83072327  0.49731446  1
  Ni  Ni52  1  0.66604043  0.66298965  0.66794361  1
  Ni  Ni53  1  0.83493893  0.82867132  0.83245537  1
" 