8301,Ni75Fe25_16,-234.40671548235, 194.567589018724,Ni75Fe25,"# generated using pymatgen
 data_Fe20Ni7
_symmetry_space_group_name_H-M   'P 1'
_cell_length_a   7.39732368
_cell_length_b   7.39732368
_cell_length_c   10.46139547
_cell_angle_alpha   90.00000000
_cell_angle_beta   90.00000000
_cell_angle_gamma   90.00000000
_symmetry_Int_Tables_number   1
_chemical_formula_structural   Fe20Ni7
_chemical_formula_sum   'Fe40 Ni14'
_cell_volume   572.45171927
_cell_formula_units_Z   2
loop_
 _symmetry_equiv_pos_site_id
 _symmetry_equiv_pos_as_xyz
  1  'x, y, z'
loop_
 _atom_site_type_symbol
 _atom_site_label
 _atom_site_symmetry_multiplicity
 _atom_site_fract_x
 _atom_site_fract_y
 _atom_site_fract_z
 _atom_site_occupancy
  Fe  Fe0  1  0.00593424  0.00620059  1.00412363  1
  Ni  Ni1  1  0.17093851  0.17297023  0.17082613  1
  Fe  Fe2  1  1.00447388  1.00416583  0.33897296  1
  Ni  Ni3  1  0.00490232  0.33766317  1.00460361  1
  Ni  Ni4  1  0.17093000  0.50322143  0.17159547  1
  Fe  Fe5  1  0.00478406  0.33951034  0.33714623  1
  Fe  Fe6  1  0.00591165  0.67045354  0.00534762  1
  Fe  Fe7  1  0.17213511  0.83780889  0.17162140  1
  Ni  Ni8  1  0.00476024  0.67223956  0.33825034  1
  Ni  Ni9  1  0.33806195  0.00519982  1.00388967  1
  Fe  Fe10  1  0.50348465  0.17159640  0.17095087  1
  Fe  Fe11  1  0.33853598  1.00382304  0.33713687  1
  Ni  Ni12  1  0.33752246  0.33712164  0.00538465  1
  Fe  Fe13  1  0.50373806  0.50464586  0.17196693  1
  Fe  Fe14  1  0.33779136  0.33941719  0.33798170  1
  Fe  Fe15  1  0.33757188  0.67090144  0.00503418  1
  Ni  Ni16  1  0.50601735  0.83752051  0.17128844  1
  Ni  Ni17  1  0.33791071  0.67181601  0.33716604  1
  Fe  Fe18  1  0.67054817  0.00550325  0.00478217  1
  Fe  Fe19  1  0.83845379  0.17186922  0.17128765  1
  Fe  Fe20  1  0.67113090  1.00315073  0.33779569  1
  Fe  Fe21  1  0.67099369  0.33739459  0.00500828  1
  Fe  Fe22  1  0.83854045  0.50471661  0.17187317  1
  Ni  Ni23  1  0.67146932  0.33799047  0.33740349  1
  Fe  Fe24  1  0.67065886  0.67123797  0.00525568  1
  Fe  Fe25  1  0.83868855  0.83755214  0.17187317  1
  Ni  Ni26  1  0.67147173  0.67084342  0.33825293  1
  Ni  Ni27  1  0.17117217  0.17190606  0.50547236  1
  Ni  Ni28  1  1.00383392  0.00481853  0.67200650  1
  Fe  Fe29  1  0.17154072  0.17154453  0.83828897  1
  Fe  Fe30  1  0.17197306  0.50480871  0.50432813  1
  Fe  Fe31  1  0.00602916  0.33777769  0.67179143  1
  Fe  Fe32  1  0.17188182  0.50439209  0.83861548  1
  Fe  Fe33  1  0.17120576  0.83814191  0.50499267  1
  Fe  Fe34  1  0.00568863  0.67139886  0.67099380  1
  Fe  Fe35  1  0.17144600  0.83820087  0.83752302  1
  Fe  Fe36  1  0.50439132  0.17205570  0.50489000  1
  Fe  Fe37  1  0.33729259  0.00496144  0.67169810  1
  Fe  Fe38  1  0.50423599  0.17172655  0.83829171  1
  Fe  Fe39  1  0.50398769  0.50422106  0.50473006  1
  Ni  Ni40  1  0.33849072  0.33869693  0.67134931  1
  Fe  Fe41  1  0.50414756  0.50445775  0.83744048  1
  Fe  Fe42  1  0.50389268  0.83786112  0.50389799  1
  Ni  Ni43  1  0.33848334  0.67062225  0.67181878  1
  Fe  Fe44  1  0.50439621  0.83795070  0.83870476  1
  Fe  Fe45  1  0.83845387  0.17129004  0.50489459  1
  Fe  Fe46  1  0.67082734  1.00461981  0.67156026  1
  Fe  Fe47  1  0.83835873  0.17129326  0.83795441  1
  Fe  Fe48  1  0.83818374  0.50430377  0.50387541  1
  Fe  Fe49  1  0.67088818  0.33804658  0.67081280  1
  Fe  Fe50  1  0.83811296  0.50455537  0.83838776  1
  Fe  Fe51  1  0.83903644  0.83854330  0.50465115  1
  Fe  Fe52  1  0.67088498  0.67147183  0.67108102  1
  Fe  Fe53  1  0.83829474  0.83828957  0.83762020  1
" 