8655,Ni75Fe2Cr21_6,-230.279105550173, 155.515536759356,Ni75Fe2Cr21,"# generated using pymatgen
 data_Cr13FeNi40
_symmetry_space_group_name_H-M   'P 1'
_cell_length_a   7.47561738
_cell_length_b   7.47561738
_cell_length_c   10.57211948
_cell_angle_alpha   90.00000000
_cell_angle_beta   90.00000000
_cell_angle_gamma   90.00000000
_symmetry_Int_Tables_number   1
_chemical_formula_structural   Cr13FeNi40
_chemical_formula_sum   'Cr13 Fe1 Ni40'
_cell_volume   590.82136653
_cell_formula_units_Z   1
loop_
 _symmetry_equiv_pos_site_id
 _symmetry_equiv_pos_as_xyz
  1  'x, y, z'
loop_
 _atom_site_type_symbol
 _atom_site_label
 _atom_site_symmetry_multiplicity
 _atom_site_fract_x
 _atom_site_fract_y
 _atom_site_fract_z
 _atom_site_occupancy
  Ni  Ni0  1  0.00226004  0.99855605  0.00225630  1
  Fe  Fe1  1  0.16613909  0.16470909  0.16599425  1
  Ni  Ni2  1  0.99785980  0.99595537  0.33425679  1
  Ni  Ni3  1  0.00186438  0.33301769  0.99892049  1
  Ni  Ni4  1  0.16656369  0.50203117  0.16659322  1
  Cr  Cr5  1  0.00120602  0.33293544  0.33480044  1
  Ni  Ni6  1  -0.00046510  0.66698696  0.00132805  1
  Ni  Ni7  1  0.16538279  0.83039751  0.16563196  1
  Ni  Ni8  1  0.00006305  0.66836507  0.33377035  1
  Ni  Ni9  1  0.33322288  0.99789273  -0.00001995  1
  Ni  Ni10  1  0.49879775  0.16338459  0.16801268  1
  Cr  Cr11  1  0.32982779  0.99847996  0.33187182  1
  Cr  Cr12  1  0.33244846  0.33097692  -0.00000993  1
  Cr  Cr13  1  0.49765003  0.50051980  0.17095369  1
  Ni  Ni14  1  0.33352788  0.33279069  0.33461099  1
  Ni  Ni15  1  0.33356173  0.66885392  0.00055095  1
  Ni  Ni16  1  0.49940006  0.83382301  0.16481524  1
  Ni  Ni17  1  0.33041471  0.66487255  0.33307452  1
  Ni  Ni18  1  0.66349534  0.99676759  0.00034876  1
  Cr  Cr19  1  0.83044137  0.16345325  0.16645792  1
  Ni  Ni20  1  0.66645270  0.99864682  0.33305252  1
  Cr  Cr21  1  0.66551303  0.33394943  0.99529567  1
  Cr  Cr22  1  0.83391035  0.50125045  0.16509806  1
  Ni  Ni23  1  0.66405727  0.33166027  0.33669228  1
  Ni  Ni24  1  0.66541368  0.66954845  0.99802169  1
  Ni  Ni25  1  0.83325905  0.83364038  0.16681450  1
  Ni  Ni26  1  0.66738370  0.66752604  0.33395649  1
  Ni  Ni27  1  0.16596763  0.16608634  0.50116978  1
  Ni  Ni28  1  0.00118903  0.00031687  0.66152949  1
  Ni  Ni29  1  0.16782097  0.16574658  0.83252927  1
  Ni  Ni30  1  0.16751894  0.50025246  0.49983087  1
  Ni  Ni31  1  0.00131296  0.33294854  0.66490047  1
  Cr  Cr32  1  0.16515117  0.50027674  0.83142447  1
  Ni  Ni33  1  0.16336393  0.83139697  0.50071595  1
  Ni  Ni34  1  0.99793141  0.66521278  0.66193087  1
  Cr  Cr35  1  0.16795845  0.83453800  0.82987897  1
  Ni  Ni36  1  0.49935387  0.16747719  0.49898232  1
  Ni  Ni37  1  0.33244683  0.00133187  0.66644248  1
  Ni  Ni38  1  0.49750638  0.16270048  0.83126580  1
  Ni  Ni39  1  0.49815278  0.49865491  0.49795228  1
  Ni  Ni40  1  0.33197751  0.33160781  0.66462308  1
  Ni  Ni41  1  0.49869463  0.50279623  0.83119806  1
  Cr  Cr42  1  0.49887659  0.83194955  0.50078665  1
  Ni  Ni43  1  0.33369544  0.66559250  0.66457228  1
  Ni  Ni44  1  0.49926140  0.83309300  0.83300173  1
  Ni  Ni45  1  0.83268853  0.16423665  0.49942783  1
  Ni  Ni46  1  0.66518113  0.99852930  0.66495090  1
  Cr  Cr47  1  0.83735929  0.16428718  0.83246164  1
  Ni  Ni48  1  0.83288652  0.50077740  0.49945747  1
  Cr  Cr49  1  0.66568811  0.33449405  0.66615318  1
  Ni  Ni50  1  0.83374621  0.50132927  0.83315459  1
  Ni  Ni51  1  0.83404750  0.83338177  0.49870204  1
  Ni  Ni52  1  0.66645061  0.66642066  0.66676769  1
  Cr  Cr53  1  0.83316885  0.83262189  0.83208826  1
" 