2094,Ni75Fe3Cr20_13,-231.077428350102, 156.579295525277,Ni75Fe3Cr20,"# generated using pymatgen
 data_Cr12FeNi41
_symmetry_space_group_name_H-M   'P 1'
_cell_length_a   7.47458451
_cell_length_b   7.47458451
_cell_length_c   10.57065878
_cell_angle_alpha   90.00000000
_cell_angle_beta   90.00000000
_cell_angle_gamma   90.00000000
_symmetry_Int_Tables_number   1
_chemical_formula_structural   Cr12FeNi41
_chemical_formula_sum   'Cr12 Fe1 Ni41'
_cell_volume   590.57650660
_cell_formula_units_Z   1
loop_
 _symmetry_equiv_pos_site_id
 _symmetry_equiv_pos_as_xyz
  1  'x, y, z'
loop_
 _atom_site_type_symbol
 _atom_site_label
 _atom_site_symmetry_multiplicity
 _atom_site_fract_x
 _atom_site_fract_y
 _atom_site_fract_z
 _atom_site_occupancy
  Ni  Ni0  1  0.00054785  0.99857718  -0.00039211  1
  Ni  Ni1  1  0.16786946  0.16531151  0.16438211  1
  Cr  Cr2  1  0.99752397  0.99562474  0.33168044  1
  Ni  Ni3  1  0.99861759  0.33344149  -0.00039664  1
  Ni  Ni4  1  0.16528759  0.50141283  0.16654976  1
  Cr  Cr5  1  0.00052966  0.33649039  0.33353778  1
  Ni  Ni6  1  0.99722168  0.66647318  0.00191848  1
  Ni  Ni7  1  0.16711358  0.83182773  0.16527060  1
  Ni  Ni8  1  0.99769006  0.66538956  0.33226637  1
  Ni  Ni9  1  0.33242428  0.99857521  0.00014478  1
  Ni  Ni10  1  0.49823424  0.16472027  0.16842818  1
  Ni  Ni11  1  0.33515060  0.00139243  0.32949135  1
  Cr  Cr12  1  0.33359687  0.33101244  0.99863133  1
  Cr  Cr13  1  0.50301439  0.49937740  0.16630396  1
  Ni  Ni14  1  0.33433191  0.33251498  0.33312450  1
  Ni  Ni15  1  0.33400678  0.66828031  0.00066601  1
  Ni  Ni16  1  0.49884793  0.83300224  0.16679873  1
  Fe  Fe17  1  0.33284376  0.66544399  0.33218763  1
  Cr  Cr18  1  0.66478246  0.99698813  0.99889590  1
  Cr  Cr19  1  0.83014217  0.16904971  0.16552715  1
  Ni  Ni20  1  0.66386773  0.99822036  0.33316056  1
  Ni  Ni21  1  0.66743124  0.33440182  0.99737114  1
  Ni  Ni22  1  0.83355856  0.50189317  0.16484311  1
  Ni  Ni23  1  0.66392402  0.33377904  0.33500022  1
  Ni  Ni24  1  0.66747397  0.66595752  0.99826823  1
  Ni  Ni25  1  0.83237521  0.82983402  0.16635722  1
  Ni  Ni26  1  0.66909516  0.66646162  0.33264620  1
  Cr  Cr27  1  0.16635171  0.16523323  0.50160705  1
  Ni  Ni28  1  0.99591699  -0.00028942  0.66716736  1
  Ni  Ni29  1  0.16374416  0.16428170  0.83310624  1
  Ni  Ni30  1  0.16613587  0.50130333  0.49929959  1
  Ni  Ni31  1  0.99666716  0.33358954  0.66607114  1
  Cr  Cr32  1  0.16364964  0.50096128  0.83278229  1
  Cr  Cr33  1  0.16591336  0.83118520  0.50197647  1
  Ni  Ni34  1  0.99585986  0.66501528  0.66431884  1
  Cr  Cr35  1  0.16625900  0.83342565  0.83137249  1
  Ni  Ni36  1  0.50234886  0.16698180  0.49798119  1
  Ni  Ni37  1  0.33551763  0.00025517  0.66882209  1
  Ni  Ni38  1  0.50154356  0.16521416  0.83193441  1
  Ni  Ni39  1  0.50118602  0.49915764  0.49889909  1
  Cr  Cr40  1  0.33524104  0.33367690  0.66635033  1
  Ni  Ni41  1  0.50327064  0.50177856  0.83262583  1
  Cr  Cr42  1  0.50065717  0.83318986  0.49966179  1
  Ni  Ni43  1  0.33515413  0.66551446  0.66550684  1
  Ni  Ni44  1  0.50002535  0.83157562  0.83205368  1
  Ni  Ni45  1  0.82884616  0.16648864  0.50137824  1
  Ni  Ni46  1  0.66695419  -0.00047943  0.66620900  1
  Ni  Ni47  1  0.83338980  0.16733144  0.83172733  1
  Ni  Ni48  1  0.83125405  0.50007780  0.50016971  1
  Ni  Ni49  1  0.66738424  0.33331538  0.66598346  1
  Ni  Ni50  1  0.83080877  0.49903975  0.83362265  1
  Ni  Ni51  1  0.83161618  0.83178350  0.50035132  1
  Ni  Ni52  1  0.66736469  0.66573811  0.66742740  1
  Ni  Ni53  1  0.83221197  0.83197647  0.83170609  1
" 