1922,Ni75Fe2Cr21_11,-230.289453231908, 155.809381649723,Ni75Fe2Cr21,"# generated using pymatgen
 data_Cr13FeNi40
_symmetry_space_group_name_H-M   'P 1'
_cell_length_a   7.47727847
_cell_length_b   7.47727847
_cell_length_c   10.57446863
_cell_angle_alpha   90.00000000
_cell_angle_beta   90.00000000
_cell_angle_gamma   90.00000000
_symmetry_Int_Tables_number   1
_chemical_formula_structural   Cr13FeNi40
_chemical_formula_sum   'Cr13 Fe1 Ni40'
_cell_volume   591.21529827
_cell_formula_units_Z   1
loop_
 _symmetry_equiv_pos_site_id
 _symmetry_equiv_pos_as_xyz
  1  'x, y, z'
loop_
 _atom_site_type_symbol
 _atom_site_label
 _atom_site_symmetry_multiplicity
 _atom_site_fract_x
 _atom_site_fract_y
 _atom_site_fract_z
 _atom_site_occupancy
  Ni  Ni0  1  -0.00067639  0.00318295  0.99908168  1
  Ni  Ni1  1  0.16778241  0.16613467  0.16603140  1
  Cr  Cr2  1  -0.00008678  0.00016359  0.33336757  1
  Ni  Ni3  1  0.99819927  0.32998241  0.99837958  1
  Cr  Cr4  1  0.16753526  0.49849556  0.16725804  1
  Ni  Ni5  1  0.99904209  0.33399011  0.33452121  1
  Cr  Cr6  1  0.99740633  0.66501272  0.00107918  1
  Ni  Ni7  1  0.16829200  0.83271878  0.16667497  1
  Ni  Ni8  1  -0.00001953  0.66350486  0.33380673  1
  Cr  Cr9  1  0.33232807  0.00074323  -0.00043521  1
  Ni  Ni10  1  0.49840199  0.16778624  0.16718454  1
  Ni  Ni11  1  0.33393153  -0.00032986  0.33090295  1
  Ni  Ni12  1  0.33465510  0.33228791  0.99897781  1
  Ni  Ni13  1  0.49979259  0.49693579  0.16509461  1
  Ni  Ni14  1  0.33282182  0.33242781  0.33254302  1
  Ni  Ni15  1  0.33769233  0.66530593  0.00036690  1
  Fe  Fe16  1  0.49853061  0.83273139  0.16627627  1
  Ni  Ni17  1  0.33384644  0.66581341  0.33260284  1
  Ni  Ni18  1  0.66426391  0.00029245  0.99851650  1
  Cr  Cr19  1  0.82895319  0.16860676  0.16532760  1
  Ni  Ni20  1  0.66327797  -0.00002002  0.33367203  1
  Ni  Ni21  1  0.66475616  0.33385417  0.99815954  1
  Ni  Ni22  1  0.83033622  0.49807531  0.16573415  1
  Ni  Ni23  1  0.66565283  0.33345876  0.33292560  1
  Ni  Ni24  1  0.66256259  0.66372868  0.99912075  1
  Cr  Cr25  1  0.83225027  0.83349214  0.16478766  1
  Cr  Cr26  1  0.66665212  0.66479754  0.33370751  1
  Ni  Ni27  1  0.16513332  0.16756423  0.49902763  1
  Ni  Ni28  1  0.99841068  0.00279092  0.66549370  1
  Ni  Ni29  1  0.16452353  0.16617661  0.83281033  1
  Ni  Ni30  1  0.16585147  0.49865329  0.49814178  1
  Ni  Ni31  1  0.99703517  0.33159586  0.66504798  1
  Cr  Cr32  1  0.16682103  0.49881231  0.83245802  1
  Cr  Cr33  1  0.16756691  0.83088300  0.50159876  1
  Ni  Ni34  1  0.99649467  0.66344731  0.66309879  1
  Cr  Cr35  1  0.16678381  0.83210844  0.82994515  1
  Cr  Cr36  1  0.50105581  0.16610518  0.49763966  1
  Ni  Ni37  1  0.33402732  0.99895344  0.66708291  1
  Ni  Ni38  1  0.50189028  0.16630057  0.83284842  1
  Ni  Ni39  1  0.49924320  0.50041182  0.49929210  1
  Cr  Cr40  1  0.33347166  0.33178605  0.66664518  1
  Ni  Ni41  1  0.50176675  0.49962122  0.83361895  1
  Ni  Ni42  1  0.50035179  0.83237161  0.49978217  1
  Ni  Ni43  1  0.33681539  0.66617427  0.66507528  1
  Ni  Ni44  1  0.50036098  0.83192639  0.83200886  1
  Ni  Ni45  1  0.83226428  0.16685547  0.50000411  1
  Ni  Ni46  1  0.66557326  0.99919566  0.66560941  1
  Ni  Ni47  1  0.83138480  0.16747646  0.83285454  1
  Ni  Ni48  1  0.83307277  0.49798813  0.49970663  1
  Ni  Ni49  1  0.66860677  0.33398739  0.66690372  1
  Ni  Ni50  1  0.82987067  0.49675188  0.83256107  1
  Ni  Ni51  1  0.83110656  0.83297226  0.50148841  1
  Ni  Ni52  1  0.66494352  0.66494082  0.66533146  1
  Cr  Cr53  1  0.83045023  0.83403308  0.83131648  1
" 