5052,Ni75Fe15Cr9_13,-237.455198572778, 191.886245767645,Ni75Fe15Cr9,"# generated using pymatgen
 data_Cr3(FeNi5)4
_symmetry_space_group_name_H-M   'P 1'
_cell_length_a   7.43971740
_cell_length_b   7.43971740
_cell_length_c   10.52134924
_cell_angle_alpha   90.00000000
_cell_angle_beta   90.00000000
_cell_angle_gamma   90.00000000
_symmetry_Int_Tables_number   1
_chemical_formula_structural   Cr3(FeNi5)4
_chemical_formula_sum   'Cr6 Fe8 Ni40'
_cell_volume   582.35031433
_cell_formula_units_Z   2
loop_
 _symmetry_equiv_pos_site_id
 _symmetry_equiv_pos_as_xyz
  1  'x, y, z'
loop_
 _atom_site_type_symbol
 _atom_site_label
 _atom_site_symmetry_multiplicity
 _atom_site_fract_x
 _atom_site_fract_y
 _atom_site_fract_z
 _atom_site_occupancy
  Fe  Fe0  1  1.00063015  1.00179699  0.00349648  1
  Ni  Ni1  1  0.16735441  0.16843291  0.16851815  1
  Fe  Fe2  1  0.00355394  0.00301659  0.33531510  1
  Ni  Ni3  1  0.00458265  0.33691354  0.00253886  1
  Fe  Fe4  1  0.16821477  0.50169724  0.16815948  1
  Ni  Ni5  1  1.00180596  0.33651840  0.33523468  1
  Ni  Ni6  1  1.00068795  0.66730078  0.00185472  1
  Ni  Ni7  1  0.16776636  0.83523823  0.16999217  1
  Ni  Ni8  1  1.00174158  0.66794424  0.33558812  1
  Cr  Cr9  1  0.33740677  0.00336252  0.00229011  1
  Ni  Ni10  1  0.50078751  0.16933271  0.16894201  1
  Ni  Ni11  1  0.33476680  0.00212282  0.33572120  1
  Ni  Ni12  1  0.33293888  0.33613108  1.00168190  1
  Ni  Ni13  1  0.50165300  0.50291562  0.16903799  1
  Ni  Ni14  1  0.33524924  0.33418190  0.33450578  1
  Ni  Ni15  1  0.33554967  0.66680154  0.00305907  1
  Ni  Ni16  1  0.50145282  0.83325636  0.16777335  1
  Fe  Fe17  1  0.33540812  0.66786889  0.33522903  1
  Ni  Ni18  1  0.66849119  0.99868775  0.00230226  1
  Ni  Ni19  1  0.83737048  0.16863186  0.16855278  1
  Cr  Cr20  1  0.66734837  0.00247387  0.33474571  1
  Cr  Cr21  1  0.66748252  0.33508034  0.00263528  1
  Ni  Ni22  1  0.83538717  0.50250586  0.16940076  1
  Ni  Ni23  1  0.66845697  0.33598591  0.33554766  1
  Ni  Ni24  1  0.66926821  0.67143570  0.00215326  1
  Ni  Ni25  1  0.83629337  0.83437249  0.16607296  1
  Fe  Fe26  1  0.66855514  0.66618338  0.33481424  1
  Ni  Ni27  1  0.16799462  0.16855300  0.50239001  1
  Ni  Ni28  1  1.00128121  1.00174994  0.66647069  1
  Ni  Ni29  1  0.16898056  0.17105383  0.83459982  1
  Ni  Ni30  1  0.16814446  0.50174633  0.50230708  1
  Ni  Ni31  1  0.00322179  0.33586499  0.66774272  1
  Ni  Ni32  1  0.16845275  0.50062603  0.83589602  1
  Fe  Fe33  1  0.16820357  0.83480965  0.50173670  1
  Ni  Ni34  1  0.00288222  0.66789468  0.66806741  1
  Cr  Cr35  1  0.16829633  0.83405658  0.83363395  1
  Ni  Ni36  1  0.50113042  0.16896944  0.50323798  1
  Fe  Fe37  1  0.33599269  0.00324007  0.66755244  1
  Ni  Ni38  1  0.50055929  0.16832457  0.83332827  1
  Ni  Ni39  1  0.50113853  0.50148327  0.50126705  1
  Ni  Ni40  1  0.33490112  0.33486395  0.66932535  1
  Ni  Ni41  1  0.50023852  0.50250144  0.83520584  1
  Ni  Ni42  1  0.50046058  0.83505164  0.50201031  1
  Ni  Ni43  1  0.33396087  0.66761445  0.66759204  1
  Ni  Ni44  1  0.50298395  0.83468287  0.83573189  1
  Ni  Ni45  1  0.83638581  0.16923243  0.50265122  1
  Ni  Ni46  1  0.66766449  0.00268793  0.66833461  1
  Cr  Cr47  1  0.83604157  0.16850264  0.83437707  1
  Ni  Ni48  1  0.83622734  0.50107627  0.50124862  1
  Ni  Ni49  1  0.66738782  0.33326488  0.66712457  1
  Ni  Ni50  1  0.83681894  0.50304871  0.83486199  1
  Ni  Ni51  1  0.83664520  0.83520190  0.50273244  1
  Cr  Cr52  1  0.66897560  0.66874655  0.66874421  1
  Fe  Fe53  1  0.83401174  0.83414839  0.83585260  1
" 