5353,Ni75Fe2Cr21_18,-230.30562177677, 155.415407443172,Ni75Fe2Cr21,"# generated using pymatgen
 data_Cr13FeNi40
_symmetry_space_group_name_H-M   'P 1'
_cell_length_a   7.47750646
_cell_length_b   7.47750646
_cell_length_c   10.57479104
_cell_angle_alpha   90.00000000
_cell_angle_beta   90.00000000
_cell_angle_gamma   90.00000000
_symmetry_Int_Tables_number   1
_chemical_formula_structural   Cr13FeNi40
_chemical_formula_sum   'Cr13 Fe1 Ni40'
_cell_volume   591.26937888
_cell_formula_units_Z   1
loop_
 _symmetry_equiv_pos_site_id
 _symmetry_equiv_pos_as_xyz
  1  'x, y, z'
loop_
 _atom_site_type_symbol
 _atom_site_label
 _atom_site_symmetry_multiplicity
 _atom_site_fract_x
 _atom_site_fract_y
 _atom_site_fract_z
 _atom_site_occupancy
  Ni  Ni0  1  -0.00047567  0.99851831  0.99901793  1
  Ni  Ni1  1  0.16167918  0.16577915  0.16416946  1
  Ni  Ni2  1  0.99603200  0.99872745  0.33336456  1
  Ni  Ni3  1  0.00014983  0.33389701  0.00068987  1
  Ni  Ni4  1  0.16361960  0.50057289  0.16637188  1
  Ni  Ni5  1  0.99680003  0.33314975  0.32960835  1
  Ni  Ni6  1  0.99839735  0.66543870  0.99817138  1
  Cr  Cr7  1  0.16440753  0.83020001  0.16634782  1
  Ni  Ni8  1  0.99654056  0.66588683  0.33293255  1
  Ni  Ni9  1  0.33160289  0.99723806  0.99902324  1
  Ni  Ni10  1  0.50145974  0.16274391  0.16454041  1
  Cr  Cr11  1  0.33343641  0.99840114  0.33296849  1
  Cr  Cr12  1  0.32996344  0.33348997  0.00235670  1
  Ni  Ni13  1  0.49957951  0.50438628  0.16611634  1
  Cr  Cr14  1  0.33234307  0.33341514  0.32847970  1
  Ni  Ni15  1  0.33273791  0.66662549  0.99853730  1
  Ni  Ni16  1  0.50182145  0.83094383  0.16465145  1
  Ni  Ni17  1  0.33422871  0.66637684  0.33281535  1
  Ni  Ni18  1  0.66668175  0.99575946  0.00175657  1
  Ni  Ni19  1  0.83437865  0.16390599  0.16615197  1
  Ni  Ni20  1  0.66790508  0.99730473  0.33260959  1
  Cr  Cr21  1  0.66835468  0.33660840  0.00144934  1
  Ni  Ni22  1  0.83468384  0.50187365  0.16519654  1
  Cr  Cr23  1  0.66752588  0.33384669  0.33238670  1
  Ni  Ni24  1  0.66684251  0.66798189  -0.00069794  1
  Ni  Ni25  1  0.83112138  0.83244930  0.16589105  1
  Ni  Ni26  1  0.66719970  0.66731995  0.33231986  1
  Cr  Cr27  1  0.16262960  0.16695012  0.50059722  1
  Ni  Ni28  1  0.99922439  0.99708638  0.66586981  1
  Ni  Ni29  1  0.16327110  0.16670126  0.83303821  1
  Cr  Cr30  1  0.16564713  0.50207935  0.49823116  1
  Ni  Ni31  1  0.99831838  0.33432591  0.66731047  1
  Ni  Ni32  1  0.16579675  0.50062153  0.83213805  1
  Ni  Ni33  1  0.16353057  0.83019434  0.49968206  1
  Ni  Ni34  1  0.00012092  0.66700430  0.66681907  1
  Ni  Ni35  1  0.16428243  0.83043189  0.83289905  1
  Ni  Ni36  1  0.50240987  0.16722202  0.50073117  1
  Cr  Cr37  1  0.33050834  0.99557192  0.66634339  1
  Cr  Cr38  1  0.49969624  0.16615189  0.83238437  1
  Ni  Ni39  1  0.50015689  0.50096236  0.50034457  1
  Ni  Ni40  1  0.33294211  0.33492414  0.66685087  1
  Ni  Ni41  1  0.49738655  0.50228736  0.83143231  1
  Ni  Ni42  1  0.49984855  0.82961195  0.49701522  1
  Ni  Ni43  1  0.33194280  0.66515162  0.66647424  1
  Ni  Ni44  1  0.49896938  0.82886985  0.83640608  1
  Ni  Ni45  1  0.83274526  0.16613787  0.49921534  1
  Cr  Cr46  1  0.66813981  0.99651360  0.66299441  1
  Cr  Cr47  1  0.83386435  0.16497969  0.83240009  1
  Ni  Ni48  1  0.83307643  0.49964707  0.50013647  1
  Ni  Ni49  1  0.66660116  0.33516256  0.66373885  1
  Fe  Fe50  1  0.83466257  0.50098403  0.83295869  1
  Ni  Ni51  1  0.83471774  0.83222955  0.49694720  1
  Cr  Cr52  1  0.66803317  0.66581941  0.66685066  1
  Ni  Ni53  1  0.83469540  0.83177207  0.83519939  1
" 