8065,Ni75Fe25_10,-234.225122634903, 189.156116020054,Ni75Fe25,"# generated using pymatgen
 data_Fe20Ni7
_symmetry_space_group_name_H-M   'P 1'
_cell_length_a   7.39544826
_cell_length_b   7.39544826
_cell_length_c   10.45874323
_cell_angle_alpha   90.00000000
_cell_angle_beta   90.00000000
_cell_angle_gamma   90.00000000
_symmetry_Int_Tables_number   1
_chemical_formula_structural   Fe20Ni7
_chemical_formula_sum   'Fe40 Ni14'
_cell_volume   572.01643552
_cell_formula_units_Z   2
loop_
 _symmetry_equiv_pos_site_id
 _symmetry_equiv_pos_as_xyz
  1  'x, y, z'
loop_
 _atom_site_type_symbol
 _atom_site_label
 _atom_site_symmetry_multiplicity
 _atom_site_fract_x
 _atom_site_fract_y
 _atom_site_fract_z
 _atom_site_occupancy
  Fe  Fe0  1  0.00492173  1.00475872  1.00432618  1
  Fe  Fe1  1  0.17085709  0.17121600  0.17103286  1
  Fe  Fe2  1  1.00344586  0.00526891  0.33843520  1
  Ni  Ni3  1  0.00484451  0.33816941  0.00513245  1
  Fe  Fe4  1  0.17077545  0.50513347  0.17180525  1
  Fe  Fe5  1  1.00367143  0.33796531  0.33875059  1
  Fe  Fe6  1  1.00475557  0.67159072  0.00518242  1
  Fe  Fe7  1  0.17106663  0.83817275  0.17082496  1
  Fe  Fe8  1  1.00359692  0.67128599  0.33805638  1
  Fe  Fe9  1  0.33735743  0.00521771  1.00479132  1
  Fe  Fe10  1  0.50571048  0.17090938  0.17194809  1
  Fe  Fe11  1  0.33951690  0.00513339  0.33805591  1
  Fe  Fe12  1  0.33803770  0.33831191  1.00427779  1
  Fe  Fe13  1  0.50548805  0.50513464  0.17095793  1
  Fe  Fe14  1  0.33899012  0.33780023  0.33856886  1
  Fe  Fe15  1  0.33766265  0.67099219  1.00388332  1
  Fe  Fe16  1  0.50550306  0.83847739  0.17232642  1
  Fe  Fe17  1  0.33919823  0.67158933  0.33904912  1
  Fe  Fe18  1  0.67224138  0.00513389  0.00574560  1
  Fe  Fe19  1  0.83795580  0.17120208  0.17215702  1
  Ni  Ni20  1  0.67181869  0.00493959  0.33790103  1
  Fe  Fe21  1  0.67164525  0.33847934  0.00513230  1
  Fe  Fe22  1  0.83825947  0.50492696  0.17185184  1
  Ni  Ni23  1  0.67181461  0.33749942  0.33800359  1
  Fe  Fe24  1  0.67210448  0.67090897  1.00483998  1
  Ni  Ni25  1  0.83807042  0.83884746  0.17181703  1
  Fe  Fe26  1  0.67172773  0.67181270  0.33814339  1
  Fe  Fe27  1  0.17075940  0.17225241  0.50550368  1
  Ni  Ni28  1  1.00402409  0.00533157  0.67146793  1
  Fe  Fe29  1  0.17157455  0.17193992  0.83798570  1
  Ni  Ni30  1  0.17112976  0.50446099  0.50564533  1
  Ni  Ni31  1  0.00530463  0.33739060  0.67111244  1
  Fe  Fe32  1  0.17211508  0.50484318  0.83738827  1
  Fe  Fe33  1  0.17100629  0.83764478  0.50579865  1
  Fe  Fe34  1  0.00610521  0.67085825  0.67128737  1
  Ni  Ni35  1  0.17147969  0.83856476  0.83833824  1
  Fe  Fe36  1  0.50559005  0.17222905  0.50427933  1
  Fe  Fe37  1  0.33712940  1.00482893  0.67167656  1
  Fe  Fe38  1  0.50410914  0.17165432  0.83829273  1
  Fe  Fe39  1  0.50505097  0.50463773  0.50557515  1
  Ni  Ni40  1  0.33760888  0.33993437  0.67158370  1
  Ni  Ni41  1  0.50456377  0.50424222  0.83767093  1
  Ni  Ni42  1  0.50434263  0.83867459  0.50504346  1
  Ni  Ni43  1  0.33888287  0.67092134  0.67170106  1
  Fe  Fe44  1  0.50417934  0.83742430  0.83752318  1
  Ni  Ni45  1  0.83816601  0.17227012  0.50425185  1
  Fe  Fe46  1  0.67143421  0.00535650  0.67054769  1
  Fe  Fe47  1  0.83883489  0.17164692  0.83752361  1
  Ni  Ni48  1  0.83904963  0.50318857  0.50476451  1
  Fe  Fe49  1  0.67173205  0.33839134  0.67094294  1
  Fe  Fe50  1  0.83852180  0.50490802  0.83799858  1
  Fe  Fe51  1  0.83815640  0.83818855  0.50415652  1
  Fe  Fe52  1  0.67127790  0.67077366  0.67153949  1
  Fe  Fe53  1  0.83823533  0.83796685  0.83880595  1
" 