5303,Ni75Fe25_3,-234.342884645872, 194.200580521886,Ni75Fe25,"# generated using pymatgen
 data_Fe20Ni7
_symmetry_space_group_name_H-M   'P 1'
_cell_length_a   7.39668178
_cell_length_b   7.39668178
_cell_length_c   10.46048770
_cell_angle_alpha   90.00000000
_cell_angle_beta   90.00000000
_cell_angle_gamma   90.00000000
_symmetry_Int_Tables_number   1
_chemical_formula_structural   Fe20Ni7
_chemical_formula_sum   'Fe40 Ni14'
_cell_volume   572.30271109
_cell_formula_units_Z   2
loop_
 _symmetry_equiv_pos_site_id
 _symmetry_equiv_pos_as_xyz
  1  'x, y, z'
loop_
 _atom_site_type_symbol
 _atom_site_label
 _atom_site_symmetry_multiplicity
 _atom_site_fract_x
 _atom_site_fract_y
 _atom_site_fract_z
 _atom_site_occupancy
  Ni  Ni0  1  0.00536013  1.00445396  0.00524832  1
  Ni  Ni1  1  0.17037753  0.17192106  0.17092966  1
  Fe  Fe2  1  0.00570259  0.00578940  0.33756853  1
  Ni  Ni3  1  1.00369650  0.33750377  1.00426026  1
  Fe  Fe4  1  0.17083141  0.50345317  0.17091285  1
  Fe  Fe5  1  0.00587396  0.33714162  0.33697626  1
  Fe  Fe6  1  1.00424845  0.67083058  1.00372333  1
  Fe  Fe7  1  0.17091607  0.83956044  0.17150730  1
  Fe  Fe8  1  0.00577253  0.67133929  0.33868313  1
  Fe  Fe9  1  0.33759944  0.00590980  0.00556973  1
  Fe  Fe10  1  0.50453679  0.17164213  0.17164233  1
  Ni  Ni11  1  0.33798395  0.00505617  0.33808878  1
  Fe  Fe12  1  0.33705643  0.33774741  0.00518220  1
  Fe  Fe13  1  0.50492284  0.50330322  0.17193201  1
  Ni  Ni14  1  0.33915428  0.33750234  0.33770161  1
  Fe  Fe15  1  0.33753014  0.67061176  1.00445570  1
  Fe  Fe16  1  0.50445289  0.83932580  0.17223332  1
  Fe  Fe17  1  0.33869595  0.67142111  0.33852741  1
  Fe  Fe18  1  0.67281259  0.00554146  0.00475732  1
  Ni  Ni19  1  0.83923911  0.17113166  0.17094673  1
  Fe  Fe20  1  0.67039544  0.00501433  0.33808965  1
  Ni  Ni21  1  0.67151082  0.33876434  0.00563831  1
  Fe  Fe22  1  0.83851587  0.50337002  0.17107113  1
  Fe  Fe23  1  0.67048033  0.33766502  0.33817430  1
  Fe  Fe24  1  0.67249060  0.67137380  1.00470739  1
  Fe  Fe25  1  0.83890273  0.83917114  0.17069656  1
  Fe  Fe26  1  0.66980192  0.67159001  0.33852702  1
  Fe  Fe27  1  0.17282363  0.17103708  0.50386058  1
  Ni  Ni28  1  0.00535987  1.00282833  0.67103116  1
  Fe  Fe29  1  0.17042087  0.17095921  0.83881709  1
  Fe  Fe30  1  0.17236875  0.50542907  0.50526538  1
  Fe  Fe31  1  1.00461594  0.33830491  0.67206541  1
  Ni  Ni32  1  0.17161378  0.50395650  0.83808857  1
  Fe  Fe33  1  0.17215337  0.83780191  0.50497405  1
  Ni  Ni34  1  0.00496503  0.67296152  0.67190595  1
  Fe  Fe35  1  0.17032352  0.83778794  0.83778937  1
  Fe  Fe36  1  0.50453559  0.17172781  0.50462102  1
  Fe  Fe37  1  0.33795469  1.00453964  0.67061148  1
  Fe  Fe38  1  0.50519688  0.17194925  0.83800624  1
  Ni  Ni39  1  0.50425740  0.50571692  0.50513394  1
  Fe  Fe40  1  0.33742478  0.33861037  0.67091340  1
  Fe  Fe41  1  0.50526814  0.50474029  0.83766606  1
  Ni  Ni42  1  0.50504671  0.83714040  0.50525428  1
  Fe  Fe43  1  0.33786958  0.67111843  0.67128982  1
  Fe  Fe44  1  0.50451658  0.83758303  0.83775028  1
  Fe  Fe45  1  0.83690992  0.17150668  0.50477209  1
  Fe  Fe46  1  0.67245813  1.00417108  0.67142429  1
  Fe  Fe47  1  0.83865070  0.17171152  0.83881503  1
  Fe  Fe48  1  0.83697679  0.50534785  0.50511213  1
  Ni  Ni49  1  0.67033212  0.33886688  0.67093009  1
  Fe  Fe50  1  0.83844321  0.50484068  0.83808667  1
  Fe  Fe51  1  0.83766856  0.83741559  0.50578487  1
  Fe  Fe52  1  0.67215396  0.67187771  0.67103835  1
  Ni  Ni53  1  0.83768556  0.83878994  0.83809662  1
" 