4737,Ni75Fe2Cr21_15,-230.367964595714, 156.484676647811,Ni75Fe2Cr21,"# generated using pymatgen
 data_Cr13FeNi40
_symmetry_space_group_name_H-M   'P 1'
_cell_length_a   7.47542045
_cell_length_b   7.47542045
_cell_length_c   10.57184098
_cell_angle_alpha   90.00000000
_cell_angle_beta   90.00000000
_cell_angle_gamma   90.00000000
_symmetry_Int_Tables_number   1
_chemical_formula_structural   Cr13FeNi40
_chemical_formula_sum   'Cr13 Fe1 Ni40'
_cell_volume   590.77467537
_cell_formula_units_Z   1
loop_
 _symmetry_equiv_pos_site_id
 _symmetry_equiv_pos_as_xyz
  1  'x, y, z'
loop_
 _atom_site_type_symbol
 _atom_site_label
 _atom_site_symmetry_multiplicity
 _atom_site_fract_x
 _atom_site_fract_y
 _atom_site_fract_z
 _atom_site_occupancy
  Ni  Ni0  1  0.00021621  0.99661566  0.99821879  1
  Ni  Ni1  1  0.16914013  0.16330129  0.16760863  1
  Ni  Ni2  1  0.00153246  0.99757439  0.33108071  1
  Cr  Cr3  1  -0.00040506  0.33305262  0.99803932  1
  Ni  Ni4  1  0.16934614  0.50247379  0.16786847  1
  Cr  Cr5  1  0.00354923  0.33433754  0.33415084  1
  Ni  Ni6  1  -0.00003215  0.66868770  0.99896879  1
  Ni  Ni7  1  0.16625676  0.83252410  0.16575037  1
  Ni  Ni8  1  0.00018806  0.66673315  0.33191083  1
  Ni  Ni9  1  0.33297431  0.99764719  -0.00015482  1
  Ni  Ni10  1  0.49755011  0.16462757  0.16664111  1
  Ni  Ni11  1  0.33389114  0.00042866  0.33197731  1
  Cr  Cr12  1  0.33396034  0.33205832  0.00034023  1
  Ni  Ni13  1  0.49731217  0.50110953  0.16547282  1
  Ni  Ni14  1  0.33128329  0.33149782  0.33230966  1
  Ni  Ni15  1  0.33260476  0.66825111  0.99933581  1
  Ni  Ni16  1  0.49913184  0.83257085  0.16688045  1
  Ni  Ni17  1  0.33261960  0.66638751  0.33118520  1
  Ni  Ni18  1  0.66514086  0.99831931  0.99874117  1
  Cr  Cr19  1  0.83171098  0.16185959  0.16443853  1
  Ni  Ni20  1  0.66293449  0.99620647  0.33229487  1
  Ni  Ni21  1  0.66468693  0.33265815  0.99740495  1
  Cr  Cr22  1  0.83158996  0.50328403  0.16563691  1
  Cr  Cr23  1  0.66308559  0.33277866  0.33224054  1
  Ni  Ni24  1  0.66574496  0.66737427  0.99884561  1
  Ni  Ni25  1  0.83294212  0.83271388  0.16644579  1
  Ni  Ni26  1  0.66555698  0.66929690  0.33231685  1
  Ni  Ni27  1  0.16881780  0.16748681  0.49848793  1
  Ni  Ni28  1  0.99846415  0.00084572  0.66900627  1
  Ni  Ni29  1  0.16604052  0.16460202  0.83226407  1
  Ni  Ni30  1  0.16741450  0.49831934  0.49819802  1
  Cr  Cr31  1  0.00042814  0.33238135  0.66606190  1
  Ni  Ni32  1  0.16744051  0.50147455  0.83225812  1
  Cr  Cr33  1  0.16785589  0.83259344  0.49825215  1
  Cr  Cr34  1  0.99921510  0.66583674  0.66727305  1
  Ni  Ni35  1  0.16619840  0.83223375  0.83478944  1
  Ni  Ni36  1  0.49771685  0.16502711  0.49913035  1
  Cr  Cr37  1  0.33392220  -0.00024291  0.66661422  1
  Ni  Ni38  1  0.50168565  0.16598060  0.83250043  1
  Cr  Cr39  1  0.49826792  0.50053501  0.50116040  1
  Ni  Ni40  1  0.33340220  0.33317581  0.66606991  1
  Fe  Fe41  1  0.50024631  0.50037348  0.83230100  1
  Ni  Ni42  1  0.50042109  0.83339197  0.49843476  1
  Ni  Ni43  1  0.33475752  0.66438620  0.66787835  1
  Ni  Ni44  1  0.50024200  0.83217493  0.83300672  1
  Cr  Cr45  1  0.83182777  0.16474836  0.50075029  1
  Ni  Ni46  1  0.66556500  0.99942665  0.66724611  1
  Ni  Ni47  1  0.83056874  0.16473928  0.83246344  1
  Ni  Ni48  1  0.83257102  0.50096497  0.49935147  1
  Ni  Ni49  1  0.66470039  0.33268574  0.66806888  1
  Ni  Ni50  1  0.83048761  0.50001590  0.83323087  1
  Cr  Cr51  1  0.83053053  0.83238704  0.49821499  1
  Ni  Ni52  1  0.66458663  0.66624505  0.66719882  1
  Ni  Ni53  1  0.83187204  0.83359972  0.83359698  1
" 