5985,Ni75Fe3Cr20_11,-230.990093381247, 155.693477594044,Ni75Fe3Cr20,"# generated using pymatgen
 data_Cr12FeNi41
_symmetry_space_group_name_H-M   'P 1'
_cell_length_a   7.47368747
_cell_length_b   7.47368747
_cell_length_c   10.56939019
_cell_angle_alpha   90.00000000
_cell_angle_beta   90.00000000
_cell_angle_gamma   90.00000000
_symmetry_Int_Tables_number   1
_chemical_formula_structural   Cr12FeNi41
_chemical_formula_sum   'Cr12 Fe1 Ni41'
_cell_volume   590.36390528
_cell_formula_units_Z   1
loop_
 _symmetry_equiv_pos_site_id
 _symmetry_equiv_pos_as_xyz
  1  'x, y, z'
loop_
 _atom_site_type_symbol
 _atom_site_label
 _atom_site_symmetry_multiplicity
 _atom_site_fract_x
 _atom_site_fract_y
 _atom_site_fract_z
 _atom_site_occupancy
  Ni  Ni0  1  0.00111032  -0.00011103  0.99870302  1
  Ni  Ni1  1  0.16433988  0.16602617  0.16778992  1
  Ni  Ni2  1  0.00092749  -0.00001962  0.33320102  1
  Ni  Ni3  1  0.00003072  0.33288886  0.99892701  1
  Ni  Ni4  1  0.16679125  0.49925077  0.16703848  1
  Ni  Ni5  1  0.00117387  0.33245174  0.33316948  1
  Cr  Cr6  1  0.00028200  0.66577836  0.00031272  1
  Ni  Ni7  1  0.16685470  0.83329283  0.16680513  1
  Cr  Cr8  1  0.00058555  0.66515721  0.33363580  1
  Cr  Cr9  1  0.32994115  0.99820279  0.99872369  1
  Cr  Cr10  1  0.49978787  0.16704098  0.16945583  1
  Ni  Ni11  1  0.33078977  0.99841105  0.33303966  1
  Cr  Cr12  1  0.33035841  0.33479637  0.99941239  1
  Ni  Ni13  1  0.49863142  0.50053127  0.16682070  1
  Ni  Ni14  1  0.33060202  0.33434283  0.33303128  1
  Fe  Fe15  1  0.33203757  0.66566767  0.99938315  1
  Ni  Ni16  1  0.49734438  0.83098376  0.16784224  1
  Ni  Ni17  1  0.33284129  0.66579406  0.33169716  1
  Cr  Cr18  1  0.66766495  0.99771992  0.99828987  1
  Cr  Cr19  1  0.83465297  0.16697923  0.16635027  1
  Ni  Ni20  1  0.66688316  0.99800314  0.33339423  1
  Ni  Ni21  1  0.66787333  0.33621739  0.99857758  1
  Ni  Ni22  1  0.83327076  0.49768105  0.16614386  1
  Ni  Ni23  1  0.66691167  0.33460689  0.33337277  1
  Cr  Cr24  1  0.66547135  0.66545090  -0.00023937  1
  Ni  Ni25  1  0.83442634  0.83391103  0.16710918  1
  Cr  Cr26  1  0.66644341  0.66612204  0.33369819  1
  Ni  Ni27  1  0.16441557  0.16609392  0.49943534  1
  Ni  Ni28  1  0.00134397  -0.00023167  0.66678730  1
  Ni  Ni29  1  0.16238466  0.16621685  0.83120290  1
  Ni  Ni30  1  0.16712279  0.49960772  0.50029168  1
  Ni  Ni31  1  0.00030978  0.33306677  0.66652545  1
  Ni  Ni32  1  0.16568033  0.50024760  0.83142533  1
  Ni  Ni33  1  0.16705650  0.83293054  0.50040794  1
  Ni  Ni34  1  0.99945154  0.66585021  0.66595909  1
  Ni  Ni35  1  0.16565310  0.83218621  0.83145379  1
  Cr  Cr36  1  0.49862395  0.16733546  0.49815053  1
  Ni  Ni37  1  0.32956081  0.99848882  0.66625945  1
  Cr  Cr38  1  0.50004211  0.16841818  0.83068825  1
  Ni  Ni39  1  0.49832233  0.50056456  0.50040631  1
  Ni  Ni40  1  0.33062912  0.33426731  0.66607218  1
  Ni  Ni41  1  0.49954100  0.50157393  0.83144227  1
  Ni  Ni42  1  0.49716249  0.83096836  0.49944519  1
  Ni  Ni43  1  0.33265678  0.66578500  0.66713511  1
  Ni  Ni44  1  0.49745252  0.82897855  0.83119696  1
  Ni  Ni45  1  0.83526380  0.16728053  0.49861492  1
  Cr  Cr46  1  0.66777925  0.99773417  0.66618160  1
  Ni  Ni47  1  0.83662483  0.16824064  0.83341440  1
  Ni  Ni48  1  0.83333499  0.49765980  0.50145773  1
  Ni  Ni49  1  0.66775057  0.33632087  0.66673841  1
  Ni  Ni50  1  0.83343772  0.49830890  0.83155490  1
  Ni  Ni51  1  0.83449187  0.83376133  0.50048446  1
  Ni  Ni52  1  0.66651645  0.66482784  0.66622539  1
  Ni  Ni53  1  0.83537588  0.83235226  0.83137020  1
" 