4204,Ni75Fe25_12,-234.397669994196, 195.407326174834,Ni75Fe25,"# generated using pymatgen
 data_Fe20Ni7
_symmetry_space_group_name_H-M   'P 1'
_cell_length_a   7.39819798
_cell_length_b   7.39819798
_cell_length_c   10.46263192
_cell_angle_alpha   90.00000000
_cell_angle_beta   90.00000000
_cell_angle_gamma   90.00000000
_symmetry_Int_Tables_number   1
_chemical_formula_structural   Fe20Ni7
_chemical_formula_sum   'Fe40 Ni14'
_cell_volume   572.65472014
_cell_formula_units_Z   2
loop_
 _symmetry_equiv_pos_site_id
 _symmetry_equiv_pos_as_xyz
  1  'x, y, z'
loop_
 _atom_site_type_symbol
 _atom_site_label
 _atom_site_symmetry_multiplicity
 _atom_site_fract_x
 _atom_site_fract_y
 _atom_site_fract_z
 _atom_site_occupancy
  Fe  Fe0  1  1.00461593  1.00312055  0.00490235  1
  Fe  Fe1  1  0.17213952  0.17064904  0.17105698  1
  Fe  Fe2  1  1.00422017  1.00369336  0.33802910  1
  Ni  Ni3  1  1.00452213  0.33743120  0.00567468  1
  Fe  Fe4  1  0.17217477  0.50546893  0.17011818  1
  Fe  Fe5  1  0.00471250  0.33817483  0.33698537  1
  Fe  Fe6  1  1.00462536  0.67027974  1.00413923  1
  Fe  Fe7  1  0.17365293  0.83779569  0.17206938  1
  Fe  Fe8  1  1.00415524  0.67231811  0.33862886  1
  Fe  Fe9  1  0.33840883  1.00424232  1.00431097  1
  Ni  Ni10  1  0.50391522  0.17178282  0.17059524  1
  Fe  Fe11  1  0.33821388  0.00474525  0.33855913  1
  Fe  Fe12  1  0.33813019  0.33988064  1.00447745  1
  Ni  Ni13  1  0.50392289  0.50389194  0.17090711  1
  Fe  Fe14  1  0.33854865  0.33804371  0.33776755  1
  Ni  Ni15  1  0.33916423  0.67189910  0.00498279  1
  Ni  Ni16  1  0.50583534  0.83872267  0.17206810  1
  Fe  Fe17  1  0.33801098  0.67130186  0.33713055  1
  Fe  Fe18  1  0.67118997  1.00404308  0.00474831  1
  Fe  Fe19  1  0.83591105  0.17104154  0.17108198  1
  Fe  Fe20  1  0.67173177  1.00422635  0.33809173  1
  Fe  Fe21  1  0.67071217  0.33982005  1.00440076  1
  Fe  Fe22  1  0.83588367  0.50526284  0.17013135  1
  Fe  Fe23  1  0.67041730  0.33805011  0.33782335  1
  Ni  Ni24  1  0.67005474  0.67164509  0.00504269  1
  Ni  Ni25  1  0.83929765  0.83809262  0.17092261  1
  Fe  Fe26  1  0.67193586  0.67181627  0.33666330  1
  Fe  Fe27  1  0.17076477  0.17015630  0.50484455  1
  Fe  Fe28  1  0.00469584  1.00421272  0.67114223  1
  Fe  Fe29  1  0.17129636  0.17303418  0.83815151  1
  Fe  Fe30  1  0.17050064  0.50600753  0.50547446  1
  Fe  Fe31  1  1.00461677  0.33697405  0.67273225  1
  Ni  Ni32  1  0.17154980  0.50447818  0.83765026  1
  Ni  Ni33  1  0.17091693  0.83837301  0.50465776  1
  Fe  Fe34  1  0.00467216  0.67276014  0.67124639  1
  Fe  Fe35  1  0.17225209  0.83600140  0.83701505  1
  Fe  Fe36  1  0.50470173  0.16927591  0.50435049  1
  Ni  Ni37  1  0.33842554  1.00425691  0.67134609  1
  Fe  Fe38  1  0.50469650  0.17193230  0.83767048  1
  Fe  Fe39  1  0.50470080  0.50650165  0.50443394  1
  Fe  Fe40  1  0.33899027  0.33696379  0.67121859  1
  Ni  Ni41  1  0.50441104  0.50373588  0.83786607  1
  Fe  Fe42  1  0.50456230  0.83817902  0.50439963  1
  Fe  Fe43  1  0.33838961  0.67230961  0.67209272  1
  Fe  Fe44  1  0.50457657  0.83617485  0.83851548  1
  Fe  Fe45  1  0.83848948  0.17027532  0.50496638  1
  Ni  Ni46  1  0.67083804  1.00421466  0.67153995  1
  Fe  Fe47  1  0.83793433  0.17326857  0.83800877  1
  Fe  Fe48  1  0.83875303  0.50589898  0.50559312  1
  Fe  Fe49  1  0.67034778  0.33713595  0.67138781  1
  Ni  Ni50  1  0.83794351  0.50490288  0.83798943  1
  Ni  Ni51  1  0.83811358  0.83837638  0.50540752  1
  Fe  Fe52  1  0.67088487  0.67221367  0.67236988  1
  Fe  Fe53  1  0.83714202  0.83621576  0.83788938  1
" 