7224,Ni75Fe2Cr21_9,-230.150774120589, 153.390146075579,Ni75Fe2Cr21,"# generated using pymatgen
 data_Cr13FeNi40
_symmetry_space_group_name_H-M   'P 1'
_cell_length_a   7.48018857
_cell_length_b   7.48018857
_cell_length_c   10.57858413
_cell_angle_alpha   90.00000000
_cell_angle_beta   90.00000000
_cell_angle_gamma   90.00000000
_symmetry_Int_Tables_number   1
_chemical_formula_structural   Cr13FeNi40
_chemical_formula_sum   'Cr13 Fe1 Ni40'
_cell_volume   591.90585682
_cell_formula_units_Z   1
loop_
 _symmetry_equiv_pos_site_id
 _symmetry_equiv_pos_as_xyz
  1  'x, y, z'
loop_
 _atom_site_type_symbol
 _atom_site_label
 _atom_site_symmetry_multiplicity
 _atom_site_fract_x
 _atom_site_fract_y
 _atom_site_fract_z
 _atom_site_occupancy
  Ni  Ni0  1  0.00118082  0.99669177  0.99706581  1
  Ni  Ni1  1  0.16999460  0.16452158  0.16548679  1
  Cr  Cr2  1  0.00080857  -0.00066105  0.33390009  1
  Cr  Cr3  1  0.00019883  0.33101831  0.99744886  1
  Cr  Cr4  1  0.16775647  0.49953016  0.16641500  1
  Ni  Ni5  1  -0.00050464  0.33365615  0.33534645  1
  Ni  Ni6  1  0.99903486  0.66965887  0.99758440  1
  Ni  Ni7  1  0.16891105  0.83312105  0.16478065  1
  Ni  Ni8  1  -0.00045299  0.66417398  0.33440862  1
  Ni  Ni9  1  0.33108531  -0.00039628  0.00035887  1
  Ni  Ni10  1  0.49604283  0.16488667  0.16640363  1
  Ni  Ni11  1  0.33347569  0.99847069  0.33096892  1
  Ni  Ni12  1  0.33339784  0.32994121  0.00019590  1
  Ni  Ni13  1  0.49753331  0.49994798  0.16637575  1
  Ni  Ni14  1  0.33170249  0.33182606  0.33074116  1
  Ni  Ni15  1  0.33215680  0.66781876  0.00109693  1
  Ni  Ni16  1  0.49735191  0.83253044  0.16609563  1
  Ni  Ni17  1  0.33271459  0.66706770  0.33220881  1
  Ni  Ni18  1  0.66509952  0.99793445  0.99844680  1
  Cr  Cr19  1  0.83192650  0.16443839  0.16738626  1
  Ni  Ni20  1  0.66327255  0.99852175  0.33305804  1
  Cr  Cr21  1  0.66327298  0.33209143  0.99828119  1
  Cr  Cr22  1  0.83167292  0.50095451  0.16761360  1
  Ni  Ni23  1  0.66616716  0.33289881  0.33197313  1
  Ni  Ni24  1  0.66617328  0.66734209  -0.00081942  1
  Cr  Cr25  1  0.83158468  0.83197177  0.16405914  1
  Ni  Ni26  1  0.66510360  0.66594356  0.33299050  1
  Ni  Ni27  1  0.16421575  0.16762940  0.49995635  1
  Ni  Ni28  1  -0.00082646  0.00133794  0.66658527  1
  Ni  Ni29  1  0.16604642  0.16368500  0.83192184  1
  Ni  Ni30  1  0.16438216  0.49781976  0.49798570  1
  Ni  Ni31  1  0.99804536  0.32982191  0.66457890  1
  Cr  Cr32  1  0.16635908  0.49890800  0.83270844  1
  Fe  Fe33  1  0.16688609  0.83235789  0.49912724  1
  Cr  Cr34  1  0.99830258  0.66640097  0.66518179  1
  Ni  Ni35  1  0.16421218  0.83500212  0.83352703  1
  Cr  Cr36  1  0.49908901  0.16362643  0.49948693  1
  Ni  Ni37  1  0.33104371  -0.00048937  0.66603619  1
  Ni  Ni38  1  0.49850329  0.16511492  0.83197276  1
  Cr  Cr39  1  0.49825032  0.50114661  0.49974762  1
  Ni  Ni40  1  0.33109815  0.33057037  0.66642927  1
  Cr  Cr41  1  0.49906648  0.49858333  0.83131569  1
  Ni  Ni42  1  0.50003062  0.83208826  0.49884789  1
  Ni  Ni43  1  0.33286923  0.66728487  0.66405745  1
  Cr  Cr44  1  0.49957801  0.83368312  0.83185502  1
  Ni  Ni45  1  0.83426081  0.16614648  0.49999572  1
  Ni  Ni46  1  0.66714651  -0.00043388  0.66585978  1
  Ni  Ni47  1  0.83281490  0.16387588  0.83041233  1
  Ni  Ni48  1  0.83443092  0.49896144  0.49802499  1
  Ni  Ni49  1  0.66822178  0.33164632  0.66711613  1
  Ni  Ni50  1  0.83191583  0.49998343  0.83165028  1
  Ni  Ni51  1  0.83022202  0.83225673  0.49909583  1
  Ni  Ni52  1  0.66639454  0.66615186  0.66519212  1
  Ni  Ni53  1  0.83334642  0.83350663  0.83402715  1
" 