8881,Ni75Fe2Cr21_0,-230.191343635588, 153.320864984151,Ni75Fe2Cr21,"# generated using pymatgen
 data_Cr13FeNi40
_symmetry_space_group_name_H-M   'P 1'
_cell_length_a   7.48174836
_cell_length_b   7.48174836
_cell_length_c   10.58079000
_cell_angle_alpha   90.00000000
_cell_angle_beta   90.00000000
_cell_angle_gamma   90.00000000
_symmetry_Int_Tables_number   1
_chemical_formula_structural   Cr13FeNi40
_chemical_formula_sum   'Cr13 Fe1 Ni40'
_cell_volume   592.27621022
_cell_formula_units_Z   1
loop_
 _symmetry_equiv_pos_site_id
 _symmetry_equiv_pos_as_xyz
  1  'x, y, z'
loop_
 _atom_site_type_symbol
 _atom_site_label
 _atom_site_symmetry_multiplicity
 _atom_site_fract_x
 _atom_site_fract_y
 _atom_site_fract_z
 _atom_site_occupancy
  Ni  Ni0  1  -0.00086565  -0.00093870  -0.00072713  1
  Cr  Cr1  1  0.16280472  0.16693662  0.16575444  1
  Ni  Ni2  1  0.99810561  -0.00048892  0.33312975  1
  Ni  Ni3  1  -0.00073230  0.33319820  0.99814575  1
  Ni  Ni4  1  0.16081759  0.49821789  0.16315350  1
  Ni  Ni5  1  0.99511622  0.33172127  0.33345294  1
  Ni  Ni6  1  0.00034854  0.66481214  0.00000762  1
  Ni  Ni7  1  0.16205190  0.83317340  0.16514661  1
  Cr  Cr8  1  0.99874167  0.66533867  0.33273931  1
  Cr  Cr9  1  0.33124162  0.99809818  0.99679376  1
  Cr  Cr10  1  0.49986872  0.16546583  0.16846056  1
  Ni  Ni11  1  0.33175196  0.99653628  0.33458705  1
  Ni  Ni12  1  0.32894887  0.33344780  0.99515661  1
  Cr  Cr13  1  0.49919994  0.49803908  0.16769966  1
  Cr  Cr14  1  0.32881984  0.33246058  0.33711198  1
  Cr  Cr15  1  0.32953936  0.66664133  -0.00030015  1
  Ni  Ni16  1  0.50114870  0.83310690  0.16923484  1
  Cr  Cr17  1  0.33004863  0.66937896  0.33331303  1
  Cr  Cr18  1  0.66743417  -0.00043622  0.99794168  1
  Ni  Ni19  1  0.83499926  0.16543800  0.16742000  1
  Ni  Ni20  1  0.66739590  0.99824608  0.33315912  1
  Cr  Cr21  1  0.66815639  0.33104317  0.99575368  1
  Ni  Ni22  1  0.83548241  0.49821227  0.16570588  1
  Ni  Ni23  1  0.67081623  0.33203507  0.33432463  1
  Cr  Cr24  1  0.66777299  0.66621951  0.99876263  1
  Ni  Ni25  1  0.83392874  0.83335482  0.16674368  1
  Ni  Ni26  1  0.66760218  0.66676240  0.33339575  1
  Ni  Ni27  1  0.16411675  0.16458286  0.50047239  1
  Ni  Ni28  1  0.00026706  0.00055452  0.66461144  1
  Ni  Ni29  1  0.16361309  0.16729958  0.83135597  1
  Ni  Ni30  1  0.16448997  0.49762773  0.50252043  1
  Ni  Ni31  1  0.00087614  0.33179083  0.66522972  1
  Ni  Ni32  1  0.16547176  0.49816225  0.83202311  1
  Ni  Ni33  1  0.16496120  0.83473886  0.50182953  1
  Ni  Ni34  1  0.00104340  0.66463793  0.66455593  1
  Ni  Ni35  1  0.16429274  0.83160083  0.83071604  1
  Ni  Ni36  1  0.49914586  0.16364399  0.49911549  1
  Ni  Ni37  1  0.33185550  -0.00090261  0.66580181  1
  Ni  Ni38  1  0.49649588  0.16642230  0.83002457  1
  Ni  Ni39  1  0.50024417  0.50025496  0.50007652  1
  Ni  Ni40  1  0.33072008  0.33195519  0.66607334  1
  Ni  Ni41  1  0.49523057  0.49950628  0.83009105  1
  Ni  Ni42  1  0.50073692  0.83302084  0.50004529  1
  Ni  Ni43  1  0.33158703  0.66595135  0.66556104  1
  Ni  Ni44  1  0.49795692  0.83120028  0.82768166  1
  Ni  Ni45  1  0.83387397  0.16393408  0.49757228  1
  Ni  Ni46  1  0.66488034  -0.00090942  0.66498352  1
  Ni  Ni47  1  0.83705420  0.16501245  0.83166869  1
  Ni  Ni48  1  0.83240641  0.49961417  0.49983379  1
  Cr  Cr49  1  0.66714548  0.33036420  0.66604280  1
  Fe  Fe50  1  0.83650699  0.49902427  0.83032680  1
  Ni  Ni51  1  0.83138435  0.83344447  0.50010878  1
  Ni  Ni52  1  0.66455514  0.66605745  0.66411014  1
  Cr  Cr53  1  0.83549211  0.83233795  0.82844886  1
" 