8171,Ni75Fe15Cr9_10,-237.403185400009, 191.41400320185,Ni75Fe15Cr9,"# generated using pymatgen
 data_Cr3(FeNi5)4
_symmetry_space_group_name_H-M   'P 1'
_cell_length_a   7.44104186
_cell_length_b   7.44104186
_cell_length_c   10.52322231
_cell_angle_alpha   90.00000000
_cell_angle_beta   90.00000000
_cell_angle_gamma   90.00000000
_symmetry_Int_Tables_number   1
_chemical_formula_structural   Cr3(FeNi5)4
_chemical_formula_sum   'Cr6 Fe8 Ni40'
_cell_volume   582.66138983
_cell_formula_units_Z   2
loop_
 _symmetry_equiv_pos_site_id
 _symmetry_equiv_pos_as_xyz
  1  'x, y, z'
loop_
 _atom_site_type_symbol
 _atom_site_label
 _atom_site_symmetry_multiplicity
 _atom_site_fract_x
 _atom_site_fract_y
 _atom_site_fract_z
 _atom_site_occupancy
  Ni  Ni0  1  0.00234976  0.00271327  0.00255825  1
  Ni  Ni1  1  0.16626659  0.16770502  0.16775555  1
  Ni  Ni2  1  0.00238195  1.00157773  0.33456305  1
  Fe  Fe3  1  1.00059666  0.33591114  0.00214139  1
  Ni  Ni4  1  0.16761267  0.50284071  0.16707061  1
  Ni  Ni5  1  1.00077614  0.33373650  0.33252293  1
  Ni  Ni6  1  0.00240587  0.66924707  0.00337031  1
  Ni  Ni7  1  0.16869317  0.83468819  0.16878098  1
  Fe  Fe8  1  1.00160873  0.66908819  0.33373309  1
  Fe  Fe9  1  0.33498069  1.00045973  1.00084113  1
  Cr  Cr10  1  0.50288527  0.16677523  0.16819958  1
  Ni  Ni11  1  0.33324816  0.99970445  0.33587528  1
  Ni  Ni12  1  0.33434228  0.33612936  1.00123497  1
  Ni  Ni13  1  0.50128791  0.50335387  0.16676684  1
  Cr  Cr14  1  0.33589884  0.33605312  0.33459508  1
  Ni  Ni15  1  0.33495285  0.66630257  1.00153451  1
  Ni  Ni16  1  0.50074685  0.83407559  0.16644311  1
  Ni  Ni17  1  0.33488157  0.67037095  0.33422649  1
  Ni  Ni18  1  0.67080497  0.00218679  1.00168054  1
  Ni  Ni19  1  0.83677404  0.16836087  0.16801319  1
  Ni  Ni20  1  0.66952154  1.00114016  0.33501076  1
  Ni  Ni21  1  0.66777260  0.33591225  1.00051667  1
  Ni  Ni22  1  0.83617667  0.50118752  0.16775729  1
  Ni  Ni23  1  0.67050576  0.33575323  0.33610163  1
  Ni  Ni24  1  0.66793274  0.66713586  0.00247493  1
  Ni  Ni25  1  0.83603673  0.83597614  0.16753846  1
  Cr  Cr26  1  0.66725531  0.66820434  0.33406127  1
  Ni  Ni27  1  0.16935009  0.16674631  0.50185948  1
  Ni  Ni28  1  0.00311439  1.00156192  0.66844109  1
  Ni  Ni29  1  0.16842882  0.16909301  0.83540608  1
  Cr  Cr30  1  0.16735661  0.50191845  0.50187466  1
  Fe  Fe31  1  0.00270367  0.33479997  0.66953894  1
  Fe  Fe32  1  0.16888724  0.50193817  0.83521609  1
  Fe  Fe33  1  0.16899320  0.83610321  0.50195501  1
  Ni  Ni34  1  1.00126799  0.66940322  0.66774654  1
  Fe  Fe35  1  0.16899054  0.83513801  0.83560645  1
  Ni  Ni36  1  0.50022843  0.16652500  0.50292366  1
  Ni  Ni37  1  0.33406704  0.00271456  0.66903342  1
  Ni  Ni38  1  0.50065308  0.16791652  0.83472643  1
  Ni  Ni39  1  0.50232658  0.50283654  0.50371898  1
  Ni  Ni40  1  0.33565546  0.33437188  0.66891080  1
  Ni  Ni41  1  0.50155150  0.50239904  0.83484939  1
  Ni  Ni42  1  0.50130766  0.83595667  0.50302985  1
  Ni  Ni43  1  0.33578558  0.66824320  0.66947782  1
  Ni  Ni44  1  0.50008676  0.83462375  0.83574787  1
  Cr  Cr45  1  0.83547956  0.16817315  0.50219343  1
  Ni  Ni46  1  0.66797295  1.00114952  0.66871364  1
  Ni  Ni47  1  0.83626891  0.16957323  0.83517990  1
  Ni  Ni48  1  0.83503648  0.50346504  0.50289582  1
  Fe  Fe49  1  0.66699226  0.33563661  0.66963423  1
  Ni  Ni50  1  0.83600356  0.50129004  0.83433998  1
  Ni  Ni51  1  0.83526304  0.83426345  0.50250983  1
  Ni  Ni52  1  0.66822672  0.66761162  0.66806519  1
  Cr  Cr53  1  0.83366807  0.83432056  0.83540001  1
" 