1471,Ni75Fe3Cr20_18,-231.022436910334, 155.563043412986,Ni75Fe3Cr20,"# generated using pymatgen
 data_Cr12FeNi41
_symmetry_space_group_name_H-M   'P 1'
_cell_length_a   7.47450441
_cell_length_b   7.47450441
_cell_length_c   10.57054550
_cell_angle_alpha   90.00000000
_cell_angle_beta   90.00000000
_cell_angle_gamma   90.00000000
_symmetry_Int_Tables_number   1
_chemical_formula_structural   Cr12FeNi41
_chemical_formula_sum   'Cr12 Fe1 Ni41'
_cell_volume   590.55752085
_cell_formula_units_Z   1
loop_
 _symmetry_equiv_pos_site_id
 _symmetry_equiv_pos_as_xyz
  1  'x, y, z'
loop_
 _atom_site_type_symbol
 _atom_site_label
 _atom_site_symmetry_multiplicity
 _atom_site_fract_x
 _atom_site_fract_y
 _atom_site_fract_z
 _atom_site_occupancy
  Ni  Ni0  1  0.00027759  0.00062758  0.99883053  1
  Ni  Ni1  1  0.16804982  0.16782801  0.16451580  1
  Ni  Ni2  1  0.99647901  0.99838521  0.33406909  1
  Ni  Ni3  1  0.00001192  0.33381751  0.99788789  1
  Ni  Ni4  1  0.16665148  0.49830626  0.16658798  1
  Cr  Cr5  1  0.00127179  0.33261863  0.33386538  1
  Ni  Ni6  1  0.99933895  0.66406817  -0.00024962  1
  Cr  Cr7  1  0.16376046  0.83350069  0.16576062  1
  Ni  Ni8  1  0.99831041  0.66656623  0.33158571  1
  Ni  Ni9  1  0.33399660  0.00205599  0.99807460  1
  Ni  Ni10  1  0.49879564  0.16769036  0.16518587  1
  Cr  Cr11  1  0.33439757  0.00113116  0.33275754  1
  Ni  Ni12  1  0.33182320  0.33003677  0.00076138  1
  Ni  Ni13  1  0.49952764  0.49764948  0.16846989  1
  Ni  Ni14  1  0.33372475  0.33411224  0.33220829  1
  Cr  Cr15  1  0.33138089  0.66701586  -0.00029659  1
  Ni  Ni16  1  0.50195345  0.83318626  0.16705638  1
  Ni  Ni17  1  0.33401040  0.66362073  0.33217814  1
  Ni  Ni18  1  0.66424856  0.00135594  -0.00044172  1
  Cr  Cr19  1  0.83213460  0.16483682  0.16513770  1
  Ni  Ni20  1  0.66680508  0.99814217  0.33400273  1
  Ni  Ni21  1  0.66667318  0.33094872  -0.00031165  1
  Ni  Ni22  1  0.83234119  0.50141542  0.16561263  1
  Ni  Ni23  1  0.66382006  0.33227944  0.33156894  1
  Cr  Cr24  1  0.66754866  0.66618403  0.00063480  1
  Ni  Ni25  1  0.83221764  0.83171394  0.16778370  1
  Ni  Ni26  1  0.66618038  0.66809313  0.33163048  1
  Ni  Ni27  1  0.16603036  0.16755427  0.50111056  1
  Ni  Ni28  1  0.99917073  0.00073217  0.66558885  1
  Ni  Ni29  1  0.16616383  0.16602098  0.83289741  1
  Ni  Ni30  1  0.16730225  0.49863993  0.50031892  1
  Ni  Ni31  1  0.00168301  0.33285550  0.66718715  1
  Ni  Ni32  1  0.16380635  0.49885924  0.83163260  1
  Cr  Cr33  1  0.16494818  0.83207900  0.50009937  1
  Ni  Ni34  1  0.00119609  0.66494034  0.66716831  1
  Ni  Ni35  1  0.16681517  0.83363639  0.83222215  1
  Ni  Ni36  1  0.49964947  0.16485468  0.49926857  1
  Ni  Ni37  1  0.33436284  0.99941181  0.66758105  1
  Ni  Ni38  1  0.49868731  0.16398844  0.83405228  1
  Cr  Cr39  1  0.49677958  0.49979685  0.49834885  1
  Ni  Ni40  1  0.32952516  0.33175734  0.66554219  1
  Cr  Cr41  1  0.49884666  0.49818882  0.83165542  1
  Ni  Ni42  1  0.50201110  0.83377160  0.50066181  1
  Ni  Ni43  1  0.33129347  0.66735624  0.66679056  1
  Ni  Ni44  1  0.49758831  0.83619000  0.83078924  1
  Ni  Ni45  1  0.83279474  0.16243148  0.49966355  1
  Ni  Ni46  1  0.66495121  0.99884519  0.66492570  1
  Ni  Ni47  1  0.83365141  0.16702396  0.83346026  1
  Cr  Cr48  1  0.83384148  0.50091524  0.49978979  1
  Cr  Cr49  1  0.66795182  0.32966291  0.66722242  1
  Ni  Ni50  1  0.83625971  0.49774226  0.83333048  1
  Ni  Ni51  1  0.83155480  0.83513772  0.49864354  1
  Fe  Fe52  1  0.66620546  0.66955400  0.66586674  1
  Cr  Cr53  1  0.83426256  0.83393087  0.83237971  1
" 