4354,Ni75Fe15Cr9_8,-237.567241676863, 191.248413669423,Ni75Fe15Cr9,"# generated using pymatgen
 data_Cr3(FeNi5)4
_symmetry_space_group_name_H-M   'P 1'
_cell_length_a   7.44061400
_cell_length_b   7.44061400
_cell_length_c   10.52261723
_cell_angle_alpha   90.00000000
_cell_angle_beta   90.00000000
_cell_angle_gamma   90.00000000
_symmetry_Int_Tables_number   1
_chemical_formula_structural   Cr3(FeNi5)4
_chemical_formula_sum   'Cr6 Fe8 Ni40'
_cell_volume   582.56088753
_cell_formula_units_Z   2
loop_
 _symmetry_equiv_pos_site_id
 _symmetry_equiv_pos_as_xyz
  1  'x, y, z'
loop_
 _atom_site_type_symbol
 _atom_site_label
 _atom_site_symmetry_multiplicity
 _atom_site_fract_x
 _atom_site_fract_y
 _atom_site_fract_z
 _atom_site_occupancy
  Cr  Cr0  1  0.00191327  1.00113584  1.00136393  1
  Ni  Ni1  1  0.16991695  0.16891514  0.16789774  1
  Ni  Ni2  1  1.00083827  0.99960772  0.33589085  1
  Ni  Ni3  1  1.00135540  0.33700945  1.00130897  1
  Fe  Fe4  1  0.17025547  0.50303058  0.16748104  1
  Cr  Cr5  1  0.00409043  0.33400819  0.33472615  1
  Ni  Ni6  1  0.00202566  0.66659661  0.00194844  1
  Ni  Ni7  1  0.16804773  0.83469114  0.16946164  1
  Ni  Ni8  1  0.00318940  0.67195675  0.33427051  1
  Ni  Ni9  1  0.33750378  1.00157236  0.00179942  1
  Ni  Ni10  1  0.50073339  0.16910702  0.16757727  1
  Fe  Fe11  1  0.33473414  1.00098972  0.33468104  1
  Ni  Ni12  1  0.33507619  0.33463875  0.00254779  1
  Ni  Ni13  1  0.50142375  0.50173283  0.16798634  1
  Ni  Ni14  1  0.33553410  0.33616423  0.33587072  1
  Ni  Ni15  1  0.33455530  0.66911782  0.00260046  1
  Ni  Ni16  1  0.50261082  0.83448892  0.16766315  1
  Ni  Ni17  1  0.33512526  0.66794224  0.33540878  1
  Ni  Ni18  1  0.66638005  0.00224495  1.00153074  1
  Fe  Fe19  1  0.83374617  0.16662046  0.16760019  1
  Ni  Ni20  1  0.66941171  1.00001565  0.33535675  1
  Ni  Ni21  1  0.66889902  0.33406217  0.00302613  1
  Fe  Fe22  1  0.83460324  0.50409539  0.16666262  1
  Cr  Cr23  1  0.66560923  0.33386950  0.33463588  1
  Ni  Ni24  1  0.66875044  0.66902362  0.00234983  1
  Ni  Ni25  1  0.83467070  0.83399954  0.16996799  1
  Ni  Ni26  1  0.66701532  0.67149547  0.33505472  1
  Ni  Ni27  1  0.16831729  0.16854048  0.50326156  1
  Ni  Ni28  1  1.00107026  1.00138828  0.66771051  1
  Fe  Fe29  1  0.16952568  0.16870210  0.83419348  1
  Ni  Ni30  1  0.17152123  0.50144350  0.50215216  1
  Ni  Ni31  1  0.00388067  0.33453664  0.66928784  1
  Ni  Ni32  1  0.16686091  0.50166380  0.83529481  1
  Ni  Ni33  1  0.16803926  0.83534620  0.50140197  1
  Ni  Ni34  1  0.00358253  0.66940434  0.66911148  1
  Ni  Ni35  1  0.16843202  0.83360482  0.83446305  1
  Fe  Fe36  1  0.49996826  0.16671274  0.50207940  1
  Ni  Ni37  1  0.33541815  1.00112665  0.66841351  1
  Ni  Ni38  1  0.50198811  0.16655833  0.83614651  1
  Ni  Ni39  1  0.49828502  0.50326530  0.50138761  1
  Ni  Ni40  1  0.33292550  0.33511320  0.66691019  1
  Cr  Cr41  1  0.50015315  0.50224293  0.83587242  1
  Ni  Ni42  1  0.50237954  0.83413050  0.50180748  1
  Ni  Ni43  1  0.33348387  0.66908622  0.66731712  1
  Ni  Ni44  1  0.50221029  0.83688349  0.83585819  1
  Ni  Ni45  1  0.83673376  0.16444990  0.50195035  1
  Ni  Ni46  1  0.66884112  1.00082903  0.66844158  1
  Ni  Ni47  1  0.83491610  0.16812574  0.83556184  1
  Cr  Cr48  1  0.83561850  0.50394632  0.50326422  1
  Cr  Cr49  1  0.66831043  0.33293004  0.66765466  1
  Fe  Fe50  1  0.83772272  0.50284881  0.83627215  1
  Ni  Ni51  1  0.83490966  0.83733882  0.50156558  1
  Fe  Fe52  1  0.66812288  0.67225324  0.66807695  1
  Ni  Ni53  1  0.83468837  0.83531702  0.83379480  1
" 