6788,Ni75Fe2Cr21_7,-230.179748501787, 155.712140044533,Ni75Fe2Cr21,"# generated using pymatgen
 data_Cr13FeNi40
_symmetry_space_group_name_H-M   'P 1'
_cell_length_a   7.47944974
_cell_length_b   7.47944974
_cell_length_c   10.57753926
_cell_angle_alpha   90.00000000
_cell_angle_beta   90.00000000
_cell_angle_gamma   90.00000000
_symmetry_Int_Tables_number   1
_chemical_formula_structural   Cr13FeNi40
_chemical_formula_sum   'Cr13 Fe1 Ni40'
_cell_volume   591.73048306
_cell_formula_units_Z   1
loop_
 _symmetry_equiv_pos_site_id
 _symmetry_equiv_pos_as_xyz
  1  'x, y, z'
loop_
 _atom_site_type_symbol
 _atom_site_label
 _atom_site_symmetry_multiplicity
 _atom_site_fract_x
 _atom_site_fract_y
 _atom_site_fract_z
 _atom_site_occupancy
  Ni  Ni0  1  -0.00074836  -0.00048514  0.99750721  1
  Ni  Ni1  1  0.16800238  0.16585128  0.16562754  1
  Ni  Ni2  1  0.00104177  0.99789437  0.33434100  1
  Ni  Ni3  1  0.99868158  0.33284675  -0.00069555  1
  Ni  Ni4  1  0.16367150  0.49874353  0.16503552  1
  Cr  Cr5  1  -0.00061394  0.33333235  0.33388269  1
  Ni  Ni6  1  0.99721347  0.66515006  0.00008788  1
  Ni  Ni7  1  0.16501014  0.83291770  0.16691975  1
  Ni  Ni8  1  0.00002636  0.66659149  0.33287482  1
  Cr  Cr9  1  0.33263240  0.00035901  -0.00020065  1
  Ni  Ni10  1  0.49804365  0.16512559  0.16666888  1
  Ni  Ni11  1  0.33159073  -0.00013263  0.33130324  1
  Ni  Ni12  1  0.33199806  0.33097137  -0.00044831  1
  Cr  Cr13  1  0.49970384  0.49649291  0.16490305  1
  Ni  Ni14  1  0.33214454  0.33043290  0.33218680  1
  Cr  Cr15  1  0.33303150  0.66641451  -0.00023299  1
  Ni  Ni16  1  0.49884664  0.83583893  0.16600126  1
  Cr  Cr17  1  0.33081289  0.66705372  0.33292989  1
  Ni  Ni18  1  0.66610417  -0.00080698  0.99792025  1
  Cr  Cr19  1  0.83107593  0.16608734  0.16563000  1
  Ni  Ni20  1  0.66487953  0.00002889  0.33313944  1
  Ni  Ni21  1  0.66683284  0.33300882  0.99775405  1
  Ni  Ni22  1  0.83438346  0.49954375  0.16409666  1
  Ni  Ni23  1  0.66550134  0.33144669  0.33330252  1
  Ni  Ni24  1  0.66798317  0.66531192  0.99749665  1
  Cr  Cr25  1  0.83349472  0.83182489  0.16479388  1
  Cr  Cr26  1  0.66691739  0.66564412  0.33390997  1
  Ni  Ni27  1  0.16608599  0.16505690  0.49846078  1
  Cr  Cr28  1  -0.00039531  0.00030076  0.66584999  1
  Ni  Ni29  1  0.16619384  0.16447281  0.83342587  1
  Ni  Ni30  1  0.16696266  0.49973534  0.49889175  1
  Cr  Cr31  1  0.99820803  0.33114101  0.66462147  1
  Cr  Cr32  1  0.16677369  0.49880886  0.83334375  1
  Ni  Ni33  1  0.16583590  0.83271932  0.49802392  1
  Cr  Cr34  1  0.99858786  0.66607154  0.66426839  1
  Ni  Ni35  1  0.16609333  0.83428090  0.83256989  1
  Cr  Cr36  1  0.49953468  0.16613948  0.49864328  1
  Ni  Ni37  1  0.33346674  0.99794041  0.66658443  1
  Ni  Ni38  1  0.50059976  0.16621317  0.83213683  1
  Ni  Ni39  1  0.49927826  0.49926985  0.50142303  1
  Ni  Ni40  1  0.33432559  0.33278098  0.66577314  1
  Ni  Ni41  1  0.50201970  0.49859554  0.83125519  1
  Ni  Ni42  1  0.49938525  0.83216832  0.50075133  1
  Ni  Ni43  1  0.33565915  0.66679117  0.66475104  1
  Ni  Ni44  1  0.50053634  0.83270384  0.83076062  1
  Ni  Ni45  1  0.83182436  0.16494867  0.49828288  1
  Ni  Ni46  1  0.66425440  0.99820901  0.66645247  1
  Ni  Ni47  1  0.83071966  0.16595658  0.83401765  1
  Ni  Ni48  1  0.83127162  0.49951998  0.49871608  1
  Ni  Ni49  1  0.66468309  0.33380016  0.66645821  1
  Ni  Ni50  1  0.82914408  0.49869354  0.83470020  1
  Ni  Ni51  1  0.83229085  0.83304322  0.49851001  1
  Ni  Ni52  1  0.66307991  0.66550306  0.66586171  1
  Fe  Fe53  1  0.83054854  0.83287708  0.83396027  1
" 