8413,Ni75Fe25_1,-234.462988384182, 193.305091609778,Ni75Fe25,"# generated using pymatgen
 data_Fe20Ni7
_symmetry_space_group_name_H-M   'P 1'
_cell_length_a   7.39724306
_cell_length_b   7.39724306
_cell_length_c   10.46128146
_cell_angle_alpha   90.00000000
_cell_angle_beta   90.00000000
_cell_angle_gamma   90.00000000
_symmetry_Int_Tables_number   1
_chemical_formula_structural   Fe20Ni7
_chemical_formula_sum   'Fe40 Ni14'
_cell_volume   572.43300317
_cell_formula_units_Z   2
loop_
 _symmetry_equiv_pos_site_id
 _symmetry_equiv_pos_as_xyz
  1  'x, y, z'
loop_
 _atom_site_type_symbol
 _atom_site_label
 _atom_site_symmetry_multiplicity
 _atom_site_fract_x
 _atom_site_fract_y
 _atom_site_fract_z
 _atom_site_occupancy
  Fe  Fe0  1  1.00462276  1.00413938  1.00440114  1
  Fe  Fe1  1  0.17041964  0.17210865  0.17216733  1
  Fe  Fe2  1  0.00564482  1.00420824  0.33870502  1
  Fe  Fe3  1  1.00469454  0.33914617  1.00440641  1
  Fe  Fe4  1  0.17089736  0.50569142  0.17208302  1
  Fe  Fe5  1  0.00546993  0.33897037  0.33889823  1
  Ni  Ni6  1  0.00511621  0.67149130  0.00483719  1
  Fe  Fe7  1  0.17109440  0.83650306  0.17112005  1
  Fe  Fe8  1  0.00499761  0.67109386  0.33706346  1
  Fe  Fe9  1  0.33769589  1.00449883  1.00454385  1
  Fe  Fe10  1  0.50634099  0.17197370  0.17091409  1
  Fe  Fe11  1  0.33824234  1.00459302  0.33875323  1
  Fe  Fe12  1  0.33766027  0.33850781  1.00402833  1
  Ni  Ni13  1  0.50474958  0.50390864  0.17108031  1
  Fe  Fe14  1  0.33793636  0.33850692  0.33905275  1
  Fe  Fe15  1  0.33782579  0.67109457  0.00575073  1
  Fe  Fe16  1  0.50583828  0.83655372  0.17243749  1
  Ni  Ni17  1  0.33823829  0.67148732  0.33764948  1
  Fe  Fe18  1  0.67179308  1.00394647  1.00471585  1
  Fe  Fe19  1  0.83741384  0.17232985  0.17163589  1
  Fe  Fe20  1  0.67058486  1.00362463  0.33810250  1
  Fe  Fe21  1  0.67171262  0.33895381  1.00424555  1
  Ni  Ni22  1  0.83808215  0.50560540  0.17117014  1
  Fe  Fe23  1  0.67043919  0.33902676  0.33815186  1
  Fe  Fe24  1  0.67215755  0.67131145  0.00545642  1
  Ni  Ni25  1  0.83868297  0.83811611  0.17121783  1
  Fe  Fe26  1  0.67087299  0.67155227  0.33755196  1
  Ni  Ni27  1  0.17173774  0.17252494  0.50610442  1
  Ni  Ni28  1  1.00463491  1.00365927  0.67147263  1
  Fe  Fe29  1  0.17168513  0.17155997  0.83661558  1
  Ni  Ni30  1  0.16951167  0.50443692  0.50477469  1
  Ni  Ni31  1  1.00428374  0.33681067  0.67185193  1
  Fe  Fe32  1  0.17193348  0.50406280  0.83711941  1
  Fe  Fe33  1  0.17314127  0.83852347  0.50467637  1
  Fe  Fe34  1  1.00461625  0.66936789  0.67234280  1
  Fe  Fe35  1  0.17168262  0.83852608  0.83837956  1
  Ni  Ni36  1  0.50422420  0.17050712  0.50453041  1
  Fe  Fe37  1  0.33800679  0.00703706  0.67119089  1
  Ni  Ni38  1  0.50429441  0.17124424  0.83798791  1
  Fe  Fe39  1  0.50275162  0.50435841  0.50378184  1
  Ni  Ni40  1  0.33918271  0.33885262  0.67071154  1
  Fe  Fe41  1  0.50466105  0.50369880  0.83840512  1
  Ni  Ni42  1  0.50598574  0.83864410  0.50559450  1
  Fe  Fe43  1  0.33734144  0.67036466  0.66975933  1
  Fe  Fe44  1  0.50450910  0.83827218  0.83708062  1
  Fe  Fe45  1  0.83827945  0.17154328  0.50539186  1
  Fe  Fe46  1  0.67134418  0.00687356  0.67128770  1
  Fe  Fe47  1  0.83732638  0.17159931  0.83719651  1
  Fe  Fe48  1  0.83745875  0.50332328  0.50462922  1
  Ni  Ni49  1  0.67024394  0.33815759  0.67078855  1
  Fe  Fe50  1  0.83754824  0.50362634  0.83864644  1
  Fe  Fe51  1  0.83900942  0.83904828  0.50429211  1
  Fe  Fe52  1  0.67218559  0.67044662  0.67109030  1
  Fe  Fe53  1  0.83798309  0.83877403  0.83894486  1
" 