7341,Ni75Fe3Cr20_17,-231.12645862762, 156.242382619223,Ni75Fe3Cr20,"# generated using pymatgen
 data_Cr12FeNi41
_symmetry_space_group_name_H-M   'P 1'
_cell_length_a   7.47434761
_cell_length_b   7.47434761
_cell_length_c   10.57032376
_cell_angle_alpha   90.00000000
_cell_angle_beta   90.00000000
_cell_angle_gamma   90.00000000
_symmetry_Int_Tables_number   1
_chemical_formula_structural   Cr12FeNi41
_chemical_formula_sum   'Cr12 Fe1 Ni41'
_cell_volume   590.52035558
_cell_formula_units_Z   1
loop_
 _symmetry_equiv_pos_site_id
 _symmetry_equiv_pos_as_xyz
  1  'x, y, z'
loop_
 _atom_site_type_symbol
 _atom_site_label
 _atom_site_symmetry_multiplicity
 _atom_site_fract_x
 _atom_site_fract_y
 _atom_site_fract_z
 _atom_site_occupancy
  Cr  Cr0  1  0.99506760  0.00441747  0.00020558  1
  Ni  Ni1  1  0.16657222  0.16964916  0.16870334  1
  Ni  Ni2  1  0.99775231  0.00298247  0.33444662  1
  Ni  Ni3  1  0.00030137  0.33363340  0.00078806  1
  Fe  Fe4  1  0.16653241  0.49560486  0.16560194  1
  Ni  Ni5  1  0.99879591  0.33014345  0.33251224  1
  Ni  Ni6  1  0.00115065  0.66144358  0.00157466  1
  Cr  Cr7  1  0.16591278  0.83522483  0.16684272  1
  Cr  Cr8  1  0.99581702  0.66432164  0.33493121  1
  Cr  Cr9  1  0.33823344  0.00155224  0.99867127  1
  Ni  Ni10  1  0.50003195  0.16844182  0.16698319  1
  Ni  Ni11  1  0.33463164  0.00248236  0.33438083  1
  Ni  Ni12  1  0.33185593  0.33347063  0.00031293  1
  Ni  Ni13  1  0.50077602  0.49629575  0.16643984  1
  Ni  Ni14  1  0.33325414  0.33046645  0.33334375  1
  Ni  Ni15  1  0.33245216  0.66283613  0.00076769  1
  Ni  Ni16  1  0.50178963  0.83377175  0.16701024  1
  Cr  Cr17  1  0.33729416  0.66512945  0.33402669  1
  Ni  Ni18  1  0.66511611  0.00327632  0.00055859  1
  Ni  Ni19  1  0.83180816  0.16820059  0.16686115  1
  Ni  Ni20  1  0.66613488  -0.00016724  0.33146906  1
  Ni  Ni21  1  0.66635127  0.32865854  0.00104595  1
  Ni  Ni22  1  0.83136950  0.49682241  0.16618031  1
  Ni  Ni23  1  0.66648994  0.33252528  0.33306380  1
  Cr  Cr24  1  0.66425275  0.66900889  0.00310748  1
  Ni  Ni25  1  0.83070681  0.83342909  0.16741781  1
  Ni  Ni26  1  0.66607850  0.66615916  0.33323861  1
  Ni  Ni27  1  0.16762855  0.16475237  0.49801007  1
  Ni  Ni28  1  0.99887221  0.00074998  0.66378985  1
  Ni  Ni29  1  0.16764692  0.16899070  0.83156237  1
  Ni  Ni30  1  0.16636907  0.49676148  0.49894649  1
  Cr  Cr31  1  0.00038209  0.33110129  0.66489584  1
  Ni  Ni32  1  0.16653872  0.49700880  0.83631173  1
  Ni  Ni33  1  0.16495172  0.83673838  0.50087320  1
  Ni  Ni34  1  0.99899902  0.66614750  0.66303038  1
  Cr  Cr35  1  0.16605452  0.83169613  0.83121486  1
  Ni  Ni36  1  0.49932807  0.16681456  0.49943878  1
  Ni  Ni37  1  0.33454355  0.00258869  0.66511528  1
  Ni  Ni38  1  0.50037103  0.16626001  0.83202031  1
  Ni  Ni39  1  0.50214846  0.49630532  0.49927848  1
  Ni  Ni40  1  0.33337225  0.32966414  0.66532652  1
  Cr  Cr41  1  0.49926174  0.49631966  0.83182639  1
  Ni  Ni42  1  0.50172188  0.83551242  0.49929109  1
  Cr  Cr43  1  0.33360513  0.66517236  0.66376685  1
  Ni  Ni44  1  0.50017232  0.83562175  0.83223089  1
  Ni  Ni45  1  0.83144771  0.16526414  0.49819248  1
  Ni  Ni46  1  0.66500214  0.00107434  0.66648539  1
  Ni  Ni47  1  0.83042428  0.16672109  0.83337781  1
  Ni  Ni48  1  0.82995955  0.49907352  0.49968171  1
  Ni  Ni49  1  0.66467745  0.32962080  0.66393971  1
  Cr  Cr50  1  0.83322049  0.49793204  0.83187506  1
  Ni  Ni51  1  0.83196513  0.83419625  0.50035854  1
  Ni  Ni52  1  0.66663150  0.66789839  0.66168490  1
  Cr  Cr53  1  0.83180501  0.83386323  0.83061926  1
" 