5593,Ni75Fe3Cr20_14,-231.007516049469, 155.698387348407,Ni75Fe3Cr20,"# generated using pymatgen
 data_Cr12FeNi41
_symmetry_space_group_name_H-M   'P 1'
_cell_length_a   7.47684772
_cell_length_b   7.47684772
_cell_length_c   10.57385944
_cell_angle_alpha   90.00000000
_cell_angle_beta   90.00000000
_cell_angle_gamma   90.00000000
_symmetry_Int_Tables_number   1
_chemical_formula_structural   Cr12FeNi41
_chemical_formula_sum   'Cr12 Fe1 Ni41'
_cell_volume   591.11312668
_cell_formula_units_Z   1
loop_
 _symmetry_equiv_pos_site_id
 _symmetry_equiv_pos_as_xyz
  1  'x, y, z'
loop_
 _atom_site_type_symbol
 _atom_site_label
 _atom_site_symmetry_multiplicity
 _atom_site_fract_x
 _atom_site_fract_y
 _atom_site_fract_z
 _atom_site_occupancy
  Ni  Ni0  1  0.99822297  0.99777865  0.99856004  1
  Cr  Cr1  1  0.16613211  0.16527173  0.16468004  1
  Ni  Ni2  1  0.99737048  0.99717621  0.33412175  1
  Ni  Ni3  1  0.99708307  0.33333652  0.99700451  1
  Cr  Cr4  1  0.16627855  0.49835710  0.16649035  1
  Ni  Ni5  1  0.99797246  0.33424291  0.33577463  1
  Cr  Cr6  1  0.99887206  0.66687937  0.99841581  1
  Ni  Ni7  1  0.16520264  0.83359848  0.16488279  1
  Ni  Ni8  1  0.99644483  0.66659018  0.33390399  1
  Ni  Ni9  1  0.33491284  0.99729091  0.99932904  1
  Ni  Ni10  1  0.50009999  0.16697090  0.16534432  1
  Cr  Cr11  1  0.33450671  0.00027306  0.33339703  1
  Ni  Ni12  1  0.33602477  0.33377035  0.99898413  1
  Ni  Ni13  1  0.50187889  0.49882551  0.16495185  1
  Ni  Ni14  1  0.33369608  0.33181394  0.33322203  1
  Ni  Ni15  1  0.33406907  0.66694899  0.99793725  1
  Ni  Ni16  1  0.50134020  0.83223703  0.16418921  1
  Cr  Cr17  1  0.33241360  0.66644007  0.33242216  1
  Ni  Ni18  1  0.66488146  -0.00025424  0.99835709  1
  Cr  Cr19  1  0.83224566  0.16558181  0.16575924  1
  Ni  Ni20  1  0.66718342  0.99882258  0.33390652  1
  Ni  Ni21  1  0.66491771  0.33249573  0.99820568  1
  Ni  Ni22  1  0.82961403  0.50046064  0.16742466  1
  Ni  Ni23  1  0.66636881  0.33261517  0.33274786  1
  Fe  Fe24  1  0.66421199  0.66604623  -0.00054611  1
  Ni  Ni25  1  0.83151613  0.83188114  0.16747153  1
  Ni  Ni26  1  0.66959570  0.66659396  0.33088378  1
  Ni  Ni27  1  0.16560346  0.16599293  0.49696346  1
  Cr  Cr28  1  0.99813892  0.99833293  0.66553195  1
  Cr  Cr29  1  0.16615998  0.16491888  0.83636825  1
  Ni  Ni30  1  0.16418413  0.49897897  0.49760082  1
  Cr  Cr31  1  0.99626619  0.33416297  0.66582094  1
  Ni  Ni32  1  0.16791621  0.50098399  0.83416618  1
  Ni  Ni33  1  0.16584587  0.83306673  0.49952538  1
  Cr  Cr34  1  -0.00027494  0.66552529  0.66582432  1
  Ni  Ni35  1  0.16878063  0.83173520  0.83360043  1
  Ni  Ni36  1  0.50088640  0.16420627  0.49926185  1
  Ni  Ni37  1  0.33619845  0.99608755  0.66510693  1
  Ni  Ni38  1  0.50211733  0.16527893  0.83337295  1
  Cr  Cr39  1  0.50122675  0.50037330  0.49954739  1
  Cr  Cr40  1  0.33440530  0.33247188  0.66548223  1
  Ni  Ni41  1  0.50012940  0.50050024  0.83374471  1
  Ni  Ni42  1  0.50108784  0.83454291  0.50175576  1
  Ni  Ni43  1  0.33346023  0.66902668  0.66732536  1
  Ni  Ni44  1  0.49919379  0.83226199  0.83201608  1
  Ni  Ni45  1  0.83154980  0.16586827  0.49789992  1
  Ni  Ni46  1  0.66357200  -0.00058095  0.66575079  1
  Ni  Ni47  1  0.82945043  0.16617298  0.83435890  1
  Ni  Ni48  1  0.83305419  0.49916323  0.49731612  1
  Ni  Ni49  1  0.66655397  0.33152613  0.66708261  1
  Ni  Ni50  1  0.82991292  0.49808582  0.83332577  1
  Ni  Ni51  1  0.83111990  0.83299775  0.49704176  1
  Ni  Ni52  1  0.66502330  0.66711125  0.66745252  1
  Ni  Ni53  1  0.82999168  0.83377332  0.83354578  1
" 