4497,Ni75Fe25_15,-234.525056810762, 195.870498162389,Ni75Fe25,"# generated using pymatgen
 data_Fe20Ni7
_symmetry_space_group_name_H-M   'P 1'
_cell_length_a   7.39710286
_cell_length_b   7.39710286
_cell_length_c   10.46108319
_cell_angle_alpha   90.00000000
_cell_angle_beta   90.00000000
_cell_angle_gamma   90.00000000
_symmetry_Int_Tables_number   1
_chemical_formula_structural   Fe20Ni7
_chemical_formula_sum   'Fe40 Ni14'
_cell_volume   572.40045682
_cell_formula_units_Z   2
loop_
 _symmetry_equiv_pos_site_id
 _symmetry_equiv_pos_as_xyz
  1  'x, y, z'
loop_
 _atom_site_type_symbol
 _atom_site_label
 _atom_site_symmetry_multiplicity
 _atom_site_fract_x
 _atom_site_fract_y
 _atom_site_fract_z
 _atom_site_occupancy
  Fe  Fe0  1  1.00265903  1.00391344  1.00428878  1
  Fe  Fe1  1  0.17114083  0.17242443  0.17130519  1
  Fe  Fe2  1  0.00517286  1.00448633  0.33857125  1
  Ni  Ni3  1  0.00725669  0.33854275  1.00460735  1
  Fe  Fe4  1  0.17192170  0.50371985  0.17053291  1
  Fe  Fe5  1  1.00425455  0.33817336  0.33687102  1
  Ni  Ni6  1  1.00471324  0.67036536  0.00538679  1
  Fe  Fe7  1  0.17120667  0.83786758  0.17060585  1
  Fe  Fe8  1  0.00492342  0.67176831  0.33691561  1
  Fe  Fe9  1  0.33691056  1.00399721  0.00551384  1
  Ni  Ni10  1  0.50443431  0.17161413  0.17134919  1
  Fe  Fe11  1  0.33786525  1.00456747  0.33695427  1
  Fe  Fe12  1  0.33974611  0.33869164  1.00411813  1
  Fe  Fe13  1  0.50558816  0.50470142  0.17149142  1
  Fe  Fe14  1  0.33832380  0.33797158  0.33890828  1
  Fe  Fe15  1  0.33789036  0.67171744  1.00399558  1
  Fe  Fe16  1  0.50561635  0.83809753  0.17132496  1
  Fe  Fe17  1  0.33773715  0.67135538  0.33846190  1
  Ni  Ni18  1  0.67006434  1.00449893  0.00520390  1
  Fe  Fe19  1  0.83757742  0.17212536  0.17136555  1
  Fe  Fe20  1  0.67175123  0.00509573  0.33806138  1
  Fe  Fe21  1  0.67388927  0.33872342  0.00579369  1
  Ni  Ni22  1  0.83859630  0.50530778  0.17128813  1
  Fe  Fe23  1  0.67119819  0.33816346  0.33766276  1
  Ni  Ni24  1  0.67170738  0.67323616  0.00516190  1
  Fe  Fe25  1  0.83688668  0.83845385  0.17166798  1
  Fe  Fe26  1  0.67159259  0.67106578  0.33779122  1
  Fe  Fe27  1  0.17115761  0.17196931  0.50455705  1
  Fe  Fe28  1  1.00460970  0.00559867  0.67070744  1
  Fe  Fe29  1  0.17228875  0.17317514  0.83804686  1
  Fe  Fe30  1  0.16931341  0.50464147  0.50584954  1
  Fe  Fe31  1  1.00324973  0.33755091  0.67239862  1
  Ni  Ni32  1  0.17276656  0.50623896  0.83844028  1
  Fe  Fe33  1  0.17178723  0.83779715  0.50544214  1
  Fe  Fe34  1  1.00462969  0.67176885  0.67244681  1
  Ni  Ni35  1  0.16998939  0.83884328  0.83819515  1
  Fe  Fe36  1  0.50586316  0.17079722  0.50431144  1
  Fe  Fe37  1  0.33825801  0.00510306  0.67171948  1
  Fe  Fe38  1  0.50371848  0.17082608  0.83843776  1
  Ni  Ni39  1  0.50338282  0.50427282  0.50375316  1
  Ni  Ni40  1  0.33709527  0.33850981  0.67077464  1
  Ni  Ni41  1  0.50551267  0.50322727  0.83997078  1
  Fe  Fe42  1  0.50692798  0.83798972  0.50444460  1
  Fe  Fe43  1  0.33949793  0.67094295  0.67221036  1
  Fe  Fe44  1  0.50398374  0.83708242  0.83847123  1
  Ni  Ni45  1  0.83825101  0.17046401  0.50376516  1
  Ni  Ni46  1  0.67154015  1.00357025  0.67047081  1
  Fe  Fe47  1  0.83789200  0.17151138  0.83761804  1
  Fe  Fe48  1  0.83711360  0.50485964  0.50335109  1
  Fe  Fe49  1  0.66970746  0.33740005  0.67068240  1
  Fe  Fe50  1  0.83945174  0.50547895  0.84036521  1
  Ni  Ni51  1  0.83929917  0.83880970  0.50462012  1
  Fe  Fe52  1  0.67033489  0.66952013  0.67142743  1
  Fe  Fe53  1  0.83705716  0.83670890  0.83762730  1
" 