2624,Ni75Fe15Cr9_16,-237.254861909536, 188.007471857578,Ni75Fe15Cr9,"# generated using pymatgen
 data_Cr3(FeNi5)4
_symmetry_space_group_name_H-M   'P 1'
_cell_length_a   7.43936792
_cell_length_b   7.43936792
_cell_length_c   10.52085500
_cell_angle_alpha   90.00000000
_cell_angle_beta   90.00000000
_cell_angle_gamma   90.00000000
_symmetry_Int_Tables_number   1
_chemical_formula_structural   Cr3(FeNi5)4
_chemical_formula_sum   'Cr6 Fe8 Ni40'
_cell_volume   582.26825107
_cell_formula_units_Z   2
loop_
 _symmetry_equiv_pos_site_id
 _symmetry_equiv_pos_as_xyz
  1  'x, y, z'
loop_
 _atom_site_type_symbol
 _atom_site_label
 _atom_site_symmetry_multiplicity
 _atom_site_fract_x
 _atom_site_fract_y
 _atom_site_fract_z
 _atom_site_occupancy
  Ni  Ni0  1  1.00178880  1.00158751  0.00210418  1
  Ni  Ni1  1  0.16886864  0.16851945  0.16890931  1
  Ni  Ni2  1  0.00418459  1.00129670  0.33577296  1
  Fe  Fe3  1  0.00187114  0.33464345  1.00083246  1
  Ni  Ni4  1  0.16736879  0.50078177  0.16861424  1
  Fe  Fe5  1  0.00250722  0.33470305  0.33615543  1
  Ni  Ni6  1  1.00051832  0.66897872  1.00152436  1
  Ni  Ni7  1  0.16688613  0.83627976  0.16917015  1
  Ni  Ni8  1  0.00290899  0.66931138  0.33629994  1
  Ni  Ni9  1  0.33465666  0.00373892  0.00239011  1
  Ni  Ni10  1  0.50114556  0.16901536  0.16764002  1
  Ni  Ni11  1  0.33119510  0.00471484  0.33418444  1
  Ni  Ni12  1  0.33584913  0.33404197  1.00119067  1
  Ni  Ni13  1  0.50234444  0.49998429  0.16815753  1
  Ni  Ni14  1  0.33559232  0.33393130  0.33619500  1
  Cr  Cr15  1  0.33519569  0.66792262  0.00278464  1
  Ni  Ni16  1  0.50233120  0.83658174  0.16660320  1
  Cr  Cr17  1  0.33233560  0.66784353  0.33362429  1
  Ni  Ni18  1  0.66913526  0.00248307  1.00185596  1
  Ni  Ni19  1  0.83556795  0.16853278  0.16799731  1
  Cr  Cr20  1  0.67024646  0.00511742  0.33443906  1
  Ni  Ni21  1  0.66795793  0.33531035  0.00211210  1
  Fe  Fe22  1  0.83551996  0.50161213  0.16759284  1
  Ni  Ni23  1  0.66782651  0.33520529  0.33572419  1
  Ni  Ni24  1  0.67011052  0.66778777  0.00209224  1
  Ni  Ni25  1  0.83636346  0.83507910  0.16679595  1
  Cr  Cr26  1  0.67062310  0.66576355  0.33400699  1
  Ni  Ni27  1  0.16897399  0.16871258  0.50149266  1
  Ni  Ni28  1  0.00197714  0.00284208  0.66770603  1
  Ni  Ni29  1  0.16870450  0.16897503  0.83517996  1
  Ni  Ni30  1  0.16578271  0.50048135  0.50173224  1
  Ni  Ni31  1  1.00102348  0.33442852  0.66836930  1
  Ni  Ni32  1  0.16639158  0.49999297  0.83523563  1
  Ni  Ni33  1  0.16515500  0.83638377  0.50139518  1
  Fe  Fe34  1  0.99943350  0.66838230  0.66777044  1
  Fe  Fe35  1  0.16743427  0.83747423  0.83539698  1
  Ni  Ni36  1  0.50101730  0.17029557  0.50268938  1
  Ni  Ni37  1  0.33369799  0.00354113  0.66900577  1
  Ni  Ni38  1  0.50165247  0.16734479  0.83525386  1
  Fe  Fe39  1  0.50326787  0.49711994  0.50245949  1
  Fe  Fe40  1  0.33532676  0.33256333  0.66878893  1
  Ni  Ni41  1  0.50372777  0.50138518  0.83449079  1
  Cr  Cr42  1  0.50229382  0.83789817  0.50255903  1
  Cr  Cr43  1  0.33468846  0.66755313  0.66916969  1
  Ni  Ni44  1  0.50395852  0.83684721  0.83572379  1
  Ni  Ni45  1  0.83559000  0.16966626  0.50274866  1
  Ni  Ni46  1  0.66990504  0.00316264  0.66919771  1
  Ni  Ni47  1  0.83522405  0.16874845  0.83483369  1
  Ni  Ni48  1  0.83669922  0.50160866  0.50217040  1
  Ni  Ni49  1  0.66941790  0.33554612  0.66774408  1
  Ni  Ni50  1  0.83545902  0.50230052  0.83570489  1
  Ni  Ni51  1  0.83828213  0.83430408  0.50411377  1
  Ni  Ni52  1  0.67012181  0.66686991  0.66924885  1
  Fe  Fe53  1  0.83435322  0.83526328  0.83550826  1
" 