8108,Ni75Fe25_4,-234.475262602336, 190.261803509836,Ni75Fe25,"# generated using pymatgen
 data_Fe20Ni7
_symmetry_space_group_name_H-M   'P 1'
_cell_length_a   7.39680446
_cell_length_b   7.39680446
_cell_length_c   10.46066119
_cell_angle_alpha   90.00000000
_cell_angle_beta   90.00000000
_cell_angle_gamma   90.00000000
_symmetry_Int_Tables_number   1
_chemical_formula_structural   Fe20Ni7
_chemical_formula_sum   'Fe40 Ni14'
_cell_volume   572.33118772
_cell_formula_units_Z   2
loop_
 _symmetry_equiv_pos_site_id
 _symmetry_equiv_pos_as_xyz
  1  'x, y, z'
loop_
 _atom_site_type_symbol
 _atom_site_label
 _atom_site_symmetry_multiplicity
 _atom_site_fract_x
 _atom_site_fract_y
 _atom_site_fract_z
 _atom_site_occupancy
  Ni  Ni0  1  1.00397218  0.00483943  0.00497592  1
  Fe  Fe1  1  0.17213859  0.17018807  0.17053586  1
  Fe  Fe2  1  1.00429200  1.00381162  0.33723746  1
  Fe  Fe3  1  0.00591688  0.33791706  1.00408460  1
  Fe  Fe4  1  0.17244138  0.50574408  0.17143412  1
  Fe  Fe5  1  1.00403934  0.33864219  0.33842146  1
  Fe  Fe6  1  0.00585899  0.67172542  0.00577122  1
  Ni  Ni7  1  0.17071056  0.83785510  0.17111582  1
  Ni  Ni8  1  1.00366428  0.67201499  0.33807937  1
  Fe  Fe9  1  0.33750173  1.00473179  0.00497157  1
  Ni  Ni10  1  0.50452699  0.17179428  0.17141610  1
  Fe  Fe11  1  0.33879377  1.00398137  0.33762455  1
  Ni  Ni12  1  0.33801153  0.33858883  1.00383846  1
  Fe  Fe13  1  0.50418263  0.50574132  0.17179909  1
  Ni  Ni14  1  0.33774458  0.33765908  0.33828295  1
  Ni  Ni15  1  0.33842883  0.67000610  0.00497367  1
  Ni  Ni16  1  0.50493680  0.83839664  0.17191740  1
  Fe  Fe17  1  0.33869335  0.67170801  0.33747196  1
  Fe  Fe18  1  0.67054454  1.00467473  0.00601937  1
  Fe  Fe19  1  0.83751059  0.16919929  0.17133221  1
  Ni  Ni20  1  0.67191798  1.00364961  0.33836277  1
  Fe  Fe21  1  0.67079383  0.33785273  1.00473075  1
  Fe  Fe22  1  0.83761961  0.50630812  0.17188450  1
  Fe  Fe23  1  0.67108303  0.33854924  0.33824044  1
  Fe  Fe24  1  0.67094371  0.67172031  0.00486739  1
  Ni  Ni25  1  0.83859703  0.83745096  0.17149915  1
  Ni  Ni26  1  0.67241452  0.67294092  0.33772396  1
  Fe  Fe27  1  0.17219357  0.17236233  0.50541830  1
  Fe  Fe28  1  1.00453180  1.00451713  0.67237308  1
  Ni  Ni29  1  0.17133241  0.17159554  0.83830542  1
  Fe  Fe30  1  0.17190412  0.50458496  0.50425812  1
  Fe  Fe31  1  1.00426979  0.33830562  0.67174224  1
  Fe  Fe32  1  0.17188316  0.50411103  0.83854675  1
  Fe  Fe33  1  0.17163787  0.83729731  0.50421966  1
  Fe  Fe34  1  1.00419392  0.67142166  0.67077386  1
  Fe  Fe35  1  0.17132686  0.83863921  0.83895016  1
  Fe  Fe36  1  0.50466094  0.17197365  0.50371197  1
  Fe  Fe37  1  0.33830484  1.00435044  0.67165531  1
  Fe  Fe38  1  0.50403764  0.17172843  0.83878001  1
  Ni  Ni39  1  0.50527202  0.50468446  0.50450498  1
  Fe  Fe40  1  0.33863329  0.33853736  0.67132548  1
  Fe  Fe41  1  0.50397882  0.50444916  0.83758450  1
  Fe  Fe42  1  0.50554945  0.83734800  0.50440318  1
  Fe  Fe43  1  0.33889148  0.67135299  0.67181007  1
  Fe  Fe44  1  0.50429514  0.83806314  0.83828865  1
  Fe  Fe45  1  0.83738927  0.17171465  0.50477403  1
  Fe  Fe46  1  0.67140627  1.00427543  0.67086192  1
  Fe  Fe47  1  0.83895551  0.17116917  0.83815166  1
  Fe  Fe48  1  0.83744377  0.50547652  0.50477091  1
  Fe  Fe49  1  0.67134332  0.33888793  0.67126419  1
  Fe  Fe50  1  0.83838898  0.50436996  0.83758365  1
  Fe  Fe51  1  0.83707034  0.83706740  0.50391320  1
  Ni  Ni52  1  0.67161304  0.67172137  0.67143916  1
  Fe  Fe53  1  0.83861644  0.83870712  0.83838074  1
" 