6012,Ni75Fe2Cr21_17,-230.332769668727, 156.257985831661,Ni75Fe2Cr21,"# generated using pymatgen
 data_Cr13FeNi40
_symmetry_space_group_name_H-M   'P 1'
_cell_length_a   7.47495606
_cell_length_b   7.47495606
_cell_length_c   10.57118424
_cell_angle_alpha   90.00000000
_cell_angle_beta   90.00000000
_cell_angle_gamma   90.00000000
_symmetry_Int_Tables_number   1
_chemical_formula_structural   Cr13FeNi40
_chemical_formula_sum   'Cr13 Fe1 Ni40'
_cell_volume   590.66458230
_cell_formula_units_Z   1
loop_
 _symmetry_equiv_pos_site_id
 _symmetry_equiv_pos_as_xyz
  1  'x, y, z'
loop_
 _atom_site_type_symbol
 _atom_site_label
 _atom_site_symmetry_multiplicity
 _atom_site_fract_x
 _atom_site_fract_y
 _atom_site_fract_z
 _atom_site_occupancy
  Ni  Ni0  1  0.00147525  0.00075496  0.99938660  1
  Ni  Ni1  1  0.16424607  0.16823308  0.16565579  1
  Ni  Ni2  1  0.99778434  0.99926206  0.33261095  1
  Ni  Ni3  1  0.99727787  0.33227642  -0.00007522  1
  Ni  Ni4  1  0.16544411  0.49861390  0.16779146  1
  Ni  Ni5  1  0.00084215  0.33402091  0.33221668  1
  Ni  Ni6  1  0.99861114  0.66541315  0.00075559  1
  Cr  Cr7  1  0.16423575  0.83160512  0.16397545  1
  Ni  Ni8  1  0.00023175  0.66514088  0.33387528  1
  Ni  Ni9  1  0.33093419  0.99929507  0.99669501  1
  Ni  Ni10  1  0.50084278  0.16913336  0.16761985  1
  Cr  Cr11  1  0.33336103  0.00182786  0.33469127  1
  Cr  Cr12  1  0.33358027  0.33110062  0.00093423  1
  Ni  Ni13  1  0.49948399  0.49758120  0.16523387  1
  Ni  Ni14  1  0.33179495  0.33353073  0.33193648  1
  Ni  Ni15  1  0.33345943  0.66705308  0.99862977  1
  Cr  Cr16  1  0.49973291  0.83189833  0.16530384  1
  Ni  Ni17  1  0.33006679  0.66317813  0.33368867  1
  Cr  Cr18  1  0.66635811  0.00127557  0.00113863  1
  Ni  Ni19  1  0.83334674  0.16747028  0.16661495  1
  Ni  Ni20  1  0.66775237  0.00111466  0.33305408  1
  Ni  Ni21  1  0.66781880  0.33487762  0.99927718  1
  Ni  Ni22  1  0.83353103  0.49808446  0.16486109  1
  Ni  Ni23  1  0.66575460  0.33114265  0.33071072  1
  Ni  Ni24  1  0.66638886  0.66294858  0.99893414  1
  Ni  Ni25  1  0.83435955  0.83288360  0.16652438  1
  Cr  Cr26  1  0.66860126  0.66701005  0.33300317  1
  Ni  Ni27  1  0.16615874  0.16613022  0.50013901  1
  Ni  Ni28  1  0.00112665  0.00118991  0.66641348  1
  Ni  Ni29  1  0.16483136  0.16287373  0.83258658  1
  Ni  Ni30  1  0.16381010  0.49906881  0.49603200  1
  Ni  Ni31  1  0.99757106  0.33106694  0.66630577  1
  Cr  Cr32  1  0.16374742  0.49970742  0.83454906  1
  Ni  Ni33  1  0.16570723  0.83321144  0.49919123  1
  Cr  Cr34  1  0.99765746  0.66588971  0.66324604  1
  Ni  Ni35  1  0.16898852  0.83602512  0.83470505  1
  Ni  Ni36  1  0.49942693  0.16413772  0.49930136  1
  Ni  Ni37  1  0.33314315  -0.00019061  0.66668299  1
  Ni  Ni38  1  0.50042087  0.16445632  0.83156024  1
  Cr  Cr39  1  0.50007250  0.49834968  0.49889571  1
  Cr  Cr40  1  0.33204212  0.32919063  0.66557321  1
  Fe  Fe41  1  0.50332246  0.49999214  0.83404708  1
  Ni  Ni42  1  0.49996290  0.83504650  0.50098212  1
  Cr  Cr43  1  0.33381729  0.66927575  0.66577513  1
  Ni  Ni44  1  0.49740480  0.83329136  0.83241303  1
  Cr  Cr45  1  0.83234314  0.16647510  0.50009865  1
  Ni  Ni46  1  0.66417699  0.99942710  0.66531464  1
  Ni  Ni47  1  0.83319764  0.16941311  0.83198508  1
  Ni  Ni48  1  0.83472388  0.49961909  0.50024637  1
  Ni  Ni49  1  0.66791394  0.33257541  0.66840211  1
  Ni  Ni50  1  0.83039921  0.49650778  0.83326788  1
  Ni  Ni51  1  0.83274610  0.83279816  0.49915105  1
  Ni  Ni52  1  0.66655059  0.66638544  0.66646794  1
  Cr  Cr53  1  0.83285505  0.83279387  0.83305748  1
" 