1958,Ni75Fe25_7,-234.661528721304, 195.469537744168,Ni75Fe25,"# generated using pymatgen
 data_Fe20Ni7
_symmetry_space_group_name_H-M   'P 1'
_cell_length_a   7.39722623
_cell_length_b   7.39722623
_cell_length_c   10.46125766
_cell_angle_alpha   90.00000000
_cell_angle_beta   90.00000000
_cell_angle_gamma   90.00000000
_symmetry_Int_Tables_number   1
_chemical_formula_structural   Fe20Ni7
_chemical_formula_sum   'Fe40 Ni14'
_cell_volume   572.42909698
_cell_formula_units_Z   2
loop_
 _symmetry_equiv_pos_site_id
 _symmetry_equiv_pos_as_xyz
  1  'x, y, z'
loop_
 _atom_site_type_symbol
 _atom_site_label
 _atom_site_symmetry_multiplicity
 _atom_site_fract_x
 _atom_site_fract_y
 _atom_site_fract_z
 _atom_site_occupancy
  Fe  Fe0  1  1.00385304  0.00567022  0.00586319  1
  Ni  Ni1  1  0.17060168  0.17190381  0.17143424  1
  Fe  Fe2  1  0.00481614  1.00360158  0.33696330  1
  Ni  Ni3  1  1.00447021  0.33800327  0.00537782  1
  Ni  Ni4  1  0.17335744  0.50575942  0.17238014  1
  Fe  Fe5  1  1.00468376  0.33767327  0.33656926  1
  Fe  Fe6  1  0.00521998  0.67133139  1.00458707  1
  Ni  Ni7  1  0.17123495  0.83694456  0.17126793  1
  Fe  Fe8  1  0.00550360  0.67270789  0.33842403  1
  Fe  Fe9  1  0.33709939  0.00549932  0.00555463  1
  Fe  Fe10  1  0.50332874  0.17023326  0.17081177  1
  Ni  Ni11  1  0.33767684  0.00516340  0.33759367  1
  Fe  Fe12  1  0.33759927  0.33818520  0.00516437  1
  Fe  Fe13  1  0.50541946  0.50527210  0.17190906  1
  Fe  Fe14  1  0.33891172  0.33822159  0.33767315  1
  Fe  Fe15  1  0.33708208  0.67074137  1.00388150  1
  Fe  Fe16  1  0.50416374  0.83868684  0.17185989  1
  Fe  Fe17  1  0.33855370  0.67261249  0.33882449  1
  Fe  Fe18  1  0.67253393  0.00600287  1.00348001  1
  Ni  Ni19  1  0.83627127  0.17095759  0.17203144  1
  Fe  Fe20  1  0.67103174  1.00419150  0.33880810  1
  Fe  Fe21  1  0.67208525  0.33722946  1.00429727  1
  Fe  Fe22  1  0.84080945  0.50501383  0.17197925  1
  Fe  Fe23  1  0.67056954  0.33752023  0.33853692  1
  Fe  Fe24  1  0.67227400  0.67090263  0.00626519  1
  Ni  Ni25  1  0.83785159  0.83865892  0.17178066  1
  Ni  Ni26  1  0.67227630  0.67126566  0.33824915  1
  Fe  Fe27  1  0.17129760  0.17060851  0.50320658  1
  Fe  Fe28  1  0.00473503  1.00274529  0.67112010  1
  Fe  Fe29  1  0.17111116  0.17143266  0.83933862  1
  Fe  Fe30  1  0.17103223  0.50487314  0.50488590  1
  Fe  Fe31  1  0.00483720  0.33760225  0.67224613  1
  Fe  Fe32  1  0.17118722  0.50314283  0.83851976  1
  Ni  Ni33  1  0.17142816  0.83691906  0.50484028  1
  Ni  Ni34  1  0.00546562  0.67006649  0.67217875  1
  Fe  Fe35  1  0.17156797  0.83911312  0.83738729  1
  Fe  Fe36  1  0.50340332  0.17041832  0.50547743  1
  Fe  Fe37  1  0.33747088  1.00349361  0.67051047  1
  Ni  Ni38  1  0.50541385  0.17204090  0.83733895  1
  Fe  Fe39  1  0.50416297  0.50598695  0.50451568  1
  Fe  Fe40  1  0.33812603  0.33815170  0.67151968  1
  Fe  Fe41  1  0.50540656  0.50449581  0.83783556  1
  Fe  Fe42  1  0.50399436  0.83806444  0.50448104  1
  Ni  Ni43  1  0.33724861  0.67098882  0.67125846  1
  Fe  Fe44  1  0.50544413  0.83958201  0.83747317  1
  Fe  Fe45  1  0.83907351  0.17083999  0.50502673  1
  Ni  Ni46  1  0.67093627  0.00568274  0.67049689  1
  Ni  Ni47  1  0.83704350  0.17150273  0.83683399  1
  Fe  Fe48  1  0.83926466  0.50560751  0.50453915  1
  Fe  Fe49  1  0.67122042  0.33897742  0.67117762  1
  Fe  Fe50  1  0.83770871  0.50369760  0.83819782  1
  Fe  Fe51  1  0.83857234  0.83743932  0.50457017  1
  Fe  Fe52  1  0.67146057  0.67239603  0.67033644  1
  Fe  Fe53  1  0.83695748  0.83902630  0.83796901  1
" 