3183,Ni75Fe15Cr9_11,-237.669399934069, 190.838287896677,Ni75Fe15Cr9,"# generated using pymatgen
 data_Cr3(FeNi5)4
_symmetry_space_group_name_H-M   'P 1'
_cell_length_a   7.44106789
_cell_length_b   7.44106789
_cell_length_c   10.52325914
_cell_angle_alpha   90.00000000
_cell_angle_beta   90.00000000
_cell_angle_gamma   90.00000000
_symmetry_Int_Tables_number   1
_chemical_formula_structural   Cr3(FeNi5)4
_chemical_formula_sum   'Cr6 Fe8 Ni40'
_cell_volume   582.66750631
_cell_formula_units_Z   2
loop_
 _symmetry_equiv_pos_site_id
 _symmetry_equiv_pos_as_xyz
  1  'x, y, z'
loop_
 _atom_site_type_symbol
 _atom_site_label
 _atom_site_symmetry_multiplicity
 _atom_site_fract_x
 _atom_site_fract_y
 _atom_site_fract_z
 _atom_site_occupancy
  Fe  Fe0  1  1.00068108  1.00112954  0.00186495  1
  Ni  Ni1  1  0.16690291  0.16947050  0.16911726  1
  Ni  Ni2  1  0.00277958  0.00212162  0.33500720  1
  Ni  Ni3  1  0.00278643  0.33470018  0.00230298  1
  Ni  Ni4  1  0.16927866  0.50109137  0.16785771  1
  Ni  Ni5  1  1.00047231  0.33406809  0.33437442  1
  Ni  Ni6  1  0.00184854  0.66825102  0.00272090  1
  Ni  Ni7  1  0.16873067  0.83467420  0.16979333  1
  Ni  Ni8  1  1.00105100  0.66904793  0.33415746  1
  Cr  Cr9  1  0.33517326  1.00145588  1.00146261  1
  Fe  Fe10  1  0.50233552  0.16893260  0.16951754  1
  Ni  Ni11  1  0.33406313  0.00224377  0.33462301  1
  Ni  Ni12  1  0.33437166  0.33619255  0.00189189  1
  Ni  Ni13  1  0.50123444  0.50265664  0.16822446  1
  Fe  Fe14  1  0.33559726  0.33455070  0.33390767  1
  Ni  Ni15  1  0.33546845  0.66692767  1.00100029  1
  Ni  Ni16  1  0.50224261  0.83356588  0.16900106  1
  Ni  Ni17  1  0.33522569  0.66950459  0.33303579  1
  Fe  Fe18  1  0.67019432  1.00080412  1.00156278  1
  Ni  Ni19  1  0.83583245  0.16846400  0.16827294  1
  Ni  Ni20  1  0.66839554  0.00281862  0.33396466  1
  Fe  Fe21  1  0.66772822  0.33588576  0.00257222  1
  Ni  Ni22  1  0.83472221  0.50082730  0.16874247  1
  Ni  Ni23  1  0.66884063  0.33522917  0.33521034  1
  Ni  Ni24  1  0.66792036  0.66930913  0.00267004  1
  Ni  Ni25  1  0.83426611  0.83594525  0.16822108  1
  Ni  Ni26  1  0.66896017  0.66719133  0.33442013  1
  Ni  Ni27  1  0.16581385  0.16677632  0.50068839  1
  Ni  Ni28  1  1.00010594  1.00165070  0.66872352  1
  Fe  Fe29  1  0.16585086  0.16933694  0.83577505  1
  Cr  Cr30  1  0.16804723  0.50244120  0.50124420  1
  Ni  Ni31  1  0.99964553  0.33351632  0.66855781  1
  Ni  Ni32  1  0.17075724  0.50238707  0.83590005  1
  Ni  Ni33  1  0.16691066  0.83677131  0.50123007  1
  Ni  Ni34  1  1.00127785  0.67007215  0.66835733  1
  Ni  Ni35  1  0.16835985  0.83345012  0.83421244  1
  Fe  Fe36  1  0.50402268  0.16964072  0.50024628  1
  Cr  Cr37  1  0.33404631  1.00064848  0.66886673  1
  Fe  Fe38  1  0.50416153  0.16889844  0.83547928  1
  Ni  Ni39  1  0.50414663  0.50140388  0.50174148  1
  Cr  Cr40  1  0.33571601  0.33578269  0.66911924  1
  Ni  Ni41  1  0.49955135  0.50316054  0.83527248  1
  Cr  Cr42  1  0.50224797  0.83337765  0.50133752  1
  Ni  Ni43  1  0.33526157  0.66867263  0.67119727  1
  Ni  Ni44  1  0.50240195  0.83313746  0.83474240  1
  Ni  Ni45  1  0.83573399  0.16861275  0.50249289  1
  Ni  Ni46  1  0.67097447  0.00240432  0.66981429  1
  Ni  Ni47  1  0.83525104  0.16654415  0.83447535  1
  Ni  Ni48  1  0.83283581  0.50031571  0.50213271  1
  Ni  Ni49  1  0.66957966  0.33462077  0.66777236  1
  Cr  Cr50  1  0.83526779  0.50070993  0.83422390  1
  Ni  Ni51  1  0.83602099  0.83631139  0.50245815  1
  Ni  Ni52  1  0.66869886  0.66821170  0.66814718  1
  Ni  Ni53  1  0.83447689  0.83835296  0.83456213  1
" 