7956,Ni75Fe2Cr21_14,-230.263259257048, 154.263373999702,Ni75Fe2Cr21,"# generated using pymatgen
 data_Cr13FeNi40
_symmetry_space_group_name_H-M   'P 1'
_cell_length_a   7.47618923
_cell_length_b   7.47618923
_cell_length_c   10.57292820
_cell_angle_alpha   90.00000000
_cell_angle_beta   90.00000000
_cell_angle_gamma   90.00000000
_symmetry_Int_Tables_number   1
_chemical_formula_structural   Cr13FeNi40
_chemical_formula_sum   'Cr13 Fe1 Ni40'
_cell_volume   590.95696128
_cell_formula_units_Z   1
loop_
 _symmetry_equiv_pos_site_id
 _symmetry_equiv_pos_as_xyz
  1  'x, y, z'
loop_
 _atom_site_type_symbol
 _atom_site_label
 _atom_site_symmetry_multiplicity
 _atom_site_fract_x
 _atom_site_fract_y
 _atom_site_fract_z
 _atom_site_occupancy
  Ni  Ni0  1  0.99835846  0.99863258  0.99682756  1
  Cr  Cr1  1  0.16598336  0.16684611  0.16654391  1
  Ni  Ni2  1  0.00013748  0.99851624  0.33547484  1
  Ni  Ni3  1  0.99807526  0.33268421  0.99826198  1
  Ni  Ni4  1  0.16537041  0.50065764  0.16687663  1
  Ni  Ni5  1  0.00072746  0.33398092  0.33448363  1
  Ni  Ni6  1  0.00010895  0.66686676  0.99863526  1
  Cr  Cr7  1  0.16617331  0.83116292  0.16568909  1
  Ni  Ni8  1  0.99934595  0.66569158  0.33437107  1
  Ni  Ni9  1  0.33445312  0.99783370  0.99776510  1
  Ni  Ni10  1  0.49976689  0.16442051  0.16579762  1
  Ni  Ni11  1  0.33206935  0.00044509  0.33318774  1
  Cr  Cr12  1  0.33279928  0.33174782  0.99896448  1
  Cr  Cr13  1  0.49793585  0.49947283  0.16819435  1
  Ni  Ni14  1  0.33237073  0.33298511  0.33456081  1
  Ni  Ni15  1  0.33180565  0.66842749  0.99893402  1
  Ni  Ni16  1  0.49920353  0.83406758  0.16542693  1
  Ni  Ni17  1  0.33183551  0.66477219  0.33282290  1
  Ni  Ni18  1  0.66536260  -0.00005698  0.99900075  1
  Cr  Cr19  1  0.83215545  0.16565047  0.16497407  1
  Cr  Cr20  1  0.66632633  0.99880894  0.33166940  1
  Ni  Ni21  1  0.66694543  0.33011179  0.99663700  1
  Cr  Cr22  1  0.83512389  0.49930389  0.16614574  1
  Ni  Ni23  1  0.66506695  0.33371685  0.33533774  1
  Cr  Cr24  1  0.66565320  0.66834911  0.99825528  1
  Ni  Ni25  1  0.83265834  0.83265667  0.16625593  1
  Ni  Ni26  1  0.66698257  0.66531458  0.33337948  1
  Ni  Ni27  1  0.16656836  0.16534597  0.49865032  1
  Ni  Ni28  1  0.99936840  0.99784178  0.66589275  1
  Ni  Ni29  1  0.16558970  0.16291836  0.83283389  1
  Ni  Ni30  1  0.16591241  0.49947710  0.49683992  1
  Cr  Cr31  1  -0.00055352  0.33172060  0.66526481  1
  Cr  Cr32  1  0.16584761  0.50064274  0.83446080  1
  Ni  Ni33  1  0.16311674  0.83334403  0.49906832  1
  Ni  Ni34  1  0.99851956  0.66889413  0.66510677  1
  Ni  Ni35  1  0.16486165  0.83465966  0.83349670  1
  Ni  Ni36  1  0.49879301  0.16918497  0.50037634  1
  Ni  Ni37  1  0.33185234  0.00216379  0.66724076  1
  Ni  Ni38  1  0.50104173  0.16566717  0.83198610  1
  Ni  Ni39  1  0.49956497  0.49580535  0.49776088  1
  Ni  Ni40  1  0.33525400  0.32999146  0.66483527  1
  Ni  Ni41  1  0.50064199  0.49762538  0.83246444  1
  Cr  Cr42  1  0.49842397  0.83335569  0.49871755  1
  Cr  Cr43  1  0.33129650  0.66574870  0.66651708  1
  Ni  Ni44  1  0.49879226  0.83483138  0.83445762  1
  Ni  Ni45  1  0.83283588  0.16639815  0.49927790  1
  Ni  Ni46  1  0.66693616  0.00174647  0.66727811  1
  Ni  Ni47  1  0.83153507  0.16472154  0.83406238  1
  Ni  Ni48  1  0.83268821  0.49920887  0.49812519  1
  Ni  Ni49  1  0.66409611  0.33089457  0.66616215  1
  Fe  Fe50  1  0.83192570  0.49843300  0.83319745  1
  Ni  Ni51  1  0.83649622  0.83257147  0.49911364  1
  Cr  Cr52  1  0.66830919  0.66560496  0.66650702  1
  Ni  Ni53  1  0.83447581  0.83512148  0.83281793  1
" 