6195,Ni75Fe2Cr21_1,-230.348083175798, 155.989216738755,Ni75Fe2Cr21,"# generated using pymatgen
 data_Cr13FeNi40
_symmetry_space_group_name_H-M   'P 1'
_cell_length_a   7.47555139
_cell_length_b   7.47555139
_cell_length_c   10.57202616
_cell_angle_alpha   90.00000000
_cell_angle_beta   90.00000000
_cell_angle_gamma   90.00000000
_symmetry_Int_Tables_number   1
_chemical_formula_structural   Cr13FeNi40
_chemical_formula_sum   'Cr13 Fe1 Ni40'
_cell_volume   590.80571960
_cell_formula_units_Z   1
loop_
 _symmetry_equiv_pos_site_id
 _symmetry_equiv_pos_as_xyz
  1  'x, y, z'
loop_
 _atom_site_type_symbol
 _atom_site_label
 _atom_site_symmetry_multiplicity
 _atom_site_fract_x
 _atom_site_fract_y
 _atom_site_fract_z
 _atom_site_occupancy
  Ni  Ni0  1  -0.00006276  0.99453926  0.00007062  1
  Ni  Ni1  1  0.16555261  0.16646379  0.16803467  1
  Ni  Ni2  1  -0.00006753  0.99660065  0.33074924  1
  Cr  Cr3  1  0.99865659  0.33713177  -0.00042790  1
  Ni  Ni4  1  0.16675148  0.50149374  0.16784852  1
  Ni  Ni5  1  0.00002791  0.33691490  0.33261140  1
  Ni  Ni6  1  0.99910359  0.66724897  0.99930546  1
  Ni  Ni7  1  0.16483872  0.83011835  0.16575451  1
  Ni  Ni8  1  -0.00007993  0.66468763  0.33196253  1
  Cr  Cr9  1  0.33225597  0.99863315  0.00193962  1
  Ni  Ni10  1  0.49994216  0.16872868  0.16810985  1
  Cr  Cr11  1  0.33471863  0.99825259  0.33181088  1
  Cr  Cr12  1  0.33549195  0.33431720  0.00065178  1
  Ni  Ni13  1  0.50004641  0.50137178  0.16638888  1
  Ni  Ni14  1  0.33405619  0.33525921  0.33209075  1
  Ni  Ni15  1  0.33159064  0.66512831  0.00030703  1
  Ni  Ni16  1  0.50033043  0.82849351  0.16728724  1
  Ni  Ni17  1  0.33259238  0.66459007  0.33300172  1
  Cr  Cr18  1  0.66559088  -0.00045148  0.00127893  1
  Cr  Cr19  1  0.83380562  0.16706650  0.16871383  1
  Ni  Ni20  1  0.66468945  0.99842885  0.33199307  1
  Ni  Ni21  1  0.66459991  0.33651330  0.99932651  1
  Ni  Ni22  1  0.83138243  0.50225142  0.16698259  1
  Ni  Ni23  1  0.66419259  0.33488043  0.33255390  1
  Ni  Ni24  1  0.66751092  0.66375282  -0.00053871  1
  Ni  Ni25  1  0.83313372  0.82989112  0.16658048  1
  Ni  Ni26  1  0.66564859  0.66493911  0.33285112  1
  Cr  Cr27  1  0.16595436  0.16751641  0.50046529  1
  Ni  Ni28  1  -0.00033694  0.99680919  0.66733956  1
  Cr  Cr29  1  0.16699398  0.16544592  0.83002001  1
  Ni  Ni30  1  0.16766238  0.50022067  0.49837256  1
  Ni  Ni31  1  0.99868122  0.33596558  0.66582815  1
  Ni  Ni32  1  0.16762954  0.50208437  0.83198030  1
  Ni  Ni33  1  0.16788148  0.83096255  0.49961103  1
  Cr  Cr34  1  -0.00026737  0.66436684  0.66616821  1
  Ni  Ni35  1  0.16511638  0.83052463  0.83292555  1
  Ni  Ni36  1  0.50017904  0.16728940  0.50047199  1
  Ni  Ni37  1  0.33464666  0.99810989  0.66523960  1
  Ni  Ni38  1  0.50033339  0.16852770  0.83011577  1
  Ni  Ni39  1  0.49895119  0.50001956  0.49944665  1
  Ni  Ni40  1  0.33521743  0.33519972  0.66602050  1
  Ni  Ni41  1  0.49980343  0.49934262  0.83240127  1
  Ni  Ni42  1  0.49850058  0.83083138  0.50005884  1
  Ni  Ni43  1  0.33236014  0.66506810  0.66502186  1
  Cr  Cr44  1  0.49856678  0.82920520  0.83135712  1
  Cr  Cr45  1  0.83239739  0.16746741  0.49864188  1
  Ni  Ni46  1  0.66406625  0.00005670  0.66567554  1
  Cr  Cr47  1  0.83211545  0.16592781  0.83103185  1
  Ni  Ni48  1  0.83140585  0.49842165  0.49813670  1
  Ni  Ni49  1  0.66446148  0.33410229  0.66643135  1
  Ni  Ni50  1  0.83049340  0.50114963  0.83273429  1
  Cr  Cr51  1  0.83146721  0.83234564  0.49780211  1
  Fe  Fe52  1  0.66512615  0.66419864  0.66539592  1
  Ni  Ni53  1  0.83357988  0.83088119  0.83335383  1
" 