2190,Ni75Fe15Cr9_15,-237.741635260337, 190.937254948723,Ni75Fe15Cr9,"# generated using pymatgen
 data_Cr3(FeNi5)4
_symmetry_space_group_name_H-M   'P 1'
_cell_length_a   7.44061592
_cell_length_b   7.44061592
_cell_length_c   10.52261995
_cell_angle_alpha   90.00000000
_cell_angle_beta   90.00000000
_cell_angle_gamma   90.00000000
_symmetry_Int_Tables_number   1
_chemical_formula_structural   Cr3(FeNi5)4
_chemical_formula_sum   'Cr6 Fe8 Ni40'
_cell_volume   582.56133795
_cell_formula_units_Z   2
loop_
 _symmetry_equiv_pos_site_id
 _symmetry_equiv_pos_as_xyz
  1  'x, y, z'
loop_
 _atom_site_type_symbol
 _atom_site_label
 _atom_site_symmetry_multiplicity
 _atom_site_fract_x
 _atom_site_fract_y
 _atom_site_fract_z
 _atom_site_occupancy
  Ni  Ni0  1  0.00381933  0.00212752  0.00264903  1
  Ni  Ni1  1  0.16870690  0.16706428  0.16869327  1
  Ni  Ni2  1  0.00265597  0.00331342  0.33454510  1
  Ni  Ni3  1  0.00254864  0.33136722  0.00204049  1
  Fe  Fe4  1  0.16969882  0.49906936  0.16735724  1
  Ni  Ni5  1  0.00183753  0.33161879  0.33601057  1
  Ni  Ni6  1  0.00205826  0.67159083  0.00429072  1
  Ni  Ni7  1  0.16900400  0.83866228  0.16645990  1
  Cr  Cr8  1  1.00056289  0.67044478  0.33607478  1
  Ni  Ni9  1  0.33428242  0.00286902  1.00104047  1
  Ni  Ni10  1  0.50113856  0.16831418  0.16980771  1
  Ni  Ni11  1  0.33406647  0.00346489  0.33571374  1
  Ni  Ni12  1  0.33733850  0.33224329  0.00336214  1
  Ni  Ni13  1  0.50204403  0.50107929  0.16759843  1
  Ni  Ni14  1  0.33615848  0.33254597  0.33489260  1
  Fe  Fe15  1  0.33541308  0.66869829  0.00228809  1
  Ni  Ni16  1  0.50215973  0.83606659  0.16666854  1
  Cr  Cr17  1  0.33662239  0.66873304  0.33378266  1
  Fe  Fe18  1  0.66815918  0.00429655  0.00244053  1
  Ni  Ni19  1  0.83555492  0.16695778  0.16757136  1
  Fe  Fe20  1  0.66823117  0.00244954  0.33532050  1
  Ni  Ni21  1  0.66568571  0.33422422  1.00122194  1
  Cr  Cr22  1  0.83356564  0.49987297  0.16722838  1
  Ni  Ni23  1  0.66731710  0.33504975  0.33579089  1
  Ni  Ni24  1  0.66638377  0.66863547  0.00243631  1
  Ni  Ni25  1  0.83405958  0.83752279  0.16893182  1
  Ni  Ni26  1  0.66781829  0.66840802  0.33649097  1
  Ni  Ni27  1  0.16773050  0.16739376  0.50192060  1
  Ni  Ni28  1  0.00273150  0.00204621  0.66815530  1
  Ni  Ni29  1  0.16908897  0.16599871  0.83459257  1
  Ni  Ni30  1  0.16904470  0.49991188  0.50285510  1
  Fe  Fe31  1  0.00193195  0.33271798  0.66687031  1
  Cr  Cr32  1  0.16997644  0.50196580  0.83531350  1
  Ni  Ni33  1  0.17025342  0.83768596  0.50398876  1
  Ni  Ni34  1  0.00260667  0.67066475  0.66514668  1
  Ni  Ni35  1  0.16998474  0.83723975  0.83474220  1
  Fe  Fe36  1  0.50066780  0.16901908  0.50220845  1
  Ni  Ni37  1  0.33431366  0.00251644  0.66858954  1
  Ni  Ni38  1  0.50121117  0.16913917  0.83429187  1
  Ni  Ni39  1  0.50292234  0.50221995  0.50263467  1
  Ni  Ni40  1  0.33740959  0.33400694  0.66727396  1
  Ni  Ni41  1  0.50185069  0.50146337  0.83497042  1
  Ni  Ni42  1  0.50164133  0.83547388  0.50333739  1
  Ni  Ni43  1  0.33578811  0.66898050  0.66874705  1
  Fe  Fe44  1  0.50036900  0.83597384  0.83415149  1
  Ni  Ni45  1  0.83558968  0.16901812  0.50190256  1
  Ni  Ni46  1  0.66810919  0.00372237  0.66791827  1
  Ni  Ni47  1  0.83496019  0.16806228  0.83584685  1
  Ni  Ni48  1  0.83332092  0.49971599  0.50339409  1
  Ni  Ni49  1  0.66656264  0.33423344  0.66838022  1
  Cr  Cr50  1  0.83317530  0.50004796  0.83413339  1
  Fe  Fe51  1  0.83475025  0.83611572  0.50281420  1
  Ni  Ni52  1  0.66701331  0.66757000  0.66633383  1
  Cr  Cr53  1  0.83601809  0.83631953  0.83469207  1
" 