4416,Ni75Fe2Cr21_12,-230.187370756992, 154.382740323005,Ni75Fe2Cr21,"# generated using pymatgen
 data_Cr13FeNi40
_symmetry_space_group_name_H-M   'P 1'
_cell_length_a   7.47840334
_cell_length_b   7.47840334
_cell_length_c   10.57605943
_cell_angle_alpha   90.00000000
_cell_angle_beta   90.00000000
_cell_angle_gamma   90.00000000
_symmetry_Int_Tables_number   1
_chemical_formula_structural   Cr13FeNi40
_chemical_formula_sum   'Cr13 Fe1 Ni40'
_cell_volume   591.48216192
_cell_formula_units_Z   1
loop_
 _symmetry_equiv_pos_site_id
 _symmetry_equiv_pos_as_xyz
  1  'x, y, z'
loop_
 _atom_site_type_symbol
 _atom_site_label
 _atom_site_symmetry_multiplicity
 _atom_site_fract_x
 _atom_site_fract_y
 _atom_site_fract_z
 _atom_site_occupancy
  Ni  Ni0  1  0.99915333  0.99829292  -0.00016694  1
  Ni  Ni1  1  0.16541920  0.16589409  0.16599863  1
  Ni  Ni2  1  -0.00006829  0.99849276  0.33250373  1
  Ni  Ni3  1  0.00160857  0.33193197  0.00021590  1
  Ni  Ni4  1  0.16525158  0.49904216  0.16616398  1
  Ni  Ni5  1  -0.00041690  0.33111904  0.33091460  1
  Ni  Ni6  1  0.00035452  0.66749729  0.99918972  1
  Ni  Ni7  1  0.16397602  0.83278619  0.16675909  1
  Ni  Ni8  1  0.00217751  0.66811101  0.33210595  1
  Ni  Ni9  1  0.33272037  0.00020131  0.99819030  1
  Ni  Ni10  1  0.49858702  0.16677002  0.16539274  1
  Ni  Ni11  1  0.33113666  -0.00063355  0.33311105  1
  Ni  Ni12  1  0.33217318  0.33193180  0.99804491  1
  Cr  Cr13  1  0.49762475  0.49752496  0.16555047  1
  Ni  Ni14  1  0.33339157  0.33215538  0.33205432  1
  Ni  Ni15  1  0.33151760  0.66559021  0.99754574  1
  Cr  Cr16  1  0.49746460  0.83399807  0.16411373  1
  Ni  Ni17  1  0.32992436  0.66620102  0.33398286  1
  Ni  Ni18  1  0.66584905  0.99894721  -0.00059172  1
  Ni  Ni19  1  0.83371594  0.16549368  0.16575839  1
  Cr  Cr20  1  0.66689273  0.00152243  0.33325945  1
  Ni  Ni21  1  0.66393964  0.33072782  0.99911424  1
  Cr  Cr22  1  0.83444250  0.49840438  0.16514628  1
  Ni  Ni23  1  0.66474715  0.32991050  0.33442125  1
  Ni  Ni24  1  0.66585030  0.66804811  0.99696421  1
  Ni  Ni25  1  0.83620261  0.83423085  0.16418370  1
  Cr  Cr26  1  0.66586471  0.66627553  0.33450340  1
  Cr  Cr27  1  0.16508088  0.16448518  0.49905793  1
  Ni  Ni28  1  0.99812983  0.99814755  0.66538616  1
  Ni  Ni29  1  0.16720062  0.16669951  0.83296631  1
  Cr  Cr30  1  0.16635964  0.50009975  0.49802345  1
  Ni  Ni31  1  0.00043018  0.33190224  0.66659160  1
  Ni  Ni32  1  0.16703370  0.49840948  0.83335984  1
  Ni  Ni33  1  0.16452632  0.83281420  0.49717098  1
  Ni  Ni34  1  0.99756447  0.66767226  0.66642598  1
  Ni  Ni35  1  0.16472591  0.83261361  0.83379343  1
  Ni  Ni36  1  0.50041931  0.16808059  0.49809678  1
  Cr  Cr37  1  0.33220194  0.00035399  0.66666282  1
  Ni  Ni38  1  0.49686637  0.16746884  0.83423501  1
  Ni  Ni39  1  0.50001473  0.49802747  0.49934113  1
  Ni  Ni40  1  0.33354187  0.33294196  0.66762400  1
  Ni  Ni41  1  0.49823350  0.49884268  0.83283024  1
  Ni  Ni42  1  0.49874830  0.83161475  0.49840013  1
  Cr  Cr43  1  0.33347618  0.66458782  0.66643423  1
  Ni  Ni44  1  0.49977321  0.83141174  0.83496913  1
  Ni  Ni45  1  0.83206707  0.16576451  0.49886999  1
  Cr  Cr46  1  0.66679037  0.99780244  0.66463366  1
  Cr  Cr47  1  0.83394484  0.16534431  0.83291258  1
  Cr  Cr48  1  0.83181156  0.49839269  0.50029194  1
  Fe  Fe49  1  0.66398346  0.33342389  0.66485574  1
  Cr  Cr50  1  0.83251149  0.50088016  0.83228533  1
  Ni  Ni51  1  0.83444666  0.83322078  0.50044036  1
  Ni  Ni52  1  0.66639704  0.66628488  0.66581759  1
  Ni  Ni53  1  0.83322159  0.83124690  0.83309500  1
" 