3384,Ni75Fe15Cr9_19,-237.121604326697, 188.267464878361,Ni75Fe15Cr9,"# generated using pymatgen
 data_Cr3(FeNi5)4
_symmetry_space_group_name_H-M   'P 1'
_cell_length_a   7.44163777
_cell_length_b   7.44163777
_cell_length_c   10.52406506
_cell_angle_alpha   90.00000000
_cell_angle_beta   90.00000000
_cell_angle_gamma   90.00000000
_symmetry_Int_Tables_number   1
_chemical_formula_structural   Cr3(FeNi5)4
_chemical_formula_sum   'Cr6 Fe8 Ni40'
_cell_volume   582.80138741
_cell_formula_units_Z   2
loop_
 _symmetry_equiv_pos_site_id
 _symmetry_equiv_pos_as_xyz
  1  'x, y, z'
loop_
 _atom_site_type_symbol
 _atom_site_label
 _atom_site_symmetry_multiplicity
 _atom_site_fract_x
 _atom_site_fract_y
 _atom_site_fract_z
 _atom_site_occupancy
  Ni  Ni0  1  0.00223970  0.99991920  1.00158166  1
  Ni  Ni1  1  0.16883874  0.16738208  0.16859928  1
  Ni  Ni2  1  0.00443824  0.99888402  0.33228562  1
  Cr  Cr3  1  0.00420788  0.33630462  0.00371294  1
  Ni  Ni4  1  0.16874998  0.50346027  0.16983149  1
  Ni  Ni5  1  0.00259550  0.33755016  0.33244188  1
  Ni  Ni6  1  0.99997261  0.66886076  1.00093453  1
  Ni  Ni7  1  0.16899239  0.83420194  0.16777186  1
  Ni  Ni8  1  0.99991107  0.66811536  0.33599650  1
  Ni  Ni9  1  0.33430586  0.00420559  0.00199698  1
  Ni  Ni10  1  0.50188108  0.16816895  0.16870225  1
  Ni  Ni11  1  0.33455585  0.00247135  0.33374660  1
  Ni  Ni12  1  0.33661692  0.33502229  1.00137778  1
  Ni  Ni13  1  0.50127658  0.50254730  0.16678235  1
  Ni  Ni14  1  0.33604585  0.33482568  0.33491725  1
  Fe  Fe15  1  0.33225192  0.66798524  0.00211394  1
  Ni  Ni16  1  0.50002721  0.83422675  0.16805576  1
  Fe  Fe17  1  0.33328543  0.66646121  0.33476032  1
  Ni  Ni18  1  0.66834513  1.00013320  0.00368531  1
  Ni  Ni19  1  0.83498869  0.16797849  0.16963947  1
  Fe  Fe20  1  0.66904214  0.00212438  0.33281396  1
  Fe  Fe21  1  0.66853410  0.33362612  0.00211279  1
  Ni  Ni22  1  0.83442975  0.50169538  0.16901043  1
  Ni  Ni23  1  0.66631816  0.33924374  0.33322553  1
  Ni  Ni24  1  0.66941084  0.66670713  1.00170576  1
  Fe  Fe25  1  0.83522007  0.83342919  0.16784346  1
  Ni  Ni26  1  0.66912808  0.66674666  0.33505398  1
  Cr  Cr27  1  0.16835168  0.16880211  0.50191851  1
  Ni  Ni28  1  0.00388555  1.00120324  0.67099387  1
  Fe  Fe29  1  0.16852091  0.16894628  0.83552699  1
  Ni  Ni30  1  0.16761454  0.50348465  0.50128920  1
  Ni  Ni31  1  0.00183005  0.33704824  0.66983954  1
  Ni  Ni32  1  0.16873217  0.50389800  0.83414533  1
  Ni  Ni33  1  0.16683764  0.83376250  0.50235149  1
  Fe  Fe34  1  1.00143360  0.66888535  0.66858095  1
  Ni  Ni35  1  0.16681344  0.83452288  0.83489126  1
  Ni  Ni36  1  0.50143208  0.17117149  0.50085215  1
  Ni  Ni37  1  0.33238743  0.00195615  0.66964203  1
  Ni  Ni38  1  0.50251809  0.16983393  0.83555808  1
  Ni  Ni39  1  0.50193462  0.50047418  0.50226683  1
  Fe  Fe40  1  0.33634809  0.33618573  0.66918670  1
  Ni  Ni41  1  0.50148982  0.49990694  0.83613776  1
  Cr  Cr42  1  0.49973518  0.83453684  0.49990737  1
  Ni  Ni43  1  0.33445453  0.66685443  0.66797256  1
  Cr  Cr44  1  0.49995448  0.83347542  0.83704411  1
  Cr  Cr45  1  0.83521324  0.17120105  0.49837047  1
  Cr  Cr46  1  0.66910770  1.00081796  0.66719235  1
  Ni  Ni47  1  0.83480022  0.16846130  0.83573602  1
  Ni  Ni48  1  0.83536530  0.50247699  0.50241900  1
  Ni  Ni49  1  0.66832836  0.33832025  0.66997322  1
  Ni  Ni50  1  0.83513765  0.50156765  0.83424060  1
  Ni  Ni51  1  0.83805170  0.83299409  0.50081893  1
  Ni  Ni52  1  0.66913530  0.66455132  0.66838831  1
  Ni  Ni53  1  0.83716971  0.83457681  0.83624952  1
" 