8806,Ni75Fe3Cr20_2,-231.157973436342, 158.184854482589,Ni75Fe3Cr20,"# generated using pymatgen
 data_Cr12FeNi41
_symmetry_space_group_name_H-M   'P 1'
_cell_length_a   7.47255612
_cell_length_b   7.47255612
_cell_length_c   10.56779021
_cell_angle_alpha   90.00000000
_cell_angle_beta   90.00000000
_cell_angle_gamma   90.00000000
_symmetry_Int_Tables_number   1
_chemical_formula_structural   Cr12FeNi41
_chemical_formula_sum   'Cr12 Fe1 Ni41'
_cell_volume   590.09584044
_cell_formula_units_Z   1
loop_
 _symmetry_equiv_pos_site_id
 _symmetry_equiv_pos_as_xyz
  1  'x, y, z'
loop_
 _atom_site_type_symbol
 _atom_site_label
 _atom_site_symmetry_multiplicity
 _atom_site_fract_x
 _atom_site_fract_y
 _atom_site_fract_z
 _atom_site_occupancy
  Ni  Ni0  1  0.99936271  0.99937904  0.99670273  1
  Cr  Cr1  1  0.16713377  0.16750341  0.16469645  1
  Cr  Cr2  1  0.99883760  0.99864502  0.33574104  1
  Ni  Ni3  1  0.99749591  0.33290627  0.00022911  1
  Ni  Ni4  1  0.16519722  0.50008168  0.16756734  1
  Fe  Fe5  1  0.99859164  0.33331870  0.33185734  1
  Ni  Ni6  1  0.99809141  0.66665169  -0.00002588  1
  Ni  Ni7  1  0.16825938  0.83138935  0.16625801  1
  Ni  Ni8  1  0.00082239  0.66653617  0.33156074  1
  Ni  Ni9  1  0.33262351  0.00158308  -0.00031170  1
  Ni  Ni10  1  0.50101633  0.16593317  0.16623836  1
  Ni  Ni11  1  0.33399854  0.00016795  0.33314302  1
  Ni  Ni12  1  0.33527633  0.33134876  0.99957875  1
  Ni  Ni13  1  0.50063498  0.49892707  0.16737255  1
  Ni  Ni14  1  0.33615511  0.33337217  0.33294184  1
  Cr  Cr15  1  0.33255867  0.66517581  0.00164707  1
  Ni  Ni16  1  0.49895195  0.83402547  0.16752945  1
  Ni  Ni17  1  0.33241616  0.66543344  0.33163757  1
  Ni  Ni18  1  0.66686834  0.00224611  0.00052109  1
  Ni  Ni19  1  0.83015333  0.16920916  0.16554636  1
  Ni  Ni20  1  0.66521480  0.00240658  0.33276756  1
  Ni  Ni21  1  0.66606230  0.33277869  0.99918662  1
  Ni  Ni22  1  0.83306506  0.49818090  0.16604418  1
  Ni  Ni23  1  0.66417726  0.33204417  0.33257304  1
  Ni  Ni24  1  0.66840216  0.66392832  0.99928560  1
  Cr  Cr25  1  0.83067505  0.83263672  0.16507778  1
  Ni  Ni26  1  0.66578647  0.66456803  0.33242351  1
  Ni  Ni27  1  0.16640650  0.16451833  0.50054363  1
  Ni  Ni28  1  0.00127261  0.00112213  0.66633802  1
  Ni  Ni29  1  0.16508220  0.16375874  0.83328420  1
  Cr  Cr30  1  0.16764712  0.49887173  0.49742811  1
  Ni  Ni31  1  0.99690088  0.32821037  0.66639983  1
  Cr  Cr32  1  0.16486390  0.49750606  0.83397272  1
  Ni  Ni33  1  0.16689851  0.83494079  0.50002869  1
  Cr  Cr34  1  0.99866392  0.67020318  0.66755450  1
  Ni  Ni35  1  0.16489359  0.83685216  0.83267159  1
  Ni  Ni36  1  0.49937246  0.16743492  0.49766707  1
  Ni  Ni37  1  0.32895037  0.00015780  0.66599933  1
  Ni  Ni38  1  0.49951579  0.16753324  0.83506352  1
  Ni  Ni39  1  0.50062161  0.49896478  0.49959453  1
  Cr  Cr40  1  0.33610894  0.33139272  0.66689527  1
  Ni  Ni41  1  0.50363434  0.49820999  0.83197987  1
  Cr  Cr42  1  0.49940578  0.83178150  0.49844763  1
  Ni  Ni43  1  0.33431585  0.66752975  0.66565214  1
  Cr  Cr44  1  0.49998240  0.83335409  0.83314025  1
  Ni  Ni45  1  0.83300569  0.16656730  0.49963569  1
  Cr  Cr46  1  0.66924996  0.00242889  0.66537678  1
  Ni  Ni47  1  0.83420133  0.16746379  0.83365239  1
  Cr  Cr48  1  0.83068737  0.49886787  0.49905952  1
  Ni  Ni49  1  0.66679511  0.33375450  0.66721180  1
  Ni  Ni50  1  0.83049005  0.49841016  0.83392810  1
  Ni  Ni51  1  0.83334052  0.83372751  0.49916358  1
  Ni  Ni52  1  0.66581675  0.66320331  0.66720195  1
  Ni  Ni53  1  0.83414461  0.83295397  0.83441631  1
" 