8932,Ni75Fe15Cr9_4,-237.251815330852, 188.636555189427,Ni75Fe15Cr9,"# generated using pymatgen
 data_Cr3(FeNi5)4
_symmetry_space_group_name_H-M   'P 1'
_cell_length_a   7.44093754
_cell_length_b   7.44093754
_cell_length_c   10.52307479
_cell_angle_alpha   90.00000000
_cell_angle_beta   90.00000000
_cell_angle_gamma   90.00000000
_symmetry_Int_Tables_number   1
_chemical_formula_structural   Cr3(FeNi5)4
_chemical_formula_sum   'Cr6 Fe8 Ni40'
_cell_volume   582.63688544
_cell_formula_units_Z   2
loop_
 _symmetry_equiv_pos_site_id
 _symmetry_equiv_pos_as_xyz
  1  'x, y, z'
loop_
 _atom_site_type_symbol
 _atom_site_label
 _atom_site_symmetry_multiplicity
 _atom_site_fract_x
 _atom_site_fract_y
 _atom_site_fract_z
 _atom_site_occupancy
  Ni  Ni0  1  0.00228035  1.00060368  1.00034373  1
  Ni  Ni1  1  0.17044896  0.16881685  0.16884748  1
  Ni  Ni2  1  0.00264877  1.00088598  0.33673084  1
  Ni  Ni3  1  0.00193909  0.33566032  1.00048923  1
  Ni  Ni4  1  0.16767617  0.50123343  0.16765234  1
  Ni  Ni5  1  1.00121537  0.33493745  0.33503793  1
  Ni  Ni6  1  0.00228674  0.66900093  0.00218401  1
  Fe  Fe7  1  0.16758295  0.83537650  0.16820166  1
  Ni  Ni8  1  0.99908721  0.66944222  0.33384143  1
  Fe  Fe9  1  0.33443259  0.00287621  0.00193444  1
  Ni  Ni10  1  0.49955249  0.16815319  0.16874498  1
  Ni  Ni11  1  0.33501707  0.00366234  0.33467051  1
  Ni  Ni12  1  0.33606685  0.33542304  0.00176435  1
  Ni  Ni13  1  0.50187936  0.50144323  0.16739969  1
  Ni  Ni14  1  0.33651857  0.33223142  0.33425974  1
  Ni  Ni15  1  0.33469870  0.66822314  1.00105264  1
  Fe  Fe16  1  0.50206497  0.83538635  0.16816701  1
  Cr  Cr17  1  0.33551443  0.66896404  0.33533739  1
  Fe  Fe18  1  0.66792021  0.00183255  1.00022596  1
  Cr  Cr19  1  0.83532693  0.16880535  0.16853955  1
  Ni  Ni20  1  0.66759645  1.00153397  0.33627521  1
  Ni  Ni21  1  0.66725813  0.33540776  1.00105269  1
  Ni  Ni22  1  0.83570949  0.50402303  0.16884663  1
  Ni  Ni23  1  0.66752895  0.33578597  0.33602043  1
  Fe  Fe24  1  0.66918605  0.66726853  1.00151929  1
  Fe  Fe25  1  0.83561685  0.83337122  0.16886550  1
  Ni  Ni26  1  0.67030878  0.66794249  0.33522856  1
  Ni  Ni27  1  0.16760476  0.16763714  0.50074370  1
  Ni  Ni28  1  1.00018100  0.00313571  0.66819201  1
  Ni  Ni29  1  0.16747882  0.17046664  0.83566634  1
  Cr  Cr30  1  0.16853783  0.49996082  0.50173626  1
  Ni  Ni31  1  0.00229904  0.33253006  0.66974155  1
  Ni  Ni32  1  0.16877444  0.50043038  0.83588999  1
  Ni  Ni33  1  0.16780240  0.83739705  0.50120849  1
  Cr  Cr34  1  1.00116061  0.66962232  0.66877391  1
  Fe  Fe35  1  0.16773543  0.83523118  0.83627655  1
  Ni  Ni36  1  0.50166011  0.16764508  0.49946965  1
  Cr  Cr37  1  0.33479939  1.00157770  0.66786211  1
  Ni  Ni38  1  0.50149027  0.16721561  0.83704133  1
  Ni  Ni39  1  0.50303044  0.50255993  0.50244024  1
  Ni  Ni40  1  0.33471788  0.33602701  0.66924377  1
  Fe  Fe41  1  0.50096388  0.50204409  0.83567145  1
  Ni  Ni42  1  0.50379738  0.83506121  0.50177021  1
  Ni  Ni43  1  0.33761520  0.66784996  0.66931447  1
  Ni  Ni44  1  0.50329829  0.83456387  0.83547977  1
  Ni  Ni45  1  0.83599898  0.16686709  0.50160601  1
  Ni  Ni46  1  0.67000005  1.00023194  0.66864199  1
  Ni  Ni47  1  0.83628888  0.16716526  0.83545496  1
  Ni  Ni48  1  0.83365660  0.50236286  0.49946687  1
  Cr  Cr49  1  0.66858461  0.33478321  0.66794703  1
  Ni  Ni50  1  0.83649150  0.50223468  0.83694342  1
  Ni  Ni51  1  0.83366208  0.83603117  0.50079249  1
  Ni  Ni52  1  0.66650462  0.66996017  0.66841251  1
  Ni  Ni53  1  0.83324532  0.83585902  0.83572204  1
" 