7635,Ni75Fe25_18,-234.515977276108, 197.024209857222,Ni75Fe25,"# generated using pymatgen
 data_Fe20Ni7
_symmetry_space_group_name_H-M   'P 1'
_cell_length_a   7.39690677
_cell_length_b   7.39690677
_cell_length_c   10.46080587
_cell_angle_alpha   90.00000000
_cell_angle_beta   90.00000000
_cell_angle_gamma   90.00000000
_symmetry_Int_Tables_number   1
_chemical_formula_structural   Fe20Ni7
_chemical_formula_sum   'Fe40 Ni14'
_cell_volume   572.35493505
_cell_formula_units_Z   2
loop_
 _symmetry_equiv_pos_site_id
 _symmetry_equiv_pos_as_xyz
  1  'x, y, z'
loop_
 _atom_site_type_symbol
 _atom_site_label
 _atom_site_symmetry_multiplicity
 _atom_site_fract_x
 _atom_site_fract_y
 _atom_site_fract_z
 _atom_site_occupancy
  Fe  Fe0  1  0.00573929  1.00426739  0.00478722  1
  Fe  Fe1  1  0.17166490  0.17034374  0.17071190  1
  Fe  Fe2  1  0.00497881  0.00479456  0.33798544  1
  Fe  Fe3  1  0.00539695  0.33797639  1.00450802  1
  Fe  Fe4  1  0.17044735  0.50608861  0.17190945  1
  Fe  Fe5  1  0.00499834  0.33649548  0.33931104  1
  Ni  Ni6  1  0.00498321  0.67156803  1.00421507  1
  Ni  Ni7  1  0.17129879  0.83847532  0.17186076  1
  Fe  Fe8  1  0.00532375  0.67288392  0.33716414  1
  Fe  Fe9  1  0.33622273  1.00393571  0.00536561  1
  Fe  Fe10  1  0.50437091  0.16952102  0.17119319  1
  Ni  Ni11  1  0.33865629  0.00528707  0.33900385  1
  Ni  Ni12  1  0.33772697  0.33786840  0.00486077  1
  Fe  Fe13  1  0.50435874  0.50580410  0.17079601  1
  Fe  Fe14  1  0.33872606  0.33764136  0.33731780  1
  Fe  Fe15  1  0.33704484  0.67127406  1.00421522  1
  Fe  Fe16  1  0.50471185  0.83890756  0.17294502  1
  Fe  Fe17  1  0.33845802  0.67287407  0.33878350  1
  Fe  Fe18  1  0.67185379  1.00451518  0.00511502  1
  Fe  Fe19  1  0.83823788  0.17020414  0.17277032  1
  Ni  Ni20  1  0.67095102  1.00450716  0.33852286  1
  Fe  Fe21  1  0.67140214  0.33913456  1.00462509  1
  Fe  Fe22  1  0.83934849  0.50666737  0.17111901  1
  Fe  Fe23  1  0.67078571  0.33699409  0.33833176  1
  Fe  Fe24  1  0.67105537  0.67082834  0.00490112  1
  Ni  Ni25  1  0.83837400  0.83898286  0.17126327  1
  Fe  Fe26  1  0.67053568  0.67255942  0.33781487  1
  Fe  Fe27  1  0.17301210  0.17195411  0.50538750  1
  Fe  Fe28  1  1.00396650  0.00499953  0.67161098  1
  Ni  Ni29  1  0.17019423  0.17065528  0.83822282  1
  Ni  Ni30  1  0.17236841  0.50470490  0.50519729  1
  Fe  Fe31  1  1.00422088  0.33670080  0.67043951  1
  Fe  Fe32  1  0.17238574  0.50463720  0.83755332  1
  Fe  Fe33  1  0.17205673  0.83758129  0.50447957  1
  Fe  Fe34  1  1.00472588  0.67235683  0.67222344  1
  Ni  Ni35  1  0.17101917  0.83895556  0.83787061  1
  Fe  Fe36  1  0.50526439  0.17121810  0.50453677  1
  Fe  Fe37  1  0.33798463  1.00425500  0.67087024  1
  Fe  Fe38  1  0.50286578  0.17100253  0.83868960  1
  Ni  Ni39  1  0.50440382  0.50488570  0.50395219  1
  Fe  Fe40  1  0.33912540  0.33811096  0.67271613  1
  Ni  Ni41  1  0.50586821  0.50477777  0.83816110  1
  Ni  Ni42  1  0.50512683  0.83759544  0.50467405  1
  Fe  Fe43  1  0.33933792  0.67187151  0.67111677  1
  Fe  Fe44  1  0.50354390  0.83879163  0.83671905  1
  Ni  Ni45  1  0.83828718  0.16997048  0.50430455  1
  Ni  Ni46  1  0.67092248  1.00462416  0.67104923  1
  Fe  Fe47  1  0.83762395  0.17114014  0.83662398  1
  Fe  Fe48  1  0.83799656  0.50485593  0.50453383  1
  Fe  Fe49  1  0.67114834  0.33795064  0.67088813  1
  Fe  Fe50  1  0.83968694  0.50500293  0.83836492  1
  Fe  Fe51  1  0.83687806  0.83747971  0.50408988  1
  Fe  Fe52  1  0.67034180  0.67144282  0.67128441  1
  Fe  Fe53  1  0.83801860  0.83810545  0.83906910  1
" 