1725,Ni75Fe3Cr20_3,-230.894997912086, 153.694823309345,Ni75Fe3Cr20,"# generated using pymatgen
 data_Cr12FeNi41
_symmetry_space_group_name_H-M   'P 1'
_cell_length_a   7.47799126
_cell_length_b   7.47799126
_cell_length_c   10.57547666
_cell_angle_alpha   90.00000000
_cell_angle_beta   90.00000000
_cell_angle_gamma   90.00000000
_symmetry_Int_Tables_number   1
_chemical_formula_structural   Cr12FeNi41
_chemical_formula_sum   'Cr12 Fe1 Ni41'
_cell_volume   591.38439099
_cell_formula_units_Z   1
loop_
 _symmetry_equiv_pos_site_id
 _symmetry_equiv_pos_as_xyz
  1  'x, y, z'
loop_
 _atom_site_type_symbol
 _atom_site_label
 _atom_site_symmetry_multiplicity
 _atom_site_fract_x
 _atom_site_fract_y
 _atom_site_fract_z
 _atom_site_occupancy
  Ni  Ni0  1  0.00013534  0.00124069  0.99875967  1
  Ni  Ni1  1  0.16712662  0.16854464  0.16465522  1
  Ni  Ni2  1  0.99762378  -0.00053525  0.33413036  1
  Ni  Ni3  1  0.00278735  0.33239071  0.99758870  1
  Ni  Ni4  1  0.16814794  0.49767718  0.16590154  1
  Ni  Ni5  1  0.99926093  0.33239186  0.33214319  1
  Ni  Ni6  1  0.00002980  0.66417360  0.99854173  1
  Cr  Cr7  1  0.16634350  0.83158686  0.16534800  1
  Ni  Ni8  1  0.00100396  0.66594823  0.33434995  1
  Ni  Ni9  1  0.33332435  0.00123576  -0.00023010  1
  Ni  Ni10  1  0.49735443  0.16578158  0.16609738  1
  Cr  Cr11  1  0.33381273  0.99907352  0.33281151  1
  Ni  Ni12  1  0.33072633  0.33244706  -0.00021289  1
  Ni  Ni13  1  0.49531245  0.49941983  0.16609762  1
  Ni  Ni14  1  0.33405906  0.33418940  0.33010526  1
  Ni  Ni15  1  0.33348727  0.66412277  0.00074442  1
  Ni  Ni16  1  0.49909148  0.83260386  0.16392616  1
  Ni  Ni17  1  0.33231321  0.66415028  0.33231084  1
  Ni  Ni18  1  0.66434338  0.99847933  -0.00005393  1
  Cr  Cr19  1  0.83324039  0.16485397  0.16734644  1
  Ni  Ni20  1  0.66628517  0.00120537  0.33373918  1
  Cr  Cr21  1  0.66459427  0.33285215  0.99735932  1
  Cr  Cr22  1  0.83425899  0.49933197  0.16610577  1
  Ni  Ni23  1  0.66448512  0.33081070  0.33476919  1
  Ni  Ni24  1  0.66428705  0.66677389  0.99920462  1
  Cr  Cr25  1  0.83158332  0.83362042  0.16432715  1
  Cr  Cr26  1  0.66439774  0.66587986  0.33389101  1
  Cr  Cr27  1  0.16510854  0.16556637  0.49968097  1
  Ni  Ni28  1  0.99816064  -0.00016071  0.66491495  1
  Ni  Ni29  1  0.16548042  0.16824798  0.83341949  1
  Cr  Cr30  1  0.16610372  0.50081571  0.49841635  1
  Ni  Ni31  1  0.99789792  0.33215938  0.66807364  1
  Ni  Ni32  1  0.16558484  0.49706581  0.83331929  1
  Ni  Ni33  1  0.16468499  0.83147015  0.49983261  1
  Ni  Ni34  1  0.99891675  0.66580538  0.66491267  1
  Cr  Cr35  1  0.16590041  0.83243766  0.83220762  1
  Ni  Ni36  1  0.50252852  0.16629604  0.49966783  1
  Fe  Fe37  1  0.33339635  0.00007040  0.66541188  1
  Ni  Ni38  1  0.49858191  0.16722790  0.83203874  1
  Ni  Ni39  1  0.50038171  0.49901505  0.49976781  1
  Ni  Ni40  1  0.33447705  0.33307713  0.66791241  1
  Ni  Ni41  1  0.49847647  0.49808420  0.83193898  1
  Ni  Ni42  1  0.49976748  0.83249402  0.50049285  1
  Ni  Ni43  1  0.33345675  0.66488727  0.66474724  1
  Cr  Cr44  1  0.49965157  0.83243995  0.83342906  1
  Ni  Ni45  1  0.83059482  0.16517380  0.49878133  1
  Ni  Ni46  1  0.66634845  0.00085737  0.66412125  1
  Ni  Ni47  1  0.83374253  0.16712198  0.83190473  1
  Ni  Ni48  1  0.83161726  0.49901389  0.50003855  1
  Ni  Ni49  1  0.66543111  0.33232081  0.66551176  1
  Ni  Ni50  1  0.83374416  0.49808451  0.83189341  1
  Ni  Ni51  1  0.83335199  0.83361651  0.49960403  1
  Ni  Ni52  1  0.66543171  0.66462638  0.66464511  1
  Cr  Cr53  1  0.83225287  0.83242173  0.83404503  1
" 