6936,Ni75Fe3Cr20_5,-230.824100291879, 150.290923805551,Ni75Fe3Cr20,"# generated using pymatgen
 data_Cr12FeNi41
_symmetry_space_group_name_H-M   'P 1'
_cell_length_a   7.47399270
_cell_length_b   7.47399270
_cell_length_c   10.56982184
_cell_angle_alpha   90.00000000
_cell_angle_beta   90.00000000
_cell_angle_gamma   90.00000000
_symmetry_Int_Tables_number   1
_chemical_formula_structural   Cr12FeNi41
_chemical_formula_sum   'Cr12 Fe1 Ni41'
_cell_volume   590.43624023
_cell_formula_units_Z   1
loop_
 _symmetry_equiv_pos_site_id
 _symmetry_equiv_pos_as_xyz
  1  'x, y, z'
loop_
 _atom_site_type_symbol
 _atom_site_label
 _atom_site_symmetry_multiplicity
 _atom_site_fract_x
 _atom_site_fract_y
 _atom_site_fract_z
 _atom_site_occupancy
  Ni  Ni0  1  0.00181648  0.00281791  -0.00008776  1
  Ni  Ni1  1  0.16572123  0.16632652  0.16646424  1
  Ni  Ni2  1  0.00215724  0.00028474  0.33352385  1
  Ni  Ni3  1  0.00085758  0.33041615  0.99852016  1
  Ni  Ni4  1  0.16825600  0.49785902  0.16694151  1
  Ni  Ni5  1  0.00004559  0.33122782  0.33277963  1
  Cr  Cr6  1  0.00446524  0.66500095  0.99872461  1
  Ni  Ni7  1  0.16826680  0.83450069  0.16725563  1
  Ni  Ni8  1  0.00088722  0.66707452  0.33373662  1
  Ni  Ni9  1  0.33186882  0.99893402  0.99865861  1
  Cr  Cr10  1  0.49763532  0.16732169  0.16523507  1
  Ni  Ni11  1  0.33054418  0.99885457  0.33394506  1
  Ni  Ni12  1  0.33194518  0.33353122  0.99902628  1
  Ni  Ni13  1  0.49822526  0.50030305  0.16646893  1
  Ni  Ni14  1  0.33278950  0.33269287  0.33259557  1
  Ni  Ni15  1  0.33440755  0.66614532  -0.00029810  1
  Ni  Ni16  1  0.49734762  0.83129065  0.16492925  1
  Ni  Ni17  1  0.33339264  0.66707739  0.33148123  1
  Ni  Ni18  1  0.66492030  0.00073702  0.99850537  1
  Fe  Fe19  1  0.83454425  0.16703653  0.16548443  1
  Cr  Cr20  1  0.66544802  -0.00012659  0.33479809  1
  Ni  Ni21  1  0.66581661  0.33272928  0.99764276  1
  Cr  Cr22  1  0.83151462  0.49820433  0.16723603  1
  Ni  Ni23  1  0.66579428  0.33443370  0.33517111  1
  Ni  Ni24  1  0.66225365  0.66520327  0.99861693  1
  Cr  Cr25  1  0.83225549  0.83380736  0.16564024  1
  Ni  Ni26  1  0.66433608  0.66507100  0.33476495  1
  Ni  Ni27  1  0.16570367  0.16391987  0.49891991  1
  Ni  Ni28  1  0.00183720  0.00200202  0.66518320  1
  Ni  Ni29  1  0.16582576  0.16534285  0.83329006  1
  Cr  Cr30  1  0.16676297  0.49867768  0.49795889  1
  Ni  Ni31  1  0.99894894  0.33005113  0.66748618  1
  Ni  Ni32  1  0.16735175  0.49800140  0.83400340  1
  Ni  Ni33  1  0.16707497  0.83539026  0.49882007  1
  Cr  Cr34  1  0.00143082  0.66557142  0.66672447  1
  Ni  Ni35  1  0.16955106  0.83522750  0.83270706  1
  Ni  Ni36  1  0.49710809  0.16626141  0.49803242  1
  Ni  Ni37  1  0.33118788  0.99816190  0.66591713  1
  Ni  Ni38  1  0.49814569  0.16530167  0.83497818  1
  Ni  Ni39  1  0.50014353  0.50020647  0.49630917  1
  Cr  Cr40  1  0.33285970  0.33194144  0.66726134  1
  Ni  Ni41  1  0.49854293  0.49997403  0.83585131  1
  Ni  Ni42  1  0.49667859  0.83218218  0.49867044  1
  Ni  Ni43  1  0.33338680  0.66854593  0.66757663  1
  Ni  Ni44  1  0.49617143  0.83336658  0.83487905  1
  Ni  Ni45  1  0.83578584  0.16722006  0.49793295  1
  Cr  Cr46  1  0.66463604  0.00126954  0.66464684  1
  Ni  Ni47  1  0.83459461  0.16773443  0.83541020  1
  Ni  Ni48  1  0.83259366  0.49860406  0.49729561  1
  Cr  Cr49  1  0.66720218  0.33247613  0.66554704  1
  Ni  Ni50  1  0.83277960  0.49613408  0.83415323  1
  Ni  Ni51  1  0.83474468  0.83282974  0.49779755  1
  Cr  Cr52  1  0.66374472  0.66503264  0.66513589  1
  Cr  Cr53  1  0.83260480  0.83472924  0.83466220  1
" 