1074,Ni75Fe25_17,-234.473879377644, 193.247694002499,Ni75Fe25,"# generated using pymatgen
 data_Fe20Ni7
_symmetry_space_group_name_H-M   'P 1'
_cell_length_a   7.39812273
_cell_length_b   7.39812273
_cell_length_c   10.46252550
_cell_angle_alpha   90.00000000
_cell_angle_beta   90.00000000
_cell_angle_gamma   90.00000000
_symmetry_Int_Tables_number   1
_chemical_formula_structural   Fe20Ni7
_chemical_formula_sum   'Fe40 Ni14'
_cell_volume   572.63724655
_cell_formula_units_Z   2
loop_
 _symmetry_equiv_pos_site_id
 _symmetry_equiv_pos_as_xyz
  1  'x, y, z'
loop_
 _atom_site_type_symbol
 _atom_site_label
 _atom_site_symmetry_multiplicity
 _atom_site_fract_x
 _atom_site_fract_y
 _atom_site_fract_z
 _atom_site_occupancy
  Fe  Fe0  1  0.00504868  0.00745409  0.00588793  1
  Fe  Fe1  1  0.17138848  0.16992873  0.17083623  1
  Ni  Ni2  1  1.00442939  1.00454118  0.33742727  1
  Ni  Ni3  1  0.00491354  0.33914674  0.00519975  1
  Fe  Fe4  1  0.17158224  0.50477624  0.17084179  1
  Fe  Fe5  1  1.00435906  0.33723050  0.33755940  1
  Fe  Fe6  1  0.00548485  0.67209388  0.00468843  1
  Ni  Ni7  1  0.17265890  0.83810243  0.17068637  1
  Fe  Fe8  1  0.00494531  0.67211151  0.33800707  1
  Ni  Ni9  1  0.33967055  0.00520799  0.00468390  1
  Fe  Fe10  1  0.50449856  0.16969659  0.17124397  1
  Fe  Fe11  1  0.33710628  1.00436698  0.33734133  1
  Ni  Ni12  1  0.33709237  0.33789462  1.00463700  1
  Fe  Fe13  1  0.50411334  0.50441172  0.17138244  1
  Fe  Fe14  1  0.33735889  0.33662600  0.33786899  1
  Fe  Fe15  1  0.33812262  0.67175487  0.00508959  1
  Ni  Ni16  1  0.50348792  0.83711998  0.17177485  1
  Fe  Fe17  1  0.33705278  0.67240301  0.33746905  1
  Ni  Ni18  1  0.67188650  1.00365584  0.00494865  1
  Ni  Ni19  1  0.83820002  0.17340680  0.17136828  1
  Fe  Fe20  1  0.67134927  0.00512216  0.33658651  1
  Fe  Fe21  1  0.67148144  0.33540865  1.00462339  1
  Fe  Fe22  1  0.83824387  0.50614963  0.17114294  1
  Fe  Fe23  1  0.67226443  0.33703210  0.33880581  1
  Fe  Fe24  1  0.67015926  0.67080527  0.00477634  1
  Fe  Fe25  1  0.83808487  0.83989389  0.17148037  1
  Fe  Fe26  1  0.67198191  0.67205661  0.33816974  1
  Ni  Ni27  1  0.17185791  0.17043485  0.50374523  1
  Fe  Fe28  1  0.00564532  0.00575897  0.67031553  1
  Ni  Ni29  1  0.17146163  0.16996595  0.83940292  1
  Fe  Fe30  1  0.17149372  0.50272496  0.50464838  1
  Fe  Fe31  1  1.00462098  0.33795308  0.67210553  1
  Fe  Fe32  1  0.16986373  0.50266763  0.83851167  1
  Fe  Fe33  1  0.17083321  0.83854964  0.50346515  1
  Fe  Fe34  1  1.00376969  0.67041247  0.67129269  1
  Fe  Fe35  1  0.16986109  0.83859766  0.83900721  1
  Ni  Ni36  1  0.50372288  0.16981602  0.50445384  1
  Fe  Fe37  1  0.33741400  0.00521566  0.67194606  1
  Fe  Fe38  1  0.50537844  0.17187557  0.83802262  1
  Fe  Fe39  1  0.50423190  0.50268474  0.50443028  1
  Fe  Fe40  1  0.33734936  0.33645222  0.67163766  1
  Fe  Fe41  1  0.50440285  0.50267641  0.83811418  1
  Fe  Fe42  1  0.50492664  0.83838562  0.50396387  1
  Fe  Fe43  1  0.33801014  0.67174562  0.67146086  1
  Fe  Fe44  1  0.50561366  0.83908398  0.83927968  1
  Fe  Fe45  1  0.83819845  0.17179835  0.50414315  1
  Fe  Fe46  1  0.67096181  0.00526571  0.67211473  1
  Ni  Ni47  1  0.83907567  0.17272509  0.83706039  1
  Ni  Ni48  1  0.83819473  0.50547581  0.50412761  1
  Fe  Fe49  1  0.67200315  0.33841529  0.67037402  1
  Ni  Ni50  1  0.83692858  0.50480965  0.83955906  1
  Fe  Fe51  1  0.83812948  0.83966666  0.50454591  1
  Fe  Fe52  1  0.67199485  0.67048314  0.67134984  1
  Fe  Fe53  1  0.83863729  0.83950774  0.83794100  1
" 