2552,Ni75Fe15Cr9_9,-237.520991304554, 191.875988641272,Ni75Fe15Cr9,"# generated using pymatgen
 data_Cr3(FeNi5)4
_symmetry_space_group_name_H-M   'P 1'
_cell_length_a   7.44133696
_cell_length_b   7.44133696
_cell_length_c   10.52363965
_cell_angle_alpha   90.00000000
_cell_angle_beta   90.00000000
_cell_angle_gamma   90.00000000
_symmetry_Int_Tables_number   1
_chemical_formula_structural   Cr3(FeNi5)4
_chemical_formula_sum   'Cr6 Fe8 Ni40'
_cell_volume   582.73071494
_cell_formula_units_Z   2
loop_
 _symmetry_equiv_pos_site_id
 _symmetry_equiv_pos_as_xyz
  1  'x, y, z'
loop_
 _atom_site_type_symbol
 _atom_site_label
 _atom_site_symmetry_multiplicity
 _atom_site_fract_x
 _atom_site_fract_y
 _atom_site_fract_z
 _atom_site_occupancy
  Ni  Ni0  1  1.00147579  0.00283508  1.00074473  1
  Ni  Ni1  1  0.16834534  0.16989819  0.16995221  1
  Fe  Fe2  1  0.00347212  0.00238026  0.33607297  1
  Ni  Ni3  1  1.00023163  0.33543962  0.00198924  1
  Ni  Ni4  1  0.16869999  0.50162323  0.16837132  1
  Ni  Ni5  1  0.00274028  0.33373764  0.33380123  1
  Ni  Ni6  1  0.00279649  0.66691165  1.00104273  1
  Ni  Ni7  1  0.16953351  0.83366523  0.16970997  1
  Ni  Ni8  1  0.00271577  0.66878025  0.33409703  1
  Cr  Cr9  1  0.33487673  1.00070151  0.00177265  1
  Ni  Ni10  1  0.50159752  0.16864247  0.16832904  1
  Ni  Ni11  1  0.33407540  1.00029180  0.33453195  1
  Fe  Fe12  1  0.33517379  0.33686765  0.00214519  1
  Ni  Ni13  1  0.50059738  0.50223031  0.16861387  1
  Ni  Ni14  1  0.33347896  0.33429651  0.33354281  1
  Ni  Ni15  1  0.33498362  0.66788407  0.00219031  1
  Ni  Ni16  1  0.50102857  0.83431293  0.16923079  1
  Ni  Ni17  1  0.33586432  0.67059950  0.33457060  1
  Ni  Ni18  1  0.66847868  0.00334158  1.00125295  1
  Ni  Ni19  1  0.83524168  0.16947420  0.16773639  1
  Fe  Fe20  1  0.66783098  0.99991341  0.33515889  1
  Ni  Ni21  1  0.66945227  0.33519757  0.00191937  1
  Ni  Ni22  1  0.83588233  0.50104954  0.16746018  1
  Cr  Cr23  1  0.66946345  0.33559534  0.33333683  1
  Ni  Ni24  1  0.66740251  0.66664580  1.00082261  1
  Cr  Cr25  1  0.83491936  0.83454746  0.16830513  1
  Ni  Ni26  1  0.66660052  0.66938179  0.33581314  1
  Ni  Ni27  1  0.16738147  0.16699924  0.50165759  1
  Ni  Ni28  1  0.00260854  0.00183771  0.66762954  1
  Ni  Ni29  1  0.16816156  0.16905259  0.83356956  1
  Cr  Cr30  1  0.16932401  0.50127174  0.50150992  1
  Ni  Ni31  1  1.00064418  0.33379630  0.66939712  1
  Ni  Ni32  1  0.16851353  0.50220626  0.83535287  1
  Ni  Ni33  1  0.16850799  0.83633239  0.50140789  1
  Ni  Ni34  1  0.00216449  0.66954543  0.67004060  1
  Ni  Ni35  1  0.16677036  0.83392526  0.83406580  1
  Cr  Cr36  1  0.50073332  0.16759057  0.50227322  1
  Ni  Ni37  1  0.33436295  1.00058211  0.66876127  1
  Ni  Ni38  1  0.50276495  0.16965578  0.83444394  1
  Fe  Fe39  1  0.50113598  0.50416914  0.50186830  1
  Fe  Fe40  1  0.33445358  0.33383114  0.66994592  1
  Ni  Ni41  1  0.50171125  0.50090293  0.83435395  1
  Ni  Ni42  1  0.50215833  0.83428116  0.50158616  1
  Fe  Fe43  1  0.33500204  0.66974410  0.66926921  1
  Fe  Fe44  1  0.50257747  0.83470453  0.83463741  1
  Ni  Ni45  1  0.83683418  0.16585203  0.50262095  1
  Ni  Ni46  1  0.66821152  0.00210211  0.66872222  1
  Ni  Ni47  1  0.83425255  0.16790932  0.83481775  1
  Cr  Cr48  1  0.83518893  0.50270350  0.50236354  1
  Ni  Ni49  1  0.66891226  0.33480681  0.66976575  1
  Ni  Ni50  1  0.83495613  0.50229375  0.83530309  1
  Ni  Ni51  1  0.83452112  0.83629275  0.50162845  1
  Fe  Fe52  1  0.66892065  0.66966894  0.66903554  1
  Ni  Ni53  1  0.83555572  0.83498582  0.83474633  1
" 