5557,Ni75Fe3Cr20_10,-231.028408318753, 155.297128485555,Ni75Fe3Cr20,"# generated using pymatgen
 data_Cr12FeNi41
_symmetry_space_group_name_H-M   'P 1'
_cell_length_a   7.47306355
_cell_length_b   7.47306355
_cell_length_c   10.56850783
_cell_angle_alpha   90.00000000
_cell_angle_beta   90.00000000
_cell_angle_gamma   90.00000000
_symmetry_Int_Tables_number   1
_chemical_formula_structural   Cr12FeNi41
_chemical_formula_sum   'Cr12 Fe1 Ni41'
_cell_volume   590.21606225
_cell_formula_units_Z   1
loop_
 _symmetry_equiv_pos_site_id
 _symmetry_equiv_pos_as_xyz
  1  'x, y, z'
loop_
 _atom_site_type_symbol
 _atom_site_label
 _atom_site_symmetry_multiplicity
 _atom_site_fract_x
 _atom_site_fract_y
 _atom_site_fract_z
 _atom_site_occupancy
  Ni  Ni0  1  0.99914832  0.99808773  0.00250647  1
  Ni  Ni1  1  0.16634215  0.16206829  0.16612533  1
  Ni  Ni2  1  0.00159077  0.99782885  0.33187233  1
  Cr  Cr3  1  0.00092278  0.33057835  0.00059728  1
  Cr  Cr4  1  0.17000110  0.49944024  0.16780646  1
  Cr  Cr5  1  0.99787937  0.32941134  0.33342792  1
  Cr  Cr6  1  0.99958575  0.67024360  0.99813533  1
  Ni  Ni7  1  0.16588245  0.83713919  0.16889999  1
  Ni  Ni8  1  0.99881355  0.67078149  0.33356648  1
  Ni  Ni9  1  0.33315215  -0.00033936  -0.00014195  1
  Cr  Cr10  1  0.49823577  0.16689920  0.16481706  1
  Ni  Ni11  1  0.32991396  0.99836497  0.33353974  1
  Ni  Ni12  1  0.33609371  0.33198816  0.99866805  1
  Ni  Ni13  1  0.50049426  0.50061595  0.16738660  1
  Ni  Ni14  1  0.33553316  0.33247139  0.33311418  1
  Cr  Cr15  1  0.33523250  0.66691273  0.99803795  1
  Ni  Ni16  1  0.49961119  0.83113303  0.16594554  1
  Ni  Ni17  1  0.33512619  0.66796280  0.33226449  1
  Ni  Ni18  1  0.66644805  0.99793479  0.99919047  1
  Ni  Ni19  1  0.83429060  0.16299698  0.16507153  1
  Cr  Cr20  1  0.66724952  0.99927121  0.33425312  1
  Ni  Ni21  1  0.66241985  0.33245327  0.00009796  1
  Cr  Cr22  1  0.82827010  0.50116914  0.16771125  1
  Ni  Ni23  1  0.66436155  0.33524406  0.33463275  1
  Ni  Ni24  1  0.66407657  0.66836063  0.00012549  1
  Ni  Ni25  1  0.83326125  0.83475084  0.16553270  1
  Ni  Ni26  1  0.66488687  0.66520305  0.33311883  1
  Ni  Ni27  1  0.16727650  0.16409598  0.49985743  1
  Ni  Ni28  1  0.99927685  0.99788857  0.66444449  1
  Cr  Cr29  1  0.16918157  0.16554232  0.83262515  1
  Cr  Cr30  1  0.16695548  0.50032931  0.50078854  1
  Ni  Ni31  1  -0.00037396  0.33308430  0.66455284  1
  Ni  Ni32  1  0.16932083  0.50064038  0.83016343  1
  Fe  Fe33  1  0.16639862  0.83481722  0.49959071  1
  Ni  Ni34  1  -0.00034345  0.66783871  0.66688535  1
  Ni  Ni35  1  0.16633533  0.83276326  0.83067427  1
  Ni  Ni36  1  0.49812919  0.16679854  0.50102339  1
  Ni  Ni37  1  0.33402961  0.99872648  0.66543934  1
  Ni  Ni38  1  0.49891330  0.16605938  0.83295906  1
  Ni  Ni39  1  0.50138197  0.49979477  0.49869397  1
  Ni  Ni40  1  0.33460670  0.33321049  0.66698977  1
  Ni  Ni41  1  0.49828715  0.49894758  0.83265426  1
  Ni  Ni42  1  0.49955009  0.83223325  0.50037975  1
  Ni  Ni43  1  0.33378486  0.66686699  0.66784304  1
  Ni  Ni44  1  0.50045493  0.83377372  0.83249208  1
  Ni  Ni45  1  0.83336128  0.16591721  0.50137290  1
  Ni  Ni46  1  0.66549231  0.99879453  0.66608637  1
  Cr  Cr47  1  0.83000335  0.16322357  0.83249882  1
  Ni  Ni48  1  0.83053299  0.50105516  0.50032257  1
  Ni  Ni49  1  0.66456389  0.33278254  0.66404041  1
  Cr  Cr50  1  0.83169621  0.50168697  0.83069091  1
  Ni  Ni51  1  0.83324473  0.83188711  0.50053631  1
  Ni  Ni52  1  0.66539675  0.66721697  0.66558630  1
  Ni  Ni53  1  0.83198397  0.83331734  0.83276977  1
" 