1047,Ni75Fe2Cr21_8,-230.425117235412, 156.150200341505,Ni75Fe2Cr21,"# generated using pymatgen
 data_Cr13FeNi40
_symmetry_space_group_name_H-M   'P 1'
_cell_length_a   7.47343706
_cell_length_b   7.47343706
_cell_length_c   10.56903604
_cell_angle_alpha   90.00000000
_cell_angle_beta   90.00000000
_cell_angle_gamma   90.00000000
_symmetry_Int_Tables_number   1
_chemical_formula_structural   Cr13FeNi40
_chemical_formula_sum   'Cr13 Fe1 Ni40'
_cell_volume   590.30456407
_cell_formula_units_Z   1
loop_
 _symmetry_equiv_pos_site_id
 _symmetry_equiv_pos_as_xyz
  1  'x, y, z'
loop_
 _atom_site_type_symbol
 _atom_site_label
 _atom_site_symmetry_multiplicity
 _atom_site_fract_x
 _atom_site_fract_y
 _atom_site_fract_z
 _atom_site_occupancy
  Cr  Cr0  1  0.00000429  -0.00005962  0.00001364  1
  Ni  Ni1  1  0.16648647  0.16777156  0.16595543  1
  Ni  Ni2  1  0.00006096  0.99713572  0.33153983  1
  Ni  Ni3  1  0.00235306  0.33417129  0.00047425  1
  Ni  Ni4  1  0.16594720  0.49967933  0.16605162  1
  Ni  Ni5  1  0.00110072  0.33469421  0.32985871  1
  Ni  Ni6  1  0.00048173  0.66576444  0.00002861  1
  Ni  Ni7  1  0.16638912  0.83097790  0.16659115  1
  Ni  Ni8  1  -0.00007260  0.66672566  0.33258593  1
  Ni  Ni9  1  0.33290304  0.99879865  0.00060630  1
  Ni  Ni10  1  0.49839927  0.16669450  0.16582511  1
  Cr  Cr11  1  0.33077613  0.00041912  0.33099294  1
  Ni  Ni12  1  0.33079415  0.33427497  0.00034339  1
  Ni  Ni13  1  0.49844709  0.50084172  0.16723571  1
  Ni  Ni14  1  0.33376980  0.33515013  0.33237404  1
  Ni  Ni15  1  0.33265896  0.66558958  -0.00015836  1
  Ni  Ni16  1  0.49944097  0.83136920  0.16374311  1
  Fe  Fe17  1  0.33189044  0.66364859  0.33174820  1
  Ni  Ni18  1  0.66585125  0.99735745  0.00007041  1
  Ni  Ni19  1  0.83396798  0.16717157  0.16735204  1
  Cr  Cr20  1  0.66706852  0.99940461  0.33161494  1
  Cr  Cr21  1  0.66642192  0.33471812  0.00225049  1
  Ni  Ni22  1  0.83416664  0.50079617  0.16707714  1
  Ni  Ni23  1  0.66388137  0.33542958  0.33177038  1
  Ni  Ni24  1  0.66548967  0.66807436  0.00073529  1
  Ni  Ni25  1  0.83295378  0.83083621  0.16645864  1
  Ni  Ni26  1  0.66688778  0.66410327  0.33089832  1
  Cr  Cr27  1  0.16631632  0.16907070  0.49856250  1
  Cr  Cr28  1  0.99921945  0.99668542  0.66700177  1
  Ni  Ni29  1  0.16585679  0.16887386  0.83409525  1
  Ni  Ni30  1  0.16759157  0.50124111  0.49982746  1
  Ni  Ni31  1  0.00187962  0.33474617  0.66833908  1
  Ni  Ni32  1  0.16780159  0.50003440  0.83262197  1
  Ni  Ni33  1  0.16412511  0.82824031  0.49835059  1
  Ni  Ni34  1  0.00279082  0.66604457  0.66619222  1
  Ni  Ni35  1  0.16761211  0.82984965  0.83353592  1
  Ni  Ni36  1  0.50004652  0.16996417  0.50053559  1
  Cr  Cr37  1  0.33226242  0.99822181  0.66683089  1
  Cr  Cr38  1  0.49911625  0.16583133  0.83282436  1
  Ni  Ni39  1  0.49714225  0.49761522  0.49872624  1
  Ni  Ni40  1  0.33283537  0.33642612  0.66608044  1
  Ni  Ni41  1  0.49599919  0.50145547  0.83265686  1
  Cr  Cr42  1  0.49913621  0.83127284  0.49937909  1
  Ni  Ni43  1  0.33053494  0.66325860  0.66619791  1
  Ni  Ni44  1  0.49902026  0.83134245  0.83498205  1
  Cr  Cr45  1  0.83196619  0.16699209  0.49987144  1
  Ni  Ni46  1  0.66700474  -0.00015530  0.66709376  1
  Ni  Ni47  1  0.83352115  0.16577639  0.83166627  1
  Cr  Cr48  1  0.83468626  0.49972484  0.49852765  1
  Ni  Ni49  1  0.66394402  0.33238649  0.66543360  1
  Cr  Cr50  1  0.83523375  0.49940936  0.83373566  1
  Ni  Ni51  1  0.83503982  0.83165555  0.49888573  1
  Cr  Cr52  1  0.66559842  0.66612968  0.66751288  1
  Ni  Ni53  1  0.83211538  0.83328469  0.83341180  1
" 