6370,Ni75Fe15Cr9_18,-237.619607771491, 189.891813206589,Ni75Fe15Cr9,"# generated using pymatgen
 data_Cr3(FeNi5)4
_symmetry_space_group_name_H-M   'P 1'
_cell_length_a   7.44426889
_cell_length_b   7.44426889
_cell_length_c   10.52778602
_cell_angle_alpha   90.00000000
_cell_angle_beta   90.00000000
_cell_angle_gamma   90.00000000
_symmetry_Int_Tables_number   1
_chemical_formula_structural   Cr3(FeNi5)4
_chemical_formula_sum   'Cr6 Fe8 Ni40'
_cell_volume   583.41978455
_cell_formula_units_Z   2
loop_
 _symmetry_equiv_pos_site_id
 _symmetry_equiv_pos_as_xyz
  1  'x, y, z'
loop_
 _atom_site_type_symbol
 _atom_site_label
 _atom_site_symmetry_multiplicity
 _atom_site_fract_x
 _atom_site_fract_y
 _atom_site_fract_z
 _atom_site_occupancy
  Fe  Fe0  1  1.00136639  1.00040964  0.00171499  1
  Ni  Ni1  1  0.16969563  0.16707017  0.16865400  1
  Fe  Fe2  1  1.00103121  1.00079543  0.33399979  1
  Cr  Cr3  1  0.00286195  0.33567104  1.00093557  1
  Ni  Ni4  1  0.16908569  0.50126594  0.17004378  1
  Ni  Ni5  1  0.00186218  0.33583876  0.33512847  1
  Ni  Ni6  1  1.00059961  0.66961142  1.00063079  1
  Ni  Ni7  1  0.16712593  0.83625304  0.16855942  1
  Ni  Ni8  1  0.00283223  0.66779238  0.33560742  1
  Ni  Ni9  1  0.33594144  0.00324334  1.00136345  1
  Ni  Ni10  1  0.50053934  0.16774016  0.16774290  1
  Ni  Ni11  1  0.33646603  1.00063285  0.33404307  1
  Ni  Ni12  1  0.33552898  0.33253965  1.00150645  1
  Ni  Ni13  1  0.50123082  0.50067615  0.16857863  1
  Ni  Ni14  1  0.33437990  0.33523347  0.33365318  1
  Cr  Cr15  1  0.33441050  0.66815787  0.00215430  1
  Ni  Ni16  1  0.50252322  0.83617032  0.16906137  1
  Ni  Ni17  1  0.33373006  0.66872485  0.33541470  1
  Ni  Ni18  1  0.66741848  1.00139860  0.00166717  1
  Fe  Fe19  1  0.83356717  0.16601697  0.16912479  1
  Ni  Ni20  1  0.66741918  0.00160436  0.33490269  1
  Ni  Ni21  1  0.66661343  0.33316804  0.99998878  1
  Cr  Cr22  1  0.83363286  0.50307251  0.16849919  1
  Ni  Ni23  1  0.66834543  0.33310357  0.33634758  1
  Ni  Ni24  1  0.66975773  0.67002049  1.00057753  1
  Ni  Ni25  1  0.83494018  0.83556544  0.16779978  1
  Ni  Ni26  1  0.66802648  0.66987950  0.33556126  1
  Cr  Cr27  1  0.16908421  0.16717286  0.50101685  1
  Fe  Fe28  1  0.00217105  1.00020805  0.66887544  1
  Ni  Ni29  1  0.16950161  0.16657423  0.83482124  1
  Ni  Ni30  1  0.16787620  0.50427191  0.50038290  1
  Cr  Cr31  1  1.00099094  0.33680658  0.66867727  1
  Ni  Ni32  1  0.16787953  0.50179952  0.83416549  1
  Ni  Ni33  1  0.16841858  0.83351738  0.50205173  1
  Ni  Ni34  1  0.00161347  0.66857043  0.66834965  1
  Fe  Fe35  1  0.16790287  0.83561204  0.83406658  1
  Ni  Ni36  1  0.50287289  0.16849367  0.50136205  1
  Ni  Ni37  1  0.33481674  1.00118590  0.66918391  1
  Ni  Ni38  1  0.50052728  0.16852243  0.83548329  1
  Ni  Ni39  1  0.50285580  0.50195095  0.50189038  1
  Ni  Ni40  1  0.33614303  0.33455669  0.66942926  1
  Ni  Ni41  1  0.50326388  0.50096309  0.83412330  1
  Ni  Ni42  1  0.50061211  0.83414397  0.50032691  1
  Fe  Fe43  1  0.33550646  0.66760070  0.66759604  1
  Ni  Ni44  1  0.50179847  0.83510130  0.83520132  1
  Ni  Ni45  1  0.83323691  0.16903706  0.49948256  1
  Cr  Cr46  1  0.66656869  0.00205610  0.66748691  1
  Ni  Ni47  1  0.83455989  0.16804074  0.83609877  1
  Ni  Ni48  1  0.83386187  0.50201251  0.50128657  1
  Ni  Ni49  1  0.66708496  0.33590652  0.66825312  1
  Ni  Ni50  1  0.83345190  0.50307016  0.83472671  1
  Fe  Fe51  1  0.83505945  0.83315746  0.50026904  1
  Ni  Ni52  1  0.66916643  0.66724398  0.66844918  1
  Fe  Fe53  1  0.83486002  0.83338513  0.83629980  1
" 