5123,Ni75Fe15Cr9_3,-237.521666532197, 192.894212414249,Ni75Fe15Cr9,"# generated using pymatgen
 data_Cr3(FeNi5)4
_symmetry_space_group_name_H-M   'P 1'
_cell_length_a   7.44114034
_cell_length_b   7.44114034
_cell_length_c   10.52336158
_cell_angle_alpha   90.00000000
_cell_angle_beta   90.00000000
_cell_angle_gamma   90.00000000
_symmetry_Int_Tables_number   1
_chemical_formula_structural   Cr3(FeNi5)4
_chemical_formula_sum   'Cr6 Fe8 Ni40'
_cell_volume   582.68452425
_cell_formula_units_Z   2
loop_
 _symmetry_equiv_pos_site_id
 _symmetry_equiv_pos_as_xyz
  1  'x, y, z'
loop_
 _atom_site_type_symbol
 _atom_site_label
 _atom_site_symmetry_multiplicity
 _atom_site_fract_x
 _atom_site_fract_y
 _atom_site_fract_z
 _atom_site_occupancy
  Ni  Ni0  1  1.00091592  0.00357392  1.00159350  1
  Ni  Ni1  1  0.16777484  0.17042558  0.16873740  1
  Cr  Cr2  1  0.00221183  0.00229290  0.33435135  1
  Ni  Ni3  1  1.00159732  0.33340468  1.00149063  1
  Ni  Ni4  1  0.17027557  0.49984275  0.16901762  1
  Ni  Ni5  1  0.00235169  0.33544560  0.33370970  1
  Cr  Cr6  1  1.00140465  0.66850384  0.00232372  1
  Fe  Fe7  1  0.17178490  0.83645797  0.16768456  1
  Cr  Cr8  1  0.00182590  0.66741292  0.33397108  1
  Ni  Ni9  1  0.33551235  0.00235757  1.00155000  1
  Ni  Ni10  1  0.50241538  0.16785520  0.16937608  1
  Ni  Ni11  1  0.33752079  0.00297934  0.33623450  1
  Ni  Ni12  1  0.33538963  0.33518304  1.00161666  1
  Ni  Ni13  1  0.49940959  0.50190941  0.16823826  1
  Ni  Ni14  1  0.33574327  0.33413347  0.33456812  1
  Ni  Ni15  1  0.33717577  0.66768422  0.00200147  1
  Ni  Ni16  1  0.50167723  0.83545566  0.16806107  1
  Ni  Ni17  1  0.33638559  0.66811330  0.33441539  1
  Ni  Ni18  1  0.66879674  0.00178765  0.00205137  1
  Ni  Ni19  1  0.83503417  0.16815972  0.16753626  1
  Ni  Ni20  1  0.66567691  0.00247273  0.33424845  1
  Ni  Ni21  1  0.66823221  0.33506554  0.00211270  1
  Fe  Fe22  1  0.83400727  0.49857164  0.16743699  1
  Fe  Fe23  1  0.66664493  0.33391167  0.33416959  1
  Ni  Ni24  1  0.66701632  0.66836736  1.00108103  1
  Ni  Ni25  1  0.83296084  0.83796378  0.16762683  1
  Cr  Cr26  1  0.66719889  0.66881121  0.33575950  1
  Fe  Fe27  1  0.17201184  0.16773777  0.50231754  1
  Ni  Ni28  1  1.00167460  0.99982600  0.66904528  1
  Ni  Ni29  1  0.16748527  0.16857887  0.83442299  1
  Cr  Cr30  1  0.16920064  0.50219696  0.50228030  1
  Fe  Fe31  1  0.00240629  0.33491195  0.67043551  1
  Ni  Ni32  1  0.16913195  0.50114909  0.83417759  1
  Ni  Ni33  1  0.17078247  0.83566537  0.50244216  1
  Ni  Ni34  1  1.00034036  0.66942593  0.66836855  1
  Ni  Ni35  1  0.16907947  0.83549359  0.83474159  1
  Ni  Ni36  1  0.50118988  0.16730162  0.50062976  1
  Ni  Ni37  1  0.33528008  0.00250038  0.66743893  1
  Ni  Ni38  1  0.50210591  0.16808071  0.83521921  1
  Ni  Ni39  1  0.50201657  0.50163883  0.50200781  1
  Ni  Ni40  1  0.33637222  0.33458825  0.66903980  1
  Ni  Ni41  1  0.50104479  0.50223638  0.83498054  1
  Ni  Ni42  1  0.49982137  0.83627970  0.50178963  1
  Ni  Ni43  1  0.33522626  0.66813460  0.66880617  1
  Ni  Ni44  1  0.50159795  0.83490686  0.83537428  1
  Cr  Cr45  1  0.83409237  0.16911484  0.50185514  1
  Ni  Ni46  1  0.66826956  1.00096588  0.66892055  1
  Ni  Ni47  1  0.83563288  0.16802405  0.83594741  1
  Ni  Ni48  1  0.83437646  0.50113379  0.50233511  1
  Fe  Fe49  1  0.66694022  0.33558541  0.66962401  1
  Ni  Ni50  1  0.83504262  0.50064333  0.83445500  1
  Fe  Fe51  1  0.83354783  0.83414267  0.50433353  1
  Fe  Fe52  1  0.66785000  0.66904725  0.66878732  1
  Ni  Ni53  1  0.83454354  0.83655117  0.83326441  1
" 