4622,Ni75Fe25_11,-234.426072730678, 194.180540194777,Ni75Fe25,"# generated using pymatgen
 data_Fe20Ni7
_symmetry_space_group_name_H-M   'P 1'
_cell_length_a   7.39783961
_cell_length_b   7.39783961
_cell_length_c   10.46212510
_cell_angle_alpha   90.00000000
_cell_angle_beta   90.00000000
_cell_angle_gamma   90.00000000
_symmetry_Int_Tables_number   1
_chemical_formula_structural   Fe20Ni7
_chemical_formula_sum   'Fe40 Ni14'
_cell_volume   572.57150524
_cell_formula_units_Z   2
loop_
 _symmetry_equiv_pos_site_id
 _symmetry_equiv_pos_as_xyz
  1  'x, y, z'
loop_
 _atom_site_type_symbol
 _atom_site_label
 _atom_site_symmetry_multiplicity
 _atom_site_fract_x
 _atom_site_fract_y
 _atom_site_fract_z
 _atom_site_occupancy
  Fe  Fe0  1  1.00455010  0.00608152  1.00444262  1
  Ni  Ni1  1  0.17004226  0.17176348  0.17165772  1
  Fe  Fe2  1  1.00420896  0.00531094  0.33756111  1
  Fe  Fe3  1  0.00475002  0.33646437  0.00493572  1
  Fe  Fe4  1  0.17117133  0.50439321  0.17152263  1
  Fe  Fe5  1  1.00414206  0.33684712  0.33738239  1
  Fe  Fe6  1  1.00453128  0.67149188  1.00391099  1
  Fe  Fe7  1  0.17158727  0.83906811  0.17119671  1
  Fe  Fe8  1  1.00422671  0.67188101  0.33863351  1
  Ni  Ni9  1  0.33759818  0.00507424  0.00516702  1
  Fe  Fe10  1  0.50490628  0.17055003  0.17119147  1
  Fe  Fe11  1  0.33829984  1.00450638  0.33683352  1
  Fe  Fe12  1  0.33792107  0.33725312  1.00405118  1
  Fe  Fe13  1  0.50490848  0.50382133  0.17164923  1
  Fe  Fe14  1  0.33837204  0.33764757  0.33889565  1
  Fe  Fe15  1  0.33895249  0.67149997  0.00525435  1
  Ni  Ni16  1  0.50488800  0.83647207  0.17182194  1
  Fe  Fe17  1  0.33909018  0.67187346  0.33792034  1
  Fe  Fe18  1  0.67134385  0.00505908  0.00477549  1
  Ni  Ni19  1  0.83951552  0.17135431  0.17124023  1
  Ni  Ni20  1  0.67112548  0.00478503  0.33658148  1
  Ni  Ni21  1  0.67167558  0.33769271  0.00475738  1
  Fe  Fe22  1  0.83795410  0.50399423  0.17110899  1
  Fe  Fe23  1  0.67151709  0.33763425  0.33738739  1
  Fe  Fe24  1  0.67054575  0.67170041  1.00422926  1
  Fe  Fe25  1  0.83793824  0.83906055  0.17129343  1
  Fe  Fe26  1  0.67071673  0.67180793  0.33854302  1
  Fe  Fe27  1  0.17236928  0.17227564  0.50482671  1
  Fe  Fe28  1  1.00398272  1.00443754  0.67202689  1
  Ni  Ni29  1  0.17047126  0.17185770  0.83750062  1
  Fe  Fe30  1  0.17180690  0.50475958  0.50505717  1
  Fe  Fe31  1  1.00423903  0.33792372  0.67170747  1
  Fe  Fe32  1  0.17010506  0.50431100  0.83745797  1
  Fe  Fe33  1  0.17155923  0.83699206  0.50473663  1
  Ni  Ni34  1  1.00408876  0.67104742  0.67126344  1
  Fe  Fe35  1  0.17017019  0.83891997  0.83810023  1
  Fe  Fe36  1  0.50483166  0.17166114  0.50491825  1
  Fe  Fe37  1  0.33806859  1.00429880  0.67211241  1
  Fe  Fe38  1  0.50512427  0.17081115  0.83792635  1
  Ni  Ni39  1  0.50459744  0.50577952  0.50459672  1
  Ni  Ni40  1  0.33731462  0.33758373  0.67194889  1
  Fe  Fe41  1  0.50544699  0.50374399  0.83723546  1
  Fe  Fe42  1  0.50538334  0.83789207  0.50411425  1
  Fe  Fe43  1  0.33887919  0.67100836  0.67085988  1
  Fe  Fe44  1  0.50536155  0.83947659  0.83849211  1
  Fe  Fe45  1  0.83682463  0.17140391  0.50433065  1
  Ni  Ni46  1  0.67132908  1.00410319  0.67227708  1
  Ni  Ni47  1  0.83929996  0.17055525  0.83738597  1
  Fe  Fe48  1  0.83771939  0.50530594  0.50496332  1
  Fe  Fe49  1  0.67131694  0.33872338  0.67178909  1
  Fe  Fe50  1  0.83848514  0.50454879  0.83795677  1
  Fe  Fe51  1  0.83709560  0.83732861  0.50575549  1
  Ni  Ni52  1  0.67305325  0.67235959  0.67115676  1
  Ni  Ni53  1  0.83718651  0.83839250  0.83814808  1
" 