8612,Ni75Fe25_19,-234.493349720955, 198.038672059501,Ni75Fe25,"# generated using pymatgen
 data_Fe20Ni7
_symmetry_space_group_name_H-M   'P 1'
_cell_length_a   7.39653899
_cell_length_b   7.39653899
_cell_length_c   10.46028576
_cell_angle_alpha   90.00000000
_cell_angle_beta   90.00000000
_cell_angle_gamma   90.00000000
_symmetry_Int_Tables_number   1
_chemical_formula_structural   Fe20Ni7
_chemical_formula_sum   'Fe40 Ni14'
_cell_volume   572.26956753
_cell_formula_units_Z   2
loop_
 _symmetry_equiv_pos_site_id
 _symmetry_equiv_pos_as_xyz
  1  'x, y, z'
loop_
 _atom_site_type_symbol
 _atom_site_label
 _atom_site_symmetry_multiplicity
 _atom_site_fract_x
 _atom_site_fract_y
 _atom_site_fract_z
 _atom_site_occupancy
  Fe  Fe0  1  1.00460401  1.00461491  0.00476697  1
  Fe  Fe1  1  0.17234060  0.17192289  0.17159290  1
  Fe  Fe2  1  0.00545480  1.00441924  0.33796560  1
  Fe  Fe3  1  0.00498196  0.33735145  0.00487870  1
  Ni  Ni4  1  0.17195087  0.50622359  0.17236064  1
  Ni  Ni5  1  1.00429443  0.33888813  0.33790659  1
  Fe  Fe6  1  0.00539571  0.67233536  0.00481660  1
  Ni  Ni7  1  0.17111162  0.83738127  0.17133907  1
  Fe  Fe8  1  0.00538876  0.67088700  0.33797359  1
  Ni  Ni9  1  0.33881751  1.00422884  0.00542841  1
  Ni  Ni10  1  0.50570485  0.17152708  0.17135326  1
  Fe  Fe11  1  0.33746177  0.00483457  0.33783715  1
  Fe  Fe12  1  0.33865023  0.33770100  0.00518869  1
  Ni  Ni13  1  0.50414998  0.50384380  0.17169615  1
  Fe  Fe14  1  0.33788715  0.33880488  0.33739316  1
  Fe  Fe15  1  0.33808218  0.67182626  0.00566765  1
  Fe  Fe16  1  0.50365342  0.83782338  0.17123174  1
  Ni  Ni17  1  0.33777601  0.67164856  0.33755583  1
  Ni  Ni18  1  0.67052050  0.00494966  1.00469988  1
  Fe  Fe19  1  0.83816961  0.17191709  0.17094875  1
  Fe  Fe20  1  0.67138268  0.00497643  0.33788887  1
  Fe  Fe21  1  0.67066974  0.33691095  1.00448920  1
  Fe  Fe22  1  0.83830852  0.50455602  0.17227777  1
  Fe  Fe23  1  0.67115989  0.33886639  0.33845567  1
  Fe  Fe24  1  0.67081923  0.67219586  0.00497780  1
  Fe  Fe25  1  0.83773942  0.83782693  0.17114409  1
  Fe  Fe26  1  0.67157291  0.67045306  0.33825668  1
  Fe  Fe27  1  0.17087525  0.17183813  0.50476565  1
  Fe  Fe28  1  1.00407648  0.00537412  0.67156100  1
  Fe  Fe29  1  0.17135352  0.17151298  0.83794252  1
  Fe  Fe30  1  0.17085991  0.50476603  0.50434920  1
  Fe  Fe31  1  1.00415005  0.33734226  0.67116121  1
  Ni  Ni32  1  0.17182826  0.50550622  0.83735896  1
  Fe  Fe33  1  0.17144970  0.83769522  0.50428469  1
  Fe  Fe34  1  1.00428603  0.67158265  0.67151099  1
  Fe  Fe35  1  0.17137437  0.83851082  0.83850327  1
  Fe  Fe36  1  0.50545734  0.17154944  0.50506969  1
  Ni  Ni37  1  0.33861740  1.00402853  0.67142978  1
  Fe  Fe38  1  0.50490459  0.17120524  0.83828982  1
  Fe  Fe39  1  0.50534078  0.50492051  0.50428390  1
  Fe  Fe40  1  0.33888278  0.33740167  0.67171925  1
  Fe  Fe41  1  0.50504503  0.50415298  0.83829484  1
  Fe  Fe42  1  0.50503938  0.83782806  0.50512847  1
  Fe  Fe43  1  0.33885898  0.67163848  0.67115499  1
  Fe  Fe44  1  0.50476442  0.83893649  0.83793993  1
  Fe  Fe45  1  0.83796847  0.17213940  0.50545416  1
  Ni  Ni46  1  0.67080112  0.00557578  0.67158098  1
  Ni  Ni47  1  0.83697912  0.17049979  0.83720433  1
  Ni  Ni48  1  0.83810502  0.50458280  0.50529899  1
  Ni  Ni49  1  0.67271981  0.33784809  0.67153038  1
  Fe  Fe50  1  0.83847425  0.50413118  0.83725136  1
  Fe  Fe51  1  0.83780811  0.83781574  0.50497674  1
  Fe  Fe52  1  0.67115701  0.67170952  0.67106741  1
  Fe  Fe53  1  0.83815598  0.83837483  0.83817760  1
" 