2769,Ni75Fe3Cr20_4,-231.08455576223, 156.967222448262,Ni75Fe3Cr20,"# generated using pymatgen
 data_Cr12FeNi41
_symmetry_space_group_name_H-M   'P 1'
_cell_length_a   7.47441927
_cell_length_b   7.47441927
_cell_length_c   10.57042511
_cell_angle_alpha   90.00000000
_cell_angle_beta   90.00000000
_cell_angle_gamma   90.00000000
_symmetry_Int_Tables_number   1
_chemical_formula_structural   Cr12FeNi41
_chemical_formula_sum   'Cr12 Fe1 Ni41'
_cell_volume   590.53734225
_cell_formula_units_Z   1
loop_
 _symmetry_equiv_pos_site_id
 _symmetry_equiv_pos_as_xyz
  1  'x, y, z'
loop_
 _atom_site_type_symbol
 _atom_site_label
 _atom_site_symmetry_multiplicity
 _atom_site_fract_x
 _atom_site_fract_y
 _atom_site_fract_z
 _atom_site_occupancy
  Ni  Ni0  1  -0.00010296  0.00003627  -0.00041262  1
  Cr  Cr1  1  0.16486030  0.16770292  0.16473147  1
  Fe  Fe2  1  0.99763215  0.00143104  0.33150249  1
  Ni  Ni3  1  0.99846413  0.33248697  0.99794181  1
  Ni  Ni4  1  0.16596160  0.49899984  0.16628580  1
  Ni  Ni5  1  0.99853931  0.33484746  0.33408478  1
  Cr  Cr6  1  0.99846421  0.66584830  0.99929713  1
  Ni  Ni7  1  0.16518103  0.83240143  0.16544481  1
  Ni  Ni8  1  0.99919704  0.66312789  0.33139236  1
  Ni  Ni9  1  0.33256795  0.99881474  0.99803964  1
  Ni  Ni10  1  0.50075583  0.16832523  0.16624402  1
  Cr  Cr11  1  0.33541215  0.00183453  0.33275632  1
  Ni  Ni12  1  0.33264582  0.33266142  0.00034319  1
  Ni  Ni13  1  0.49966352  0.49721796  0.16465206  1
  Ni  Ni14  1  0.33314012  0.33297739  0.33367353  1
  Ni  Ni15  1  0.33284998  0.66709636  0.00085575  1
  Ni  Ni16  1  0.49950868  0.83293823  0.16394680  1
  Cr  Cr17  1  0.33155475  0.66249174  0.33109519  1
  Cr  Cr18  1  0.66685133  -0.00041335  0.99936338  1
  Ni  Ni19  1  0.83223764  0.16752627  0.16718815  1
  Ni  Ni20  1  0.66731178  0.00294552  0.33149392  1
  Ni  Ni21  1  0.66753701  0.33295026  0.00084128  1
  Ni  Ni22  1  0.83275965  0.49743753  0.16594019  1
  Ni  Ni23  1  0.66673085  0.33079268  0.33289176  1
  Ni  Ni24  1  0.66588743  0.66577382  0.00061328  1
  Ni  Ni25  1  0.83378861  0.83375236  0.16750321  1
  Cr  Cr26  1  0.66734388  0.66438319  0.33001186  1
  Ni  Ni27  1  0.16498040  0.16891505  0.49878377  1
  Cr  Cr28  1  -0.00032035  0.00288361  0.66851590  1
  Ni  Ni29  1  0.16602789  0.16631971  0.83475477  1
  Ni  Ni30  1  0.16421546  0.49776705  0.49934647  1
  Ni  Ni31  1  0.99787143  0.33468847  0.66635761  1
  Ni  Ni32  1  0.16499541  0.49920458  0.83278347  1
  Cr  Cr33  1  0.16485851  0.83222981  0.49984891  1
  Ni  Ni34  1  0.99949914  0.66307306  0.66730151  1
  Ni  Ni35  1  0.16777633  0.83299357  0.83295744  1
  Ni  Ni36  1  0.50136053  0.16801772  0.49946795  1
  Ni  Ni37  1  0.33437656  0.00012560  0.66809615  1
  Ni  Ni38  1  0.49954844  0.16508982  0.83271653  1
  Ni  Ni39  1  0.50074926  0.49671372  0.49983816  1
  Cr  Cr40  1  0.33101622  0.33118331  0.66414997  1
  Cr  Cr41  1  0.50091976  0.49985704  0.83428905  1
  Cr  Cr42  1  0.50083693  0.83291876  0.50358181  1
  Ni  Ni43  1  0.33143581  0.66627494  0.66677401  1
  Ni  Ni44  1  0.49869314  0.83305792  0.83163988  1
  Ni  Ni45  1  0.83208442  0.16893413  0.49850228  1
  Ni  Ni46  1  0.66497707  0.00178906  0.66742701  1
  Ni  Ni47  1  0.83301275  0.16820583  0.83309186  1
  Ni  Ni48  1  0.83349078  0.49701971  0.50067550  1
  Ni  Ni49  1  0.66863787  0.33150667  0.66490140  1
  Ni  Ni50  1  0.83317749  0.49826738  0.83172776  1
  Cr  Cr51  1  0.83275453  0.83277195  0.49913687  1
  Ni  Ni52  1  0.66764292  0.66511765  0.66725296  1
  Ni  Ni53  1  0.83200873  0.83205707  0.83173061  1
" 