5125,Ni75Fe25_9,-234.827047814507, 194.172100817888,Ni75Fe25,"# generated using pymatgen
 data_Fe20Ni7
_symmetry_space_group_name_H-M   'P 1'
_cell_length_a   7.39824593
_cell_length_b   7.39824593
_cell_length_c   10.46269974
_cell_angle_alpha   90.00000000
_cell_angle_beta   90.00000000
_cell_angle_gamma   90.00000000
_symmetry_Int_Tables_number   1
_chemical_formula_structural   Fe20Ni7
_chemical_formula_sum   'Fe40 Ni14'
_cell_volume   572.66585633
_cell_formula_units_Z   2
loop_
 _symmetry_equiv_pos_site_id
 _symmetry_equiv_pos_as_xyz
  1  'x, y, z'
loop_
 _atom_site_type_symbol
 _atom_site_label
 _atom_site_symmetry_multiplicity
 _atom_site_fract_x
 _atom_site_fract_y
 _atom_site_fract_z
 _atom_site_occupancy
  Fe  Fe0  1  0.00568304  1.00406493  0.00483181  1
  Fe  Fe1  1  0.17057952  0.17133956  0.17073252  1
  Fe  Fe2  1  0.00503463  1.00350281  0.33771318  1
  Ni  Ni3  1  1.00401018  0.33796477  0.00550565  1
  Fe  Fe4  1  0.17100726  0.50528137  0.17113329  1
  Fe  Fe5  1  0.00537111  0.33879317  0.33832397  1
  Ni  Ni6  1  0.00484828  0.67080941  0.00485345  1
  Fe  Fe7  1  0.17098644  0.83732870  0.17106784  1
  Fe  Fe8  1  0.00521577  0.67165078  0.33757958  1
  Fe  Fe9  1  0.33661826  0.00467318  1.00375308  1
  Fe  Fe10  1  0.50513840  0.17100167  0.17162735  1
  Fe  Fe11  1  0.33831797  1.00409138  0.33937801  1
  Ni  Ni12  1  0.33746588  0.33839080  1.00431703  1
  Fe  Fe13  1  0.50455319  0.50546020  0.17097654  1
  Fe  Fe14  1  0.33815947  0.33839243  0.33764938  1
  Ni  Ni15  1  0.33789450  0.67165301  0.00485592  1
  Fe  Fe16  1  0.50491521  0.83749082  0.17196426  1
  Ni  Ni17  1  0.33849803  0.67214866  0.33820359  1
  Fe  Fe18  1  0.67164758  1.00449337  0.00507563  1
  Fe  Fe19  1  0.83822938  0.17097868  0.17116244  1
  Fe  Fe20  1  0.67059998  1.00393061  0.33805030  1
  Fe  Fe21  1  0.67113179  0.33910395  1.00464712  1
  Fe  Fe22  1  0.83838862  0.50505323  0.17082445  1
  Fe  Fe23  1  0.67041868  0.33821009  0.33823198  1
  Fe  Fe24  1  0.67174046  0.67035239  0.00498538  1
  Ni  Ni25  1  0.83830956  0.83765711  0.17059508  1
  Fe  Fe26  1  0.67100295  0.67181258  0.33780574  1
  Fe  Fe27  1  0.17219866  0.17084363  0.50505632  1
  Fe  Fe28  1  0.00611910  1.00407978  0.67140397  1
  Fe  Fe29  1  0.17113495  0.17131855  0.83815936  1
  Ni  Ni30  1  0.17076323  0.50539477  0.50528716  1
  Ni  Ni31  1  1.00337965  0.33747150  0.67077969  1
  Fe  Fe32  1  0.17122523  0.50505289  0.83809764  1
  Ni  Ni33  1  0.17172078  0.83650244  0.50421189  1
  Fe  Fe34  1  0.00627281  0.67163118  0.67163003  1
  Ni  Ni35  1  0.17111178  0.83734744  0.83884111  1
  Ni  Ni36  1  0.50541395  0.17110163  0.50486561  1
  Ni  Ni37  1  0.33902940  1.00294401  0.67047420  1
  Fe  Fe38  1  0.50377228  0.17066424  0.83751237  1
  Fe  Fe39  1  0.50318067  0.50580214  0.50447075  1
  Fe  Fe40  1  0.33765999  0.33780686  0.67138100  1
  Fe  Fe41  1  0.50352196  0.50555215  0.83850034  1
  Ni  Ni42  1  0.50403766  0.83925601  0.50474615  1
  Ni  Ni43  1  0.33861536  0.67311140  0.67089246  1
  Fe  Fe44  1  0.50350470  0.83773457  0.83708926  1
  Fe  Fe45  1  0.83830123  0.17117657  0.50489328  1
  Fe  Fe46  1  0.67033641  0.00482691  0.67082178  1
  Fe  Fe47  1  0.83903908  0.17133860  0.83789563  1
  Fe  Fe48  1  0.83816031  0.50469958  0.50498699  1
  Fe  Fe49  1  0.67052272  0.33765035  0.67107094  1
  Fe  Fe50  1  0.83919976  0.50478253  0.83814067  1
  Fe  Fe51  1  0.83780478  0.83807174  0.50381820  1
  Fe  Fe52  1  0.67075794  0.67147618  0.67115660  1
  Fe  Fe53  1  0.83854213  0.83782535  0.83906473  1
" 