6386,Ni75Fe15Cr9_2,-237.310464187038, 190.1206808212,Ni75Fe15Cr9,"# generated using pymatgen
 data_Cr3(FeNi5)4
_symmetry_space_group_name_H-M   'P 1'
_cell_length_a   7.44109698
_cell_length_b   7.44109698
_cell_length_c   10.52330027
_cell_angle_alpha   90.00000000
_cell_angle_beta   90.00000000
_cell_angle_gamma   90.00000000
_symmetry_Int_Tables_number   1
_chemical_formula_structural   Cr3(FeNi5)4
_chemical_formula_sum   'Cr6 Fe8 Ni40'
_cell_volume   582.67433951
_cell_formula_units_Z   2
loop_
 _symmetry_equiv_pos_site_id
 _symmetry_equiv_pos_as_xyz
  1  'x, y, z'
loop_
 _atom_site_type_symbol
 _atom_site_label
 _atom_site_symmetry_multiplicity
 _atom_site_fract_x
 _atom_site_fract_y
 _atom_site_fract_z
 _atom_site_occupancy
  Ni  Ni0  1  0.00243910  1.00146970  0.00260501  1
  Fe  Fe1  1  0.16828091  0.16842606  0.16744315  1
  Fe  Fe2  1  1.00008452  1.00013407  0.33419841  1
  Fe  Fe3  1  1.00121731  0.33565051  0.00225572  1
  Ni  Ni4  1  0.16811355  0.50240256  0.16775057  1
  Ni  Ni5  1  0.99909101  0.33704568  0.33362095  1
  Ni  Ni6  1  0.00200957  0.66832305  0.00194079  1
  Fe  Fe7  1  0.16836608  0.83366718  0.16809140  1
  Ni  Ni8  1  1.00077984  0.66813780  0.33549789  1
  Ni  Ni9  1  0.33496379  0.00184209  1.00166690  1
  Ni  Ni10  1  0.50290468  0.16719636  0.16711955  1
  Ni  Ni11  1  0.33597943  0.99968683  0.33359746  1
  Ni  Ni12  1  0.33622616  0.33517916  0.00186886  1
  Ni  Ni13  1  0.50147112  0.50288870  0.16853956  1
  Cr  Cr14  1  0.33808313  0.33593843  0.33431996  1
  Ni  Ni15  1  0.33513486  0.66819851  1.00164340  1
  Ni  Ni16  1  0.50164263  0.83513865  0.16775087  1
  Ni  Ni17  1  0.33510997  0.67064792  0.33566616  1
  Ni  Ni18  1  0.66779600  0.00271240  0.00227023  1
  Ni  Ni19  1  0.83446835  0.16826718  0.16875769  1
  Fe  Fe20  1  0.66743763  1.00108666  0.33447170  1
  Ni  Ni21  1  0.66765728  0.33580803  0.00195996  1
  Ni  Ni22  1  0.83567486  0.50161459  0.16776487  1
  Ni  Ni23  1  0.67017174  0.33556492  0.33540086  1
  Ni  Ni24  1  0.66801407  0.66688753  0.00337666  1
  Ni  Ni25  1  0.83410743  0.83525414  0.16826064  1
  Ni  Ni26  1  0.66937588  0.66781758  0.33416344  1
  Cr  Cr27  1  0.16842646  0.17012522  0.49897533  1
  Cr  Cr28  1  1.00095234  0.99887402  0.66771857  1
  Ni  Ni29  1  0.16894158  0.17009628  0.83854190  1
  Ni  Ni30  1  0.16841812  0.50465853  0.50237405  1
  Cr  Cr31  1  1.00070548  0.33746856  0.66988092  1
  Ni  Ni32  1  0.17008172  0.50215574  0.83546219  1
  Ni  Ni33  1  0.16937386  0.83122809  0.49998196  1
  Ni  Ni34  1  1.00161536  0.66774552  0.66769203  1
  Ni  Ni35  1  0.17024319  0.83289739  0.83684001  1
  Ni  Ni36  1  0.50462829  0.16719922  0.50223215  1
  Cr  Cr37  1  0.33612621  1.00170182  0.67064219  1
  Fe  Fe38  1  0.50292071  0.16992089  0.83627202  1
  Fe  Fe39  1  0.50339415  0.50304296  0.50171924  1
  Ni  Ni40  1  0.33788891  0.33643481  0.66870749  1
  Ni  Ni41  1  0.50141154  0.50257642  0.83491176  1
  Ni  Ni42  1  0.50262390  0.83499109  0.50093525  1
  Fe  Fe43  1  0.33606788  0.66745863  0.66866785  1
  Ni  Ni44  1  0.50146667  0.83376249  0.83663908  1
  Ni  Ni45  1  0.83110867  0.16877152  0.49995592  1
  Ni  Ni46  1  0.66696058  0.00210093  0.66751968  1
  Ni  Ni47  1  0.83345701  0.16954258  0.83622425  1
  Ni  Ni48  1  0.83539389  0.50227470  0.50086516  1
  Ni  Ni49  1  0.66686512  0.33587698  0.66801344  1
  Ni  Ni50  1  0.83398203  0.50083775  0.83673634  1
  Ni  Ni51  1  0.83309244  0.83385450  0.50088823  1
  Ni  Ni52  1  0.66906229  0.66732966  0.66772711  1
  Cr  Cr53  1  0.83235248  0.83424921  0.83603498  1
" 