5256,Ni75Fe25_6,-234.291973681012, 190.622724348946,Ni75Fe25,"# generated using pymatgen
 data_Fe20Ni7
_symmetry_space_group_name_H-M   'P 1'
_cell_length_a   7.39884350
_cell_length_b   7.39884350
_cell_length_c   10.46354483
_cell_angle_alpha   90.00000000
_cell_angle_beta   90.00000000
_cell_angle_gamma   90.00000000
_symmetry_Int_Tables_number   1
_chemical_formula_structural   Fe20Ni7
_chemical_formula_sum   'Fe40 Ni14'
_cell_volume   572.80463271
_cell_formula_units_Z   2
loop_
 _symmetry_equiv_pos_site_id
 _symmetry_equiv_pos_as_xyz
  1  'x, y, z'
loop_
 _atom_site_type_symbol
 _atom_site_label
 _atom_site_symmetry_multiplicity
 _atom_site_fract_x
 _atom_site_fract_y
 _atom_site_fract_z
 _atom_site_occupancy
  Ni  Ni0  1  1.00375566  1.00294894  0.00507079  1
  Ni  Ni1  1  0.17127070  0.17037406  0.17154382  1
  Fe  Fe2  1  1.00448476  0.00543383  0.33728011  1
  Fe  Fe3  1  1.00394610  0.33703184  0.00492222  1
  Fe  Fe4  1  0.17166834  0.50408661  0.17121083  1
  Fe  Fe5  1  1.00415039  0.33786145  0.33756638  1
  Fe  Fe6  1  1.00347327  0.67074932  1.00409525  1
  Fe  Fe7  1  0.17088553  0.83750763  0.17129390  1
  Fe  Fe8  1  1.00370225  0.67053023  0.33839361  1
  Fe  Fe9  1  0.33837462  0.00558547  0.00469265  1
  Fe  Fe10  1  0.50512062  0.17286958  0.17098605  1
  Fe  Fe11  1  0.33815023  0.00526946  0.33787703  1
  Ni  Ni12  1  0.33928210  0.33894972  0.00540009  1
  Ni  Ni13  1  0.50617019  0.50491616  0.17089503  1
  Fe  Fe14  1  0.33823704  0.33778150  0.33748197  1
  Fe  Fe15  1  0.33907669  0.67158157  1.00417767  1
  Fe  Fe16  1  0.50475368  0.83763297  0.17069609  1
  Fe  Fe17  1  0.33885202  0.67077607  0.33830932  1
  Ni  Ni18  1  0.67281694  0.00535703  0.00555888  1
  Fe  Fe19  1  0.83743160  0.17208880  0.17098456  1
  Fe  Fe20  1  0.67119210  0.00481922  0.33775371  1
  Ni  Ni21  1  0.66992265  0.33731331  0.00517848  1
  Ni  Ni22  1  0.83676674  0.50452453  0.17176442  1
  Ni  Ni23  1  0.67078914  0.33765687  0.33726413  1
  Fe  Fe24  1  0.67127801  0.67097833  0.00477176  1
  Fe  Fe25  1  0.83818899  0.83801789  0.17098708  1
  Fe  Fe26  1  0.67127390  0.67044317  0.33740474  1
  Fe  Fe27  1  0.17150437  0.17134268  0.50415839  1
  Fe  Fe28  1  0.00528743  0.00475754  0.67154701  1
  Fe  Fe29  1  0.17150760  0.17142711  0.83876941  1
  Fe  Fe30  1  0.17158423  0.50508270  0.50545717  1
  Fe  Fe31  1  0.00497878  0.33922754  0.67133978  1
  Fe  Fe32  1  0.17187587  0.50536687  0.83715671  1
  Fe  Fe33  1  0.17111211  0.83740648  0.50498061  1
  Ni  Ni34  1  0.00584072  0.67294087  0.67100193  1
  Fe  Fe35  1  0.17082267  0.83703667  0.83755190  1
  Fe  Fe36  1  0.50500413  0.17196104  0.50483559  1
  Fe  Fe37  1  0.33816726  1.00430482  0.67125780  1
  Fe  Fe38  1  0.50551352  0.17202440  0.83800770  1
  Fe  Fe39  1  0.50444913  0.50398901  0.50438593  1
  Ni  Ni40  1  0.33949765  0.33887533  0.67040474  1
  Fe  Fe41  1  0.50467303  0.50429865  0.83814347  1
  Fe  Fe42  1  0.50429899  0.83787493  0.50527291  1
  Ni  Ni43  1  0.33621104  0.67091294  0.67100174  1
  Ni  Ni44  1  0.50411017  0.83834083  0.83747292  1
  Fe  Fe45  1  0.83731917  0.17148934  0.50452924  1
  Fe  Fe46  1  0.67037199  1.00415892  0.67185388  1
  Fe  Fe47  1  0.83680788  0.17097290  0.83831688  1
  Fe  Fe48  1  0.83779222  0.50437821  0.50475965  1
  Ni  Ni49  1  0.67013360  0.33722232  0.67138334  1
  Ni  Ni50  1  0.83796148  0.50420024  0.83725075  1
  Fe  Fe51  1  0.83841520  0.83796023  0.50467531  1
  Fe  Fe52  1  0.67075932  0.67037901  0.67164864  1
  Fe  Fe53  1  0.83787788  0.83787454  0.83816776  1
" 