2853,Ni75Fe3Cr20_0,-231.192959243109, 159.320368129994,Ni75Fe3Cr20,"# generated using pymatgen
 data_Cr12FeNi41
_symmetry_space_group_name_H-M   'P 1'
_cell_length_a   7.47204168
_cell_length_b   7.47204168
_cell_length_c   10.56706268
_cell_angle_alpha   90.00000000
_cell_angle_beta   90.00000000
_cell_angle_gamma   90.00000000
_symmetry_Int_Tables_number   1
_chemical_formula_structural   Cr12FeNi41
_chemical_formula_sum   'Cr12 Fe1 Ni41'
_cell_volume   589.97397642
_cell_formula_units_Z   1
loop_
 _symmetry_equiv_pos_site_id
 _symmetry_equiv_pos_as_xyz
  1  'x, y, z'
loop_
 _atom_site_type_symbol
 _atom_site_label
 _atom_site_symmetry_multiplicity
 _atom_site_fract_x
 _atom_site_fract_y
 _atom_site_fract_z
 _atom_site_occupancy
  Cr  Cr0  1  0.00236596  0.00050950  0.99818353  1
  Ni  Ni1  1  0.16688933  0.16562063  0.16803994  1
  Ni  Ni2  1  0.00044746  0.99873175  0.33419471  1
  Ni  Ni3  1  0.99828601  0.33280695  0.99775260  1
  Cr  Cr4  1  0.16585712  0.49741109  0.16728387  1
  Ni  Ni5  1  0.00051477  0.33254739  0.33442312  1
  Cr  Cr6  1  0.00019464  0.66629275  0.99936743  1
  Ni  Ni7  1  0.16538606  0.83463912  0.16704664  1
  Ni  Ni8  1  0.99759776  0.66768279  0.33374183  1
  Ni  Ni9  1  0.33398530  0.99922585  0.99947473  1
  Ni  Ni10  1  0.49876108  0.16662562  0.16660893  1
  Ni  Ni11  1  0.33137949  0.00299147  0.33211536  1
  Cr  Cr12  1  0.33465044  0.33092106  0.99929750  1
  Ni  Ni13  1  0.50109090  0.49915009  0.16553789  1
  Ni  Ni14  1  0.33283628  0.33031280  0.33420294  1
  Ni  Ni15  1  0.33475644  0.66772514  0.99742059  1
  Cr  Cr16  1  0.50096880  0.83372921  0.16488524  1
  Cr  Cr17  1  0.33333350  0.66565148  0.33415278  1
  Ni  Ni18  1  0.66388512  0.00082415  0.99892227  1
  Cr  Cr19  1  0.83375135  0.16604521  0.16538953  1
  Ni  Ni20  1  0.66697276  0.99958694  0.33382303  1
  Ni  Ni21  1  0.66611122  0.33356815  0.99854477  1
  Fe  Fe22  1  0.83200415  0.50000628  0.16642862  1
  Cr  Cr23  1  0.66331062  0.33333380  0.33436255  1
  Ni  Ni24  1  0.66491316  0.66459630  0.00026794  1
  Ni  Ni25  1  0.83253614  0.83231909  0.16863403  1
  Ni  Ni26  1  0.66959974  0.66599333  0.33281039  1
  Ni  Ni27  1  0.16680685  0.16619139  0.49818386  1
  Ni  Ni28  1  0.00081648  0.00044998  0.66529536  1
  Ni  Ni29  1  0.16712981  0.16630915  0.83261375  1
  Ni  Ni30  1  0.16721652  0.49837942  0.49903589  1
  Cr  Cr31  1  0.99886284  0.33178056  0.66731742  1
  Ni  Ni32  1  0.16840926  0.49896399  0.83287747  1
  Ni  Ni33  1  0.16509194  0.83460906  0.49950456  1
  Cr  Cr34  1  0.00048135  0.66739176  0.66522493  1
  Ni  Ni35  1  0.17076103  0.83382970  0.83222598  1
  Ni  Ni36  1  0.49870638  0.16678409  0.49999615  1
  Ni  Ni37  1  0.33221901  0.00090318  0.66756780  1
  Ni  Ni38  1  0.50065957  0.16558518  0.83255104  1
  Ni  Ni39  1  0.49931414  0.49838676  0.50148169  1
  Ni  Ni40  1  0.33499218  0.33246045  0.66542987  1
  Ni  Ni41  1  0.50028312  0.50050139  0.83206108  1
  Cr  Cr42  1  0.50080817  0.83405710  0.50151775  1
  Ni  Ni43  1  0.33368965  0.66567732  0.66789687  1
  Ni  Ni44  1  0.49835980  0.83283174  0.83353206  1
  Ni  Ni45  1  0.83331287  0.16475809  0.50039152  1
  Ni  Ni46  1  0.66592877  0.00192193  0.66617747  1
  Ni  Ni47  1  0.83117591  0.16805354  0.83281370  1
  Ni  Ni48  1  0.83247302  0.50008739  0.49793370  1
  Ni  Ni49  1  0.66456125  0.33286008  0.66669175  1
  Ni  Ni50  1  0.83026259  0.49718268  0.83517264  1
  Ni  Ni51  1  0.83320792  0.83421383  0.49831426  1
  Ni  Ni52  1  0.66511686  0.66418678  0.66602621  1
  Cr  Cr53  1  0.82892117  0.83474958  0.83120656  1
" 