8334,Ni75Fe25_5,-234.263827069313, 195.627272786571,Ni75Fe25,"# generated using pymatgen
 data_Fe20Ni7
_symmetry_space_group_name_H-M   'P 1'
_cell_length_a   7.39530812
_cell_length_b   7.39530812
_cell_length_c   10.45854505
_cell_angle_alpha   90.00000000
_cell_angle_beta   90.00000000
_cell_angle_gamma   90.00000000
_symmetry_Int_Tables_number   1
_chemical_formula_structural   Fe20Ni7
_chemical_formula_sum   'Fe40 Ni14'
_cell_volume   571.98391814
_cell_formula_units_Z   2
loop_
 _symmetry_equiv_pos_site_id
 _symmetry_equiv_pos_as_xyz
  1  'x, y, z'
loop_
 _atom_site_type_symbol
 _atom_site_label
 _atom_site_symmetry_multiplicity
 _atom_site_fract_x
 _atom_site_fract_y
 _atom_site_fract_z
 _atom_site_occupancy
  Ni  Ni0  1  0.00577479  0.00518992  0.00496443  1
  Fe  Fe1  1  0.17197414  0.17162260  0.17206908  1
  Ni  Ni2  1  1.00453293  0.00543711  0.33806970  1
  Fe  Fe3  1  1.00445440  0.33875610  0.00561941  1
  Ni  Ni4  1  0.17006507  0.50516701  0.17190408  1
  Ni  Ni5  1  0.00676764  0.33728887  0.33808889  1
  Fe  Fe6  1  0.00492960  0.67189206  1.00467343  1
  Fe  Fe7  1  0.17205281  0.83872416  0.17080541  1
  Fe  Fe8  1  0.00525436  0.67120099  0.33804182  1
  Fe  Fe9  1  0.33881669  1.00423297  1.00449004  1
  Ni  Ni10  1  0.50577816  0.17049628  0.17266614  1
  Fe  Fe11  1  0.33819804  0.00585148  0.33781477  1
  Fe  Fe12  1  0.33842236  0.33794842  0.00562233  1
  Fe  Fe13  1  0.50429224  0.50502628  0.17196933  1
  Ni  Ni14  1  0.33740027  0.33903301  0.33837533  1
  Fe  Fe15  1  0.33760876  0.67237020  0.00508545  1
  Ni  Ni16  1  0.50534998  0.83973000  0.17151160  1
  Fe  Fe17  1  0.33761340  0.67136780  0.33803688  1
  Fe  Fe18  1  0.67120231  1.00471310  0.00579294  1
  Fe  Fe19  1  0.83836622  0.17096786  0.17207209  1
  Ni  Ni20  1  0.67212775  1.00369085  0.33810398  1
  Fe  Fe21  1  0.67167539  0.33755312  1.00395858  1
  Fe  Fe22  1  0.83756368  0.50493534  0.17125429  1
  Fe  Fe23  1  0.67168495  0.33691436  0.33889832  1
  Ni  Ni24  1  0.67037414  0.67140303  1.00457550  1
  Fe  Fe25  1  0.83755042  0.83864247  0.17151598  1
  Fe  Fe26  1  0.67168017  0.67161245  0.33826913  1
  Fe  Fe27  1  0.17164781  0.17228022  0.50416149  1
  Fe  Fe28  1  1.00409685  1.00444153  0.67183492  1
  Fe  Fe29  1  0.17166733  0.17064692  0.83832292  1
  Fe  Fe30  1  0.17206852  0.50430269  0.50367540  1
  Fe  Fe31  1  1.00367494  0.33889699  0.67097958  1
  Fe  Fe32  1  0.17205554  0.50467986  0.83881061  1
  Fe  Fe33  1  0.17173277  0.83797105  0.50551372  1
  Fe  Fe34  1  1.00416903  0.67120956  0.67183789  1
  Ni  Ni35  1  0.17040712  0.83742850  0.83851159  1
  Fe  Fe36  1  0.50499330  0.17229572  0.50479269  1
  Fe  Fe37  1  0.33925509  1.00475791  0.67224825  1
  Ni  Ni38  1  0.50599787  0.17173433  0.83736317  1
  Ni  Ni39  1  0.50524816  0.50422429  0.50421799  1
  Fe  Fe40  1  0.33981727  0.33871914  0.67097800  1
  Fe  Fe41  1  0.50509017  0.50515500  0.83715150  1
  Fe  Fe42  1  0.50540043  0.83745285  0.50431105  1
  Fe  Fe43  1  0.33900062  0.67106988  0.67142740  1
  Fe  Fe44  1  0.50475843  0.83809652  0.83871870  1
  Fe  Fe45  1  0.83791259  0.17196491  0.50438780  1
  Fe  Fe46  1  0.67119816  0.00525990  0.67111818  1
  Fe  Fe47  1  0.83852496  0.17098304  0.83809089  1
  Fe  Fe48  1  0.83740417  0.50470686  0.50543243  1
  Ni  Ni49  1  0.67071829  0.33959819  0.67128536  1
  Fe  Fe50  1  0.83739933  0.50508201  0.83786250  1
  Fe  Fe51  1  0.83741694  0.83787585  0.50462021  1
  Ni  Ni52  1  0.67070562  0.67082744  0.67159982  1
  Fe  Fe53  1  0.83804630  0.83848928  0.83841522  1
" 