7251,Ni75Fe15Cr9_0,-237.65211788576, 190.810176721562,Ni75Fe15Cr9,"# generated using pymatgen
 data_Cr3(FeNi5)4
_symmetry_space_group_name_H-M   'P 1'
_cell_length_a   7.44170074
_cell_length_b   7.44170074
_cell_length_c   10.52415411
_cell_angle_alpha   90.00000000
_cell_angle_beta   90.00000000
_cell_angle_gamma   90.00000000
_symmetry_Int_Tables_number   1
_chemical_formula_structural   Cr3(FeNi5)4
_chemical_formula_sum   'Cr6 Fe8 Ni40'
_cell_volume   582.81618268
_cell_formula_units_Z   2
loop_
 _symmetry_equiv_pos_site_id
 _symmetry_equiv_pos_as_xyz
  1  'x, y, z'
loop_
 _atom_site_type_symbol
 _atom_site_label
 _atom_site_symmetry_multiplicity
 _atom_site_fract_x
 _atom_site_fract_y
 _atom_site_fract_z
 _atom_site_occupancy
  Cr  Cr0  1  0.99925141  0.00322195  1.00081708  1
  Fe  Fe1  1  0.17117116  0.17048852  0.16671991  1
  Cr  Cr2  1  1.00038479  0.00303740  0.33565558  1
  Ni  Ni3  1  0.00232798  0.33560151  1.00137911  1
  Ni  Ni4  1  0.17054637  0.50098097  0.16703563  1
  Cr  Cr5  1  1.00135777  0.33489150  0.33415634  1
  Ni  Ni6  1  1.00135862  0.66649409  0.99969786  1
  Cr  Cr7  1  0.17135407  0.83196490  0.16613841  1
  Cr  Cr8  1  0.99993390  0.66742458  0.33586340  1
  Fe  Fe9  1  0.33807219  0.00239354  1.00030659  1
  Ni  Ni10  1  0.50249598  0.16899873  0.16855565  1
  Ni  Ni11  1  0.33637287  0.00211182  0.33456145  1
  Ni  Ni12  1  0.33573179  0.33598701  1.00031952  1
  Ni  Ni13  1  0.50113512  0.50076722  0.16928119  1
  Ni  Ni14  1  0.33569457  0.33577658  0.33563597  1
  Ni  Ni15  1  0.33740584  0.66659646  1.00006561  1
  Ni  Ni16  1  0.50267286  0.83567109  0.16940782  1
  Ni  Ni17  1  0.33774473  0.66776015  0.33673250  1
  Ni  Ni18  1  0.66703932  1.00164915  1.00080811  1
  Ni  Ni19  1  0.83047127  0.16986382  0.16801545  1
  Ni  Ni20  1  0.66731059  1.00090273  0.33527502  1
  Ni  Ni21  1  0.66741038  0.33444224  1.00095852  1
  Ni  Ni22  1  0.83343961  0.50116609  0.16587365  1
  Ni  Ni23  1  0.66745001  0.33582943  0.33441711  1
  Ni  Ni24  1  0.66650731  0.66900012  1.00133124  1
  Ni  Ni25  1  0.83166997  0.83416066  0.16798642  1
  Ni  Ni26  1  0.66556707  0.66845588  0.33560280  1
  Fe  Fe27  1  0.16908257  0.16806397  0.50418129  1
  Fe  Fe28  1  1.00074460  1.00025716  0.66913730  1
  Ni  Ni29  1  0.16946327  0.16915510  0.83414717  1
  Fe  Fe30  1  0.16926036  0.50266587  0.50379950  1
  Ni  Ni31  1  1.00137872  0.33387025  0.66890946  1
  Ni  Ni32  1  0.16781522  0.50232546  0.83474866  1
  Ni  Ni33  1  0.16987840  0.83511898  0.50322820  1
  Ni  Ni34  1  0.00205143  0.66774682  0.66900618  1
  Ni  Ni35  1  0.16932955  0.83391204  0.83468259  1
  Cr  Cr36  1  0.50349842  0.16985294  0.50216283  1
  Fe  Fe37  1  0.33523595  1.00041840  0.66918756  1
  Ni  Ni38  1  0.50220325  0.16877523  0.83474740  1
  Ni  Ni39  1  0.50228233  0.50215920  0.50138622  1
  Fe  Fe40  1  0.33577577  0.33911362  0.67022279  1
  Ni  Ni41  1  0.50217788  0.50144017  0.83484217  1
  Ni  Ni42  1  0.50047121  0.83431777  0.50050020  1
  Ni  Ni43  1  0.33623061  0.66988412  0.66820308  1
  Ni  Ni44  1  0.50106683  0.83517676  0.83503957  1
  Ni  Ni45  1  0.83462259  0.16922184  0.50347852  1
  Fe  Fe46  1  0.66944398  0.99954872  0.66940584  1
  Ni  Ni47  1  0.83417496  0.16991001  0.83382677  1
  Ni  Ni48  1  0.83293322  0.50071309  0.50326531  1
  Ni  Ni49  1  0.66944337  0.33577226  0.67002153  1
  Ni  Ni50  1  0.83536086  0.50113067  0.83567381  1
  Ni  Ni51  1  0.83436590  0.83450964  0.50307571  1
  Ni  Ni52  1  0.66690066  0.66799430  0.66825574  1
  Ni  Ni53  1  0.83489412  0.83327105  0.83423026  1
" 