1674,Ni75Fe15Cr9_14,-237.46794715358, 192.079727534345,Ni75Fe15Cr9,"# generated using pymatgen
 data_Cr3(FeNi5)4
_symmetry_space_group_name_H-M   'P 1'
_cell_length_a   7.44085789
_cell_length_b   7.44085789
_cell_length_c   10.52296215
_cell_angle_alpha   90.00000000
_cell_angle_beta   90.00000000
_cell_angle_gamma   90.00000000
_symmetry_Int_Tables_number   1
_chemical_formula_structural   Cr3(FeNi5)4
_chemical_formula_sum   'Cr6 Fe8 Ni40'
_cell_volume   582.61817542
_cell_formula_units_Z   2
loop_
 _symmetry_equiv_pos_site_id
 _symmetry_equiv_pos_as_xyz
  1  'x, y, z'
loop_
 _atom_site_type_symbol
 _atom_site_label
 _atom_site_symmetry_multiplicity
 _atom_site_fract_x
 _atom_site_fract_y
 _atom_site_fract_z
 _atom_site_occupancy
  Cr  Cr0  1  1.00075008  1.00125614  0.99997782  1
  Cr  Cr1  1  0.17005202  0.16734317  0.16827819  1
  Ni  Ni2  1  1.00114697  0.99895002  0.33635087  1
  Ni  Ni3  1  0.00210756  0.33677272  1.00136009  1
  Fe  Fe4  1  0.16911376  0.50375731  0.16813037  1
  Cr  Cr5  1  1.00107735  0.33620736  0.33567860  1
  Ni  Ni6  1  0.00211183  0.66748182  0.00303608  1
  Ni  Ni7  1  0.16832290  0.83277624  0.16958656  1
  Ni  Ni8  1  0.00197568  0.67029602  0.33507039  1
  Ni  Ni9  1  0.33678914  1.00089340  0.00179320  1
  Ni  Ni10  1  0.50338034  0.17044577  0.16905123  1
  Ni  Ni11  1  0.33594297  1.00084241  0.33595977  1
  Ni  Ni12  1  0.33480562  0.33595947  1.00154652  1
  Ni  Ni13  1  0.50227358  0.50069461  0.16769081  1
  Ni  Ni14  1  0.33654786  0.33475568  0.33538617  1
  Fe  Fe15  1  0.33539175  0.66852290  1.00174375  1
  Fe  Fe16  1  0.50231713  0.83607215  0.16862345  1
  Ni  Ni17  1  0.33383242  0.66968103  0.33392641  1
  Ni  Ni18  1  0.66740846  1.00089465  0.00257964  1
  Ni  Ni19  1  0.83141012  0.16853438  0.16747087  1
  Ni  Ni20  1  0.66819137  1.00166363  0.33461192  1
  Ni  Ni21  1  0.66836534  0.33492751  0.00365705  1
  Fe  Fe22  1  0.83383460  0.50256054  0.16766064  1
  Ni  Ni23  1  0.66757735  0.33393043  0.33403703  1
  Ni  Ni24  1  0.66822771  0.66946310  0.00206765  1
  Ni  Ni25  1  0.83514983  0.83389173  0.16906588  1
  Ni  Ni26  1  0.66947291  0.66968618  0.33465935  1
  Ni  Ni27  1  0.16901194  0.16775833  0.50270161  1
  Fe  Fe28  1  1.00174674  0.00194360  0.66819931  1
  Ni  Ni29  1  0.16814402  0.16903735  0.83459140  1
  Ni  Ni30  1  0.16800524  0.50207841  0.50237485  1
  Ni  Ni31  1  0.00271666  0.33478911  0.66811369  1
  Fe  Fe32  1  0.16905569  0.50173518  0.83443021  1
  Ni  Ni33  1  0.16854596  0.83544313  0.50129637  1
  Ni  Ni34  1  0.00245430  0.66848420  0.66716897  1
  Ni  Ni35  1  0.16970620  0.83470248  0.83439576  1
  Fe  Fe36  1  0.50169228  0.16662035  0.50137382  1
  Ni  Ni37  1  0.33476775  1.00092331  0.66753246  1
  Cr  Cr38  1  0.50156294  0.16883987  0.83513941  1
  Cr  Cr39  1  0.50234413  0.50199449  0.50284653  1
  Ni  Ni40  1  0.33259588  0.33472448  0.66834917  1
  Fe  Fe41  1  0.50072605  0.50331266  0.83523217  1
  Ni  Ni42  1  0.50153148  0.83578434  0.50126665  1
  Ni  Ni43  1  0.33394313  0.66963064  0.67005900  1
  Ni  Ni44  1  0.50123548  0.83328385  0.83602156  1
  Ni  Ni45  1  0.83493585  0.16822383  0.50278460  1
  Ni  Ni46  1  0.66881645  1.00065817  0.66809282  1
  Ni  Ni47  1  0.83616578  0.16849139  0.83501899  1
  Ni  Ni48  1  0.83528045  0.50227450  0.50171449  1
  Ni  Ni49  1  0.66996456  0.33396304  0.66758354  1
  Cr  Cr50  1  0.83408466  0.50165422  0.83498104  1
  Ni  Ni51  1  0.83520205  0.83478085  0.50196403  1
  Ni  Ni52  1  0.66887985  0.67065524  0.66855256  1
  Ni  Ni53  1  0.83434023  0.83498498  0.83424705  1
" 