3838,Ni75Fe15Cr9_12,-237.639235885573, 192.714734661517,Ni75Fe15Cr9,"# generated using pymatgen
 data_Cr3(FeNi5)4
_symmetry_space_group_name_H-M   'P 1'
_cell_length_a   7.44147622
_cell_length_b   7.44147622
_cell_length_c   10.52383660
_cell_angle_alpha   90.00000000
_cell_angle_beta   90.00000000
_cell_angle_gamma   90.00000000
_symmetry_Int_Tables_number   1
_chemical_formula_structural   Cr3(FeNi5)4
_chemical_formula_sum   'Cr6 Fe8 Ni40'
_cell_volume   582.76343338
_cell_formula_units_Z   2
loop_
 _symmetry_equiv_pos_site_id
 _symmetry_equiv_pos_as_xyz
  1  'x, y, z'
loop_
 _atom_site_type_symbol
 _atom_site_label
 _atom_site_symmetry_multiplicity
 _atom_site_fract_x
 _atom_site_fract_y
 _atom_site_fract_z
 _atom_site_occupancy
  Ni  Ni0  1  1.00096716  1.00070494  1.00028993  1
  Ni  Ni1  1  0.16889473  0.16677107  0.16712749  1
  Ni  Ni2  1  0.00217608  1.00048810  0.33613606  1
  Ni  Ni3  1  0.00357504  0.33456986  1.00038124  1
  Fe  Fe4  1  0.16755917  0.49779975  0.16667563  1
  Ni  Ni5  1  0.00319219  0.33624707  0.33634561  1
  Ni  Ni6  1  0.00274772  0.66932705  0.00301483  1
  Fe  Fe7  1  0.16676638  0.83497126  0.16721141  1
  Ni  Ni8  1  1.00053955  0.66796302  0.33400690  1
  Fe  Fe9  1  0.33484457  0.00177713  1.00093596  1
  Ni  Ni10  1  0.49906611  0.17112255  0.16712127  1
  Cr  Cr11  1  0.33492040  0.00294384  0.33538717  1
  Ni  Ni12  1  0.33526699  0.33603515  1.00148485  1
  Ni  Ni13  1  0.50345662  0.50146846  0.16724996  1
  Ni  Ni14  1  0.33465123  0.33577224  0.33513761  1
  Ni  Ni15  1  0.33503395  0.66722702  1.00144194  1
  Fe  Fe16  1  0.50295776  0.83485504  0.16641562  1
  Cr  Cr17  1  0.33467076  0.66597311  0.33556799  1
  Ni  Ni18  1  0.66831650  1.00138642  1.00070817  1
  Cr  Cr19  1  0.83639557  0.17169669  0.16856655  1
  Cr  Cr20  1  0.66966588  1.00102536  0.33681773  1
  Ni  Ni21  1  0.66650043  0.33431754  1.00154481  1
  Ni  Ni22  1  0.83426780  0.50400709  0.16796932  1
  Ni  Ni23  1  0.66721594  0.33705966  0.33563002  1
  Ni  Ni24  1  0.66737512  0.66993523  1.00164351  1
  Fe  Fe25  1  0.83525092  0.83463637  0.16739701  1
  Ni  Ni26  1  0.66978041  0.66708769  0.33522515  1
  Ni  Ni27  1  0.16660440  0.16641641  0.50185996  1
  Ni  Ni28  1  1.00024669  1.00089285  0.66823664  1
  Fe  Fe29  1  0.16792575  0.16758853  0.83508024  1
  Fe  Fe30  1  0.16641820  0.50175329  0.50299289  1
  Ni  Ni31  1  1.00022295  0.33472090  0.66834576  1
  Ni  Ni32  1  0.16872144  0.50460396  0.83632508  1
  Ni  Ni33  1  0.16692632  0.83584081  0.50265442  1
  Ni  Ni34  1  0.00365634  0.66948847  0.66795314  1
  Ni  Ni35  1  0.16853221  0.83474716  0.83531798  1
  Ni  Ni36  1  0.50137943  0.16974848  0.50130534  1
  Ni  Ni37  1  0.33586501  0.99999281  0.66886714  1
  Ni  Ni38  1  0.50286931  0.16751280  0.83679172  1
  Ni  Ni39  1  0.50471002  0.50213732  0.50169864  1
  Cr  Cr40  1  0.33537841  0.33635557  0.66850875  1
  Ni  Ni41  1  0.50052529  0.50262065  0.83610266  1
  Ni  Ni42  1  0.50129621  0.83331763  0.50429796  1
  Ni  Ni43  1  0.33438575  0.66961977  0.66869520  1
  Ni  Ni44  1  0.50038692  0.83496646  0.83518521  1
  Ni  Ni45  1  0.83698882  0.16995888  0.50193721  1
  Ni  Ni46  1  0.66892781  0.00215872  0.66802584  1
  Ni  Ni47  1  0.83485159  0.16694419  0.83519156  1
  Ni  Ni48  1  0.83452199  0.50179925  0.50095974  1
  Ni  Ni49  1  0.66862341  0.33227626  0.66773747  1
  Cr  Cr50  1  0.83448128  0.50144792  0.83574769  1
  Ni  Ni51  1  0.83729699  0.83312297  0.50168898  1
  Fe  Fe52  1  0.66881798  0.66920226  0.66825733  1
  Ni  Ni53  1  0.83616546  0.83637796  0.83558266  1
" 