2509,Ni76Fe7Cr15_8,-234.103579936518, 171.925566902361,Ni76Fe7Cr15,"# generated using pymatgen
 data_Cr9Fe4Ni41
_symmetry_space_group_name_H-M   'P 1'
_cell_length_a   7.45960263
_cell_length_b   7.45960263
_cell_length_c   10.54947121
_cell_angle_alpha   90.00000000
_cell_angle_beta   90.00000000
_cell_angle_gamma   90.00000000
_symmetry_Int_Tables_number   1
_chemical_formula_structural   Cr9Fe4Ni41
_chemical_formula_sum   'Cr9 Fe4 Ni41'
_cell_volume   587.03240813
_cell_formula_units_Z   1
loop_
 _symmetry_equiv_pos_site_id
 _symmetry_equiv_pos_as_xyz
  1  'x, y, z'
loop_
 _atom_site_type_symbol
 _atom_site_label
 _atom_site_symmetry_multiplicity
 _atom_site_fract_x
 _atom_site_fract_y
 _atom_site_fract_z
 _atom_site_occupancy
  Ni  Ni0  1  0.99993820  0.00097808  0.00066821  1
  Ni  Ni1  1  0.16432912  0.16520226  0.16893510  1
  Ni  Ni2  1  0.99925338  0.00136161  0.33277719  1
  Ni  Ni3  1  0.00066993  0.33048680  0.00151369  1
  Ni  Ni4  1  0.16438971  0.50115199  0.16714992  1
  Fe  Fe5  1  1.00034367  0.33231256  0.33444452  1
  Ni  Ni6  1  0.00218457  0.67001566  1.00044128  1
  Ni  Ni7  1  0.16719024  0.83501932  0.16607989  1
  Ni  Ni8  1  0.99900503  0.66890689  0.33362147  1
  Fe  Fe9  1  0.33169074  0.99907153  0.99983570  1
  Cr  Cr10  1  0.50192606  0.16459517  0.16804167  1
  Ni  Ni11  1  0.33322364  0.00258219  0.33293541  1
  Cr  Cr12  1  0.33172153  0.33371058  0.99900853  1
  Cr  Cr13  1  0.50208182  0.50130219  0.16683103  1
  Ni  Ni14  1  0.33225362  0.33179338  0.33540731  1
  Ni  Ni15  1  0.33330106  0.66915427  0.99984531  1
  Ni  Ni16  1  0.50028881  0.83503439  0.16665752  1
  Cr  Cr17  1  0.33352595  0.66627815  0.33436534  1
  Fe  Fe18  1  0.66918876  0.99986235  0.99944184  1
  Ni  Ni19  1  0.83526295  0.16621722  0.16671462  1
  Ni  Ni20  1  0.66933286  1.00036934  0.33388222  1
  Ni  Ni21  1  0.66834344  0.33162727  0.99804634  1
  Cr  Cr22  1  0.83453992  0.49907524  0.16651191  1
  Ni  Ni23  1  0.66742082  0.33211878  0.33647173  1
  Ni  Ni24  1  0.66605195  0.67009520  1.00002631  1
  Fe  Fe25  1  0.83478613  0.83503822  0.16722482  1
  Ni  Ni26  1  0.66903980  0.66898802  0.33546513  1
  Ni  Ni27  1  0.16737155  0.16821066  0.50011901  1
  Ni  Ni28  1  0.99873134  0.00201995  0.66829498  1
  Ni  Ni29  1  0.16605878  0.16562842  0.83262439  1
  Ni  Ni30  1  0.16432893  0.49792411  0.50048959  1
  Ni  Ni31  1  0.00161025  0.33149897  0.66627343  1
  Ni  Ni32  1  0.16623405  0.50063047  0.83422612  1
  Cr  Cr33  1  0.16590329  0.83752383  0.50269360  1
  Ni  Ni34  1  1.00036800  0.66791957  0.66756879  1
  Ni  Ni35  1  0.16655635  0.83507711  0.83424771  1
  Ni  Ni36  1  0.50061614  0.16633966  0.50041394  1
  Ni  Ni37  1  0.33454858  0.00368928  0.66864021  1
  Ni  Ni38  1  0.50143149  0.16589480  0.83278625  1
  Ni  Ni39  1  0.50207937  0.49725792  0.49917785  1
  Ni  Ni40  1  0.33363242  0.33186614  0.66708690  1
  Ni  Ni41  1  0.50065953  0.49972405  0.83522296  1
  Ni  Ni42  1  0.50270230  0.83784595  0.49882313  1
  Cr  Cr43  1  0.33412930  0.66528231  0.66813984  1
  Ni  Ni44  1  0.50002022  0.83613402  0.83576660  1
  Ni  Ni45  1  0.83340932  0.16707631  0.50079340  1
  Ni  Ni46  1  0.66832226  0.00224859  0.66750730  1
  Ni  Ni47  1  0.83396296  0.16583643  0.83408977  1
  Ni  Ni48  1  0.83480392  0.49958881  0.49965015  1
  Ni  Ni49  1  0.66626184  0.33078944  0.66681830  1
  Cr  Cr50  1  0.83523424  0.49903475  0.83451279  1
  Ni  Ni51  1  0.83372211  0.83476145  0.49911202  1
  Cr  Cr52  1  0.66804334  0.66894530  0.66473863  1
  Ni  Ni53  1  0.83492147  0.83585010  0.83478542  1
" 