8658,Ni76Fe6Cr17_19,-233.272788259499, 170.895897550822,Ni76Fe6Cr17,"# generated using pymatgen
 data_Cr10Fe3Ni41
_symmetry_space_group_name_H-M   'P 1'
_cell_length_a   7.46260011
_cell_length_b   7.46260011
_cell_length_c   10.55371029
_cell_angle_alpha   90.00000000
_cell_angle_beta   90.00000000
_cell_angle_gamma   90.00000000
_symmetry_Int_Tables_number   1
_chemical_formula_structural   Cr10Fe3Ni41
_chemical_formula_sum   'Cr10 Fe3 Ni41'
_cell_volume   587.74035201
_cell_formula_units_Z   1
loop_
 _symmetry_equiv_pos_site_id
 _symmetry_equiv_pos_as_xyz
  1  'x, y, z'
loop_
 _atom_site_type_symbol
 _atom_site_label
 _atom_site_symmetry_multiplicity
 _atom_site_fract_x
 _atom_site_fract_y
 _atom_site_fract_z
 _atom_site_occupancy
  Ni  Ni0  1  0.99788083  0.99920108  0.00089080  1
  Ni  Ni1  1  0.16583198  0.16804515  0.16857663  1
  Ni  Ni2  1  0.99940644  0.99932313  0.33257596  1
  Ni  Ni3  1  0.99990495  0.33354679  0.00291351  1
  Ni  Ni4  1  0.16565361  0.49893844  0.16533794  1
  Ni  Ni5  1  0.00096757  0.33423129  0.33272435  1
  Ni  Ni6  1  0.00299291  0.66808154  0.00187706  1
  Ni  Ni7  1  0.16461129  0.83391448  0.16734121  1
  Ni  Ni8  1  0.99882226  0.66748075  0.33333376  1
  Cr  Cr9  1  0.33392745  0.99790182  0.00185771  1
  Ni  Ni10  1  0.49986131  0.16740187  0.16762850  1
  Ni  Ni11  1  0.33327678  0.00147114  0.33188599  1
  Ni  Ni12  1  0.33444370  0.33573736  0.00180889  1
  Ni  Ni13  1  0.49996034  0.49963681  0.16578404  1
  Ni  Ni14  1  0.33324503  0.33305788  0.33245160  1
  Ni  Ni15  1  0.33131878  0.66523473  1.00011753  1
  Ni  Ni16  1  0.50146191  0.83393076  0.16842225  1
  Cr  Cr17  1  0.33116111  0.66609209  0.33023560  1
  Ni  Ni18  1  0.66859406  0.00249229  0.99955780  1
  Ni  Ni19  1  0.83521925  0.16651815  0.16533126  1
  Ni  Ni20  1  0.66840959  0.00039068  0.33256540  1
  Ni  Ni21  1  0.66634599  0.33114141  0.00106125  1
  Ni  Ni22  1  0.83526287  0.50067645  0.16790846  1
  Cr  Cr23  1  0.66741324  0.33341247  0.33408274  1
  Cr  Cr24  1  0.66601264  0.66871012  0.00192566  1
  Ni  Ni25  1  0.83463292  0.83406139  0.16801416  1
  Ni  Ni26  1  0.66922640  0.66770433  0.33320575  1
  Cr  Cr27  1  0.16748195  0.16554889  0.49933884  1
  Ni  Ni28  1  0.00045927  0.99868598  0.66735354  1
  Cr  Cr29  1  0.16528755  0.16771761  0.83320887  1
  Fe  Fe30  1  0.16668027  0.50071273  0.49986867  1
  Ni  Ni31  1  0.00148963  0.33485043  0.66553021  1
  Fe  Fe32  1  0.16765138  0.50133932  0.83480725  1
  Ni  Ni33  1  0.16403463  0.83297086  0.50111854  1
  Ni  Ni34  1  0.00202228  0.66771374  0.66581592  1
  Ni  Ni35  1  0.16578602  0.83195498  0.83215462  1
  Ni  Ni36  1  0.49905197  0.16910319  0.49955819  1
  Ni  Ni37  1  0.33261538  0.99938776  0.66736494  1
  Ni  Ni38  1  0.49942574  0.16880767  0.83405127  1
  Ni  Ni39  1  0.49942435  0.50054185  0.50115771  1
  Ni  Ni40  1  0.33348224  0.33607217  0.66660561  1
  Ni  Ni41  1  0.49798776  0.50063749  0.83369902  1
  Cr  Cr42  1  0.49994969  0.83307389  0.49935532  1
  Ni  Ni43  1  0.33180541  0.66600561  0.66869021  1
  Ni  Ni44  1  0.49913478  0.83142858  0.83216256  1
  Ni  Ni45  1  0.83642219  0.16572257  0.49992598  1
  Cr  Cr46  1  0.66832265  0.00069504  0.66934479  1
  Ni  Ni47  1  0.83506382  0.16635687  0.83575844  1
  Fe  Fe48  1  0.83515466  0.50196269  0.49962942  1
  Cr  Cr49  1  0.66716629  0.33320000  0.66606423  1
  Cr  Cr50  1  0.83457010  0.50038512  0.83478352  1
  Ni  Ni51  1  0.83642679  0.83239603  0.49965516  1
  Ni  Ni52  1  0.66728836  0.66669736  0.66624449  1
  Ni  Ni53  1  0.83606084  0.83378836  0.83342809  1
" 