5155,Ni76Fe8Cr15_3,-234.338410257076, 173.392498145717,Ni76Fe8Cr15,"# generated using pymatgen
 data_Cr9Fe4Ni41
_symmetry_space_group_name_H-M   'P 1'
_cell_length_a   7.45969559
_cell_length_b   7.45969559
_cell_length_c   10.54960268
_cell_angle_alpha   90.00000000
_cell_angle_beta   90.00000000
_cell_angle_gamma   90.00000000
_symmetry_Int_Tables_number   1
_chemical_formula_structural   Cr9Fe4Ni41
_chemical_formula_sum   'Cr9 Fe4 Ni41'
_cell_volume   587.05435590
_cell_formula_units_Z   1
loop_
 _symmetry_equiv_pos_site_id
 _symmetry_equiv_pos_as_xyz
  1  'x, y, z'
loop_
 _atom_site_type_symbol
 _atom_site_label
 _atom_site_symmetry_multiplicity
 _atom_site_fract_x
 _atom_site_fract_y
 _atom_site_fract_z
 _atom_site_occupancy
  Ni  Ni0  1  0.00072992  0.00080612  0.00068365  1
  Ni  Ni1  1  0.16428198  0.16460846  0.16599471  1
  Ni  Ni2  1  1.00040309  1.00017995  0.33346203  1
  Ni  Ni3  1  0.99972474  0.33243022  0.99967344  1
  Cr  Cr4  1  0.16526696  0.50136475  0.16652418  1
  Ni  Ni5  1  0.99757246  0.33259992  0.33473486  1
  Ni  Ni6  1  0.00150274  0.66829527  0.99979963  1
  Ni  Ni7  1  0.16600621  0.83528521  0.16692575  1
  Ni  Ni8  1  0.99927880  0.66868637  0.33440890  1
  Ni  Ni9  1  0.32976008  0.00093380  0.00079408  1
  Cr  Cr10  1  0.50162010  0.16680032  0.16540960  1
  Ni  Ni11  1  0.33163869  0.99865788  0.33554705  1
  Ni  Ni12  1  0.33327390  0.33471613  0.99908124  1
  Ni  Ni13  1  0.50227070  0.50100089  0.16668752  1
  Cr  Cr14  1  0.33308878  0.33378009  0.33533528  1
  Ni  Ni15  1  0.33152965  0.66585008  0.99988195  1
  Cr  Cr16  1  0.49932063  0.83351930  0.16802844  1
  Ni  Ni17  1  0.33396939  0.66902164  0.33509406  1
  Ni  Ni18  1  0.67104422  0.00256920  0.00057010  1
  Ni  Ni19  1  0.83538253  0.16744064  0.16689884  1
  Ni  Ni20  1  0.66941425  1.00030423  0.33538631  1
  Ni  Ni21  1  0.66849041  0.33399826  0.00082413  1
  Ni  Ni22  1  0.83334507  0.49932137  0.16825428  1
  Ni  Ni23  1  0.66982952  0.33497365  0.33381522  1
  Cr  Cr24  1  0.66899359  0.66491448  1.00040765  1
  Ni  Ni25  1  0.83585951  0.83475216  0.16780725  1
  Ni  Ni26  1  0.66824245  0.66627947  0.33482210  1
  Ni  Ni27  1  0.16592635  0.16672802  0.50187828  1
  Ni  Ni28  1  0.00257395  0.00050184  0.66739364  1
  Ni  Ni29  1  0.16497400  0.16798377  0.83361064  1
  Ni  Ni30  1  0.16558859  0.50099417  0.50200939  1
  Ni  Ni31  1  0.00258243  0.33369645  0.66711088  1
  Ni  Ni32  1  0.16642375  0.50003569  0.83347645  1
  Ni  Ni33  1  0.16864149  0.83373015  0.50075432  1
  Ni  Ni34  1  0.00060106  0.66724783  0.66735141  1
  Fe  Fe35  1  0.16549174  0.83340351  0.83381897  1
  Fe  Fe36  1  0.49968531  0.16538511  0.49956177  1
  Ni  Ni37  1  0.33002323  0.00059888  0.66509764  1
  Cr  Cr38  1  0.49894223  0.16725421  0.83589383  1
  Fe  Fe39  1  0.50044744  0.50324882  0.50045163  1
  Ni  Ni40  1  0.33097380  0.33490491  0.66691384  1
  Ni  Ni41  1  0.49865013  0.50157552  0.83376155  1
  Ni  Ni42  1  0.49959799  0.83324666  0.49953211  1
  Ni  Ni43  1  0.33302430  0.66599833  0.66646761  1
  Cr  Cr44  1  0.49892836  0.83296463  0.83414093  1
  Ni  Ni45  1  0.83595315  0.16766906  0.49863571  1
  Cr  Cr46  1  0.66979101  0.99896254  0.66576681  1
  Ni  Ni47  1  0.83768400  0.16787778  0.83594490  1
  Ni  Ni48  1  0.83534640  0.50091796  0.49959446  1
  Cr  Cr49  1  0.66791729  0.33624261  0.66657061  1
  Ni  Ni50  1  0.83641988  0.49993813  0.83363120  1
  Ni  Ni51  1  0.83326654  0.83285242  0.50036094  1
  Ni  Ni52  1  0.66787656  0.66615268  0.66629430  1
  Fe  Fe53  1  0.83743892  0.83340872  0.83373418  1
" 