2467,Ni76Fe16Cr7_11,-238.164054555145, 191.430041298267,Ni76Fe16Cr7,"# generated using pymatgen
 data_Cr5Fe8Ni41
_symmetry_space_group_name_H-M   'P 1'
_cell_length_a   7.43643348
_cell_length_b   7.43643348
_cell_length_c   10.51670508
_cell_angle_alpha   90.00000000
_cell_angle_beta   90.00000000
_cell_angle_gamma   90.00000000
_symmetry_Int_Tables_number   1
_chemical_formula_structural   Cr5Fe8Ni41
_chemical_formula_sum   'Cr5 Fe8 Ni41'
_cell_volume   581.57950048
_cell_formula_units_Z   1
loop_
 _symmetry_equiv_pos_site_id
 _symmetry_equiv_pos_as_xyz
  1  'x, y, z'
loop_
 _atom_site_type_symbol
 _atom_site_label
 _atom_site_symmetry_multiplicity
 _atom_site_fract_x
 _atom_site_fract_y
 _atom_site_fract_z
 _atom_site_occupancy
  Ni  Ni0  1  0.00321680  0.00364754  0.00283083  1
  Ni  Ni1  1  0.16666049  0.16599472  0.16945062  1
  Ni  Ni2  1  1.00158749  1.00159757  0.33493576  1
  Ni  Ni3  1  1.00009030  0.33373219  1.00037083  1
  Cr  Cr4  1  0.16911375  0.50053999  0.17267720  1
  Ni  Ni5  1  1.00085574  0.33452457  0.33651774  1
  Cr  Cr6  1  0.00284728  0.66895053  0.00263736  1
  Ni  Ni7  1  0.17090174  0.83856873  0.16884112  1
  Ni  Ni8  1  1.00137682  0.66991446  0.33709352  1
  Ni  Ni9  1  0.33451458  1.00078155  1.00039235  1
  Fe  Fe10  1  0.50206963  0.16878621  0.17015151  1
  Ni  Ni11  1  0.33585986  0.00237708  0.33568371  1
  Cr  Cr12  1  0.33700800  0.33524172  0.00265484  1
  Ni  Ni13  1  0.50459098  0.50446451  0.16939635  1
  Ni  Ni14  1  0.33692697  0.33461088  0.33627109  1
  Ni  Ni15  1  0.33659254  0.66998694  1.00045764  1
  Ni  Ni16  1  0.50055365  0.83389809  0.16914972  1
  Ni  Ni17  1  0.33591376  0.66939707  0.33647333  1
  Cr  Cr18  1  0.66857080  0.00406480  0.00375222  1
  Ni  Ni19  1  0.83762349  0.17005347  0.16885754  1
  Ni  Ni20  1  0.66893770  0.00256381  0.33637806  1
  Ni  Ni21  1  0.66950029  0.33588060  1.00068447  1
  Ni  Ni22  1  0.83249391  0.49984841  0.16907946  1
  Ni  Ni23  1  0.66837201  0.33481055  0.33574401  1
  Fe  Fe24  1  0.66736148  0.66757274  0.00264484  1
  Ni  Ni25  1  0.83469760  0.83627410  0.17191259  1
  Ni  Ni26  1  0.66900560  0.66877337  0.33499379  1
  Ni  Ni27  1  0.16716010  0.16832539  0.50158378  1
  Ni  Ni28  1  1.00150715  0.00267603  0.66863199  1
  Ni  Ni29  1  0.16763502  0.16808131  0.83471914  1
  Ni  Ni30  1  0.16933133  0.50151020  0.50146707  1
  Fe  Fe31  1  0.00240856  0.33613104  0.66804111  1
  Ni  Ni32  1  0.16874179  0.50052880  0.83322523  1
  Ni  Ni33  1  0.17058323  0.83623155  0.50228078  1
  Ni  Ni34  1  0.00299270  0.66807451  0.66733746  1
  Fe  Fe35  1  0.16964633  0.83588705  0.83399746  1
  Fe  Fe36  1  0.50127278  0.16972941  0.50230527  1
  Fe  Fe37  1  0.33502783  1.00075712  0.66829391  1
  Ni  Ni38  1  0.50191248  0.16779598  0.83300207  1
  Ni  Ni39  1  0.50239682  0.50430489  0.50186563  1
  Ni  Ni40  1  0.33576914  0.33595282  0.66838260  1
  Ni  Ni41  1  0.50283533  0.50356017  0.83506827  1
  Ni  Ni42  1  0.50228433  0.83452098  0.50229020  1
  Ni  Ni43  1  0.33509081  0.66630157  0.66923672  1
  Ni  Ni44  1  0.50017921  0.83465960  0.83471224  1
  Ni  Ni45  1  0.83630047  0.16858008  0.50240654  1
  Ni  Ni46  1  0.66885899  0.00345509  0.66722063  1
  Ni  Ni47  1  0.83676173  0.17023722  0.83467497  1
  Ni  Ni48  1  0.83445069  0.50094684  0.50180176  1
  Fe  Fe49  1  0.66882174  0.33668494  0.66879133  1
  Ni  Ni50  1  0.83456593  0.49988734  0.83483072  1
  Fe  Fe51  1  0.83589329  0.83472339  0.50215153  1
  Ni  Ni52  1  0.66819065  0.66865312  0.66892300  1
  Cr  Cr53  1  0.83329127  0.83610036  0.83387904  1
" 