8007,Ni76Fe6Cr17_3,-233.269387999678, 170.0964477389,Ni76Fe6Cr17,"# generated using pymatgen
 data_Cr10Fe3Ni41
_symmetry_space_group_name_H-M   'P 1'
_cell_length_a   7.46348265
_cell_length_b   7.46348265
_cell_length_c   10.55495839
_cell_angle_alpha   90.00000000
_cell_angle_beta   90.00000000
_cell_angle_gamma   90.00000000
_symmetry_Int_Tables_number   1
_chemical_formula_structural   Cr10Fe3Ni41
_chemical_formula_sum   'Cr10 Fe3 Ni41'
_cell_volume   587.94889878
_cell_formula_units_Z   1
loop_
 _symmetry_equiv_pos_site_id
 _symmetry_equiv_pos_as_xyz
  1  'x, y, z'
loop_
 _atom_site_type_symbol
 _atom_site_label
 _atom_site_symmetry_multiplicity
 _atom_site_fract_x
 _atom_site_fract_y
 _atom_site_fract_z
 _atom_site_occupancy
  Cr  Cr0  1  0.00186890  0.99878110  0.00072816  1
  Ni  Ni1  1  0.17008719  0.16755357  0.16676309  1
  Ni  Ni2  1  0.00059469  0.99780768  0.33369682  1
  Ni  Ni3  1  0.00218851  0.33582601  0.99907003  1
  Ni  Ni4  1  0.16895583  0.50000107  0.16469809  1
  Cr  Cr5  1  0.00053950  0.33599776  0.33362204  1
  Ni  Ni6  1  0.00083057  0.66598651  0.99989703  1
  Ni  Ni7  1  0.16871792  0.83322732  0.16716314  1
  Cr  Cr8  1  0.00202567  0.66859512  0.33334374  1
  Ni  Ni9  1  0.33449136  0.00039843  0.00082014  1
  Ni  Ni10  1  0.49743104  0.16624318  0.16722676  1
  Ni  Ni11  1  0.33482841  0.99850178  0.33223658  1
  Ni  Ni12  1  0.33279887  0.33398036  1.00011518  1
  Ni  Ni13  1  0.49940621  0.50133143  0.16824929  1
  Ni  Ni14  1  0.33648800  0.33484040  0.33251873  1
  Ni  Ni15  1  0.33317682  0.66661289  0.00173946  1
  Ni  Ni16  1  0.50060944  0.83305004  0.16646819  1
  Ni  Ni17  1  0.33549037  0.66725514  0.33400897  1
  Ni  Ni18  1  0.66512349  0.99896577  0.99961265  1
  Cr  Cr19  1  0.83281136  0.16629856  0.16951116  1
  Ni  Ni20  1  0.66472581  0.99883561  0.33466161  1
  Cr  Cr21  1  0.66436536  0.33385685  0.99966985  1
  Ni  Ni22  1  0.83268829  0.50275041  0.16522595  1
  Ni  Ni23  1  0.66363429  0.33476522  0.33491157  1
  Ni  Ni24  1  0.66683297  0.66735151  0.00142891  1
  Ni  Ni25  1  0.83155546  0.83147583  0.16647627  1
  Ni  Ni26  1  0.66519058  0.66684269  0.33315897  1
  Cr  Cr27  1  0.17067579  0.16650960  0.49822271  1
  Cr  Cr28  1  1.00010576  0.99768783  0.66624054  1
  Ni  Ni29  1  0.16908743  0.16808648  0.83484450  1
  Ni  Ni30  1  0.16937933  0.50197006  0.50214724  1
  Cr  Cr31  1  0.00067581  0.33577614  0.66800293  1
  Fe  Fe32  1  0.16918567  0.50202287  0.83431327  1
  Ni  Ni33  1  0.16839418  0.83204241  0.50069284  1
  Ni  Ni34  1  0.00057319  0.66730486  0.66715234  1
  Ni  Ni35  1  0.16675195  0.83221809  0.83288183  1
  Ni  Ni36  1  0.49982230  0.16615899  0.50007067  1
  Ni  Ni37  1  0.33491495  0.99988940  0.66742697  1
  Ni  Ni38  1  0.49793449  0.16736693  0.83337547  1
  Ni  Ni39  1  0.49964203  0.50108039  0.49945557  1
  Ni  Ni40  1  0.33459585  0.33463973  0.66797813  1
  Ni  Ni41  1  0.49839737  0.50079111  0.83314664  1
  Ni  Ni42  1  0.50078991  0.83329972  0.50098704  1
  Ni  Ni43  1  0.33319773  0.66650767  0.66518074  1
  Cr  Cr44  1  0.50029968  0.83178157  0.83333798  1
  Fe  Fe45  1  0.83089745  0.16528063  0.49855721  1
  Ni  Ni46  1  0.66549847  0.99930190  0.66674302  1
  Ni  Ni47  1  0.83345289  0.16545778  0.83351737  1
  Ni  Ni48  1  0.83175332  0.50360156  0.50074495  1
  Cr  Cr49  1  0.66429796  0.33327168  0.66623918  1
  Fe  Fe50  1  0.83303981  0.50283701  0.83440140  1
  Ni  Ni51  1  0.83148834  0.83205595  0.50045544  1
  Ni  Ni52  1  0.66699640  0.66730246  0.66609358  1
  Ni  Ni53  1  0.83359165  0.83152160  0.83366468  1
" 