5596,Ni76Fe7Cr15_14,-234.527852753017, 177.132688418375,Ni76Fe7Cr15,"# generated using pymatgen
 data_Cr9Fe4Ni41
_symmetry_space_group_name_H-M   'P 1'
_cell_length_a   7.45626724
_cell_length_b   7.45626724
_cell_length_c   10.54475425
_cell_angle_alpha   90.00000000
_cell_angle_beta   90.00000000
_cell_angle_gamma   90.00000000
_symmetry_Int_Tables_number   1
_chemical_formula_structural   Cr9Fe4Ni41
_chemical_formula_sum   'Cr9 Fe4 Ni41'
_cell_volume   586.24532589
_cell_formula_units_Z   1
loop_
 _symmetry_equiv_pos_site_id
 _symmetry_equiv_pos_as_xyz
  1  'x, y, z'
loop_
 _atom_site_type_symbol
 _atom_site_label
 _atom_site_symmetry_multiplicity
 _atom_site_fract_x
 _atom_site_fract_y
 _atom_site_fract_z
 _atom_site_occupancy
  Cr  Cr0  1  0.99950844  0.99960670  0.00200075  1
  Ni  Ni1  1  0.17000329  0.16835147  0.16611659  1
  Fe  Fe2  1  0.00087504  0.99939292  0.33342065  1
  Ni  Ni3  1  0.00304814  0.33507749  0.00127301  1
  Ni  Ni4  1  0.16921102  0.50071811  0.16638762  1
  Cr  Cr5  1  0.00188391  0.33366983  0.33486973  1
  Ni  Ni6  1  0.00294045  0.66761561  1.00068236  1
  Ni  Ni7  1  0.16696674  0.83292405  0.16752448  1
  Ni  Ni8  1  0.00295747  0.66810197  0.33402006  1
  Ni  Ni9  1  0.33674452  0.99909674  0.00139878  1
  Ni  Ni10  1  0.49933329  0.16715970  0.16731509  1
  Cr  Cr11  1  0.33442165  0.99962858  0.33460371  1
  Ni  Ni12  1  0.33329746  0.33518121  0.00236588  1
  Ni  Ni13  1  0.49876632  0.50087618  0.16814768  1
  Ni  Ni14  1  0.33440947  0.33449948  0.33278249  1
  Ni  Ni15  1  0.33369068  0.66798923  0.00137873  1
  Ni  Ni16  1  0.50232687  0.83408780  0.16685288  1
  Ni  Ni17  1  0.33255052  0.66717773  0.33314249  1
  Ni  Ni18  1  0.66539855  0.99895757  1.00062930  1
  Fe  Fe19  1  0.83297994  0.16548074  0.16753781  1
  Ni  Ni20  1  0.66749377  0.00176019  0.33264161  1
  Cr  Cr21  1  0.66599514  0.33198226  1.00044161  1
  Cr  Cr22  1  0.83368659  0.50443699  0.16757897  1
  Ni  Ni23  1  0.66653785  0.33165188  0.33451195  1
  Ni  Ni24  1  0.66533103  0.67109703  0.00100835  1
  Ni  Ni25  1  0.83284074  0.83397975  0.16771123  1
  Ni  Ni26  1  0.66646922  0.66858063  0.33293298  1
  Ni  Ni27  1  0.16904146  0.16774373  0.50281416  1
  Ni  Ni28  1  1.00070456  1.00043689  0.66663660  1
  Cr  Cr29  1  0.16985480  0.16835321  0.83358924  1
  Ni  Ni30  1  0.16610687  0.50068263  0.50142931  1
  Ni  Ni31  1  1.00044489  0.33437954  0.66598805  1
  Ni  Ni32  1  0.16807825  0.50155313  0.83443285  1
  Ni  Ni33  1  0.16749587  0.83382429  0.50185759  1
  Ni  Ni34  1  0.00285792  0.66727950  0.66742853  1
  Ni  Ni35  1  0.16828955  0.83196528  0.83285059  1
  Ni  Ni36  1  0.50033195  0.16670137  0.50167720  1
  Ni  Ni37  1  0.33519375  0.99917070  0.66650029  1
  Ni  Ni38  1  0.50072672  0.16569778  0.83319862  1
  Cr  Cr39  1  0.50165057  0.50078646  0.49998875  1
  Ni  Ni40  1  0.33388211  0.33434006  0.66709207  1
  Fe  Fe41  1  0.49820641  0.50178818  0.83353103  1
  Ni  Ni42  1  0.50084556  0.83592945  0.50138214  1
  Ni  Ni43  1  0.33265955  0.66882854  0.66759572  1
  Ni  Ni44  1  0.50116750  0.83562821  0.83396657  1
  Fe  Fe45  1  0.83286308  0.16749044  0.50259486  1
  Ni  Ni46  1  0.66622810  0.00161814  0.66881335  1
  Ni  Ni47  1  0.83228004  0.16588865  0.83220674  1
  Ni  Ni48  1  0.83472353  0.50075222  0.50170241  1
  Ni  Ni49  1  0.66769908  0.33208681  0.66672975  1
  Cr  Cr50  1  0.83607035  0.50242056  0.83288037  1
  Cr  Cr51  1  0.83299838  0.83189130  0.50077809  1
  Ni  Ni52  1  0.66631800  0.66849740  0.66832664  1
  Ni  Ni53  1  0.83264999  0.83422065  0.83376866  1
" 