7209,Ni76Fe6Cr17_14,-233.289283729961, 169.871956801443,Ni76Fe6Cr17,"# generated using pymatgen
 data_Cr10Fe3Ni41
_symmetry_space_group_name_H-M   'P 1'
_cell_length_a   7.46379097
_cell_length_b   7.46379097
_cell_length_c   10.55539442
_cell_angle_alpha   90.00000000
_cell_angle_beta   90.00000000
_cell_angle_gamma   90.00000000
_symmetry_Int_Tables_number   1
_chemical_formula_structural   Cr10Fe3Ni41
_chemical_formula_sum   'Cr10 Fe3 Ni41'
_cell_volume   588.02176648
_cell_formula_units_Z   1
loop_
 _symmetry_equiv_pos_site_id
 _symmetry_equiv_pos_as_xyz
  1  'x, y, z'
loop_
 _atom_site_type_symbol
 _atom_site_label
 _atom_site_symmetry_multiplicity
 _atom_site_fract_x
 _atom_site_fract_y
 _atom_site_fract_z
 _atom_site_occupancy
  Ni  Ni0  1  0.00091360  0.99996734  1.00005945  1
  Ni  Ni1  1  0.16793625  0.16603027  0.16575048  1
  Ni  Ni2  1  0.99968603  0.99917028  0.33425901  1
  Ni  Ni3  1  0.00088899  0.33458699  0.99979697  1
  Fe  Fe4  1  0.16589000  0.50009584  0.16607402  1
  Cr  Cr5  1  0.00224314  0.33373408  0.33412317  1
  Ni  Ni6  1  0.99793312  0.66610129  0.00075611  1
  Ni  Ni7  1  0.16650368  0.83560222  0.16666339  1
  Cr  Cr8  1  0.99959488  0.66793703  0.33371108  1
  Ni  Ni9  1  0.33375905  0.00241304  0.00072991  1
  Fe  Fe10  1  0.49953348  0.16522453  0.16548197  1
  Cr  Cr11  1  0.33250121  0.00035554  0.33163579  1
  Ni  Ni12  1  0.33215826  0.33052095  0.99971905  1
  Cr  Cr13  1  0.50117950  0.50034590  0.16847347  1
  Ni  Ni14  1  0.33316379  0.33495354  0.33398630  1
  Cr  Cr15  1  0.33296913  0.66830389  0.99959547  1
  Ni  Ni16  1  0.50133016  0.83413863  0.16727259  1
  Ni  Ni17  1  0.33452484  0.66482716  0.33410956  1
  Ni  Ni18  1  0.66598313  0.99945476  0.99982056  1
  Cr  Cr19  1  0.83395055  0.16613224  0.16639392  1
  Ni  Ni20  1  0.66825228  0.99779840  0.33173470  1
  Ni  Ni21  1  0.66760359  0.33350004  0.99901339  1
  Ni  Ni22  1  0.83254161  0.50164331  0.16524256  1
  Fe  Fe23  1  0.66539800  0.33568667  0.33390739  1
  Ni  Ni24  1  0.67004765  0.66769872  0.99987672  1
  Ni  Ni25  1  0.83282022  0.83304409  0.16682679  1
  Ni  Ni26  1  0.66684705  0.66748991  0.33365044  1
  Ni  Ni27  1  0.16713810  0.16620529  0.50056379  1
  Ni  Ni28  1  0.00112968  0.99777144  0.66633552  1
  Ni  Ni29  1  0.16780726  0.16603038  0.83434232  1
  Ni  Ni30  1  0.16989474  0.50092957  0.49984386  1
  Cr  Cr31  1  0.00092303  0.33440318  0.66747101  1
  Ni  Ni32  1  0.16734950  0.49988278  0.83435907  1
  Ni  Ni33  1  0.16484199  0.83351797  0.50154970  1
  Ni  Ni34  1  1.00005325  0.66849108  0.66625082  1
  Ni  Ni35  1  0.16627273  0.83473961  0.83244040  1
  Cr  Cr36  1  0.49961224  0.16970361  0.50036031  1
  Ni  Ni37  1  0.33213034  0.00030865  0.66834730  1
  Ni  Ni38  1  0.50023903  0.16735330  0.83437078  1
  Ni  Ni39  1  0.49981826  0.50017773  0.49994093  1
  Ni  Ni40  1  0.33441269  0.33420047  0.66694599  1
  Ni  Ni41  1  0.50118568  0.49904787  0.83181668  1
  Cr  Cr42  1  0.50055382  0.83042990  0.50104902  1
  Ni  Ni43  1  0.33301535  0.66614467  0.66656633  1
  Ni  Ni44  1  0.50094160  0.83425318  0.83306183  1
  Cr  Cr45  1  0.83409792  0.16476232  0.50014093  1
  Ni  Ni46  1  0.66739595  0.99916901  0.66910209  1
  Ni  Ni47  1  0.83260719  0.16627653  0.83434234  1
  Ni  Ni48  1  0.83093745  0.50247505  0.50045690  1
  Ni  Ni49  1  0.66504661  0.33527702  0.66754608  1
  Ni  Ni50  1  0.83211765  0.50058449  0.83495530  1
  Ni  Ni51  1  0.83507915  0.83288520  0.50007386  1
  Ni  Ni52  1  0.66758510  0.66621029  0.66712920  1
  Ni  Ni53  1  0.83344128  0.83379352  0.83375419  1
" 