8674,Ni76Fe8Cr15_9,-234.173430575058, 174.418379977722,Ni76Fe8Cr15,"# generated using pymatgen
 data_Cr9Fe4Ni41
_symmetry_space_group_name_H-M   'P 1'
_cell_length_a   7.45709789
_cell_length_b   7.45709789
_cell_length_c   10.54592897
_cell_angle_alpha   90.00000000
_cell_angle_beta   90.00000000
_cell_angle_gamma   90.00000000
_symmetry_Int_Tables_number   1
_chemical_formula_structural   Cr9Fe4Ni41
_chemical_formula_sum   'Cr9 Fe4 Ni41'
_cell_volume   586.44127619
_cell_formula_units_Z   1
loop_
 _symmetry_equiv_pos_site_id
 _symmetry_equiv_pos_as_xyz
  1  'x, y, z'
loop_
 _atom_site_type_symbol
 _atom_site_label
 _atom_site_symmetry_multiplicity
 _atom_site_fract_x
 _atom_site_fract_y
 _atom_site_fract_z
 _atom_site_occupancy
  Ni  Ni0  1  0.99859683  0.00073961  0.00076678  1
  Ni  Ni1  1  0.16622761  0.17006550  0.16612068  1
  Cr  Cr2  1  0.99931033  0.00146465  0.33303349  1
  Ni  Ni3  1  0.99996383  0.33376516  1.00015957  1
  Ni  Ni4  1  0.16453613  0.49986287  0.16713232  1
  Ni  Ni5  1  0.00114836  0.33391635  0.33385215  1
  Ni  Ni6  1  1.00013673  0.66753789  1.00054122  1
  Ni  Ni7  1  0.16540929  0.83213272  0.16542532  1
  Ni  Ni8  1  0.99980307  0.66692028  0.33367049  1
  Cr  Cr9  1  0.33453563  0.00114353  0.00133792  1
  Ni  Ni10  1  0.50271941  0.16718870  0.16788226  1
  Cr  Cr11  1  0.33510613  0.00256944  0.33346974  1
  Ni  Ni12  1  0.33397473  0.33481323  0.99997359  1
  Cr  Cr13  1  0.50166011  0.49976219  0.16646309  1
  Ni  Ni14  1  0.33367272  0.33308142  0.33530783  1
  Ni  Ni15  1  0.33366810  0.66655783  0.99966939  1
  Ni  Ni16  1  0.50338119  0.83499509  0.16618481  1
  Cr  Cr17  1  0.33371440  0.66634755  0.33419586  1
  Ni  Ni18  1  0.66909047  0.00106517  1.00052801  1
  Ni  Ni19  1  0.83305197  0.16816469  0.16660292  1
  Ni  Ni20  1  0.66756279  0.00115578  0.33445687  1
  Ni  Ni21  1  0.66799164  0.33312844  0.99979349  1
  Ni  Ni22  1  0.83594753  0.50053612  0.16709997  1
  Ni  Ni23  1  0.66720639  0.33234104  0.33400748  1
  Ni  Ni24  1  0.66820181  0.66787233  0.99914935  1
  Ni  Ni25  1  0.83319875  0.83332631  0.16713915  1
  Ni  Ni26  1  0.66840157  0.66864741  0.33451906  1
  Ni  Ni27  1  0.16772216  0.16937547  0.50212382  1
  Cr  Cr28  1  1.00016965  0.00195291  0.66761072  1
  Fe  Fe29  1  0.16734632  0.16907286  0.83459996  1
  Ni  Ni30  1  0.16741612  0.49836169  0.49952646  1
  Ni  Ni31  1  0.00090025  0.33225901  0.66812389  1
  Ni  Ni32  1  0.16711407  0.49964942  0.83527710  1
  Ni  Ni33  1  0.16812659  0.83427754  0.50045809  1
  Cr  Cr34  1  0.99930955  0.66647313  0.66762803  1
  Ni  Ni35  1  0.16722102  0.83355322  0.83580129  1
  Ni  Ni36  1  0.50187478  0.16754526  0.50107315  1
  Fe  Fe37  1  0.33581094  0.00189595  0.66732508  1
  Ni  Ni38  1  0.50209851  0.16791924  0.83319263  1
  Ni  Ni39  1  0.50120914  0.49929156  0.50093655  1
  Ni  Ni40  1  0.33491451  0.33288038  0.66685630  1
  Ni  Ni41  1  0.50116465  0.49961977  0.83439716  1
  Ni  Ni42  1  0.50243879  0.83544883  0.50171814  1
  Cr  Cr43  1  0.33570361  0.66598139  0.66754845  1
  Ni  Ni44  1  0.50173482  0.83470760  0.83417653  1
  Ni  Ni45  1  0.83245731  0.16797203  0.50060541  1
  Fe  Fe46  1  0.66631062  0.00187952  0.66795546  1
  Ni  Ni47  1  0.83283839  0.16811493  0.83484586  1
  Cr  Cr48  1  0.83354593  0.49886122  0.49974369  1
  Ni  Ni49  1  0.66624344  0.33374580  0.66813098  1
  Ni  Ni50  1  0.83364154  0.49942407  0.83472673  1
  Fe  Fe51  1  0.83170864  0.83461124  0.50000459  1
  Ni  Ni52  1  0.66588455  0.66748800  0.66823752  1
  Ni  Ni53  1  0.83290161  0.83456174  0.83491865  1
" 