3853,Ni76Fe7Cr15_7,-234.147044789738, 170.138397989083,Ni76Fe7Cr15,"# generated using pymatgen
 data_Cr9Fe4Ni41
_symmetry_space_group_name_H-M   'P 1'
_cell_length_a   7.46122847
_cell_length_b   7.46122847
_cell_length_c   10.55177049
_cell_angle_alpha   90.00000000
_cell_angle_beta   90.00000000
_cell_angle_gamma   90.00000000
_symmetry_Int_Tables_number   1
_chemical_formula_structural   Cr9Fe4Ni41
_chemical_formula_sum   'Cr9 Fe4 Ni41'
_cell_volume   587.41632714
_cell_formula_units_Z   1
loop_
 _symmetry_equiv_pos_site_id
 _symmetry_equiv_pos_as_xyz
  1  'x, y, z'
loop_
 _atom_site_type_symbol
 _atom_site_label
 _atom_site_symmetry_multiplicity
 _atom_site_fract_x
 _atom_site_fract_y
 _atom_site_fract_z
 _atom_site_occupancy
  Ni  Ni0  1  0.00128203  0.00113077  0.99974491  1
  Ni  Ni1  1  0.16840080  0.16641624  0.16713329  1
  Ni  Ni2  1  0.00378865  0.99852486  0.33375799  1
  Ni  Ni3  1  1.00012711  0.33202809  1.00026358  1
  Ni  Ni4  1  0.16696619  0.49874837  0.16865924  1
  Ni  Ni5  1  0.00438831  0.33424488  0.33290244  1
  Cr  Cr6  1  0.99922169  0.66806242  1.00012128  1
  Ni  Ni7  1  0.16847113  0.83592121  0.16800954  1
  Ni  Ni8  1  0.00153337  0.66827628  0.33334659  1
  Ni  Ni9  1  0.33348555  0.00189730  0.00042659  1
  Ni  Ni10  1  0.49734225  0.16607513  0.16487037  1
  Ni  Ni11  1  0.33223585  0.00054386  0.33375367  1
  Ni  Ni12  1  0.33476761  0.33115071  0.00143616  1
  Ni  Ni13  1  0.50060488  0.50110726  0.16675385  1
  Ni  Ni14  1  0.33248794  0.33336204  0.33391358  1
  Cr  Cr15  1  0.33507001  0.66793357  1.00016292  1
  Ni  Ni16  1  0.49978285  0.83392054  0.16673393  1
  Ni  Ni17  1  0.33352608  0.66725310  0.33406106  1
  Ni  Ni18  1  0.66629902  0.99993587  0.99910717  1
  Cr  Cr19  1  0.83570121  0.16726938  0.16558278  1
  Cr  Cr20  1  0.66512280  0.99891810  0.33476254  1
  Ni  Ni21  1  0.66628678  0.33423105  0.99955134  1
  Ni  Ni22  1  0.83359549  0.50123865  0.16657423  1
  Cr  Cr23  1  0.66373949  0.33478541  0.33318068  1
  Ni  Ni24  1  0.66726673  0.66692462  0.00078050  1
  Fe  Fe25  1  0.83359600  0.83289354  0.16705707  1
  Ni  Ni26  1  0.66624058  0.66785926  0.33260263  1
  Ni  Ni27  1  0.16852325  0.16660480  0.49986199  1
  Ni  Ni28  1  0.00166759  0.99949407  0.66770245  1
  Ni  Ni29  1  0.16692925  0.16532499  0.83426045  1
  Ni  Ni30  1  0.16774111  0.49950295  0.49986708  1
  Ni  Ni31  1  0.00084544  0.33209354  0.66792036  1
  Cr  Cr32  1  0.16670995  0.49707482  0.83245214  1
  Ni  Ni33  1  0.16670464  0.83501981  0.50026064  1
  Ni  Ni34  1  0.99830506  0.66949247  0.66709093  1
  Ni  Ni35  1  0.16665908  0.83933357  0.83288286  1
  Ni  Ni36  1  0.49677711  0.16644186  0.50249968  1
  Ni  Ni37  1  0.33288768  0.00206256  0.66704091  1
  Fe  Fe38  1  0.49928171  0.16689647  0.83396911  1
  Ni  Ni39  1  0.49921020  0.50097200  0.50043454  1
  Ni  Ni40  1  0.33496722  0.33083896  0.66588448  1
  Ni  Ni41  1  0.50436275  0.49937999  0.83406086  1
  Ni  Ni42  1  0.50011782  0.83360555  0.50057559  1
  Cr  Cr43  1  0.33394867  0.66840457  0.66678437  1
  Ni  Ni44  1  0.50237016  0.83533516  0.83387536  1
  Cr  Cr45  1  0.83626634  0.16594254  0.50235826  1
  Fe  Fe46  1  0.66632444  0.99932841  0.66742486  1
  Fe  Fe47  1  0.83425200  0.16686126  0.83404602  1
  Cr  Cr48  1  0.83474024  0.50216772  0.50097689  1
  Ni  Ni49  1  0.66521551  0.33398806  0.66876852  1
  Ni  Ni50  1  0.83091716  0.49966332  0.83319248  1
  Ni  Ni51  1  0.83425914  0.83292530  0.50053273  1
  Ni  Ni52  1  0.66766099  0.66729763  0.66766925  1
  Ni  Ni53  1  0.83208290  0.83435288  0.83341501  1
" 