4853,Ni76Fe16Cr7_2,-238.23983845241, 192.37542980835,Ni76Fe16Cr7,"# generated using pymatgen
 data_Cr5Fe8Ni41
_symmetry_space_group_name_H-M   'P 1'
_cell_length_a   7.43973490
_cell_length_b   7.43973490
_cell_length_c   10.52137399
_cell_angle_alpha   90.00000000
_cell_angle_beta   90.00000000
_cell_angle_gamma   90.00000000
_symmetry_Int_Tables_number   1
_chemical_formula_structural   Cr5Fe8Ni41
_chemical_formula_sum   'Cr5 Fe8 Ni41'
_cell_volume   582.35442397
_cell_formula_units_Z   1
loop_
 _symmetry_equiv_pos_site_id
 _symmetry_equiv_pos_as_xyz
  1  'x, y, z'
loop_
 _atom_site_type_symbol
 _atom_site_label
 _atom_site_symmetry_multiplicity
 _atom_site_fract_x
 _atom_site_fract_y
 _atom_site_fract_z
 _atom_site_occupancy
  Ni  Ni0  1  0.00304569  1.00118132  0.00304418  1
  Ni  Ni1  1  0.16986358  0.16831250  0.16755928  1
  Ni  Ni2  1  0.00297875  1.00062901  0.33432106  1
  Ni  Ni3  1  0.00469816  0.33574557  0.00240190  1
  Ni  Ni4  1  0.16892091  0.50236597  0.16722730  1
  Cr  Cr5  1  1.00153647  0.33504971  0.33515310  1
  Ni  Ni6  1  1.00166232  0.66858039  1.00107498  1
  Ni  Ni7  1  0.16870468  0.83482766  0.16933468  1
  Ni  Ni8  1  0.00193660  0.66966604  0.33496401  1
  Ni  Ni9  1  0.33476166  0.00220291  1.00117937  1
  Ni  Ni10  1  0.50137878  0.16721699  0.16975936  1
  Ni  Ni11  1  0.33517558  0.00200422  0.33565049  1
  Ni  Ni12  1  0.33296984  0.33458250  1.00129399  1
  Fe  Fe13  1  0.50115087  0.50244083  0.16876979  1
  Ni  Ni14  1  0.33698913  0.33433888  0.33517417  1
  Ni  Ni15  1  0.33498181  0.66872017  0.00209360  1
  Ni  Ni16  1  0.50226450  0.83619678  0.16806112  1
  Fe  Fe17  1  0.33495899  0.66944563  0.33539718  1
  Ni  Ni18  1  0.66769804  0.99917044  0.00255288  1
  Ni  Ni19  1  0.83426594  0.16699917  0.16882205  1
  Ni  Ni20  1  0.66735026  0.00226968  0.33439247  1
  Cr  Cr21  1  0.66808505  0.33609486  0.00298891  1
  Ni  Ni22  1  0.83563569  0.50325551  0.16865299  1
  Ni  Ni23  1  0.66684626  0.33538042  0.33586850  1
  Ni  Ni24  1  0.66886262  0.67037427  1.00134543  1
  Ni  Ni25  1  0.83453704  0.83525224  0.16880210  1
  Ni  Ni26  1  0.66821893  0.66786001  0.33426961  1
  Fe  Fe27  1  0.16939181  0.16666845  0.50164756  1
  Ni  Ni28  1  0.00360643  1.00003458  0.66814211  1
  Ni  Ni29  1  0.17184822  0.16801403  0.83594628  1
  Ni  Ni30  1  0.17012054  0.50366928  0.50221461  1
  Cr  Cr31  1  0.00230642  0.33584621  0.66805936  1
  Ni  Ni32  1  0.16998138  0.50286404  0.83606500  1
  Ni  Ni33  1  0.17060109  0.83430273  0.50157312  1
  Ni  Ni34  1  0.00228824  0.67003006  0.66946694  1
  Ni  Ni35  1  0.16806152  0.83462611  0.83459818  1
  Fe  Fe36  1  0.50205630  0.16893526  0.50133919  1
  Fe  Fe37  1  0.33475109  1.00121612  0.66864722  1
  Ni  Ni38  1  0.49930209  0.16861470  0.83379318  1
  Fe  Fe39  1  0.50226551  0.50219947  0.50272668  1
  Ni  Ni40  1  0.33726108  0.33516182  0.66903300  1
  Ni  Ni41  1  0.50067496  0.50176503  0.83391426  1
  Ni  Ni42  1  0.49976375  0.83561935  0.50228509  1
  Ni  Ni43  1  0.33555565  0.66858644  0.66788504  1
  Fe  Fe44  1  0.50167380  0.83429922  0.83562778  1
  Ni  Ni45  1  0.83266830  0.16917047  0.50156317  1
  Fe  Fe46  1  0.66731388  1.00165029  0.66846377  1
  Cr  Cr47  1  0.83472228  0.16703916  0.83584297  1
  Ni  Ni48  1  0.83398981  0.50078428  0.50237232  1
  Ni  Ni49  1  0.66594317  0.33647979  0.66696648  1
  Ni  Ni50  1  0.83485082  0.50555364  0.83448380  1
  Cr  Cr51  1  0.83552986  0.83528584  0.50144931  1
  Ni  Ni52  1  0.66766337  0.66729031  0.66989131  1
  Ni  Ni53  1  0.83545273  0.83325187  0.83497003  1
" 