5000,Ni76Fe6Cr17_16,-233.184903606203, 166.551264398022,Ni76Fe6Cr17,"# generated using pymatgen
 data_Cr10Fe3Ni41
_symmetry_space_group_name_H-M   'P 1'
_cell_length_a   7.46380599
_cell_length_b   7.46380599
_cell_length_c   10.55541566
_cell_angle_alpha   90.00000000
_cell_angle_beta   90.00000000
_cell_angle_gamma   90.00000000
_symmetry_Int_Tables_number   1
_chemical_formula_structural   Cr10Fe3Ni41
_chemical_formula_sum   'Cr10 Fe3 Ni41'
_cell_volume   588.02531569
_cell_formula_units_Z   1
loop_
 _symmetry_equiv_pos_site_id
 _symmetry_equiv_pos_as_xyz
  1  'x, y, z'
loop_
 _atom_site_type_symbol
 _atom_site_label
 _atom_site_symmetry_multiplicity
 _atom_site_fract_x
 _atom_site_fract_y
 _atom_site_fract_z
 _atom_site_occupancy
  Ni  Ni0  1  0.99899943  0.99770759  0.00071655  1
  Ni  Ni1  1  0.16667716  0.16506216  0.16720844  1
  Cr  Cr2  1  0.99721482  0.99862434  0.33209986  1
  Cr  Cr3  1  0.99818657  0.33483656  0.00244592  1
  Ni  Ni4  1  0.16611178  0.50302985  0.16740685  1
  Ni  Ni5  1  0.99734240  0.33445683  0.33191762  1
  Ni  Ni6  1  1.00016266  0.66885223  1.00016045  1
  Ni  Ni7  1  0.16786730  0.83244584  0.16597209  1
  Ni  Ni8  1  0.99982127  0.66736568  0.33272568  1
  Ni  Ni9  1  0.33434132  0.99771353  0.00158174  1
  Ni  Ni10  1  0.50255058  0.16527689  0.16636942  1
  Fe  Fe11  1  0.33558079  0.99799373  0.33290124  1
  Cr  Cr12  1  0.33546053  0.33597624  0.00078379  1
  Ni  Ni13  1  0.50254171  0.50220716  0.16670647  1
  Cr  Cr14  1  0.33517333  0.33441663  0.33100713  1
  Ni  Ni15  1  0.33355865  0.66832921  0.00026704  1
  Ni  Ni16  1  0.50083528  0.83297237  0.16726926  1
  Ni  Ni17  1  0.33420359  0.66835643  0.33263137  1
  Ni  Ni18  1  0.66756903  0.99973033  0.00056749  1
  Ni  Ni19  1  0.83153158  0.16693615  0.16681325  1
  Ni  Ni20  1  0.66637137  1.00004320  0.33337665  1
  Ni  Ni21  1  0.66686339  0.33353542  1.00020460  1
  Ni  Ni22  1  0.83189886  0.50121007  0.16862249  1
  Ni  Ni23  1  0.66766104  0.33275527  0.33375269  1
  Ni  Ni24  1  0.66697657  0.66725565  0.00022776  1
  Ni  Ni25  1  0.83204658  0.83246063  0.16550836  1
  Ni  Ni26  1  0.66664898  0.66789194  0.33391275  1
  Cr  Cr27  1  0.16539657  0.16528585  0.50120527  1
  Ni  Ni28  1  0.99920153  0.99800392  0.66707034  1
  Cr  Cr29  1  0.16506978  0.16396524  0.83205933  1
  Cr  Cr30  1  0.16442947  0.50189005  0.49988962  1
  Ni  Ni31  1  0.99629941  0.33431232  0.66701771  1
  Ni  Ni32  1  0.16508977  0.50308176  0.83370375  1
  Ni  Ni33  1  0.16665195  0.83325904  0.50078866  1
  Ni  Ni34  1  0.99810170  0.66852487  0.66765074  1
  Ni  Ni35  1  0.16660538  0.83334938  0.83369381  1
  Ni  Ni36  1  0.50316351  0.16634558  0.50022433  1
  Ni  Ni37  1  0.33405836  0.99818083  0.66565853  1
  Fe  Fe38  1  0.50267123  0.16519561  0.83471140  1
  Ni  Ni39  1  0.50404547  0.50116938  0.49953993  1
  Cr  Cr40  1  0.33717453  0.33414560  0.66906919  1
  Ni  Ni41  1  0.50375616  0.50219351  0.83445235  1
  Ni  Ni42  1  0.50094980  0.83286600  0.49837683  1
  Cr  Cr43  1  0.33521197  0.66866393  0.66799058  1
  Ni  Ni44  1  0.50050338  0.83249949  0.83495824  1
  Ni  Ni45  1  0.83203150  0.16818271  0.50035042  1
  Cr  Cr46  1  0.66733541  0.99860141  0.66696298  1
  Ni  Ni47  1  0.83262167  0.16707775  0.83356075  1
  Fe  Fe48  1  0.83176415  0.50098316  0.49974541  1
  Ni  Ni49  1  0.66848930  0.33448456  0.66661593  1
  Ni  Ni50  1  0.83180217  0.50079922  0.83182512  1
  Ni  Ni51  1  0.83314833  0.83249876  0.50058016  1
  Ni  Ni52  1  0.66838041  0.66598326  0.66637602  1
  Ni  Ni53  1  0.83357694  0.83274125  0.83449207  1
" 