4400,Ni76Fe4Cr18_10,-232.160908907736, 162.465602230044,Ni76Fe4Cr18,"# generated using pymatgen
 data_Cr11Fe2Ni41
_symmetry_space_group_name_H-M   'P 1'
_cell_length_a   7.47038521
_cell_length_b   7.47038521
_cell_length_c   10.56472008
_cell_angle_alpha   90.00000000
_cell_angle_beta   90.00000000
_cell_angle_gamma   90.00000000
_symmetry_Int_Tables_number   1
_chemical_formula_structural   Cr11Fe2Ni41
_chemical_formula_sum   'Cr11 Fe2 Ni41'
_cell_volume   589.58169107
_cell_formula_units_Z   1
loop_
 _symmetry_equiv_pos_site_id
 _symmetry_equiv_pos_as_xyz
  1  'x, y, z'
loop_
 _atom_site_type_symbol
 _atom_site_label
 _atom_site_symmetry_multiplicity
 _atom_site_fract_x
 _atom_site_fract_y
 _atom_site_fract_z
 _atom_site_occupancy
  Ni  Ni0  1  0.99921871  0.99738530  0.99829912  1
  Cr  Cr1  1  0.16485950  0.16503199  0.16616122  1
  Ni  Ni2  1  0.99845022  0.99925759  0.33409536  1
  Cr  Cr3  1  0.99834146  0.33307437  0.00049494  1
  Ni  Ni4  1  0.16638264  0.50329724  0.16697563  1
  Ni  Ni5  1  0.99772040  0.33309883  0.33349160  1
  Ni  Ni6  1  0.99931329  0.66928802  0.00055479  1
  Ni  Ni7  1  0.16632843  0.83068619  0.16587874  1
  Ni  Ni8  1  0.00059881  0.66697257  0.33225063  1
  Ni  Ni9  1  0.33250461  0.99913446  0.99881552  1
  Cr  Cr10  1  0.50218233  0.16566571  0.16508554  1
  Ni  Ni11  1  0.33367577  0.99647519  0.33493126  1
  Ni  Ni12  1  0.33614021  0.33361098  0.99810221  1
  Ni  Ni13  1  0.50048444  0.50220986  0.16527362  1
  Cr  Cr14  1  0.33230605  0.33424521  0.33401089  1
  Ni  Ni15  1  0.33336024  0.66658429  0.00172256  1
  Ni  Ni16  1  0.49968079  0.83091383  0.16703686  1
  Ni  Ni17  1  0.33238100  0.66890080  0.33235980  1
  Ni  Ni18  1  0.66760603  0.00016360  0.99975184  1
  Ni  Ni19  1  0.83223475  0.16615002  0.16764125  1
  Ni  Ni20  1  0.66720272  0.99935386  0.33439260  1
  Ni  Ni21  1  0.66490360  0.33351597  0.99892350  1
  Ni  Ni22  1  0.83246235  0.50045863  0.16704821  1
  Ni  Ni23  1  0.66913068  0.33180305  0.33199445  1
  Ni  Ni24  1  0.66665569  0.66565122  0.00021459  1
  Ni  Ni25  1  0.83332066  0.83272187  0.16643715  1
  Ni  Ni26  1  0.66634977  0.66817298  0.33174694  1
  Fe  Fe27  1  0.16477626  0.16586029  0.50019842  1
  Ni  Ni28  1  -0.00012186  0.99959988  0.66693429  1
  Ni  Ni29  1  0.16609927  0.16542743  0.83218370  1
  Ni  Ni30  1  0.16600449  0.50074780  0.50066237  1
  Ni  Ni31  1  0.00172511  0.33201143  0.66585172  1
  Cr  Cr32  1  0.16793599  0.50053577  0.83168432  1
  Ni  Ni33  1  0.16595208  0.83202150  0.49936284  1
  Ni  Ni34  1  0.00006250  0.66771770  0.66652609  1
  Ni  Ni35  1  0.16331958  0.83396983  0.83408857  1
  Ni  Ni36  1  0.50019775  0.16463461  0.49858434  1
  Cr  Cr37  1  0.33140597  0.00048103  0.66542446  1
  Ni  Ni38  1  0.49939198  0.16978464  0.83555508  1
  Cr  Cr39  1  0.49802270  0.50129663  0.50040785  1
  Ni  Ni40  1  0.33135971  0.33368481  0.66689963  1
  Ni  Ni41  1  0.50001890  0.49812953  0.83365880  1
  Ni  Ni42  1  0.49929486  0.83382234  0.49802928  1
  Ni  Ni43  1  0.33199429  0.66501728  0.66524764  1
  Cr  Cr44  1  0.50007299  0.83137258  0.83434265  1
  Ni  Ni45  1  0.83420937  0.16458276  0.49782840  1
  Cr  Cr46  1  0.66831837  0.99878134  0.66520489  1
  Ni  Ni47  1  0.83383730  0.16507637  0.83386167  1
  Cr  Cr48  1  0.83560043  0.50027914  0.49961521  1
  Cr  Cr49  1  0.66604198  0.33298750  0.66851061  1
  Fe  Fe50  1  0.83162438  0.50118080  0.83332119  1
  Ni  Ni51  1  0.83408307  0.83490304  0.49959854  1
  Ni  Ni52  1  0.66727302  0.66686333  0.66736971  1
  Ni  Ni53  1  0.83564138  0.83334405  0.83329392  1
" 