3274,Ni76Fe8Cr15_10,-233.963985481983, 169.174725099233,Ni76Fe8Cr15,"# generated using pymatgen
 data_Cr9Fe4Ni41
_symmetry_space_group_name_H-M   'P 1'
_cell_length_a   7.45762119
_cell_length_b   7.45762119
_cell_length_c   10.54666903
_cell_angle_alpha   90.00000000
_cell_angle_beta   90.00000000
_cell_angle_gamma   90.00000000
_symmetry_Int_Tables_number   1
_chemical_formula_structural   Cr9Fe4Ni41
_chemical_formula_sum   'Cr9 Fe4 Ni41'
_cell_volume   586.56474556
_cell_formula_units_Z   1
loop_
 _symmetry_equiv_pos_site_id
 _symmetry_equiv_pos_as_xyz
  1  'x, y, z'
loop_
 _atom_site_type_symbol
 _atom_site_label
 _atom_site_symmetry_multiplicity
 _atom_site_fract_x
 _atom_site_fract_y
 _atom_site_fract_z
 _atom_site_occupancy
  Ni  Ni0  1  0.99864417  0.00273445  0.00288762  1
  Ni  Ni1  1  0.16861216  0.16539344  0.16699243  1
  Fe  Fe2  1  1.00054978  0.00072428  0.33291164  1
  Ni  Ni3  1  0.99983430  0.33174579  0.99852278  1
  Cr  Cr4  1  0.16735992  0.50062042  0.16456314  1
  Cr  Cr5  1  0.99738642  0.33406338  0.33376551  1
  Ni  Ni6  1  0.99817775  0.66731247  1.00045563  1
  Ni  Ni7  1  0.16630626  0.83602689  0.16679308  1
  Ni  Ni8  1  0.99984112  0.66925003  0.33489408  1
  Fe  Fe9  1  0.33510293  0.00239488  0.00123476  1
  Ni  Ni10  1  0.50042352  0.16826940  0.16657179  1
  Ni  Ni11  1  0.33322490  0.00210567  0.33325775  1
  Ni  Ni12  1  0.33482769  0.33315928  0.99911649  1
  Ni  Ni13  1  0.50185623  0.49741123  0.16624555  1
  Ni  Ni14  1  0.33531081  0.33051590  0.33577621  1
  Ni  Ni15  1  0.33669555  0.66656299  1.00047901  1
  Ni  Ni16  1  0.49995448  0.83594583  0.16386416  1
  Cr  Cr17  1  0.33547852  0.66751093  0.33496864  1
  Ni  Ni18  1  0.66848328  0.00088052  0.99892782  1
  Ni  Ni19  1  0.83290379  0.16743758  0.16516346  1
  Cr  Cr20  1  0.66730276  0.00141086  0.33397934  1
  Ni  Ni21  1  0.66748767  0.33349780  0.00208637  1
  Ni  Ni22  1  0.83276726  0.50010619  0.16507501  1
  Ni  Ni23  1  0.66618028  0.33252216  0.33268658  1
  Ni  Ni24  1  0.66688395  0.66763496  0.00119420  1
  Ni  Ni25  1  0.83580575  0.83421199  0.16545662  1
  Cr  Cr26  1  0.66947637  0.66440066  0.33239225  1
  Fe  Fe27  1  0.16784230  0.16866204  0.50028646  1
  Cr  Cr28  1  0.99920419  0.00284502  0.66669915  1
  Ni  Ni29  1  0.16729125  0.17084302  0.83563841  1
  Ni  Ni30  1  0.16581969  0.50009029  0.50261550  1
  Ni  Ni31  1  0.99962709  0.33484603  0.66875421  1
  Ni  Ni32  1  0.16636247  0.49811012  0.83420586  1
  Ni  Ni33  1  0.16535009  0.83370730  0.49751890  1
  Ni  Ni34  1  0.99765516  0.66552842  0.66646480  1
  Cr  Cr35  1  0.16540634  0.83239441  0.83849770  1
  Ni  Ni36  1  0.50162673  0.16913169  0.50074150  1
  Cr  Cr37  1  0.33570733  0.00277113  0.66864452  1
  Ni  Ni38  1  0.50256067  0.16942713  0.83466445  1
  Ni  Ni39  1  0.50200280  0.49652683  0.50087092  1
  Ni  Ni40  1  0.33437758  0.33331909  0.66713316  1
  Ni  Ni41  1  0.50208020  0.49896688  0.83481589  1
  Ni  Ni42  1  0.50162105  0.83614101  0.50226121  1
  Cr  Cr43  1  0.33560709  0.66517707  0.66702803  1
  Ni  Ni44  1  0.50469992  0.83413664  0.83553967  1
  Ni  Ni45  1  0.83118783  0.16884949  0.50176082  1
  Fe  Fe46  1  0.66784624  0.00170704  0.66833893  1
  Ni  Ni47  1  0.83251908  0.16853139  0.83482425  1
  Ni  Ni48  1  0.83401628  0.49978506  0.50214074  1
  Ni  Ni49  1  0.66778544  0.33473468  0.66711528  1
  Ni  Ni50  1  0.83343904  0.50036560  0.83421085  1
  Ni  Ni51  1  0.83511391  0.83356391  0.50186297  1
  Ni  Ni52  1  0.66867014  0.66674558  0.66710445  1
  Ni  Ni53  1  0.83183042  0.83337110  0.83412740  1
" 