209,Ni76Fe6Cr17_15,-233.281326920452, 169.560524491144,Ni76Fe6Cr17,"# generated using pymatgen
 data_Cr10Fe3Ni41
_symmetry_space_group_name_H-M   'P 1'
_cell_length_a   7.46346283
_cell_length_b   7.46346283
_cell_length_c   10.55493036
_cell_angle_alpha   90.00000000
_cell_angle_beta   90.00000000
_cell_angle_gamma   90.00000000
_symmetry_Int_Tables_number   1
_chemical_formula_structural   Cr10Fe3Ni41
_chemical_formula_sum   'Cr10 Fe3 Ni41'
_cell_volume   587.94421397
_cell_formula_units_Z   1
loop_
 _symmetry_equiv_pos_site_id
 _symmetry_equiv_pos_as_xyz
  1  'x, y, z'
loop_
 _atom_site_type_symbol
 _atom_site_label
 _atom_site_symmetry_multiplicity
 _atom_site_fract_x
 _atom_site_fract_y
 _atom_site_fract_z
 _atom_site_occupancy
  Cr  Cr0  1  0.99937112  0.99923995  0.00129412  1
  Ni  Ni1  1  0.16769907  0.16707036  0.16782092  1
  Ni  Ni2  1  0.00086486  0.99800872  0.33328531  1
  Ni  Ni3  1  0.00137096  0.33650985  0.00099381  1
  Ni  Ni4  1  0.16615094  0.50005490  0.16571235  1
  Cr  Cr5  1  0.00171817  0.33376275  0.33171310  1
  Ni  Ni6  1  0.00043318  0.66472463  0.00066863  1
  Ni  Ni7  1  0.16797479  0.83359339  0.16791514  1
  Ni  Ni8  1  0.00259434  0.66940105  0.33247282  1
  Ni  Ni9  1  0.33607789  0.99931448  0.00118779  1
  Fe  Fe10  1  0.49935183  0.16422425  0.16806611  1
  Ni  Ni11  1  0.33280005  0.99975010  0.33268827  1
  Ni  Ni12  1  0.33154411  0.33397066  0.00067882  1
  Cr  Cr13  1  0.49862424  0.50086469  0.16793264  1
  Ni  Ni14  1  0.33373626  0.33358144  0.33362495  1
  Ni  Ni15  1  0.33264944  0.66743415  0.99922615  1
  Ni  Ni16  1  0.49948851  0.83627785  0.16613652  1
  Ni  Ni17  1  0.33134288  0.66738636  0.33501554  1
  Ni  Ni18  1  0.66509480  0.99837934  0.00048169  1
  Ni  Ni19  1  0.83328642  0.16618253  0.16808580  1
  Ni  Ni20  1  0.66705533  0.00040270  0.33156670  1
  Cr  Cr21  1  0.66811636  0.33304436  0.99940107  1
  Ni  Ni22  1  0.83596911  0.49981118  0.16593888  1
  Ni  Ni23  1  0.66504143  0.33185274  0.33231014  1
  Ni  Ni24  1  0.66763859  0.66925578  0.99927349  1
  Ni  Ni25  1  0.83325783  0.83472686  0.16739233  1
  Cr  Cr26  1  0.66714154  0.66833674  0.33399932  1
  Fe  Fe27  1  0.16732227  0.16478496  0.49992077  1
  Ni  Ni28  1  0.99964586  0.99880602  0.66612115  1
  Cr  Cr29  1  0.16603859  0.16677174  0.83288276  1
  Ni  Ni30  1  0.16937289  0.50237798  0.49999616  1
  Ni  Ni31  1  0.99889454  0.33409919  0.66814171  1
  Ni  Ni32  1  0.16650875  0.50183163  0.83501126  1
  Ni  Ni33  1  0.16754459  0.83317600  0.50018076  1
  Ni  Ni34  1  0.00061768  0.66781500  0.66757760  1
  Ni  Ni35  1  0.16865413  0.83161944  0.83262409  1
  Cr  Cr36  1  0.50043269  0.16653183  0.49896234  1
  Ni  Ni37  1  0.33339071  0.99689874  0.66684342  1
  Fe  Fe38  1  0.50203426  0.16510922  0.83342537  1
  Ni  Ni39  1  0.49780645  0.50143971  0.50019186  1
  Cr  Cr40  1  0.33356982  0.33559169  0.66646557  1
  Ni  Ni41  1  0.50045870  0.50218291  0.83265160  1
  Ni  Ni42  1  0.49838127  0.83285589  0.50112885  1
  Ni  Ni43  1  0.33375757  0.66838145  0.66647864  1
  Ni  Ni44  1  0.50027251  0.83323209  0.83345660  1
  Cr  Cr45  1  0.83400195  0.16477601  0.50147093  1
  Ni  Ni46  1  0.66768564  0.99862330  0.66867082  1
  Ni  Ni47  1  0.83213866  0.16745073  0.83138093  1
  Cr  Cr48  1  0.83310326  0.50091765  0.50174714  1
  Ni  Ni49  1  0.66825244  0.33446454  0.66900057  1
  Ni  Ni50  1  0.83375426  0.49976403  0.83282053  1
  Ni  Ni51  1  0.83479438  0.83516715  0.50082702  1
  Ni  Ni52  1  0.66634563  0.66763204  0.66760664  1
  Ni  Ni53  1  0.83179481  0.83350566  0.83250089  1
" 