2514,Ni76Fe4Cr18_1,-232.192623583164, 161.283815676111,Ni76Fe4Cr18,"# generated using pymatgen
 data_Cr11Fe2Ni41
_symmetry_space_group_name_H-M   'P 1'
_cell_length_a   7.46852351
_cell_length_b   7.46852351
_cell_length_c   10.56208723
_cell_angle_alpha   90.00000000
_cell_angle_beta   90.00000000
_cell_angle_gamma   90.00000000
_symmetry_Int_Tables_number   1
_chemical_formula_structural   Cr11Fe2Ni41
_chemical_formula_sum   'Cr11 Fe2 Ni41'
_cell_volume   589.14100916
_cell_formula_units_Z   1
loop_
 _symmetry_equiv_pos_site_id
 _symmetry_equiv_pos_as_xyz
  1  'x, y, z'
loop_
 _atom_site_type_symbol
 _atom_site_label
 _atom_site_symmetry_multiplicity
 _atom_site_fract_x
 _atom_site_fract_y
 _atom_site_fract_z
 _atom_site_occupancy
  Ni  Ni0  1  0.99954414  0.00050260  0.00048686  1
  Ni  Ni1  1  0.16781089  0.16742357  0.16427176  1
  Cr  Cr2  1  0.99858581  0.99884229  0.33381372  1
  Ni  Ni3  1  0.00191256  0.33104783  0.99973312  1
  Ni  Ni4  1  0.16791751  0.49979749  0.16481191  1
  Cr  Cr5  1  0.00233542  0.33141539  0.33247482  1
  Ni  Ni6  1  0.00353654  0.66816984  0.00063442  1
  Ni  Ni7  1  0.16547303  0.83249597  0.16458496  1
  Ni  Ni8  1  0.99814086  0.66867530  0.33223967  1
  Ni  Ni9  1  0.33330846  0.00007125  0.00024365  1
  Ni  Ni10  1  0.50045092  0.16711160  0.16607323  1
  Cr  Cr11  1  0.33339341  0.00268843  0.33249022  1
  Ni  Ni12  1  0.33197967  0.33260728  0.00148535  1
  Ni  Ni13  1  0.49827112  0.49787406  0.16779441  1
  Ni  Ni14  1  0.33563126  0.33286393  0.33254179  1
  Ni  Ni15  1  0.33076694  0.66701659  0.00114328  1
  Ni  Ni16  1  0.50089314  0.83463823  0.16567966  1
  Cr  Cr17  1  0.33348798  0.66457936  0.33127121  1
  Ni  Ni18  1  0.66687293  0.00174678  0.00013813  1
  Ni  Ni19  1  0.83139986  0.16468106  0.16529844  1
  Ni  Ni20  1  0.66770093  0.99984388  0.33206876  1
  Ni  Ni21  1  0.66575236  0.32861230  0.00165211  1
  Cr  Cr22  1  0.83392631  0.50014130  0.16618093  1
  Fe  Fe23  1  0.66324434  0.33197713  0.33286977  1
  Cr  Cr24  1  0.66500666  0.66956968  -0.00006621  1
  Ni  Ni25  1  0.83327041  0.83470073  0.16735084  1
  Ni  Ni26  1  0.66713608  0.66790143  0.33270400  1
  Ni  Ni27  1  0.16851644  0.16572210  0.50252258  1
  Ni  Ni28  1  0.99970182  0.00004470  0.66565520  1
  Ni  Ni29  1  0.16671230  0.16632426  0.83299924  1
  Cr  Cr30  1  0.16742858  0.49999095  0.50180769  1
  Ni  Ni31  1  0.00094273  0.33052620  0.66776540  1
  Ni  Ni32  1  0.16605344  0.49985454  0.83335858  1
  Ni  Ni33  1  0.16322195  0.83482786  0.50238944  1
  Ni  Ni34  1  0.00056078  0.66911470  0.66686846  1
  Ni  Ni35  1  0.16649448  0.83355002  0.83272367  1
  Ni  Ni36  1  0.49988208  0.16895148  0.50037609  1
  Ni  Ni37  1  0.33233606  0.00099916  0.66701531  1
  Ni  Ni38  1  0.49982846  0.16443588  0.83324504  1
  Ni  Ni39  1  0.50135856  0.49656651  0.50021432  1
  Ni  Ni40  1  0.33320077  0.33176267  0.66577581  1
  Cr  Cr41  1  0.49789816  0.49862126  0.83166261  1
  Cr  Cr42  1  0.50115332  0.83420158  0.50207139  1
  Ni  Ni43  1  0.33273156  0.66698026  0.66731823  1
  Ni  Ni44  1  0.49890981  0.83655634  0.83217599  1
  Fe  Fe45  1  0.83171967  0.16442057  0.50205096  1
  Ni  Ni46  1  0.66760811  0.00053827  0.66752218  1
  Ni  Ni47  1  0.83315243  0.16488508  0.83286959  1
  Cr  Cr48  1  0.83121131  0.50188161  0.50076158  1
  Ni  Ni49  1  0.66554530  0.33080819  0.66469272  1
  Cr  Cr50  1  0.83602523  0.49880256  0.83259984  1
  Ni  Ni51  1  0.83404447  0.83331042  0.50017781  1
  Ni  Ni52  1  0.66636974  0.66819962  0.66598093  1
  Ni  Ni53  1  0.83430731  0.83579228  0.83209293  1
" 