972,Ni76Fe8Cr15_18,-234.086441877235, 169.897500744022,Ni76Fe8Cr15,"# generated using pymatgen
 data_Cr9Fe4Ni41
_symmetry_space_group_name_H-M   'P 1'
_cell_length_a   7.45956349
_cell_length_b   7.45956349
_cell_length_c   10.54941585
_cell_angle_alpha   90.00000000
_cell_angle_beta   90.00000000
_cell_angle_gamma   90.00000000
_symmetry_Int_Tables_number   1
_chemical_formula_structural   Cr9Fe4Ni41
_chemical_formula_sum   'Cr9 Fe4 Ni41'
_cell_volume   587.02316692
_cell_formula_units_Z   1
loop_
 _symmetry_equiv_pos_site_id
 _symmetry_equiv_pos_as_xyz
  1  'x, y, z'
loop_
 _atom_site_type_symbol
 _atom_site_label
 _atom_site_symmetry_multiplicity
 _atom_site_fract_x
 _atom_site_fract_y
 _atom_site_fract_z
 _atom_site_occupancy
  Ni  Ni0  1  0.00078527  1.00019988  1.00025890  1
  Ni  Ni1  1  0.16747568  0.16607743  0.16780487  1
  Ni  Ni2  1  0.99991504  1.00023597  0.33384063  1
  Cr  Cr3  1  0.00230684  0.33397245  0.00135019  1
  Ni  Ni4  1  0.16761975  0.50014317  0.16936268  1
  Ni  Ni5  1  0.00086933  0.33346008  0.33444664  1
  Cr  Cr6  1  0.00155202  0.66806482  0.00284753  1
  Ni  Ni7  1  0.16733482  0.83526433  0.16739959  1
  Ni  Ni8  1  0.00127996  0.66787912  0.33342925  1
  Ni  Ni9  1  0.33385404  1.00025011  0.00121007  1
  Ni  Ni10  1  0.49934852  0.16512650  0.16820087  1
  Fe  Fe11  1  0.33230763  0.99877235  0.33278774  1
  Ni  Ni12  1  0.33299893  0.33320240  0.99956998  1
  Cr  Cr13  1  0.50025206  0.50177362  0.16716765  1
  Ni  Ni14  1  0.33105606  0.33355571  0.33266889  1
  Ni  Ni15  1  0.33364766  0.66805429  0.99905175  1
  Ni  Ni16  1  0.50075443  0.83507580  0.16725173  1
  Ni  Ni17  1  0.33168796  0.66857682  0.33407955  1
  Ni  Ni18  1  0.66680511  0.99920495  1.00033109  1
  Ni  Ni19  1  0.83461265  0.16505120  0.16841332  1
  Ni  Ni20  1  0.66877211  0.99968840  0.33363986  1
  Cr  Cr21  1  0.66706921  0.33329570  1.00039405  1
  Ni  Ni22  1  0.83426110  0.50168083  0.17048279  1
  Ni  Ni23  1  0.66952138  0.33225229  0.33271561  1
  Ni  Ni24  1  0.66678570  0.66968114  0.99944077  1
  Ni  Ni25  1  0.83334720  0.83483543  0.16783797  1
  Ni  Ni26  1  0.66849609  0.66948748  0.33414367  1
  Ni  Ni27  1  0.16437045  0.16736032  0.49997853  1
  Ni  Ni28  1  0.00087149  0.99964867  0.66756965  1
  Ni  Ni29  1  0.16748487  0.16663102  0.83368532  1
  Fe  Fe30  1  0.16591700  0.50131521  0.50006605  1
  Fe  Fe31  1  0.00177089  0.33478207  0.66655055  1
  Ni  Ni32  1  0.16815476  0.50024729  0.83163832  1
  Ni  Ni33  1  0.16525919  0.83423641  0.49998061  1
  Ni  Ni34  1  0.00110895  0.66804701  0.66649060  1
  Ni  Ni35  1  0.16627437  0.83459093  0.83406507  1
  Cr  Cr36  1  0.49905315  0.16734892  0.49659142  1
  Cr  Cr37  1  0.33244246  0.99912658  0.66625767  1
  Ni  Ni38  1  0.49727079  0.16716275  0.83590902  1
  Cr  Cr39  1  0.50077626  0.50215417  0.50009528  1
  Ni  Ni40  1  0.33115931  0.33505743  0.66882658  1
  Ni  Ni41  1  0.49941324  0.50197229  0.83386049  1
  Ni  Ni42  1  0.50041910  0.83129882  0.49895369  1
  Ni  Ni43  1  0.33218518  0.66647741  0.66803886  1
  Ni  Ni44  1  0.50071966  0.83221467  0.83497731  1
  Ni  Ni45  1  0.83790602  0.16710520  0.49977442  1
  Cr  Cr46  1  0.66871382  0.99839013  0.66710042  1
  Fe  Fe47  1  0.83569300  0.16488417  0.83449319  1
  Ni  Ni48  1  0.83549352  0.50172166  0.49933635  1
  Cr  Cr49  1  0.66743718  0.33380479  0.66903207  1
  Ni  Ni50  1  0.83399570  0.50369224  0.83221468  1
  Ni  Ni51  1  0.83564305  0.83267777  0.49998449  1
  Ni  Ni52  1  0.66816642  0.66744407  0.66774348  1
  Ni  Ni53  1  0.83467254  0.83283464  0.83374712  1
" 