4822,Ni76Fe22Cr0_10,-241.665173014336, 208.629676052955,Ni76Fe22Cr0,"# generated using pymatgen
 data_CrFe12Ni41
_symmetry_space_group_name_H-M   'P 1'
_cell_length_a   7.41756781
_cell_length_b   7.41756781
_cell_length_c   10.49002500
_cell_angle_alpha   90.00000000
_cell_angle_beta   90.00000000
_cell_angle_gamma   90.00000000
_symmetry_Int_Tables_number   1
_chemical_formula_structural   CrFe12Ni41
_chemical_formula_sum   'Cr1 Fe12 Ni41'
_cell_volume   577.16445019
_cell_formula_units_Z   1
loop_
 _symmetry_equiv_pos_site_id
 _symmetry_equiv_pos_as_xyz
  1  'x, y, z'
loop_
 _atom_site_type_symbol
 _atom_site_label
 _atom_site_symmetry_multiplicity
 _atom_site_fract_x
 _atom_site_fract_y
 _atom_site_fract_z
 _atom_site_occupancy
  Ni  Ni0  1  0.00406384  1.00240443  0.00408340  1
  Ni  Ni1  1  0.16944247  0.17018577  0.17010233  1
  Fe  Fe2  1  1.00236186  1.00290432  0.33672553  1
  Fe  Fe3  1  1.00284138  0.33613882  0.00338107  1
  Ni  Ni4  1  0.17028395  0.50321900  0.16981754  1
  Ni  Ni5  1  0.00336891  0.33695116  0.33590906  1
  Ni  Ni6  1  1.00325458  0.67027965  0.00351099  1
  Ni  Ni7  1  0.17086717  0.83660342  0.16980378  1
  Ni  Ni8  1  0.00417577  0.66957500  0.33659691  1
  Ni  Ni9  1  0.33632765  0.00428742  0.00338604  1
  Fe  Fe10  1  0.50374245  0.16953400  0.16993238  1
  Fe  Fe11  1  0.33666773  1.00280335  0.33660833  1
  Ni  Ni12  1  0.33590889  0.33500345  0.00478588  1
  Fe  Fe13  1  0.50374387  0.50374643  0.17042848  1
  Fe  Fe14  1  0.33691745  0.33752298  0.33690872  1
  Fe  Fe15  1  0.33604644  0.67180524  0.00417297  1
  Ni  Ni16  1  0.50351505  0.83576005  0.17066359  1
  Ni  Ni17  1  0.33580708  0.67036669  0.33587074  1
  Ni  Ni18  1  0.66961349  0.00348654  1.00318667  1
  Ni  Ni19  1  0.83672992  0.17049407  0.17038024  1
  Ni  Ni20  1  0.66972016  0.00379595  0.33618023  1
  Ni  Ni21  1  0.67003849  0.33581961  0.00464796  1
  Ni  Ni22  1  0.83589447  0.50290506  0.17021904  1
  Ni  Ni23  1  0.67052170  0.33584185  0.33644720  1
  Ni  Ni24  1  0.67192861  0.67069493  0.00498532  1
  Ni  Ni25  1  0.83562493  0.83660266  0.16935480  1
  Ni  Ni26  1  0.67002210  0.67037000  0.33639924  1
  Ni  Ni27  1  0.16980862  0.16945719  0.50364571  1
  Ni  Ni28  1  0.00385610  0.00335886  0.66958257  1
  Ni  Ni29  1  0.16894320  0.16949527  0.83626403  1
  Fe  Fe30  1  0.16990571  0.50308650  0.50346202  1
  Ni  Ni31  1  0.00382761  0.33689251  0.67091684  1
  Ni  Ni32  1  0.16862258  0.50332716  0.83603384  1
  Ni  Ni33  1  0.16965952  0.83690357  0.50331358  1
  Ni  Ni34  1  0.00386165  0.66974804  0.66988955  1
  Ni  Ni35  1  0.17116816  0.83718085  0.83689188  1
  Ni  Ni36  1  0.50376870  0.17164016  0.50417962  1
  Ni  Ni37  1  0.33664968  0.00365408  0.67012604  1
  Fe  Fe38  1  0.50277550  0.16856156  0.83631138  1
  Ni  Ni39  1  0.50373480  0.50315248  0.50313548  1
  Ni  Ni40  1  0.33552616  0.33546292  0.66846540  1
  Cr  Cr41  1  0.50383480  0.50449744  0.83703289  1
  Fe  Fe42  1  0.50356809  0.83745370  0.50352739  1
  Ni  Ni43  1  0.33520943  0.67089544  0.66979703  1
  Ni  Ni44  1  0.50275391  0.83748168  0.83549832  1
  Ni  Ni45  1  0.83642740  0.16977294  0.50329015  1
  Ni  Ni46  1  0.66950046  0.00368468  0.67063747  1
  Ni  Ni47  1  0.83720281  0.17062442  0.83633893  1
  Fe  Fe48  1  0.83659914  0.50284165  0.50328502  1
  Ni  Ni49  1  0.67064973  0.33545754  0.66891591  1
  Ni  Ni50  1  0.83750011  0.50222237  0.83605000  1
  Ni  Ni51  1  0.83692833  0.83694210  0.50374132  1
  Ni  Ni52  1  0.67093974  0.67086729  0.66861978  1
  Fe  Fe53  1  0.83745445  0.83634260  0.83666624  1
" 