7051,Ni76Fe6Cr17_12,-233.320932563961, 169.960663422844,Ni76Fe6Cr17,"# generated using pymatgen
 data_Cr10Fe3Ni41
_symmetry_space_group_name_H-M   'P 1'
_cell_length_a   7.46274047
_cell_length_b   7.46274047
_cell_length_c   10.55390878
_cell_angle_alpha   90.00000000
_cell_angle_beta   90.00000000
_cell_angle_gamma   90.00000000
_symmetry_Int_Tables_number   1
_chemical_formula_structural   Cr10Fe3Ni41
_chemical_formula_sum   'Cr10 Fe3 Ni41'
_cell_volume   587.77351483
_cell_formula_units_Z   1
loop_
 _symmetry_equiv_pos_site_id
 _symmetry_equiv_pos_as_xyz
  1  'x, y, z'
loop_
 _atom_site_type_symbol
 _atom_site_label
 _atom_site_symmetry_multiplicity
 _atom_site_fract_x
 _atom_site_fract_y
 _atom_site_fract_z
 _atom_site_occupancy
  Ni  Ni0  1  0.00235171  0.99987186  0.00040022  1
  Ni  Ni1  1  0.16676669  0.16483688  0.16745837  1
  Ni  Ni2  1  0.00175103  0.00099256  0.33265786  1
  Fe  Fe3  1  0.00059028  0.33218616  0.00039728  1
  Cr  Cr4  1  0.16544763  0.50027938  0.16642594  1
  Ni  Ni5  1  1.00018483  0.33285868  0.33418122  1
  Ni  Ni6  1  0.00039865  0.66885868  1.00026736  1
  Ni  Ni7  1  0.16676565  0.83563698  0.16711751  1
  Ni  Ni8  1  0.00061186  0.66701340  0.33409227  1
  Ni  Ni9  1  0.33133217  0.00071036  0.00063939  1
  Ni  Ni10  1  0.49904413  0.16473501  0.16709400  1
  Ni  Ni11  1  0.33262147  1.00015807  0.33218547  1
  Ni  Ni12  1  0.33435890  0.33213449  0.99876385  1
  Cr  Cr13  1  0.50103190  0.50135816  0.16595103  1
  Fe  Fe14  1  0.33217285  0.33210613  0.33514775  1
  Ni  Ni15  1  0.33328431  0.66801905  0.99794226  1
  Ni  Ni16  1  0.49994827  0.83483775  0.16823853  1
  Ni  Ni17  1  0.33271653  0.66889684  0.33490409  1
  Cr  Cr18  1  0.66706118  0.00070691  1.00001364  1
  Ni  Ni19  1  0.83505403  0.16651214  0.16707292  1
  Ni  Ni20  1  0.66649303  0.00058793  0.33237207  1
  Ni  Ni21  1  0.66634367  0.33408944  1.00002143  1
  Ni  Ni22  1  0.83425269  0.50129324  0.16663607  1
  Cr  Cr23  1  0.66820729  0.33355295  0.33431314  1
  Ni  Ni24  1  0.66718303  0.66583024  0.00099609  1
  Ni  Ni25  1  0.83415167  0.83306072  0.16810625  1
  Ni  Ni26  1  0.66753771  0.66732695  0.33210549  1
  Fe  Fe27  1  0.16667439  0.16915440  0.49870769  1
  Cr  Cr28  1  0.99950935  0.00047995  0.66796637  1
  Ni  Ni29  1  0.16724719  0.16828623  0.83511044  1
  Ni  Ni30  1  0.16685415  0.50075237  0.50099386  1
  Ni  Ni31  1  0.00044349  0.33458973  0.66629352  1
  Ni  Ni32  1  0.16902373  0.50075949  0.83281660  1
  Ni  Ni33  1  0.16693891  0.83078006  0.49868991  1
  Ni  Ni34  1  0.00359546  0.66512730  0.66650574  1
  Ni  Ni35  1  0.16716177  0.83182061  0.83505817  1
  Ni  Ni36  1  0.50112630  0.16884044  0.50062137  1
  Cr  Cr37  1  0.33419086  0.00047951  0.66846059  1
  Ni  Ni38  1  0.50041597  0.16818507  0.83314784  1
  Ni  Ni39  1  0.49795834  0.49807477  0.50075233  1
  Ni  Ni40  1  0.33427429  0.33563278  0.66641218  1
  Ni  Ni41  1  0.49735446  0.49957105  0.83400426  1
  Cr  Cr42  1  0.49913087  0.83422033  0.49863977  1
  Ni  Ni43  1  0.33112348  0.66408509  0.66801936  1
  Ni  Ni44  1  0.49931400  0.83310899  0.83417673  1
  Ni  Ni45  1  0.83288285  0.16892422  0.50090312  1
  Ni  Ni46  1  0.66719049  0.00430207  0.66846525  1
  Ni  Ni47  1  0.83320237  0.16632330  0.83288808  1
  Ni  Ni48  1  0.83605111  0.49799135  0.49993464  1
  Ni  Ni49  1  0.66614824  0.33112627  0.66606369  1
  Cr  Cr50  1  0.83459968  0.49952855  0.83450305  1
  Cr  Cr51  1  0.83497876  0.83421947  0.49919702  1
  Cr  Cr52  1  0.66613945  0.66588466  0.66777733  1
  Ni  Ni53  1  0.83439002  0.83488408  0.83397271  1
" 