3475,Ni76Fe8Cr15_4,-234.067523702102, 171.260170106628,Ni76Fe8Cr15,"# generated using pymatgen
 data_Cr9Fe4Ni41
_symmetry_space_group_name_H-M   'P 1'
_cell_length_a   7.45987839
_cell_length_b   7.45987839
_cell_length_c   10.54986120
_cell_angle_alpha   90.00000000
_cell_angle_beta   90.00000000
_cell_angle_gamma   90.00000000
_symmetry_Int_Tables_number   1
_chemical_formula_structural   Cr9Fe4Ni41
_chemical_formula_sum   'Cr9 Fe4 Ni41'
_cell_volume   587.09751388
_cell_formula_units_Z   1
loop_
 _symmetry_equiv_pos_site_id
 _symmetry_equiv_pos_as_xyz
  1  'x, y, z'
loop_
 _atom_site_type_symbol
 _atom_site_label
 _atom_site_symmetry_multiplicity
 _atom_site_fract_x
 _atom_site_fract_y
 _atom_site_fract_z
 _atom_site_occupancy
  Ni  Ni0  1  0.99962269  0.00205083  0.99998770  1
  Fe  Fe1  1  0.16570190  0.16959912  0.16666372  1
  Ni  Ni2  1  0.99904473  0.00371541  0.33392382  1
  Fe  Fe3  1  1.00024395  0.33221883  1.00035154  1
  Ni  Ni4  1  0.16953879  0.49741286  0.16827937  1
  Ni  Ni5  1  0.00115044  0.33256276  0.33321284  1
  Cr  Cr6  1  0.99871528  0.66641464  0.99921032  1
  Cr  Cr7  1  0.16837776  0.83444979  0.16713171  1
  Cr  Cr8  1  0.99969773  0.66546026  0.33404783  1
  Ni  Ni9  1  0.33468495  0.00159483  0.99970389  1
  Fe  Fe10  1  0.50155494  0.16946957  0.16528469  1
  Cr  Cr11  1  0.33401298  0.00216019  0.33381724  1
  Ni  Ni12  1  0.33451009  0.33348684  0.00065176  1
  Ni  Ni13  1  0.49943301  0.50003046  0.16711348  1
  Ni  Ni14  1  0.33317388  0.33566776  0.33428854  1
  Ni  Ni15  1  0.33642856  0.66636105  0.99986682  1
  Ni  Ni16  1  0.50098943  0.83242808  0.16498102  1
  Ni  Ni17  1  0.33521583  0.66335254  0.33389472  1
  Ni  Ni18  1  0.66713449  1.00013284  0.00052851  1
  Ni  Ni19  1  0.83476885  0.16774411  0.16744316  1
  Cr  Cr20  1  0.66838240  0.00095410  0.33450638  1
  Ni  Ni21  1  0.66635802  0.33399985  0.00067258  1
  Ni  Ni22  1  0.83247055  0.49690769  0.16666722  1
  Ni  Ni23  1  0.66711806  0.33431525  0.33412379  1
  Ni  Ni24  1  0.66590194  0.66731051  0.00124907  1
  Ni  Ni25  1  0.83215226  0.83678921  0.16589623  1
  Cr  Cr26  1  0.66625250  0.66585285  0.33326053  1
  Ni  Ni27  1  0.16577390  0.17029915  0.49923515  1
  Ni  Ni28  1  0.99789896  0.00079700  0.66753095  1
  Ni  Ni29  1  0.16610938  0.16739905  0.83533424  1
  Ni  Ni30  1  0.16831010  0.49778143  0.50088838  1
  Ni  Ni31  1  0.00079626  0.33438372  0.66729342  1
  Ni  Ni32  1  0.16840726  0.50004261  0.83227039  1
  Cr  Cr33  1  0.16613911  0.83291862  0.50117328  1
  Ni  Ni34  1  0.00109424  0.66626249  0.66765065  1
  Ni  Ni35  1  0.16716998  0.83399944  0.83350250  1
  Ni  Ni36  1  0.50130622  0.16989452  0.50084647  1
  Cr  Cr37  1  0.33499658  0.00185064  0.66836507  1
  Ni  Ni38  1  0.50150870  0.16788799  0.83489525  1
  Ni  Ni39  1  0.49877790  0.49819782  0.49968209  1
  Ni  Ni40  1  0.33343407  0.33543783  0.66650031  1
  Ni  Ni41  1  0.49921606  0.49955635  0.83464611  1
  Ni  Ni42  1  0.50148011  0.83334854  0.50063669  1
  Ni  Ni43  1  0.33237939  0.66445319  0.66768090  1
  Ni  Ni44  1  0.49996202  0.83399682  0.83582530  1
  Fe  Fe45  1  0.83437333  0.16833255  0.50127858  1
  Ni  Ni46  1  0.66902352  0.00185136  0.66684852  1
  Ni  Ni47  1  0.83382182  0.16665153  0.83290920  1
  Ni  Ni48  1  0.83435419  0.49795672  0.50057027  1
  Ni  Ni49  1  0.66721137  0.33223991  0.66664446  1
  Ni  Ni50  1  0.83381856  0.49849511  0.83420189  1
  Ni  Ni51  1  0.83394508  0.83589188  0.50152083  1
  Cr  Cr52  1  0.66769495  0.66728781  0.66723312  1
  Ni  Ni53  1  0.83430895  0.83629167  0.83402547  1
" 