1143,Ni76Fe4Cr18_19,-232.201791060192, 163.45057342395,Ni76Fe4Cr18,"# generated using pymatgen
 data_Cr11Fe2Ni41
_symmetry_space_group_name_H-M   'P 1'
_cell_length_a   7.46873810
_cell_length_b   7.46873810
_cell_length_c   10.56239072
_cell_angle_alpha   90.00000000
_cell_angle_beta   90.00000000
_cell_angle_gamma   90.00000000
_symmetry_Int_Tables_number   1
_chemical_formula_structural   Cr11Fe2Ni41
_chemical_formula_sum   'Cr11 Fe2 Ni41'
_cell_volume   589.19179488
_cell_formula_units_Z   1
loop_
 _symmetry_equiv_pos_site_id
 _symmetry_equiv_pos_as_xyz
  1  'x, y, z'
loop_
 _atom_site_type_symbol
 _atom_site_label
 _atom_site_symmetry_multiplicity
 _atom_site_fract_x
 _atom_site_fract_y
 _atom_site_fract_z
 _atom_site_occupancy
  Ni  Ni0  1  0.99832234  0.00049842  0.99826277  1
  Cr  Cr1  1  0.16609859  0.16681946  0.16651345  1
  Ni  Ni2  1  0.99641472  0.99919206  0.33446028  1
  Ni  Ni3  1  0.99900276  0.33102484  0.99665497  1
  Cr  Cr4  1  0.16606671  0.49938790  0.16735512  1
  Ni  Ni5  1  0.99726375  0.33098971  0.33478644  1
  Ni  Ni6  1  0.99916589  0.66829907  0.99699489  1
  Cr  Cr7  1  0.16416337  0.83359833  0.16716058  1
  Ni  Ni8  1  -0.00005338  0.66944848  0.33498189  1
  Ni  Ni9  1  0.33447929  0.00160069  0.99851080  1
  Ni  Ni10  1  0.50217659  0.16626218  0.16584495  1
  Fe  Fe11  1  0.33469827  0.99867393  0.33348688  1
  Ni  Ni12  1  0.33468187  0.33148848  0.99798535  1
  Ni  Ni13  1  0.49964409  0.49712919  0.16767474  1
  Ni  Ni14  1  0.33615712  0.33464020  0.33206355  1
  Cr  Cr15  1  0.33366782  0.66723069  0.99882758  1
  Ni  Ni16  1  0.50113242  0.83666986  0.16738658  1
  Ni  Ni17  1  0.33450812  0.66758933  0.33401409  1
  Ni  Ni18  1  0.66706845  0.00172355  0.00019951  1
  Ni  Ni19  1  0.83121944  0.16473312  0.16667025  1
  Ni  Ni20  1  0.66858905  0.00077566  0.33230328  1
  Ni  Ni21  1  0.66545081  0.33020977  0.99980799  1
  Cr  Cr22  1  0.83436885  0.49883361  0.16511751  1
  Ni  Ni23  1  0.66645016  0.33098175  0.33312273  1
  Cr  Cr24  1  0.66594330  0.66830975  0.99918891  1
  Ni  Ni25  1  0.83283220  0.83674567  0.16571089  1
  Cr  Cr26  1  0.66569134  0.66779568  0.33407454  1
  Cr  Cr27  1  0.16591366  0.16488619  0.50076987  1
  Ni  Ni28  1  0.99910413  0.99929178  0.66697699  1
  Ni  Ni29  1  0.16634642  0.16660176  0.83296579  1
  Cr  Cr30  1  0.16671548  0.50064040  0.49930236  1
  Ni  Ni31  1  0.00002049  0.33216394  0.66789649  1
  Ni  Ni32  1  0.16565464  0.49928344  0.83274231  1
  Ni  Ni33  1  0.16622513  0.83265724  0.50010022  1
  Ni  Ni34  1  0.99951971  0.66815799  0.66721244  1
  Ni  Ni35  1  0.16521541  0.83384601  0.83217471  1
  Cr  Cr36  1  0.50119401  0.16487679  0.50062231  1
  Ni  Ni37  1  0.33259899  0.99767115  0.66842355  1
  Ni  Ni38  1  0.49996088  0.16544604  0.83430142  1
  Ni  Ni39  1  0.50014872  0.50118341  0.49993228  1
  Ni  Ni40  1  0.33257584  0.33396779  0.66990958  1
  Ni  Ni41  1  0.49856288  0.49902645  0.83198447  1
  Ni  Ni42  1  0.50004154  0.83259031  0.50158887  1
  Ni  Ni43  1  0.33391894  0.66762851  0.66698769  1
  Ni  Ni44  1  0.50093765  0.83515135  0.83094387  1
  Ni  Ni45  1  0.83368084  0.16511855  0.49887868  1
  Ni  Ni46  1  0.66812539  0.99753854  0.66737733  1
  Ni  Ni47  1  0.83346148  0.16445532  0.83405607  1
  Ni  Ni48  1  0.83352159  0.50038494  0.50064013  1
  Cr  Cr49  1  0.66794548  0.33313258  0.66647446  1
  Fe  Fe50  1  0.83396249  0.50008797  0.83264045  1
  Ni  Ni51  1  0.83365184  0.83417625  0.50110571  1
  Ni  Ni52  1  0.66604505  0.66854602  0.66602850  1
  Ni  Ni53  1  0.83363613  0.83472667  0.83269168  1
" 