6589,Ni76Fe22Cr0_0,-242.337939547337, 209.950499632127,Ni76Fe22Cr0,"# generated using pymatgen
 data_CrFe12Ni41
_symmetry_space_group_name_H-M   'P 1'
_cell_length_a   7.42214464
_cell_length_b   7.42214464
_cell_length_c   10.49649761
_cell_angle_alpha   90.00000000
_cell_angle_beta   90.00000000
_cell_angle_gamma   90.00000000
_symmetry_Int_Tables_number   1
_chemical_formula_structural   CrFe12Ni41
_chemical_formula_sum   'Cr1 Fe12 Ni41'
_cell_volume   578.23348601
_cell_formula_units_Z   1
loop_
 _symmetry_equiv_pos_site_id
 _symmetry_equiv_pos_as_xyz
  1  'x, y, z'
loop_
 _atom_site_type_symbol
 _atom_site_label
 _atom_site_symmetry_multiplicity
 _atom_site_fract_x
 _atom_site_fract_y
 _atom_site_fract_z
 _atom_site_occupancy
  Ni  Ni0  1  1.00192847  1.00250047  0.00365268  1
  Fe  Fe1  1  0.16684948  0.16906162  0.17020328  1
  Ni  Ni2  1  1.00089012  1.00279373  0.33698950  1
  Fe  Fe3  1  1.00237564  0.33582264  0.00330079  1
  Ni  Ni4  1  0.16938703  0.50563007  0.16750453  1
  Ni  Ni5  1  1.00138506  0.33750813  0.33611326  1
  Ni  Ni6  1  1.00295462  0.66963845  1.00286943  1
  Ni  Ni7  1  0.17086177  0.83521156  0.17061363  1
  Ni  Ni8  1  0.00335358  0.66879943  0.33621791  1
  Ni  Ni9  1  0.33679623  0.00387737  0.00373482  1
  Ni  Ni10  1  0.50310764  0.16982522  0.16858175  1
  Ni  Ni11  1  0.33793264  1.00208859  0.33591951  1
  Ni  Ni12  1  0.33570115  0.33618800  1.00258242  1
  Fe  Fe13  1  0.50405618  0.50403418  0.16733462  1
  Cr  Cr14  1  0.33560794  0.33767831  0.33823163  1
  Ni  Ni15  1  0.33702402  0.66885353  1.00278146  1
  Fe  Fe16  1  0.50461325  0.83645728  0.16969765  1
  Ni  Ni17  1  0.33700879  0.66969480  0.33586881  1
  Ni  Ni18  1  0.67019648  1.00266801  1.00231328  1
  Ni  Ni19  1  0.83267083  0.17005373  0.16952022  1
  Ni  Ni20  1  0.67023286  0.00306254  0.33642965  1
  Fe  Fe21  1  0.66874891  0.33627890  1.00173937  1
  Ni  Ni22  1  0.83700200  0.50287679  0.16894438  1
  Fe  Fe23  1  0.67094253  0.33596123  0.33702075  1
  Ni  Ni24  1  0.67110661  0.67038780  1.00235977  1
  Ni  Ni25  1  0.83858300  0.83607723  0.16947470  1
  Fe  Fe26  1  0.67104456  0.67077564  0.33594915  1
  Ni  Ni27  1  0.16977825  0.16871677  0.50371827  1
  Ni  Ni28  1  1.00169882  1.00239722  0.66842621  1
  Fe  Fe29  1  0.16830937  0.16866959  0.83517658  1
  Ni  Ni30  1  0.16838523  0.50474701  0.50509854  1
  Ni  Ni31  1  1.00190172  0.33682584  0.66975284  1
  Fe  Fe32  1  0.16892955  0.50260867  0.83623828  1
  Ni  Ni33  1  0.17081113  0.83538486  0.50197551  1
  Ni  Ni34  1  0.00314668  0.66960276  0.66992222  1
  Ni  Ni35  1  0.17052067  0.83604059  0.83642112  1
  Ni  Ni36  1  0.50390675  0.16852664  0.50451887  1
  Ni  Ni37  1  0.33717845  1.00284014  0.66947017  1
  Ni  Ni38  1  0.50199778  0.17018375  0.83584278  1
  Fe  Fe39  1  0.50354666  0.50492068  0.50553433  1
  Ni  Ni40  1  0.33655276  0.33686510  0.66911016  1
  Ni  Ni41  1  0.50246017  0.50120224  0.83633501  1
  Ni  Ni42  1  0.50214134  0.83747482  0.50355849  1
  Ni  Ni43  1  0.33578756  0.66924157  0.67043901  1
  Fe  Fe44  1  0.50469018  0.83627477  0.83622596  1
  Ni  Ni45  1  0.83541655  0.17053512  0.50283596  1
  Ni  Ni46  1  0.67057110  0.00353399  0.67041970  1
  Ni  Ni47  1  0.83433322  0.16966850  0.83642139  1
  Ni  Ni48  1  0.83708622  0.50300015  0.50298653  1
  Ni  Ni49  1  0.66965410  0.33574460  0.66931652  1
  Ni  Ni50  1  0.83570057  0.50292470  0.83690919  1
  Ni  Ni51  1  0.83632615  0.83548819  0.50334340  1
  Fe  Fe52  1  0.67046990  0.66972639  0.67102583  1
  Ni  Ni53  1  0.83968405  0.83639642  0.83637450  1
" 