6264,Ni76Fe7Cr15_2,-234.04886104703, 168.991893830811,Ni76Fe7Cr15,"# generated using pymatgen
 data_Cr9Fe4Ni41
_symmetry_space_group_name_H-M   'P 1'
_cell_length_a   7.45956128
_cell_length_b   7.45956128
_cell_length_c   10.54941273
_cell_angle_alpha   90.00000000
_cell_angle_beta   90.00000000
_cell_angle_gamma   90.00000000
_symmetry_Int_Tables_number   1
_chemical_formula_structural   Cr9Fe4Ni41
_chemical_formula_sum   'Cr9 Fe4 Ni41'
_cell_volume   587.02264534
_cell_formula_units_Z   1
loop_
 _symmetry_equiv_pos_site_id
 _symmetry_equiv_pos_as_xyz
  1  'x, y, z'
loop_
 _atom_site_type_symbol
 _atom_site_label
 _atom_site_symmetry_multiplicity
 _atom_site_fract_x
 _atom_site_fract_y
 _atom_site_fract_z
 _atom_site_occupancy
  Ni  Ni0  1  0.99903189  0.00150710  0.99972188  1
  Ni  Ni1  1  0.16493490  0.16569415  0.16780701  1
  Ni  Ni2  1  0.99794787  0.00255437  0.33396066  1
  Ni  Ni3  1  0.99794988  0.33253290  0.99912658  1
  Cr  Cr4  1  0.16280125  0.49948874  0.16785256  1
  Ni  Ni5  1  0.00058872  0.33158165  0.33425332  1
  Ni  Ni6  1  0.99816641  0.66750601  0.99926940  1
  Cr  Cr7  1  0.16613256  0.83715018  0.16716468  1
  Ni  Ni8  1  0.99620823  0.66715941  0.33336732  1
  Ni  Ni9  1  0.33360091  0.99896719  0.00078302  1
  Fe  Fe10  1  0.50238887  0.16486571  0.16813894  1
  Ni  Ni11  1  0.33570549  0.00453620  0.33344520  1
  Cr  Cr12  1  0.33146999  0.33197495  0.00098770  1
  Cr  Cr13  1  0.50473818  0.50104647  0.16662787  1
  Ni  Ni14  1  0.33368547  0.33039475  0.33582372  1
  Ni  Ni15  1  0.33363092  0.67019763  0.99792155  1
  Ni  Ni16  1  0.50307595  0.83639352  0.16624614  1
  Cr  Cr17  1  0.33610939  0.66658257  0.33667049  1
  Ni  Ni18  1  0.66912496  0.99961770  0.00111229  1
  Ni  Ni19  1  0.83471627  0.16720895  0.16765278  1
  Ni  Ni20  1  0.66788072  1.00017225  0.33427106  1
  Ni  Ni21  1  0.67234865  0.33246367  0.00172982  1
  Ni  Ni22  1  0.83322993  0.49959059  0.16677978  1
  Ni  Ni23  1  0.66727513  0.33198113  0.33346119  1
  Ni  Ni24  1  0.66971675  0.66931193  1.00028560  1
  Ni  Ni25  1  0.83208139  0.83452996  0.16715253  1
  Ni  Ni26  1  0.66914658  0.66893097  0.33390332  1
  Ni  Ni27  1  0.16734246  0.16772381  0.50052536  1
  Ni  Ni28  1  0.99939471  0.00073750  0.66776301  1
  Ni  Ni29  1  0.16444723  0.16512437  0.83321875  1
  Ni  Ni30  1  0.16678909  0.49767688  0.50147481  1
  Fe  Fe31  1  0.00109201  0.33338246  0.66819213  1
  Ni  Ni32  1  0.16408161  0.50161548  0.83258334  1
  Cr  Cr33  1  0.16475823  0.83610469  0.49992362  1
  Ni  Ni34  1  1.00031897  0.66786587  0.66870934  1
  Ni  Ni35  1  0.16760129  0.83477088  0.83424266  1
  Ni  Ni36  1  0.50042751  0.16681150  0.49983954  1
  Ni  Ni37  1  0.33347505  0.00106048  0.66727699  1
  Cr  Cr38  1  0.50261165  0.16400707  0.83427955  1
  Ni  Ni39  1  0.50145912  0.49893509  0.50174409  1
  Ni  Ni40  1  0.33235727  0.33367296  0.66503790  1
  Cr  Cr41  1  0.50322068  0.50230666  0.83287189  1
  Ni  Ni42  1  0.50304663  0.83562478  0.50181014  1
  Ni  Ni43  1  0.33322374  0.66676572  0.66712009  1
  Ni  Ni44  1  0.50012474  0.83437404  0.83351214  1
  Fe  Fe45  1  0.83321581  0.16564849  0.50038203  1
  Ni  Ni46  1  0.66865219  1.00008721  0.66617883  1
  Ni  Ni47  1  0.83514001  0.16771441  0.83295728  1
  Cr  Cr48  1  0.83374108  0.50081180  0.49962310  1
  Ni  Ni49  1  0.66751136  0.33265240  0.66641585  1
  Ni  Ni50  1  0.83492175  0.49959185  0.83494412  1
  Ni  Ni51  1  0.83234381  0.83511405  0.50049256  1
  Ni  Ni52  1  0.66799469  0.66860167  0.66703765  1
  Fe  Fe53  1  0.83411694  0.83437414  0.83342372  1
" 