1309,Ni76Fe4Cr18_18,-232.218224025696, 161.596913854427,Ni76Fe4Cr18,"# generated using pymatgen
 data_Cr11Fe2Ni41
_symmetry_space_group_name_H-M   'P 1'
_cell_length_a   7.46557380
_cell_length_b   7.46557380
_cell_length_c   10.55791573
_cell_angle_alpha   90.00000000
_cell_angle_beta   90.00000000
_cell_angle_gamma   90.00000000
_symmetry_Int_Tables_number   1
_chemical_formula_structural   Cr11Fe2Ni41
_chemical_formula_sum   'Cr11 Fe2 Ni41'
_cell_volume   588.44323930
_cell_formula_units_Z   1
loop_
 _symmetry_equiv_pos_site_id
 _symmetry_equiv_pos_as_xyz
  1  'x, y, z'
loop_
 _atom_site_type_symbol
 _atom_site_label
 _atom_site_symmetry_multiplicity
 _atom_site_fract_x
 _atom_site_fract_y
 _atom_site_fract_z
 _atom_site_occupancy
  Ni  Ni0  1  0.99888606  0.00341515  0.00023314  1
  Ni  Ni1  1  0.16619841  0.16781106  0.16674756  1
  Ni  Ni2  1  0.99906842  0.00132754  0.33505874  1
  Ni  Ni3  1  0.99763840  0.33193386  0.00037744  1
  Ni  Ni4  1  0.16352513  0.49750770  0.16822283  1
  Ni  Ni5  1  0.00142968  0.33179843  0.33230983  1
  Ni  Ni6  1  0.99633364  0.66499609  0.00265581  1
  Cr  Cr7  1  0.16493084  0.83526572  0.16635343  1
  Ni  Ni8  1  1.00008677  0.66712102  0.33335900  1
  Ni  Ni9  1  0.33427340  0.00110139  0.00091384  1
  Ni  Ni10  1  0.50126134  0.16589310  0.16827415  1
  Ni  Ni11  1  0.33296932  0.00394225  0.33284797  1
  Cr  Cr12  1  0.33252184  0.33139400  0.00242911  1
  Ni  Ni13  1  0.50237799  0.49757402  0.16614177  1
  Ni  Ni14  1  0.33323137  0.33162630  0.33356555  1
  Cr  Cr15  1  0.33662617  0.66685718  0.00069394  1
  Ni  Ni16  1  0.50261855  0.83688978  0.16471577  1
  Cr  Cr17  1  0.33256133  0.66433535  0.33380883  1
  Ni  Ni18  1  0.66720878  0.99979588  0.00195002  1
  Ni  Ni19  1  0.83274867  0.16740932  0.16631419  1
  Ni  Ni20  1  0.66837077  0.00272482  0.33277500  1
  Ni  Ni21  1  0.66969727  0.33433005  0.00071773  1
  Ni  Ni22  1  0.83451174  0.49885645  0.16515953  1
  Ni  Ni23  1  0.66559531  0.33083297  0.33275670  1
  Ni  Ni24  1  0.66780084  0.66621220  0.00068767  1
  Ni  Ni25  1  0.83248134  0.83410838  0.16603367  1
  Cr  Cr26  1  0.66858235  0.66727070  0.33097626  1
  Ni  Ni27  1  0.16731479  0.16706056  0.50059599  1
  Ni  Ni28  1  0.00046758  0.00190300  0.66518454  1
  Ni  Ni29  1  0.16509608  0.16655260  0.83298897  1
  Ni  Ni30  1  0.16695045  0.49899332  0.50040339  1
  Ni  Ni31  1  0.00069414  0.33151421  0.66741444  1
  Cr  Cr32  1  0.16301407  0.49859258  0.83204432  1
  Ni  Ni33  1  0.16441108  0.83425135  0.50135744  1
  Ni  Ni34  1  0.99910717  0.66688582  0.66431640  1
  Cr  Cr35  1  0.16786886  0.83601106  0.83303381  1
  Ni  Ni36  1  0.50009983  0.16849491  0.49935692  1
  Ni  Ni37  1  0.33229266  0.00193839  0.66639339  1
  Cr  Cr38  1  0.50139822  0.16466288  0.83283212  1
  Ni  Ni39  1  0.49849888  0.49605007  0.50294129  1
  Ni  Ni40  1  0.33307238  0.33265201  0.66447603  1
  Fe  Fe41  1  0.50346536  0.50000248  0.83205249  1
  Cr  Cr42  1  0.50069031  0.83679772  0.50137214  1
  Fe  Fe43  1  0.33378295  0.66628340  0.66557394  1
  Ni  Ni44  1  0.50108859  0.83358799  0.83317396  1
  Ni  Ni45  1  0.83280888  0.16559273  0.50087094  1
  Ni  Ni46  1  0.66772291  0.00047544  0.66558057  1
  Ni  Ni47  1  0.83419254  0.16945782  0.83311003  1
  Cr  Cr48  1  0.83427399  0.49825455  0.50016336  1
  Ni  Ni49  1  0.66657977  0.33375167  0.66688115  1
  Ni  Ni50  1  0.83232627  0.49840475  0.83404709  1
  Ni  Ni51  1  0.83607635  0.83555912  0.50084583  1
  Ni  Ni52  1  0.66633292  0.66601629  0.66849038  1
  Cr  Cr53  1  0.83216740  0.83325274  0.83374977  1
" 