4193,Ni76Fe7Cr15_11,-234.196417113644, 171.257132804689,Ni76Fe7Cr15,"# generated using pymatgen
 data_Cr9Fe4Ni41
_symmetry_space_group_name_H-M   'P 1'
_cell_length_a   7.45654412
_cell_length_b   7.45654412
_cell_length_c   10.54514583
_cell_angle_alpha   90.00000000
_cell_angle_beta   90.00000000
_cell_angle_gamma   90.00000000
_symmetry_Int_Tables_number   1
_chemical_formula_structural   Cr9Fe4Ni41
_chemical_formula_sum   'Cr9 Fe4 Ni41'
_cell_volume   586.31063787
_cell_formula_units_Z   1
loop_
 _symmetry_equiv_pos_site_id
 _symmetry_equiv_pos_as_xyz
  1  'x, y, z'
loop_
 _atom_site_type_symbol
 _atom_site_label
 _atom_site_symmetry_multiplicity
 _atom_site_fract_x
 _atom_site_fract_y
 _atom_site_fract_z
 _atom_site_occupancy
  Ni  Ni0  1  0.00338387  0.00149343  0.00110451  1
  Fe  Fe1  1  0.16696696  0.16708028  0.16824866  1
  Ni  Ni2  1  0.00180449  0.00148870  0.33337248  1
  Ni  Ni3  1  0.99775337  0.33324140  0.00093247  1
  Ni  Ni4  1  0.16627882  0.50245891  0.16863997  1
  Ni  Ni5  1  0.00160440  0.33319645  0.33390159  1
  Ni  Ni6  1  1.00055823  0.66737765  0.00198462  1
  Ni  Ni7  1  0.16760206  0.83289312  0.16716350  1
  Ni  Ni8  1  0.00083960  0.66742502  0.33285192  1
  Ni  Ni9  1  0.33219694  0.99894633  0.99993430  1
  Ni  Ni10  1  0.50119277  0.16657369  0.16864339  1
  Ni  Ni11  1  0.33421658  0.00073303  0.33462543  1
  Cr  Cr12  1  0.33544127  0.33318186  0.00138255  1
  Ni  Ni13  1  0.50054581  0.50243462  0.16697558  1
  Ni  Ni14  1  0.33267772  0.33221187  0.33264071  1
  Ni  Ni15  1  0.33501551  0.66992608  0.00081916  1
  Ni  Ni16  1  0.49940384  0.83310449  0.16864314  1
  Ni  Ni17  1  0.33419948  0.66916581  0.33284205  1
  Cr  Cr18  1  0.66649639  0.00157435  0.00126385  1
  Ni  Ni19  1  0.83508095  0.16789940  0.16716267  1
  Ni  Ni20  1  0.66609218  0.99996903  0.33414358  1
  Ni  Ni21  1  0.66908359  0.33606005  0.99982141  1
  Ni  Ni22  1  0.83528920  0.50067425  0.16676494  1
  Cr  Cr23  1  0.66762207  0.33346251  0.33346364  1
  Ni  Ni24  1  0.66653802  0.66429447  0.00138957  1
  Fe  Fe25  1  0.83438299  0.83265338  0.16835761  1
  Ni  Ni26  1  0.66707186  0.66896606  0.33238739  1
  Ni  Ni27  1  0.16584245  0.16549155  0.49925862  1
  Ni  Ni28  1  0.00309480  0.00230217  0.66763561  1
  Ni  Ni29  1  0.16543659  0.16416459  0.83439856  1
  Cr  Cr30  1  0.16583514  0.50156964  0.49958590  1
  Ni  Ni31  1  0.99645965  0.33205938  0.66727587  1
  Cr  Cr32  1  0.16610112  0.50259997  0.83411768  1
  Ni  Ni33  1  0.16855207  0.83517527  0.50145175  1
  Ni  Ni34  1  1.00016226  0.66775117  0.66727751  1
  Ni  Ni35  1  0.16920302  0.83545267  0.83349867  1
  Ni  Ni36  1  0.50129748  0.16432678  0.50052268  1
  Ni  Ni37  1  0.33345779  0.99878285  0.66755104  1
  Ni  Ni38  1  0.50188752  0.16688982  0.83294832  1
  Cr  Cr39  1  0.50083864  0.50223413  0.50021497  1
  Cr  Cr40  1  0.33516524  0.33124360  0.66806829  1
  Ni  Ni41  1  0.50394218  0.50225654  0.83460434  1
  Ni  Ni42  1  0.49939231  0.83553324  0.50071091  1
  Ni  Ni43  1  0.33540109  0.67225670  0.66845220  1
  Ni  Ni44  1  0.49787975  0.83296614  0.83276078  1
  Ni  Ni45  1  0.83497237  0.16757841  0.50200501  1
  Fe  Fe46  1  0.66591407  0.00220866  0.66689308  1
  Ni  Ni47  1  0.83478854  0.17022640  0.83294951  1
  Fe  Fe48  1  0.83492503  0.49988035  0.50175905  1
  Ni  Ni49  1  0.67006803  0.33400040  0.66889131  1
  Ni  Ni50  1  0.83230416  0.49849234  0.83333111  1
  Cr  Cr51  1  0.83399585  0.83477205  0.49976436  1
  Ni  Ni52  1  0.66654850  0.66562346  0.66833274  1
  Cr  Cr53  1  0.83522827  0.83370837  0.83431236  1
" 