8425,Ni76Fe8Cr15_5,-234.031191054084, 170.673927005534,Ni76Fe8Cr15,"# generated using pymatgen
 data_Cr9Fe4Ni41
_symmetry_space_group_name_H-M   'P 1'
_cell_length_a   7.46052155
_cell_length_b   7.46052155
_cell_length_c   10.55077076
_cell_angle_alpha   90.00000000
_cell_angle_beta   90.00000000
_cell_angle_gamma   90.00000000
_symmetry_Int_Tables_number   1
_chemical_formula_structural   Cr9Fe4Ni41
_chemical_formula_sum   'Cr9 Fe4 Ni41'
_cell_volume   587.24937808
_cell_formula_units_Z   1
loop_
 _symmetry_equiv_pos_site_id
 _symmetry_equiv_pos_as_xyz
  1  'x, y, z'
loop_
 _atom_site_type_symbol
 _atom_site_label
 _atom_site_symmetry_multiplicity
 _atom_site_fract_x
 _atom_site_fract_y
 _atom_site_fract_z
 _atom_site_occupancy
  Ni  Ni0  1  0.00326493  0.99961586  0.00072741  1
  Ni  Ni1  1  0.16701150  0.16602210  0.16707789  1
  Ni  Ni2  1  0.00157780  1.00026542  0.33321469  1
  Ni  Ni3  1  0.00379195  0.33298179  0.00133873  1
  Ni  Ni4  1  0.16914839  0.50121250  0.16636792  1
  Ni  Ni5  1  0.00157947  0.33213013  0.33266523  1
  Ni  Ni6  1  0.00272275  0.66871870  1.00003813  1
  Ni  Ni7  1  0.16771890  0.83413456  0.16704573  1
  Fe  Fe8  1  0.00081714  0.66867690  0.33389888  1
  Ni  Ni9  1  0.33078701  0.00149023  0.00114169  1
  Ni  Ni10  1  0.49990219  0.16806542  0.16798493  1
  Ni  Ni11  1  0.33217688  0.00129793  0.33316706  1
  Ni  Ni12  1  0.33253698  0.33321109  0.00071263  1
  Ni  Ni13  1  0.49928542  0.50055116  0.16705946  1
  Ni  Ni14  1  0.33437504  0.33332885  0.33354697  1
  Ni  Ni15  1  0.33160719  0.66661709  0.00220045  1
  Fe  Fe16  1  0.49811584  0.83329059  0.16814725  1
  Ni  Ni17  1  0.33441352  0.66671365  0.33180197  1
  Cr  Cr18  1  0.66715169  0.00071722  0.00196023  1
  Ni  Ni19  1  0.83437527  0.16646768  0.16774021  1
  Ni  Ni20  1  0.66752665  1.00033854  0.33230928  1
  Ni  Ni21  1  0.66498024  0.33382776  0.00239727  1
  Cr  Cr22  1  0.83403665  0.49882136  0.16672823  1
  Ni  Ni23  1  0.66549144  0.33433286  0.33401496  1
  Ni  Ni24  1  0.66706554  0.66693854  0.00182120  1
  Fe  Fe25  1  0.83543332  0.83469920  0.16781648  1
  Ni  Ni26  1  0.66636562  0.66662363  0.33437257  1
  Ni  Ni27  1  0.16854933  0.16476375  0.50006931  1
  Ni  Ni28  1  0.00274989  0.99872311  0.66739826  1
  Ni  Ni29  1  0.16855089  0.16628644  0.83417477  1
  Cr  Cr30  1  0.16704481  0.50084022  0.49950528  1
  Ni  Ni31  1  0.00189774  0.33397728  0.66735611  1
  Ni  Ni32  1  0.16681257  0.50113478  0.83482736  1
  Ni  Ni33  1  0.16571999  0.83552404  0.50070130  1
  Ni  Ni34  1  0.00073552  0.66855863  0.66671617  1
  Ni  Ni35  1  0.16570127  0.83384327  0.83350969  1
  Ni  Ni36  1  0.49916068  0.16833279  0.50066987  1
  Ni  Ni37  1  0.33153598  0.00186613  0.66705869  1
  Ni  Ni38  1  0.49785393  0.16740357  0.83265481  1
  Ni  Ni39  1  0.50247197  0.49941685  0.50021147  1
  Fe  Fe40  1  0.33331305  0.33211927  0.66696552  1
  Cr  Cr41  1  0.49918416  0.49950300  0.83411149  1
  Cr  Cr42  1  0.49908087  0.83435724  0.50029310  1
  Ni  Ni43  1  0.33170855  0.66748793  0.66734813  1
  Cr  Cr44  1  0.49893088  0.83448087  0.83348097  1
  Cr  Cr45  1  0.83419834  0.16716975  0.49990589  1
  Ni  Ni46  1  0.66700708  0.00059522  0.66706539  1
  Cr  Cr47  1  0.83455250  0.16677090  0.83384956  1
  Ni  Ni48  1  0.83189173  0.50194912  0.50060562  1
  Ni  Ni49  1  0.66570370  0.33405833  0.66490241  1
  Cr  Cr50  1  0.83532367  0.50155252  0.83413026  1
  Ni  Ni51  1  0.83522355  0.83220892  0.50045943  1
  Ni  Ni52  1  0.66884046  0.66664425  0.66526817  1
  Ni  Ni53  1  0.83661570  0.83295920  0.83308163  1
" 