7177,Ni76Fe22Cr0_9,-242.098207213412, 209.626315714183,Ni76Fe22Cr0,"# generated using pymatgen
 data_CrFe12Ni41
_symmetry_space_group_name_H-M   'P 1'
_cell_length_a   7.42119605
_cell_length_b   7.42119605
_cell_length_c   10.49515611
_cell_angle_alpha   90.00000000
_cell_angle_beta   90.00000000
_cell_angle_gamma   90.00000000
_symmetry_Int_Tables_number   1
_chemical_formula_structural   CrFe12Ni41
_chemical_formula_sum   'Cr1 Fe12 Ni41'
_cell_volume   578.01181084
_cell_formula_units_Z   1
loop_
 _symmetry_equiv_pos_site_id
 _symmetry_equiv_pos_as_xyz
  1  'x, y, z'
loop_
 _atom_site_type_symbol
 _atom_site_label
 _atom_site_symmetry_multiplicity
 _atom_site_fract_x
 _atom_site_fract_y
 _atom_site_fract_z
 _atom_site_occupancy
  Ni  Ni0  1  1.00285913  1.00209192  0.00426039  1
  Ni  Ni1  1  0.17015654  0.17000601  0.16957203  1
  Fe  Fe2  1  0.00538201  0.00365498  0.33654173  1
  Fe  Fe3  1  0.00370079  0.33664964  0.00370547  1
  Ni  Ni4  1  0.16907178  0.50263551  0.16927372  1
  Ni  Ni5  1  0.00312591  0.33736777  0.33659228  1
  Ni  Ni6  1  0.00361766  0.67070835  1.00307488  1
  Ni  Ni7  1  0.16907903  0.83662887  0.16996327  1
  Ni  Ni8  1  0.00410903  0.66935853  0.33654090  1
  Ni  Ni9  1  0.33625870  0.00345347  1.00297407  1
  Ni  Ni10  1  0.50196894  0.17052304  0.16897922  1
  Ni  Ni11  1  0.33536237  0.00315285  0.33683136  1
  Ni  Ni12  1  0.33706425  0.33640643  0.00383551  1
  Ni  Ni13  1  0.50380136  0.50286244  0.16934309  1
  Ni  Ni14  1  0.33647646  0.33660782  0.33630912  1
  Ni  Ni15  1  0.33543434  0.66940786  0.00333306  1
  Ni  Ni16  1  0.50327419  0.83588019  0.16860118  1
  Ni  Ni17  1  0.33488228  0.66950619  0.33621437  1
  Ni  Ni18  1  0.67015337  0.00371896  1.00288574  1
  Fe  Fe19  1  0.83684626  0.17074549  0.16927679  1
  Cr  Cr20  1  0.66921070  0.00423823  0.33587997  1
  Ni  Ni21  1  0.66885047  0.33564497  0.00358047  1
  Ni  Ni22  1  0.83639312  0.50394126  0.17036068  1
  Ni  Ni23  1  0.66966491  0.33689023  0.33665854  1
  Ni  Ni24  1  0.67021482  0.66990304  0.00380613  1
  Ni  Ni25  1  0.83691423  0.83479536  0.16816293  1
  Fe  Fe26  1  0.66913821  0.66774357  0.33619969  1
  Ni  Ni27  1  0.16930522  0.17086477  0.50342071  1
  Ni  Ni28  1  1.00217153  1.00226685  0.66869671  1
  Ni  Ni29  1  0.16986989  0.17037623  0.83627781  1
  Ni  Ni30  1  0.16978243  0.50226272  0.50317308  1
  Fe  Fe31  1  0.00331318  0.33665979  0.66908575  1
  Ni  Ni32  1  0.16884314  0.50297196  0.83682132  1
  Fe  Fe33  1  0.17009160  0.83644411  0.50306993  1
  Ni  Ni34  1  0.00375544  0.67090099  0.66965250  1
  Ni  Ni35  1  0.16952875  0.83592008  0.83608008  1
  Ni  Ni36  1  0.50262943  0.17061080  0.50429282  1
  Fe  Fe37  1  0.33717868  1.00286171  0.67001781  1
  Ni  Ni38  1  0.50334116  0.16910197  0.83599478  1
  Ni  Ni39  1  0.50289068  0.50325685  0.50338740  1
  Ni  Ni40  1  0.33711609  0.33686634  0.66912164  1
  Fe  Fe41  1  0.50173569  0.50297082  0.83630494  1
  Ni  Ni42  1  0.50394308  0.83539597  0.50409985  1
  Ni  Ni43  1  0.33552531  0.66879703  0.66971875  1
  Ni  Ni44  1  0.50392108  0.83695937  0.83656587  1
  Ni  Ni45  1  0.83733679  0.16981433  0.50403195  1
  Ni  Ni46  1  0.67075677  0.00385711  0.67004504  1
  Fe  Fe47  1  0.83643038  0.16885854  0.83585526  1
  Fe  Fe48  1  0.83589275  0.50258445  0.50261913  1
  Ni  Ni49  1  0.66865035  0.33527700  0.66903045  1
  Fe  Fe50  1  0.83641460  0.50347937  0.83693072  1
  Ni  Ni51  1  0.83634378  0.83587602  0.50456604  1
  Ni  Ni52  1  0.66998723  0.67012959  0.66889651  1
  Fe  Fe53  1  0.83705253  0.83693063  0.83630497  1
" 