395,Ni76Fe16Cr7_17,-238.372441793579, 192.490258264522,Ni76Fe16Cr7,"# generated using pymatgen
 data_Cr5Fe8Ni41
_symmetry_space_group_name_H-M   'P 1'
_cell_length_a   7.43862017
_cell_length_b   7.43862017
_cell_length_c   10.51979753
_cell_angle_alpha   90.00000000
_cell_angle_beta   90.00000000
_cell_angle_gamma   90.00000000
_symmetry_Int_Tables_number   1
_chemical_formula_structural   Cr5Fe8Ni41
_chemical_formula_sum   'Cr5 Fe8 Ni41'
_cell_volume   582.09269418
_cell_formula_units_Z   1
loop_
 _symmetry_equiv_pos_site_id
 _symmetry_equiv_pos_as_xyz
  1  'x, y, z'
loop_
 _atom_site_type_symbol
 _atom_site_label
 _atom_site_symmetry_multiplicity
 _atom_site_fract_x
 _atom_site_fract_y
 _atom_site_fract_z
 _atom_site_occupancy
  Fe  Fe0  1  1.00149118  0.00201757  0.00252992  1
  Ni  Ni1  1  0.16864442  0.16832937  0.16890715  1
  Ni  Ni2  1  1.00146781  0.00215246  0.33576243  1
  Ni  Ni3  1  0.00256675  0.33542436  0.00258510  1
  Ni  Ni4  1  0.16533056  0.50110088  0.17011761  1
  Ni  Ni5  1  0.00358760  0.33420683  0.33371851  1
  Ni  Ni6  1  1.00092536  0.66811394  0.00216089  1
  Ni  Ni7  1  0.16706548  0.83630375  0.16944691  1
  Ni  Ni8  1  0.00379021  0.66937353  0.33384543  1
  Fe  Fe9  1  0.33576104  0.00373519  1.00170881  1
  Ni  Ni10  1  0.50202400  0.16695057  0.16859637  1
  Fe  Fe11  1  0.33496688  0.00208593  0.33513059  1
  Ni  Ni12  1  0.33354000  0.33252483  1.00038342  1
  Cr  Cr13  1  0.50387962  0.50068346  0.16954999  1
  Ni  Ni14  1  0.33371003  0.33494850  0.33651591  1
  Cr  Cr15  1  0.33413230  0.66927870  1.00064371  1
  Ni  Ni16  1  0.50334309  0.83794322  0.16986421  1
  Ni  Ni17  1  0.33385935  0.66898500  0.33663977  1
  Ni  Ni18  1  0.66816419  0.00198962  0.00195158  1
  Ni  Ni19  1  0.83506215  0.16868743  0.16909796  1
  Ni  Ni20  1  0.66882407  0.00200393  0.33526899  1
  Ni  Ni21  1  0.66962621  0.33305884  1.00089416  1
  Ni  Ni22  1  0.83670058  0.50241836  0.16842648  1
  Ni  Ni23  1  0.66843588  0.33262807  0.33510299  1
  Ni  Ni24  1  0.67106457  0.67068375  1.00104467  1
  Ni  Ni25  1  0.83532268  0.83462628  0.16906035  1
  Ni  Ni26  1  0.66808232  0.67110086  0.33465365  1
  Ni  Ni27  1  0.16940935  0.16781998  0.50021267  1
  Fe  Fe28  1  1.00090413  0.99984102  0.66824052  1
  Ni  Ni29  1  0.16957678  0.16849587  0.83661416  1
  Ni  Ni30  1  0.17095094  0.50292722  0.50132234  1
  Cr  Cr31  1  0.00354136  0.33512566  0.66925700  1
  Ni  Ni32  1  0.16821707  0.50170383  0.83429288  1
  Ni  Ni33  1  0.16704249  0.83498317  0.50153012  1
  Ni  Ni34  1  0.00344646  0.67062683  0.66972393  1
  Ni  Ni35  1  0.16615534  0.83553251  0.83475762  1
  Ni  Ni36  1  0.50245261  0.17007380  0.50111830  1
  Cr  Cr37  1  0.33592898  1.00172334  0.66895420  1
  Ni  Ni38  1  0.50216289  0.16991318  0.83601689  1
  Ni  Ni39  1  0.50105917  0.50082368  0.50280115  1
  Ni  Ni40  1  0.33627380  0.33695980  0.66883169  1
  Ni  Ni41  1  0.50362466  0.50038543  0.83311956  1
  Fe  Fe42  1  0.50181375  0.83392201  0.50125363  1
  Ni  Ni43  1  0.33463417  0.66718174  0.66855440  1
  Ni  Ni44  1  0.50426529  0.83543396  0.83473783  1
  Fe  Fe45  1  0.83456733  0.16697816  0.50033749  1
  Ni  Ni46  1  0.66961331  1.00174225  0.66851112  1
  Fe  Fe47  1  0.83386581  0.16806788  0.83644926  1
  Cr  Cr48  1  0.83373359  0.50323228  0.50043074  1
  Ni  Ni49  1  0.66616420  0.33369863  0.66973398  1
  Ni  Ni50  1  0.83389070  0.50380569  0.83653550  1
  Fe  Fe51  1  0.83556118  0.83646556  0.50180677  1
  Ni  Ni52  1  0.66764931  0.67028996  0.67003226  1
  Ni  Ni53  1  0.83531023  0.83407458  0.83439964  1
" 