280,Ni76Fe22Cr0_6,-242.105029616252, 207.646108313178,Ni76Fe22Cr0,"# generated using pymatgen
 data_CrFe12Ni41
_symmetry_space_group_name_H-M   'P 1'
_cell_length_a   7.42557467
_cell_length_b   7.42557467
_cell_length_c   10.50134841
_cell_angle_alpha   90.00000000
_cell_angle_beta   90.00000000
_cell_angle_gamma   90.00000000
_symmetry_Int_Tables_number   1
_chemical_formula_structural   CrFe12Ni41
_chemical_formula_sum   'Cr1 Fe12 Ni41'
_cell_volume   579.03552236
_cell_formula_units_Z   1
loop_
 _symmetry_equiv_pos_site_id
 _symmetry_equiv_pos_as_xyz
  1  'x, y, z'
loop_
 _atom_site_type_symbol
 _atom_site_label
 _atom_site_symmetry_multiplicity
 _atom_site_fract_x
 _atom_site_fract_y
 _atom_site_fract_z
 _atom_site_occupancy
  Ni  Ni0  1  0.00483310  1.00186820  0.00295184  1
  Ni  Ni1  1  0.16868838  0.16841832  0.16930638  1
  Ni  Ni2  1  1.00240149  1.00226520  0.33551159  1
  Fe  Fe3  1  1.00255490  0.33546578  0.00344960  1
  Fe  Fe4  1  0.16879518  0.50249516  0.17017911  1
  Ni  Ni5  1  0.00366985  0.33599647  0.33640674  1
  Ni  Ni6  1  1.00167370  0.67021405  1.00265866  1
  Ni  Ni7  1  0.17080503  0.83720022  0.16920311  1
  Ni  Ni8  1  1.00200658  0.67011774  0.33636368  1
  Ni  Ni9  1  0.33398075  0.00462591  0.00280271  1
  Fe  Fe10  1  0.50170230  0.16999566  0.17036506  1
  Fe  Fe11  1  0.33602914  0.00291365  0.33610356  1
  Ni  Ni12  1  0.33629084  0.33519253  1.00232616  1
  Fe  Fe13  1  0.50298441  0.50248842  0.16954939  1
  Ni  Ni14  1  0.33636729  0.33569146  0.33669783  1
  Fe  Fe15  1  0.33613390  0.67096602  1.00225611  1
  Ni  Ni16  1  0.50080294  0.83465886  0.17004787  1
  Fe  Fe17  1  0.33617830  0.66950916  0.33696917  1
  Cr  Cr18  1  0.66996346  1.00202137  1.00161286  1
  Ni  Ni19  1  0.83788884  0.17200094  0.17021664  1
  Ni  Ni20  1  0.66996758  1.00252761  0.33674766  1
  Fe  Fe21  1  0.67005511  0.33763106  1.00225464  1
  Ni  Ni22  1  0.83534274  0.50175885  0.16943598  1
  Ni  Ni23  1  0.66833468  0.33609429  0.33539684  1
  Ni  Ni24  1  0.67067806  0.66789204  1.00256775  1
  Fe  Fe25  1  0.83756990  0.83557454  0.17036630  1
  Ni  Ni26  1  0.67026265  0.66975572  0.33619582  1
  Ni  Ni27  1  0.16933535  0.16939105  0.50236803  1
  Ni  Ni28  1  0.00329285  1.00182873  0.66991566  1
  Ni  Ni29  1  0.16951757  0.16829005  0.83670885  1
  Ni  Ni30  1  0.16934620  0.50279847  0.50243864  1
  Fe  Fe31  1  0.00297910  0.33637185  0.66879652  1
  Fe  Fe32  1  0.16975294  0.50296789  0.83552839  1
  Ni  Ni33  1  0.16987112  0.83618954  0.50243799  1
  Ni  Ni34  1  1.00209181  0.67076919  0.66935375  1
  Ni  Ni35  1  0.17002343  0.83715617  0.83674542  1
  Ni  Ni36  1  0.50261978  0.16976492  0.50215384  1
  Ni  Ni37  1  0.33534247  0.00384494  0.66970173  1
  Ni  Ni38  1  0.50134722  0.17060286  0.83607339  1
  Ni  Ni39  1  0.50324726  0.50305783  0.50218791  1
  Ni  Ni40  1  0.33737605  0.33549024  0.66935311  1
  Ni  Ni41  1  0.50396550  0.50320742  0.83686863  1
  Ni  Ni42  1  0.50234503  0.83555185  0.50307115  1
  Ni  Ni43  1  0.33625808  0.66904200  0.66994675  1
  Ni  Ni44  1  0.50111013  0.83457494  0.83526378  1
  Ni  Ni45  1  0.83641913  0.17029892  0.50253493  1
  Fe  Fe46  1  0.66892603  1.00237472  0.66917513  1
  Ni  Ni47  1  0.83751549  0.17113382  0.83561892  1
  Ni  Ni48  1  0.83578481  0.50251532  0.50256259  1
  Ni  Ni49  1  0.66800746  0.33669400  0.66983180  1
  Ni  Ni50  1  0.83493120  0.50270803  0.83637560  1
  Ni  Ni51  1  0.83615976  0.83556361  0.50182833  1
  Ni  Ni52  1  0.67002884  0.66873431  0.66961746  1
  Ni  Ni53  1  0.83724326  0.83453709  0.83639764  1
" 