7463,Ni76Fe7Cr15_3,-234.154061404718, 170.93868537299,Ni76Fe7Cr15,"# generated using pymatgen
 data_Cr9Fe4Ni41
_symmetry_space_group_name_H-M   'P 1'
_cell_length_a   7.45967329
_cell_length_b   7.45967329
_cell_length_c   10.54957114
_cell_angle_alpha   90.00000000
_cell_angle_beta   90.00000000
_cell_angle_gamma   90.00000000
_symmetry_Int_Tables_number   1
_chemical_formula_structural   Cr9Fe4Ni41
_chemical_formula_sum   'Cr9 Fe4 Ni41'
_cell_volume   587.04909037
_cell_formula_units_Z   1
loop_
 _symmetry_equiv_pos_site_id
 _symmetry_equiv_pos_as_xyz
  1  'x, y, z'
loop_
 _atom_site_type_symbol
 _atom_site_label
 _atom_site_symmetry_multiplicity
 _atom_site_fract_x
 _atom_site_fract_y
 _atom_site_fract_z
 _atom_site_occupancy
  Cr  Cr0  1  1.00036132  0.99765237  0.00243227  1
  Ni  Ni1  1  0.16693377  0.16805507  0.16801414  1
  Fe  Fe2  1  0.99907986  0.00148043  0.33378034  1
  Cr  Cr3  1  1.00003026  0.33741084  0.00126759  1
  Ni  Ni4  1  0.16840204  0.50069228  0.16759858  1
  Ni  Ni5  1  1.00037613  0.33383832  0.33364041  1
  Ni  Ni6  1  0.00064119  0.66701630  1.00016011  1
  Ni  Ni7  1  0.16587306  0.83273385  0.16642469  1
  Fe  Fe8  1  1.00046856  0.66582727  0.33343598  1
  Ni  Ni9  1  0.33561522  1.00011833  0.99975151  1
  Fe  Fe10  1  0.50136233  0.16968903  0.16624723  1
  Cr  Cr11  1  0.33360090  0.00052100  0.33462923  1
  Ni  Ni12  1  0.33519258  0.33383578  0.00241562  1
  Ni  Ni13  1  0.50052842  0.49933222  0.16753647  1
  Ni  Ni14  1  0.33257602  0.33583514  0.33399139  1
  Ni  Ni15  1  0.33193877  0.66755112  0.00079157  1
  Cr  Cr16  1  0.50114739  0.83168723  0.16558969  1
  Ni  Ni17  1  0.33306587  0.66506121  0.33449501  1
  Ni  Ni18  1  0.66515243  1.00024403  1.00035643  1
  Ni  Ni19  1  0.83291227  0.16723728  0.16884823  1
  Ni  Ni20  1  0.66983358  0.00087235  0.33451395  1
  Ni  Ni21  1  0.66566669  0.33385197  0.00241104  1
  Ni  Ni22  1  0.83252964  0.50048491  0.16708716  1
  Ni  Ni23  1  0.66851613  0.33407582  0.33366803  1
  Ni  Ni24  1  0.66889511  0.66744298  1.00021259  1
  Ni  Ni25  1  0.83425792  0.83378202  0.16804645  1
  Ni  Ni26  1  0.66774760  0.66654945  0.33483532  1
  Ni  Ni27  1  0.16680275  0.16678725  0.50095981  1
  Ni  Ni28  1  0.00062633  0.99737862  0.66484073  1
  Cr  Cr29  1  0.17083919  0.16633510  0.83210191  1
  Ni  Ni30  1  0.16735515  0.50045078  0.49893176  1
  Cr  Cr31  1  0.00051772  0.33606723  0.66676334  1
  Ni  Ni32  1  0.16635140  0.50341796  0.83496485  1
  Ni  Ni33  1  0.16646924  0.83421124  0.50073736  1
  Ni  Ni34  1  0.99890555  0.66864460  0.66789225  1
  Ni  Ni35  1  0.16715820  0.83227432  0.83431827  1
  Ni  Ni36  1  0.50163086  0.16780676  0.50175255  1
  Ni  Ni37  1  0.33471422  0.00120867  0.66700888  1
  Ni  Ni38  1  0.50053523  0.16522163  0.83432776  1
  Ni  Ni39  1  0.50166036  0.50003285  0.49929941  1
  Ni  Ni40  1  0.33502587  0.33162994  0.66512800  1
  Cr  Cr41  1  0.50154441  0.49965489  0.83446971  1
  Ni  Ni42  1  0.50155703  0.83365017  0.50102061  1
  Cr  Cr43  1  0.33328459  0.66808488  0.66611697  1
  Ni  Ni44  1  0.50135575  0.83628756  0.83474862  1
  Ni  Ni45  1  0.83307165  0.16684474  0.49965854  1
  Ni  Ni46  1  0.66611729  0.99973122  0.66667824  1
  Cr  Cr47  1  0.83012699  0.16671098  0.83270397  1
  Ni  Ni48  1  0.83245496  0.50032741  0.50027292  1
  Ni  Ni49  1  0.66611099  0.33344801  0.66545999  1
  Ni  Ni50  1  0.83355418  0.50425161  0.83414230  1
  Fe  Fe51  1  0.83325364  0.83379674  0.50105369  1
  Ni  Ni52  1  0.66998394  0.66831461  0.66644290  1
  Ni  Ni53  1  0.83297854  0.83124271  0.83271470  1
" 