6065,Ni76Fe4Cr18_15,-232.101812035993, 160.959207881623,Ni76Fe4Cr18,"# generated using pymatgen
 data_Cr11Fe2Ni41
_symmetry_space_group_name_H-M   'P 1'
_cell_length_a   7.46935916
_cell_length_b   7.46935916
_cell_length_c   10.56326902
_cell_angle_alpha   90.00000000
_cell_angle_beta   90.00000000
_cell_angle_gamma   90.00000000
_symmetry_Int_Tables_number   1
_chemical_formula_structural   Cr11Fe2Ni41
_chemical_formula_sum   'Cr11 Fe2 Ni41'
_cell_volume   589.33878776
_cell_formula_units_Z   1
loop_
 _symmetry_equiv_pos_site_id
 _symmetry_equiv_pos_as_xyz
  1  'x, y, z'
loop_
 _atom_site_type_symbol
 _atom_site_label
 _atom_site_symmetry_multiplicity
 _atom_site_fract_x
 _atom_site_fract_y
 _atom_site_fract_z
 _atom_site_occupancy
  Ni  Ni0  1  0.00193334  0.00043278  0.00043395  1
  Ni  Ni1  1  0.16677132  0.16460322  0.16642249  1
  Ni  Ni2  1  0.99939764  0.99870544  0.33237808  1
  Ni  Ni3  1  0.00007018  0.33134848  0.99942819  1
  Ni  Ni4  1  0.16795641  0.50172349  0.16641493  1
  Cr  Cr5  1  0.00260037  0.33087581  0.33311462  1
  Ni  Ni6  1  0.00279324  0.66774903  0.00098312  1
  Ni  Ni7  1  0.16662531  0.83317226  0.16620599  1
  Ni  Ni8  1  0.00295389  0.66982737  0.33222946  1
  Ni  Ni9  1  0.33031701  0.99868749  0.00102708  1
  Ni  Ni10  1  0.49981548  0.16640826  0.16820009  1
  Fe  Fe11  1  0.33354543  0.99960528  0.33313011  1
  Cr  Cr12  1  0.33327510  0.33327339  0.00013207  1
  Ni  Ni13  1  0.49955872  0.50076483  0.16767655  1
  Ni  Ni14  1  0.33496030  0.33423089  0.33325439  1
  Ni  Ni15  1  0.33210194  0.66691612  0.00003561  1
  Ni  Ni16  1  0.49901774  0.83229960  0.16722161  1
  Ni  Ni17  1  0.33321542  0.66565846  0.33352746  1
  Cr  Cr18  1  0.66659773  0.00162388  0.00123271  1
  Ni  Ni19  1  0.83292754  0.16511172  0.16645211  1
  Ni  Ni20  1  0.66663017  0.00041767  0.33269436  1
  Ni  Ni21  1  0.66643053  0.33313968  0.99960144  1
  Cr  Cr22  1  0.83259154  0.50064984  0.16523520  1
  Ni  Ni23  1  0.66249062  0.33066938  0.33309305  1
  Ni  Ni24  1  0.66465346  0.66504441  0.00194984  1
  Ni  Ni25  1  0.83387573  0.83347089  0.16763806  1
  Ni  Ni26  1  0.66332534  0.66840701  0.33195301  1
  Ni  Ni27  1  0.16791258  0.16616718  0.50111101  1
  Ni  Ni28  1  0.00126473  0.00378522  0.66672098  1
  Ni  Ni29  1  0.16583125  0.16573254  0.83201822  1
  Ni  Ni30  1  0.16930147  0.49988281  0.50017431  1
  Ni  Ni31  1  0.00184340  0.32903511  0.66672073  1
  Ni  Ni32  1  0.16794840  0.49972730  0.83293151  1
  Ni  Ni33  1  0.16970683  0.83351345  0.49952147  1
  Cr  Cr34  1  0.00514150  0.66689275  0.66606328  1
  Ni  Ni35  1  0.16784872  0.83406345  0.83379797  1
  Ni  Ni36  1  0.49983578  0.16589039  0.50020454  1
  Ni  Ni37  1  0.33239460  0.00084972  0.66554226  1
  Ni  Ni38  1  0.49966693  0.16837894  0.83114967  1
  Fe  Fe39  1  0.49666135  0.49844438  0.49884010  1
  Ni  Ni40  1  0.33308054  0.33321155  0.66647777  1
  Ni  Ni41  1  0.49841648  0.49803043  0.83260391  1
  Ni  Ni42  1  0.49715184  0.83465519  0.49934939  1
  Ni  Ni43  1  0.33216412  0.66544553  0.66597491  1
  Cr  Cr44  1  0.49597808  0.83388859  0.83318830  1
  Ni  Ni45  1  0.83177324  0.16630026  0.50150462  1
  Ni  Ni46  1  0.66588897  0.00473022  0.66547939  1
  Ni  Ni47  1  0.83402772  0.16828710  0.83154426  1
  Cr  Cr48  1  0.83314477  0.49732342  0.49879352  1
  Ni  Ni49  1  0.66455106  0.32874044  0.66682934  1
  Cr  Cr50  1  0.83322163  0.49664276  0.83545499  1
  Cr  Cr51  1  0.83291774  0.83557511  0.49829014  1
  Cr  Cr52  1  0.66214279  0.66658854  0.66578034  1
  Cr  Cr53  1  0.83539629  0.83504525  0.83391174  1
" 