4578,Ni76Fe6Cr17_9,-233.245046008727, 170.90456374285,Ni76Fe6Cr17,"# generated using pymatgen
 data_Cr10Fe3Ni41
_symmetry_space_group_name_H-M   'P 1'
_cell_length_a   7.46342229
_cell_length_b   7.46342229
_cell_length_c   10.55487303
_cell_angle_alpha   90.00000000
_cell_angle_beta   90.00000000
_cell_angle_gamma   90.00000000
_symmetry_Int_Tables_number   1
_chemical_formula_structural   Cr10Fe3Ni41
_chemical_formula_sum   'Cr10 Fe3 Ni41'
_cell_volume   587.93463406
_cell_formula_units_Z   1
loop_
 _symmetry_equiv_pos_site_id
 _symmetry_equiv_pos_as_xyz
  1  'x, y, z'
loop_
 _atom_site_type_symbol
 _atom_site_label
 _atom_site_symmetry_multiplicity
 _atom_site_fract_x
 _atom_site_fract_y
 _atom_site_fract_z
 _atom_site_occupancy
  Cr  Cr0  1  0.99917164  0.99982194  1.00018127  1
  Ni  Ni1  1  0.16935551  0.16846257  0.16753358  1
  Ni  Ni2  1  0.99949757  0.99979259  0.33432129  1
  Cr  Cr3  1  0.00203432  0.33436099  0.00035618  1
  Ni  Ni4  1  0.16806887  0.49945603  0.16625607  1
  Cr  Cr5  1  0.00063633  0.33309202  0.33341064  1
  Ni  Ni6  1  0.99959355  0.66635062  0.99953957  1
  Cr  Cr7  1  0.16546996  0.83275212  0.16780381  1
  Ni  Ni8  1  0.99941345  0.66798822  0.33415342  1
  Ni  Ni9  1  0.33504232  0.00202283  0.99806936  1
  Ni  Ni10  1  0.49951242  0.16870502  0.16689388  1
  Ni  Ni11  1  0.33232250  0.00135569  0.33459142  1
  Ni  Ni12  1  0.33327319  0.33353631  0.00093879  1
  Ni  Ni13  1  0.49976122  0.49817856  0.16826696  1
  Ni  Ni14  1  0.33416806  0.33432539  0.33182869  1
  Ni  Ni15  1  0.33364858  0.66517177  0.99836723  1
  Cr  Cr16  1  0.50197824  0.83385730  0.16652444  1
  Ni  Ni17  1  0.33378389  0.66504687  0.33570845  1
  Ni  Ni18  1  0.66609356  0.99907765  0.99935277  1
  Ni  Ni19  1  0.83185919  0.16570133  0.16911310  1
  Ni  Ni20  1  0.66890768  1.00017504  0.33303850  1
  Cr  Cr21  1  0.66523709  0.33334016  0.00079899  1
  Ni  Ni22  1  0.83289862  0.50246738  0.16710385  1
  Ni  Ni23  1  0.66596904  0.33441109  0.33276958  1
  Ni  Ni24  1  0.66748657  0.66812122  0.99965035  1
  Ni  Ni25  1  0.83314110  0.83255963  0.16734091  1
  Ni  Ni26  1  0.66752993  0.66614351  0.33421014  1
  Ni  Ni27  1  0.16728494  0.16511710  0.49844610  1
  Cr  Cr28  1  0.00062541  0.99923262  0.66628504  1
  Ni  Ni29  1  0.16931353  0.16580355  0.83474762  1
  Ni  Ni30  1  0.16698205  0.50276112  0.49978014  1
  Cr  Cr31  1  0.99884180  0.33431070  0.66695986  1
  Fe  Fe32  1  0.16830114  0.50298922  0.83460173  1
  Ni  Ni33  1  0.16692315  0.83285096  0.49974577  1
  Ni  Ni34  1  1.00006334  0.66695821  0.66703464  1
  Ni  Ni35  1  0.16796577  0.83236590  0.83314934  1
  Cr  Cr36  1  0.50060500  0.16655400  0.49989062  1
  Ni  Ni37  1  0.33438983  0.99761008  0.66806777  1
  Ni  Ni38  1  0.50016500  0.16584587  0.83404405  1
  Ni  Ni39  1  0.50149694  0.50224069  0.49905194  1
  Cr  Cr40  1  0.33417755  0.33440480  0.66763556  1
  Ni  Ni41  1  0.50041315  0.50127145  0.83341107  1
  Ni  Ni42  1  0.50021810  0.83203160  0.50108448  1
  Ni  Ni43  1  0.33408743  0.66872519  0.66665221  1
  Ni  Ni44  1  0.50022411  0.83361244  0.83320932  1
  Fe  Fe45  1  0.83264907  0.16610569  0.49944225  1
  Ni  Ni46  1  0.66619389  0.99937682  0.66833747  1
  Ni  Ni47  1  0.83124957  0.16599052  0.83188603  1
  Ni  Ni48  1  0.83225009  0.50260209  0.50106336  1
  Ni  Ni49  1  0.66795679  0.33448434  0.66765419  1
  Fe  Fe50  1  0.83217809  0.50287861  0.83255688  1
  Ni  Ni51  1  0.83358809  0.83172889  0.49911123  1
  Ni  Ni52  1  0.66657787  0.66686980  0.66686778  1
  Ni  Ni53  1  0.83253900  0.83211898  0.83427543  1
" 