818,Ni76Fe16Cr7_8,-238.064815314069, 188.285297471511,Ni76Fe16Cr7,"# generated using pymatgen
 data_Cr5Fe8Ni41
_symmetry_space_group_name_H-M   'P 1'
_cell_length_a   7.43941413
_cell_length_b   7.43941413
_cell_length_c   10.52092035
_cell_angle_alpha   90.00000000
_cell_angle_beta   90.00000000
_cell_angle_gamma   90.00000000
_symmetry_Int_Tables_number   1
_chemical_formula_structural   Cr5Fe8Ni41
_chemical_formula_sum   'Cr5 Fe8 Ni41'
_cell_volume   582.27910100
_cell_formula_units_Z   1
loop_
 _symmetry_equiv_pos_site_id
 _symmetry_equiv_pos_as_xyz
  1  'x, y, z'
loop_
 _atom_site_type_symbol
 _atom_site_label
 _atom_site_symmetry_multiplicity
 _atom_site_fract_x
 _atom_site_fract_y
 _atom_site_fract_z
 _atom_site_occupancy
  Ni  Ni0  1  0.00255032  1.00127558  1.00153936  1
  Ni  Ni1  1  0.16897096  0.16813097  0.16749161  1
  Ni  Ni2  1  0.00277295  1.00180254  0.33524533  1
  Fe  Fe3  1  1.00168877  0.33392392  0.00299674  1
  Ni  Ni4  1  0.16836605  0.50202810  0.16838974  1
  Ni  Ni5  1  0.00433207  0.33321629  0.33323218  1
  Ni  Ni6  1  0.00376014  0.67094780  0.00235009  1
  Ni  Ni7  1  0.16882448  0.83542316  0.16847581  1
  Ni  Ni8  1  0.00521633  0.67054082  0.33486948  1
  Fe  Fe9  1  0.33600261  0.00223069  0.00343254  1
  Ni  Ni10  1  0.50159781  0.16768363  0.16856148  1
  Ni  Ni11  1  0.33389508  0.00247524  0.33459365  1
  Ni  Ni12  1  0.33505568  0.33529806  1.00083064  1
  Ni  Ni13  1  0.50053279  0.50111202  0.16692424  1
  Ni  Ni14  1  0.33475624  0.33491096  0.33624117  1
  Fe  Fe15  1  0.33539694  0.66871576  0.00221307  1
  Ni  Ni16  1  0.50098824  0.83685725  0.16776908  1
  Ni  Ni17  1  0.33321381  0.66818691  0.33434246  1
  Ni  Ni18  1  0.66952992  0.00226886  1.00158089  1
  Ni  Ni19  1  0.83496625  0.16807195  0.16853414  1
  Ni  Ni20  1  0.66887141  0.00350283  0.33549193  1
  Ni  Ni21  1  0.66486480  0.33387642  0.00266922  1
  Ni  Ni22  1  0.83645107  0.50116761  0.16706981  1
  Ni  Ni23  1  0.66637311  0.33257178  0.33387268  1
  Ni  Ni24  1  0.66771986  0.66940202  0.00195462  1
  Ni  Ni25  1  0.83611528  0.83633893  0.16716719  1
  Cr  Cr26  1  0.66742676  0.66992006  0.33484218  1
  Ni  Ni27  1  0.16824164  0.16815214  0.50271283  1
  Ni  Ni28  1  0.00231839  0.00242419  0.66916057  1
  Fe  Fe29  1  0.16964435  0.16900091  0.83602682  1
  Ni  Ni30  1  0.16990421  0.50201029  0.50230063  1
  Ni  Ni31  1  0.00586926  0.33247782  0.66977229  1
  Ni  Ni32  1  0.16940243  0.50295969  0.83505057  1
  Ni  Ni33  1  0.16928386  0.83527383  0.50193312  1
  Ni  Ni34  1  0.00680463  0.67100060  0.66838714  1
  Fe  Fe35  1  0.16893912  0.83542747  0.83527030  1
  Ni  Ni36  1  0.50075845  0.16615302  0.50117466  1
  Fe  Fe37  1  0.33518242  1.00107363  0.66762511  1
  Ni  Ni38  1  0.50169695  0.16569365  0.83574169  1
  Ni  Ni39  1  0.49648827  0.50130441  0.50175530  1
  Fe  Fe40  1  0.33339381  0.33480458  0.66899653  1
  Ni  Ni41  1  0.49809821  0.50251466  0.83663954  1
  Ni  Ni42  1  0.49903001  0.83780310  0.50171818  1
  Ni  Ni43  1  0.33321721  0.66812185  0.66919017  1
  Ni  Ni44  1  0.49976569  0.83734246  0.83596435  1
  Ni  Ni45  1  0.83643712  0.16592542  0.50095996  1
  Ni  Ni46  1  0.66902286  0.00244194  0.66879104  1
  Ni  Ni47  1  0.83568545  0.16598234  0.83595878  1
  Cr  Cr48  1  0.83970145  0.50006524  0.50060890  1
  Cr  Cr49  1  0.66561213  0.33174754  0.66780326  1
  Cr  Cr50  1  0.83743121  0.50091275  0.83681743  1
  Ni  Ni51  1  0.83738283  0.83934056  0.50323022  1
  Cr  Cr52  1  0.66582800  0.67184682  0.66808587  1
  Fe  Fe53  1  0.83491102  0.83660963  0.83593414  1
" 