8717,Ni76Fe4Cr18_5,-232.266798775205, 166.069501973942,Ni76Fe4Cr18,"# generated using pymatgen
 data_Cr11Fe2Ni41
_symmetry_space_group_name_H-M   'P 1'
_cell_length_a   7.46770621
_cell_length_b   7.46770621
_cell_length_c   10.56093140
_cell_angle_alpha   90.00000000
_cell_angle_beta   90.00000000
_cell_angle_gamma   90.00000000
_symmetry_Int_Tables_number   1
_chemical_formula_structural   Cr11Fe2Ni41
_chemical_formula_sum   'Cr11 Fe2 Ni41'
_cell_volume   588.94761747
_cell_formula_units_Z   1
loop_
 _symmetry_equiv_pos_site_id
 _symmetry_equiv_pos_as_xyz
  1  'x, y, z'
loop_
 _atom_site_type_symbol
 _atom_site_label
 _atom_site_symmetry_multiplicity
 _atom_site_fract_x
 _atom_site_fract_y
 _atom_site_fract_z
 _atom_site_occupancy
  Ni  Ni0  1  0.99974401  0.00010899  0.00002192  1
  Ni  Ni1  1  0.16705636  0.16601699  0.16722068  1
  Ni  Ni2  1  0.00159829  0.99963284  0.33358291  1
  Cr  Cr3  1  0.00048873  0.33268540  0.99912571  1
  Ni  Ni4  1  0.16673368  0.49984272  0.16641198  1
  Ni  Ni5  1  0.00021221  0.33471478  0.33228136  1
  Ni  Ni6  1  0.00024104  0.66627712  0.00036626  1
  Ni  Ni7  1  0.16556296  0.83393642  0.16527191  1
  Ni  Ni8  1  0.99979751  0.66560887  0.33438818  1
  Ni  Ni9  1  0.33299786  0.00066250  0.00161619  1
  Ni  Ni10  1  0.49906305  0.16765961  0.16795417  1
  Ni  Ni11  1  0.33336807  0.00194469  0.33435966  1
  Ni  Ni12  1  0.33251129  0.33398510  0.00137061  1
  Ni  Ni13  1  0.49940000  0.49793316  0.16604396  1
  Ni  Ni14  1  0.33287723  0.33133649  0.33185239  1
  Ni  Ni15  1  0.33346591  0.66527174  0.99993395  1
  Cr  Cr16  1  0.49970657  0.83371561  0.16429298  1
  Cr  Cr17  1  0.33095299  0.66889880  0.33387255  1
  Ni  Ni18  1  0.66686766  0.99913558  0.99900022  1
  Ni  Ni19  1  0.83371858  0.16630612  0.16821530  1
  Ni  Ni20  1  0.66513007  0.00197001  0.33414069  1
  Cr  Cr21  1  0.66608074  0.33217974  0.00071876  1
  Ni  Ni22  1  0.83333055  0.50014227  0.16842220  1
  Ni  Ni23  1  0.66693409  0.33246899  0.33085472  1
  Ni  Ni24  1  0.66647410  0.66631764  0.99862474  1
  Cr  Cr25  1  0.83556204  0.83388919  0.16686026  1
  Fe  Fe26  1  0.66752154  0.66652425  0.33399251  1
  Ni  Ni27  1  0.16863162  0.16617941  0.49965568  1
  Ni  Ni28  1  0.99995396  0.99976639  0.66658998  1
  Ni  Ni29  1  0.16624484  0.16686750  0.83301271  1
  Ni  Ni30  1  0.16631573  0.49879156  0.49922937  1
  Cr  Cr31  1  0.00046745  0.33291465  0.66858829  1
  Ni  Ni32  1  0.17105289  0.49938993  0.83419712  1
  Ni  Ni33  1  0.16608500  0.83509511  0.49981762  1
  Cr  Cr34  1  0.00040468  0.66764775  0.66524401  1
  Cr  Cr35  1  0.16758407  0.83441520  0.83587188  1
  Ni  Ni36  1  0.49852239  0.16545598  0.49997146  1
  Ni  Ni37  1  0.33371163  0.99927616  0.66393712  1
  Cr  Cr38  1  0.49794895  0.16616073  0.83142690  1
  Cr  Cr39  1  0.50043705  0.49718579  0.50075680  1
  Ni  Ni40  1  0.33309699  0.33323437  0.66629506  1
  Ni  Ni41  1  0.49837780  0.50210793  0.83261394  1
  Ni  Ni42  1  0.50105975  0.83526050  0.50203115  1
  Ni  Ni43  1  0.33501515  0.66726792  0.66665326  1
  Ni  Ni44  1  0.50219592  0.83095261  0.83327574  1
  Cr  Cr45  1  0.83260604  0.16680277  0.49928286  1
  Ni  Ni46  1  0.66619379  0.99839439  0.66666162  1
  Ni  Ni47  1  0.83367476  0.16201990  0.83233271  1
  Ni  Ni48  1  0.83305864  0.50176195  0.49828685  1
  Ni  Ni49  1  0.66594516  0.33384698  0.66795298  1
  Fe  Fe50  1  0.83173708  0.50194445  0.83319401  1
  Ni  Ni51  1  0.83270084  0.83317927  0.49878995  1
  Ni  Ni52  1  0.66583184  0.66792399  0.66679045  1
  Ni  Ni53  1  0.83136768  0.83460996  0.83436246  1
" 