6585,Ni76Fe8Cr15_7,-234.248221909352, 174.353152319872,Ni76Fe8Cr15,"# generated using pymatgen
 data_Cr9Fe4Ni41
_symmetry_space_group_name_H-M   'P 1'
_cell_length_a   7.45777308
_cell_length_b   7.45777308
_cell_length_c   10.54688383
_cell_angle_alpha   90.00000000
_cell_angle_beta   90.00000000
_cell_angle_gamma   90.00000000
_symmetry_Int_Tables_number   1
_chemical_formula_structural   Cr9Fe4Ni41
_chemical_formula_sum   'Cr9 Fe4 Ni41'
_cell_volume   586.60058481
_cell_formula_units_Z   1
loop_
 _symmetry_equiv_pos_site_id
 _symmetry_equiv_pos_as_xyz
  1  'x, y, z'
loop_
 _atom_site_type_symbol
 _atom_site_label
 _atom_site_symmetry_multiplicity
 _atom_site_fract_x
 _atom_site_fract_y
 _atom_site_fract_z
 _atom_site_occupancy
  Ni  Ni0  1  0.00142959  0.99830782  0.00242563  1
  Ni  Ni1  1  0.16743173  0.16648524  0.16713492  1
  Ni  Ni2  1  0.00149511  1.00053280  0.33477877  1
  Ni  Ni3  1  0.00186549  0.33591676  0.00195194  1
  Ni  Ni4  1  0.16903391  0.50085606  0.16498149  1
  Cr  Cr5  1  0.00092677  0.33265541  0.33361910  1
  Ni  Ni6  1  0.00121592  0.66749650  0.99994197  1
  Ni  Ni7  1  0.16916460  0.83459648  0.16690917  1
  Cr  Cr8  1  0.00243075  0.66973725  0.33374448  1
  Ni  Ni9  1  0.33400510  1.00047460  0.00201648  1
  Ni  Ni10  1  0.50007915  0.16600108  0.16780695  1
  Ni  Ni11  1  0.33413078  1.00051016  0.33411762  1
  Ni  Ni12  1  0.33282270  0.33336913  0.00183093  1
  Ni  Ni13  1  0.49978478  0.50248842  0.16905822  1
  Ni  Ni14  1  0.33559619  0.33324218  0.33411265  1
  Ni  Ni15  1  0.33191491  0.66791939  0.00230649  1
  Ni  Ni16  1  0.50058514  0.83328160  0.16755230  1
  Ni  Ni17  1  0.33477326  0.66811351  0.33403858  1
  Ni  Ni18  1  0.66637598  0.99931803  0.00178046  1
  Ni  Ni19  1  0.83425213  0.16588359  0.16778819  1
  Ni  Ni20  1  0.66622100  0.00124272  0.33405307  1
  Cr  Cr21  1  0.66598323  0.33315526  0.00244781  1
  Ni  Ni22  1  0.83301085  0.50112553  0.16673589  1
  Ni  Ni23  1  0.66545127  0.33316727  0.33378751  1
  Ni  Ni24  1  0.66894687  0.66849626  0.00201567  1
  Fe  Fe25  1  0.83312999  0.83482258  0.16707415  1
  Ni  Ni26  1  0.66561001  0.66745495  0.33439586  1
  Ni  Ni27  1  0.16750390  0.16720469  0.50106837  1
  Ni  Ni28  1  0.00133709  1.00013330  0.66498686  1
  Cr  Cr29  1  0.16799955  0.16733926  0.83372085  1
  Ni  Ni30  1  0.17034292  0.49970656  0.50162537  1
  Ni  Ni31  1  0.00148987  0.33466429  0.66584481  1
  Ni  Ni32  1  0.16640877  0.50131245  0.83507486  1
  Ni  Ni33  1  0.16930948  0.83500189  0.50049922  1
  Cr  Cr34  1  0.00124783  0.66819543  0.66755982  1
  Ni  Ni35  1  0.16681948  0.83309506  0.83420317  1
  Ni  Ni36  1  0.50049277  0.16554481  0.50002037  1
  Ni  Ni37  1  0.33417656  0.99983772  0.66575103  1
  Ni  Ni38  1  0.49897388  0.16535014  0.83402442  1
  Fe  Fe39  1  0.49946183  0.50176909  0.49893181  1
  Fe  Fe40  1  0.33298282  0.33330523  0.66587815  1
  Cr  Cr41  1  0.49801041  0.50224688  0.83411814  1
  Ni  Ni42  1  0.50125065  0.83365634  0.50061399  1
  Ni  Ni43  1  0.33330400  0.66849499  0.66554606  1
  Cr  Cr44  1  0.50073898  0.83501837  0.83389931  1
  Ni  Ni45  1  0.83369041  0.16510526  0.50041986  1
  Ni  Ni46  1  0.66620427  0.99967802  0.66634592  1
  Cr  Cr47  1  0.83516927  0.16461228  0.83406900  1
  Fe  Fe48  1  0.83309144  0.50099747  0.49994037  1
  Cr  Cr49  1  0.66723919  0.33324779  0.66604061  1
  Ni  Ni50  1  0.83619521  0.50292185  0.83411497  1
  Ni  Ni51  1  0.83116445  0.83656675  0.50039980  1
  Ni  Ni52  1  0.66709861  0.66862665  0.66558406  1
  Ni  Ni53  1  0.83420654  0.83329423  0.83488984  1
" 