5725,Ni76Fe22Cr0_15,-242.504972515989, 210.717843783623,Ni76Fe22Cr0,"# generated using pymatgen
 data_CrFe12Ni41
_symmetry_space_group_name_H-M   'P 1'
_cell_length_a   7.42311409
_cell_length_b   7.42311409
_cell_length_c   10.49786862
_cell_angle_alpha   90.00000000
_cell_angle_beta   90.00000000
_cell_angle_gamma   90.00000000
_symmetry_Int_Tables_number   1
_chemical_formula_structural   CrFe12Ni41
_chemical_formula_sum   'Cr1 Fe12 Ni41'
_cell_volume   578.46009481
_cell_formula_units_Z   1
loop_
 _symmetry_equiv_pos_site_id
 _symmetry_equiv_pos_as_xyz
  1  'x, y, z'
loop_
 _atom_site_type_symbol
 _atom_site_label
 _atom_site_symmetry_multiplicity
 _atom_site_fract_x
 _atom_site_fract_y
 _atom_site_fract_z
 _atom_site_occupancy
  Ni  Ni0  1  0.00299165  1.00240970  0.00342827  1
  Ni  Ni1  1  0.16953816  0.16903427  0.17042219  1
  Fe  Fe2  1  1.00149119  1.00292554  0.33500265  1
  Fe  Fe3  1  1.00289727  0.33583102  1.00244077  1
  Ni  Ni4  1  0.16953444  0.50372920  0.17004602  1
  Fe  Fe5  1  1.00286981  0.33750211  0.33614534  1
  Ni  Ni6  1  0.00435341  0.66997534  1.00273042  1
  Ni  Ni7  1  0.16921277  0.83611317  0.16985806  1
  Ni  Ni8  1  1.00292000  0.66907648  0.33550196  1
  Ni  Ni9  1  0.33588375  1.00236849  0.00339843  1
  Ni  Ni10  1  0.50349957  0.16958426  0.16950377  1
  Fe  Fe11  1  0.33816483  0.00356749  0.33488642  1
  Fe  Fe12  1  0.33623440  0.33577241  0.00307871  1
  Ni  Ni13  1  0.50314598  0.50282291  0.16991374  1
  Ni  Ni14  1  0.33631890  0.33704762  0.33592202  1
  Ni  Ni15  1  0.33481227  0.66972386  0.00348420  1
  Ni  Ni16  1  0.50291992  0.83647068  0.17109053  1
  Ni  Ni17  1  0.33600882  0.66793086  0.33507262  1
  Ni  Ni18  1  0.67000204  0.00455859  1.00293467  1
  Ni  Ni19  1  0.83583987  0.16926213  0.17025762  1
  Ni  Ni20  1  0.67024125  0.00335587  0.33609817  1
  Ni  Ni21  1  0.66975208  0.33542214  0.00319457  1
  Ni  Ni22  1  0.83619623  0.50315018  0.17066647  1
  Ni  Ni23  1  0.66909528  0.33565406  0.33640926  1
  Fe  Fe24  1  0.66945218  0.67031736  0.00313135  1
  Ni  Ni25  1  0.83674592  0.83646689  0.16945839  1
  Ni  Ni26  1  0.66994894  0.66986788  0.33537818  1
  Fe  Fe27  1  0.17026150  0.17174757  0.50370756  1
  Ni  Ni28  1  1.00219798  0.00430099  0.67075940  1
  Ni  Ni29  1  0.16930407  0.16874116  0.83506258  1
  Ni  Ni30  1  0.17021065  0.50203822  0.50330805  1
  Ni  Ni31  1  0.00331524  0.33579840  0.66955230  1
  Ni  Ni32  1  0.16933609  0.50375065  0.83552164  1
  Cr  Cr33  1  0.16900165  0.83536072  0.50314650  1
  Fe  Fe34  1  1.00241122  0.66867867  0.67039689  1
  Ni  Ni35  1  0.16983099  0.83638456  0.83597451  1
  Ni  Ni36  1  0.50383130  0.17068068  0.50340133  1
  Ni  Ni37  1  0.33653312  0.00355001  0.67043340  1
  Ni  Ni38  1  0.50361051  0.16929280  0.83597316  1
  Ni  Ni39  1  0.50273098  0.50155772  0.50324265  1
  Ni  Ni40  1  0.33573863  0.33687165  0.67011649  1
  Ni  Ni41  1  0.50329010  0.50291166  0.83572053  1
  Fe  Fe42  1  0.50468075  0.83560011  0.50324747  1
  Ni  Ni43  1  0.33699391  0.66845630  0.67032162  1
  Ni  Ni44  1  0.50224273  0.83667376  0.83480376  1
  Fe  Fe45  1  0.83561503  0.16978509  0.50347951  1
  Ni  Ni46  1  0.67014737  0.00304478  0.66984607  1
  Ni  Ni47  1  0.83596294  0.16978857  0.83554301  1
  Fe  Fe48  1  0.83561113  0.50320331  0.50295940  1
  Ni  Ni49  1  0.66982461  0.33625911  0.66927488  1
  Ni  Ni50  1  0.83625075  0.50238393  0.83525382  1
  Ni  Ni51  1  0.83534638  0.83666973  0.50351096  1
  Ni  Ni52  1  0.66907217  0.66957384  0.66969683  1
  Fe  Fe53  1  0.83637616  0.83675437  0.83608966  1
" 