6590,Ni76Fe4Cr18_7,-232.103330554374, 160.765030333333,Ni76Fe4Cr18,"# generated using pymatgen
 data_Cr11Fe2Ni41
_symmetry_space_group_name_H-M   'P 1'
_cell_length_a   7.46926703
_cell_length_b   7.46926703
_cell_length_c   10.56313874
_cell_angle_alpha   90.00000000
_cell_angle_beta   90.00000000
_cell_angle_gamma   90.00000000
_symmetry_Int_Tables_number   1
_chemical_formula_structural   Cr11Fe2Ni41
_chemical_formula_sum   'Cr11 Fe2 Ni41'
_cell_volume   589.31698252
_cell_formula_units_Z   1
loop_
 _symmetry_equiv_pos_site_id
 _symmetry_equiv_pos_as_xyz
  1  'x, y, z'
loop_
 _atom_site_type_symbol
 _atom_site_label
 _atom_site_symmetry_multiplicity
 _atom_site_fract_x
 _atom_site_fract_y
 _atom_site_fract_z
 _atom_site_occupancy
  Cr  Cr0  1  0.99789502  0.00017859  0.00136913  1
  Ni  Ni1  1  0.16641792  0.16867447  0.17047804  1
  Ni  Ni2  1  0.99796126  0.00249512  0.33310679  1
  Cr  Cr3  1  0.99906173  0.33272497  0.00205314  1
  Ni  Ni4  1  0.16940900  0.49865657  0.16602038  1
  Ni  Ni5  1  0.00127672  0.32996286  0.33405596  1
  Ni  Ni6  1  0.00056679  0.66536417  0.99763483  1
  Cr  Cr7  1  0.16717032  0.83212294  0.16778233  1
  Cr  Cr8  1  0.00042623  0.66505084  0.33669189  1
  Cr  Cr9  1  0.33447316  0.99908681  0.99896545  1
  Cr  Cr10  1  0.50024916  0.16918654  0.16819385  1
  Fe  Fe11  1  0.33372982  0.00061713  0.33568556  1
  Fe  Fe12  1  0.33439563  0.33582783  0.99956413  1
  Ni  Ni13  1  0.49832996  0.50131611  0.16625947  1
  Ni  Ni14  1  0.33235857  0.33544708  0.33319716  1
  Ni  Ni15  1  0.33460098  0.66447062  0.99921007  1
  Ni  Ni16  1  0.50155613  0.83056744  0.16860278  1
  Ni  Ni17  1  0.33573814  0.66454755  0.33441211  1
  Cr  Cr18  1  0.66744080  0.00089200  0.99820919  1
  Ni  Ni19  1  0.83285323  0.16668231  0.16997347  1
  Ni  Ni20  1  0.66801196  0.99940902  0.33370565  1
  Ni  Ni21  1  0.66560149  0.33497521  0.99801312  1
  Cr  Cr22  1  0.83001796  0.50085128  0.16805614  1
  Ni  Ni23  1  0.66580968  0.33243491  0.33547041  1
  Ni  Ni24  1  0.66446248  0.66580723  0.99966387  1
  Ni  Ni25  1  0.83086419  0.83334782  0.16715571  1
  Ni  Ni26  1  0.66267380  0.66764115  0.33416349  1
  Ni  Ni27  1  0.16689881  0.16674974  0.49954254  1
  Ni  Ni28  1  0.99862693  0.99956815  0.66585206  1
  Cr  Cr29  1  0.16808327  0.16661200  0.82945346  1
  Ni  Ni30  1  0.16676229  0.49767729  0.50025981  1
  Ni  Ni31  1  0.99932268  0.33389211  0.66445832  1
  Ni  Ni32  1  0.16636165  0.50138579  0.83346035  1
  Ni  Ni33  1  0.16614459  0.83520561  0.50064162  1
  Ni  Ni34  1  0.00038202  0.66603096  0.66660842  1
  Ni  Ni35  1  0.16590098  0.83101914  0.83159010  1
  Ni  Ni36  1  0.49981208  0.16713931  0.50100078  1
  Ni  Ni37  1  0.33462542  0.00034581  0.66468390  1
  Ni  Ni38  1  0.50184734  0.16850508  0.83033485  1
  Ni  Ni39  1  0.50022417  0.49721362  0.49690219  1
  Ni  Ni40  1  0.33425696  0.33302293  0.66645168  1
  Ni  Ni41  1  0.50058518  0.49807221  0.83565279  1
  Ni  Ni42  1  0.50014800  0.83540928  0.49692517  1
  Cr  Cr43  1  0.33314182  0.66546675  0.66462773  1
  Ni  Ni44  1  0.49986756  0.83298221  0.83296388  1
  Ni  Ni45  1  0.83287149  0.16657166  0.49999183  1
  Ni  Ni46  1  0.66634492  0.00134633  0.66716770  1
  Ni  Ni47  1  0.83110211  0.16814135  0.82997561  1
  Ni  Ni48  1  0.83275820  0.49794508  0.49999411  1
  Ni  Ni49  1  0.66628474  0.33143384  0.66626492  1
  Ni  Ni50  1  0.83291047  0.49990087  0.83261740  1
  Ni  Ni51  1  0.83312089  0.83475047  0.49977781  1
  Cr  Cr52  1  0.66637521  0.66575941  0.66444074  1
  Ni  Ni53  1  0.83386526  0.83149164  0.83264334  1
" 