1779,Ni76Fe16Cr7_10,-238.461372350809, 192.7880414294,Ni76Fe16Cr7,"# generated using pymatgen
 data_Cr5Fe8Ni41
_symmetry_space_group_name_H-M   'P 1'
_cell_length_a   7.43915371
_cell_length_b   7.43915371
_cell_length_c   10.52055207
_cell_angle_alpha   90.00000000
_cell_angle_beta   90.00000000
_cell_angle_gamma   90.00000000
_symmetry_Int_Tables_number   1
_chemical_formula_structural   Cr5Fe8Ni41
_chemical_formula_sum   'Cr5 Fe8 Ni41'
_cell_volume   582.21795575
_cell_formula_units_Z   1
loop_
 _symmetry_equiv_pos_site_id
 _symmetry_equiv_pos_as_xyz
  1  'x, y, z'
loop_
 _atom_site_type_symbol
 _atom_site_label
 _atom_site_symmetry_multiplicity
 _atom_site_fract_x
 _atom_site_fract_y
 _atom_site_fract_z
 _atom_site_occupancy
  Ni  Ni0  1  0.00317189  0.99924493  0.00278510  1
  Ni  Ni1  1  0.16758181  0.16816561  0.16976653  1
  Ni  Ni2  1  0.00272727  1.00101493  0.33489237  1
  Fe  Fe3  1  1.00058158  0.33564820  0.00282949  1
  Ni  Ni4  1  0.16748334  0.50211694  0.17021593  1
  Ni  Ni5  1  0.00293741  0.33461516  0.33334505  1
  Ni  Ni6  1  1.00052674  0.66991651  1.00171777  1
  Fe  Fe7  1  0.16639817  0.83575340  0.16856172  1
  Ni  Ni8  1  1.00141576  0.66999386  0.33409174  1
  Ni  Ni9  1  0.33318810  0.00321675  1.00145538  1
  Ni  Ni10  1  0.50236530  0.16913446  0.16899686  1
  Ni  Ni11  1  0.33367931  0.00392079  0.33545929  1
  Cr  Cr12  1  0.33667138  0.33393520  1.00140185  1
  Ni  Ni13  1  0.50251271  0.50119788  0.16944874  1
  Ni  Ni14  1  0.33611716  0.33436257  0.33523184  1
  Fe  Fe15  1  0.33411198  0.66873946  1.00116933  1
  Cr  Cr16  1  0.50189697  0.83537874  0.16873287  1
  Fe  Fe17  1  0.33403700  0.66678951  0.33637924  1
  Ni  Ni18  1  0.66926189  0.00238059  0.00330813  1
  Ni  Ni19  1  0.83567740  0.16869362  0.16902216  1
  Fe  Fe20  1  0.67022705  0.00348439  0.33593199  1
  Ni  Ni21  1  0.66767515  0.33672350  0.00288218  1
  Ni  Ni22  1  0.83562517  0.50173550  0.16831440  1
  Ni  Ni23  1  0.66656942  0.33567265  0.33357508  1
  Ni  Ni24  1  0.67164627  0.66652279  1.00150326  1
  Ni  Ni25  1  0.83659250  0.83519636  0.16864587  1
  Ni  Ni26  1  0.66947473  0.66755571  0.33489237  1
  Fe  Fe27  1  0.16834384  0.16811914  0.50178439  1
  Ni  Ni28  1  0.00284799  1.00031146  0.66794875  1
  Ni  Ni29  1  0.16959817  0.16753887  0.83360557  1
  Fe  Fe30  1  0.16961790  0.50171522  0.50206296  1
  Ni  Ni31  1  0.00379885  0.33543124  0.66918384  1
  Ni  Ni32  1  0.16774681  0.50296630  0.83335772  1
  Ni  Ni33  1  0.16841306  0.83542508  0.50162137  1
  Ni  Ni34  1  0.00205607  0.66988164  0.66981839  1
  Ni  Ni35  1  0.16730645  0.83511897  0.83608827  1
  Ni  Ni36  1  0.50192157  0.16884149  0.50203514  1
  Ni  Ni37  1  0.33416399  0.00349430  0.66871128  1
  Ni  Ni38  1  0.50065162  0.16925141  0.83459256  1
  Ni  Ni39  1  0.50021287  0.50140408  0.50183208  1
  Ni  Ni40  1  0.33586870  0.33490384  0.66862698  1
  Ni  Ni41  1  0.50249919  0.50125202  0.83434208  1
  Fe  Fe42  1  0.50245064  0.83549306  0.50231274  1
  Ni  Ni43  1  0.33442590  0.66722600  0.66794728  1
  Cr  Cr44  1  0.50163962  0.83558925  0.83459467  1
  Ni  Ni45  1  0.83479984  0.16659380  0.50160991  1
  Ni  Ni46  1  0.66861360  1.00175326  0.66662016  1
  Cr  Cr47  1  0.83507810  0.16868431  0.83493453  1
  Cr  Cr48  1  0.83521532  0.50131540  0.50235066  1
  Ni  Ni49  1  0.66595845  0.33569480  0.66917003  1
  Ni  Ni50  1  0.83537787  0.50354453  0.83532217  1
  Ni  Ni51  1  0.83624800  0.83713110  0.50229786  1
  Ni  Ni52  1  0.66914352  0.66817584  0.66923034  1
  Ni  Ni53  1  0.83708797  0.83327296  0.83468109  1
" 