2856,Ni76Fe22Cr0_13,-241.740855461743, 209.216230097895,Ni76Fe22Cr0,"# generated using pymatgen
 data_CrFe12Ni41
_symmetry_space_group_name_H-M   'P 1'
_cell_length_a   7.41919918
_cell_length_b   7.41919918
_cell_length_c   10.49233210
_cell_angle_alpha   90.00000000
_cell_angle_beta   90.00000000
_cell_angle_gamma   90.00000000
_symmetry_Int_Tables_number   1
_chemical_formula_structural   CrFe12Ni41
_chemical_formula_sum   'Cr1 Fe12 Ni41'
_cell_volume   577.54534643
_cell_formula_units_Z   1
loop_
 _symmetry_equiv_pos_site_id
 _symmetry_equiv_pos_as_xyz
  1  'x, y, z'
loop_
 _atom_site_type_symbol
 _atom_site_label
 _atom_site_symmetry_multiplicity
 _atom_site_fract_x
 _atom_site_fract_y
 _atom_site_fract_z
 _atom_site_occupancy
  Ni  Ni0  1  1.00225702  1.00315431  0.00478294  1
  Ni  Ni1  1  0.17092566  0.16998463  0.17038152  1
  Fe  Fe2  1  0.00360817  1.00309882  0.33617566  1
  Ni  Ni3  1  1.00253679  0.33679614  0.00360201  1
  Ni  Ni4  1  0.16959757  0.50351794  0.16976509  1
  Ni  Ni5  1  0.00392783  0.33696880  0.33689585  1
  Fe  Fe6  1  0.00324039  0.66983196  1.00314669  1
  Ni  Ni7  1  0.16963135  0.83616992  0.16971909  1
  Ni  Ni8  1  1.00289371  0.66876348  0.33588832  1
  Ni  Ni9  1  0.33682544  1.00245328  0.00396658  1
  Ni  Ni10  1  0.50304680  0.16963762  0.17021730  1
  Ni  Ni11  1  0.33700786  0.00395701  0.33648133  1
  Ni  Ni12  1  0.33651428  0.33746664  0.00427827  1
  Fe  Fe13  1  0.50306699  0.50312613  0.17018524  1
  Ni  Ni14  1  0.33520445  0.33622792  0.33624829  1
  Ni  Ni15  1  0.33643976  0.66975571  1.00309628  1
  Fe  Fe16  1  0.50328846  0.83693515  0.16956872  1
  Ni  Ni17  1  0.33622253  0.66949170  0.33672699  1
  Ni  Ni18  1  0.67059281  0.00322850  1.00261625  1
  Ni  Ni19  1  0.83569929  0.16967123  0.16921284  1
  Ni  Ni20  1  0.66981171  1.00291740  0.33641555  1
  Ni  Ni21  1  0.67062288  0.33641129  0.00369270  1
  Ni  Ni22  1  0.83680626  0.50405005  0.17072893  1
  Fe  Fe23  1  0.66944190  0.33656100  0.33667818  1
  Ni  Ni24  1  0.66992106  0.67003478  1.00313756  1
  Ni  Ni25  1  0.83645976  0.83595167  0.16987275  1
  Ni  Ni26  1  0.67055748  0.67056601  0.33670599  1
  Ni  Ni27  1  0.17038031  0.17026830  0.50288031  1
  Ni  Ni28  1  1.00231447  1.00220488  0.66856788  1
  Cr  Cr29  1  0.17150467  0.17003878  0.83655600  1
  Ni  Ni30  1  0.17053100  0.50333017  0.50352165  1
  Fe  Fe31  1  1.00268232  0.33754032  0.66884756  1
  Ni  Ni32  1  0.16924062  0.50515427  0.83638618  1
  Fe  Fe33  1  0.17055390  0.83685889  0.50351925  1
  Ni  Ni34  1  0.00340155  0.67014380  0.67059471  1
  Ni  Ni35  1  0.16996734  0.83446713  0.83616610  1
  Ni  Ni36  1  0.50323745  0.16995120  0.50357180  1
  Ni  Ni37  1  0.33696828  1.00298510  0.66922439  1
  Ni  Ni38  1  0.50457221  0.16905314  0.83588583  1
  Ni  Ni39  1  0.50270146  0.50325860  0.50356773  1
  Ni  Ni40  1  0.33740969  0.33730305  0.66914814  1
  Fe  Fe41  1  0.50310617  0.50405014  0.83605318  1
  Fe  Fe42  1  0.50284378  0.83694411  0.50355192  1
  Ni  Ni43  1  0.33585818  0.66938903  0.66984910  1
  Ni  Ni44  1  0.50398968  0.83737129  0.83631976  1
  Ni  Ni45  1  0.83605415  0.16918879  0.50376636  1
  Ni  Ni46  1  0.67039249  0.00375825  0.67064139  1
  Fe  Fe47  1  0.83501220  0.16922791  0.83671539  1
  Fe  Fe48  1  0.83650142  0.50227745  0.50322333  1
  Ni  Ni49  1  0.66963637  0.33621281  0.66975975  1
  Ni  Ni50  1  0.83671671  0.50457720  0.83590405  1
  Fe  Fe51  1  0.83627749  0.83682487  0.50343946  1
  Ni  Ni52  1  0.67041357  0.66970210  0.66983114  1
  Ni  Ni53  1  0.83571464  0.83531963  0.83645103  1
" 