1893,Ni76Fe22Cr0_16,-242.051116174576, 209.028385751128,Ni76Fe22Cr0,"# generated using pymatgen
 data_CrFe12Ni41
_symmetry_space_group_name_H-M   'P 1'
_cell_length_a   7.41984865
_cell_length_b   7.41984865
_cell_length_c   10.49325059
_cell_angle_alpha   90.00000000
_cell_angle_beta   90.00000000
_cell_angle_gamma   90.00000000
_symmetry_Int_Tables_number   1
_chemical_formula_structural   CrFe12Ni41
_chemical_formula_sum   'Cr1 Fe12 Ni41'
_cell_volume   577.69703443
_cell_formula_units_Z   1
loop_
 _symmetry_equiv_pos_site_id
 _symmetry_equiv_pos_as_xyz
  1  'x, y, z'
loop_
 _atom_site_type_symbol
 _atom_site_label
 _atom_site_symmetry_multiplicity
 _atom_site_fract_x
 _atom_site_fract_y
 _atom_site_fract_z
 _atom_site_occupancy
  Ni  Ni0  1  1.00217118  0.00482694  1.00240180  1
  Ni  Ni1  1  0.16910695  0.17099427  0.16948270  1
  Ni  Ni2  1  1.00123074  0.00523768  0.33724174  1
  Ni  Ni3  1  1.00306490  0.33611978  0.00324584  1
  Ni  Ni4  1  0.16886149  0.50172926  0.16927661  1
  Ni  Ni5  1  0.00459515  0.33550741  0.33668862  1
  Ni  Ni6  1  1.00305018  0.66859507  0.00323575  1
  Cr  Cr7  1  0.17043053  0.83696202  0.17042287  1
  Fe  Fe8  1  1.00207731  0.66839989  0.33761539  1
  Ni  Ni9  1  0.33777185  0.00335644  1.00270028  1
  Ni  Ni10  1  0.50329775  0.16895709  0.16922586  1
  Fe  Fe11  1  0.33772816  0.00445692  0.33672550  1
  Fe  Fe12  1  0.33666583  0.33615785  0.00349798  1
  Ni  Ni13  1  0.50387864  0.50410206  0.16978240  1
  Ni  Ni14  1  0.33542888  0.33798293  0.33583636  1
  Ni  Ni15  1  0.33780217  0.66914941  1.00272916  1
  Ni  Ni16  1  0.50450703  0.83648262  0.16975715  1
  Ni  Ni17  1  0.33850643  0.66771908  0.33730802  1
  Ni  Ni18  1  0.66959568  0.00335016  0.00375263  1
  Ni  Ni19  1  0.83713684  0.17036818  0.16996527  1
  Ni  Ni20  1  0.67059253  1.00215712  0.33581346  1
  Ni  Ni21  1  0.67015492  0.33614871  0.00398709  1
  Ni  Ni22  1  0.83679989  0.50294194  0.16980144  1
  Fe  Fe23  1  0.66961200  0.33681109  0.33622170  1
  Ni  Ni24  1  0.66868760  0.67004611  1.00301315  1
  Fe  Fe25  1  0.83439486  0.83686849  0.17026960  1
  Ni  Ni26  1  0.66811933  0.67108449  0.33665213  1
  Ni  Ni27  1  0.16991391  0.16986937  0.50291260  1
  Ni  Ni28  1  1.00195461  0.00344830  0.66990255  1
  Ni  Ni29  1  0.16904586  0.16894391  0.83714764  1
  Ni  Ni30  1  0.16889856  0.50267238  0.50337924  1
  Ni  Ni31  1  0.00336398  0.33621169  0.66960468  1
  Fe  Fe32  1  0.17014899  0.50267927  0.83617876  1
  Fe  Fe33  1  0.16996653  0.83568611  0.50334514  1
  Ni  Ni34  1  0.00441282  0.66988061  0.66904253  1
  Fe  Fe35  1  0.17007952  0.83667969  0.83699698  1
  Ni  Ni36  1  0.50204819  0.16897171  0.50363316  1
  Fe  Fe37  1  0.33644252  0.00418091  0.67044313  1
  Ni  Ni38  1  0.50275630  0.16888387  0.83668217  1
  Ni  Ni39  1  0.50337253  0.50387624  0.50337722  1
  Ni  Ni40  1  0.33686478  0.33789213  0.67015506  1
  Ni  Ni41  1  0.50410662  0.50434586  0.83637945  1
  Ni  Ni42  1  0.50373293  0.83669571  0.50311822  1
  Ni  Ni43  1  0.33642623  0.66880518  0.66950727  1
  Ni  Ni44  1  0.50275370  0.83631177  0.83666626  1
  Fe  Fe45  1  0.83626747  0.16984289  0.50341695  1
  Ni  Ni46  1  0.67038873  0.00389081  0.66997461  1
  Ni  Ni47  1  0.83773805  0.17029663  0.83587007  1
  Ni  Ni48  1  0.83727238  0.50435457  0.50340113  1
  Ni  Ni49  1  0.66931292  0.33543644  0.66882419  1
  Ni  Ni50  1  0.83667816  0.50321886  0.83633797  1
  Ni  Ni51  1  0.83637175  0.83567574  0.50314203  1
  Fe  Fe52  1  0.67021215  0.66914524  0.66948759  1
  Fe  Fe53  1  0.83595270  0.83734288  0.83617464  1
" 