7706,Ni76Fe16Cr7_16,-238.207890792903, 191.894283020306,Ni76Fe16Cr7,"# generated using pymatgen
 data_Cr5Fe8Ni41
_symmetry_space_group_name_H-M   'P 1'
_cell_length_a   7.43693819
_cell_length_b   7.43693819
_cell_length_c   10.51741884
_cell_angle_alpha   90.00000000
_cell_angle_beta   90.00000000
_cell_angle_gamma   90.00000000
_symmetry_Int_Tables_number   1
_chemical_formula_structural   Cr5Fe8Ni41
_chemical_formula_sum   'Cr5 Fe8 Ni41'
_cell_volume   581.69792291
_cell_formula_units_Z   1
loop_
 _symmetry_equiv_pos_site_id
 _symmetry_equiv_pos_as_xyz
  1  'x, y, z'
loop_
 _atom_site_type_symbol
 _atom_site_label
 _atom_site_symmetry_multiplicity
 _atom_site_fract_x
 _atom_site_fract_y
 _atom_site_fract_z
 _atom_site_occupancy
  Ni  Ni0  1  0.99897354  0.00293200  1.00083251  1
  Fe  Fe1  1  0.16767611  0.17137103  0.16993177  1
  Ni  Ni2  1  1.00124906  0.00302315  0.33643000  1
  Ni  Ni3  1  1.00162265  0.33512698  0.00214295  1
  Ni  Ni4  1  0.16924129  0.50106547  0.16856335  1
  Ni  Ni5  1  0.00205815  0.33520795  0.33561871  1
  Fe  Fe6  1  1.00041165  0.66758125  1.00104022  1
  Cr  Cr7  1  0.16865488  0.83433564  0.16933332  1
  Fe  Fe8  1  1.00137199  0.66755136  0.33660524  1
  Cr  Cr9  1  0.33583289  0.00292834  0.00242033  1
  Ni  Ni10  1  0.50339947  0.16916029  0.16957183  1
  Ni  Ni11  1  0.33526624  0.00272923  0.33577795  1
  Ni  Ni12  1  0.33524074  0.33802621  0.00215592  1
  Ni  Ni13  1  0.50130021  0.50211565  0.16813638  1
  Ni  Ni14  1  0.33420590  0.33525230  0.33439219  1
  Ni  Ni15  1  0.33623369  0.66536087  0.00219940  1
  Ni  Ni16  1  0.50368449  0.83479766  0.16931036  1
  Ni  Ni17  1  0.33520246  0.66809268  0.33429968  1
  Ni  Ni18  1  0.67186035  1.00193811  0.00337860  1
  Ni  Ni19  1  0.83479302  0.16856120  0.16804784  1
  Ni  Ni20  1  0.66955698  0.00202928  0.33399181  1
  Ni  Ni21  1  0.66920769  0.33612611  0.00207322  1
  Ni  Ni22  1  0.83553082  0.50135276  0.16849765  1
  Ni  Ni23  1  0.66980821  0.33514338  0.33448749  1
  Ni  Ni24  1  0.66896362  0.66800869  0.00269670  1
  Ni  Ni25  1  0.83374253  0.83615892  0.16851678  1
  Ni  Ni26  1  0.66951383  0.66890003  0.33381661  1
  Ni  Ni27  1  0.16810462  0.16796803  0.50179036  1
  Ni  Ni28  1  1.00172372  1.00127370  0.66880910  1
  Fe  Fe29  1  0.16744857  0.16980028  0.83413237  1
  Ni  Ni30  1  0.16656566  0.50253784  0.50225746  1
  Ni  Ni31  1  1.00146970  0.33589439  0.66831073  1
  Fe  Fe32  1  0.16877962  0.50156379  0.83518611  1
  Ni  Ni33  1  0.16780608  0.83556712  0.50283320  1
  Ni  Ni34  1  0.00255672  0.66890462  0.66835910  1
  Fe  Fe35  1  0.16627284  0.83470963  0.83381557  1
  Ni  Ni36  1  0.50200692  0.16796689  0.50262015  1
  Ni  Ni37  1  0.33418571  0.00281822  0.66814236  1
  Ni  Ni38  1  0.50277670  0.17094715  0.83388215  1
  Cr  Cr39  1  0.50198659  0.50039546  0.50236692  1
  Ni  Ni40  1  0.33524796  0.33515979  0.66952372  1
  Ni  Ni41  1  0.50140945  0.50048160  0.83557423  1
  Cr  Cr42  1  0.50069822  0.83728309  0.50187786  1
  Ni  Ni43  1  0.33261641  0.66809468  0.66957469  1
  Cr  Cr44  1  0.50226225  0.83489130  0.83481414  1
  Ni  Ni45  1  0.83596163  0.16921083  0.50246610  1
  Ni  Ni46  1  0.67016266  0.00390535  0.66870188  1
  Ni  Ni47  1  0.83562595  0.16856091  0.83555930  1
  Ni  Ni48  1  0.83781349  0.50098541  0.50220809  1
  Ni  Ni49  1  0.66935480  0.33432713  0.66951296  1
  Ni  Ni50  1  0.83568303  0.50155835  0.83536749  1
  Fe  Fe51  1  0.83747296  0.83612901  0.50208002  1
  Fe  Fe52  1  0.67123827  0.66754948  0.66992985  1
  Ni  Ni53  1  0.83748005  0.83595247  0.83534834  1
" 