577,Ni76Fe22Cr0_4,-242.206670036504, 211.542236888117,Ni76Fe22Cr0,"# generated using pymatgen
 data_CrFe12Ni41
_symmetry_space_group_name_H-M   'P 1'
_cell_length_a   7.42103475
_cell_length_b   7.42103475
_cell_length_c   10.49492799
_cell_angle_alpha   90.00000000
_cell_angle_beta   90.00000000
_cell_angle_gamma   90.00000000
_symmetry_Int_Tables_number   1
_chemical_formula_structural   CrFe12Ni41
_chemical_formula_sum   'Cr1 Fe12 Ni41'
_cell_volume   577.97412166
_cell_formula_units_Z   1
loop_
 _symmetry_equiv_pos_site_id
 _symmetry_equiv_pos_as_xyz
  1  'x, y, z'
loop_
 _atom_site_type_symbol
 _atom_site_label
 _atom_site_symmetry_multiplicity
 _atom_site_fract_x
 _atom_site_fract_y
 _atom_site_fract_z
 _atom_site_occupancy
  Ni  Ni0  1  0.00352847  0.00332847  0.00383707  1
  Ni  Ni1  1  0.16979718  0.17003601  0.17010052  1
  Fe  Fe2  1  1.00238157  1.00227042  0.33678851  1
  Ni  Ni3  1  1.00292681  0.33620621  0.00329402  1
  Ni  Ni4  1  0.17006402  0.50262452  0.16931479  1
  Fe  Fe5  1  1.00274805  0.33696317  0.33637026  1
  Ni  Ni6  1  0.00342756  0.66976530  1.00224464  1
  Fe  Fe7  1  0.16965112  0.83613579  0.17006295  1
  Ni  Ni8  1  0.00391270  0.66940314  0.33701045  1
  Fe  Fe9  1  0.33637352  1.00307816  1.00301800  1
  Ni  Ni10  1  0.50274752  0.16952797  0.16904519  1
  Ni  Ni11  1  0.33634927  1.00255696  0.33656158  1
  Fe  Fe12  1  0.33630823  0.33651750  0.00313287  1
  Ni  Ni13  1  0.50304272  0.50369702  0.16992201  1
  Fe  Fe14  1  0.33738078  0.33698966  0.33686499  1
  Fe  Fe15  1  0.33690802  0.66970514  0.00332494  1
  Ni  Ni16  1  0.50382182  0.83607663  0.17016195  1
  Ni  Ni17  1  0.33583895  0.67048428  0.33615824  1
  Ni  Ni18  1  0.66975864  0.00325891  1.00280731  1
  Ni  Ni19  1  0.83675519  0.16925812  0.16969940  1
  Ni  Ni20  1  0.66896479  0.00386196  0.33671813  1
  Ni  Ni21  1  0.67006191  0.33657065  0.00315486  1
  Ni  Ni22  1  0.83619579  0.50370052  0.16972791  1
  Ni  Ni23  1  0.67004824  0.33632697  0.33616789  1
  Ni  Ni24  1  0.66949310  0.66947030  0.00372370  1
  Ni  Ni25  1  0.83568299  0.83634080  0.16919626  1
  Ni  Ni26  1  0.66954857  0.66911258  0.33614242  1
  Ni  Ni27  1  0.17058464  0.16928840  0.50346451  1
  Ni  Ni28  1  0.00423516  0.00405933  0.66949658  1
  Ni  Ni29  1  0.16944194  0.16899572  0.83573889  1
  Ni  Ni30  1  0.16973283  0.50246032  0.50313553  1
  Ni  Ni31  1  1.00279262  0.33522954  0.66970043  1
  Fe  Fe32  1  0.16814189  0.50241957  0.83729484  1
  Ni  Ni33  1  0.16866012  0.83755049  0.50201979  1
  Fe  Fe34  1  1.00145376  0.66959274  0.66941184  1
  Ni  Ni35  1  0.16912339  0.83844833  0.83772532  1
  Ni  Ni36  1  0.50233708  0.17042607  0.50395873  1
  Ni  Ni37  1  0.33502270  0.00466156  0.66991561  1
  Fe  Fe38  1  0.50366636  0.16946908  0.83611162  1
  Ni  Ni39  1  0.50382127  0.50195931  0.50188916  1
  Ni  Ni40  1  0.33619508  0.33436205  0.66935486  1
  Ni  Ni41  1  0.50456481  0.50300062  0.83748770  1
  Fe  Fe42  1  0.50371950  0.83723813  0.50182483  1
  Cr  Cr43  1  0.33685581  0.67031175  0.66916276  1
  Ni  Ni44  1  0.50373895  0.83616757  0.83670680  1
  Ni  Ni45  1  0.83637823  0.16935488  0.50313706  1
  Fe  Fe46  1  0.67005169  0.00385837  0.66976750  1
  Ni  Ni47  1  0.83758437  0.16982268  0.83646666  1
  Ni  Ni48  1  0.83574603  0.50388084  0.50337979  1
  Ni  Ni49  1  0.67031166  0.33720519  0.66997710  1
  Ni  Ni50  1  0.83530053  0.50331815  0.83619177  1
  Ni  Ni51  1  0.83688001  0.83606393  0.50388610  1
  Ni  Ni52  1  0.67091193  0.66883730  0.66943367  1
  Ni  Ni53  1  0.83643900  0.83615979  0.83621859  1
" 