4307,Ni76Fe4Cr18_2,-232.176287516709, 162.6737186665,Ni76Fe4Cr18,"# generated using pymatgen
 data_Cr11Fe2Ni41
_symmetry_space_group_name_H-M   'P 1'
_cell_length_a   7.47097018
_cell_length_b   7.47097018
_cell_length_c   10.56554736
_cell_angle_alpha   90.00000000
_cell_angle_beta   90.00000000
_cell_angle_gamma   90.00000000
_symmetry_Int_Tables_number   1
_chemical_formula_structural   Cr11Fe2Ni41
_chemical_formula_sum   'Cr11 Fe2 Ni41'
_cell_volume   589.72020432
_cell_formula_units_Z   1
loop_
 _symmetry_equiv_pos_site_id
 _symmetry_equiv_pos_as_xyz
  1  'x, y, z'
loop_
 _atom_site_type_symbol
 _atom_site_label
 _atom_site_symmetry_multiplicity
 _atom_site_fract_x
 _atom_site_fract_y
 _atom_site_fract_z
 _atom_site_occupancy
  Ni  Ni0  1  0.00069909  0.00100995  0.99886521  1
  Ni  Ni1  1  0.16367334  0.16527737  0.16558398  1
  Ni  Ni2  1  0.99939253  0.00258329  0.33265245  1
  Ni  Ni3  1  0.99930170  0.33198169  0.99955466  1
  Cr  Cr4  1  0.16466434  0.49730362  0.16466672  1
  Ni  Ni5  1  0.99674333  0.33118063  0.33399354  1
  Ni  Ni6  1  -0.00014771  0.66620313  0.99857057  1
  Cr  Cr7  1  0.16543768  0.83584484  0.16446592  1
  Fe  Fe8  1  0.99719462  0.66577548  0.33391750  1
  Ni  Ni9  1  0.33012428  0.00066783  0.99953612  1
  Cr  Cr10  1  0.49907318  0.16664857  0.16605635  1
  Ni  Ni11  1  0.33262050  0.99898421  0.33509130  1
  Ni  Ni12  1  0.33240937  0.33346722  0.99818542  1
  Ni  Ni13  1  0.50252494  0.50071337  0.16450864  1
  Cr  Cr14  1  0.33055458  0.33138631  0.33424007  1
  Ni  Ni15  1  0.33233736  0.66509297  0.99906910  1
  Ni  Ni16  1  0.50058311  0.83237828  0.16813024  1
  Cr  Cr17  1  0.33434180  0.66813685  0.33383014  1
  Cr  Cr18  1  0.66923204  0.00100285  -0.00024293  1
  Ni  Ni19  1  0.83558349  0.16712829  0.16713123  1
  Ni  Ni20  1  0.66711398  0.99904695  0.33284704  1
  Ni  Ni21  1  0.66752948  0.33429833  0.99892178  1
  Ni  Ni22  1  0.83212121  0.49903456  0.16760057  1
  Ni  Ni23  1  0.67078901  0.33341242  0.33283862  1
  Cr  Cr24  1  0.66713470  0.66445006  0.00089546  1
  Ni  Ni25  1  0.83306278  0.83306184  0.16797008  1
  Ni  Ni26  1  0.66750870  0.66672991  0.33081272  1
  Ni  Ni27  1  0.16559730  0.16526748  0.50002031  1
  Ni  Ni28  1  0.00234233  0.00081681  0.66774414  1
  Ni  Ni29  1  0.16644278  0.16698364  0.83371526  1
  Ni  Ni30  1  0.16282236  0.49957238  0.50164576  1
  Ni  Ni31  1  -0.00003355  0.33320246  0.66573443  1
  Ni  Ni32  1  0.16625435  0.49917975  0.83308097  1
  Ni  Ni33  1  0.16733298  0.83437738  0.50156001  1
  Ni  Ni34  1  0.00076736  0.66514641  0.66665213  1
  Fe  Fe35  1  0.16459266  0.83303617  0.83267720  1
  Ni  Ni36  1  0.49937995  0.16435734  0.50007517  1
  Ni  Ni37  1  0.33042776  0.00052862  0.66443668  1
  Ni  Ni38  1  0.49737378  0.16985990  0.83282972  1
  Cr  Cr39  1  0.50207543  0.49926641  0.50236739  1
  Ni  Ni40  1  0.33165703  0.33260806  0.66725096  1
  Ni  Ni41  1  0.49843935  0.49721961  0.83279361  1
  Ni  Ni42  1  0.49770921  0.83500094  0.49889591  1
  Ni  Ni43  1  0.33126255  0.66607115  0.66630831  1
  Cr  Cr44  1  0.49765620  0.83248362  0.83179093  1
  Ni  Ni45  1  0.83417347  0.16881672  0.49878587  1
  Cr  Cr46  1  0.66715925  0.00176471  0.66659106  1
  Ni  Ni47  1  0.83540971  0.16804936  0.83328846  1
  Ni  Ni48  1  0.83509006  0.49804974  0.49958312  1
  Ni  Ni49  1  0.66762226  0.33416718  0.66745389  1
  Ni  Ni50  1  0.83447848  0.49926436  0.83195193  1
  Cr  Cr51  1  0.83352849  0.83208651  0.49918008  1
  Ni  Ni52  1  0.66713981  0.66387829  0.66716958  1
  Ni  Ni53  1  0.83751908  0.83196804  0.83254844  1
" 