6137,Ni76Fe7Cr15_6,-234.29034275008, 174.621820394317,Ni76Fe7Cr15,"# generated using pymatgen
 data_Cr9Fe4Ni41
_symmetry_space_group_name_H-M   'P 1'
_cell_length_a   7.45740694
_cell_length_b   7.45740694
_cell_length_c   10.54636603
_cell_angle_alpha   90.00000000
_cell_angle_beta   90.00000000
_cell_angle_gamma   90.00000000
_symmetry_Int_Tables_number   1
_chemical_formula_structural   Cr9Fe4Ni41
_chemical_formula_sum   'Cr9 Fe4 Ni41'
_cell_volume   586.51419130
_cell_formula_units_Z   1
loop_
 _symmetry_equiv_pos_site_id
 _symmetry_equiv_pos_as_xyz
  1  'x, y, z'
loop_
 _atom_site_type_symbol
 _atom_site_label
 _atom_site_symmetry_multiplicity
 _atom_site_fract_x
 _atom_site_fract_y
 _atom_site_fract_z
 _atom_site_occupancy
  Ni  Ni0  1  1.00046192  0.99925905  1.00013640  1
  Cr  Cr1  1  0.16799389  0.16630220  0.16657822  1
  Ni  Ni2  1  0.99936292  0.99857614  0.33461270  1
  Ni  Ni3  1  0.99857513  0.33491685  1.00059501  1
  Ni  Ni4  1  0.16687208  0.50107119  0.16853649  1
  Fe  Fe5  1  0.99871275  0.33279282  0.33389605  1
  Ni  Ni6  1  0.00152791  0.66741933  1.00025469  1
  Ni  Ni7  1  0.16646989  0.83420244  0.16793001  1
  Ni  Ni8  1  0.00291679  0.67048290  0.33238025  1
  Ni  Ni9  1  0.33431621  0.99962503  0.00092926  1
  Ni  Ni10  1  0.50081827  0.16673126  0.16770539  1
  Ni  Ni11  1  0.33530580  0.99810124  0.33372010  1
  Fe  Fe12  1  0.33493140  0.33449314  0.99886279  1
  Cr  Cr13  1  0.50163251  0.50144870  0.16805245  1
  Fe  Fe14  1  0.33682828  0.33348446  0.33513370  1
  Cr  Cr15  1  0.33266569  0.66981413  0.99920828  1
  Ni  Ni16  1  0.50109071  0.83534509  0.16926010  1
  Ni  Ni17  1  0.33289095  0.66962811  0.33471305  1
  Cr  Cr18  1  0.66672362  0.00124265  0.00191184  1
  Ni  Ni19  1  0.83387651  0.16651486  0.16838959  1
  Ni  Ni20  1  0.66716123  0.00231211  0.33367491  1
  Ni  Ni21  1  0.66861153  0.33255916  0.99820415  1
  Cr  Cr22  1  0.83361570  0.50297392  0.16729962  1
  Ni  Ni23  1  0.66661784  0.33042184  0.33545284  1
  Ni  Ni24  1  0.66852771  0.66709682  0.99871050  1
  Ni  Ni25  1  0.83450962  0.83473886  0.16803141  1
  Ni  Ni26  1  0.66618987  0.66966280  0.33494205  1
  Cr  Cr27  1  0.16771541  0.16415018  0.50250784  1
  Fe  Fe28  1  0.99793814  0.99837898  0.66724946  1
  Cr  Cr29  1  0.16768528  0.16535857  0.83304148  1
  Cr  Cr30  1  0.16847951  0.50200584  0.50025748  1
  Ni  Ni31  1  0.99820941  0.33502319  0.66808824  1
  Ni  Ni32  1  0.16614642  0.50053451  0.83323162  1
  Ni  Ni33  1  0.16728725  0.83439413  0.50125635  1
  Ni  Ni34  1  0.00148319  0.66794027  0.66931381  1
  Ni  Ni35  1  0.16656643  0.83379457  0.83255223  1
  Ni  Ni36  1  0.50150996  0.16649478  0.50084666  1
  Ni  Ni37  1  0.33717978  0.99818811  0.66725055  1
  Ni  Ni38  1  0.50096653  0.16722770  0.83347956  1
  Ni  Ni39  1  0.50117995  0.50129580  0.50129596  1
  Ni  Ni40  1  0.33642502  0.33478228  0.66818180  1
  Ni  Ni41  1  0.50246888  0.50052916  0.83207556  1
  Ni  Ni42  1  0.50118153  0.83398885  0.50022679  1
  Ni  Ni43  1  0.33379599  0.66864706  0.66740945  1
  Ni  Ni44  1  0.50127054  0.83414457  0.83232342  1
  Ni  Ni45  1  0.83239329  0.16530119  0.50089057  1
  Ni  Ni46  1  0.66644078  0.00163665  0.66649335  1
  Ni  Ni47  1  0.83363069  0.16755908  0.83282221  1
  Cr  Cr48  1  0.83112917  0.50289594  0.50055690  1
  Ni  Ni49  1  0.66721338  0.33197356  0.66808270  1
  Ni  Ni50  1  0.83353652  0.50122103  0.83424614  1
  Ni  Ni51  1  0.83328118  0.83513546  0.50035392  1
  Ni  Ni52  1  0.66657399  0.66842863  0.66818877  1
  Ni  Ni53  1  0.83400971  0.83265746  0.83355999  1
" 