4739,Ni76Fe7Cr15_4,-234.42600487976, 175.040438135694,Ni76Fe7Cr15,"# generated using pymatgen
 data_Cr9Fe4Ni41
_symmetry_space_group_name_H-M   'P 1'
_cell_length_a   7.45743516
_cell_length_b   7.45743516
_cell_length_c   10.54640595
_cell_angle_alpha   90.00000000
_cell_angle_beta   90.00000000
_cell_angle_gamma   90.00000000
_symmetry_Int_Tables_number   1
_chemical_formula_structural   Cr9Fe4Ni41
_chemical_formula_sum   'Cr9 Fe4 Ni41'
_cell_volume   586.52085137
_cell_formula_units_Z   1
loop_
 _symmetry_equiv_pos_site_id
 _symmetry_equiv_pos_as_xyz
  1  'x, y, z'
loop_
 _atom_site_type_symbol
 _atom_site_label
 _atom_site_symmetry_multiplicity
 _atom_site_fract_x
 _atom_site_fract_y
 _atom_site_fract_z
 _atom_site_occupancy
  Cr  Cr0  1  0.00164145  1.00030764  0.00279014  1
  Ni  Ni1  1  0.16841791  0.16774470  0.16819795  1
  Fe  Fe2  1  0.00326756  0.00279346  0.33328739  1
  Ni  Ni3  1  0.00243496  0.33567896  1.00030135  1
  Ni  Ni4  1  0.16895617  0.49950497  0.16626343  1
  Ni  Ni5  1  0.00180934  0.33203494  0.33508193  1
  Ni  Ni6  1  0.00219696  0.66566986  0.99984526  1
  Ni  Ni7  1  0.16824307  0.83468903  0.16738978  1
  Cr  Cr8  1  0.00233900  0.66682856  0.33395416  1
  Ni  Ni9  1  0.33575600  0.00081368  0.99975559  1
  Ni  Ni10  1  0.49940805  0.16771373  0.16608377  1
  Ni  Ni11  1  0.33290985  0.00077707  0.33466687  1
  Ni  Ni12  1  0.33350126  0.33374174  1.00064331  1
  Ni  Ni13  1  0.49978080  0.50045349  0.16773325  1
  Ni  Ni14  1  0.33313470  0.33356794  0.33401875  1
  Ni  Ni15  1  0.33349620  0.66737634  0.00069951  1
  Ni  Ni16  1  0.50056060  0.83375568  0.16646864  1
  Ni  Ni17  1  0.33476043  0.66759408  0.33435679  1
  Ni  Ni18  1  0.66431016  1.00058766  0.00214443  1
  Fe  Fe19  1  0.83375195  0.16759669  0.16739435  1
  Cr  Cr20  1  0.66613935  0.00086733  0.33223146  1
  Ni  Ni21  1  0.66599699  0.33342802  0.99995610  1
  Cr  Cr22  1  0.83297254  0.50066994  0.16614512  1
  Ni  Ni23  1  0.66699438  0.33389257  0.33585485  1
  Ni  Ni24  1  0.66623295  0.66793256  1.00054132  1
  Ni  Ni25  1  0.83313215  0.83431235  0.16622514  1
  Ni  Ni26  1  0.66462748  0.66650273  0.33446013  1
  Ni  Ni27  1  0.16705376  0.16594515  0.49886128  1
  Fe  Fe28  1  0.00225239  0.99959642  0.66657635  1
  Ni  Ni29  1  0.16974952  0.16682032  0.83490855  1
  Ni  Ni30  1  0.16774327  0.50108214  0.49952424  1
  Cr  Cr31  1  1.00029770  0.33549616  0.66691902  1
  Ni  Ni32  1  0.16693544  0.50201395  0.83616283  1
  Ni  Ni33  1  0.16926516  0.83490293  0.50155636  1
  Ni  Ni34  1  0.00225339  0.66754056  0.66784936  1
  Ni  Ni35  1  0.16935859  0.83308677  0.83299578  1
  Ni  Ni36  1  0.50087306  0.16775523  0.50101082  1
  Fe  Fe37  1  0.33477965  0.99876514  0.66732103  1
  Ni  Ni38  1  0.49981761  0.16678468  0.83481862  1
  Ni  Ni39  1  0.50198468  0.50107791  0.49930531  1
  Cr  Cr40  1  0.33497809  0.33424120  0.66751745  1
  Ni  Ni41  1  0.50164560  0.50104778  0.83490653  1
  Ni  Ni42  1  0.49866406  0.83309261  0.50131498  1
  Ni  Ni43  1  0.33328519  0.66953080  0.66687653  1
  Ni  Ni44  1  0.49924679  0.83409799  0.83411986  1
  Ni  Ni45  1  0.83403322  0.16926437  0.50005692  1
  Ni  Ni46  1  0.66522236  0.00114480  0.66686551  1
  Cr  Cr47  1  0.83228295  0.16903002  0.83441164  1
  Ni  Ni48  1  0.83220901  0.49887527  0.50126664  1
  Ni  Ni49  1  0.66725621  0.33349562  0.66612685  1
  Ni  Ni50  1  0.83336111  0.50143055  0.83436690  1
  Cr  Cr51  1  0.83386068  0.83329536  0.50238684  1
  Ni  Ni52  1  0.66639472  0.66727673  0.66693489  1
  Cr  Cr53  1  0.83322589  0.83127613  0.83335047  1
" 