2024,Ni76Fe16Cr7_1,-238.450873369114, 194.091649913911,Ni76Fe16Cr7,"# generated using pymatgen
 data_Cr5Fe8Ni41
_symmetry_space_group_name_H-M   'P 1'
_cell_length_a   7.44141929
_cell_length_b   7.44141929
_cell_length_c   10.52375608
_cell_angle_alpha   90.00000000
_cell_angle_beta   90.00000000
_cell_angle_gamma   90.00000000
_symmetry_Int_Tables_number   1
_chemical_formula_structural   Cr5Fe8Ni41
_chemical_formula_sum   'Cr5 Fe8 Ni41'
_cell_volume   582.75005768
_cell_formula_units_Z   1
loop_
 _symmetry_equiv_pos_site_id
 _symmetry_equiv_pos_as_xyz
  1  'x, y, z'
loop_
 _atom_site_type_symbol
 _atom_site_label
 _atom_site_symmetry_multiplicity
 _atom_site_fract_x
 _atom_site_fract_y
 _atom_site_fract_z
 _atom_site_occupancy
  Cr  Cr0  1  1.00151433  1.00153916  1.00158760  1
  Ni  Ni1  1  0.16780633  0.16799252  0.16937549  1
  Fe  Fe2  1  1.00170386  0.00228085  0.33512603  1
  Ni  Ni3  1  0.99981758  0.33655445  1.00090649  1
  Cr  Cr4  1  0.16761359  0.50025547  0.16687997  1
  Fe  Fe5  1  1.00108843  0.33377702  0.33537678  1
  Ni  Ni6  1  1.00156793  0.66693136  1.00118655  1
  Fe  Fe7  1  0.16835022  0.83625922  0.16818016  1
  Ni  Ni8  1  0.99993566  0.66915270  0.33525334  1
  Ni  Ni9  1  0.33584627  1.00004528  1.00126089  1
  Cr  Cr10  1  0.50115648  0.16778962  0.16788689  1
  Ni  Ni11  1  0.33444817  0.00265733  0.33596645  1
  Fe  Fe12  1  0.33520946  0.33541112  1.00001921  1
  Ni  Ni13  1  0.50387107  0.50312632  0.16752145  1
  Ni  Ni14  1  0.33567829  0.33329422  0.33671986  1
  Ni  Ni15  1  0.33513334  0.66963565  1.00067156  1
  Ni  Ni16  1  0.50325870  0.83457143  0.16721566  1
  Cr  Cr17  1  0.33443456  0.66912979  0.33658408  1
  Ni  Ni18  1  0.66739213  0.00179675  1.00085886  1
  Ni  Ni19  1  0.83614618  0.16861223  0.16902752  1
  Ni  Ni20  1  0.66940927  0.00258107  0.33564208  1
  Ni  Ni21  1  0.67009704  0.33583957  1.00115601  1
  Ni  Ni22  1  0.83408550  0.50258287  0.16820451  1
  Ni  Ni23  1  0.66947759  0.33466315  0.33580960  1
  Ni  Ni24  1  0.66846445  0.66752963  0.00219067  1
  Ni  Ni25  1  0.83355549  0.83397320  0.16923923  1
  Fe  Fe26  1  0.66924998  0.66837277  0.33446918  1
  Ni  Ni27  1  0.16902247  0.16868343  0.50125274  1
  Fe  Fe28  1  0.00219482  0.00354301  0.66851082  1
  Ni  Ni29  1  0.16931536  0.16941540  0.83453981  1
  Ni  Ni30  1  0.16869086  0.50008480  0.50183872  1
  Fe  Fe31  1  0.00224038  0.33316533  0.66893049  1
  Ni  Ni32  1  0.16905257  0.50095336  0.83610270  1
  Ni  Ni33  1  0.16868836  0.83639864  0.50097635  1
  Cr  Cr34  1  0.00300589  0.66842306  0.66923309  1
  Ni  Ni35  1  0.17019014  0.83479776  0.83593723  1
  Ni  Ni36  1  0.50112070  0.16821456  0.50132181  1
  Ni  Ni37  1  0.33560981  1.00155933  0.66793571  1
  Ni  Ni38  1  0.50150125  0.16786860  0.83547826  1
  Ni  Ni39  1  0.50188738  0.50099520  0.50207354  1
  Ni  Ni40  1  0.33581962  0.33512647  0.66821468  1
  Ni  Ni41  1  0.50124238  0.50198362  0.83557415  1
  Ni  Ni42  1  0.50235562  0.83595640  0.50253775  1
  Ni  Ni43  1  0.33474279  0.66848008  0.66811627  1
  Ni  Ni44  1  0.50165157  0.83531412  0.83541331  1
  Ni  Ni45  1  0.83503058  0.16821451  0.50144574  1
  Ni  Ni46  1  0.66822605  0.00337451  0.66866349  1
  Ni  Ni47  1  0.83435338  0.16900739  0.83469276  1
  Ni  Ni48  1  0.83458397  0.50132450  0.50010963  1
  Ni  Ni49  1  0.66828871  0.33358331  0.66819841  1
  Ni  Ni50  1  0.83486884  0.50110596  0.83685437  1
  Ni  Ni51  1  0.83411477  0.83562729  0.50057820  1
  Fe  Fe52  1  0.66555908  0.66838042  0.66879036  1
  Ni  Ni53  1  0.83331899  0.83505248  0.83535174  1
" 