3931,Ni76Fe16Cr7_7,-238.378185385475, 192.355418804994,Ni76Fe16Cr7,"# generated using pymatgen
 data_Cr5Fe8Ni41
_symmetry_space_group_name_H-M   'P 1'
_cell_length_a   7.43875475
_cell_length_b   7.43875475
_cell_length_c   10.51998786
_cell_angle_alpha   90.00000000
_cell_angle_beta   90.00000000
_cell_angle_gamma   90.00000000
_symmetry_Int_Tables_number   1
_chemical_formula_structural   Cr5Fe8Ni41
_chemical_formula_sum   'Cr5 Fe8 Ni41'
_cell_volume   582.12428821
_cell_formula_units_Z   1
loop_
 _symmetry_equiv_pos_site_id
 _symmetry_equiv_pos_as_xyz
  1  'x, y, z'
loop_
 _atom_site_type_symbol
 _atom_site_label
 _atom_site_symmetry_multiplicity
 _atom_site_fract_x
 _atom_site_fract_y
 _atom_site_fract_z
 _atom_site_occupancy
  Ni  Ni0  1  0.00277913  0.00227920  0.00255454  1
  Ni  Ni1  1  0.16775058  0.17017319  0.16718520  1
  Cr  Cr2  1  1.00163157  0.00266281  0.33397650  1
  Ni  Ni3  1  1.00167344  0.33461095  0.00399893  1
  Ni  Ni4  1  0.16780819  0.50170044  0.16949236  1
  Ni  Ni5  1  1.00145630  0.33637023  0.33487048  1
  Ni  Ni6  1  1.00084196  0.66881471  0.00311018  1
  Ni  Ni7  1  0.16977929  0.83383238  0.16768363  1
  Fe  Fe8  1  0.00241871  0.66718121  0.33466815  1
  Ni  Ni9  1  0.33343182  0.99981799  0.00206249  1
  Cr  Cr10  1  0.50202948  0.16748300  0.16943667  1
  Ni  Ni11  1  0.33630778  1.00026100  0.33580109  1
  Fe  Fe12  1  0.33353819  0.33584867  0.00250718  1
  Fe  Fe13  1  0.50157033  0.50393930  0.16889778  1
  Ni  Ni14  1  0.33438305  0.33696399  0.33553455  1
  Ni  Ni15  1  0.33689851  0.66974540  0.00261891  1
  Ni  Ni16  1  0.50180741  0.83424796  0.16883608  1
  Ni  Ni17  1  0.33581079  0.66848166  0.33469899  1
  Ni  Ni18  1  0.66949468  0.99898320  0.00315527  1
  Ni  Ni19  1  0.83588400  0.16996196  0.16773777  1
  Ni  Ni20  1  0.66794124  1.00135658  0.33580099  1
  Fe  Fe21  1  0.67026055  0.33790730  0.00256462  1
  Ni  Ni22  1  0.83629990  0.50143635  0.16884042  1
  Ni  Ni23  1  0.66986608  0.33586910  0.33553514  1
  Ni  Ni24  1  0.66796502  0.66864076  1.00174759  1
  Ni  Ni25  1  0.83411800  0.83430794  0.16763223  1
  Fe  Fe26  1  0.66762930  0.66867396  0.33521591  1
  Ni  Ni27  1  0.16884953  0.16970105  0.50307139  1
  Ni  Ni28  1  0.00277902  1.00154898  0.66877461  1
  Ni  Ni29  1  0.16869286  0.16706538  0.83544663  1
  Fe  Fe30  1  0.16884475  0.50219312  0.50167204  1
  Ni  Ni31  1  1.00167323  0.33475188  0.66683726  1
  Cr  Cr32  1  0.16840113  0.50219623  0.83420943  1
  Ni  Ni33  1  0.16978278  0.83483706  0.50296020  1
  Ni  Ni34  1  1.00083924  0.66940682  0.66796292  1
  Ni  Ni35  1  0.16880196  0.83662238  0.83506074  1
  Fe  Fe36  1  0.50203163  0.16759571  0.50178537  1
  Ni  Ni37  1  0.33404328  1.00094700  0.66784161  1
  Cr  Cr38  1  0.50042285  0.16837516  0.83406108  1
  Ni  Ni39  1  0.50159705  0.50183526  0.50189982  1
  Ni  Ni40  1  0.33514564  0.33534877  0.66726390  1
  Ni  Ni41  1  0.50356047  0.50379158  0.83589029  1
  Ni  Ni42  1  0.50180612  0.83464817  0.50192164  1
  Ni  Ni43  1  0.33657954  0.66940855  0.66838962  1
  Ni  Ni44  1  0.50190512  0.83324438  0.83494893  1
  Ni  Ni45  1  0.83478436  0.16949071  0.50251878  1
  Ni  Ni46  1  0.66888260  1.00011447  0.66674917  1
  Cr  Cr47  1  0.83692629  0.16832935  0.83548837  1
  Fe  Fe48  1  0.83529162  0.50180240  0.50243063  1
  Ni  Ni49  1  0.66888670  0.33728693  0.66753448  1
  Ni  Ni50  1  0.83339008  0.50367998  0.83447537  1
  Ni  Ni51  1  0.83411635  0.83531330  0.50301337  1
  Ni  Ni52  1  0.66828528  0.66830409  0.66926032  1
  Ni  Ni53  1  0.83499805  0.83330291  0.83506126  1
" 