5827,Ni76Fe6Cr17_1,-233.176402603669, 168.060251648395,Ni76Fe6Cr17,"# generated using pymatgen
 data_Cr10Fe3Ni41
_symmetry_space_group_name_H-M   'P 1'
_cell_length_a   7.46452403
_cell_length_b   7.46452403
_cell_length_c   10.55643113
_cell_angle_alpha   90.00000000
_cell_angle_beta   90.00000000
_cell_angle_gamma   90.00000000
_symmetry_Int_Tables_number   1
_chemical_formula_structural   Cr10Fe3Ni41
_chemical_formula_sum   'Cr10 Fe3 Ni41'
_cell_volume   588.19504281
_cell_formula_units_Z   1
loop_
 _symmetry_equiv_pos_site_id
 _symmetry_equiv_pos_as_xyz
  1  'x, y, z'
loop_
 _atom_site_type_symbol
 _atom_site_label
 _atom_site_symmetry_multiplicity
 _atom_site_fract_x
 _atom_site_fract_y
 _atom_site_fract_z
 _atom_site_occupancy
  Ni  Ni0  1  0.00152072  0.99937540  0.00048323  1
  Ni  Ni1  1  0.16831789  0.16712566  0.16540545  1
  Ni  Ni2  1  0.99999126  0.99634931  0.33244740  1
  Ni  Ni3  1  0.00271809  0.33408238  0.99908040  1
  Ni  Ni4  1  0.16817245  0.50079427  0.16675834  1
  Cr  Cr5  1  0.99930393  0.33514773  0.33164617  1
  Ni  Ni6  1  1.00010280  0.66704928  0.00116656  1
  Ni  Ni7  1  0.16428462  0.83258768  0.16721981  1
  Ni  Ni8  1  0.00111811  0.66923512  0.33285107  1
  Ni  Ni9  1  0.33231403  0.00107387  0.99931933  1
  Ni  Ni10  1  0.49869742  0.16880740  0.16818816  1
  Cr  Cr11  1  0.33256944  0.99978436  0.33376674  1
  Ni  Ni12  1  0.33175538  0.33302198  0.00157810  1
  Ni  Ni13  1  0.49802300  0.49829321  0.16754152  1
  Fe  Fe14  1  0.33658920  0.33512968  0.33137635  1
  Ni  Ni15  1  0.33267079  0.66641076  0.99981372  1
  Cr  Cr16  1  0.50079015  0.83315849  0.16431478  1
  Ni  Ni17  1  0.33152943  0.66574896  0.33362034  1
  Ni  Ni18  1  0.66667327  0.99846076  0.99905018  1
  Cr  Cr19  1  0.83333965  0.16440835  0.16709199  1
  Ni  Ni20  1  0.66762870  0.00189342  0.33435616  1
  Cr  Cr21  1  0.66620969  0.33488819  0.99979494  1
  Ni  Ni22  1  0.83431186  0.50232762  0.16697313  1
  Ni  Ni23  1  0.66414219  0.33356377  0.33381670  1
  Ni  Ni24  1  0.66773380  0.66760911  0.99973455  1
  Ni  Ni25  1  0.83599251  0.83326063  0.16682528  1
  Cr  Cr26  1  0.66802825  0.66497543  0.33377905  1
  Cr  Cr27  1  0.16804425  0.16609069  0.50112292  1
  Cr  Cr28  1  0.00109839  0.99887860  0.66809002  1
  Ni  Ni29  1  0.16743666  0.16785657  0.83431133  1
  Cr  Cr30  1  0.16799531  0.50267083  0.50128792  1
  Ni  Ni31  1  0.99908909  0.33609614  0.66958431  1
  Ni  Ni32  1  0.16697657  0.49963150  0.83301843  1
  Ni  Ni33  1  0.16669914  0.83199165  0.49941038  1
  Ni  Ni34  1  0.99932855  0.66543061  0.66649054  1
  Ni  Ni35  1  0.16797265  0.83301888  0.83387854  1
  Fe  Fe36  1  0.50177578  0.16763725  0.50117130  1
  Ni  Ni37  1  0.33569280  0.99962636  0.66747197  1
  Ni  Ni38  1  0.49953081  0.16562303  0.83195477  1
  Ni  Ni39  1  0.50102670  0.49965737  0.50030552  1
  Ni  Ni40  1  0.33522160  0.33332376  0.66760604  1
  Ni  Ni41  1  0.49917018  0.50104519  0.83266086  1
  Fe  Fe42  1  0.50044276  0.83265084  0.50226806  1
  Ni  Ni43  1  0.33433525  0.66755652  0.66707049  1
  Ni  Ni44  1  0.50040803  0.83383891  0.83281584  1
  Cr  Cr45  1  0.83089820  0.16635055  0.50008400  1
  Ni  Ni46  1  0.66407272  0.99986619  0.66709843  1
  Ni  Ni47  1  0.83354044  0.16661836  0.83306165  1
  Ni  Ni48  1  0.83089083  0.50190383  0.50176349  1
  Ni  Ni49  1  0.66619793  0.33473741  0.66663809  1
  Ni  Ni50  1  0.83436067  0.50050978  0.83176848  1
  Ni  Ni51  1  0.83342534  0.83267126  0.49920547  1
  Ni  Ni52  1  0.66684230  0.66590338  0.66651228  1
  Ni  Ni53  1  0.83212645  0.83337978  0.83447746  1
" 