374,Ni76Fe6Cr17_5,-233.222032617767, 168.430305151981,Ni76Fe6Cr17,"# generated using pymatgen
 data_Cr10Fe3Ni41
_symmetry_space_group_name_H-M   'P 1'
_cell_length_a   7.46436237
_cell_length_b   7.46436237
_cell_length_c   10.55620250
_cell_angle_alpha   90.00000000
_cell_angle_beta   90.00000000
_cell_angle_gamma   90.00000000
_symmetry_Int_Tables_number   1
_chemical_formula_structural   Cr10Fe3Ni41
_chemical_formula_sum   'Cr10 Fe3 Ni41'
_cell_volume   588.15682778
_cell_formula_units_Z   1
loop_
 _symmetry_equiv_pos_site_id
 _symmetry_equiv_pos_as_xyz
  1  'x, y, z'
loop_
 _atom_site_type_symbol
 _atom_site_label
 _atom_site_symmetry_multiplicity
 _atom_site_fract_x
 _atom_site_fract_y
 _atom_site_fract_z
 _atom_site_occupancy
  Ni  Ni0  1  0.99759237  0.00087771  0.00083638  1
  Ni  Ni1  1  0.16605787  0.16358878  0.16764139  1
  Ni  Ni2  1  0.00085409  0.99851997  0.33330884  1
  Ni  Ni3  1  0.99851142  0.33216769  0.99779867  1
  Cr  Cr4  1  0.16871630  0.50196083  0.16657475  1
  Cr  Cr5  1  0.00025648  0.33257735  0.33482144  1
  Ni  Ni6  1  0.99909591  0.66749436  0.99902484  1
  Ni  Ni7  1  0.16674894  0.83474266  0.16734440  1
  Ni  Ni8  1  0.00047373  0.67007503  0.33528685  1
  Cr  Cr9  1  0.33373428  0.00018715  0.00208639  1
  Ni  Ni10  1  0.50206551  0.16677558  0.16825864  1
  Ni  Ni11  1  0.33367842  0.00030892  0.33322263  1
  Cr  Cr12  1  0.33295021  0.33316515  0.99995881  1
  Ni  Ni13  1  0.50095734  0.50134907  0.16763899  1
  Ni  Ni14  1  0.33512612  0.33131932  0.33364179  1
  Ni  Ni15  1  0.33320663  0.66700860  0.00175063  1
  Ni  Ni16  1  0.50051600  0.83241497  0.16734196  1
  Ni  Ni17  1  0.33343107  0.66890983  0.33322516  1
  Ni  Ni18  1  0.66958018  0.00060347  0.00071892  1
  Ni  Ni19  1  0.83241714  0.16403168  0.16536548  1
  Ni  Ni20  1  0.66600646  0.00021395  0.33332026  1
  Ni  Ni21  1  0.66909606  0.33200471  0.00024090  1
  Cr  Cr22  1  0.83065569  0.50008458  0.16574004  1
  Ni  Ni23  1  0.66484326  0.33170080  0.33322382  1
  Ni  Ni24  1  0.66823709  0.66793095  0.00083030  1
  Ni  Ni25  1  0.83327453  0.83584689  0.16658419  1
  Ni  Ni26  1  0.66663517  0.66862455  0.33332106  1
  Ni  Ni27  1  0.16638640  0.16640773  0.50011602  1
  Fe  Fe28  1  0.99777258  0.00145939  0.66632927  1
  Ni  Ni29  1  0.16320155  0.16979568  0.83278117  1
  Ni  Ni30  1  0.16596782  0.50158597  0.50195067  1
  Ni  Ni31  1  0.00061985  0.33478593  0.66755254  1
  Ni  Ni32  1  0.16477104  0.49881784  0.83230522  1
  Ni  Ni33  1  0.16686985  0.83254573  0.49905519  1
  Ni  Ni34  1  0.99941462  0.66456110  0.66622866  1
  Cr  Cr35  1  0.16465531  0.83197725  0.83435288  1
  Ni  Ni36  1  0.50144107  0.16573614  0.49996575  1
  Cr  Cr37  1  0.33465164  0.00200025  0.66558719  1
  Fe  Fe38  1  0.50329706  0.16811487  0.83247097  1
  Cr  Cr39  1  0.50040948  0.50049162  0.49959627  1
  Ni  Ni40  1  0.33097974  0.33302306  0.66709816  1
  Cr  Cr41  1  0.50072647  0.50053533  0.83290199  1
  Ni  Ni42  1  0.50010227  0.83407311  0.49952374  1
  Ni  Ni43  1  0.33125213  0.66539177  0.66556423  1
  Cr  Cr44  1  0.50285371  0.83240474  0.83357970  1
  Ni  Ni45  1  0.83271152  0.16663960  0.50103185  1
  Ni  Ni46  1  0.66810978  0.00091987  0.66649963  1
  Ni  Ni47  1  0.83420918  0.16723929  0.83414095  1
  Ni  Ni48  1  0.83423707  0.50024660  0.50151001  1
  Ni  Ni49  1  0.66893952  0.33151884  0.66707552  1
  Ni  Ni50  1  0.83486119  0.49915757  0.83366269  1
  Fe  Fe51  1  0.83360101  0.83355285  0.49993736  1
  Ni  Ni52  1  0.66987278  0.66810192  0.66638673  1
  Ni  Ni53  1  0.83308013  0.83414438  0.83340110  1
" 