6227,Ni76Fe4Cr18_14,-232.095002458051, 162.14718390013,Ni76Fe4Cr18,"# generated using pymatgen
 data_Cr11Fe2Ni41
_symmetry_space_group_name_H-M   'P 1'
_cell_length_a   7.46535574
_cell_length_b   7.46535574
_cell_length_c   10.55760734
_cell_angle_alpha   90.00000000
_cell_angle_beta   90.00000000
_cell_angle_gamma   90.00000000
_symmetry_Int_Tables_number   1
_chemical_formula_structural   Cr11Fe2Ni41
_chemical_formula_sum   'Cr11 Fe2 Ni41'
_cell_volume   588.39167675
_cell_formula_units_Z   1
loop_
 _symmetry_equiv_pos_site_id
 _symmetry_equiv_pos_as_xyz
  1  'x, y, z'
loop_
 _atom_site_type_symbol
 _atom_site_label
 _atom_site_symmetry_multiplicity
 _atom_site_fract_x
 _atom_site_fract_y
 _atom_site_fract_z
 _atom_site_occupancy
  Cr  Cr0  1  0.99984301  0.00122564  0.00259770  1
  Ni  Ni1  1  0.16675579  0.16863914  0.16734711  1
  Ni  Ni2  1  0.99986569  0.00185081  0.33381588  1
  Ni  Ni3  1  0.00069218  0.33447108  0.00085891  1
  Ni  Ni4  1  0.16838683  0.49807791  0.16582467  1
  Ni  Ni5  1  0.00073377  0.33112370  0.33215965  1
  Cr  Cr6  1  0.00096481  0.66421251  0.00029792  1
  Ni  Ni7  1  0.16849677  0.83362573  0.16684557  1
  Cr  Cr8  1  0.00122759  0.66825329  0.33236730  1
  Ni  Ni9  1  0.33629573  0.99906904  0.00063276  1
  Ni  Ni10  1  0.49891511  0.16779491  0.16491929  1
  Cr  Cr11  1  0.33100082  0.99921790  0.33260322  1
  Ni  Ni12  1  0.33220658  0.33320435  0.00213597  1
  Ni  Ni13  1  0.49949537  0.50114740  0.16899203  1
  Ni  Ni14  1  0.33265013  0.33606091  0.33247271  1
  Ni  Ni15  1  0.33405738  0.66807525  0.00107465  1
  Ni  Ni16  1  0.50028232  0.83139231  0.16426239  1
  Ni  Ni17  1  0.33486784  0.66484073  0.33351137  1
  Ni  Ni18  1  0.66379353  0.99958766  0.00056177  1
  Ni  Ni19  1  0.83464165  0.16788178  0.16777077  1
  Cr  Cr20  1  0.66917488  0.99966487  0.33241416  1
  Cr  Cr21  1  0.66784751  0.33207193  0.00054520  1
  Ni  Ni22  1  0.83244736  0.49943443  0.16698858  1
  Ni  Ni23  1  0.66693508  0.33495868  0.33179356  1
  Ni  Ni24  1  0.66509647  0.66848642  0.00225284  1
  Ni  Ni25  1  0.83155291  0.83305783  0.16711445  1
  Ni  Ni26  1  0.66452795  0.66574257  0.33228915  1
  Ni  Ni27  1  0.16465133  0.16772314  0.50040025  1
  Ni  Ni28  1  0.99988658  0.99997102  0.66410020  1
  Cr  Cr29  1  0.16794634  0.16703628  0.83288425  1
  Ni  Ni30  1  0.16881093  0.49923133  0.50165921  1
  Ni  Ni31  1  0.99962122  0.33350500  0.66729804  1
  Fe  Fe32  1  0.16636708  0.50054740  0.83259323  1
  Ni  Ni33  1  0.16704868  0.83340696  0.50197914  1
  Ni  Ni34  1  0.00181221  0.66686644  0.66734076  1
  Ni  Ni35  1  0.17017041  0.83233984  0.83152284  1
  Cr  Cr36  1  0.49961306  0.16835818  0.50213334  1
  Ni  Ni37  1  0.33364646  0.99829341  0.66740122  1
  Ni  Ni38  1  0.50038758  0.16470623  0.83296147  1
  Fe  Fe39  1  0.49841089  0.50180775  0.49969916  1
  Ni  Ni40  1  0.33277097  0.33405794  0.66575759  1
  Cr  Cr41  1  0.50012800  0.50101793  0.83213643  1
  Ni  Ni42  1  0.49996481  0.83029077  0.50224607  1
  Ni  Ni43  1  0.33229072  0.66801098  0.66580005  1
  Ni  Ni44  1  0.49834659  0.83468842  0.83384315  1
  Ni  Ni45  1  0.83609377  0.16624024  0.50119988  1
  Ni  Ni46  1  0.66682355  0.00047574  0.66743450  1
  Ni  Ni47  1  0.83220847  0.16915070  0.83136041  1
  Cr  Cr48  1  0.83245118  0.49963423  0.50070722  1
  Ni  Ni49  1  0.66794336  0.33211173  0.66772484  1
  Ni  Ni50  1  0.83454200  0.49856102  0.83216238  1
  Ni  Ni51  1  0.83331878  0.83450037  0.50166454  1
  Ni  Ni52  1  0.66623347  0.66775416  0.66582349  1
  Cr  Cr53  1  0.83187550  0.83266301  0.83183577  1
" 