5501,Ni76Fe22Cr0_8,-242.130010231315, 209.559602881851,Ni76Fe22Cr0,"# generated using pymatgen
 data_CrFe12Ni41
_symmetry_space_group_name_H-M   'P 1'
_cell_length_a   7.42073156
_cell_length_b   7.42073156
_cell_length_c   10.49449921
_cell_angle_alpha   90.00000000
_cell_angle_beta   90.00000000
_cell_angle_gamma   90.00000000
_symmetry_Int_Tables_number   1
_chemical_formula_structural   CrFe12Ni41
_chemical_formula_sum   'Cr1 Fe12 Ni41'
_cell_volume   577.90328319
_cell_formula_units_Z   1
loop_
 _symmetry_equiv_pos_site_id
 _symmetry_equiv_pos_as_xyz
  1  'x, y, z'
loop_
 _atom_site_type_symbol
 _atom_site_label
 _atom_site_symmetry_multiplicity
 _atom_site_fract_x
 _atom_site_fract_y
 _atom_site_fract_z
 _atom_site_occupancy
  Ni  Ni0  1  0.00360530  1.00211260  0.00387421  1
  Ni  Ni1  1  0.17026534  0.16955594  0.17039388  1
  Ni  Ni2  1  0.00339922  1.00232359  0.33552497  1
  Ni  Ni3  1  0.00365648  0.33555332  1.00194722  1
  Fe  Fe4  1  0.17088175  0.50276752  0.16972230  1
  Ni  Ni5  1  0.00419736  0.33549638  0.33706982  1
  Ni  Ni6  1  0.00330269  0.67169726  1.00114966  1
  Ni  Ni7  1  0.17050540  0.83673518  0.16963479  1
  Ni  Ni8  1  1.00309601  0.67154444  0.33817646  1
  Ni  Ni9  1  0.33601844  0.00324897  1.00238391  1
  Ni  Ni10  1  0.50249520  0.16896655  0.16988218  1
  Ni  Ni11  1  0.33626390  0.00342540  0.33697206  1
  Ni  Ni12  1  0.33743314  0.33587727  1.00279020  1
  Fe  Fe13  1  0.50191342  0.50239736  0.16947925  1
  Ni  Ni14  1  0.33685536  0.33578615  0.33626593  1
  Fe  Fe15  1  0.33566384  0.66951630  1.00235135  1
  Ni  Ni16  1  0.50252345  0.83705062  0.16990684  1
  Fe  Fe17  1  0.33621180  0.67055054  0.33721927  1
  Fe  Fe18  1  0.67023375  0.00402698  0.00362964  1
  Ni  Ni19  1  0.83660173  0.16897642  0.16988279  1
  Ni  Ni20  1  0.66970082  1.00232895  0.33606965  1
  Ni  Ni21  1  0.66827355  0.33618415  1.00187432  1
  Cr  Cr22  1  0.83737589  0.50233775  0.16952869  1
  Ni  Ni23  1  0.66830859  0.33608413  0.33765430  1
  Fe  Fe24  1  0.66950995  0.67061078  1.00181639  1
  Ni  Ni25  1  0.83633071  0.83728337  0.17073916  1
  Ni  Ni26  1  0.66940945  0.67094901  0.33710484  1
  Ni  Ni27  1  0.16989398  0.17023068  0.50267373  1
  Ni  Ni28  1  0.00342830  0.00324266  0.66996652  1
  Ni  Ni29  1  0.16989645  0.17090641  0.83629316  1
  Ni  Ni30  1  0.16824798  0.50332745  0.50232157  1
  Ni  Ni31  1  0.00312296  0.33528980  0.67034364  1
  Ni  Ni32  1  0.16907943  0.50244395  0.83695299  1
  Ni  Ni33  1  0.17103725  0.83580089  0.50320316  1
  Fe  Fe34  1  0.00318634  0.66826241  0.66978930  1
  Fe  Fe35  1  0.16948778  0.83670576  0.83674864  1
  Ni  Ni36  1  0.50319496  0.16881439  0.50301703  1
  Fe  Fe37  1  0.33682328  0.00366349  0.66948455  1
  Ni  Ni38  1  0.50261642  0.16952903  0.83646042  1
  Fe  Fe39  1  0.50289712  0.50245613  0.50389018  1
  Ni  Ni40  1  0.33690756  0.33692669  0.67030584  1
  Ni  Ni41  1  0.50319181  0.50358384  0.83637306  1
  Ni  Ni42  1  0.50240810  0.83686309  0.50267378  1
  Ni  Ni43  1  0.33777017  0.66974697  0.67003925  1
  Ni  Ni44  1  0.50344068  0.83625464  0.83678002  1
  Ni  Ni45  1  0.83627420  0.17160577  0.50236140  1
  Fe  Fe46  1  0.66948647  0.00372705  0.66960883  1
  Ni  Ni47  1  0.83685114  0.17065503  0.83711653  1
  Ni  Ni48  1  0.83733619  0.50254381  0.50353470  1
  Ni  Ni49  1  0.66932973  0.33753889  0.66983330  1
  Ni  Ni50  1  0.83708948  0.50326915  0.83625511  1
  Fe  Fe51  1  0.83700158  0.83686131  0.50262017  1
  Ni  Ni52  1  0.66877844  0.66944536  0.67030940  1
  Ni  Ni53  1  0.83570853  0.83543731  0.83651854  1
" 