2964,Ni76Fe6Cr17_11,-233.337164343217, 170.217157975422,Ni76Fe6Cr17,"# generated using pymatgen
 data_Cr10Fe3Ni41
_symmetry_space_group_name_H-M   'P 1'
_cell_length_a   7.46350237
_cell_length_b   7.46350237
_cell_length_c   10.55498628
_cell_angle_alpha   90.00000000
_cell_angle_beta   90.00000000
_cell_angle_gamma   90.00000000
_symmetry_Int_Tables_number   1
_chemical_formula_structural   Cr10Fe3Ni41
_chemical_formula_sum   'Cr10 Fe3 Ni41'
_cell_volume   587.95355844
_cell_formula_units_Z   1
loop_
 _symmetry_equiv_pos_site_id
 _symmetry_equiv_pos_as_xyz
  1  'x, y, z'
loop_
 _atom_site_type_symbol
 _atom_site_label
 _atom_site_symmetry_multiplicity
 _atom_site_fract_x
 _atom_site_fract_y
 _atom_site_fract_z
 _atom_site_occupancy
  Ni  Ni0  1  0.99938239  0.99917476  1.00012566  1
  Ni  Ni1  1  0.16723324  0.16518011  0.16553308  1
  Ni  Ni2  1  1.00000836  0.99920501  0.33496449  1
  Ni  Ni3  1  0.00160514  0.33363477  0.99965544  1
  Ni  Ni4  1  0.16848697  0.50070396  0.16698577  1
  Cr  Cr5  1  0.00178342  0.33191016  0.33520523  1
  Ni  Ni6  1  1.00019107  0.66797970  1.00002727  1
  Ni  Ni7  1  0.16548362  0.83485804  0.16837076  1
  Ni  Ni8  1  0.00252556  0.66902849  0.33448557  1
  Ni  Ni9  1  0.33414472  0.99967622  0.00249402  1
  Ni  Ni10  1  0.49888662  0.16546721  0.16822007  1
  Ni  Ni11  1  0.33429245  0.00048148  0.33341463  1
  Ni  Ni12  1  0.33148131  0.33367115  0.00204392  1
  Ni  Ni13  1  0.49743227  0.49980742  0.16776163  1
  Ni  Ni14  1  0.33281855  0.33183788  0.33252087  1
  Cr  Cr15  1  0.33502837  0.66825131  0.99956922  1
  Ni  Ni16  1  0.50008585  0.83513260  0.16674961  1
  Ni  Ni17  1  0.33155780  0.66832005  0.33392982  1
  Ni  Ni18  1  0.66698866  0.99721761  0.00112915  1
  Ni  Ni19  1  0.83422239  0.16271693  0.16653801  1
  Ni  Ni20  1  0.66619473  0.00099484  0.33351716  1
  Cr  Cr21  1  0.66599658  0.33287462  0.00108292  1
  Cr  Cr22  1  0.83507079  0.50292613  0.16676349  1
  Fe  Fe23  1  0.66569058  0.33033696  0.33357908  1
  Ni  Ni24  1  0.66763480  0.67011413  0.99870519  1
  Ni  Ni25  1  0.83513528  0.83640969  0.16589429  1
  Cr  Cr26  1  0.66656861  0.67172647  0.33275488  1
  Ni  Ni27  1  0.16889957  0.16457184  0.50054423  1
  Fe  Fe28  1  0.99867312  0.99992923  0.66606353  1
  Cr  Cr29  1  0.16675233  0.16453175  0.83537565  1
  Ni  Ni30  1  0.16828374  0.50119885  0.49893714  1
  Cr  Cr31  1  1.00008171  0.33349094  0.66650648  1
  Ni  Ni32  1  0.16787925  0.50104136  0.83478638  1
  Ni  Ni33  1  0.16764878  0.83506300  0.49912342  1
  Cr  Cr34  1  0.00024556  0.66781552  0.66594940  1
  Ni  Ni35  1  0.16670157  0.83390583  0.83316931  1
  Ni  Ni36  1  0.49985478  0.16532268  0.49970971  1
  Ni  Ni37  1  0.33469377  0.99871935  0.66480048  1
  Cr  Cr38  1  0.50002342  0.16555131  0.83269732  1
  Cr  Cr39  1  0.50010102  0.49974949  0.50078917  1
  Ni  Ni40  1  0.33329996  0.33271963  0.66621462  1
  Ni  Ni41  1  0.50067860  0.50137935  0.83139640  1
  Ni  Ni42  1  0.49956625  0.83578620  0.50135220  1
  Fe  Fe43  1  0.33481837  0.66789330  0.66723397  1
  Ni  Ni44  1  0.50105676  0.83325407  0.83238515  1
  Ni  Ni45  1  0.83140088  0.16425720  0.50070097  1
  Ni  Ni46  1  0.66607314  0.99849363  0.66607514  1
  Ni  Ni47  1  0.83297423  0.16475800  0.83347318  1
  Ni  Ni48  1  0.83303863  0.50097983  0.49996769  1
  Ni  Ni49  1  0.66728022  0.33296617  0.66566924  1
  Ni  Ni50  1  0.83248445  0.50137535  0.83443509  1
  Ni  Ni51  1  0.83361716  0.83506250  0.49986317  1
  Ni  Ni52  1  0.66767309  0.66906204  0.66857107  1
  Ni  Ni53  1  0.83309482  0.83430918  0.83501390  1
" 