8893,Ni76Fe4Cr18_12,-232.141911057069, 159.844702095634,Ni76Fe4Cr18,"# generated using pymatgen
 data_Cr11Fe2Ni41
_symmetry_space_group_name_H-M   'P 1'
_cell_length_a   7.47128217
_cell_length_b   7.47128217
_cell_length_c   10.56598858
_cell_angle_alpha   90.00000000
_cell_angle_beta   90.00000000
_cell_angle_gamma   90.00000000
_symmetry_Int_Tables_number   1
_chemical_formula_structural   Cr11Fe2Ni41
_chemical_formula_sum   'Cr11 Fe2 Ni41'
_cell_volume   589.79408765
_cell_formula_units_Z   1
loop_
 _symmetry_equiv_pos_site_id
 _symmetry_equiv_pos_as_xyz
  1  'x, y, z'
loop_
 _atom_site_type_symbol
 _atom_site_label
 _atom_site_symmetry_multiplicity
 _atom_site_fract_x
 _atom_site_fract_y
 _atom_site_fract_z
 _atom_site_occupancy
  Cr  Cr0  1  0.00283513  -0.00016512  0.99901149  1
  Ni  Ni1  1  0.16925477  0.16679081  0.16671982  1
  Cr  Cr2  1  0.00250569  0.00176955  0.33370216  1
  Cr  Cr3  1  0.99913618  0.33360710  -0.00000561  1
  Fe  Fe4  1  0.16647431  0.50032135  0.16827256  1
  Ni  Ni5  1  0.99935491  0.33529151  0.33366813  1
  Ni  Ni6  1  0.99849088  0.66557632  0.00096214  1
  Ni  Ni7  1  0.16839619  0.83232916  0.16675128  1
  Ni  Ni8  1  0.00163220  0.66244370  0.33241794  1
  Ni  Ni9  1  0.33377722  0.00020749  0.99902241  1
  Cr  Cr10  1  0.49789805  0.16649427  0.16598998  1
  Ni  Ni11  1  0.33376486  0.99768964  0.33321303  1
  Ni  Ni12  1  0.33514317  0.33105821  0.00035070  1
  Ni  Ni13  1  0.50096951  0.50058418  0.16667018  1
  Fe  Fe14  1  0.33277225  0.33398636  0.33416072  1
  Cr  Cr15  1  0.33466826  0.66788317  -0.00004224  1
  Ni  Ni16  1  0.49849284  0.83190334  0.16717159  1
  Ni  Ni17  1  0.33369360  0.66750964  0.33322238  1
  Ni  Ni18  1  0.66276001  0.99970592  0.99821216  1
  Cr  Cr19  1  0.83168858  0.16809592  0.16726683  1
  Ni  Ni20  1  0.66248396  -0.00002042  0.33470745  1
  Ni  Ni21  1  0.66509003  0.33523945  0.99753120  1
  Ni  Ni22  1  0.83229847  0.50139371  0.16674838  1
  Ni  Ni23  1  0.66763001  0.33521713  0.33471131  1
  Ni  Ni24  1  0.66593691  0.66421058  0.00038024  1
  Cr  Cr25  1  0.83149500  0.82968510  0.16619388  1
  Ni  Ni26  1  0.66385073  0.66397301  0.33210679  1
  Ni  Ni27  1  0.16725583  0.16741886  0.50046369  1
  Ni  Ni28  1  0.00211162  0.00208045  0.66666933  1
  Ni  Ni29  1  0.16849700  0.16466449  0.83202429  1
  Ni  Ni30  1  0.16611939  0.49989959  0.49907584  1
  Ni  Ni31  1  0.99854926  0.33161411  0.66542710  1
  Cr  Cr32  1  0.16659551  0.49992412  0.83114521  1
  Ni  Ni33  1  0.16861935  0.83183616  0.50099913  1
  Ni  Ni34  1  0.00281602  0.66545786  0.66573376  1
  Ni  Ni35  1  0.16754720  0.83473115  0.83140916  1
  Ni  Ni36  1  0.49990950  0.16638443  0.49956010  1
  Ni  Ni37  1  0.33222521  0.99921688  0.66693139  1
  Ni  Ni38  1  0.49973321  0.16655212  0.83384584  1
  Ni  Ni39  1  0.49871189  0.49859977  0.49894759  1
  Ni  Ni40  1  0.33351101  0.33216078  0.66548548  1
  Ni  Ni41  1  0.50148439  0.49736990  0.83355342  1
  Ni  Ni42  1  0.49721598  0.83416768  0.49814628  1
  Ni  Ni43  1  0.33201380  0.66777898  0.66542099  1
  Ni  Ni44  1  0.49830826  0.83522899  0.83380470  1
  Ni  Ni45  1  0.83198451  0.16891971  0.50057343  1
  Ni  Ni46  1  0.66480130  0.00350036  0.66623720  1
  Ni  Ni47  1  0.83091830  0.16782774  0.83138118  1
  Ni  Ni48  1  0.83431258  0.49723793  0.49861298  1
  Ni  Ni49  1  0.66711158  0.33141423  0.66692795  1
  Ni  Ni50  1  0.83144123  0.49831279  0.83379986  1
  Cr  Cr51  1  0.83322278  0.83304482  0.49928529  1
  Cr  Cr52  1  0.66350964  0.66396765  0.66644238  1
  Cr  Cr53  1  0.83367693  0.83260437  0.83367648  1
" 