7285,Ni76Fe4Cr18_16,-232.114301938964, 161.011848574764,Ni76Fe4Cr18,"# generated using pymatgen
 data_Cr11Fe2Ni41
_symmetry_space_group_name_H-M   'P 1'
_cell_length_a   7.46826332
_cell_length_b   7.46826332
_cell_length_c   10.56171927
_cell_angle_alpha   90.00000000
_cell_angle_beta   90.00000000
_cell_angle_gamma   90.00000000
_symmetry_Int_Tables_number   1
_chemical_formula_structural   Cr11Fe2Ni41
_chemical_formula_sum   'Cr11 Fe2 Ni41'
_cell_volume   589.07943825
_cell_formula_units_Z   1
loop_
 _symmetry_equiv_pos_site_id
 _symmetry_equiv_pos_as_xyz
  1  'x, y, z'
loop_
 _atom_site_type_symbol
 _atom_site_label
 _atom_site_symmetry_multiplicity
 _atom_site_fract_x
 _atom_site_fract_y
 _atom_site_fract_z
 _atom_site_occupancy
  Ni  Ni0  1  0.00061791  0.00388977  0.99856347  1
  Ni  Ni1  1  0.16556867  0.16749962  0.16555448  1
  Ni  Ni2  1  0.00099920  0.00325503  0.33453721  1
  Ni  Ni3  1  0.99877927  0.33149754  0.00097568  1
  Ni  Ni4  1  0.16531117  0.49818427  0.16517233  1
  Ni  Ni5  1  0.99806823  0.33313957  0.33327309  1
  Fe  Fe6  1  0.99978460  0.66553183  0.00061354  1
  Cr  Cr7  1  0.16581091  0.83548197  0.16563578  1
  Ni  Ni8  1  0.99931986  0.66351494  0.33359004  1
  Ni  Ni9  1  0.33412877  0.00018032  0.99902780  1
  Ni  Ni10  1  0.50093617  0.16638300  0.16536508  1
  Ni  Ni11  1  0.33443307  0.00040427  0.33383760  1
  Ni  Ni12  1  0.33295562  0.33151824  0.00170957  1
  Ni  Ni13  1  0.50137539  0.49916691  0.16483456  1
  Cr  Cr14  1  0.33250688  0.33076926  0.33176248  1
  Ni  Ni15  1  0.33496523  0.66791500  0.00066147  1
  Ni  Ni16  1  0.50108828  0.83417389  0.16568057  1
  Cr  Cr17  1  0.33412819  0.66849859  0.33335471  1
  Ni  Ni18  1  0.66512256  0.00112884  0.00007129  1
  Ni  Ni19  1  0.83337560  0.16770524  0.16687382  1
  Ni  Ni20  1  0.66438699  0.00184240  0.33284703  1
  Ni  Ni21  1  0.66800972  0.33236900  0.00049879  1
  Ni  Ni22  1  0.83297176  0.49852060  0.16612195  1
  Ni  Ni23  1  0.66961468  0.33232112  0.33233020  1
  Ni  Ni24  1  0.66470469  0.66599439  0.00075138  1
  Cr  Cr25  1  0.83242613  0.83541374  0.16766833  1
  Ni  Ni26  1  0.66716708  0.66563026  0.33242801  1
  Ni  Ni27  1  0.16671397  0.16504411  0.50008238  1
  Ni  Ni28  1  0.00138035  0.00154436  0.66675278  1
  Ni  Ni29  1  0.16723033  0.16475921  0.83408958  1
  Ni  Ni30  1  0.16555735  0.49949940  0.49969269  1
  Cr  Cr31  1  0.99854645  0.33061005  0.66558319  1
  Cr  Cr32  1  0.16929958  0.49863697  0.83506500  1
  Ni  Ni33  1  0.16728314  0.83522897  0.50045741  1
  Cr  Cr34  1  0.00045293  0.66713802  0.66618839  1
  Ni  Ni35  1  0.16832386  0.83543729  0.83376787  1
  Ni  Ni36  1  0.50089593  0.16477068  0.50111632  1
  Ni  Ni37  1  0.33348686  0.99955537  0.66693868  1
  Ni  Ni38  1  0.50015172  0.16592060  0.83322077  1
  Cr  Cr39  1  0.50109929  0.49816073  0.50237282  1
  Ni  Ni40  1  0.33320063  0.33008026  0.66588679  1
  Cr  Cr41  1  0.49985769  0.49809342  0.83208726  1
  Ni  Ni42  1  0.49971527  0.83553249  0.50093866  1
  Ni  Ni43  1  0.33381517  0.66990586  0.66569654  1
  Ni  Ni44  1  0.49906175  0.83403431  0.83314708  1
  Ni  Ni45  1  0.83223631  0.16692730  0.49908385  1
  Ni  Ni46  1  0.66489932  0.00139003  0.66684510  1
  Ni  Ni47  1  0.83232094  0.16606599  0.83391945  1
  Ni  Ni48  1  0.83261225  0.49857551  0.49892982  1
  Ni  Ni49  1  0.66738429  0.33089198  0.66679696  1
  Fe  Fe50  1  0.83168190  0.49799668  0.83454117  1
  Cr  Cr51  1  0.83230030  0.83533541  0.49766313  1
  Ni  Ni52  1  0.66497658  0.66722800  0.66644849  1
  Cr  Cr53  1  0.83256407  0.83531226  0.83455239  1
" 