8743,Ni76Fe16Cr7_3,-238.24239644675, 189.928998446484,Ni76Fe16Cr7,"# generated using pymatgen
 data_Cr5Fe8Ni41
_symmetry_space_group_name_H-M   'P 1'
_cell_length_a   7.44150726
_cell_length_b   7.44150726
_cell_length_c   10.52388049
_cell_angle_alpha   90.00000000
_cell_angle_beta   90.00000000
_cell_angle_gamma   90.00000000
_symmetry_Int_Tables_number   1
_chemical_formula_structural   Cr5Fe8Ni41
_chemical_formula_sum   'Cr5 Fe8 Ni41'
_cell_volume   582.77072456
_cell_formula_units_Z   1
loop_
 _symmetry_equiv_pos_site_id
 _symmetry_equiv_pos_as_xyz
  1  'x, y, z'
loop_
 _atom_site_type_symbol
 _atom_site_label
 _atom_site_symmetry_multiplicity
 _atom_site_fract_x
 _atom_site_fract_y
 _atom_site_fract_z
 _atom_site_occupancy
  Ni  Ni0  1  1.00077756  0.99893843  0.00282155  1
  Ni  Ni1  1  0.17008262  0.16764454  0.16941636  1
  Ni  Ni2  1  1.00080363  1.00074929  0.33379861  1
  Cr  Cr3  1  1.00014938  0.33425876  0.00395043  1
  Ni  Ni4  1  0.16754337  0.50127080  0.17026915  1
  Ni  Ni5  1  1.00037099  0.33611974  0.33449263  1
  Ni  Ni6  1  0.00239013  0.67115404  0.00299310  1
  Fe  Fe7  1  0.16960211  0.83482230  0.16898943  1
  Ni  Ni8  1  0.00240849  0.66859422  0.33573126  1
  Ni  Ni9  1  0.33655752  1.00028080  0.00264298  1
  Ni  Ni10  1  0.50027087  0.16615893  0.16952164  1
  Ni  Ni11  1  0.33648907  1.00011470  0.33453642  1
  Ni  Ni12  1  0.33829833  0.33523387  0.00304611  1
  Fe  Fe13  1  0.50082327  0.50116690  0.16879993  1
  Ni  Ni14  1  0.33637472  0.33621341  0.33512791  1
  Ni  Ni15  1  0.33560731  0.66933580  0.00278209  1
  Ni  Ni16  1  0.50301679  0.83569217  0.16901554  1
  Ni  Ni17  1  0.33469625  0.66889647  0.33488607  1
  Ni  Ni18  1  0.66751072  0.00205233  1.00077890  1
  Fe  Fe19  1  0.83306911  0.16756078  0.16967629  1
  Ni  Ni20  1  0.66812536  0.00228851  0.33622495  1
  Ni  Ni21  1  0.66554337  0.33360787  0.00296316  1
  Ni  Ni22  1  0.83400158  0.50408845  0.16958986  1
  Ni  Ni23  1  0.66854026  0.33441687  0.33448708  1
  Ni  Ni24  1  0.66703191  0.66942273  0.00335179  1
  Fe  Fe25  1  0.83453045  0.83572234  0.16859782  1
  Fe  Fe26  1  0.66834195  0.66890570  0.33530767  1
  Cr  Cr27  1  0.16922446  0.16737478  0.50139536  1
  Ni  Ni28  1  1.00006385  0.99978617  0.66870433  1
  Cr  Cr29  1  0.16946394  0.16581688  0.83434511  1
  Fe  Fe30  1  0.16784518  0.50425483  0.50081220  1
  Ni  Ni31  1  0.99827918  0.33520460  0.66564265  1
  Cr  Cr32  1  0.16990383  0.50365040  0.83267620  1
  Ni  Ni33  1  0.16908339  0.83584323  0.50066737  1
  Ni  Ni34  1  0.00248525  0.67106986  0.66620539  1
  Ni  Ni35  1  0.16895972  0.83565529  0.83612765  1
  Fe  Fe36  1  0.50434502  0.16715764  0.50090418  1
  Ni  Ni37  1  0.33745264  0.99789864  0.66809036  1
  Ni  Ni38  1  0.50275201  0.16752935  0.83444933  1
  Ni  Ni39  1  0.50312805  0.50281687  0.50025420  1
  Fe  Fe40  1  0.33861925  0.33577622  0.66735119  1
  Ni  Ni41  1  0.50247247  0.50264410  0.83706419  1
  Ni  Ni42  1  0.50191390  0.83406807  0.50098173  1
  Ni  Ni43  1  0.33631286  0.67005540  0.66760590  1
  Ni  Ni44  1  0.50239594  0.83475912  0.83515874  1
  Ni  Ni45  1  0.83550810  0.16847807  0.50062349  1
  Ni  Ni46  1  0.66841152  0.00203403  0.66803503  1
  Ni  Ni47  1  0.83309756  0.16627558  0.83507241  1
  Ni  Ni48  1  0.83355014  0.50206150  0.50130706  1
  Ni  Ni49  1  0.66780141  0.33398955  0.66791008  1
  Cr  Cr50  1  0.83195870  0.50419925  0.83408284  1
  Ni  Ni51  1  0.83429593  0.83473091  0.50111016  1
  Ni  Ni52  1  0.66649046  0.66897697  0.66701514  1
  Ni  Ni53  1  0.83389616  0.83584990  0.83527698  1
" 