3725,Ni76Fe22Cr0_17,-242.110409639986, 210.087155038634,Ni76Fe22Cr0,"# generated using pymatgen
 data_CrFe12Ni41
_symmetry_space_group_name_H-M   'P 1'
_cell_length_a   7.42102091
_cell_length_b   7.42102091
_cell_length_c   10.49490842
_cell_angle_alpha   90.00000000
_cell_angle_beta   90.00000000
_cell_angle_gamma   90.00000000
_symmetry_Int_Tables_number   1
_chemical_formula_structural   CrFe12Ni41
_chemical_formula_sum   'Cr1 Fe12 Ni41'
_cell_volume   577.97088831
_cell_formula_units_Z   1
loop_
 _symmetry_equiv_pos_site_id
 _symmetry_equiv_pos_as_xyz
  1  'x, y, z'
loop_
 _atom_site_type_symbol
 _atom_site_label
 _atom_site_symmetry_multiplicity
 _atom_site_fract_x
 _atom_site_fract_y
 _atom_site_fract_z
 _atom_site_occupancy
  Ni  Ni0  1  1.00269706  0.00364817  1.00303520  1
  Ni  Ni1  1  0.17022594  0.16948683  0.17008187  1
  Ni  Ni2  1  1.00248334  1.00290378  0.33656316  1
  Ni  Ni3  1  1.00215419  0.33667055  1.00297210  1
  Ni  Ni4  1  0.16864152  0.50276903  0.17010572  1
  Ni  Ni5  1  0.00342591  0.33726381  0.33653423  1
  Fe  Fe6  1  1.00304617  0.66976693  0.00361237  1
  Ni  Ni7  1  0.17000274  0.83704580  0.16994873  1
  Ni  Ni8  1  0.00369198  0.66913582  0.33627512  1
  Ni  Ni9  1  0.33700743  1.00154343  1.00309319  1
  Ni  Ni10  1  0.50250415  0.16888559  0.16942061  1
  Ni  Ni11  1  0.33725160  1.00236210  0.33646889  1
  Fe  Fe12  1  0.33642864  0.33554163  0.00310702  1
  Ni  Ni13  1  0.50377157  0.50305299  0.17024824  1
  Ni  Ni14  1  0.33596105  0.33746218  0.33567521  1
  Ni  Ni15  1  0.33679250  0.67005554  1.00289763  1
  Ni  Ni16  1  0.50301378  0.83736267  0.17005337  1
  Ni  Ni17  1  0.33624089  0.66948034  0.33698670  1
  Ni  Ni18  1  0.66959919  0.00333192  1.00253952  1
  Fe  Fe19  1  0.83659845  0.17005209  0.16898259  1
  Ni  Ni20  1  0.66956929  1.00262491  0.33639905  1
  Ni  Ni21  1  0.67067248  0.33645380  1.00260038  1
  Ni  Ni22  1  0.83689160  0.50327883  0.16948593  1
  Fe  Fe23  1  0.66954914  0.33618649  0.33611899  1
  Fe  Fe24  1  0.66960388  0.67007224  1.00229523  1
  Fe  Fe25  1  0.83665557  0.83671380  0.17004915  1
  Fe  Fe26  1  0.66994417  0.67028933  0.33701893  1
  Ni  Ni27  1  0.17065020  0.16970851  0.50306957  1
  Ni  Ni28  1  0.00479845  0.00336144  0.66970575  1
  Ni  Ni29  1  0.16985215  0.17004235  0.83615162  1
  Ni  Ni30  1  0.16826764  0.50244876  0.50253878  1
  Ni  Ni31  1  0.00321724  0.33677361  0.66979555  1
  Ni  Ni32  1  0.16902561  0.50202460  0.83665896  1
  Ni  Ni33  1  0.16959679  0.83714603  0.50349621  1
  Fe  Fe34  1  1.00252852  0.66921760  0.66898335  1
  Fe  Fe35  1  0.16999098  0.83711928  0.83675366  1
  Ni  Ni36  1  0.50150552  0.16943945  0.50242229  1
  Ni  Ni37  1  0.33476194  1.00282155  0.66974321  1
  Ni  Ni38  1  0.50205271  0.16980649  0.83745793  1
  Fe  Fe39  1  0.50250421  0.50338425  0.50346129  1
  Ni  Ni40  1  0.33602959  0.33700394  0.67056154  1
  Ni  Ni41  1  0.50371252  0.50309855  0.83589030  1
  Ni  Ni42  1  0.50287002  0.83710472  0.50205088  1
  Fe  Fe43  1  0.33666538  0.66944075  0.66988479  1
  Ni  Ni44  1  0.50335245  0.83639725  0.83720109  1
  Fe  Fe45  1  0.83802815  0.16996511  0.50278836  1
  Cr  Cr46  1  0.66982522  1.00285411  0.67055545  1
  Ni  Ni47  1  0.83739833  0.17040709  0.83685351  1
  Ni  Ni48  1  0.83710455  0.50381052  0.50372879  1
  Ni  Ni49  1  0.67005619  0.33911949  0.66968758  1
  Ni  Ni50  1  0.83656422  0.50332527  0.83608537  1
  Ni  Ni51  1  0.83683686  0.83472503  0.50185047  1
  Ni  Ni52  1  0.66951330  0.66790078  0.67007908  1
  Ni  Ni53  1  0.83632655  0.83557241  0.83743509  1
" 