1073,Ni76Fe4Cr18_4,-232.127948521154, 163.378206847345,Ni76Fe4Cr18,"# generated using pymatgen
 data_Cr11Fe2Ni41
_symmetry_space_group_name_H-M   'P 1'
_cell_length_a   7.47042024
_cell_length_b   7.47042024
_cell_length_c   10.56476963
_cell_angle_alpha   90.00000000
_cell_angle_beta   90.00000000
_cell_angle_gamma   90.00000000
_symmetry_Int_Tables_number   1
_chemical_formula_structural   Cr11Fe2Ni41
_chemical_formula_sum   'Cr11 Fe2 Ni41'
_cell_volume   589.58998551
_cell_formula_units_Z   1
loop_
 _symmetry_equiv_pos_site_id
 _symmetry_equiv_pos_as_xyz
  1  'x, y, z'
loop_
 _atom_site_type_symbol
 _atom_site_label
 _atom_site_symmetry_multiplicity
 _atom_site_fract_x
 _atom_site_fract_y
 _atom_site_fract_z
 _atom_site_occupancy
  Ni  Ni0  1  0.00212717  0.00163086  0.00166748  1
  Ni  Ni1  1  0.16604894  0.16587040  0.16391569  1
  Ni  Ni2  1  0.99807890  0.99796897  0.33271989  1
  Ni  Ni3  1  0.00298569  0.33221595  -0.00002186  1
  Ni  Ni4  1  0.16691463  0.49971313  0.16657624  1
  Cr  Cr5  1  -0.00019625  0.33382726  0.33270363  1
  Cr  Cr6  1  0.99819733  0.66525823  0.00074071  1
  Ni  Ni7  1  0.16622142  0.83373931  0.16671481  1
  Ni  Ni8  1  0.99964230  0.66799441  0.33323038  1
  Ni  Ni9  1  0.33214363  0.00108496  0.00016934  1
  Ni  Ni10  1  0.49914346  0.16571209  0.16760790  1
  Cr  Cr11  1  0.33297054  0.00001979  0.33314609  1
  Ni  Ni12  1  0.33009518  0.33157013  0.99882616  1
  Cr  Cr13  1  0.49897579  0.50057426  0.16719752  1
  Ni  Ni14  1  0.33406772  0.33382635  0.33359330  1
  Ni  Ni15  1  0.33443008  0.66666809  0.99954750  1
  Ni  Ni16  1  0.49982887  0.83304105  0.16612590  1
  Ni  Ni17  1  0.33216239  0.66562221  0.33395173  1
  Cr  Cr18  1  0.66523860  0.99713815  0.00035612  1
  Ni  Ni19  1  0.83413115  0.16501932  0.16751187  1
  Ni  Ni20  1  0.66798407  -0.00012733  0.33303528  1
  Cr  Cr21  1  0.66663266  0.33490192  -0.00004982  1
  Ni  Ni22  1  0.83343025  0.50039833  0.16714465  1
  Ni  Ni23  1  0.66561228  0.33226209  0.33397622  1
  Ni  Ni24  1  0.66569695  0.66752557  0.99846508  1
  Ni  Ni25  1  0.83327278  0.83390625  0.16799632  1
  Ni  Ni26  1  0.66751937  0.66718736  0.33327149  1
  Ni  Ni27  1  0.16528591  0.16663408  0.49937139  1
  Cr  Cr28  1  0.99871309  0.99962883  0.66505678  1
  Ni  Ni29  1  0.16738579  0.16879790  0.83603661  1
  Ni  Ni30  1  0.16771344  0.50152444  0.50006110  1
  Ni  Ni31  1  0.99873819  0.33586377  0.66647552  1
  Ni  Ni32  1  0.16722331  0.49796995  0.83268461  1
  Ni  Ni33  1  0.16545743  0.83116433  0.49884320  1
  Ni  Ni34  1  0.99842793  0.66375731  0.66558340  1
  Cr  Cr35  1  0.16720705  0.83286139  0.83377906  1
  Fe  Fe36  1  0.50238174  0.16793548  0.49891712  1
  Cr  Cr37  1  0.33522590  0.99936835  0.66620310  1
  Ni  Ni38  1  0.49819711  0.16658976  0.83267736  1
  Ni  Ni39  1  0.50011008  0.50033387  0.49900616  1
  Cr  Cr40  1  0.33251478  0.33406895  0.66666930  1
  Ni  Ni41  1  0.49976960  0.50158821  0.83322437  1
  Fe  Fe42  1  0.50137343  0.83081454  0.49987074  1
  Ni  Ni43  1  0.33375151  0.66557328  0.66582185  1
  Ni  Ni44  1  0.50135012  0.83114396  0.83290918  1
  Ni  Ni45  1  0.83171114  0.16577858  0.49986700  1
  Ni  Ni46  1  0.66587415  0.99884790  0.66594739  1
  Cr  Cr47  1  0.83436032  0.16689124  0.83196691  1
  Ni  Ni48  1  0.83149981  0.50016610  0.50108134  1
  Ni  Ni49  1  0.66768599  0.33403941  0.66562882  1
  Ni  Ni50  1  0.83232923  0.50112465  0.83109702  1
  Ni  Ni51  1  0.83290148  0.83337823  0.49915153  1
  Ni  Ni52  1  0.66714478  0.66643403  0.66758435  1
  Ni  Ni53  1  0.83012123  0.83098279  0.83217563  1
" 