7031,Ni76Fe22Cr0_2,-242.279426191893, 209.277515043428,Ni76Fe22Cr0,"# generated using pymatgen
 data_CrFe12Ni41
_symmetry_space_group_name_H-M   'P 1'
_cell_length_a   7.42627561
_cell_length_b   7.42627561
_cell_length_c   10.50233969
_cell_angle_alpha   90.00000000
_cell_angle_beta   90.00000000
_cell_angle_gamma   90.00000000
_symmetry_Int_Tables_number   1
_chemical_formula_structural   CrFe12Ni41
_chemical_formula_sum   'Cr1 Fe12 Ni41'
_cell_volume   579.19951284
_cell_formula_units_Z   1
loop_
 _symmetry_equiv_pos_site_id
 _symmetry_equiv_pos_as_xyz
  1  'x, y, z'
loop_
 _atom_site_type_symbol
 _atom_site_label
 _atom_site_symmetry_multiplicity
 _atom_site_fract_x
 _atom_site_fract_y
 _atom_site_fract_z
 _atom_site_occupancy
  Cr  Cr0  1  1.00207534  0.00305640  1.00182054  1
  Ni  Ni1  1  0.16894638  0.17004176  0.17083131  1
  Ni  Ni2  1  1.00127876  0.00350149  0.33658221  1
  Ni  Ni3  1  0.00341903  0.33733115  1.00248930  1
  Fe  Fe4  1  0.16986534  0.50216465  0.16951287  1
  Ni  Ni5  1  0.00401750  0.33511929  0.33625902  1
  Ni  Ni6  1  0.00279967  0.66764635  1.00247821  1
  Fe  Fe7  1  0.17064238  0.83542838  0.17023408  1
  Ni  Ni8  1  1.00269023  0.66961682  0.33649290  1
  Ni  Ni9  1  0.33834375  0.00320310  1.00253787  1
  Fe  Fe10  1  0.50274514  0.16928319  0.16893493  1
  Fe  Fe11  1  0.33547199  1.00220639  0.33541488  1
  Ni  Ni12  1  0.33612769  0.33631383  1.00253445  1
  Ni  Ni13  1  0.50272125  0.50382044  0.16920620  1
  Ni  Ni14  1  0.33544049  0.33676437  0.33605688  1
  Ni  Ni15  1  0.33679428  0.66871555  1.00239290  1
  Ni  Ni16  1  0.50277073  0.83520502  0.16944104  1
  Ni  Ni17  1  0.33679386  0.66798867  0.33641860  1
  Ni  Ni18  1  0.66761935  1.00258373  1.00256184  1
  Ni  Ni19  1  0.83654028  0.16999633  0.16984057  1
  Ni  Ni20  1  0.67040342  1.00215071  0.33582967  1
  Ni  Ni21  1  0.66868831  0.33577845  1.00255800  1
  Fe  Fe22  1  0.83591896  0.50245912  0.16904554  1
  Fe  Fe23  1  0.66988231  0.33656160  0.33607162  1
  Ni  Ni24  1  0.66864235  0.66987220  1.00245781  1
  Fe  Fe25  1  0.83455480  0.83571845  0.17046159  1
  Ni  Ni26  1  0.66875544  0.67073161  0.33647828  1
  Fe  Fe27  1  0.16849295  0.17046042  0.50262854  1
  Ni  Ni28  1  1.00136979  0.00327112  0.66916662  1
  Ni  Ni29  1  0.17052641  0.17005771  0.83500988  1
  Ni  Ni30  1  0.16955912  0.50365200  0.50218165  1
  Ni  Ni31  1  0.00411206  0.33535334  0.66949306  1
  Ni  Ni32  1  0.16894884  0.50259809  0.83707514  1
  Ni  Ni33  1  0.16842868  0.83556412  0.50218246  1
  Ni  Ni34  1  0.00274543  0.66961779  0.66926783  1
  Ni  Ni35  1  0.16973660  0.83557234  0.83622383  1
  Ni  Ni36  1  0.50332215  0.17003787  0.50131121  1
  Fe  Fe37  1  0.33554364  1.00233799  0.67047005  1
  Ni  Ni38  1  0.50216146  0.16920902  0.83799865  1
  Ni  Ni39  1  0.50247813  0.50211911  0.50267627  1
  Ni  Ni40  1  0.33539163  0.33686977  0.66965241  1
  Ni  Ni41  1  0.50292125  0.50262776  0.83635051  1
  Fe  Fe42  1  0.50379060  0.83521770  0.50256847  1
  Ni  Ni43  1  0.33665300  0.66798848  0.66943133  1
  Ni  Ni44  1  0.50297804  0.83639765  0.83611804  1
  Ni  Ni45  1  0.83568341  0.16891402  0.50288567  1
  Ni  Ni46  1  0.67035762  1.00200996  0.66984672  1
  Fe  Fe47  1  0.83535995  0.17007587  0.83542757  1
  Ni  Ni48  1  0.83620610  0.50292275  0.50189328  1
  Fe  Fe49  1  0.66957734  0.33672449  0.66952397  1
  Ni  Ni50  1  0.83636985  0.50341735  0.83675389  1
  Ni  Ni51  1  0.83721482  0.83640796  0.50189456  1
  Ni  Ni52  1  0.66884119  0.67073477  0.66929310  1
  Ni  Ni53  1  0.83551720  0.83481781  0.83596851  1
" 