8227,Ni76Fe4Cr18_9,-232.06700710918, 159.841391090812,Ni76Fe4Cr18,"# generated using pymatgen
 data_Cr11Fe2Ni41
_symmetry_space_group_name_H-M   'P 1'
_cell_length_a   7.46850094
_cell_length_b   7.46850094
_cell_length_c   10.56205532
_cell_angle_alpha   90.00000000
_cell_angle_beta   90.00000000
_cell_angle_gamma   90.00000000
_symmetry_Int_Tables_number   1
_chemical_formula_structural   Cr11Fe2Ni41
_chemical_formula_sum   'Cr11 Fe2 Ni41'
_cell_volume   589.13566921
_cell_formula_units_Z   1
loop_
 _symmetry_equiv_pos_site_id
 _symmetry_equiv_pos_as_xyz
  1  'x, y, z'
loop_
 _atom_site_type_symbol
 _atom_site_label
 _atom_site_symmetry_multiplicity
 _atom_site_fract_x
 _atom_site_fract_y
 _atom_site_fract_z
 _atom_site_occupancy
  Cr  Cr0  1  0.00010569  0.00066423  0.00187437  1
  Cr  Cr1  1  0.17074526  0.16774074  0.16998013  1
  Fe  Fe2  1  0.99943162  0.99951237  0.33447108  1
  Cr  Cr3  1  0.00110941  0.33596036  0.00058596  1
  Ni  Ni4  1  0.16548879  0.50246348  0.16693936  1
  Ni  Ni5  1  0.99813945  0.33357412  0.33294454  1
  Ni  Ni6  1  0.00257739  0.66644644  0.00085765  1
  Ni  Ni7  1  0.16731911  0.83133154  0.16719350  1
  Ni  Ni8  1  0.99960379  0.66678464  0.33194590  1
  Ni  Ni9  1  0.33486872  0.99900331  0.99901094  1
  Ni  Ni10  1  0.50105045  0.16377157  0.16721828  1
  Ni  Ni11  1  0.33493201  0.99864367  0.33465325  1
  Ni  Ni12  1  0.33321478  0.33306664  0.99872383  1
  Cr  Cr13  1  0.49711849  0.49835194  0.16991396  1
  Ni  Ni14  1  0.33337858  0.33175889  0.33444609  1
  Ni  Ni15  1  0.33037873  0.66763813  0.99937556  1
  Ni  Ni16  1  0.49926923  0.83559855  0.16686471  1
  Ni  Ni17  1  0.33253285  0.66912576  0.33323965  1
  Ni  Ni18  1  0.66353472  0.00034409  0.00160067  1
  Ni  Ni19  1  0.83092428  0.16538501  0.16902123  1
  Ni  Ni20  1  0.66594048  0.00020883  0.33232668  1
  Cr  Cr21  1  0.66764547  0.33021838  0.99953173  1
  Ni  Ni22  1  0.83512416  0.50117053  0.16984627  1
  Ni  Ni23  1  0.66841419  0.33141071  0.33478495  1
  Cr  Cr24  1  0.66628509  0.66707829  0.00051445  1
  Ni  Ni25  1  0.83295940  0.83317478  0.16852446  1
  Ni  Ni26  1  0.66757474  0.66808163  0.33503424  1
  Ni  Ni27  1  0.16684699  0.16495230  0.50003651  1
  Ni  Ni28  1  0.00234801  0.00103157  0.66411050  1
  Ni  Ni29  1  0.16944822  0.16665771  0.83069016  1
  Cr  Cr30  1  0.16615656  0.49811912  0.49879300  1
  Ni  Ni31  1  0.99955261  0.33196375  0.66746202  1
  Ni  Ni32  1  0.16656869  0.49937592  0.83383912  1
  Ni  Ni33  1  0.16511893  0.83587903  0.49930626  1
  Ni  Ni34  1  0.00040561  0.66633782  0.66644084  1
  Ni  Ni35  1  0.16708635  0.83432726  0.83298286  1
  Ni  Ni36  1  0.49892191  0.16750508  0.49859644  1
  Ni  Ni37  1  0.33106154  0.00181799  0.66608689  1
  Ni  Ni38  1  0.49709543  0.16672156  0.83388125  1
  Ni  Ni39  1  0.50182785  0.49722708  0.49781072  1
  Ni  Ni40  1  0.33393433  0.33093849  0.66679725  1
  Ni  Ni41  1  0.49861799  0.49735357  0.83238512  1
  Ni  Ni42  1  0.49927314  0.83478379  0.49667590  1
  Cr  Cr43  1  0.33323116  0.66919601  0.66611521  1
  Ni  Ni44  1  0.49687598  0.83557276  0.83559556  1
  Ni  Ni45  1  0.83387205  0.16701999  0.49987519  1
  Cr  Cr46  1  0.66316470  0.00101400  0.66550524  1
  Fe  Fe47  1  0.83366666  0.16719088  0.83133615  1
  Ni  Ni48  1  0.83306585  0.49906305  0.49921422  1
  Ni  Ni49  1  0.66686584  0.33232941  0.66601623  1
  Ni  Ni50  1  0.83508885  0.49927519  0.83057033  1
  Ni  Ni51  1  0.83499704  0.83341024  0.49782586  1
  Cr  Cr52  1  0.66538651  0.66411944  0.66295220  1
  Cr  Cr53  1  0.83460029  0.83305431  0.83242148  1
" 