3078,Ni76Fe16Cr7_4,-238.218810515204, 192.846017485439,Ni76Fe16Cr7,"# generated using pymatgen
 data_Cr5Fe8Ni41
_symmetry_space_group_name_H-M   'P 1'
_cell_length_a   7.43659892
_cell_length_b   7.43659892
_cell_length_c   10.51693905
_cell_angle_alpha   90.00000000
_cell_angle_beta   90.00000000
_cell_angle_gamma   90.00000000
_symmetry_Int_Tables_number   1
_chemical_formula_structural   Cr5Fe8Ni41
_chemical_formula_sum   'Cr5 Fe8 Ni41'
_cell_volume   581.61831767
_cell_formula_units_Z   1
loop_
 _symmetry_equiv_pos_site_id
 _symmetry_equiv_pos_as_xyz
  1  'x, y, z'
loop_
 _atom_site_type_symbol
 _atom_site_label
 _atom_site_symmetry_multiplicity
 _atom_site_fract_x
 _atom_site_fract_y
 _atom_site_fract_z
 _atom_site_occupancy
  Ni  Ni0  1  1.00154724  0.00354301  1.00069376  1
  Cr  Cr1  1  0.16735630  0.17030075  0.16888781  1
  Ni  Ni2  1  0.99951023  0.00255914  0.33803026  1
  Ni  Ni3  1  1.00056930  0.33558707  1.00079809  1
  Ni  Ni4  1  0.16770429  0.50090513  0.16966321  1
  Ni  Ni5  1  1.00155295  0.33559881  0.33667075  1
  Ni  Ni6  1  1.00168520  0.66662061  0.00254503  1
  Cr  Cr7  1  0.16771437  0.83513515  0.16993840  1
  Ni  Ni8  1  0.00216365  0.66768863  0.33544359  1
  Ni  Ni9  1  0.33622677  0.00371125  0.99890385  1
  Fe  Fe10  1  0.50325273  0.17200492  0.16882162  1
  Fe  Fe11  1  0.33563728  0.00253045  0.33804276  1
  Fe  Fe12  1  0.33620160  0.33536487  1.00113206  1
  Ni  Ni13  1  0.50406215  0.50142388  0.17046162  1
  Ni  Ni14  1  0.33593852  0.33708688  0.33527392  1
  Cr  Cr15  1  0.33507516  0.66732082  0.99952943  1
  Cr  Cr16  1  0.50403901  0.83590784  0.16924715  1
  Ni  Ni17  1  0.33530724  0.66636850  0.33802436  1
  Ni  Ni18  1  0.66884668  0.00462317  0.00303194  1
  Ni  Ni19  1  0.83457269  0.16986268  0.16903717  1
  Ni  Ni20  1  0.67011756  0.00338393  0.33518110  1
  Ni  Ni21  1  0.66953916  0.33470981  1.00163927  1
  Ni  Ni22  1  0.83466308  0.50033080  0.16807334  1
  Ni  Ni23  1  0.66881996  0.33451023  0.33624730  1
  Ni  Ni24  1  0.66930510  0.66687391  1.00171883  1
  Fe  Fe25  1  0.83603216  0.83424440  0.16879618  1
  Ni  Ni26  1  0.66891296  0.66831530  0.33662998  1
  Ni  Ni27  1  0.16905158  0.16988755  0.50208587  1
  Fe  Fe28  1  1.00170632  0.00244411  0.66731218  1
  Ni  Ni29  1  0.16816242  0.16959457  0.83535275  1
  Ni  Ni30  1  0.16791889  0.50157213  0.50095753  1
  Ni  Ni31  1  0.00280726  0.33508711  0.66823869  1
  Ni  Ni32  1  0.16812302  0.50083136  0.83543560  1
  Ni  Ni33  1  0.16916565  0.83489125  0.50212332  1
  Ni  Ni34  1  0.00398929  0.66772617  0.66783456  1
  Ni  Ni35  1  0.16902950  0.83587725  0.83432657  1
  Ni  Ni36  1  0.50224053  0.16821251  0.50071321  1
  Fe  Fe37  1  0.33611770  0.00296061  0.66932828  1
  Ni  Ni38  1  0.50284656  0.16926396  0.83712543  1
  Fe  Fe39  1  0.50206627  0.50118022  0.50284106  1
  Ni  Ni40  1  0.33494448  0.33559010  0.66972916  1
  Ni  Ni41  1  0.50325400  0.50131659  0.83348101  1
  Ni  Ni42  1  0.50255407  0.83571030  0.50272398  1
  Ni  Ni43  1  0.33447145  0.66844743  0.66871883  1
  Ni  Ni44  1  0.50212595  0.83580343  0.83429277  1
  Ni  Ni45  1  0.83495923  0.16948330  0.50245049  1
  Ni  Ni46  1  0.66776729  0.00328268  0.66805373  1
  Ni  Ni47  1  0.83532243  0.17014795  0.83465931  1
  Ni  Ni48  1  0.83555838  0.50183160  0.50313367  1
  Ni  Ni49  1  0.66839288  0.33321607  0.66824902  1
  Fe  Fe50  1  0.83524468  0.50058983  0.83412563  1
  Ni  Ni51  1  0.83443781  0.83466145  0.50053342  1
  Ni  Ni52  1  0.66757744  0.66913885  0.66766242  1
  Cr  Cr53  1  0.83436137  0.83528949  0.83659854  1
" 