6364,Ni76Fe16Cr7_15,-238.408784520158, 194.001872262706,Ni76Fe16Cr7,"# generated using pymatgen
 data_Cr5Fe8Ni41
_symmetry_space_group_name_H-M   'P 1'
_cell_length_a   7.43776891
_cell_length_b   7.43776891
_cell_length_c   10.51859366
_cell_angle_alpha   90.00000000
_cell_angle_beta   90.00000000
_cell_angle_gamma   90.00000000
_symmetry_Int_Tables_number   1
_chemical_formula_structural   Cr5Fe8Ni41
_chemical_formula_sum   'Cr5 Fe8 Ni41'
_cell_volume   581.89287491
_cell_formula_units_Z   1
loop_
 _symmetry_equiv_pos_site_id
 _symmetry_equiv_pos_as_xyz
  1  'x, y, z'
loop_
 _atom_site_type_symbol
 _atom_site_label
 _atom_site_symmetry_multiplicity
 _atom_site_fract_x
 _atom_site_fract_y
 _atom_site_fract_z
 _atom_site_occupancy
  Ni  Ni0  1  0.00246894  1.00189794  1.00081123  1
  Ni  Ni1  1  0.16927196  0.16807443  0.16766236  1
  Ni  Ni2  1  0.00232530  1.00192676  0.33685732  1
  Fe  Fe3  1  0.00316966  0.33390260  1.00061503  1
  Ni  Ni4  1  0.16824848  0.50114572  0.16809635  1
  Ni  Ni5  1  0.00300552  0.33511676  0.33637763  1
  Fe  Fe6  1  1.00148992  0.67050325  1.00095061  1
  Fe  Fe7  1  0.16821813  0.83641290  0.16977192  1
  Ni  Ni8  1  0.00263682  0.66887627  0.33537662  1
  Ni  Ni9  1  0.33462064  0.00365724  0.00277059  1
  Ni  Ni10  1  0.50045206  0.16724478  0.16696023  1
  Ni  Ni11  1  0.33538220  1.00120706  0.33413898  1
  Ni  Ni12  1  0.33505356  0.33431874  1.00113874  1
  Ni  Ni13  1  0.50179299  0.50235726  0.16905401  1
  Cr  Cr14  1  0.33406540  0.33513860  0.33535970  1
  Cr  Cr15  1  0.33626540  0.66880419  0.00232571  1
  Ni  Ni16  1  0.50353402  0.83626855  0.16946431  1
  Ni  Ni17  1  0.33528286  0.66940098  0.33580603  1
  Ni  Ni18  1  0.66874267  1.00131961  1.00047701  1
  Cr  Cr19  1  0.83540110  0.16683676  0.16941878  1
  Ni  Ni20  1  0.66817267  1.00035352  0.33603114  1
  Ni  Ni21  1  0.66688519  0.33528003  1.00102903  1
  Cr  Cr22  1  0.83495518  0.50406178  0.16873642  1
  Fe  Fe23  1  0.66800942  0.33487747  0.33671970  1
  Ni  Ni24  1  0.66897598  0.66935508  1.00084874  1
  Ni  Ni25  1  0.83497008  0.83516223  0.16805395  1
  Ni  Ni26  1  0.66799838  0.67040781  0.33595207  1
  Ni  Ni27  1  0.16848558  0.16741124  0.50288523  1
  Fe  Fe28  1  1.00155117  1.00102921  0.66906543  1
  Ni  Ni29  1  0.16917171  0.16787208  0.83541611  1
  Ni  Ni30  1  0.16714689  0.50264404  0.50341128  1
  Ni  Ni31  1  1.00159383  0.33537027  0.66906626  1
  Fe  Fe32  1  0.16865761  0.50144780  0.83414569  1
  Ni  Ni33  1  0.16859076  0.83566776  0.50111315  1
  Ni  Ni34  1  0.00329809  0.66743327  0.66917598  1
  Ni  Ni35  1  0.16824042  0.83707671  0.83462843  1
  Ni  Ni36  1  0.50153441  0.16704799  0.50259285  1
  Ni  Ni37  1  0.33543109  1.00164413  0.66891478  1
  Ni  Ni38  1  0.50129266  0.16872503  0.83603833  1
  Ni  Ni39  1  0.50234390  0.50222058  0.50159833  1
  Fe  Fe40  1  0.33616410  0.33517711  0.66863850  1
  Ni  Ni41  1  0.50281884  0.50018500  0.83500077  1
  Ni  Ni42  1  0.50092440  0.83665469  0.50135651  1
  Ni  Ni43  1  0.33345567  0.66944261  0.66782814  1
  Ni  Ni44  1  0.50101700  0.83702115  0.83527181  1
  Fe  Fe45  1  0.83532708  0.16836093  0.50243669  1
  Ni  Ni46  1  0.66817578  0.00389233  0.66966729  1
  Ni  Ni47  1  0.83556448  0.16912698  0.83471779  1
  Ni  Ni48  1  0.83655757  0.50202563  0.50034460  1
  Ni  Ni49  1  0.67027045  0.33376088  0.66799055  1
  Ni  Ni50  1  0.83564795  0.50116457  0.83683242  1
  Ni  Ni51  1  0.83636672  0.83489539  0.50147806  1
  Cr  Cr52  1  0.66883235  0.66954513  0.66935567  1
  Ni  Ni53  1  0.83643019  0.83553437  0.83651039  1
" 