2756,Ni76Fe8Cr15_11,-234.281844740188, 174.095773621144,Ni76Fe8Cr15,"# generated using pymatgen
 data_Cr9Fe4Ni41
_symmetry_space_group_name_H-M   'P 1'
_cell_length_a   7.45566112
_cell_length_b   7.45566112
_cell_length_c   10.54389707
_cell_angle_alpha   90.00000000
_cell_angle_beta   90.00000000
_cell_angle_gamma   90.00000000
_symmetry_Int_Tables_number   1
_chemical_formula_structural   Cr9Fe4Ni41
_chemical_formula_sum   'Cr9 Fe4 Ni41'
_cell_volume   586.10236931
_cell_formula_units_Z   1
loop_
 _symmetry_equiv_pos_site_id
 _symmetry_equiv_pos_as_xyz
  1  'x, y, z'
loop_
 _atom_site_type_symbol
 _atom_site_label
 _atom_site_symmetry_multiplicity
 _atom_site_fract_x
 _atom_site_fract_y
 _atom_site_fract_z
 _atom_site_occupancy
  Ni  Ni0  1  1.00046971  0.00239773  1.00025273  1
  Ni  Ni1  1  0.16516330  0.16799697  0.16759130  1
  Ni  Ni2  1  0.99988232  0.99986010  0.33173539  1
  Ni  Ni3  1  1.00036028  0.33253014  0.00110068  1
  Ni  Ni4  1  0.16815494  0.49926065  0.16903147  1
  Ni  Ni5  1  0.00081569  0.33610946  0.33217285  1
  Cr  Cr6  1  0.00108101  0.66688671  1.00069748  1
  Fe  Fe7  1  0.16625498  0.83467287  0.16800156  1
  Ni  Ni8  1  0.99994310  0.66631914  0.33472931  1
  Ni  Ni9  1  0.33290844  1.00039504  0.99894440  1
  Cr  Cr10  1  0.50046587  0.16884712  0.16809817  1
  Ni  Ni11  1  0.33435498  1.00066485  0.33451149  1
  Ni  Ni12  1  0.33344980  0.33496638  0.99926321  1
  Ni  Ni13  1  0.50017519  0.50128427  0.16732350  1
  Ni  Ni14  1  0.33281508  0.33469904  0.33419614  1
  Ni  Ni15  1  0.33446895  0.66692876  0.99961565  1
  Cr  Cr16  1  0.50104320  0.83222194  0.16748008  1
  Ni  Ni17  1  0.33288426  0.66692717  0.33366180  1
  Ni  Ni18  1  0.66891058  0.00138104  0.99864628  1
  Ni  Ni19  1  0.83687826  0.16712197  0.16743682  1
  Ni  Ni20  1  0.66805181  0.99979171  0.33609749  1
  Ni  Ni21  1  0.66848073  0.33408970  0.99947718  1
  Ni  Ni22  1  0.83396015  0.50006290  0.16891825  1
  Ni  Ni23  1  0.66866083  0.33463846  0.33398688  1
  Fe  Fe24  1  0.66655989  0.66660518  0.99995296  1
  Ni  Ni25  1  0.83485765  0.83510638  0.16891846  1
  Ni  Ni26  1  0.66946185  0.66786048  0.33398999  1
  Cr  Cr27  1  0.16918663  0.16931473  0.49891797  1
  Fe  Fe28  1  0.99814685  0.99862776  0.67011705  1
  Ni  Ni29  1  0.16741633  0.16731101  0.83593296  1
  Ni  Ni30  1  0.16711855  0.50158282  0.49999318  1
  Cr  Cr31  1  0.00084359  0.33626057  0.66902152  1
  Ni  Ni32  1  0.16968646  0.50056732  0.83326904  1
  Cr  Cr33  1  0.16678082  0.83180520  0.49951912  1
  Fe  Fe34  1  0.99953711  0.66740249  0.66787177  1
  Ni  Ni35  1  0.16766753  0.83441287  0.83453495  1
  Ni  Ni36  1  0.50148820  0.16646105  0.49985077  1
  Cr  Cr37  1  0.33660589  1.00074767  0.66865267  1
  Ni  Ni38  1  0.50127410  0.16822723  0.83420928  1
  Cr  Cr39  1  0.50036619  0.50047698  0.50040129  1
  Ni  Ni40  1  0.33487584  0.33585391  0.66883211  1
  Ni  Ni41  1  0.50015762  0.50080483  0.83444070  1
  Ni  Ni42  1  0.50331272  0.83497745  0.49982351  1
  Ni  Ni43  1  0.33391339  0.66627760  0.66901093  1
  Ni  Ni44  1  0.50125741  0.83325860  0.83459012  1
  Cr  Cr45  1  0.83171164  0.16657720  0.49958126  1
  Ni  Ni46  1  0.66784907  0.99936552  0.66754682  1
  Ni  Ni47  1  0.83359960  0.16620890  0.83528224  1
  Ni  Ni48  1  0.83473041  0.50340974  0.49951407  1
  Ni  Ni49  1  0.66676230  0.33401811  0.66882618  1
  Ni  Ni50  1  0.83244480  0.50055040  0.83386144  1
  Ni  Ni51  1  0.83210668  0.83267161  0.50078516  1
  Ni  Ni52  1  0.66851860  0.66890617  0.66842784  1
  Ni  Ni53  1  0.83336395  0.83553122  0.83258969  1
" 