1897,Ni76Fe7Cr15_16,-234.381692203137, 175.45092769675,Ni76Fe7Cr15,"# generated using pymatgen
 data_Cr9Fe4Ni41
_symmetry_space_group_name_H-M   'P 1'
_cell_length_a   7.45958007
_cell_length_b   7.45958007
_cell_length_c   10.54943930
_cell_angle_alpha   90.00000000
_cell_angle_beta   90.00000000
_cell_angle_gamma   90.00000000
_symmetry_Int_Tables_number   1
_chemical_formula_structural   Cr9Fe4Ni41
_chemical_formula_sum   'Cr9 Fe4 Ni41'
_cell_volume   587.02708141
_cell_formula_units_Z   1
loop_
 _symmetry_equiv_pos_site_id
 _symmetry_equiv_pos_as_xyz
  1  'x, y, z'
loop_
 _atom_site_type_symbol
 _atom_site_label
 _atom_site_symmetry_multiplicity
 _atom_site_fract_x
 _atom_site_fract_y
 _atom_site_fract_z
 _atom_site_occupancy
  Ni  Ni0  1  1.00002480  0.99879873  1.00030155  1
  Ni  Ni1  1  0.16767456  0.16607424  0.16742518  1
  Cr  Cr2  1  0.99975474  0.00070646  0.33239837  1
  Cr  Cr3  1  0.00083749  0.33375795  0.00077150  1
  Ni  Ni4  1  0.16829668  0.50193480  0.16899914  1
  Fe  Fe5  1  0.99971903  0.33595140  0.33304216  1
  Ni  Ni6  1  1.00039590  0.66924194  0.00127102  1
  Ni  Ni7  1  0.16733724  0.83349277  0.16656189  1
  Fe  Fe8  1  0.99971541  0.66509572  0.33237728  1
  Ni  Ni9  1  0.33280429  0.99960303  1.00021411  1
  Cr  Cr10  1  0.49947645  0.16856272  0.16655334  1
  Ni  Ni11  1  0.33300262  0.00060347  0.33251706  1
  Ni  Ni12  1  0.33453177  0.33475228  0.99986533  1
  Ni  Ni13  1  0.50065484  0.50159737  0.16745189  1
  Ni  Ni14  1  0.33386225  0.33606100  0.33411323  1
  Ni  Ni15  1  0.33372427  0.66714423  0.00065466  1
  Fe  Fe16  1  0.49956685  0.83121209  0.16613788  1
  Ni  Ni17  1  0.33378661  0.66483360  0.33245287  1
  Ni  Ni18  1  0.66867346  0.99960350  1.00021268  1
  Ni  Ni19  1  0.83465041  0.16755305  0.16679947  1
  Cr  Cr20  1  0.66785110  0.00067335  0.33445198  1
  Ni  Ni21  1  0.66657751  0.33438220  0.99986456  1
  Ni  Ni22  1  0.83254913  0.50193427  0.16840425  1
  Ni  Ni23  1  0.66772850  0.33650484  0.33517746  1
  Ni  Ni24  1  0.66738168  0.66751431  0.00065342  1
  Ni  Ni25  1  0.83499042  0.83201467  0.16593727  1
  Ni  Ni26  1  0.66780816  0.66439240  0.33352178  1
  Cr  Cr27  1  0.16855582  0.16787926  0.50153718  1
  Ni  Ni28  1  1.00034205  0.00223361  0.66875003  1
  Ni  Ni29  1  0.16824423  0.16558543  0.83286134  1
  Fe  Fe30  1  0.16822872  0.49931265  0.50012374  1
  Ni  Ni31  1  0.99990599  0.33263190  0.66698285  1
  Ni  Ni32  1  0.16910715  0.50071591  0.83312830  1
  Cr  Cr33  1  0.16749026  0.83358187  0.50124699  1
  Cr  Cr34  1  0.99984631  0.66679057  0.66784861  1
  Ni  Ni35  1  0.16800515  0.83520011  0.83435000  1
  Ni  Ni36  1  0.50030002  0.17086829  0.50043463  1
  Ni  Ni37  1  0.33258611  0.00150219  0.66877127  1
  Ni  Ni38  1  0.49918045  0.16816099  0.83397305  1
  Ni  Ni39  1  0.50186877  0.49874118  0.50056777  1
  Ni  Ni40  1  0.33431243  0.33465470  0.66752480  1
  Ni  Ni41  1  0.50065590  0.50047619  0.83348125  1
  Cr  Cr42  1  0.49987392  0.83236559  0.50023312  1
  Ni  Ni43  1  0.33504815  0.66534389  0.66839671  1
  Ni  Ni44  1  0.49918029  0.83286331  0.83470432  1
  Ni  Ni45  1  0.83302106  0.16999593  0.50121745  1
  Cr  Cr46  1  0.66838186  0.00112049  0.66684340  1
  Ni  Ni47  1  0.83407630  0.16706085  0.83348225  1
  Ni  Ni48  1  0.83155878  0.49972144  0.49937133  1
  Ni  Ni49  1  0.66728254  0.33509338  0.66645681  1
  Ni  Ni50  1  0.83174003  0.50071510  0.83372309  1
  Ni  Ni51  1  0.83399451  0.83178428  0.50059103  1
  Ni  Ni52  1  0.66655064  0.66490734  0.66732380  1
  Ni  Ni53  1  0.83431519  0.83372596  0.83497238  1
" 