5512,Ni76Fe16Cr7_13,-238.49178494499, 194.027671606145,Ni76Fe16Cr7,"# generated using pymatgen
 data_Cr5Fe8Ni41
_symmetry_space_group_name_H-M   'P 1'
_cell_length_a   7.43701914
_cell_length_b   7.43701914
_cell_length_c   10.51753333
_cell_angle_alpha   90.00000000
_cell_angle_beta   90.00000000
_cell_angle_gamma   90.00000000
_symmetry_Int_Tables_number   1
_chemical_formula_structural   Cr5Fe8Ni41
_chemical_formula_sum   'Cr5 Fe8 Ni41'
_cell_volume   581.71691962
_cell_formula_units_Z   1
loop_
 _symmetry_equiv_pos_site_id
 _symmetry_equiv_pos_as_xyz
  1  'x, y, z'
loop_
 _atom_site_type_symbol
 _atom_site_label
 _atom_site_symmetry_multiplicity
 _atom_site_fract_x
 _atom_site_fract_y
 _atom_site_fract_z
 _atom_site_occupancy
  Ni  Ni0  1  1.00122513  0.00310094  1.00045977  1
  Ni  Ni1  1  0.16830141  0.16874358  0.16863783  1
  Ni  Ni2  1  1.00103271  0.00241749  0.33714961  1
  Ni  Ni3  1  0.00276838  0.33577112  0.00311764  1
  Ni  Ni4  1  0.16784223  0.50099285  0.16967730  1
  Ni  Ni5  1  0.00240010  0.33623739  0.33487238  1
  Ni  Ni6  1  1.00042047  0.66726268  1.00090000  1
  Cr  Cr7  1  0.16695215  0.83741151  0.16831972  1
  Ni  Ni8  1  1.00158360  0.66731226  0.33614801  1
  Fe  Fe9  1  0.33453543  0.00432509  1.00113210  1
  Ni  Ni10  1  0.50159911  0.17024411  0.16909177  1
  Ni  Ni11  1  0.33687327  0.00339534  0.33579287  1
  Ni  Ni12  1  0.33489427  0.33485433  0.00248877  1
  Ni  Ni13  1  0.50379527  0.50082694  0.16887411  1
  Ni  Ni14  1  0.33436765  0.33442582  0.33445502  1
  Cr  Cr15  1  0.33560503  0.66579770  1.00075128  1
  Fe  Fe16  1  0.50306971  0.83493825  0.17025480  1
  Fe  Fe17  1  0.33405594  0.66826605  0.33572369  1
  Cr  Cr18  1  0.66858878  0.00254550  0.00263985  1
  Ni  Ni19  1  0.83609568  0.16974784  0.16944388  1
  Ni  Ni20  1  0.66833677  0.00214785  0.33532583  1
  Ni  Ni21  1  0.66836188  0.33602409  1.00074281  1
  Ni  Ni22  1  0.83454086  0.50180490  0.16794327  1
  Ni  Ni23  1  0.66929542  0.33328307  0.33548569  1
  Ni  Ni24  1  0.66982550  0.66818836  0.00241408  1
  Fe  Fe25  1  0.83576249  0.83493321  0.16942999  1
  Fe  Fe26  1  0.67025235  0.66833450  0.33499715  1
  Ni  Ni27  1  0.16888863  0.16792233  0.50109034  1
  Fe  Fe28  1  0.00363263  1.00192018  0.66863991  1
  Ni  Ni29  1  0.16850738  0.16867463  0.83644771  1
  Ni  Ni30  1  0.16745766  0.50233426  0.50100989  1
  Ni  Ni31  1  0.00328144  0.33641474  0.66805270  1
  Ni  Ni32  1  0.16782291  0.50076230  0.83510019  1
  Ni  Ni33  1  0.16876906  0.83579708  0.50331536  1
  Ni  Ni34  1  1.00187835  0.66720579  0.66906664  1
  Fe  Fe35  1  0.16762187  0.83555886  0.83411708  1
  Ni  Ni36  1  0.50095335  0.16798908  0.50142378  1
  Ni  Ni37  1  0.33591996  0.00241718  0.66932832  1
  Ni  Ni38  1  0.50012128  0.17025919  0.83551913  1
  Cr  Cr39  1  0.50224440  0.50132134  0.50316556  1
  Ni  Ni40  1  0.33269175  0.33458955  0.66929718  1
  Ni  Ni41  1  0.50294498  0.50198769  0.83459026  1
  Ni  Ni42  1  0.50100994  0.83576858  0.50034754  1
  Ni  Ni43  1  0.33428579  0.66910169  0.66864186  1
  Ni  Ni44  1  0.50177327  0.83431081  0.83529187  1
  Ni  Ni45  1  0.83642959  0.16951421  0.50123552  1
  Cr  Cr46  1  0.66880198  0.00207020  0.66761918  1
  Ni  Ni47  1  0.83749475  0.17017314  0.83525198  1
  Ni  Ni48  1  0.83656549  0.50221583  0.50241179  1
  Fe  Fe49  1  0.66936646  0.33631225  0.66956142  1
  Ni  Ni50  1  0.83521579  0.50252142  0.83581243  1
  Ni  Ni51  1  0.83649763  0.83440136  0.50059223  1
  Ni  Ni52  1  0.66988689  0.67046512  0.66949602  1
  Ni  Ni53  1  0.83657314  0.83367637  0.83632282  1
" 