6706,Ni76Fe8Cr15_6,-234.08807861732, 170.367055931299,Ni76Fe8Cr15,"# generated using pymatgen
 data_Cr9Fe4Ni41
_symmetry_space_group_name_H-M   'P 1'
_cell_length_a   7.45859311
_cell_length_b   7.45859311
_cell_length_c   10.54804353
_cell_angle_alpha   90.00000000
_cell_angle_beta   90.00000000
_cell_angle_gamma   90.00000000
_symmetry_Int_Tables_number   1
_chemical_formula_structural   Cr9Fe4Ni41
_chemical_formula_sum   'Cr9 Fe4 Ni41'
_cell_volume   586.79410842
_cell_formula_units_Z   1
loop_
 _symmetry_equiv_pos_site_id
 _symmetry_equiv_pos_as_xyz
  1  'x, y, z'
loop_
 _atom_site_type_symbol
 _atom_site_label
 _atom_site_symmetry_multiplicity
 _atom_site_fract_x
 _atom_site_fract_y
 _atom_site_fract_z
 _atom_site_occupancy
  Fe  Fe0  1  1.00027183  0.00079191  0.00152503  1
  Ni  Ni1  1  0.16765793  0.16377727  0.16742808  1
  Ni  Ni2  1  0.00083172  0.99934299  0.33349699  1
  Cr  Cr3  1  0.99951401  0.33328993  0.99993319  1
  Cr  Cr4  1  0.16909121  0.50235914  0.16752115  1
  Cr  Cr5  1  0.99940821  0.33130386  0.33312131  1
  Fe  Fe6  1  0.99935202  0.66842897  0.00058016  1
  Ni  Ni7  1  0.16678933  0.83529768  0.16796424  1
  Ni  Ni8  1  0.99982676  0.67124196  0.33249024  1
  Ni  Ni9  1  0.33427590  0.99970270  0.00110181  1
  Cr  Cr10  1  0.50049484  0.16794099  0.16772100  1
  Ni  Ni11  1  0.33188400  0.99841133  0.33329020  1
  Ni  Ni12  1  0.33469987  0.33410098  0.99871391  1
  Ni  Ni13  1  0.50215602  0.50148898  0.16805106  1
  Ni  Ni14  1  0.33519747  0.33411495  0.33347932  1
  Ni  Ni15  1  0.33529939  0.66789605  0.00072175  1
  Ni  Ni16  1  0.50035376  0.83252485  0.16704972  1
  Ni  Ni17  1  0.33588504  0.66917329  0.33415263  1
  Ni  Ni18  1  0.66763954  0.99973144  0.99942361  1
  Ni  Ni19  1  0.83342062  0.16558022  0.16764260  1
  Ni  Ni20  1  0.66898485  0.99865464  0.33415067  1
  Ni  Ni21  1  0.66739866  0.33425425  1.00020424  1
  Ni  Ni22  1  0.83064639  0.50235928  0.16734286  1
  Ni  Ni23  1  0.66691776  0.33512027  0.33247214  1
  Fe  Fe24  1  0.66610367  0.66678770  0.00090496  1
  Ni  Ni25  1  0.83455710  0.83376254  0.16766606  1
  Ni  Ni26  1  0.66598662  0.66792538  0.33243538  1
  Ni  Ni27  1  0.16607873  0.16512443  0.50054533  1
  Ni  Ni28  1  0.99778279  0.00193922  0.66631027  1
  Ni  Ni29  1  0.16822753  0.16917712  0.83372513  1
  Cr  Cr30  1  0.16963525  0.50190645  0.50211955  1
  Ni  Ni31  1  1.00045667  0.33236737  0.66905480  1
  Ni  Ni32  1  0.16872855  0.49985075  0.83245210  1
  Ni  Ni33  1  0.16619601  0.83464757  0.49904924  1
  Ni  Ni34  1  0.99964128  0.66739361  0.66843458  1
  Cr  Cr35  1  0.16570016  0.83268397  0.83456089  1
  Cr  Cr36  1  0.50173666  0.16855974  0.49928227  1
  Cr  Cr37  1  0.33406109  1.00008252  0.66696928  1
  Ni  Ni38  1  0.50144139  0.16925924  0.83486265  1
  Ni  Ni39  1  0.50002897  0.50186546  0.50011445  1
  Ni  Ni40  1  0.33293539  0.33610991  0.66950943  1
  Ni  Ni41  1  0.50011100  0.49894043  0.83353418  1
  Ni  Ni42  1  0.50109343  0.83178055  0.50013672  1
  Ni  Ni43  1  0.33535069  0.66524610  0.66682648  1
  Fe  Fe44  1  0.50294227  0.83342169  0.83460224  1
  Ni  Ni45  1  0.83434983  0.16406194  0.50160788  1
  Ni  Ni46  1  0.67045337  0.99952352  0.66812663  1
  Ni  Ni47  1  0.83203317  0.16631787  0.83245039  1
  Cr  Cr48  1  0.83174771  0.50153121  0.50134287  1
  Ni  Ni49  1  0.66830849  0.33424943  0.66902405  1
  Ni  Ni50  1  0.83285957  0.50138183  0.83299121  1
  Ni  Ni51  1  0.83441246  0.83589146  0.50067315  1
  Ni  Ni52  1  0.66670909  0.66792596  0.66835597  1
  Ni  Ni53  1  0.83293910  0.83400226  0.83335913  1
" 