2493,Ni76Fe8Cr15_17,-234.186046816506, 171.876834288078,Ni76Fe8Cr15,"# generated using pymatgen
 data_Cr9Fe4Ni41
_symmetry_space_group_name_H-M   'P 1'
_cell_length_a   7.45978441
_cell_length_b   7.45978441
_cell_length_c   10.54972828
_cell_angle_alpha   90.00000000
_cell_angle_beta   90.00000000
_cell_angle_gamma   90.00000000
_symmetry_Int_Tables_number   1
_chemical_formula_structural   Cr9Fe4Ni41
_chemical_formula_sum   'Cr9 Fe4 Ni41'
_cell_volume   587.07532398
_cell_formula_units_Z   1
loop_
 _symmetry_equiv_pos_site_id
 _symmetry_equiv_pos_as_xyz
  1  'x, y, z'
loop_
 _atom_site_type_symbol
 _atom_site_label
 _atom_site_symmetry_multiplicity
 _atom_site_fract_x
 _atom_site_fract_y
 _atom_site_fract_z
 _atom_site_occupancy
  Cr  Cr0  1  0.00165447  0.00115614  1.00009725  1
  Ni  Ni1  1  0.16609284  0.16851492  0.16810353  1
  Ni  Ni2  1  0.99792163  1.00017962  0.33372227  1
  Ni  Ni3  1  1.00026870  0.33529084  0.00066644  1
  Ni  Ni4  1  0.16504067  0.49974108  0.16612162  1
  Ni  Ni5  1  0.99993516  0.33320977  0.33304127  1
  Ni  Ni6  1  0.00266538  0.66559551  1.00006769  1
  Ni  Ni7  1  0.16521177  0.83322590  0.16573725  1
  Ni  Ni8  1  0.99865428  0.66838251  0.33274837  1
  Ni  Ni9  1  0.33285263  0.00153630  0.99938983  1
  Ni  Ni10  1  0.50042366  0.16855090  0.16617730  1
  Cr  Cr11  1  0.33275368  0.00309071  0.33536968  1
  Ni  Ni12  1  0.33395466  0.33410511  0.00169649  1
  Ni  Ni13  1  0.50061144  0.49839323  0.16617311  1
  Ni  Ni14  1  0.33337806  0.33373160  0.33336232  1
  Ni  Ni15  1  0.33171197  0.66576893  0.99902194  1
  Cr  Cr16  1  0.50000710  0.83478062  0.16602968  1
  Cr  Cr17  1  0.33303283  0.66433239  0.33491363  1
  Cr  Cr18  1  0.66783897  0.00457764  0.99891681  1
  Ni  Ni19  1  0.83481252  0.16915771  0.16715898  1
  Ni  Ni20  1  0.67044508  0.00054932  0.33441897  1
  Ni  Ni21  1  0.66729010  0.33421034  1.00014086  1
  Ni  Ni22  1  0.83607025  0.49957851  0.16718568  1
  Cr  Cr23  1  0.66638688  0.33265320  0.33350447  1
  Cr  Cr24  1  0.66867193  0.66444082  0.99946850  1
  Fe  Fe25  1  0.83589226  0.83347466  0.16801385  1
  Fe  Fe26  1  0.66930620  0.66693747  0.33519024  1
  Ni  Ni27  1  0.16537886  0.16582785  0.50070939  1
  Ni  Ni28  1  0.00061098  0.00084246  0.66695900  1
  Ni  Ni29  1  0.16853546  0.16824311  0.83245472  1
  Cr  Cr30  1  0.16359876  0.49759522  0.50132785  1
  Ni  Ni31  1  0.99925563  0.33289269  0.66801850  1
  Ni  Ni32  1  0.16506765  0.49878894  0.83512658  1
  Ni  Ni33  1  0.16512285  0.83601178  0.50190907  1
  Ni  Ni34  1  0.99834300  0.66786102  0.66869486  1
  Ni  Ni35  1  0.16653466  0.83456341  0.83416368  1
  Ni  Ni36  1  0.50138290  0.16622931  0.50192584  1
  Ni  Ni37  1  0.33362675  0.00189645  0.66706424  1
  Ni  Ni38  1  0.49903441  0.16772778  0.83331893  1
  Ni  Ni39  1  0.50383252  0.49963308  0.50144141  1
  Ni  Ni40  1  0.33493662  0.33154217  0.66639184  1
  Ni  Ni41  1  0.50137638  0.49839220  0.83388046  1
  Ni  Ni42  1  0.50310748  0.83544748  0.50201496  1
  Cr  Cr43  1  0.33375295  0.66712095  0.66880351  1
  Ni  Ni44  1  0.50049904  0.83537262  0.83304206  1
  Ni  Ni45  1  0.83462285  0.16733624  0.50216267  1
  Ni  Ni46  1  0.66744013  0.00125026  0.66757408  1
  Fe  Fe47  1  0.83436464  0.16881622  0.83185224  1
  Ni  Ni48  1  0.83340384  0.50075013  0.50149532  1
  Ni  Ni49  1  0.66744196  0.33382698  0.66797684  1
  Ni  Ni50  1  0.83496946  0.49998289  0.83269691  1
  Fe  Fe51  1  0.83424289  0.83468231  0.50175728  1
  Ni  Ni52  1  0.66847980  0.66663905  0.66610470  1
  Ni  Ni53  1  0.83444091  0.83185013  0.83098353  1
" 