7953,Ni76Fe8Cr15_1,-234.267813146136, 171.515745156933,Ni76Fe8Cr15,"# generated using pymatgen
 data_Cr9Fe4Ni41
_symmetry_space_group_name_H-M   'P 1'
_cell_length_a   7.46234405
_cell_length_b   7.46234405
_cell_length_c   10.55334816
_cell_angle_alpha   90.00000000
_cell_angle_beta   90.00000000
_cell_angle_gamma   90.00000000
_symmetry_Int_Tables_number   1
_chemical_formula_structural   Cr9Fe4Ni41
_chemical_formula_sum   'Cr9 Fe4 Ni41'
_cell_volume   587.67985264
_cell_formula_units_Z   1
loop_
 _symmetry_equiv_pos_site_id
 _symmetry_equiv_pos_as_xyz
  1  'x, y, z'
loop_
 _atom_site_type_symbol
 _atom_site_label
 _atom_site_symmetry_multiplicity
 _atom_site_fract_x
 _atom_site_fract_y
 _atom_site_fract_z
 _atom_site_occupancy
  Ni  Ni0  1  0.99680762  0.00209277  0.00265400  1
  Fe  Fe1  1  0.16503237  0.16739123  0.16866981  1
  Ni  Ni2  1  0.99961034  0.00062694  0.33333244  1
  Ni  Ni3  1  0.99894630  0.33328482  0.00089570  1
  Ni  Ni4  1  0.16731363  0.49866810  0.16873462  1
  Ni  Ni5  1  1.00010545  0.33375913  0.33419519  1
  Cr  Cr6  1  0.99749393  0.66692106  0.00144427  1
  Ni  Ni7  1  0.16607823  0.83469663  0.17110434  1
  Ni  Ni8  1  0.00167956  0.66666032  0.33425608  1
  Cr  Cr9  1  0.33526096  0.00151869  0.00165357  1
  Fe  Fe10  1  0.50284139  0.16770641  0.16840057  1
  Ni  Ni11  1  0.33391542  0.00042966  0.33458891  1
  Ni  Ni12  1  0.33342556  0.33346338  0.00204551  1
  Ni  Ni13  1  0.49997813  0.49871617  0.16730372  1
  Ni  Ni14  1  0.33251612  0.33261692  0.33258965  1
  Cr  Cr15  1  0.33429141  0.66655640  0.00172719  1
  Ni  Ni16  1  0.50098995  0.83438806  0.16788356  1
  Ni  Ni17  1  0.33163956  0.66785099  0.33271896  1
  Ni  Ni18  1  0.66908653  0.00037434  0.99993239  1
  Ni  Ni19  1  0.83399073  0.16661922  0.16719584  1
  Ni  Ni20  1  0.66719577  0.00168068  0.33412519  1
  Ni  Ni21  1  0.66863101  0.33263619  0.00076484  1
  Ni  Ni22  1  0.83372261  0.49758841  0.16749116  1
  Ni  Ni23  1  0.66861660  0.33097877  0.33401086  1
  Ni  Ni24  1  0.66823387  0.66777780  0.00160164  1
  Ni  Ni25  1  0.83384869  0.83688407  0.16666250  1
  Cr  Cr26  1  0.66969512  0.66819742  0.33122183  1
  Ni  Ni27  1  0.16544712  0.16654683  0.49836474  1
  Ni  Ni28  1  0.99800231  0.00161364  0.66511275  1
  Cr  Cr29  1  0.16345835  0.16737369  0.83576641  1
  Ni  Ni30  1  0.16520634  0.50017877  0.49957844  1
  Ni  Ni31  1  0.99796103  0.33386158  0.66626864  1
  Ni  Ni32  1  0.16462158  0.49911233  0.83282114  1
  Fe  Fe33  1  0.16613766  0.83480610  0.49927288  1
  Fe  Fe34  1  0.99778474  0.66646698  0.66533079  1
  Cr  Cr35  1  0.16500950  0.83409575  0.82989719  1
  Ni  Ni36  1  0.50132729  0.16401764  0.49887432  1
  Ni  Ni37  1  0.33502834  0.99838169  0.66480101  1
  Ni  Ni38  1  0.50363636  0.16525261  0.83383333  1
  Cr  Cr39  1  0.50145315  0.50058242  0.49878270  1
  Cr  Cr40  1  0.33261380  0.33085715  0.66677962  1
  Cr  Cr41  1  0.50186503  0.50035180  0.83384982  1
  Ni  Ni42  1  0.50015136  0.83594591  0.50114984  1
  Ni  Ni43  1  0.33328018  0.66900067  0.66563271  1
  Ni  Ni44  1  0.50337500  0.83542867  0.83170359  1
  Ni  Ni45  1  0.83447695  0.16618089  0.50015592  1
  Ni  Ni46  1  0.66761929  0.99984879  0.66691698  1
  Ni  Ni47  1  0.83222270  0.16662513  0.83364900  1
  Ni  Ni48  1  0.83655046  0.49925923  0.50051069  1
  Ni  Ni49  1  0.67135262  0.33193016  0.66603167  1
  Ni  Ni50  1  0.83417861  0.49907095  0.83290791  1
  Ni  Ni51  1  0.83358385  0.83550687  0.50033203  1
  Ni  Ni52  1  0.66869338  0.66899935  0.66745107  1
  Ni  Ni53  1  0.83103441  0.83563810  0.83403873  1
" 