5214,Ni76Fe6Cr17_10,-233.132541523501, 165.857290696533,Ni76Fe6Cr17,"# generated using pymatgen
 data_Cr10Fe3Ni41
_symmetry_space_group_name_H-M   'P 1'
_cell_length_a   7.46579638
_cell_length_b   7.46579638
_cell_length_c   10.55823050
_cell_angle_alpha   90.00000000
_cell_angle_beta   90.00000000
_cell_angle_gamma   90.00000000
_symmetry_Int_Tables_number   1
_chemical_formula_structural   Cr10Fe3Ni41
_chemical_formula_sum   'Cr10 Fe3 Ni41'
_cell_volume   588.49587213
_cell_formula_units_Z   1
loop_
 _symmetry_equiv_pos_site_id
 _symmetry_equiv_pos_as_xyz
  1  'x, y, z'
loop_
 _atom_site_type_symbol
 _atom_site_label
 _atom_site_symmetry_multiplicity
 _atom_site_fract_x
 _atom_site_fract_y
 _atom_site_fract_z
 _atom_site_occupancy
  Cr  Cr0  1  0.00173468  0.00059781  0.99992116  1
  Ni  Ni1  1  0.16792134  0.16877265  0.16603641  1
  Cr  Cr2  1  0.99887221  0.00225244  0.33120743  1
  Ni  Ni3  1  1.00007790  0.33521298  0.00050316  1
  Ni  Ni4  1  0.16588611  0.49986519  0.16637789  1
  Ni  Ni5  1  0.00008678  0.33432050  0.33358808  1
  Ni  Ni6  1  0.99982923  0.66508397  0.00038535  1
  Ni  Ni7  1  0.16680610  0.83161299  0.16480133  1
  Ni  Ni8  1  0.99892829  0.66334301  0.33185052  1
  Ni  Ni9  1  0.33259671  0.00063103  0.00109998  1
  Ni  Ni10  1  0.49986877  0.16784159  0.16665861  1
  Cr  Cr11  1  0.33513664  0.00218870  0.33248101  1
  Ni  Ni12  1  0.33278750  0.33284100  0.00130272  1
  Ni  Ni13  1  0.49995654  0.49884780  0.16491652  1
  Ni  Ni14  1  0.33272994  0.33304918  0.33377291  1
  Ni  Ni15  1  0.33236260  0.66677956  0.00270398  1
  Ni  Ni16  1  0.49996641  0.83356365  0.16529453  1
  Cr  Cr17  1  0.33364177  0.66439578  0.33292610  1
  Cr  Cr18  1  0.66636281  0.00052931  0.00113286  1
  Ni  Ni19  1  0.83245905  0.16876463  0.16808353  1
  Fe  Fe20  1  0.66621729  0.00252447  0.33282739  1
  Ni  Ni21  1  0.66738624  0.33498090  0.00135809  1
  Ni  Ni22  1  0.83440794  0.49996288  0.16576341  1
  Fe  Fe23  1  0.66714061  0.33245843  0.33341986  1
  Ni  Ni24  1  0.66806000  0.66488954  0.00202142  1
  Ni  Ni25  1  0.83347821  0.83152601  0.16692096  1
  Cr  Cr26  1  0.66686910  0.66623345  0.33251901  1
  Ni  Ni27  1  0.16728250  0.17046603  0.50169944  1
  Ni  Ni28  1  0.99987185  0.00234208  0.66838804  1
  Ni  Ni29  1  0.16728205  0.16704602  0.83251429  1
  Ni  Ni30  1  0.16645036  0.49744746  0.50041171  1
  Ni  Ni31  1  0.99987415  0.33225966  0.66616059  1
  Ni  Ni32  1  0.16456762  0.50014514  0.83346332  1
  Cr  Cr33  1  0.16748499  0.83246568  0.50254615  1
  Fe  Fe34  1  1.00008269  0.66499478  0.66860952  1
  Ni  Ni35  1  0.16548310  0.83305927  0.83280955  1
  Ni  Ni36  1  0.50072938  0.16763915  0.50091308  1
  Ni  Ni37  1  0.33322095  0.00100150  0.66661932  1
  Ni  Ni38  1  0.49922628  0.16723784  0.83267793  1
  Ni  Ni39  1  0.49970842  0.49842246  0.50177452  1
  Ni  Ni40  1  0.33229681  0.33267850  0.66517717  1
  Cr  Cr41  1  0.50031260  0.49813461  0.83421447  1
  Ni  Ni42  1  0.50083098  0.83419138  0.50263293  1
  Ni  Ni43  1  0.33388762  0.66657152  0.66488635  1
  Cr  Cr44  1  0.49921972  0.83435934  0.83253285  1
  Ni  Ni45  1  0.83223844  0.16934496  0.50076337  1
  Ni  Ni46  1  0.66715822  0.00075086  0.66558654  1
  Ni  Ni47  1  0.83374255  0.16815752  0.83140181  1
  Ni  Ni48  1  0.83409218  0.49755060  0.50077479  1
  Ni  Ni49  1  0.66808054  0.33292744  0.66531039  1
  Ni  Ni50  1  0.83534906  0.50014321  0.83371368  1
  Cr  Cr51  1  0.83219349  0.83359626  0.50161798  1
  Ni  Ni52  1  0.66674293  0.66657340  0.66575521  1
  Ni  Ni53  1  0.83554481  0.83194896  0.83169584  1
" 