4117,Ni76Fe8Cr15_16,-234.119967976979, 171.591613944377,Ni76Fe8Cr15,"# generated using pymatgen
 data_Cr9Fe4Ni41
_symmetry_space_group_name_H-M   'P 1'
_cell_length_a   7.45742867
_cell_length_b   7.45742867
_cell_length_c   10.54639677
_cell_angle_alpha   90.00000000
_cell_angle_beta   90.00000000
_cell_angle_gamma   90.00000000
_symmetry_Int_Tables_number   1
_chemical_formula_structural   Cr9Fe4Ni41
_chemical_formula_sum   'Cr9 Fe4 Ni41'
_cell_volume   586.51931970
_cell_formula_units_Z   1
loop_
 _symmetry_equiv_pos_site_id
 _symmetry_equiv_pos_as_xyz
  1  'x, y, z'
loop_
 _atom_site_type_symbol
 _atom_site_label
 _atom_site_symmetry_multiplicity
 _atom_site_fract_x
 _atom_site_fract_y
 _atom_site_fract_z
 _atom_site_occupancy
  Ni  Ni0  1  0.00171610  0.99832702  0.00226006  1
  Ni  Ni1  1  0.16910323  0.16402990  0.16759066  1
  Ni  Ni2  1  0.00105814  0.99844958  0.33301090  1
  Cr  Cr3  1  0.99931065  0.33361282  0.00083530  1
  Cr  Cr4  1  0.16794693  0.50109227  0.16800511  1
  Cr  Cr5  1  0.00135123  0.33291383  0.33493761  1
  Ni  Ni6  1  0.99844626  0.66980989  0.99920799  1
  Ni  Ni7  1  0.16596812  0.83700640  0.16748698  1
  Ni  Ni8  1  0.99940992  0.67025823  0.33480509  1
  Ni  Ni9  1  0.33281166  0.00148277  0.00103206  1
  Ni  Ni10  1  0.49857536  0.16785106  0.16700733  1
  Ni  Ni11  1  0.33386291  0.00068401  0.33382443  1
  Ni  Ni12  1  0.33710219  0.33242946  0.00100366  1
  Ni  Ni13  1  0.50241815  0.49982308  0.16712075  1
  Ni  Ni14  1  0.33478231  0.33277628  0.33414074  1
  Cr  Cr15  1  0.33494521  0.66807355  0.99973490  1
  Ni  Ni16  1  0.50062550  0.83426089  0.16938702  1
  Fe  Fe17  1  0.33511534  0.66907402  0.33501659  1
  Cr  Cr18  1  0.66739848  1.00052726  1.00043054  1
  Ni  Ni19  1  0.83425746  0.16581330  0.16727070  1
  Ni  Ni20  1  0.66701668  0.99817176  0.33442400  1
  Ni  Ni21  1  0.66562067  0.33569845  1.00046362  1
  Ni  Ni22  1  0.83151733  0.50295920  0.16617272  1
  Cr  Cr23  1  0.66583113  0.33427670  0.33332497  1
  Ni  Ni24  1  0.66877657  0.66551769  0.00100406  1
  Ni  Ni25  1  0.83533958  0.83316222  0.16843958  1
  Ni  Ni26  1  0.66746057  0.66933958  0.33334543  1
  Fe  Fe27  1  0.16880049  0.16714107  0.49992181  1
  Cr  Cr28  1  0.99876304  0.99988879  0.66692743  1
  Cr  Cr29  1  0.16894929  0.16726823  0.83469306  1
  Fe  Fe30  1  0.16788884  0.50171009  0.50222136  1
  Ni  Ni31  1  1.00020211  0.33609076  0.66637586  1
  Ni  Ni32  1  0.16706180  0.50257825  0.83143380  1
  Ni  Ni33  1  0.16767095  0.83296619  0.49986199  1
  Ni  Ni34  1  0.00295598  0.66570014  0.66792000  1
  Ni  Ni35  1  0.16698572  0.83197401  0.83458361  1
  Ni  Ni36  1  0.50010987  0.16710290  0.50177054  1
  Fe  Fe37  1  0.33649909  0.99970496  0.66674983  1
  Ni  Ni38  1  0.50139631  0.16845461  0.83315252  1
  Ni  Ni39  1  0.49910510  0.49983964  0.50030303  1
  Ni  Ni40  1  0.33477676  0.33552934  0.66679161  1
  Ni  Ni41  1  0.50061004  0.49876008  0.83450973  1
  Ni  Ni42  1  0.49932987  0.83499534  0.49986528  1
  Ni  Ni43  1  0.33232562  0.66656563  0.66710785  1
  Ni  Ni44  1  0.49960787  0.83472181  0.83268226  1
  Ni  Ni45  1  0.83305658  0.16702337  0.50181243  1
  Ni  Ni46  1  0.66608851  0.00259646  0.66704334  1
  Ni  Ni47  1  0.83152158  0.16838133  0.83285020  1
  Ni  Ni48  1  0.83508249  0.50093741  0.50151758  1
  Ni  Ni49  1  0.66695922  0.33181767  0.66779591  1
  Ni  Ni50  1  0.83426309  0.50079425  0.83424597  1
  Ni  Ni51  1  0.83493565  0.83397690  0.49861499  1
  Cr  Cr52  1  0.66677307  0.66812480  0.66790711  1
  Ni  Ni53  1  0.83533926  0.83276060  0.83488394  1
" 