5117,Ni76Fe22Cr0_11,-242.087421913977, 208.724767313983,Ni76Fe22Cr0,"# generated using pymatgen
 data_CrFe12Ni41
_symmetry_space_group_name_H-M   'P 1'
_cell_length_a   7.42091683
_cell_length_b   7.42091683
_cell_length_c   10.49476123
_cell_angle_alpha   90.00000000
_cell_angle_beta   90.00000000
_cell_angle_gamma   90.00000000
_symmetry_Int_Tables_number   1
_chemical_formula_structural   CrFe12Ni41
_chemical_formula_sum   'Cr1 Fe12 Ni41'
_cell_volume   577.94657043
_cell_formula_units_Z   1
loop_
 _symmetry_equiv_pos_site_id
 _symmetry_equiv_pos_as_xyz
  1  'x, y, z'
loop_
 _atom_site_type_symbol
 _atom_site_label
 _atom_site_symmetry_multiplicity
 _atom_site_fract_x
 _atom_site_fract_y
 _atom_site_fract_z
 _atom_site_occupancy
  Ni  Ni0  1  0.00372709  0.00369476  0.00400917  1
  Ni  Ni1  1  0.16791882  0.17006141  0.16953638  1
  Fe  Fe2  1  1.00240804  0.00441178  0.33618902  1
  Ni  Ni3  1  1.00293126  0.33593804  1.00301783  1
  Fe  Fe4  1  0.16914412  0.50321561  0.16972635  1
  Ni  Ni5  1  0.00375131  0.33611211  0.33649099  1
  Ni  Ni6  1  0.00372337  0.66969157  1.00302444  1
  Ni  Ni7  1  0.16962334  0.83618063  0.17054965  1
  Fe  Fe8  1  1.00264346  0.66971093  0.33638647  1
  Ni  Ni9  1  0.33531623  1.00151446  1.00190329  1
  Cr  Cr10  1  0.50354604  0.16989062  0.17037708  1
  Ni  Ni11  1  0.33579369  1.00239311  0.33774638  1
  Fe  Fe12  1  0.33554486  0.33700180  1.00168970  1
  Fe  Fe13  1  0.50363026  0.50507973  0.16989864  1
  Ni  Ni14  1  0.33467573  0.33650668  0.33682370  1
  Ni  Ni15  1  0.33644534  0.67074604  0.00391605  1
  Ni  Ni16  1  0.50354520  0.83420466  0.16930587  1
  Fe  Fe17  1  0.33774630  0.66941485  0.33664893  1
  Ni  Ni18  1  0.67028044  1.00230887  1.00269828  1
  Ni  Ni19  1  0.83815786  0.16950222  0.16957815  1
  Ni  Ni20  1  0.66983149  1.00157390  0.33690847  1
  Ni  Ni21  1  0.67133984  0.33706680  1.00254596  1
  Fe  Fe22  1  0.83655109  0.50315765  0.16914136  1
  Ni  Ni23  1  0.67089841  0.33727227  0.33766239  1
  Ni  Ni24  1  0.66915517  0.66995016  0.00311542  1
  Ni  Ni25  1  0.83615473  0.83644018  0.16970885  1
  Ni  Ni26  1  0.66943901  0.67048040  0.33619371  1
  Ni  Ni27  1  0.16919890  0.17121990  0.50277758  1
  Ni  Ni28  1  1.00289895  0.00326034  0.66953868  1
  Ni  Ni29  1  0.17000626  0.17003992  0.83701032  1
  Ni  Ni30  1  0.17114492  0.50203401  0.50315025  1
  Ni  Ni31  1  0.00375394  0.33621258  0.66981343  1
  Ni  Ni32  1  0.17040759  0.50330443  0.83666423  1
  Fe  Fe33  1  0.16983027  0.83637867  0.50357361  1
  Ni  Ni34  1  0.00372242  0.66985185  0.66979304  1
  Ni  Ni35  1  0.16901574  0.83598055  0.83601186  1
  Fe  Fe36  1  0.50327564  0.16994381  0.50303545  1
  Fe  Fe37  1  0.33614871  0.00333964  0.66994078  1
  Ni  Ni38  1  0.50328700  0.17083863  0.83581581  1
  Ni  Ni39  1  0.50216401  0.50371056  0.50253199  1
  Ni  Ni40  1  0.33588314  0.33706775  0.66994957  1
  Ni  Ni41  1  0.50295324  0.50257723  0.83689270  1
  Ni  Ni42  1  0.50437315  0.83521369  0.50298446  1
  Ni  Ni43  1  0.33621090  0.66929473  0.66921482  1
  Fe  Fe44  1  0.50321579  0.83629070  0.83675210  1
  Ni  Ni45  1  0.83687439  0.16900814  0.50273776  1
  Ni  Ni46  1  0.67024637  1.00293159  0.66971618  1
  Ni  Ni47  1  0.83603185  0.16944625  0.83700974  1
  Fe  Fe48  1  0.83627791  0.50294462  0.50356518  1
  Ni  Ni49  1  0.66968701  0.33624389  0.66911302  1
  Ni  Ni50  1  0.83596401  0.50356497  0.83582661  1
  Ni  Ni51  1  0.83519417  0.83715924  0.50276739  1
  Ni  Ni52  1  0.66939120  0.67014859  0.67001196  1
  Ni  Ni53  1  0.83676058  0.83631306  0.83684950  1
" 