4304,Ni76Fe16Cr7_12,-238.211748933028, 192.331656694552,Ni76Fe16Cr7,"# generated using pymatgen
 data_Cr5Fe8Ni41
_symmetry_space_group_name_H-M   'P 1'
_cell_length_a   7.43791252
_cell_length_b   7.43791252
_cell_length_c   10.51879677
_cell_angle_alpha   90.00000000
_cell_angle_beta   90.00000000
_cell_angle_gamma   90.00000000
_symmetry_Int_Tables_number   1
_chemical_formula_structural   Cr5Fe8Ni41
_chemical_formula_sum   'Cr5 Fe8 Ni41'
_cell_volume   581.92658315
_cell_formula_units_Z   1
loop_
 _symmetry_equiv_pos_site_id
 _symmetry_equiv_pos_as_xyz
  1  'x, y, z'
loop_
 _atom_site_type_symbol
 _atom_site_label
 _atom_site_symmetry_multiplicity
 _atom_site_fract_x
 _atom_site_fract_y
 _atom_site_fract_z
 _atom_site_occupancy
  Fe  Fe0  1  1.00190262  0.00512339  1.00094888  1
  Ni  Ni1  1  0.16761981  0.17021626  0.16939681  1
  Ni  Ni2  1  0.00361583  0.00323364  0.33462034  1
  Ni  Ni3  1  1.00068260  0.33412738  0.00232723  1
  Ni  Ni4  1  0.16954950  0.50044161  0.16821296  1
  Ni  Ni5  1  0.99979440  0.33605618  0.33500586  1
  Cr  Cr6  1  0.00461003  0.66716176  1.00148786  1
  Fe  Fe7  1  0.17077908  0.83490939  0.17078918  1
  Ni  Ni8  1  0.00430893  0.66658474  0.33496675  1
  Cr  Cr9  1  0.33607001  1.00099874  0.00222114  1
  Ni  Ni10  1  0.50223153  0.16938532  0.16907061  1
  Ni  Ni11  1  0.33607550  1.00006249  0.33573099  1
  Ni  Ni12  1  0.33589720  0.33635257  0.00251350  1
  Ni  Ni13  1  0.50053204  0.50150355  0.16866503  1
  Fe  Fe14  1  0.33474749  0.33472756  0.33517047  1
  Ni  Ni15  1  0.33539369  0.66802440  0.00217979  1
  Ni  Ni16  1  0.50089911  0.83498617  0.16987936  1
  Ni  Ni17  1  0.33468267  0.67045727  0.33407068  1
  Fe  Fe18  1  0.66847893  0.00469354  1.00131852  1
  Ni  Ni19  1  0.83602357  0.16984920  0.16749346  1
  Ni  Ni20  1  0.66618628  0.00457497  0.33429519  1
  Ni  Ni21  1  0.66929497  0.33362330  0.00232827  1
  Ni  Ni22  1  0.83579344  0.49911157  0.17065223  1
  Ni  Ni23  1  0.67005623  0.33466407  0.33467867  1
  Cr  Cr24  1  0.66608219  0.66715557  1.00148404  1
  Cr  Cr25  1  0.83493143  0.83668624  0.17049089  1
  Fe  Fe26  1  0.66727581  0.66730863  0.33493642  1
  Ni  Ni27  1  0.16865024  0.16860450  0.50196265  1
  Ni  Ni28  1  0.00268269  1.00194684  0.66987780  1
  Ni  Ni29  1  0.16815245  0.16890748  0.83451750  1
  Ni  Ni30  1  0.16837450  0.50161576  0.50273914  1
  Ni  Ni31  1  1.00072572  0.33605907  0.66853891  1
  Fe  Fe32  1  0.17009323  0.50166208  0.83453991  1
  Ni  Ni33  1  0.16990465  0.83565439  0.50147081  1
  Ni  Ni34  1  0.00325898  0.66787063  0.66953423  1
  Ni  Ni35  1  0.16773696  0.83605566  0.83419934  1
  Ni  Ni36  1  0.50138057  0.16860494  0.50196125  1
  Ni  Ni37  1  0.33601892  1.00081116  0.66796637  1
  Ni  Ni38  1  0.50169555  0.16974126  0.83484534  1
  Ni  Ni39  1  0.50182981  0.50178855  0.50195741  1
  Ni  Ni40  1  0.33607744  0.33529376  0.66863214  1
  Ni  Ni41  1  0.50167389  0.50114576  0.83525539  1
  Ni  Ni42  1  0.50029890  0.83548156  0.50224709  1
  Ni  Ni43  1  0.33467976  0.66977133  0.66962507  1
  Ni  Ni44  1  0.50234335  0.83498854  0.83375116  1
  Ni  Ni45  1  0.83584306  0.17013444  0.50219318  1
  Ni  Ni46  1  0.66717176  0.00334415  0.67020362  1
  Fe  Fe47  1  0.83474778  0.16844034  0.83494012  1
  Ni  Ni48  1  0.83566998  0.50053348  0.50141378  1
  Ni  Ni49  1  0.66907212  0.33471953  0.66886534  1
  Ni  Ni50  1  0.83495990  0.50156546  0.83380961  1
  Cr  Cr51  1  0.83560349  0.83525681  0.50208763  1
  Fe  Fe52  1  0.66780483  0.66766509  0.66999195  1
  Ni  Ni53  1  0.83579643  0.83607979  0.83369996  1
" 