608,Ni76Fe6Cr17_13,-233.27501241294, 168.953739938094,Ni76Fe6Cr17,"# generated using pymatgen
 data_Cr10Fe3Ni41
_symmetry_space_group_name_H-M   'P 1'
_cell_length_a   7.46185597
_cell_length_b   7.46185597
_cell_length_c   10.55265791
_cell_angle_alpha   90.00000000
_cell_angle_beta   90.00000000
_cell_angle_gamma   90.00000000
_symmetry_Int_Tables_number   1
_chemical_formula_structural   Cr10Fe3Ni41
_chemical_formula_sum   'Cr10 Fe3 Ni41'
_cell_volume   587.56454752
_cell_formula_units_Z   1
loop_
 _symmetry_equiv_pos_site_id
 _symmetry_equiv_pos_as_xyz
  1  'x, y, z'
loop_
 _atom_site_type_symbol
 _atom_site_label
 _atom_site_symmetry_multiplicity
 _atom_site_fract_x
 _atom_site_fract_y
 _atom_site_fract_z
 _atom_site_occupancy
  Ni  Ni0  1  1.00025795  0.99998635  0.00218440  1
  Ni  Ni1  1  0.16498466  0.16532211  0.16565573  1
  Ni  Ni2  1  0.00175213  0.00213278  0.33381328  1
  Ni  Ni3  1  0.00421555  0.33362703  0.00205286  1
  Ni  Ni4  1  0.16586428  0.50101544  0.16500496  1
  Ni  Ni5  1  0.99922404  0.33089296  0.33277920  1
  Ni  Ni6  1  0.00044079  0.66743090  0.00124606  1
  Ni  Ni7  1  0.16880769  0.83470602  0.16651062  1
  Cr  Cr8  1  0.00135003  0.66822939  0.33324328  1
  Ni  Ni9  1  0.33349067  0.00231851  0.00204998  1
  Ni  Ni10  1  0.50027494  0.16555802  0.16565516  1
  Ni  Ni11  1  0.33189625  0.99880467  0.33386469  1
  Ni  Ni12  1  0.33185877  0.33362552  0.99930550  1
  Ni  Ni13  1  0.50175855  0.50314204  0.16690125  1
  Cr  Cr14  1  0.33423741  0.33389799  0.33333979  1
  Ni  Ni15  1  0.33330488  0.66510020  0.00223171  1
  Ni  Ni16  1  0.49857728  0.83234325  0.16650946  1
  Ni  Ni17  1  0.33540765  0.66847806  0.33384231  1
  Ni  Ni18  1  0.66729540  0.99854117  0.00124723  1
  Ni  Ni19  1  0.83578364  0.16850381  0.16775547  1
  Cr  Cr20  1  0.66727496  0.00073345  0.33407157  1
  Cr  Cr21  1  0.66416610  0.33346578  0.00223280  1
  Ni  Ni22  1  0.83342098  0.49931855  0.16713910  1
  Ni  Ni23  1  0.66785474  0.33440402  0.33305384  1
  Ni  Ni24  1  0.66729764  0.66906142  0.00198700  1
  Fe  Fe25  1  0.83362209  0.83362597  0.16549165  1
  Ni  Ni26  1  0.66452813  0.66594879  0.33276151  1
  Ni  Ni27  1  0.16623077  0.16532080  0.50046396  1
  Cr  Cr28  1  0.99966590  0.99973698  0.66517333  1
  Ni  Ni29  1  0.16887451  0.16920763  0.83492478  1
  Fe  Fe30  1  0.16867022  0.50040113  0.50228807  1
  Ni  Ni31  1  0.00291972  0.33470510  0.66620800  1
  Ni  Ni32  1  0.16762451  0.49901661  0.83320772  1
  Ni  Ni33  1  0.16919978  0.83469565  0.50008987  1
  Ni  Ni34  1  0.00086657  0.66625871  0.66674993  1
  Cr  Cr35  1  0.16749104  0.83322922  0.83467828  1
  Ni  Ni36  1  0.50044392  0.16640952  0.50282971  1
  Ni  Ni37  1  0.33570292  0.00249254  0.66512955  1
  Ni  Ni38  1  0.49826807  0.16731780  0.83255807  1
  Ni  Ni39  1  0.50097320  0.50208847  0.50128668  1
  Ni  Ni40  1  0.33415774  0.33395650  0.66810166  1
  Ni  Ni41  1  0.49869547  0.50008300  0.83285597  1
  Ni  Ni42  1  0.49853847  0.83254654  0.50115085  1
  Ni  Ni43  1  0.33379266  0.66459428  0.66496826  1
  Cr  Cr44  1  0.50076436  0.83390814  0.83348890  1
  Ni  Ni45  1  0.83436943  0.16775332  0.50008794  1
  Ni  Ni46  1  0.66563471  0.00044071  0.66576690  1
  Cr  Cr47  1  0.83383993  0.16685829  0.83310341  1
  Cr  Cr48  1  0.83220273  0.49833546  0.50086586  1
  Ni  Ni49  1  0.66396974  0.33279521  0.66575296  1
  Cr  Cr50  1  0.83451860  0.50171271  0.83260458  1
  Ni  Ni51  1  0.83330481  0.83416645  0.50213412  1
  Ni  Ni52  1  0.66638536  0.66780810  0.66629634  1
  Fe  Fe53  1  0.83273308  0.83273236  0.83408936  1
" 