4037,Ni76Fe7Cr15_9,-234.244329438651, 172.700266794594,Ni76Fe7Cr15,"# generated using pymatgen
 data_Cr9Fe4Ni41
_symmetry_space_group_name_H-M   'P 1'
_cell_length_a   7.45900245
_cell_length_b   7.45900245
_cell_length_c   10.54862243
_cell_angle_alpha   90.00000000
_cell_angle_beta   90.00000000
_cell_angle_gamma   90.00000000
_symmetry_Int_Tables_number   1
_chemical_formula_structural   Cr9Fe4Ni41
_chemical_formula_sum   'Cr9 Fe4 Ni41'
_cell_volume   586.89072630
_cell_formula_units_Z   1
loop_
 _symmetry_equiv_pos_site_id
 _symmetry_equiv_pos_as_xyz
  1  'x, y, z'
loop_
 _atom_site_type_symbol
 _atom_site_label
 _atom_site_symmetry_multiplicity
 _atom_site_fract_x
 _atom_site_fract_y
 _atom_site_fract_z
 _atom_site_occupancy
  Ni  Ni0  1  0.00111496  1.00043031  1.00004584  1
  Ni  Ni1  1  0.16915326  0.16662617  0.16786349  1
  Ni  Ni2  1  0.00369783  0.99873879  0.33514698  1
  Ni  Ni3  1  1.00021276  0.33528042  0.00056106  1
  Ni  Ni4  1  0.16782449  0.50044106  0.16489382  1
  Cr  Cr5  1  0.00140264  0.33485053  0.33518719  1
  Fe  Fe6  1  0.00326745  0.66559322  0.99969176  1
  Ni  Ni7  1  0.16756758  0.83454864  0.16681048  1
  Ni  Ni8  1  0.99937659  0.66801906  0.33351933  1
  Cr  Cr9  1  0.33349954  0.99866419  0.00208350  1
  Ni  Ni10  1  0.49774388  0.16988737  0.16780605  1
  Ni  Ni11  1  0.33252522  0.00170059  0.33318113  1
  Ni  Ni12  1  0.33391699  0.33721559  0.00205057  1
  Ni  Ni13  1  0.50068293  0.49879569  0.16742548  1
  Ni  Ni14  1  0.33563505  0.33218061  0.33326660  1
  Ni  Ni15  1  0.33230408  0.66553023  0.00056851  1
  Ni  Ni16  1  0.49768490  0.83293782  0.16802048  1
  Cr  Cr17  1  0.33391095  0.66724629  0.33318969  1
  Cr  Cr18  1  0.66729792  0.00188619  0.99868700  1
  Cr  Cr19  1  0.83473557  0.16942850  0.16592518  1
  Cr  Cr20  1  0.66526321  0.00055921  0.33456565  1
  Ni  Ni21  1  0.66748920  0.33494950  1.00037545  1
  Ni  Ni22  1  0.83311070  0.50037879  0.16724811  1
  Ni  Ni23  1  0.66510967  0.33650285  0.33363594  1
  Cr  Cr24  1  0.66567924  0.66541674  1.00011180  1
  Cr  Cr25  1  0.83613446  0.83181346  0.16872455  1
  Ni  Ni26  1  0.66806869  0.66491249  0.33467379  1
  Ni  Ni27  1  0.16751105  0.16560922  0.50042123  1
  Ni  Ni28  1  0.99910814  0.99949057  0.66642525  1
  Cr  Cr29  1  0.16569497  0.16784820  0.83289451  1
  Ni  Ni30  1  0.16686620  0.50050849  0.50254106  1
  Ni  Ni31  1  0.99921689  0.33510104  0.66654157  1
  Ni  Ni32  1  0.16767336  0.50221328  0.83418339  1
  Ni  Ni33  1  0.16670029  0.83549826  0.50101788  1
  Ni  Ni34  1  0.00149254  0.66702412  0.66782864  1
  Ni  Ni35  1  0.16664812  0.83189297  0.83378778  1
  Ni  Ni36  1  0.49994404  0.16777884  0.50125443  1
  Ni  Ni37  1  0.33532922  0.99870204  0.66613863  1
  Fe  Fe38  1  0.50249089  0.16903906  0.83212223  1
  Ni  Ni39  1  0.50202446  0.49977721  0.50068998  1
  Ni  Ni40  1  0.33475923  0.33543158  0.66629832  1
  Ni  Ni41  1  0.50007051  0.50057992  0.83350377  1
  Ni  Ni42  1  0.50002300  0.83405982  0.50183014  1
  Ni  Ni43  1  0.33327132  0.66748722  0.66800400  1
  Ni  Ni44  1  0.50000442  0.83242994  0.83176577  1
  Ni  Ni45  1  0.83416621  0.16761262  0.50229660  1
  Ni  Ni46  1  0.66718123  0.00097957  0.66806465  1
  Ni  Ni47  1  0.83333291  0.16758038  0.83366513  1
  Ni  Ni48  1  0.83272741  0.50058604  0.50056039  1
  Ni  Ni49  1  0.66764372  0.33303974  0.66760650  1
  Ni  Ni50  1  0.83387727  0.49914945  0.83381167  1
  Fe  Fe51  1  0.83512729  0.83324775  0.50129704  1
  Fe  Fe52  1  0.66685925  0.66703293  0.66720785  1
  Ni  Ni53  1  0.83496806  0.83488719  0.83210392  1
" 