8905,Ni76Fe6Cr17_2,-233.159867764389, 167.120723375061,Ni76Fe6Cr17,"# generated using pymatgen
 data_Cr10Fe3Ni41
_symmetry_space_group_name_H-M   'P 1'
_cell_length_a   7.46578927
_cell_length_b   7.46578927
_cell_length_c   10.55822044
_cell_angle_alpha   90.00000000
_cell_angle_beta   90.00000000
_cell_angle_gamma   90.00000000
_symmetry_Int_Tables_number   1
_chemical_formula_structural   Cr10Fe3Ni41
_chemical_formula_sum   'Cr10 Fe3 Ni41'
_cell_volume   588.49419092
_cell_formula_units_Z   1
loop_
 _symmetry_equiv_pos_site_id
 _symmetry_equiv_pos_as_xyz
  1  'x, y, z'
loop_
 _atom_site_type_symbol
 _atom_site_label
 _atom_site_symmetry_multiplicity
 _atom_site_fract_x
 _atom_site_fract_y
 _atom_site_fract_z
 _atom_site_occupancy
  Ni  Ni0  1  0.99885264  0.00034033  0.00029405  1
  Cr  Cr1  1  0.16406469  0.16634662  0.16528260  1
  Ni  Ni2  1  0.99800061  0.99847501  0.33324055  1
  Ni  Ni3  1  0.99858118  0.33356382  0.99996061  1
  Ni  Ni4  1  0.16634954  0.50093663  0.16574706  1
  Ni  Ni5  1  0.99781706  0.33553187  0.33365869  1
  Cr  Cr6  1  0.00073180  0.66653467  0.99973845  1
  Ni  Ni7  1  0.16708831  0.83287830  0.16621723  1
  Ni  Ni8  1  0.99800273  0.66624328  0.33385217  1
  Ni  Ni9  1  0.33538034  0.99855487  0.00020939  1
  Ni  Ni10  1  0.50347091  0.16655935  0.16511667  1
  Cr  Cr11  1  0.33463383  0.99983963  0.33471237  1
  Ni  Ni12  1  0.33450705  0.33420285  0.00110920  1
  Ni  Ni13  1  0.50185379  0.50102828  0.16534611  1
  Cr  Cr14  1  0.33400550  0.33302616  0.33381545  1
  Ni  Ni15  1  0.33390724  0.66749425  0.00118609  1
  Ni  Ni16  1  0.50099436  0.83266444  0.16511345  1
  Cr  Cr17  1  0.33215024  0.66738688  0.33201382  1
  Ni  Ni18  1  0.66601908  0.00093907  0.99995881  1
  Ni  Ni19  1  0.83226103  0.16729606  0.16685340  1
  Ni  Ni20  1  0.66767046  0.99981016  0.33286738  1
  Ni  Ni21  1  0.66716511  0.33209158  0.00147504  1
  Ni  Ni22  1  0.83204934  0.49845675  0.16822520  1
  Ni  Ni23  1  0.66882407  0.33323028  0.33137081  1
  Ni  Ni24  1  0.66537857  0.66722222  0.00093292  1
  Fe  Fe25  1  0.83226590  0.83403756  0.16784442  1
  Ni  Ni26  1  0.66996742  0.66721264  0.33292189  1
  Ni  Ni27  1  0.16678124  0.16733527  0.50154902  1
  Ni  Ni28  1  0.00047113  0.99816399  0.66671722  1
  Cr  Cr29  1  0.16537285  0.16687418  0.83375826  1
  Ni  Ni30  1  0.16396333  0.49885983  0.50196527  1
  Ni  Ni31  1  0.00218325  0.33578108  0.66663502  1
  Ni  Ni32  1  0.16622885  0.50022899  0.83254043  1
  Fe  Fe33  1  0.16498590  0.83353336  0.50174635  1
  Ni  Ni34  1  0.00046880  0.66630706  0.66636539  1
  Ni  Ni35  1  0.16790225  0.83330887  0.83225661  1
  Ni  Ni36  1  0.49821224  0.16374180  0.50113919  1
  Ni  Ni37  1  0.33451715  0.99931640  0.66541264  1
  Fe  Fe38  1  0.50094967  0.16416720  0.83424590  1
  Cr  Cr39  1  0.50096806  0.50185318  0.50036880  1
  Ni  Ni40  1  0.33069331  0.33251501  0.66533101  1
  Cr  Cr41  1  0.49922717  0.50240333  0.83443466  1
  Ni  Ni42  1  0.50209742  0.83489982  0.50196252  1
  Ni  Ni43  1  0.33125195  0.66841973  0.66697075  1
  Ni  Ni44  1  0.50045553  0.83403568  0.83317800  1
  Cr  Cr45  1  0.83528606  0.16572110  0.49865751  1
  Ni  Ni46  1  0.66526278  0.99760479  0.66742534  1
  Ni  Ni47  1  0.83390291  0.16565464  0.83455602  1
  Ni  Ni48  1  0.83610809  0.50274931  0.49926154  1
  Cr  Cr49  1  0.66770522  0.33236362  0.66758080  1
  Ni  Ni50  1  0.83462745  0.49967749  0.83276611  1
  Ni  Ni51  1  0.83250936  0.83208048  0.49967290  1
  Ni  Ni52  1  0.66853118  0.67013025  0.66639773  1
  Ni  Ni53  1  0.83189484  0.83492079  0.83259196  1
" 