3927,Ni76Fe22Cr0_18,-242.033418748905, 209.5561749289,Ni76Fe22Cr0,"# generated using pymatgen
 data_CrFe12Ni41
_symmetry_space_group_name_H-M   'P 1'
_cell_length_a   7.42038071
_cell_length_b   7.42038071
_cell_length_c   10.49400304
_cell_angle_alpha   90.00000000
_cell_angle_beta   90.00000000
_cell_angle_gamma   90.00000000
_symmetry_Int_Tables_number   1
_chemical_formula_structural   CrFe12Ni41
_chemical_formula_sum   'Cr1 Fe12 Ni41'
_cell_volume   577.82131893
_cell_formula_units_Z   1
loop_
 _symmetry_equiv_pos_site_id
 _symmetry_equiv_pos_as_xyz
  1  'x, y, z'
loop_
 _atom_site_type_symbol
 _atom_site_label
 _atom_site_symmetry_multiplicity
 _atom_site_fract_x
 _atom_site_fract_y
 _atom_site_fract_z
 _atom_site_occupancy
  Ni  Ni0  1  1.00245080  1.00294900  0.00367449  1
  Fe  Fe1  1  0.16877635  0.16980820  0.17016809  1
  Ni  Ni2  1  1.00288730  0.00370364  0.33653090  1
  Ni  Ni3  1  1.00162879  0.33695237  0.00460510  1
  Ni  Ni4  1  0.16866795  0.50319756  0.16983725  1
  Ni  Ni5  1  1.00289314  0.33548786  0.33661157  1
  Ni  Ni6  1  0.00364568  0.66953132  1.00310553  1
  Fe  Fe7  1  0.16914515  0.83632514  0.16954751  1
  Ni  Ni8  1  1.00289291  0.67024088  0.33654107  1
  Ni  Ni9  1  0.33763143  1.00180585  0.00414536  1
  Ni  Ni10  1  0.50310783  0.16876950  0.16949067  1
  Fe  Fe11  1  0.33623622  0.00344885  0.33665660  1
  Fe  Fe12  1  0.33724501  0.33712374  0.00391516  1
  Fe  Fe13  1  0.50430382  0.50345075  0.17079671  1
  Ni  Ni14  1  0.33696795  0.33660377  0.33604164  1
  Ni  Ni15  1  0.33665870  0.67045527  1.00269857  1
  Ni  Ni16  1  0.50331645  0.83754384  0.17023150  1
  Ni  Ni17  1  0.33724918  0.66940477  0.33685422  1
  Ni  Ni18  1  0.66934801  0.00382226  0.00337761  1
  Ni  Ni19  1  0.83591846  0.17022119  0.16927746  1
  Fe  Fe20  1  0.67047796  0.00345175  0.33611201  1
  Ni  Ni21  1  0.67027163  0.33597819  1.00267590  1
  Ni  Ni22  1  0.83793757  0.50340353  0.17014631  1
  Ni  Ni23  1  0.66957293  0.33660193  0.33702734  1
  Ni  Ni24  1  0.66912826  0.66963376  0.00348530  1
  Ni  Ni25  1  0.83599491  0.83580862  0.16913575  1
  Ni  Ni26  1  0.66929420  0.66940809  0.33616194  1
  Ni  Ni27  1  0.17049420  0.16907408  0.50288977  1
  Ni  Ni28  1  1.00216334  1.00301038  0.66923171  1
  Cr  Cr29  1  0.17080930  0.16934708  0.83684045  1
  Fe  Fe30  1  0.16951556  0.50250460  0.50309894  1
  Ni  Ni31  1  1.00292294  0.33681756  0.66821629  1
  Ni  Ni32  1  0.16829719  0.50543842  0.83555240  1
  Ni  Ni33  1  0.16935009  0.83697929  0.50337973  1
  Ni  Ni34  1  0.00328303  0.66960412  0.66978501  1
  Ni  Ni35  1  0.17062095  0.83433988  0.83718055  1
  Ni  Ni36  1  0.50230061  0.17042713  0.50352266  1
  Ni  Ni37  1  0.33767287  1.00272976  0.66841058  1
  Ni  Ni38  1  0.50439304  0.16847782  0.83641765  1
  Ni  Ni39  1  0.50368472  0.50250688  0.50322411  1
  Ni  Ni40  1  0.33688324  0.33707069  0.66919344  1
  Fe  Fe41  1  0.50239937  0.50398512  0.83586352  1
  Fe  Fe42  1  0.50370399  0.83635033  0.50368700  1
  Ni  Ni43  1  0.33680314  0.66963302  0.66988273  1
  Ni  Ni44  1  0.50262526  0.83756057  0.83589068  1
  Ni  Ni45  1  0.83663788  0.17018216  0.50371020  1
  Ni  Ni46  1  0.66959909  1.00309369  0.66978268  1
  Fe  Fe47  1  0.83525935  0.16963270  0.83684716  1
  Ni  Ni48  1  0.83615773  0.50365491  0.50253077  1
  Fe  Fe49  1  0.66975198  0.33639454  0.66935442  1
  Ni  Ni50  1  0.83736439  0.50367664  0.83675633  1
  Ni  Ni51  1  0.83751032  0.83559695  0.50349847  1
  Ni  Ni52  1  0.66934705  0.67039474  0.66978713  1
  Fe  Fe53  1  0.83660421  0.83618872  0.83641750  1
" 