2270,Ni76Fe6Cr17_4,-233.095642522765, 165.199119806261,Ni76Fe6Cr17,"# generated using pymatgen
 data_Cr10Fe3Ni41
_symmetry_space_group_name_H-M   'P 1'
_cell_length_a   7.46580316
_cell_length_b   7.46580316
_cell_length_c   10.55824008
_cell_angle_alpha   90.00000000
_cell_angle_beta   90.00000000
_cell_angle_gamma   90.00000000
_symmetry_Int_Tables_number   1
_chemical_formula_structural   Cr10Fe3Ni41
_chemical_formula_sum   'Cr10 Fe3 Ni41'
_cell_volume   588.49747512
_cell_formula_units_Z   1
loop_
 _symmetry_equiv_pos_site_id
 _symmetry_equiv_pos_as_xyz
  1  'x, y, z'
loop_
 _atom_site_type_symbol
 _atom_site_label
 _atom_site_symmetry_multiplicity
 _atom_site_fract_x
 _atom_site_fract_y
 _atom_site_fract_z
 _atom_site_occupancy
  Ni  Ni0  1  0.00071879  0.00060131  0.99965707  1
  Ni  Ni1  1  0.16727936  0.16726369  0.16667627  1
  Cr  Cr2  1  0.00121072  0.00151232  0.33109735  1
  Ni  Ni3  1  0.99819556  0.33237987  0.00088927  1
  Ni  Ni4  1  0.16455766  0.50032082  0.16782915  1
  Ni  Ni5  1  0.00123472  0.33430867  0.33273816  1
  Ni  Ni6  1  0.99944853  0.66726819  0.00152539  1
  Ni  Ni7  1  0.16745119  0.83266472  0.16614156  1
  Fe  Fe8  1  0.00090596  0.66415039  0.33085502  1
  Ni  Ni9  1  0.33300823  0.99929229  0.00049105  1
  Ni  Ni10  1  0.50042301  0.16445662  0.16754780  1
  Ni  Ni11  1  0.33417292  0.00048807  0.33129125  1
  Fe  Fe12  1  0.33347384  0.33168807  1.00002587  1
  Cr  Cr13  1  0.50007998  0.49988727  0.16663767  1
  Ni  Ni14  1  0.33194681  0.33378383  0.33435860  1
  Ni  Ni15  1  0.33365123  0.66920679  0.99985238  1
  Ni  Ni16  1  0.50015988  0.83556173  0.16761831  1
  Ni  Ni17  1  0.33388379  0.66597786  0.33360091  1
  Ni  Ni18  1  0.66652304  0.00054421  0.00008922  1
  Ni  Ni19  1  0.83254841  0.16734803  0.16657662  1
  Ni  Ni20  1  0.66524205  0.99985364  0.33087805  1
  Ni  Ni21  1  0.66846042  0.33302299  0.99946964  1
  Ni  Ni22  1  0.83544552  0.50005736  0.16718448  1
  Ni  Ni23  1  0.66706877  0.33401962  0.33213196  1
  Ni  Ni24  1  0.66715045  0.66668202  0.99887079  1
  Ni  Ni25  1  0.83263907  0.83284307  0.16665032  1
  Ni  Ni26  1  0.66576526  0.66637561  0.33250335  1
  Ni  Ni27  1  0.16777076  0.16996495  0.50130157  1
  Ni  Ni28  1  0.00186964  0.00099017  0.66907050  1
  Ni  Ni29  1  0.16664698  0.16494324  0.83227250  1
  Ni  Ni30  1  0.16858246  0.49801724  0.49981762  1
  Ni  Ni31  1  0.00216930  0.33168878  0.66662328  1
  Cr  Cr32  1  0.16658045  0.50025142  0.83349321  1
  Cr  Cr33  1  0.16753705  0.83255366  0.50124023  1
  Ni  Ni34  1  0.99976188  0.66756994  0.66743755  1
  Ni  Ni35  1  0.16673254  0.83511801  0.83296022  1
  Cr  Cr36  1  0.49800636  0.16719141  0.49850884  1
  Ni  Ni37  1  0.33116749  0.00052491  0.66846834  1
  Ni  Ni38  1  0.49970555  0.16574721  0.83393919  1
  Ni  Ni39  1  0.49716099  0.50074117  0.49964413  1
  Ni  Ni40  1  0.33185037  0.33313559  0.66598332  1
  Ni  Ni41  1  0.50137583  0.50105125  0.83312304  1
  Cr  Cr42  1  0.50035544  0.83232874  0.49973729  1
  Ni  Ni43  1  0.33472305  0.66658918  0.66679594  1
  Ni  Ni44  1  0.50048436  0.83345103  0.83280515  1
  Cr  Cr45  1  0.83467693  0.16652247  0.50012118  1
  Fe  Fe46  1  0.66684993  0.99829783  0.67007289  1
  Ni  Ni47  1  0.83389704  0.16583427  0.83367084  1
  Cr  Cr48  1  0.83444984  0.50076264  0.49901876  1
  Cr  Cr49  1  0.66611608  0.33539611  0.66880277  1
  Ni  Ni50  1  0.83222963  0.50096539  0.83394301  1
  Cr  Cr51  1  0.83235726  0.83296386  0.50111409  1
  Ni  Ni52  1  0.66576523  0.66689156  0.66887428  1
  Ni  Ni53  1  0.83303293  0.83344948  0.83247325  1
" 