8436,Ni76Fe6Cr17_17,-233.140992683502, 166.965595013883,Ni76Fe6Cr17,"# generated using pymatgen
 data_Cr10Fe3Ni41
_symmetry_space_group_name_H-M   'P 1'
_cell_length_a   7.46509850
_cell_length_b   7.46509850
_cell_length_c   10.55724354
_cell_angle_alpha   90.00000000
_cell_angle_beta   90.00000000
_cell_angle_gamma   90.00000000
_symmetry_Int_Tables_number   1
_chemical_formula_structural   Cr10Fe3Ni41
_chemical_formula_sum   'Cr10 Fe3 Ni41'
_cell_volume   588.33085381
_cell_formula_units_Z   1
loop_
 _symmetry_equiv_pos_site_id
 _symmetry_equiv_pos_as_xyz
  1  'x, y, z'
loop_
 _atom_site_type_symbol
 _atom_site_label
 _atom_site_symmetry_multiplicity
 _atom_site_fract_x
 _atom_site_fract_y
 _atom_site_fract_z
 _atom_site_occupancy
  Ni  Ni0  1  0.00110521  0.99891580  0.99957947  1
  Ni  Ni1  1  0.16801351  0.16674336  0.16562567  1
  Cr  Cr2  1  0.00131682  0.99955665  0.33300648  1
  Ni  Ni3  1  0.00110726  0.33503017  0.99995424  1
  Ni  Ni4  1  0.16464417  0.49992807  0.16560113  1
  Ni  Ni5  1  0.99781709  0.33513136  0.33258316  1
  Ni  Ni6  1  0.99963574  0.66644509  0.00021834  1
  Ni  Ni7  1  0.16843543  0.83372142  0.16592035  1
  Cr  Cr8  1  0.99901700  0.66607122  0.33209815  1
  Ni  Ni9  1  0.33375819  0.00056855  0.00077199  1
  Ni  Ni10  1  0.49912372  0.16407096  0.16646038  1
  Ni  Ni11  1  0.33628796  0.99856317  0.33248851  1
  Ni  Ni12  1  0.33200618  0.33162863  1.00003903  1
  Cr  Cr13  1  0.50142131  0.50115104  0.16634766  1
  Cr  Cr14  1  0.33427274  0.33180360  0.33226217  1
  Ni  Ni15  1  0.33182407  0.66819585  0.00082320  1
  Ni  Ni16  1  0.49994253  0.83515796  0.16749696  1
  Fe  Fe17  1  0.33553769  0.67005124  0.33361774  1
  Ni  Ni18  1  0.66552798  0.99909538  0.99941223  1
  Cr  Cr19  1  0.83303541  0.16772892  0.16668645  1
  Ni  Ni20  1  0.66333870  0.99910501  0.33455880  1
  Ni  Ni21  1  0.66727909  0.33309651  0.99978645  1
  Ni  Ni22  1  0.83469100  0.50074700  0.16646605  1
  Ni  Ni23  1  0.66771729  0.33425025  0.33556093  1
  Ni  Ni24  1  0.66893232  0.66819851  0.00060718  1
  Ni  Ni25  1  0.83201559  0.83178769  0.16563652  1
  Ni  Ni26  1  0.66662009  0.66703639  0.33426565  1
  Cr  Cr27  1  0.16620345  0.16509399  0.50176614  1
  Ni  Ni28  1  0.00029650  0.99891171  0.66719494  1
  Ni  Ni29  1  0.16628273  0.16697778  0.83321566  1
  Cr  Cr30  1  0.16649123  0.50145078  0.50233277  1
  Ni  Ni31  1  0.00094478  0.33388775  0.66785658  1
  Ni  Ni32  1  0.16478989  0.49983802  0.83274019  1
  Ni  Ni33  1  0.16882529  0.83371629  0.50180539  1
  Ni  Ni34  1  0.00158793  0.66759095  0.66758700  1
  Ni  Ni35  1  0.16646806  0.83357587  0.83266184  1
  Ni  Ni36  1  0.50232236  0.16481630  0.49991111  1
  Ni  Ni37  1  0.33371860  0.99951156  0.66713169  1
  Ni  Ni38  1  0.49968956  0.16430359  0.83402095  1
  Ni  Ni39  1  0.50225992  0.50116710  0.49911485  1
  Ni  Ni40  1  0.33228459  0.33250580  0.66766563  1
  Cr  Cr41  1  0.49856934  0.50048177  0.83461626  1
  Ni  Ni42  1  0.49954879  0.83441139  0.49887634  1
  Ni  Ni43  1  0.33104983  0.66837607  0.66558542  1
  Ni  Ni44  1  0.49968540  0.83607163  0.83402081  1
  Fe  Fe45  1  0.83139340  0.16710081  0.50039320  1
  Ni  Ni46  1  0.66637464  0.00014944  0.66641976  1
  Ni  Ni47  1  0.83441870  0.16598042  0.83323416  1
  Ni  Ni48  1  0.83215786  0.49895120  0.49861428  1
  Cr  Cr49  1  0.66653812  0.33165516  0.66587866  1
  Ni  Ni50  1  0.83691413  0.49983300  0.83531511  1
  Fe  Fe51  1  0.83189627  0.83378380  0.50096940  1
  Cr  Cr52  1  0.66767641  0.66854914  0.66645767  1
  Ni  Ni53  1  0.83423775  0.83457847  0.83378894  1
" 