5293,Ni76Fe7Cr15_10,-234.345532140052, 175.700444616889,Ni76Fe7Cr15,"# generated using pymatgen
 data_Cr9Fe4Ni41
_symmetry_space_group_name_H-M   'P 1'
_cell_length_a   7.45735761
_cell_length_b   7.45735761
_cell_length_c   10.54629627
_cell_angle_alpha   90.00000000
_cell_angle_beta   90.00000000
_cell_angle_gamma   90.00000000
_symmetry_Int_Tables_number   1
_chemical_formula_structural   Cr9Fe4Ni41
_chemical_formula_sum   'Cr9 Fe4 Ni41'
_cell_volume   586.50255318
_cell_formula_units_Z   1
loop_
 _symmetry_equiv_pos_site_id
 _symmetry_equiv_pos_as_xyz
  1  'x, y, z'
loop_
 _atom_site_type_symbol
 _atom_site_label
 _atom_site_symmetry_multiplicity
 _atom_site_fract_x
 _atom_site_fract_y
 _atom_site_fract_z
 _atom_site_occupancy
  Cr  Cr0  1  0.99891779  0.99838465  0.00146443  1
  Ni  Ni1  1  0.16895219  0.16972360  0.16940431  1
  Ni  Ni2  1  0.00220952  0.99920900  0.33438723  1
  Ni  Ni3  1  1.00049337  0.33724029  0.99964223  1
  Ni  Ni4  1  0.16734179  0.50056279  0.16672066  1
  Ni  Ni5  1  0.00075166  0.33572532  0.33481769  1
  Ni  Ni6  1  0.00287612  0.66554040  1.00012632  1
  Ni  Ni7  1  0.16764216  0.83167808  0.16986619  1
  Ni  Ni8  1  0.00116216  0.66686031  0.33408513  1
  Cr  Cr9  1  0.33629834  0.99967951  0.00184187  1
  Ni  Ni10  1  0.49846990  0.16916718  0.16726248  1
  Ni  Ni11  1  0.33338033  1.00026387  0.33411899  1
  Ni  Ni12  1  0.33530711  0.33646649  0.00087705  1
  Ni  Ni13  1  0.49962437  0.50056952  0.16850786  1
  Ni  Ni14  1  0.33506415  0.33493686  0.33356027  1
  Ni  Ni15  1  0.33196105  0.66533248  1.00025094  1
  Ni  Ni16  1  0.49994343  0.83231209  0.16799015  1
  Ni  Ni17  1  0.33365874  0.66660738  0.33397237  1
  Ni  Ni18  1  0.66643406  0.00248671  0.99897016  1
  Cr  Cr19  1  0.83445188  0.16984412  0.16717867  1
  Cr  Cr20  1  0.66661659  0.00149070  0.33347136  1
  Ni  Ni21  1  0.66603997  0.33314678  0.99980690  1
  Ni  Ni22  1  0.83498706  0.50200677  0.16852875  1
  Ni  Ni23  1  0.66608215  0.33605768  0.33518328  1
  Cr  Cr24  1  0.66718293  0.66720282  1.00001936  1
  Ni  Ni25  1  0.83438064  0.83077890  0.16799513  1
  Ni  Ni26  1  0.66710428  0.66530466  0.33526239  1
  Cr  Cr27  1  0.16720208  0.16776023  0.50051324  1
  Ni  Ni28  1  0.99854449  1.00059554  0.66705606  1
  Cr  Cr29  1  0.16719226  0.16935588  0.83246768  1
  Ni  Ni30  1  0.16754820  0.49989497  0.49887734  1
  Fe  Fe31  1  0.99675545  0.33525995  0.66697508  1
  Ni  Ni32  1  0.16755397  0.50069925  0.83614613  1
  Fe  Fe33  1  0.16714837  0.83302787  0.49900256  1
  Cr  Cr34  1  0.99985703  0.66715720  0.66773861  1
  Ni  Ni35  1  0.16740962  0.83270435  0.83348681  1
  Ni  Ni36  1  0.50086307  0.16756681  0.50132559  1
  Fe  Fe37  1  0.33720080  0.99990539  0.66709188  1
  Ni  Ni38  1  0.50276816  0.16808840  0.83326770  1
  Ni  Ni39  1  0.50116928  0.50083101  0.49957340  1
  Fe  Fe40  1  0.33690094  0.33469818  0.66697615  1
  Ni  Ni41  1  0.50072450  0.49953766  0.83383558  1
  Ni  Ni42  1  0.50195586  0.83355522  0.50069678  1
  Cr  Cr43  1  0.33478494  0.66570360  0.66775790  1
  Ni  Ni44  1  0.50204920  0.83426524  0.83310417  1
  Ni  Ni45  1  0.83392695  0.16750332  0.50175875  1
  Ni  Ni46  1  0.66838562  0.00200694  0.66817325  1
  Ni  Ni47  1  0.83211833  0.16801812  0.83283583  1
  Ni  Ni48  1  0.83310799  0.50075197  0.49950014  1
  Ni  Ni49  1  0.66653480  0.33345662  0.66696777  1
  Ni  Ni50  1  0.83357806  0.49944169  0.83388192  1
  Ni  Ni51  1  0.83279983  0.83380417  0.50057333  1
  Ni  Ni52  1  0.66699111  0.66640677  0.66689951  1
  Ni  Ni53  1  0.83267883  0.83450815  0.83328815  1
" 