3843,Ni76Fe8Cr15_2,-234.152628721504, 171.858418386544,Ni76Fe8Cr15,"# generated using pymatgen
 data_Cr9Fe4Ni41
_symmetry_space_group_name_H-M   'P 1'
_cell_length_a   7.45946399
_cell_length_b   7.45946399
_cell_length_c   10.54927514
_cell_angle_alpha   90.00000000
_cell_angle_beta   90.00000000
_cell_angle_gamma   90.00000000
_symmetry_Int_Tables_number   1
_chemical_formula_structural   Cr9Fe4Ni41
_chemical_formula_sum   'Cr9 Fe4 Ni41'
_cell_volume   586.99967782
_cell_formula_units_Z   1
loop_
 _symmetry_equiv_pos_site_id
 _symmetry_equiv_pos_as_xyz
  1  'x, y, z'
loop_
 _atom_site_type_symbol
 _atom_site_label
 _atom_site_symmetry_multiplicity
 _atom_site_fract_x
 _atom_site_fract_y
 _atom_site_fract_z
 _atom_site_occupancy
  Cr  Cr0  1  0.00160947  0.99756544  0.00139518  1
  Ni  Ni1  1  0.17043507  0.16497833  0.16939739  1
  Ni  Ni2  1  0.00171601  0.99932106  0.33371869  1
  Cr  Cr3  1  0.00118849  0.33662397  0.00066762  1
  Cr  Cr4  1  0.17024735  0.50088880  0.16689309  1
  Ni  Ni5  1  0.00075513  0.33422775  0.33447745  1
  Ni  Ni6  1  1.00003174  0.66786172  0.99915349  1
  Ni  Ni7  1  0.17034810  0.83507989  0.16672387  1
  Cr  Cr8  1  0.00102439  0.66740551  0.33467109  1
  Ni  Ni9  1  0.33624416  0.99999904  1.00037489  1
  Ni  Ni10  1  0.49963827  0.16658783  0.16625597  1
  Ni  Ni11  1  0.33490153  1.00014523  0.33372757  1
  Ni  Ni12  1  0.33731856  0.33361678  1.00003578  1
  Ni  Ni13  1  0.50235804  0.50159202  0.16729998  1
  Ni  Ni14  1  0.33589630  0.33336070  0.33418580  1
  Ni  Ni15  1  0.33383526  0.66791026  1.00008189  1
  Ni  Ni16  1  0.49959093  0.83333546  0.16729390  1
  Ni  Ni17  1  0.33541069  0.66792095  0.33470910  1
  Ni  Ni18  1  0.66383877  0.99954049  0.00058160  1
  Cr  Cr19  1  0.83256202  0.16797356  0.16975983  1
  Ni  Ni20  1  0.66493846  0.99980536  0.33365702  1
  Ni  Ni21  1  0.66384161  0.33470392  1.00028253  1
  Ni  Ni22  1  0.83017211  0.50160699  0.16668948  1
  Ni  Ni23  1  0.66493034  0.33455763  0.33388424  1
  Fe  Fe24  1  0.66591847  0.66692699  0.99965011  1
  Fe  Fe25  1  0.83192400  0.83262843  0.16730868  1
  Fe  Fe26  1  0.66553455  0.66680544  0.33497168  1
  Ni  Ni27  1  0.16849899  0.16689177  0.49988820  1
  Ni  Ni28  1  0.00293833  0.99796692  0.66686287  1
  Ni  Ni29  1  0.16966431  0.16691274  0.83243813  1
  Ni  Ni30  1  0.16755421  0.49893886  0.50072091  1
  Ni  Ni31  1  0.00214427  0.33637438  0.66685379  1
  Ni  Ni32  1  0.16795821  0.50068686  0.83400473  1
  Ni  Ni33  1  0.16776919  0.83567334  0.50079287  1
  Ni  Ni34  1  0.99912994  0.66715044  0.66798411  1
  Ni  Ni35  1  0.16819251  0.83401550  0.83391247  1
  Ni  Ni36  1  0.49837316  0.16774823  0.50035424  1
  Ni  Ni37  1  0.33259635  0.00179395  0.66729523  1
  Fe  Fe38  1  0.49838056  0.16789856  0.83435502  1
  Ni  Ni39  1  0.50113646  0.50014747  0.49930915  1
  Ni  Ni40  1  0.33432661  0.33297259  0.66728370  1
  Ni  Ni41  1  0.50095446  0.50109180  0.83476237  1
  Ni  Ni42  1  0.50000870  0.83370678  0.49887544  1
  Cr  Cr43  1  0.33405147  0.66719901  0.66589652  1
  Ni  Ni44  1  0.49983406  0.83281026  0.83516708  1
  Cr  Cr45  1  0.83501364  0.16796489  0.50025663  1
  Cr  Cr46  1  0.66389114  0.99839202  0.66715050  1
  Cr  Cr47  1  0.83348989  0.16801596  0.83171369  1
  Ni  Ni48  1  0.83272041  0.50077149  0.50197065  1
  Ni  Ni49  1  0.66492045  0.33720180  0.66723900  1
  Ni  Ni50  1  0.83239333  0.50234473  0.83291026  1
  Ni  Ni51  1  0.83357847  0.83273935  0.50044444  1
  Ni  Ni52  1  0.66858260  0.66581118  0.66682407  1
  Ni  Ni53  1  0.83313784  0.83125893  0.83433543  1
" 