2839,Ni76Fe7Cr15_13,-234.189200317813, 173.161152208889,Ni76Fe7Cr15,"# generated using pymatgen
 data_Cr9Fe4Ni41
_symmetry_space_group_name_H-M   'P 1'
_cell_length_a   7.45907184
_cell_length_b   7.45907184
_cell_length_c   10.54872056
_cell_angle_alpha   90.00000000
_cell_angle_beta   90.00000000
_cell_angle_gamma   90.00000000
_symmetry_Int_Tables_number   1
_chemical_formula_structural   Cr9Fe4Ni41
_chemical_formula_sum   'Cr9 Fe4 Ni41'
_cell_volume   586.90710601
_cell_formula_units_Z   1
loop_
 _symmetry_equiv_pos_site_id
 _symmetry_equiv_pos_as_xyz
  1  'x, y, z'
loop_
 _atom_site_type_symbol
 _atom_site_label
 _atom_site_symmetry_multiplicity
 _atom_site_fract_x
 _atom_site_fract_y
 _atom_site_fract_z
 _atom_site_occupancy
  Ni  Ni0  1  1.00035766  0.99970222  1.00021896  1
  Fe  Fe1  1  0.16716267  0.16651976  0.16751327  1
  Ni  Ni2  1  0.00216617  0.00317788  0.33268949  1
  Ni  Ni3  1  0.00089359  0.33485599  0.00132768  1
  Ni  Ni4  1  0.16630982  0.50073425  0.16666471  1
  Fe  Fe5  1  0.00062197  0.33279437  0.33394773  1
  Ni  Ni6  1  0.99981970  0.66704564  1.00009433  1
  Ni  Ni7  1  0.16779058  0.83447113  0.16660939  1
  Cr  Cr8  1  1.00010081  0.66585698  0.33233393  1
  Ni  Ni9  1  0.33365130  0.00219650  0.00153341  1
  Ni  Ni10  1  0.50041621  0.16594591  0.16630895  1
  Ni  Ni11  1  0.33317879  0.00186602  0.33372339  1
  Ni  Ni12  1  0.33335021  0.33260096  0.99943214  1
  Cr  Cr13  1  0.50050003  0.50023859  0.16688810  1
  Ni  Ni14  1  0.33338519  0.33309992  0.33517532  1
  Fe  Fe15  1  0.33199776  0.66714165  0.00054103  1
  Ni  Ni16  1  0.49919409  0.83526825  0.16713082  1
  Ni  Ni17  1  0.33502655  0.66663840  0.33403382  1
  Ni  Ni18  1  0.66759450  0.00111821  0.00171911  1
  Ni  Ni19  1  0.83427403  0.16742740  0.16680003  1
  Cr  Cr20  1  0.66632802  0.00068035  0.33281382  1
  Ni  Ni21  1  0.66735896  0.33313729  0.99907333  1
  Ni  Ni22  1  0.83507034  0.49951323  0.16659010  1
  Ni  Ni23  1  0.66726054  0.33463820  0.33540788  1
  Ni  Ni24  1  0.66985516  0.66734814  0.00087502  1
  Ni  Ni25  1  0.83461774  0.83466200  0.16527245  1
  Ni  Ni26  1  0.66595122  0.66542805  0.33445778  1
  Ni  Ni27  1  0.16730095  0.16687463  0.49881469  1
  Ni  Ni28  1  0.00199135  0.99951063  0.66869676  1
  Fe  Fe29  1  0.16694153  0.16567324  0.83505659  1
  Ni  Ni30  1  0.16851251  0.49970214  0.49966117  1
  Cr  Cr31  1  0.99937480  0.33452146  0.66647497  1
  Ni  Ni32  1  0.16715292  0.50282678  0.83527974  1
  Cr  Cr33  1  0.16953460  0.83483645  0.50231755  1
  Ni  Ni34  1  1.00043826  0.66760894  0.66907641  1
  Ni  Ni35  1  0.16523347  0.83350628  0.83299370  1
  Ni  Ni36  1  0.49978747  0.16846725  0.49999796  1
  Ni  Ni37  1  0.33236355  1.00015386  0.66634687  1
  Ni  Ni38  1  0.50119736  0.16925086  0.83529969  1
  Ni  Ni39  1  0.50136655  0.50090061  0.50013072  1
  Cr  Cr40  1  0.33554926  0.33379338  0.66736610  1
  Ni  Ni41  1  0.50101714  0.49876940  0.83406812  1
  Ni  Ni42  1  0.49827851  0.83223354  0.50016468  1
  Ni  Ni43  1  0.33349948  0.66737876  0.66687520  1
  Cr  Cr44  1  0.49927984  0.83343248  0.83425590  1
  Ni  Ni45  1  0.83451534  0.16996419  0.49983775  1
  Cr  Cr46  1  0.66703056  0.00198035  0.66693164  1
  Ni  Ni47  1  0.83335912  0.16733377  0.83496669  1
  Ni  Ni48  1  0.83172285  0.49819350  0.50068805  1
  Ni  Ni49  1  0.66701948  0.33562092  0.66712253  1
  Ni  Ni50  1  0.83343542  0.50058476  0.83432556  1
  Cr  Cr51  1  0.83366160  0.83353355  0.50210968  1
  Ni  Ni52  1  0.66766481  0.66442713  0.66627094  1
  Ni  Ni53  1  0.83740798  0.83368419  0.83456466  1
" 