1986,Ni76Fe8Cr15_8,-234.078660148972, 170.867745659195,Ni76Fe8Cr15,"# generated using pymatgen
 data_Cr9Fe4Ni41
_symmetry_space_group_name_H-M   'P 1'
_cell_length_a   7.46011745
_cell_length_b   7.46011745
_cell_length_c   10.55019928
_cell_angle_alpha   90.00000000
_cell_angle_beta   90.00000000
_cell_angle_gamma   90.00000000
_symmetry_Int_Tables_number   1
_chemical_formula_structural   Cr9Fe4Ni41
_chemical_formula_sum   'Cr9 Fe4 Ni41'
_cell_volume   587.15395794
_cell_formula_units_Z   1
loop_
 _symmetry_equiv_pos_site_id
 _symmetry_equiv_pos_as_xyz
  1  'x, y, z'
loop_
 _atom_site_type_symbol
 _atom_site_label
 _atom_site_symmetry_multiplicity
 _atom_site_fract_x
 _atom_site_fract_y
 _atom_site_fract_z
 _atom_site_occupancy
  Fe  Fe0  1  0.99951937  0.00091988  0.99897416  1
  Cr  Cr1  1  0.16479240  0.16706573  0.16524152  1
  Ni  Ni2  1  0.99916099  0.00047753  0.33422867  1
  Ni  Ni3  1  0.99895047  0.33591578  1.00012216  1
  Ni  Ni4  1  0.16457136  0.50201890  0.16629135  1
  Ni  Ni5  1  0.99652703  0.33347654  0.33332985  1
  Ni  Ni6  1  0.99966330  0.66588318  0.99982980  1
  Cr  Cr7  1  0.16658400  0.83301990  0.16747537  1
  Ni  Ni8  1  0.99806120  0.66754498  0.33412075  1
  Ni  Ni9  1  0.33621244  0.99921046  0.99802886  1
  Cr  Cr10  1  0.50274339  0.16501149  0.16697423  1
  Ni  Ni11  1  0.33436025  0.99772563  0.33635933  1
  Ni  Ni12  1  0.33295504  0.33457028  0.99827086  1
  Cr  Cr13  1  0.50090121  0.50195133  0.16636668  1
  Cr  Cr14  1  0.33248418  0.33237010  0.33368862  1
  Ni  Ni15  1  0.33278634  0.66782126  0.99941624  1
  Ni  Ni16  1  0.50190269  0.83388115  0.16680214  1
  Ni  Ni17  1  0.33423456  0.67128426  0.33340975  1
  Ni  Ni18  1  0.66761939  0.99980564  1.00035517  1
  Ni  Ni19  1  0.83344357  0.16682596  0.16690851  1
  Fe  Fe20  1  0.66850468  0.99928878  0.33436991  1
  Ni  Ni21  1  0.66933960  0.33262024  0.99907633  1
  Ni  Ni22  1  0.83499839  0.50061416  0.16741391  1
  Ni  Ni23  1  0.67174333  0.33348180  0.33462783  1
  Fe  Fe24  1  0.66772341  0.66673481  1.00002411  1
  Ni  Ni25  1  0.83269085  0.83382217  0.16675789  1
  Ni  Ni26  1  0.66906168  0.66866581  0.33253158  1
  Ni  Ni27  1  0.16687010  0.16516444  0.50067515  1
  Cr  Cr28  1  1.00001524  1.00012955  0.66804395  1
  Ni  Ni29  1  0.16824809  0.16748504  0.83480107  1
  Cr  Cr30  1  0.16487227  0.50207519  0.50139614  1
  Ni  Ni31  1  0.99928634  0.33415048  0.66784245  1
  Ni  Ni32  1  0.16731668  0.50116138  0.83386853  1
  Ni  Ni33  1  0.16734408  0.83470454  0.49984571  1
  Ni  Ni34  1  0.00072129  0.66679351  0.66745502  1
  Ni  Ni35  1  0.16712007  0.83282890  0.83407963  1
  Ni  Ni36  1  0.50170619  0.16488286  0.50135869  1
  Ni  Ni37  1  0.33516500  1.00045704  0.66695150  1
  Ni  Ni38  1  0.50097204  0.16762648  0.83333556  1
  Cr  Cr39  1  0.50250647  0.50030744  0.50110850  1
  Ni  Ni40  1  0.33373778  0.33173520  0.66925687  1
  Ni  Ni41  1  0.49965533  0.49869669  0.83468296  1
  Ni  Ni42  1  0.50001375  0.83589712  0.49975678  1
  Ni  Ni43  1  0.33258187  0.66938308  0.66866711  1
  Fe  Fe44  1  0.49997676  0.83498998  0.83427606  1
  Ni  Ni45  1  0.83290826  0.16745302  0.49966914  1
  Ni  Ni46  1  0.66581151  0.00190468  0.66634980  1
  Ni  Ni47  1  0.83221394  0.16727273  0.83476669  1
  Ni  Ni48  1  0.83414503  0.49997755  0.50000204  1
  Ni  Ni49  1  0.66834133  0.33149227  0.66796057  1
  Ni  Ni50  1  0.83432940  0.49997674  0.83399228  1
  Ni  Ni51  1  0.83406483  0.83387049  0.49887396  1
  Cr  Cr52  1  0.66901580  0.66861156  0.66923913  1
  Ni  Ni53  1  0.83460736  0.83404622  0.83583109  1
" 