3210,Ni76Fe4Cr18_13,-232.03879812252, 160.459102449703,Ni76Fe4Cr18,"# generated using pymatgen
 data_Cr11Fe2Ni41
_symmetry_space_group_name_H-M   'P 1'
_cell_length_a   7.46832593
_cell_length_b   7.46832593
_cell_length_c   10.56180782
_cell_angle_alpha   90.00000000
_cell_angle_beta   90.00000000
_cell_angle_gamma   90.00000000
_symmetry_Int_Tables_number   1
_chemical_formula_structural   Cr11Fe2Ni41
_chemical_formula_sum   'Cr11 Fe2 Ni41'
_cell_volume   589.09425463
_cell_formula_units_Z   1
loop_
 _symmetry_equiv_pos_site_id
 _symmetry_equiv_pos_as_xyz
  1  'x, y, z'
loop_
 _atom_site_type_symbol
 _atom_site_label
 _atom_site_symmetry_multiplicity
 _atom_site_fract_x
 _atom_site_fract_y
 _atom_site_fract_z
 _atom_site_occupancy
  Ni  Ni0  1  0.00116148  0.99937567  0.99945068  1
  Cr  Cr1  1  0.16666799  0.16722869  0.16708935  1
  Ni  Ni2  1  0.00038005  0.99886532  0.33273274  1
  Ni  Ni3  1  0.99826667  0.33410444  0.99754660  1
  Ni  Ni4  1  0.16589043  0.50268575  0.16764095  1
  Ni  Ni5  1  0.99926344  0.33472325  0.33442245  1
  Ni  Ni6  1  0.00219707  0.66676382  0.00018844  1
  Ni  Ni7  1  0.16631877  0.83266995  0.16760857  1
  Ni  Ni8  1  0.00198944  0.66632920  0.33330922  1
  Ni  Ni9  1  0.33153817  0.99609116  0.00012522  1
  Ni  Ni10  1  0.49964400  0.16622678  0.16823750  1
  Ni  Ni11  1  0.33400204  0.99752662  0.33302452  1
  Cr  Cr12  1  0.33137141  0.33546924  0.99750401  1
  Cr  Cr13  1  0.49903061  0.50043581  0.16705401  1
  Ni  Ni14  1  0.33356159  0.33454831  0.33473387  1
  Ni  Ni15  1  0.33114589  0.66948893  0.99815722  1
  Ni  Ni16  1  0.49772429  0.83162980  0.16611269  1
  Ni  Ni17  1  0.33174483  0.66723151  0.33474044  1
  Cr  Cr18  1  0.66698037  0.99942177  0.00403872  1
  Ni  Ni19  1  0.83507333  0.16712602  0.16688345  1
  Cr  Cr20  1  0.66690516  0.99966276  0.33098785  1
  Ni  Ni21  1  0.66952665  0.33334425  0.99845067  1
  Cr  Cr22  1  0.83416228  0.50113209  0.16675608  1
  Ni  Ni23  1  0.66719815  0.33249882  0.33601309  1
  Ni  Ni24  1  0.66606975  0.66635384  0.99882337  1
  Ni  Ni25  1  0.83579509  0.83230958  0.16649414  1
  Ni  Ni26  1  0.66612426  0.66637708  0.33425529  1
  Cr  Cr27  1  0.16621601  0.16536841  0.49946095  1
  Fe  Fe28  1  0.99985178  0.00020930  0.66750800  1
  Ni  Ni29  1  0.16337393  0.16453178  0.83312426  1
  Ni  Ni30  1  0.16573190  0.50115998  0.49814478  1
  Ni  Ni31  1  0.99769684  0.33529051  0.66782517  1
  Ni  Ni32  1  0.16443476  0.50206030  0.83390659  1
  Fe  Fe33  1  0.16823596  0.83130870  0.49980726  1
  Ni  Ni34  1  0.00206832  0.66342587  0.66627735  1
  Ni  Ni35  1  0.16752357  0.83327860  0.83191504  1
  Ni  Ni36  1  0.50028083  0.16614832  0.49934733  1
  Ni  Ni37  1  0.33404423  0.99675253  0.66666307  1
  Cr  Cr38  1  0.49996360  0.16507606  0.83267552  1
  Ni  Ni39  1  0.50050562  0.50162836  0.49941099  1
  Cr  Cr40  1  0.33173993  0.33683146  0.66722860  1
  Ni  Ni41  1  0.50184655  0.50383843  0.83276950  1
  Ni  Ni42  1  0.49864246  0.83194057  0.50129218  1
  Ni  Ni43  1  0.33218515  0.66892967  0.66663983  1
  Ni  Ni44  1  0.49749608  0.83038917  0.83241538  1
  Ni  Ni45  1  0.83353094  0.16819342  0.50113361  1
  Ni  Ni46  1  0.66505108  0.00067277  0.66534706  1
  Ni  Ni47  1  0.83607221  0.16844975  0.83178296  1
  Ni  Ni48  1  0.83363883  0.49942853  0.50008592  1
  Ni  Ni49  1  0.66947870  0.33362817  0.66523416  1
  Ni  Ni50  1  0.83335576  0.49917135  0.83283332  1
  Cr  Cr51  1  0.83416700  0.83119068  0.50142540  1
  Ni  Ni52  1  0.66558549  0.66555370  0.66649972  1
  Cr  Cr53  1  0.83292780  0.83130168  0.83224347  1
" 