2271,Ni76Fe6Cr17_8,-233.215362087636, 167.526467795945,Ni76Fe6Cr17,"# generated using pymatgen
 data_Cr10Fe3Ni41
_symmetry_space_group_name_H-M   'P 1'
_cell_length_a   7.46309112
_cell_length_b   7.46309112
_cell_length_c   10.55440469
_cell_angle_alpha   90.00000000
_cell_angle_beta   90.00000000
_cell_angle_gamma   90.00000000
_symmetry_Int_Tables_number   1
_chemical_formula_structural   Cr10Fe3Ni41
_chemical_formula_sum   'Cr10 Fe3 Ni41'
_cell_volume   587.85637344
_cell_formula_units_Z   1
loop_
 _symmetry_equiv_pos_site_id
 _symmetry_equiv_pos_as_xyz
  1  'x, y, z'
loop_
 _atom_site_type_symbol
 _atom_site_label
 _atom_site_symmetry_multiplicity
 _atom_site_fract_x
 _atom_site_fract_y
 _atom_site_fract_z
 _atom_site_occupancy
  Ni  Ni0  1  0.99904550  0.00313248  0.00091863  1
  Ni  Ni1  1  0.16694801  0.16706310  0.16662381  1
  Ni  Ni2  1  0.99904743  0.00144682  0.33462556  1
  Ni  Ni3  1  1.00017333  0.33235701  0.99858057  1
  Ni  Ni4  1  0.16599191  0.49987426  0.16662378  1
  Ni  Ni5  1  1.00017397  0.33235705  0.33479007  1
  Ni  Ni6  1  1.00004016  0.66530547  0.99975830  1
  Cr  Cr7  1  0.16677332  0.83321293  0.16667943  1
  Ni  Ni8  1  1.00004092  0.66698988  0.33578556  1
  Ni  Ni9  1  0.33439662  0.99975995  0.00035028  1
  Ni  Ni10  1  0.50128386  0.16448257  0.16681072  1
  Ni  Ni11  1  0.33355479  0.99916380  0.33410687  1
  Cr  Cr12  1  0.33209920  0.33487897  0.00134037  1
  Fe  Fe13  1  0.50011311  0.50212462  0.16693821  1
  Cr  Cr14  1  0.33231839  0.33488004  0.33230559  1
  Ni  Ni15  1  0.33558564  0.66649799  0.99963708  1
  Ni  Ni16  1  0.50188440  0.83534470  0.16643699  1
  Ni  Ni17  1  0.33474308  0.66709423  0.33481940  1
  Ni  Ni18  1  0.66735284  0.99962832  0.00183564  1
  Fe  Fe19  1  0.83364426  0.16502834  0.16687692  1
  Ni  Ni20  1  0.66819280  0.99903296  0.33262116  1
  Ni  Ni21  1  0.66854139  0.33354497  0.99929205  1
  Cr  Cr22  1  0.83447009  0.50092288  0.16688425  1
  Ni  Ni23  1  0.66829563  0.33354539  0.33432429  1
  Ni  Ni24  1  0.66516911  0.66762323  0.99985709  1
  Ni  Ni25  1  0.83147089  0.83438857  0.16682199  1
  Ni  Ni26  1  0.66601039  0.66821866  0.33459922  1
  Ni  Ni27  1  0.16466587  0.16580646  0.49944295  1
  Cr  Cr28  1  0.99967326  0.00236333  0.66523386  1
  Ni  Ni29  1  0.16486185  0.16805185  0.83472879  1
  Ni  Ni30  1  0.16437862  0.50236788  0.50015676  1
  Ni  Ni31  1  0.99960717  0.33490382  0.66742586  1
  Ni  Ni32  1  0.16457548  0.50012368  0.83401477  1
  Ni  Ni33  1  0.16788344  0.83261949  0.49922536  1
  Ni  Ni34  1  0.99978713  0.66300613  0.66525101  1
  Cr  Cr35  1  0.16960795  0.83278268  0.83479942  1
  Cr  Cr36  1  0.50158135  0.16497773  0.50075787  1
  Ni  Ni37  1  0.33501681  0.99832465  0.66633662  1
  Cr  Cr38  1  0.50158145  0.16456260  0.83275653  1
  Ni  Ni39  1  0.50225274  0.50355810  0.49953406  1
  Cr  Cr40  1  0.33097706  0.33526812  0.66714879  1
  Ni  Ni41  1  0.50225309  0.50316194  0.83445016  1
  Ni  Ni42  1  0.49979147  0.83247844  0.50071967  1
  Ni  Ni43  1  0.33553199  0.66704724  0.66633857  1
  Ni  Ni44  1  0.49979396  0.83247490  0.83363825  1
  Ni  Ni45  1  0.83431034  0.16826808  0.49888329  1
  Ni  Ni46  1  0.66599364  0.99850320  0.66633810  1
  Ni  Ni47  1  0.83411344  0.17051147  0.83528788  1
  Ni  Ni48  1  0.83416707  0.50033893  0.50089203  1
  Fe  Fe49  1  0.67017352  0.33574241  0.66698802  1
  Ni  Ni50  1  0.83396912  0.49809570  0.83327870  1
  Ni  Ni51  1  0.83312054  0.83218856  0.49887383  1
  Ni  Ni52  1  0.66547743  0.66687244  0.66633970  1
  Cr  Cr53  1  0.83180696  0.83201476  0.83522910  1
" 