5273,Ni76Fe22Cr0_5,-242.265412049388, 209.487917614882,Ni76Fe22Cr0,"# generated using pymatgen
 data_CrFe12Ni41
_symmetry_space_group_name_H-M   'P 1'
_cell_length_a   7.42429385
_cell_length_b   7.42429385
_cell_length_c   10.49953706
_cell_angle_alpha   90.00000000
_cell_angle_beta   90.00000000
_cell_angle_gamma   90.00000000
_symmetry_Int_Tables_number   1
_chemical_formula_structural   CrFe12Ni41
_chemical_formula_sum   'Cr1 Fe12 Ni41'
_cell_volume   578.73594437
_cell_formula_units_Z   1
loop_
 _symmetry_equiv_pos_site_id
 _symmetry_equiv_pos_as_xyz
  1  'x, y, z'
loop_
 _atom_site_type_symbol
 _atom_site_label
 _atom_site_symmetry_multiplicity
 _atom_site_fract_x
 _atom_site_fract_y
 _atom_site_fract_z
 _atom_site_occupancy
  Ni  Ni0  1  0.00309172  0.00344355  1.00282210  1
  Fe  Fe1  1  0.16922014  0.16919571  0.16921050  1
  Ni  Ni2  1  0.00295868  0.00380637  0.33610937  1
  Ni  Ni3  1  1.00259328  0.33585076  1.00185815  1
  Ni  Ni4  1  0.17010214  0.50426740  0.16955783  1
  Ni  Ni5  1  0.00287947  0.33525321  0.33709661  1
  Ni  Ni6  1  0.00323617  0.66931472  1.00113426  1
  Ni  Ni7  1  0.16787011  0.83518389  0.16921264  1
  Ni  Ni8  1  0.00292580  0.66948511  0.33747317  1
  Ni  Ni9  1  0.33599134  1.00232522  1.00155202  1
  Ni  Ni10  1  0.50408562  0.17072070  0.16965868  1
  Ni  Ni11  1  0.33576780  0.00322197  0.33748934  1
  Fe  Fe12  1  0.33518905  0.33531403  0.00366003  1
  Ni  Ni13  1  0.50191867  0.50090650  0.16965889  1
  Ni  Ni14  1  0.33598504  0.33598091  0.33613811  1
  Ni  Ni15  1  0.33542602  0.67096623  1.00264156  1
  Fe  Fe16  1  0.50271785  0.83679431  0.16955059  1
  Ni  Ni17  1  0.33671075  0.66935057  0.33707814  1
  Ni  Ni18  1  0.66963484  0.00309085  1.00139396  1
  Ni  Ni19  1  0.83484246  0.16851422  0.16930985  1
  Ni  Ni20  1  0.66983366  0.00307072  0.33733393  1
  Ni  Ni21  1  0.67135054  0.33523186  1.00247797  1
  Fe  Fe22  1  0.83675673  0.50271429  0.16953984  1
  Ni  Ni23  1  0.66971005  0.33617265  0.33725478  1
  Ni  Ni24  1  0.67004545  0.67027036  0.00393419  1
  Ni  Ni25  1  0.83835554  0.83746599  0.17004907  1
  Ni  Ni26  1  0.66906687  0.66935185  0.33601564  1
  Fe  Fe27  1  0.16921976  0.16875842  0.50356331  1
  Ni  Ni28  1  1.00241746  0.00414054  0.67017422  1
  Ni  Ni29  1  0.17037091  0.16938213  0.83701603  1
  Fe  Fe30  1  0.17014590  0.50316886  0.50238017  1
  Fe  Fe31  1  0.00295129  0.33749025  0.66990497  1
  Ni  Ni32  1  0.16822708  0.50296740  0.83587182  1
  Ni  Ni33  1  0.16864350  0.83622010  0.50303699  1
  Fe  Fe34  1  0.00307413  0.66998196  0.66948414  1
  Ni  Ni35  1  0.16848915  0.83635979  0.83630433  1
  Ni  Ni36  1  0.50288155  0.17074498  0.50273423  1
  Fe  Fe37  1  0.33623198  1.00178525  0.66985429  1
  Ni  Ni38  1  0.50251175  0.16880052  0.83592755  1
  Ni  Ni39  1  0.50281447  0.50170936  0.50231338  1
  Ni  Ni40  1  0.33512050  0.33572075  0.66946201  1
  Cr  Cr41  1  0.50282618  0.50207739  0.83756467  1
  Ni  Ni42  1  0.50216186  0.83610834  0.50176726  1
  Ni  Ni43  1  0.33698690  0.66930698  0.66893659  1
  Ni  Ni44  1  0.50299746  0.83781369  0.83684853  1
  Ni  Ni45  1  0.83590315  0.16936156  0.50325962  1
  Fe  Fe46  1  0.66842890  1.00174645  0.66890973  1
  Fe  Fe47  1  0.83702688  0.16892150  0.83658754  1
  Ni  Ni48  1  0.83580908  0.50277541  0.50162800  1
  Fe  Fe49  1  0.66985903  0.33641376  0.66858186  1
  Ni  Ni50  1  0.83754388  0.50364389  0.83708012  1
  Ni  Ni51  1  0.83778164  0.83660397  0.50230802  1
  Ni  Ni52  1  0.66969363  0.67026037  0.66874533  1
  Ni  Ni53  1  0.83709917  0.83595546  0.83602708  1
" 