166,Ni76Fe8Cr15_0,-234.180288657787, 170.615081473022,Ni76Fe8Cr15,"# generated using pymatgen
 data_Cr9Fe4Ni41
_symmetry_space_group_name_H-M   'P 1'
_cell_length_a   7.45811577
_cell_length_b   7.45811577
_cell_length_c   10.54736847
_cell_angle_alpha   90.00000000
_cell_angle_beta   90.00000000
_cell_angle_gamma   90.00000000
_symmetry_Int_Tables_number   1
_chemical_formula_structural   Cr9Fe4Ni41
_chemical_formula_sum   'Cr9 Fe4 Ni41'
_cell_volume   586.68145248
_cell_formula_units_Z   1
loop_
 _symmetry_equiv_pos_site_id
 _symmetry_equiv_pos_as_xyz
  1  'x, y, z'
loop_
 _atom_site_type_symbol
 _atom_site_label
 _atom_site_symmetry_multiplicity
 _atom_site_fract_x
 _atom_site_fract_y
 _atom_site_fract_z
 _atom_site_occupancy
  Cr  Cr0  1  1.00044490  0.99958957  0.00223876  1
  Ni  Ni1  1  0.16727173  0.16665114  0.16886477  1
  Ni  Ni2  1  0.00223366  0.99918312  0.33280039  1
  Ni  Ni3  1  0.99757092  0.33659837  0.00170321  1
  Ni  Ni4  1  0.16359130  0.50031838  0.16833545  1
  Ni  Ni5  1  1.00045995  0.33517593  0.33206476  1
  Ni  Ni6  1  0.99839581  0.66587649  0.00065808  1
  Ni  Ni7  1  0.16555663  0.83482701  0.16878968  1
  Ni  Ni8  1  1.00051643  0.66743654  0.33281135  1
  Ni  Ni9  1  0.33569437  0.00072617  0.00091720  1
  Ni  Ni10  1  0.50001388  0.16716154  0.16685164  1
  Ni  Ni11  1  0.33213998  0.00126974  0.33295209  1
  Cr  Cr12  1  0.33315647  0.33139315  0.00148607  1
  Cr  Cr13  1  0.50296795  0.49936744  0.16955165  1
  Ni  Ni14  1  0.33420176  0.33338117  0.33330472  1
  Cr  Cr15  1  0.33107465  0.66942094  0.99980856  1
  Cr  Cr16  1  0.50051999  0.83494709  0.16615121  1
  Fe  Fe17  1  0.33175663  0.66693618  0.33610169  1
  Fe  Fe18  1  0.66717906  0.00184186  0.99960251  1
  Ni  Ni19  1  0.83451196  0.16912521  0.16682004  1
  Cr  Cr20  1  0.66800233  0.00156290  0.33445478  1
  Ni  Ni21  1  0.67025556  0.33264687  0.00109071  1
  Ni  Ni22  1  0.83550956  0.50052580  0.16628230  1
  Ni  Ni23  1  0.66713375  0.33509793  0.33439784  1
  Ni  Ni24  1  0.67166142  0.66760023  1.00008815  1
  Ni  Ni25  1  0.83602238  0.83214566  0.16751058  1
  Ni  Ni26  1  0.66922365  0.66537290  0.33515305  1
  Cr  Cr27  1  0.16644213  0.16645489  0.50096011  1
  Ni  Ni28  1  0.99916227  0.99884512  0.66683011  1
  Cr  Cr29  1  0.16727364  0.16707441  0.83171803  1
  Ni  Ni30  1  0.16748263  0.50274271  0.50110918  1
  Ni  Ni31  1  0.99920852  0.33559029  0.66802817  1
  Ni  Ni32  1  0.16411333  0.50285791  0.83235118  1
  Ni  Ni33  1  0.16814830  0.83264730  0.50043016  1
  Ni  Ni34  1  0.00118996  0.66736086  0.66832765  1
  Ni  Ni35  1  0.16705681  0.83246817  0.83257688  1
  Ni  Ni36  1  0.50175894  0.16791077  0.50142707  1
  Ni  Ni37  1  0.33570739  0.99909157  0.66792449  1
  Ni  Ni38  1  0.50283404  0.16493530  0.83351862  1
  Ni  Ni39  1  0.50147028  0.50124408  0.50024202  1
  Ni  Ni40  1  0.33496005  0.33464392  0.66676216  1
  Cr  Cr41  1  0.50237738  0.50044004  0.83227982  1
  Ni  Ni42  1  0.49930042  0.83264169  0.50216890  1
  Ni  Ni43  1  0.33273531  0.66806118  0.66624506  1
  Fe  Fe44  1  0.50152682  0.83602103  0.83256536  1
  Ni  Ni45  1  0.83284740  0.16857661  0.50183273  1
  Ni  Ni46  1  0.66692563  0.00107094  0.66823844  1
  Ni  Ni47  1  0.83124944  0.16787890  0.83314596  1
  Ni  Ni48  1  0.83284290  0.50028211  0.50059988  1
  Ni  Ni49  1  0.66762571  0.33261806  0.66630817  1
  Ni  Ni50  1  0.83513998  0.50115828  0.83491399  1
  Fe  Fe51  1  0.83441218  0.83267063  0.50143560  1
  Ni  Ni52  1  0.66787184  0.66810833  0.66655558  1
  Ni  Ni53  1  0.83360524  0.83276082  0.83304869  1
" 