7734,Ni76Fe4Cr18_6,-232.002113705748, 158.524137305813,Ni76Fe4Cr18,"# generated using pymatgen
 data_Cr11Fe2Ni41
_symmetry_space_group_name_H-M   'P 1'
_cell_length_a   7.47147244
_cell_length_b   7.47147244
_cell_length_c   10.56625765
_cell_angle_alpha   90.00000000
_cell_angle_beta   90.00000000
_cell_angle_gamma   90.00000000
_symmetry_Int_Tables_number   1
_chemical_formula_structural   Cr11Fe2Ni41
_chemical_formula_sum   'Cr11 Fe2 Ni41'
_cell_volume   589.83914883
_cell_formula_units_Z   1
loop_
 _symmetry_equiv_pos_site_id
 _symmetry_equiv_pos_as_xyz
  1  'x, y, z'
loop_
 _atom_site_type_symbol
 _atom_site_label
 _atom_site_symmetry_multiplicity
 _atom_site_fract_x
 _atom_site_fract_y
 _atom_site_fract_z
 _atom_site_occupancy
  Ni  Ni0  1  0.99906225  0.00091522  0.99858536  1
  Fe  Fe1  1  0.16661750  0.16724506  0.16519384  1
  Ni  Ni2  1  -0.00012288  0.99812310  0.33379285  1
  Ni  Ni3  1  -0.00012286  0.33320587  0.99882264  1
  Ni  Ni4  1  0.16670352  0.49927110  0.16568509  1
  Cr  Cr5  1  0.00057838  0.33324896  0.33186646  1
  Ni  Ni6  1  0.99933167  0.66499111  0.99911057  1
  Cr  Cr7  1  0.16485553  0.83222992  0.16622436  1
  Ni  Ni8  1  0.00014896  0.66755116  0.33349953  1
  Ni  Ni9  1  0.33221126  0.00051450  0.99818698  1
  Ni  Ni10  1  0.50088702  0.16843041  0.16692675  1
  Ni  Ni11  1  0.33321934  0.00072531  0.33564838  1
  Ni  Ni12  1  0.33203875  0.33425024  0.00093169  1
  Ni  Ni13  1  0.49979428  0.49696232  0.16655747  1
  Fe  Fe14  1  0.33507440  0.33338793  0.33316746  1
  Ni  Ni15  1  0.33298686  0.66434739  0.99743299  1
  Cr  Cr16  1  0.50056631  0.83351785  0.16560539  1
  Ni  Ni17  1  0.33295004  0.66494675  0.33535827  1
  Ni  Ni18  1  0.66783775  -0.00003240  -0.00027578  1
  Ni  Ni19  1  0.83134817  0.16605301  0.16541118  1
  Ni  Ni20  1  0.66601570  0.00000133  0.33352545  1
  Ni  Ni21  1  0.66719555  0.33398139  0.00050316  1
  Ni  Ni22  1  0.83261449  0.49951259  0.16558375  1
  Ni  Ni23  1  0.66341057  0.33316845  0.33164247  1
  Ni  Ni24  1  0.66679307  0.66516266  0.99834987  1
  Ni  Ni25  1  0.83365856  0.83354606  0.16701454  1
  Ni  Ni26  1  0.66601292  0.66594235  0.33385341  1
  Ni  Ni27  1  0.16925627  0.16362159  0.49918274  1
  Ni  Ni28  1  0.00036720  0.99942949  0.66673425  1
  Ni  Ni29  1  0.16439536  0.16474102  0.83441548  1
  Ni  Ni30  1  0.16909202  0.50077972  0.49737593  1
  Cr  Cr31  1  0.00117908  0.33155070  0.66840002  1
  Ni  Ni32  1  0.16600632  0.49985668  0.83604962  1
  Ni  Ni33  1  0.16669401  0.83470888  0.49830119  1
  Cr  Cr34  1  0.99917040  0.66806064  0.66659157  1
  Ni  Ni35  1  0.16634722  0.83451358  0.83415753  1
  Ni  Ni36  1  0.49764249  0.16466774  0.49799633  1
  Ni  Ni37  1  0.33229819  0.99903295  0.66527448  1
  Cr  Cr38  1  0.49989644  0.16473589  0.83404143  1
  Ni  Ni39  1  0.49845527  0.50038111  0.49732559  1
  Cr  Cr40  1  0.33197602  0.33259368  0.66463109  1
  Ni  Ni41  1  0.50053158  0.50228479  0.83522884  1
  Ni  Ni42  1  0.49980585  0.83406252  0.49952764  1
  Cr  Cr43  1  0.33471706  0.66775416  0.66673934  1
  Ni  Ni44  1  0.50018925  0.83208558  0.83333787  1
  Cr  Cr45  1  0.83202845  0.16299966  0.50027265  1
  Ni  Ni46  1  0.66644642  0.99659677  0.66586154  1
  Ni  Ni47  1  0.83500275  0.16508239  0.83421431  1
  Cr  Cr48  1  0.83173075  0.50250258  0.49871909  1
  Cr  Cr49  1  0.66595696  0.33390284  0.66716593  1
  Ni  Ni50  1  0.83257399  0.50033250  0.83525613  1
  Ni  Ni51  1  0.83261155  0.83389668  0.49873373  1
  Ni  Ni52  1  0.66539658  0.66893962  0.66690829  1
  Ni  Ni53  1  0.83257519  0.83369641  0.83336306  1
" 