449,Ni76Fe22Cr0_12,-242.075182700506, 209.051550727873,Ni76Fe22Cr0,"# generated using pymatgen
 data_CrFe12Ni41
_symmetry_space_group_name_H-M   'P 1'
_cell_length_a   7.42455801
_cell_length_b   7.42455801
_cell_length_c   10.49991064
_cell_angle_alpha   90.00000000
_cell_angle_beta   90.00000000
_cell_angle_gamma   90.00000000
_symmetry_Int_Tables_number   1
_chemical_formula_structural   CrFe12Ni41
_chemical_formula_sum   'Cr1 Fe12 Ni41'
_cell_volume   578.79772164
_cell_formula_units_Z   1
loop_
 _symmetry_equiv_pos_site_id
 _symmetry_equiv_pos_as_xyz
  1  'x, y, z'
loop_
 _atom_site_type_symbol
 _atom_site_label
 _atom_site_symmetry_multiplicity
 _atom_site_fract_x
 _atom_site_fract_y
 _atom_site_fract_z
 _atom_site_occupancy
  Ni  Ni0  1  0.00377570  1.00220844  1.00189803  1
  Ni  Ni1  1  0.16958187  0.16982485  0.16995177  1
  Ni  Ni2  1  0.00287552  0.00309460  0.33694168  1
  Fe  Fe3  1  0.00345166  0.33659413  0.00325996  1
  Ni  Ni4  1  0.16934050  0.50274142  0.17046907  1
  Ni  Ni5  1  0.00340127  0.33578058  0.33594748  1
  Ni  Ni6  1  1.00247745  0.67053471  0.00320978  1
  Fe  Fe7  1  0.16923600  0.83594683  0.16891066  1
  Ni  Ni8  1  0.00499977  0.66971479  0.33587844  1
  Ni  Ni9  1  0.33506278  0.00357405  0.00319125  1
  Ni  Ni10  1  0.50262633  0.16881131  0.17021449  1
  Fe  Fe11  1  0.33614245  0.00383169  0.33620400  1
  Ni  Ni12  1  0.33720496  0.33556574  1.00222364  1
  Ni  Ni13  1  0.50178741  0.50267542  0.16938264  1
  Ni  Ni14  1  0.33624122  0.33624634  0.33647644  1
  Ni  Ni15  1  0.33608458  0.66944466  1.00212465  1
  Ni  Ni16  1  0.50288070  0.83709521  0.16923587  1
  Ni  Ni17  1  0.33402301  0.66862285  0.33644539  1
  Fe  Fe18  1  0.66906364  1.00225648  0.00299823  1
  Ni  Ni19  1  0.83637673  0.16873353  0.17076907  1
  Ni  Ni20  1  0.67003218  0.00530817  0.33591466  1
  Ni  Ni21  1  0.66865614  0.33686108  0.00302129  1
  Ni  Ni22  1  0.83745961  0.50299297  0.16919049  1
  Ni  Ni23  1  0.66894147  0.33412011  0.33646003  1
  Ni  Ni24  1  0.67002181  0.66838921  1.00226188  1
  Ni  Ni25  1  0.83644012  0.83685510  0.16903974  1
  Cr  Cr26  1  0.66962187  0.66831331  0.33594536  1
  Ni  Ni27  1  0.17011155  0.16935775  0.50268357  1
  Fe  Fe28  1  1.00216207  1.00262832  0.67022733  1
  Ni  Ni29  1  0.16971178  0.16905834  0.83594818  1
  Ni  Ni30  1  0.16899454  0.50294255  0.50238577  1
  Fe  Fe31  1  1.00216367  0.33642562  0.66917715  1
  Ni  Ni32  1  0.16934395  0.50315691  0.83572332  1
  Fe  Fe33  1  0.16976297  0.83541419  0.50314458  1
  Ni  Ni34  1  1.00245341  0.66938866  0.66949480  1
  Ni  Ni35  1  0.16935786  0.83637230  0.83623998  1
  Ni  Ni36  1  0.50248577  0.16905046  0.50218239  1
  Ni  Ni37  1  0.33613957  0.00367140  0.66951349  1
  Ni  Ni38  1  0.50262343  0.16882427  0.83619075  1
  Ni  Ni39  1  0.50244595  0.50208943  0.50330829  1
  Fe  Fe40  1  0.33706421  0.33606978  0.66935009  1
  Ni  Ni41  1  0.50299125  0.50338167  0.83588598  1
  Fe  Fe42  1  0.50179604  0.83673750  0.50387409  1
  Fe  Fe43  1  0.33720976  0.66965358  0.66979344  1
  Ni  Ni44  1  0.50320551  0.83637739  0.83569102  1
  Fe  Fe45  1  0.83564459  0.17093402  0.50231955  1
  Ni  Ni46  1  0.66863662  0.00341197  0.67030586  1
  Ni  Ni47  1  0.83624441  0.16883897  0.83563180  1
  Ni  Ni48  1  0.83714590  0.50321560  0.50320091  1
  Ni  Ni49  1  0.66914317  0.33637687  0.66910564  1
  Ni  Ni50  1  0.83625598  0.50373445  0.83618859  1
  Fe  Fe51  1  0.83702847  0.83645855  0.50358239  1
  Ni  Ni52  1  0.67056872  0.66880067  0.66988484  1
  Ni  Ni53  1  0.83601892  0.83600803  0.83591699  1
" 