8584,Ni76Fe16Cr7_6,-238.345060906725, 190.613328541634,Ni76Fe16Cr7,"# generated using pymatgen
 data_Cr5Fe8Ni41
_symmetry_space_group_name_H-M   'P 1'
_cell_length_a   7.43878706
_cell_length_b   7.43878706
_cell_length_c   10.52003354
_cell_angle_alpha   90.00000000
_cell_angle_beta   90.00000000
_cell_angle_gamma   90.00000000
_symmetry_Int_Tables_number   1
_chemical_formula_structural   Cr5Fe8Ni41
_chemical_formula_sum   'Cr5 Fe8 Ni41'
_cell_volume   582.13187219
_cell_formula_units_Z   1
loop_
 _symmetry_equiv_pos_site_id
 _symmetry_equiv_pos_as_xyz
  1  'x, y, z'
loop_
 _atom_site_type_symbol
 _atom_site_label
 _atom_site_symmetry_multiplicity
 _atom_site_fract_x
 _atom_site_fract_y
 _atom_site_fract_z
 _atom_site_occupancy
  Ni  Ni0  1  0.99921848  0.00292287  1.00095972  1
  Cr  Cr1  1  0.16831161  0.16822657  0.16882162  1
  Ni  Ni2  1  1.00092957  0.00235967  0.33730855  1
  Ni  Ni3  1  1.00022938  0.33534641  1.00045670  1
  Cr  Cr4  1  0.16787985  0.50165387  0.16814506  1
  Ni  Ni5  1  0.99872857  0.33443290  0.33531150  1
  Ni  Ni6  1  0.99890113  0.66747849  1.00052737  1
  Cr  Cr7  1  0.16868114  0.83574572  0.16819639  1
  Ni  Ni8  1  0.99990055  0.66890399  0.33641292  1
  Ni  Ni9  1  0.33765300  0.00288048  1.00086569  1
  Ni  Ni10  1  0.50349846  0.16821410  0.16865624  1
  Ni  Ni11  1  0.33665967  1.00096964  0.33679917  1
  Ni  Ni12  1  0.33657338  0.33539080  1.00031288  1
  Ni  Ni13  1  0.50460863  0.50171510  0.16954561  1
  Fe  Fe14  1  0.33774889  0.33417626  0.33562661  1
  Ni  Ni15  1  0.33813519  0.66744886  1.00128144  1
  Ni  Ni16  1  0.50416775  0.83569697  0.16808177  1
  Ni  Ni17  1  0.33773449  0.67049479  0.33567024  1
  Ni  Ni18  1  0.66869534  1.00156938  0.00213526  1
  Fe  Fe19  1  0.83283843  0.16837878  0.16859901  1
  Ni  Ni20  1  0.66807659  0.00202778  0.33500544  1
  Ni  Ni21  1  0.66891360  0.33567148  1.00174114  1
  Ni  Ni22  1  0.83305447  0.50197501  0.16851758  1
  Ni  Ni23  1  0.66990838  0.33543489  0.33558141  1
  Ni  Ni24  1  0.66858018  0.66845594  0.00208573  1
  Ni  Ni25  1  0.83284001  0.83484349  0.16948511  1
  Ni  Ni26  1  0.66815874  0.66821897  0.33553462  1
  Ni  Ni27  1  0.16788199  0.16726080  0.50182025  1
  Fe  Fe28  1  1.00102535  0.00378175  0.66802286  1
  Ni  Ni29  1  0.16817225  0.17006416  0.83484836  1
  Cr  Cr30  1  0.16790091  0.50147226  0.50126105  1
  Ni  Ni31  1  1.00116186  0.33426257  0.66969998  1
  Ni  Ni32  1  0.16898236  0.49967715  0.83558508  1
  Ni  Ni33  1  0.17056738  0.83706654  0.50163409  1
  Fe  Fe34  1  1.00054517  0.66766423  0.66884547  1
  Cr  Cr35  1  0.16967147  0.83576509  0.83584408  1
  Fe  Fe36  1  0.50259988  0.16825246  0.50183236  1
  Ni  Ni37  1  0.33614174  0.00223165  0.66796846  1
  Fe  Fe38  1  0.50294156  0.16884605  0.83539468  1
  Fe  Fe39  1  0.50334014  0.50201079  0.50262053  1
  Ni  Ni40  1  0.33474854  0.33417131  0.66902154  1
  Ni  Ni41  1  0.50269473  0.50246168  0.83447817  1
  Ni  Ni42  1  0.50225193  0.83548686  0.50155984  1
  Ni  Ni43  1  0.33691558  0.66922660  0.66884754  1
  Ni  Ni44  1  0.50397870  0.83500569  0.83603851  1
  Ni  Ni45  1  0.83487788  0.16966912  0.50117336  1
  Ni  Ni46  1  0.66810682  1.00181481  0.66845307  1
  Ni  Ni47  1  0.83502226  0.16879211  0.83601296  1
  Ni  Ni48  1  0.83321625  0.50051164  0.50214749  1
  Ni  Ni49  1  0.66990967  0.33502685  0.66868797  1
  Ni  Ni50  1  0.83397334  0.50119167  0.83509539  1
  Fe  Fe51  1  0.83508133  0.83555581  0.50151383  1
  Ni  Ni52  1  0.66810747  0.66892166  0.66817014  1
  Ni  Ni53  1  0.83213312  0.83575068  0.83433334  1
" 