646,Ni76Fe7Cr15_0,-234.400392865105, 175.980255846617,Ni76Fe7Cr15,"# generated using pymatgen
 data_Cr9Fe4Ni41
_symmetry_space_group_name_H-M   'P 1'
_cell_length_a   7.45816946
_cell_length_b   7.45816946
_cell_length_c   10.54744441
_cell_angle_alpha   90.00000000
_cell_angle_beta   90.00000000
_cell_angle_gamma   90.00000000
_symmetry_Int_Tables_number   1
_chemical_formula_structural   Cr9Fe4Ni41
_chemical_formula_sum   'Cr9 Fe4 Ni41'
_cell_volume   586.69412509
_cell_formula_units_Z   1
loop_
 _symmetry_equiv_pos_site_id
 _symmetry_equiv_pos_as_xyz
  1  'x, y, z'
loop_
 _atom_site_type_symbol
 _atom_site_label
 _atom_site_symmetry_multiplicity
 _atom_site_fract_x
 _atom_site_fract_y
 _atom_site_fract_z
 _atom_site_occupancy
  Cr  Cr0  1  0.00164773  0.00182394  1.00011808  1
  Ni  Ni1  1  0.16867118  0.16776353  0.16707643  1
  Ni  Ni2  1  0.00078477  0.00126496  0.33385261  1
  Ni  Ni3  1  0.99993880  0.33481427  0.00122080  1
  Ni  Ni4  1  0.16913989  0.50009324  0.16612926  1
  Cr  Cr5  1  0.99914219  0.33349231  0.33298120  1
  Ni  Ni6  1  1.00033430  0.66468080  0.00085312  1
  Ni  Ni7  1  0.17033515  0.83393001  0.16788107  1
  Cr  Cr8  1  0.00200762  0.66765495  0.33444983  1
  Ni  Ni9  1  0.33495734  1.00003951  0.00140293  1
  Ni  Ni10  1  0.50039456  0.16768921  0.16843742  1
  Ni  Ni11  1  0.33512675  0.99915031  0.33267780  1
  Ni  Ni12  1  0.33339173  0.33410377  0.00262777  1
  Ni  Ni13  1  0.50016199  0.50040106  0.16714662  1
  Fe  Fe14  1  0.33574362  0.33394503  0.33203915  1
  Ni  Ni15  1  0.33525259  0.66764287  0.00157851  1
  Ni  Ni16  1  0.49904313  0.83369535  0.16744931  1
  Ni  Ni17  1  0.33489954  0.66880979  0.33289475  1
  Ni  Ni18  1  0.66549057  1.00043071  0.00067858  1
  Ni  Ni19  1  0.83272064  0.16888447  0.16751468  1
  Ni  Ni20  1  0.66587516  0.00213964  0.33507674  1
  Fe  Fe21  1  0.66786800  0.33511364  0.00183364  1
  Ni  Ni22  1  0.83248346  0.49873779  0.16617919  1
  Ni  Ni23  1  0.66713486  0.33274316  0.33237016  1
  Ni  Ni24  1  0.66620046  0.66624087  0.99961869  1
  Cr  Cr25  1  0.83258101  0.83428390  0.16762030  1
  Ni  Ni26  1  0.66503112  0.66690041  0.33401648  1
  Cr  Cr27  1  0.16721023  0.16715389  0.50210446  1
  Ni  Ni28  1  1.00019466  1.00031600  0.66795934  1
  Ni  Ni29  1  0.16614703  0.16680708  0.83283459  1
  Ni  Ni30  1  0.16809218  0.50169655  0.50235005  1
  Ni  Ni31  1  0.00079084  0.33386221  0.66750215  1
  Cr  Cr32  1  0.16781878  0.50004838  0.83321373  1
  Ni  Ni33  1  0.16748821  0.83299963  0.50122008  1
  Ni  Ni34  1  1.00026658  0.66760932  0.66623579  1
  Ni  Ni35  1  0.16773416  0.83485392  0.83268255  1
  Fe  Fe36  1  0.50123975  0.16407516  0.49966290  1
  Ni  Ni37  1  0.33358525  0.99899748  0.66770532  1
  Cr  Cr38  1  0.49939236  0.16665413  0.83378941  1
  Cr  Cr39  1  0.49895116  0.50177346  0.50012459  1
  Ni  Ni40  1  0.33181832  0.33400137  0.66670023  1
  Ni  Ni41  1  0.50134618  0.50315112  0.83478301  1
  Ni  Ni42  1  0.50157131  0.83437980  0.50067153  1
  Ni  Ni43  1  0.33365603  0.66878200  0.66731121  1
  Ni  Ni44  1  0.50131608  0.83221544  0.83366322  1
  Ni  Ni45  1  0.83304837  0.16478117  0.50044007  1
  Ni  Ni46  1  0.66800378  0.99847995  0.66603277  1
  Ni  Ni47  1  0.83576072  0.16683609  0.83382770  1
  Fe  Fe48  1  0.83497598  0.50220524  0.50139215  1
  Cr  Cr49  1  0.66892219  0.33392813  0.66782641  1
  Ni  Ni50  1  0.83312283  0.50156592  0.83415565  1
  Ni  Ni51  1  0.83272881  0.83573597  0.50159940  1
  Ni  Ni52  1  0.66786466  0.66937681  0.66814968  1
  Ni  Ni53  1  0.83273601  0.83338487  0.83247748  1
" 