7778,Ni76Fe6Cr17_0,-233.177537663494, 167.967246684661,Ni76Fe6Cr17,"# generated using pymatgen
 data_Cr10Fe3Ni41
_symmetry_space_group_name_H-M   'P 1'
_cell_length_a   7.46110966
_cell_length_b   7.46110966
_cell_length_c   10.55160247
_cell_angle_alpha   90.00000000
_cell_angle_beta   90.00000000
_cell_angle_gamma   90.00000000
_symmetry_Int_Tables_number   1
_chemical_formula_structural   Cr10Fe3Ni41
_chemical_formula_sum   'Cr10 Fe3 Ni41'
_cell_volume   587.38826700
_cell_formula_units_Z   1
loop_
 _symmetry_equiv_pos_site_id
 _symmetry_equiv_pos_as_xyz
  1  'x, y, z'
loop_
 _atom_site_type_symbol
 _atom_site_label
 _atom_site_symmetry_multiplicity
 _atom_site_fract_x
 _atom_site_fract_y
 _atom_site_fract_z
 _atom_site_occupancy
  Ni  Ni0  1  0.00070044  0.00046087  0.00081307  1
  Ni  Ni1  1  0.16599071  0.16738192  0.16655392  1
  Ni  Ni2  1  1.00025114  0.00220957  0.33324103  1
  Ni  Ni3  1  0.00212600  0.33425040  0.00056712  1
  Ni  Ni4  1  0.16577071  0.49874401  0.16576043  1
  Ni  Ni5  1  0.99786076  0.33184705  0.33171538  1
  Ni  Ni6  1  0.00051462  0.66648198  1.00023852  1
  Ni  Ni7  1  0.16732994  0.83506754  0.16665933  1
  Cr  Cr8  1  1.00020103  0.66759670  0.33348552  1
  Ni  Ni9  1  0.33251110  0.99830882  0.00046348  1
  Cr  Cr10  1  0.49920480  0.16473045  0.16778034  1
  Ni  Ni11  1  0.33314785  0.99734155  0.33291169  1
  Ni  Ni12  1  0.32865455  0.33397408  0.00094600  1
  Cr  Cr13  1  0.49977387  0.50229848  0.16782590  1
  Fe  Fe14  1  0.33319924  0.33426277  0.33271322  1
  Ni  Ni15  1  0.33241989  0.66891066  0.00040480  1
  Ni  Ni16  1  0.50078019  0.83441542  0.16669104  1
  Ni  Ni17  1  0.33608798  0.66933932  0.33416323  1
  Ni  Ni18  1  0.66798284  0.99669609  1.00035182  1
  Fe  Fe19  1  0.83683342  0.16586551  0.16809513  1
  Ni  Ni20  1  0.66779550  0.99945645  0.33383843  1
  Cr  Cr21  1  0.67034224  0.33416154  0.99983214  1
  Ni  Ni22  1  0.83584250  0.50081523  0.16688381  1
  Ni  Ni23  1  0.66999791  0.33478744  0.33556153  1
  Ni  Ni24  1  0.66826022  0.67033639  0.00098627  1
  Ni  Ni25  1  0.83308412  0.83419498  0.16581609  1
  Ni  Ni26  1  0.66513156  0.66695025  0.33445760  1
  Cr  Cr27  1  0.16562543  0.16519196  0.50082220  1
  Ni  Ni28  1  0.99999738  1.00012175  0.66713911  1
  Fe  Fe29  1  0.16499014  0.16685286  0.83410515  1
  Cr  Cr30  1  0.16770919  0.50165857  0.50126664  1
  Ni  Ni31  1  0.99847352  0.33369777  0.66890957  1
  Ni  Ni32  1  0.16526451  0.50060337  0.83409440  1
  Ni  Ni33  1  0.16776399  0.83438967  0.50126134  1
  Ni  Ni34  1  0.00174970  0.66737388  0.66785702  1
  Ni  Ni35  1  0.16674375  0.83310415  0.83327388  1
  Cr  Cr36  1  0.50210787  0.16736697  0.50079355  1
  Ni  Ni37  1  0.33286066  0.99788223  0.66781852  1
  Cr  Cr38  1  0.50018080  0.16489827  0.83261953  1
  Ni  Ni39  1  0.50159885  0.50089778  0.49940858  1
  Ni  Ni40  1  0.33304527  0.33460010  0.66752351  1
  Cr  Cr41  1  0.49853358  0.50106083  0.83387086  1
  Ni  Ni42  1  0.49985218  0.83297373  0.49933047  1
  Ni  Ni43  1  0.33201012  0.66871165  0.66662561  1
  Ni  Ni44  1  0.49944984  0.83550680  0.83517262  1
  Ni  Ni45  1  0.83295230  0.16702869  0.49993774  1
  Ni  Ni46  1  0.66833502  0.00115967  0.66700269  1
  Ni  Ni47  1  0.83536031  0.16620162  0.83285200  1
  Ni  Ni48  1  0.83153647  0.49868752  0.50066360  1
  Ni  Ni49  1  0.66967390  0.33284685  0.66552268  1
  Ni  Ni50  1  0.83776313  0.49992326  0.83364674  1
  Ni  Ni51  1  0.83357786  0.83547728  0.50063951  1
  Cr  Cr52  1  0.66753741  0.66731670  0.66583433  1
  Ni  Ni53  1  0.83499976  0.83506865  0.83473936  1
" 