8402,Ni76Fe4Cr18_3,-232.162986197521, 161.715761840317,Ni76Fe4Cr18,"# generated using pymatgen
 data_Cr11Fe2Ni41
_symmetry_space_group_name_H-M   'P 1'
_cell_length_a   7.47127083
_cell_length_b   7.47127083
_cell_length_c   10.56597254
_cell_angle_alpha   90.00000000
_cell_angle_beta   90.00000000
_cell_angle_gamma   90.00000000
_symmetry_Int_Tables_number   1
_chemical_formula_structural   Cr11Fe2Ni41
_chemical_formula_sum   'Cr11 Fe2 Ni41'
_cell_volume   589.79140162
_cell_formula_units_Z   1
loop_
 _symmetry_equiv_pos_site_id
 _symmetry_equiv_pos_as_xyz
  1  'x, y, z'
loop_
 _atom_site_type_symbol
 _atom_site_label
 _atom_site_symmetry_multiplicity
 _atom_site_fract_x
 _atom_site_fract_y
 _atom_site_fract_z
 _atom_site_occupancy
  Ni  Ni0  1  0.99938671  0.00081999  0.99787672  1
  Ni  Ni1  1  0.16474100  0.17003129  0.16485155  1
  Cr  Cr2  1  0.00060921  0.00173791  0.33443938  1
  Ni  Ni3  1  0.00107802  0.33316601  0.00060118  1
  Ni  Ni4  1  0.16663027  0.49774431  0.16702232  1
  Ni  Ni5  1  0.99899721  0.33567667  0.33256282  1
  Ni  Ni6  1  0.00054026  0.66516796  0.99853338  1
  Cr  Cr7  1  0.16758796  0.83196684  0.16537963  1
  Ni  Ni8  1  0.00053054  0.66158829  0.33419504  1
  Ni  Ni9  1  0.33333447  0.99878948  0.99854859  1
  Cr  Cr10  1  0.49846895  0.16715865  0.16622967  1
  Cr  Cr11  1  0.33278028  -0.00004369  0.33378035  1
  Ni  Ni12  1  0.33029221  0.33384590  0.99919070  1
  Ni  Ni13  1  0.49881279  0.50233024  0.16801570  1
  Ni  Ni14  1  0.33151917  0.33525681  0.33287179  1
  Ni  Ni15  1  0.33285932  0.66651804  0.99925643  1
  Ni  Ni16  1  0.50009598  0.82958819  0.16512147  1
  Ni  Ni17  1  0.33201493  0.66403976  0.33236970  1
  Ni  Ni18  1  0.66643080  0.99824862  0.99854789  1
  Ni  Ni19  1  0.83549629  0.16874979  0.16615143  1
  Cr  Cr20  1  0.66576195  0.00183890  0.33263066  1
  Cr  Cr21  1  0.66745653  0.33302761  0.99897472  1
  Ni  Ni22  1  0.83370850  0.49892447  0.16840533  1
  Ni  Ni23  1  0.66863542  0.33501885  0.33374876  1
  Fe  Fe24  1  0.66546162  0.66739070  0.99889965  1
  Cr  Cr25  1  0.83156168  0.83193891  0.16490288  1
  Ni  Ni26  1  0.66660650  0.66274382  0.33059010  1
  Ni  Ni27  1  0.16629035  0.16780842  0.50076856  1
  Fe  Fe28  1  0.00064562  0.00240931  0.66748149  1
  Ni  Ni29  1  0.16649697  0.16636915  0.83353242  1
  Ni  Ni30  1  0.16541387  0.49882296  0.49797768  1
  Ni  Ni31  1  0.99899715  0.33199350  0.66598841  1
  Ni  Ni32  1  0.16749626  0.49897870  0.83415177  1
  Ni  Ni33  1  0.16702913  0.83252134  0.50005832  1
  Cr  Cr34  1  0.00097237  0.66489118  0.66652696  1
  Ni  Ni35  1  0.16723311  0.83380562  0.83361239  1
  Ni  Ni36  1  0.49957272  0.16789832  0.50119382  1
  Ni  Ni37  1  0.33355206  0.00030758  0.66668873  1
  Ni  Ni38  1  0.49891485  0.16534913  0.83162363  1
  Cr  Cr39  1  0.49974457  0.49802143  0.49962276  1
  Ni  Ni40  1  0.33258387  0.33143319  0.66709051  1
  Ni  Ni41  1  0.49881155  0.50089735  0.83203907  1
  Cr  Cr42  1  0.49835529  0.83269354  0.50054487  1
  Ni  Ni43  1  0.33274840  0.66741216  0.66752634  1
  Ni  Ni44  1  0.50009757  0.83290621  0.83334374  1
  Ni  Ni45  1  0.83328968  0.16951391  0.50077046  1
  Ni  Ni46  1  0.66531388  0.00184122  0.66773940  1
  Ni  Ni47  1  0.83374097  0.16508569  0.83223062  1
  Ni  Ni48  1  0.83416294  0.49711863  0.49797783  1
  Ni  Ni49  1  0.66757093  0.33119116  0.66621289  1
  Ni  Ni50  1  0.83284237  0.50016118  0.83276897  1
  Cr  Cr51  1  0.83376567  0.83201665  0.50010931  1
  Ni  Ni52  1  0.66587624  0.66612036  0.66930656  1
  Ni  Ni53  1  0.83182097  0.83390573  0.83415261  1
" 