22,Ni76Fe8Cr15_13,-234.263949759959, 171.701757007439,Ni76Fe8Cr15,"# generated using pymatgen
 data_Cr9Fe4Ni41
_symmetry_space_group_name_H-M   'P 1'
_cell_length_a   7.45667001
_cell_length_b   7.45667001
_cell_length_c   10.54532385
_cell_angle_alpha   90.00000000
_cell_angle_beta   90.00000000
_cell_angle_gamma   90.00000000
_symmetry_Int_Tables_number   1
_chemical_formula_structural   Cr9Fe4Ni41
_chemical_formula_sum   'Cr9 Fe4 Ni41'
_cell_volume   586.34033318
_cell_formula_units_Z   1
loop_
 _symmetry_equiv_pos_site_id
 _symmetry_equiv_pos_as_xyz
  1  'x, y, z'
loop_
 _atom_site_type_symbol
 _atom_site_label
 _atom_site_symmetry_multiplicity
 _atom_site_fract_x
 _atom_site_fract_y
 _atom_site_fract_z
 _atom_site_occupancy
  Ni  Ni0  1  1.00009515  1.00035352  1.00065128  1
  Ni  Ni1  1  0.16718820  0.16736834  0.16741557  1
  Ni  Ni2  1  0.99881129  1.00064004  0.33232425  1
  Ni  Ni3  1  1.00028986  0.33489176  1.00035465  1
  Ni  Ni4  1  0.16438438  0.49941653  0.16856110  1
  Ni  Ni5  1  1.00011582  0.33520692  0.33347867  1
  Ni  Ni6  1  0.99932789  0.66684245  0.99996359  1
  Fe  Fe7  1  0.16482209  0.83529774  0.16798127  1
  Ni  Ni8  1  1.00018263  0.66624115  0.33367847  1
  Ni  Ni9  1  0.33407748  0.00301589  0.99916526  1
  Ni  Ni10  1  0.50010580  0.16662932  0.16705446  1
  Ni  Ni11  1  0.33444497  1.00030090  0.33224550  1
  Ni  Ni12  1  0.33288125  0.33122992  0.00077956  1
  Cr  Cr13  1  0.50174297  0.49858497  0.16824799  1
  Ni  Ni14  1  0.33325533  0.33566113  0.33285742  1
  Cr  Cr15  1  0.33134487  0.66762085  0.99920663  1
  Cr  Cr16  1  0.50134201  0.83629971  0.16845520  1
  Ni  Ni17  1  0.33352884  0.66612505  0.33617456  1
  Ni  Ni18  1  0.66791547  0.00205699  0.99916402  1
  Ni  Ni19  1  0.83479376  0.16756962  0.16789841  1
  Ni  Ni20  1  0.66882884  1.00036816  0.33492484  1
  Ni  Ni21  1  0.66891770  0.33199253  1.00019002  1
  Ni  Ni22  1  0.83636990  0.50045166  0.16712819  1
  Ni  Ni23  1  0.66871589  0.33429078  0.33475784  1
  Fe  Fe24  1  0.67177877  0.66806249  0.99980444  1
  Fe  Fe25  1  0.83598827  0.83457743  0.16764502  1
  Ni  Ni26  1  0.66837778  0.66742884  0.33555742  1
  Cr  Cr27  1  0.16461737  0.16776065  0.49981946  1
  Ni  Ni28  1  0.99880697  0.00131881  0.66911337  1
  Ni  Ni29  1  0.16678319  0.16590847  0.83512500  1
  Ni  Ni30  1  0.16680325  0.50211461  0.49972602  1
  Ni  Ni31  1  0.99822256  0.33437504  0.66825566  1
  Ni  Ni32  1  0.16405619  0.50102748  0.83379945  1
  Cr  Cr33  1  0.16788646  0.83298188  0.50067814  1
  Fe  Fe34  1  0.00136667  0.66669824  0.66840716  1
  Ni  Ni35  1  0.16712152  0.83515224  0.83331631  1
  Cr  Cr36  1  0.50314769  0.16633557  0.49948921  1
  Ni  Ni37  1  0.33476875  0.99718436  0.67067787  1
  Ni  Ni38  1  0.50121973  0.16415055  0.83565286  1
  Ni  Ni39  1  0.50097829  0.50322410  0.49823721  1
  Cr  Cr40  1  0.33286353  0.33559860  0.66840272  1
  Cr  Cr41  1  0.50174978  0.49976661  0.83566280  1
  Ni  Ni42  1  0.50155212  0.83242777  0.50025697  1
  Ni  Ni43  1  0.33283321  0.66920374  0.66668719  1
  Ni  Ni44  1  0.50003224  0.83776015  0.83319518  1
  Ni  Ni45  1  0.83366452  0.16761086  0.50091507  1
  Ni  Ni46  1  0.66851218  0.00102840  0.66799866  1
  Ni  Ni47  1  0.83408521  0.16721786  0.83327491  1
  Ni  Ni48  1  0.83430498  0.49988527  0.49972860  1
  Ni  Ni49  1  0.67132072  0.33244145  0.66714002  1
  Ni  Ni50  1  0.83669350  0.49983929  0.83522978  1
  Ni  Ni51  1  0.83255312  0.83459165  0.49904270  1
  Cr  Cr52  1  0.66707123  0.66841763  0.66655500  1
  Ni  Ni53  1  0.83493430  0.83503047  0.83552355  1
" 