6446,Ni76Fe16Cr7_19,-238.468664819626, 193.7529597463,Ni76Fe16Cr7,"# generated using pymatgen
 data_Cr5Fe8Ni41
_symmetry_space_group_name_H-M   'P 1'
_cell_length_a   7.43951370
_cell_length_b   7.43951370
_cell_length_c   10.52106117
_cell_angle_alpha   90.00000000
_cell_angle_beta   90.00000000
_cell_angle_gamma   90.00000000
_symmetry_Int_Tables_number   1
_chemical_formula_structural   Cr5Fe8Ni41
_chemical_formula_sum   'Cr5 Fe8 Ni41'
_cell_volume   582.30248258
_cell_formula_units_Z   1
loop_
 _symmetry_equiv_pos_site_id
 _symmetry_equiv_pos_as_xyz
  1  'x, y, z'
loop_
 _atom_site_type_symbol
 _atom_site_label
 _atom_site_symmetry_multiplicity
 _atom_site_fract_x
 _atom_site_fract_y
 _atom_site_fract_z
 _atom_site_occupancy
  Ni  Ni0  1  1.00145188  0.00320732  1.00174516  1
  Ni  Ni1  1  0.16772994  0.16658552  0.16742509  1
  Ni  Ni2  1  1.00092937  0.00217993  0.33565805  1
  Ni  Ni3  1  0.00284234  0.33349003  0.00270164  1
  Ni  Ni4  1  0.16869731  0.50282266  0.16706205  1
  Ni  Ni5  1  0.99998157  0.33479935  0.33456278  1
  Cr  Cr6  1  1.00124143  0.66869600  0.99989534  1
  Ni  Ni7  1  0.16863085  0.83609066  0.16923289  1
  Fe  Fe8  1  0.00269825  0.66932157  0.33473676  1
  Ni  Ni9  1  0.33526354  1.00113318  0.00242710  1
  Ni  Ni10  1  0.50209811  0.16740350  0.16794736  1
  Ni  Ni11  1  0.33441342  0.99821492  0.33489210  1
  Ni  Ni12  1  0.33397687  0.33538457  1.00119459  1
  Ni  Ni13  1  0.50223555  0.50320292  0.16849794  1
  Cr  Cr14  1  0.33357962  0.33658064  0.33503161  1
  Ni  Ni15  1  0.33721336  0.66887945  1.00147996  1
  Fe  Fe16  1  0.50174718  0.83572027  0.16842502  1
  Ni  Ni17  1  0.33600523  0.66991838  0.33565154  1
  Ni  Ni18  1  0.66869115  0.99992758  1.00106140  1
  Ni  Ni19  1  0.83566571  0.16727250  0.16919664  1
  Ni  Ni20  1  0.67027153  1.00055059  0.33514347  1
  Cr  Cr21  1  0.66903488  0.33530782  1.00184471  1
  Ni  Ni22  1  0.83482913  0.50245061  0.17043256  1
  Ni  Ni23  1  0.67122550  0.33591050  0.33586017  1
  Ni  Ni24  1  0.66680639  0.67019717  0.00287879  1
  Ni  Ni25  1  0.83548527  0.83608688  0.16786978  1
  Fe  Fe26  1  0.66861502  0.66937507  0.33552318  1
  Ni  Ni27  1  0.16698194  0.16619860  0.50133197  1
  Ni  Ni28  1  1.00130997  1.00132867  0.66836069  1
  Ni  Ni29  1  0.16935643  0.16565675  0.83682641  1
  Ni  Ni30  1  0.16821965  0.50453379  0.50248774  1
  Cr  Cr31  1  0.00208582  0.33348133  0.66815654  1
  Fe  Fe32  1  0.17136500  0.50078418  0.83535126  1
  Ni  Ni33  1  0.16840028  0.83515102  0.50181755  1
  Fe  Fe34  1  0.00312645  0.67005735  0.66857378  1
  Ni  Ni35  1  0.16999767  0.83677224  0.83409031  1
  Cr  Cr36  1  0.50205582  0.16774370  0.50367518  1
  Ni  Ni37  1  0.33332479  1.00009046  0.66826611  1
  Ni  Ni38  1  0.50022518  0.16755348  0.83428504  1
  Ni  Ni39  1  0.50310214  0.50429890  0.50311319  1
  Ni  Ni40  1  0.33494990  0.33630752  0.66930857  1
  Ni  Ni41  1  0.50245542  0.50323024  0.83435064  1
  Ni  Ni42  1  0.50146585  0.83348446  0.50104223  1
  Ni  Ni43  1  0.33765331  0.66921321  0.66833213  1
  Ni  Ni44  1  0.50017365  0.83465311  0.83624060  1
  Ni  Ni45  1  0.83586754  0.16774174  0.50079685  1
  Fe  Fe46  1  0.66797728  1.00015612  0.66935302  1
  Ni  Ni47  1  0.83566553  0.16796293  0.83560416  1
  Ni  Ni48  1  0.83444335  0.50316133  0.50050725  1
  Fe  Fe49  1  0.66778345  0.33613142  0.66913963  1
  Ni  Ni50  1  0.83338810  0.50272060  0.83456483  1
  Ni  Ni51  1  0.83589615  0.83491753  0.50328348  1
  Ni  Ni52  1  0.66807310  0.66907271  0.66816051  1
  Fe  Fe53  1  0.83322379  0.83681498  0.83453064  1
" 