4056,Ni76Fe6Cr17_7,-233.370512386656, 169.323084273861,Ni76Fe6Cr17,"# generated using pymatgen
 data_Cr10Fe3Ni41
_symmetry_space_group_name_H-M   'P 1'
_cell_length_a   7.46418304
_cell_length_b   7.46418304
_cell_length_c   10.55594889
_cell_angle_alpha   90.00000000
_cell_angle_beta   90.00000000
_cell_angle_gamma   90.00000000
_symmetry_Int_Tables_number   1
_chemical_formula_structural   Cr10Fe3Ni41
_chemical_formula_sum   'Cr10 Fe3 Ni41'
_cell_volume   588.11443669
_cell_formula_units_Z   1
loop_
 _symmetry_equiv_pos_site_id
 _symmetry_equiv_pos_as_xyz
  1  'x, y, z'
loop_
 _atom_site_type_symbol
 _atom_site_label
 _atom_site_symmetry_multiplicity
 _atom_site_fract_x
 _atom_site_fract_y
 _atom_site_fract_z
 _atom_site_occupancy
  Ni  Ni0  1  0.99981323  0.99930487  0.99944339  1
  Fe  Fe1  1  0.16754730  0.16628632  0.16485639  1
  Cr  Cr2  1  0.99877338  0.99905169  0.33310031  1
  Fe  Fe3  1  0.00053302  0.33070577  0.00088932  1
  Ni  Ni4  1  0.16641041  0.50100800  0.16764380  1
  Ni  Ni5  1  0.99839009  0.33583977  0.33338782  1
  Ni  Ni6  1  0.99950617  0.67029617  0.00123828  1
  Ni  Ni7  1  0.16747954  0.83293031  0.16730089  1
  Ni  Ni8  1  0.00174142  0.66618897  0.33467554  1
  Ni  Ni9  1  0.33260305  0.00232375  1.00002484  1
  Ni  Ni10  1  0.50130669  0.16523500  0.16663479  1
  Ni  Ni11  1  0.33517283  0.99793676  0.33172867  1
  Ni  Ni12  1  0.33503893  0.33169288  0.00055341  1
  Ni  Ni13  1  0.49977416  0.50016205  0.16691851  1
  Cr  Cr14  1  0.33515808  0.33502891  0.33287373  1
  Cr  Cr15  1  0.33428135  0.66659776  0.00063745  1
  Ni  Ni16  1  0.50010466  0.83517700  0.16798880  1
  Ni  Ni17  1  0.33209860  0.66719312  0.33269297  1
  Ni  Ni18  1  0.66816002  0.00072071  0.00036044  1
  Ni  Ni19  1  0.83214443  0.16630535  0.16633877  1
  Ni  Ni20  1  0.66633762  0.00129330  0.33241830  1
  Ni  Ni21  1  0.66442525  0.33200033  1.00011281  1
  Cr  Cr22  1  0.83407208  0.49987595  0.16643320  1
  Ni  Ni23  1  0.66734618  0.33276288  0.33495918  1
  Ni  Ni24  1  0.66744881  0.66785540  0.99956845  1
  Ni  Ni25  1  0.83299153  0.83446168  0.16624574  1
  Ni  Ni26  1  0.66673487  0.66652049  0.33343675  1
  Cr  Cr27  1  0.16697566  0.16641642  0.50231987  1
  Ni  Ni28  1  0.99942129  0.00115000  0.66819015  1
  Ni  Ni29  1  0.16712638  0.16454253  0.83355143  1
  Ni  Ni30  1  0.16464148  0.50151081  0.49895621  1
  Ni  Ni31  1  0.99952088  0.33049589  0.66604845  1
  Cr  Cr32  1  0.16697311  0.49773717  0.83402567  1
  Ni  Ni33  1  0.16667883  0.83215783  0.49934907  1
  Cr  Cr34  1  0.99925569  0.66926378  0.66481511  1
  Ni  Ni35  1  0.16637329  0.83824806  0.83392492  1
  Ni  Ni36  1  0.50318393  0.16729764  0.50112730  1
  Ni  Ni37  1  0.33293698  0.00241654  0.66882207  1
  Ni  Ni38  1  0.49975215  0.16614017  0.83281315  1
  Ni  Ni39  1  0.50253710  0.49899294  0.50046200  1
  Ni  Ni40  1  0.33559421  0.33198141  0.66716266  1
  Ni  Ni41  1  0.50210334  0.49893209  0.83319560  1
  Cr  Cr42  1  0.49977805  0.83513066  0.49875656  1
  Cr  Cr43  1  0.33470059  0.66586004  0.66721355  1
  Ni  Ni44  1  0.50165720  0.83550250  0.83367102  1
  Ni  Ni45  1  0.83126969  0.16933757  0.50112738  1
  Ni  Ni46  1  0.66821813  0.00191354  0.66779595  1
  Ni  Ni47  1  0.83369705  0.16498987  0.83310744  1
  Ni  Ni48  1  0.83339827  0.49843658  0.49910466  1
  Ni  Ni49  1  0.66546173  0.33238848  0.66550307  1
  Cr  Cr50  1  0.83126472  0.49957002  0.83498156  1
  Fe  Fe51  1  0.83317156  0.83302449  0.50024412  1
  Ni  Ni52  1  0.66673138  0.66627488  0.66757025  1
  Ni  Ni53  1  0.83254557  0.83589485  0.83406016  1
" 