1759,Ni76Fe7Cr15_5,-234.124998052933, 170.44830865255,Ni76Fe7Cr15,"# generated using pymatgen
 data_Cr9Fe4Ni41
_symmetry_space_group_name_H-M   'P 1'
_cell_length_a   7.45863836
_cell_length_b   7.45863836
_cell_length_c   10.54810752
_cell_angle_alpha   90.00000000
_cell_angle_beta   90.00000000
_cell_angle_gamma   90.00000000
_symmetry_Int_Tables_number   1
_chemical_formula_structural   Cr9Fe4Ni41
_chemical_formula_sum   'Cr9 Fe4 Ni41'
_cell_volume   586.80478829
_cell_formula_units_Z   1
loop_
 _symmetry_equiv_pos_site_id
 _symmetry_equiv_pos_as_xyz
  1  'x, y, z'
loop_
 _atom_site_type_symbol
 _atom_site_label
 _atom_site_symmetry_multiplicity
 _atom_site_fract_x
 _atom_site_fract_y
 _atom_site_fract_z
 _atom_site_occupancy
  Ni  Ni0  1  0.00112110  0.00135898  0.00087519  1
  Ni  Ni1  1  0.16714618  0.17000424  0.16529119  1
  Ni  Ni2  1  1.00006221  0.00251357  0.33454671  1
  Ni  Ni3  1  0.00097920  0.33476675  0.00138701  1
  Ni  Ni4  1  0.16553641  0.49724630  0.16845287  1
  Ni  Ni5  1  0.00158711  0.33198344  0.33298645  1
  Ni  Ni6  1  0.99873640  0.66578181  1.00001195  1
  Cr  Cr7  1  0.16494937  0.83388023  0.16781281  1
  Fe  Fe8  1  1.00008478  0.66606382  0.33397663  1
  Ni  Ni9  1  0.33340809  0.00310556  0.99885168  1
  Ni  Ni10  1  0.50000563  0.17087262  0.16530655  1
  Cr  Cr11  1  0.33065725  0.00425218  0.33514615  1
  Fe  Fe12  1  0.33340987  0.33262803  1.00040232  1
  Ni  Ni13  1  0.50184014  0.49735137  0.16790033  1
  Ni  Ni14  1  0.33321261  0.33638715  0.33295371  1
  Cr  Cr15  1  0.33301385  0.66518568  0.99805742  1
  Cr  Cr16  1  0.50210271  0.83381801  0.16663497  1
  Ni  Ni17  1  0.33328880  0.66222426  0.33528557  1
  Ni  Ni18  1  0.66747181  0.00114156  0.00087139  1
  Fe  Fe19  1  0.83509326  0.16898853  0.16634354  1
  Cr  Cr20  1  0.67099962  0.00315195  0.33452154  1
  Ni  Ni21  1  0.66754719  0.33499668  0.00151202  1
  Ni  Ni22  1  0.83408793  0.50043379  0.16678217  1
  Ni  Ni23  1  0.66698684  0.33572672  0.33338452  1
  Ni  Ni24  1  0.66905835  0.66577560  0.99966351  1
  Ni  Ni25  1  0.83468712  0.83203181  0.16591108  1
  Ni  Ni26  1  0.66738270  0.66441353  0.33225296  1
  Ni  Ni27  1  0.16638837  0.16873069  0.50199696  1
  Ni  Ni28  1  0.00167616  1.00034495  0.66607952  1
  Ni  Ni29  1  0.16929229  0.16780670  0.83429034  1
  Ni  Ni30  1  0.16846400  0.49967625  0.50009710  1
  Ni  Ni31  1  0.00252100  0.33371106  0.66728476  1
  Ni  Ni32  1  0.16443837  0.49943433  0.83285202  1
  Ni  Ni33  1  0.16457471  0.83298860  0.50126899  1
  Ni  Ni34  1  0.00338655  0.66773758  0.66827550  1
  Ni  Ni35  1  0.16670094  0.83428238  0.83290508  1
  Ni  Ni36  1  0.50027497  0.17086751  0.50250649  1
  Ni  Ni37  1  0.33244849  0.00134025  0.66799667  1
  Ni  Ni38  1  0.49942224  0.16663639  0.83379044  1
  Ni  Ni39  1  0.49853497  0.49729392  0.49979945  1
  Ni  Ni40  1  0.33308524  0.33414200  0.66771441  1
  Fe  Fe41  1  0.50050340  0.49865754  0.83341772  1
  Cr  Cr42  1  0.49924510  0.83268783  0.50076366  1
  Ni  Ni43  1  0.33125476  0.66603347  0.66770594  1
  Ni  Ni44  1  0.50046462  0.83694675  0.83441057  1
  Ni  Ni45  1  0.83499024  0.16721316  0.50141412  1
  Ni  Ni46  1  0.66763862  0.00204333  0.66667093  1
  Cr  Cr47  1  0.83424043  0.16890769  0.83307238  1
  Cr  Cr48  1  0.83517451  0.49884809  0.50101885  1
  Ni  Ni49  1  0.66587803  0.33227109  0.66660605  1
  Ni  Ni50  1  0.83576842  0.50100133  0.83490767  1
  Ni  Ni51  1  0.83707179  0.83497643  0.50059586  1
  Cr  Cr52  1  0.66777669  0.66683384  0.67042295  1
  Ni  Ni53  1  0.83476971  0.83294388  0.83545451  1
" 