5134,Ni76Fe7Cr15_19,-234.297207215846, 171.579937914405,Ni76Fe7Cr15,"# generated using pymatgen
 data_Cr9Fe4Ni41
_symmetry_space_group_name_H-M   'P 1'
_cell_length_a   7.45754826
_cell_length_b   7.45754826
_cell_length_c   10.54656589
_cell_angle_alpha   90.00000000
_cell_angle_beta   90.00000000
_cell_angle_gamma   90.00000000
_symmetry_Int_Tables_number   1
_chemical_formula_structural   Cr9Fe4Ni41
_chemical_formula_sum   'Cr9 Fe4 Ni41'
_cell_volume   586.54753649
_cell_formula_units_Z   1
loop_
 _symmetry_equiv_pos_site_id
 _symmetry_equiv_pos_as_xyz
  1  'x, y, z'
loop_
 _atom_site_type_symbol
 _atom_site_label
 _atom_site_symmetry_multiplicity
 _atom_site_fract_x
 _atom_site_fract_y
 _atom_site_fract_z
 _atom_site_occupancy
  Ni  Ni0  1  0.00213223  0.99891486  0.99966744  1
  Ni  Ni1  1  0.16972307  0.16746184  0.16619802  1
  Ni  Ni2  1  0.00154260  0.99778841  0.33476218  1
  Ni  Ni3  1  0.00362200  0.33390756  0.00142976  1
  Ni  Ni4  1  0.16765343  0.50032579  0.16658865  1
  Cr  Cr5  1  0.00370663  0.33387554  0.33358960  1
  Ni  Ni6  1  0.99982666  0.66908682  0.00378552  1
  Ni  Ni7  1  0.16526141  0.83412538  0.16730455  1
  Fe  Fe8  1  0.00188085  0.67046541  0.33255123  1
  Ni  Ni9  1  0.33244964  0.00207134  1.00010277  1
  Ni  Ni10  1  0.49716104  0.16783466  0.16801456  1
  Ni  Ni11  1  0.33255559  0.00092257  0.33448604  1
  Ni  Ni12  1  0.33297059  0.33276650  0.00244296  1
  Ni  Ni13  1  0.49937442  0.50009494  0.16712400  1
  Ni  Ni14  1  0.33384866  0.33456918  0.33344390  1
  Fe  Fe15  1  0.33354125  0.66757811  1.00055779  1
  Cr  Cr16  1  0.50128110  0.83486941  0.16704688  1
  Ni  Ni17  1  0.33356597  0.66642004  0.33477270  1
  Ni  Ni18  1  0.66732898  0.99827331  0.99926642  1
  Cr  Cr19  1  0.83463164  0.16492421  0.16589601  1
  Ni  Ni20  1  0.66781050  0.99807268  0.33539762  1
  Cr  Cr21  1  0.66510540  0.33462909  0.00140671  1
  Ni  Ni22  1  0.83488352  0.50455481  0.16637290  1
  Cr  Cr23  1  0.66407319  0.33441308  0.33319846  1
  Ni  Ni24  1  0.66847281  0.66856274  0.00070244  1
  Ni  Ni25  1  0.83525597  0.83191055  0.16767643  1
  Ni  Ni26  1  0.66705487  0.66901508  0.33370956  1
  Ni  Ni27  1  0.16717487  0.16681921  0.50149010  1
  Ni  Ni28  1  1.00059737  0.00250037  0.66748178  1
  Ni  Ni29  1  0.16754612  0.16560259  0.83422199  1
  Ni  Ni30  1  0.17092080  0.49959270  0.50071267  1
  Ni  Ni31  1  0.00131883  0.32991447  0.66676660  1
  Cr  Cr32  1  0.16905526  0.49893524  0.83414651  1
  Ni  Ni33  1  0.16851762  0.83549952  0.49986095  1
  Cr  Cr34  1  0.00185239  0.67003938  0.66550665  1
  Ni  Ni35  1  0.16809256  0.83756917  0.83474637  1
  Fe  Fe36  1  0.49949307  0.16604159  0.50141893  1
  Ni  Ni37  1  0.33358155  1.00061853  0.66732255  1
  Ni  Ni38  1  0.49945711  0.16598403  0.83307658  1
  Ni  Ni39  1  0.49824676  0.50209937  0.50193798  1
  Ni  Ni40  1  0.33488021  0.33381362  0.66602400  1
  Ni  Ni41  1  0.50065769  0.50139569  0.83284912  1
  Ni  Ni42  1  0.50103598  0.83338128  0.50108677  1
  Ni  Ni43  1  0.33670632  0.66747811  0.66691253  1
  Ni  Ni44  1  0.50156965  0.83453105  0.83375658  1
  Ni  Ni45  1  0.83486405  0.16402756  0.50347608  1
  Ni  Ni46  1  0.66773076  0.00067269  0.66724825  1
  Fe  Fe47  1  0.83458653  0.16427286  0.83254637  1
  Cr  Cr48  1  0.83304474  0.50088257  0.50167086  1
  Ni  Ni49  1  0.66571092  0.33303848  0.66730634  1
  Cr  Cr50  1  0.83259409  0.50055585  0.83359871  1
  Ni  Ni51  1  0.83235818  0.83712533  0.49916021  1
  Ni  Ni52  1  0.66383542  0.66819621  0.66749731  1
  Ni  Ni53  1  0.83224948  0.83637093  0.83507446  1
" 