6397,Ni76Fe22Cr0_7,-242.218444318203, 209.783047248222,Ni76Fe22Cr0,"# generated using pymatgen
 data_CrFe12Ni41
_symmetry_space_group_name_H-M   'P 1'
_cell_length_a   7.42033796
_cell_length_b   7.42033796
_cell_length_c   10.49394258
_cell_angle_alpha   90.00000000
_cell_angle_beta   90.00000000
_cell_angle_gamma   90.00000000
_symmetry_Int_Tables_number   1
_chemical_formula_structural   CrFe12Ni41
_chemical_formula_sum   'Cr1 Fe12 Ni41'
_cell_volume   577.81133260
_cell_formula_units_Z   1
loop_
 _symmetry_equiv_pos_site_id
 _symmetry_equiv_pos_as_xyz
  1  'x, y, z'
loop_
 _atom_site_type_symbol
 _atom_site_label
 _atom_site_symmetry_multiplicity
 _atom_site_fract_x
 _atom_site_fract_y
 _atom_site_fract_z
 _atom_site_occupancy
  Ni  Ni0  1  1.00152862  0.00356635  1.00281958  1
  Ni  Ni1  1  0.16953453  0.16934489  0.17001906  1
  Ni  Ni2  1  1.00227517  0.00414315  0.33658169  1
  Ni  Ni3  1  1.00286205  0.33540911  1.00278780  1
  Fe  Fe4  1  0.16991275  0.50315968  0.17029003  1
  Ni  Ni5  1  0.00361831  0.33554675  0.33624649  1
  Fe  Fe6  1  1.00270066  0.66988270  1.00260833  1
  Ni  Ni7  1  0.17059948  0.83777670  0.17022541  1
  Fe  Fe8  1  0.00326613  0.67046209  0.33723289  1
  Fe  Fe9  1  0.33522676  0.00481406  0.00381399  1
  Fe  Fe10  1  0.50374296  0.16931982  0.16979250  1
  Ni  Ni11  1  0.33657562  1.00276767  0.33576650  1
  Ni  Ni12  1  0.33671435  0.33795008  1.00280398  1
  Ni  Ni13  1  0.50396809  0.50369858  0.17034221  1
  Ni  Ni14  1  0.33547438  0.33718509  0.33626488  1
  Ni  Ni15  1  0.33651235  0.66824809  0.00364305  1
  Ni  Ni16  1  0.50265398  0.83557009  0.16997567  1
  Ni  Ni17  1  0.33798389  0.66949894  0.33720450  1
  Ni  Ni18  1  0.67209592  0.00376721  0.00370379  1
  Ni  Ni19  1  0.83756198  0.17064662  0.17025082  1
  Ni  Ni20  1  0.67060651  1.00163292  0.33667804  1
  Ni  Ni21  1  0.66987040  0.33608674  1.00309124  1
  Ni  Ni22  1  0.83536458  0.50262380  0.16971317  1
  Fe  Fe23  1  0.66956926  0.33629659  0.33573156  1
  Fe  Fe24  1  0.67076578  0.66820265  0.00415582  1
  Ni  Ni25  1  0.83619255  0.83615688  0.16957286  1
  Ni  Ni26  1  0.66896440  0.67084121  0.33571573  1
  Ni  Ni27  1  0.17095166  0.17003070  0.50324639  1
  Ni  Ni28  1  1.00284614  0.00334631  0.67003635  1
  Ni  Ni29  1  0.16989203  0.16955511  0.83617087  1
  Ni  Ni30  1  0.16906404  0.50253252  0.50305784  1
  Ni  Ni31  1  0.00341730  0.33587032  0.67039994  1
  Fe  Fe32  1  0.16988356  0.50265073  0.83577324  1
  Ni  Ni33  1  0.17040754  0.83688266  0.50321300  1
  Ni  Ni34  1  1.00230461  0.67021856  0.67005502  1
  Ni  Ni35  1  0.16826047  0.83742074  0.83600400  1
  Ni  Ni36  1  0.50176202  0.16929101  0.50287278  1
  Ni  Ni37  1  0.33541685  0.00392798  0.66946609  1
  Ni  Ni38  1  0.50227480  0.17230402  0.83732592  1
  Fe  Fe39  1  0.50217046  0.50414892  0.50316523  1
  Ni  Ni40  1  0.33624693  0.33668255  0.67037404  1
  Ni  Ni41  1  0.50392386  0.50113501  0.83562728  1
  Ni  Ni42  1  0.50291908  0.83702562  0.50305636  1
  Ni  Ni43  1  0.33678329  0.66883930  0.66859188  1
  Cr  Cr44  1  0.50242532  0.83625947  0.83630552  1
  Fe  Fe45  1  0.83764746  0.16912099  0.50279389  1
  Fe  Fe46  1  0.67041031  0.00342095  0.66909694  1
  Ni  Ni47  1  0.83726797  0.17090190  0.83596931  1
  Ni  Ni48  1  0.83685495  0.50367108  0.50297548  1
  Fe  Fe49  1  0.66973644  0.33705395  0.67092588  1
  Ni  Ni50  1  0.83587148  0.50275360  0.83676272  1
  Ni  Ni51  1  0.83611771  0.83513673  0.50319054  1
  Ni  Ni52  1  0.67035097  0.66940283  0.66978513  1
  Ni  Ni53  1  0.83861126  0.83577796  0.83668677  1
" 