7057,Ni76Fe8Cr15_15,-234.381085833045, 173.830765866445,Ni76Fe8Cr15,"# generated using pymatgen
 data_Cr9Fe4Ni41
_symmetry_space_group_name_H-M   'P 1'
_cell_length_a   7.46150429
_cell_length_b   7.46150429
_cell_length_c   10.55216056
_cell_angle_alpha   90.00000000
_cell_angle_beta   90.00000000
_cell_angle_gamma   90.00000000
_symmetry_Int_Tables_number   1
_chemical_formula_structural   Cr9Fe4Ni41
_chemical_formula_sum   'Cr9 Fe4 Ni41'
_cell_volume   587.48147568
_cell_formula_units_Z   1
loop_
 _symmetry_equiv_pos_site_id
 _symmetry_equiv_pos_as_xyz
  1  'x, y, z'
loop_
 _atom_site_type_symbol
 _atom_site_label
 _atom_site_symmetry_multiplicity
 _atom_site_fract_x
 _atom_site_fract_y
 _atom_site_fract_z
 _atom_site_occupancy
  Cr  Cr0  1  0.00057765  0.00299535  0.00327463  1
  Ni  Ni1  1  0.16601622  0.16790287  0.16758084  1
  Ni  Ni2  1  0.99924428  0.99970917  0.33232083  1
  Ni  Ni3  1  0.00093637  0.33455073  0.99987823  1
  Ni  Ni4  1  0.16710136  0.50002337  0.16665444  1
  Ni  Ni5  1  0.99932500  0.33420499  0.33264669  1
  Fe  Fe6  1  0.00276761  0.66410005  0.00214779  1
  Ni  Ni7  1  0.16646768  0.83315378  0.16792627  1
  Ni  Ni8  1  0.99996100  0.66719038  0.33282931  1
  Ni  Ni9  1  0.33439551  0.00111158  0.99928762  1
  Cr  Cr10  1  0.50019851  0.16846033  0.16745746  1
  Ni  Ni11  1  0.33249730  0.99933454  0.33378639  1
  Ni  Ni12  1  0.33170049  0.33516747  0.99937546  1
  Ni  Ni13  1  0.49937615  0.49967220  0.16800306  1
  Ni  Ni14  1  0.33367618  0.33588476  0.33333154  1
  Ni  Ni15  1  0.33364269  0.66482493  1.00013074  1
  Cr  Cr16  1  0.49952579  0.83296471  0.16756772  1
  Ni  Ni17  1  0.33341065  0.66591682  0.33433680  1
  Ni  Ni18  1  0.66674583  0.00159939  0.99886476  1
  Ni  Ni19  1  0.83482932  0.16775318  0.16777018  1
  Ni  Ni20  1  0.66937879  1.00000794  0.33537231  1
  Fe  Fe21  1  0.66735657  0.33289884  1.00011906  1
  Ni  Ni22  1  0.83469518  0.49920182  0.16756221  1
  Ni  Ni23  1  0.66812397  0.33513669  0.33350997  1
  Cr  Cr24  1  0.66655950  0.66592926  0.00038465  1
  Ni  Ni25  1  0.83520312  0.83410049  0.16888848  1
  Ni  Ni26  1  0.66775613  0.66599865  0.33455597  1
  Cr  Cr27  1  0.16623709  0.16757130  0.50032124  1
  Ni  Ni28  1  0.99956045  0.00152005  0.66624882  1
  Ni  Ni29  1  0.16754058  0.16991008  0.83302173  1
  Ni  Ni30  1  0.16770411  0.50173994  0.50128598  1
  Ni  Ni31  1  0.00139400  0.33423012  0.66856269  1
  Ni  Ni32  1  0.16782923  0.49762399  0.83316479  1
  Ni  Ni33  1  0.16773571  0.83242674  0.50063689  1
  Ni  Ni34  1  0.00206826  0.66528512  0.66624441  1
  Cr  Cr35  1  0.16979760  0.83295195  0.83231833  1
  Fe  Fe36  1  0.50118725  0.16618535  0.49917957  1
  Ni  Ni37  1  0.33484561  1.00002856  0.66801440  1
  Fe  Fe38  1  0.49914195  0.16649481  0.83456975  1
  Ni  Ni39  1  0.49870212  0.50121256  0.49815658  1
  Ni  Ni40  1  0.33203215  0.33489070  0.66840699  1
  Ni  Ni41  1  0.49763830  0.49999502  0.83491341  1
  Ni  Ni42  1  0.49978571  0.83402820  0.50011100  1
  Ni  Ni43  1  0.33292130  0.66625104  0.66667946  1
  Ni  Ni44  1  0.49882269  0.83518812  0.83369819  1
  Ni  Ni45  1  0.83300955  0.16597143  0.49971890  1
  Ni  Ni46  1  0.66668649  0.00069041  0.66685745  1
  Ni  Ni47  1  0.83390339  0.16880414  0.83368757  1
  Ni  Ni48  1  0.83473130  0.49999574  0.49904288  1
  Cr  Cr49  1  0.66739749  0.33308397  0.66747736  1
  Ni  Ni50  1  0.83570125  0.49674272  0.83450356  1
  Ni  Ni51  1  0.83361193  0.83513776  0.49978087  1
  Cr  Cr52  1  0.66604041  0.66758176  0.66565759  1
  Cr  Cr53  1  0.83256411  0.83472304  0.83223511  1
" 