7647,Ni76Fe4Cr18_17,-232.08807284471, 159.667253464838,Ni76Fe4Cr18,"# generated using pymatgen
 data_Cr11Fe2Ni41
_symmetry_space_group_name_H-M   'P 1'
_cell_length_a   7.47060602
_cell_length_b   7.47060602
_cell_length_c   10.56503235
_cell_angle_alpha   90.00000000
_cell_angle_beta   90.00000000
_cell_angle_gamma   90.00000000
_symmetry_Int_Tables_number   1
_chemical_formula_structural   Cr11Fe2Ni41
_chemical_formula_sum   'Cr11 Fe2 Ni41'
_cell_volume   589.63397200
_cell_formula_units_Z   1
loop_
 _symmetry_equiv_pos_site_id
 _symmetry_equiv_pos_as_xyz
  1  'x, y, z'
loop_
 _atom_site_type_symbol
 _atom_site_label
 _atom_site_symmetry_multiplicity
 _atom_site_fract_x
 _atom_site_fract_y
 _atom_site_fract_z
 _atom_site_occupancy
  Ni  Ni0  1  -0.00021298  0.00056825  0.99917039  1
  Ni  Ni1  1  0.16393860  0.16609296  0.16843265  1
  Ni  Ni2  1  0.00082035  0.99905501  0.33264730  1
  Ni  Ni3  1  0.99831640  0.33247398  0.00000821  1
  Ni  Ni4  1  0.16308757  0.49971027  0.16815178  1
  Ni  Ni5  1  0.00161639  0.33289499  0.33139687  1
  Fe  Fe6  1  0.99941253  0.66644845  0.99939641  1
  Ni  Ni7  1  0.16444724  0.83350288  0.16815819  1
  Ni  Ni8  1  0.00055390  0.66731098  0.33172621  1
  Cr  Cr9  1  0.32998064  -0.00020571  0.99857989  1
  Ni  Ni10  1  0.50002025  0.16481435  0.16880091  1
  Ni  Ni11  1  0.33189546  0.99967078  0.33265599  1
  Cr  Cr12  1  0.33087954  0.33129172  0.99790972  1
  Cr  Cr13  1  0.49763987  0.49941680  0.16682617  1
  Ni  Ni14  1  0.33096020  0.33106337  0.33338145  1
  Cr  Cr15  1  0.33052727  0.66814402  0.99796027  1
  Ni  Ni16  1  0.49865640  0.83574286  0.16931823  1
  Ni  Ni17  1  0.33138718  0.66835799  0.33320441  1
  Cr  Cr18  1  0.66753887  0.00062097  0.00008391  1
  Ni  Ni19  1  0.83527903  0.16577289  0.16585517  1
  Ni  Ni20  1  0.66644126  0.99853486  0.33200961  1
  Ni  Ni21  1  0.67003252  0.33272362  0.99881126  1
  Ni  Ni22  1  0.83801911  0.49849619  0.16543530  1
  Cr  Cr23  1  0.66919285  0.33275300  0.33298536  1
  Cr  Cr24  1  0.66909617  0.66581154  0.99933909  1
  Ni  Ni25  1  0.83626054  0.83508996  0.16758776  1
  Cr  Cr26  1  0.66978559  0.66782401  0.33456224  1
  Ni  Ni27  1  0.16637438  0.16559425  0.49891491  1
  Ni  Ni28  1  0.99912780  0.99896332  0.66749138  1
  Ni  Ni29  1  0.16247380  0.16747022  0.83172515  1
  Cr  Cr30  1  0.16634345  0.49974781  0.49946532  1
  Ni  Ni31  1  -0.00020617  0.33316287  0.66798043  1
  Ni  Ni32  1  0.16481597  0.49959047  0.83132283  1
  Ni  Ni33  1  0.16560010  0.83404231  0.49895426  1
  Ni  Ni34  1  0.99847219  0.66719184  0.66754103  1
  Ni  Ni35  1  0.16309347  0.83214972  0.83193811  1
  Fe  Fe36  1  0.49909322  0.16580787  0.50011539  1
  Cr  Cr37  1  0.33054081  0.00002886  0.66786412  1
  Ni  Ni38  1  0.50233416  0.16833146  0.83075448  1
  Ni  Ni39  1  0.49888910  0.50047528  0.50220683  1
  Ni  Ni40  1  0.33278648  0.33378542  0.66747542  1
  Ni  Ni41  1  0.50049449  0.49909934  0.83009497  1
  Ni  Ni42  1  0.49951201  0.83246462  0.49956378  1
  Ni  Ni43  1  0.33340754  0.66611976  0.66761723  1
  Ni  Ni44  1  0.50091148  0.83193117  0.83039791  1
  Cr  Cr45  1  0.83579772  0.16469676  0.50164193  1
  Ni  Ni46  1  0.66736938  0.99822051  0.66742041  1
  Ni  Ni47  1  0.83424619  0.16680969  0.83261016  1
  Ni  Ni48  1  0.83344403  0.50072698  0.50194036  1
  Ni  Ni49  1  0.66669700  0.33467036  0.66800287  1
  Ni  Ni50  1  0.83402955  0.49847302  0.83201507  1
  Ni  Ni51  1  0.83393016  0.83339058  0.50087165  1
  Ni  Ni52  1  0.66722047  0.66626220  0.66599076  1
  Ni  Ni53  1  0.83476781  0.83395165  0.83082780  1
" 