2868,Ni76Fe16Cr7_0,-238.549263474918, 192.713127064244,Ni76Fe16Cr7,"# generated using pymatgen
 data_Cr5Fe8Ni41
_symmetry_space_group_name_H-M   'P 1'
_cell_length_a   7.44180160
_cell_length_b   7.44180160
_cell_length_c   10.52429676
_cell_angle_alpha   90.00000000
_cell_angle_beta   90.00000000
_cell_angle_gamma   90.00000000
_symmetry_Int_Tables_number   1
_chemical_formula_structural   Cr5Fe8Ni41
_chemical_formula_sum   'Cr5 Fe8 Ni41'
_cell_volume   582.83988117
_cell_formula_units_Z   1
loop_
 _symmetry_equiv_pos_site_id
 _symmetry_equiv_pos_as_xyz
  1  'x, y, z'
loop_
 _atom_site_type_symbol
 _atom_site_label
 _atom_site_symmetry_multiplicity
 _atom_site_fract_x
 _atom_site_fract_y
 _atom_site_fract_z
 _atom_site_occupancy
  Ni  Ni0  1  0.00179616  0.00325944  1.00054579  1
  Ni  Ni1  1  0.16837283  0.16913354  0.16920350  1
  Ni  Ni2  1  0.00247110  0.00446323  0.33618977  1
  Ni  Ni3  1  1.00119331  0.33305166  0.00226756  1
  Ni  Ni4  1  0.16740184  0.49765664  0.16751611  1
  Ni  Ni5  1  0.99964398  0.33255984  0.33400794  1
  Fe  Fe6  1  0.99985903  0.66648318  1.00051993  1
  Cr  Cr7  1  0.16739683  0.83605649  0.16564824  1
  Cr  Cr8  1  0.99928253  0.66764577  0.33533255  1
  Ni  Ni9  1  0.33432606  1.00141285  1.00157198  1
  Ni  Ni10  1  0.50207992  0.16802925  0.16875738  1
  Ni  Ni11  1  0.33535818  0.00315992  0.33535520  1
  Ni  Ni12  1  0.33467424  0.33414237  0.00384717  1
  Ni  Ni13  1  0.50316399  0.50055492  0.16786341  1
  Fe  Fe14  1  0.33526535  0.33454068  0.33555828  1
  Fe  Fe15  1  0.33665904  0.66579295  1.00091379  1
  Ni  Ni16  1  0.50480643  0.83673685  0.16717754  1
  Cr  Cr17  1  0.33894577  0.66979001  0.33497968  1
  Fe  Fe18  1  0.66943364  0.00316520  1.00123872  1
  Ni  Ni19  1  0.83479175  0.16802109  0.16830079  1
  Fe  Fe20  1  0.66850860  0.00187681  0.33543908  1
  Ni  Ni21  1  0.66941372  0.33815356  1.00149374  1
  Ni  Ni22  1  0.83436745  0.50116938  0.16718363  1
  Ni  Ni23  1  0.66887932  0.33622722  0.33457800  1
  Ni  Ni24  1  0.66765422  0.66848345  0.00254809  1
  Ni  Ni25  1  0.83253657  0.83618680  0.16845801  1
  Ni  Ni26  1  0.66769620  0.66704963  0.33499817  1
  Ni  Ni27  1  0.16938092  0.16699097  0.50047851  1
  Ni  Ni28  1  0.00215930  1.00073251  0.66837712  1
  Ni  Ni29  1  0.16824063  0.16811205  0.83562852  1
  Ni  Ni30  1  0.16762481  0.50117449  0.50223024  1
  Cr  Cr31  1  1.00069094  0.33381792  0.66916513  1
  Ni  Ni32  1  0.16891438  0.50112256  0.83552679  1
  Ni  Ni33  1  0.16841019  0.83679725  0.50481069  1
  Ni  Ni34  1  1.00129974  0.66954996  0.66893948  1
  Fe  Fe35  1  0.16810073  0.83521915  0.83433372  1
  Ni  Ni36  1  0.50157477  0.16784497  0.50212553  1
  Ni  Ni37  1  0.33433002  1.00062672  0.66807016  1
  Cr  Cr38  1  0.50129048  0.16912120  0.83385164  1
  Ni  Ni39  1  0.50377687  0.50094832  0.50364571  1
  Ni  Ni40  1  0.33537304  0.33556239  0.66628834  1
  Ni  Ni41  1  0.50158091  0.50332239  0.83377037  1
  Ni  Ni42  1  0.50254920  0.83644823  0.50272091  1
  Ni  Ni43  1  0.33596367  0.66893999  0.66905579  1
  Ni  Ni44  1  0.50282173  0.83383803  0.83513113  1
  Fe  Fe45  1  0.83371705  0.16887945  0.50145931  1
  Ni  Ni46  1  0.66881966  1.00067061  0.66799129  1
  Ni  Ni47  1  0.83611819  0.16717892  0.83504289  1
  Ni  Ni48  1  0.83361046  0.50210958  0.50217450  1
  Ni  Ni49  1  0.66786699  0.33634005  0.66892262  1
  Ni  Ni50  1  0.83451846  0.50324801  0.83566221  1
  Fe  Fe51  1  0.83452368  0.83524906  0.50275188  1
  Ni  Ni52  1  0.66779945  0.66828290  0.66765204  1
  Ni  Ni53  1  0.83456206  0.83466600  0.83429590  1
" 