740,Ni76Fe8Cr15_12,-234.187071997675, 175.107093984356,Ni76Fe8Cr15,"# generated using pymatgen
 data_Cr9Fe4Ni41
_symmetry_space_group_name_H-M   'P 1'
_cell_length_a   7.45647953
_cell_length_b   7.45647953
_cell_length_c   10.54505448
_cell_angle_alpha   90.00000000
_cell_angle_beta   90.00000000
_cell_angle_gamma   90.00000000
_symmetry_Int_Tables_number   1
_chemical_formula_structural   Cr9Fe4Ni41
_chemical_formula_sum   'Cr9 Fe4 Ni41'
_cell_volume   586.29540180
_cell_formula_units_Z   1
loop_
 _symmetry_equiv_pos_site_id
 _symmetry_equiv_pos_as_xyz
  1  'x, y, z'
loop_
 _atom_site_type_symbol
 _atom_site_label
 _atom_site_symmetry_multiplicity
 _atom_site_fract_x
 _atom_site_fract_y
 _atom_site_fract_z
 _atom_site_occupancy
  Ni  Ni0  1  0.00128717  0.00213226  1.00054805  1
  Ni  Ni1  1  0.16828985  0.16648782  0.16677447  1
  Cr  Cr2  1  0.00195915  0.00132537  0.33503393  1
  Ni  Ni3  1  1.00024394  0.33372325  0.99938802  1
  Cr  Cr4  1  0.16815872  0.50056630  0.16806101  1
  Ni  Ni5  1  0.99852572  0.33405953  0.33463482  1
  Ni  Ni6  1  0.00156229  0.66633655  0.00123044  1
  Ni  Ni7  1  0.16796603  0.83488439  0.16640110  1
  Ni  Ni8  1  0.99860382  0.66722592  0.33345293  1
  Ni  Ni9  1  0.33452523  0.00136526  0.00117725  1
  Ni  Ni10  1  0.49975820  0.16833842  0.16672987  1
  Ni  Ni11  1  0.33455726  0.00077655  0.33397334  1
  Ni  Ni12  1  0.33405336  0.33313836  0.99936263  1
  Ni  Ni13  1  0.50091969  0.49990721  0.16851087  1
  Ni  Ni14  1  0.33492049  0.33080218  0.33381229  1
  Ni  Ni15  1  0.33356624  0.66768635  0.99918690  1
  Ni  Ni16  1  0.49920523  0.83390701  0.16692831  1
  Ni  Ni17  1  0.33516979  0.67043126  0.33323741  1
  Ni  Ni18  1  0.66628201  0.00275506  0.00152981  1
  Ni  Ni19  1  0.83398657  0.16845761  0.16489119  1
  Cr  Cr20  1  0.66534864  0.00108612  0.33346817  1
  Fe  Fe21  1  0.66695380  0.33310393  1.00070575  1
  Ni  Ni22  1  0.83327437  0.50005368  0.16855864  1
  Ni  Ni23  1  0.66864616  0.33455545  0.33258515  1
  Cr  Cr24  1  0.66665886  0.66598619  0.00129682  1
  Ni  Ni25  1  0.83490335  0.83364677  0.16675255  1
  Ni  Ni26  1  0.66836421  0.66690960  0.33448722  1
  Ni  Ni27  1  0.16760576  0.16754872  0.50083506  1
  Fe  Fe28  1  0.00133122  0.00343831  0.66703176  1
  Ni  Ni29  1  0.16710439  0.16795307  0.83456588  1
  Cr  Cr30  1  0.16812238  0.49941709  0.49891808  1
  Ni  Ni31  1  0.99952258  0.33316883  0.66804445  1
  Ni  Ni32  1  0.16872589  0.50016952  0.83477664  1
  Ni  Ni33  1  0.16808972  0.83436057  0.49948689  1
  Cr  Cr34  1  0.00176355  0.66568691  0.66737778  1
  Ni  Ni35  1  0.16823821  0.83405561  0.83638140  1
  Ni  Ni36  1  0.50109051  0.16765131  0.50025604  1
  Cr  Cr37  1  0.33474658  0.00114166  0.66666563  1
  Ni  Ni38  1  0.50162916  0.16883105  0.83492342  1
  Cr  Cr39  1  0.50128580  0.49950008  0.50002939  1
  Ni  Ni40  1  0.33388729  0.33364811  0.66878721  1
  Ni  Ni41  1  0.49927744  0.49903313  0.83291352  1
  Ni  Ni42  1  0.50087875  0.83386388  0.50144651  1
  Ni  Ni43  1  0.33461139  0.66794530  0.66967580  1
  Fe  Fe44  1  0.49963597  0.83522883  0.83453852  1
  Ni  Ni45  1  0.83349119  0.16856643  0.50310193  1
  Ni  Ni46  1  0.66721798  0.00232390  0.66651779  1
  Ni  Ni47  1  0.83334007  0.16811675  0.83404834  1
  Ni  Ni48  1  0.83297589  0.49983067  0.49967866  1
  Ni  Ni49  1  0.66856183  0.33203014  0.66866365  1
  Ni  Ni50  1  0.83370498  0.49824807  0.83409588  1
  Ni  Ni51  1  0.83312904  0.83371561  0.50169524  1
  Fe  Fe52  1  0.66603897  0.66577161  0.66709929  1
  Cr  Cr53  1  0.83457044  0.83737355  0.83399340  1
" 