2831,Ni76Fe7Cr15_17,-234.180352007505, 171.426770491366,Ni76Fe7Cr15,"# generated using pymatgen
 data_Cr9Fe4Ni41
_symmetry_space_group_name_H-M   'P 1'
_cell_length_a   7.45808034
_cell_length_b   7.45808034
_cell_length_c   10.54731836
_cell_angle_alpha   90.00000000
_cell_angle_beta   90.00000000
_cell_angle_gamma   90.00000000
_symmetry_Int_Tables_number   1
_chemical_formula_structural   Cr9Fe4Ni41
_chemical_formula_sum   'Cr9 Fe4 Ni41'
_cell_volume   586.67309151
_cell_formula_units_Z   1
loop_
 _symmetry_equiv_pos_site_id
 _symmetry_equiv_pos_as_xyz
  1  'x, y, z'
loop_
 _atom_site_type_symbol
 _atom_site_label
 _atom_site_symmetry_multiplicity
 _atom_site_fract_x
 _atom_site_fract_y
 _atom_site_fract_z
 _atom_site_occupancy
  Cr  Cr0  1  0.99966810  1.00005650  0.99975683  1
  Cr  Cr1  1  0.16893007  0.16905412  0.16738391  1
  Cr  Cr2  1  0.99878965  0.99857852  0.33452387  1
  Ni  Ni3  1  0.99992908  0.33569905  0.99941732  1
  Ni  Ni4  1  0.16739788  0.50186185  0.16812981  1
  Ni  Ni5  1  0.99994419  0.33657657  0.33375478  1
  Fe  Fe6  1  0.00060633  0.66559833  0.00073515  1
  Ni  Ni7  1  0.16681944  0.83028941  0.16727114  1
  Ni  Ni8  1  0.00215949  0.66667438  0.33260247  1
  Ni  Ni9  1  0.33533225  1.00026819  0.99896000  1
  Ni  Ni10  1  0.50240987  0.16906738  0.16758719  1
  Ni  Ni11  1  0.33653766  0.99955940  0.33486606  1
  Ni  Ni12  1  0.33488199  0.33524881  0.99974142  1
  Ni  Ni13  1  0.50004772  0.49912448  0.16723774  1
  Ni  Ni14  1  0.33509220  0.33526957  0.33318297  1
  Ni  Ni15  1  0.33366110  0.66628327  0.99968397  1
  Cr  Cr16  1  0.50104617  0.83412271  0.16756528  1
  Ni  Ni17  1  0.33186729  0.66697361  0.33463783  1
  Ni  Ni18  1  0.66670169  0.00132822  0.99998906  1
  Ni  Ni19  1  0.83103253  0.16848402  0.16761771  1
  Ni  Ni20  1  0.66646856  0.00177665  0.33508616  1
  Ni  Ni21  1  0.66699057  0.33403215  0.00076053  1
  Fe  Fe22  1  0.83369948  0.50032276  0.16728741  1
  Ni  Ni23  1  0.66676536  0.33190345  0.33213717  1
  Ni  Ni24  1  0.66715110  0.66644299  0.99919264  1
  Ni  Ni25  1  0.83377142  0.83264638  0.16774938  1
  Ni  Ni26  1  0.66777687  0.66812366  0.33374035  1
  Cr  Cr27  1  0.16608965  0.16873457  0.49952286  1
  Ni  Ni28  1  0.99707390  0.99931040  0.66772870  1
  Ni  Ni29  1  0.16628874  0.16901703  0.83490291  1
  Ni  Ni30  1  0.16651022  0.50297809  0.49944325  1
  Ni  Ni31  1  0.99821804  0.33425503  0.66863335  1
  Ni  Ni32  1  0.16661977  0.50022984  0.83422778  1
  Ni  Ni33  1  0.16752986  0.83081246  0.50055883  1
  Ni  Ni34  1  0.00195147  0.66823813  0.66795771  1
  Fe  Fe35  1  0.16766723  0.83249515  0.83361426  1
  Ni  Ni36  1  0.50364031  0.16487370  0.49817506  1
  Cr  Cr37  1  0.33485238  0.99815531  0.66789232  1
  Ni  Ni38  1  0.50158265  0.16684789  0.83603912  1
  Cr  Cr39  1  0.49948139  0.50177971  0.50013265  1
  Cr  Cr40  1  0.33460061  0.33626867  0.66869518  1
  Ni  Ni41  1  0.50074543  0.50189298  0.83470256  1
  Ni  Ni42  1  0.50128059  0.83505337  0.49950468  1
  Ni  Ni43  1  0.33222795  0.66786881  0.66748244  1
  Ni  Ni44  1  0.50189813  0.83306393  0.83462126  1
  Ni  Ni45  1  0.83189521  0.16589540  0.50183929  1
  Ni  Ni46  1  0.66987800  0.00115832  0.66672896  1
  Ni  Ni47  1  0.83393445  0.16786184  0.83234840  1
  Cr  Cr48  1  0.83586575  0.50034182  0.50065782  1
  Ni  Ni49  1  0.66951131  0.33162807  0.66891054  1
  Ni  Ni50  1  0.83443958  0.50054787  0.83432905  1
  Ni  Ni51  1  0.83299339  0.83529097  0.50127341  1
  Fe  Fe52  1  0.66793929  0.66910400  0.66916370  1
  Ni  Ni53  1  0.83227032  0.83339386  0.83277940  1
" 