6715,Ni76Fe4Cr18_11,-232.026657988694, 160.838015338173,Ni76Fe4Cr18,"# generated using pymatgen
 data_Cr11Fe2Ni41
_symmetry_space_group_name_H-M   'P 1'
_cell_length_a   7.47220432
_cell_length_b   7.47220432
_cell_length_c   10.56729269
_cell_angle_alpha   90.00000000
_cell_angle_beta   90.00000000
_cell_angle_gamma   90.00000000
_symmetry_Int_Tables_number   1
_chemical_formula_structural   Cr11Fe2Ni41
_chemical_formula_sum   'Cr11 Fe2 Ni41'
_cell_volume   590.01250246
_cell_formula_units_Z   1
loop_
 _symmetry_equiv_pos_site_id
 _symmetry_equiv_pos_as_xyz
  1  'x, y, z'
loop_
 _atom_site_type_symbol
 _atom_site_label
 _atom_site_symmetry_multiplicity
 _atom_site_fract_x
 _atom_site_fract_y
 _atom_site_fract_z
 _atom_site_occupancy
  Ni  Ni0  1  0.99955429  0.00138297  0.00141790  1
  Ni  Ni1  1  0.16460300  0.16659518  0.16659348  1
  Ni  Ni2  1  0.99873203  0.00118508  0.33206731  1
  Ni  Ni3  1  0.00145126  0.33132213  -0.00023110  1
  Ni  Ni4  1  0.16534314  0.49919597  0.16538234  1
  Ni  Ni5  1  0.00016053  0.33184503  0.33319770  1
  Ni  Ni6  1  -0.00004399  0.66625870  0.00188213  1
  Ni  Ni7  1  0.16482853  0.83317432  0.16539578  1
  Ni  Ni8  1  0.99758750  0.66593294  0.33229106  1
  Fe  Fe9  1  0.33255156  0.99921829  0.99944475  1
  Cr  Cr10  1  0.49927713  0.16616938  0.16811040  1
  Ni  Ni11  1  0.33196854  0.00068306  0.33234423  1
  Ni  Ni12  1  0.33088025  0.33407560  0.99949193  1
  Ni  Ni13  1  0.49934656  0.50140910  0.16626021  1
  Ni  Ni14  1  0.33123954  0.33304837  0.33315226  1
  Ni  Ni15  1  0.33471812  0.66585528  0.00103680  1
  Ni  Ni16  1  0.50076728  0.83186778  0.16551121  1
  Cr  Cr17  1  0.33429626  0.66524383  0.33239525  1
  Ni  Ni18  1  0.66704358  0.99754382  0.99910662  1
  Ni  Ni19  1  0.83558244  0.16517388  0.16709997  1
  Ni  Ni20  1  0.66826441  0.99811014  0.33335633  1
  Cr  Cr21  1  0.66707931  0.33361162  0.99830806  1
  Ni  Ni22  1  0.83427522  0.50118262  0.16744576  1
  Ni  Ni23  1  0.66756546  0.33419327  0.33315879  1
  Ni  Ni24  1  0.66429019  0.66775095  0.00012557  1
  Ni  Ni25  1  0.83336920  0.83260811  0.16646351  1
  Ni  Ni26  1  0.66706075  0.66666289  0.33301876  1
  Ni  Ni27  1  0.16471400  0.16853884  0.49827441  1
  Cr  Cr28  1  0.99908104  0.00242794  0.66547884  1
  Ni  Ni29  1  0.16685512  0.16680038  0.83409862  1
  Ni  Ni30  1  0.16408317  0.49737729  0.49915041  1
  Ni  Ni31  1  0.99725865  0.33330027  0.66599603  1
  Cr  Cr32  1  0.16400781  0.49870479  0.83444979  1
  Cr  Cr33  1  0.16505351  0.83318302  0.49969645  1
  Ni  Ni34  1  0.99651629  0.66323023  0.66478928  1
  Cr  Cr35  1  0.16718751  0.83363449  0.83409669  1
  Cr  Cr36  1  0.50046349  0.16566673  0.49847274  1
  Ni  Ni37  1  0.33547574  0.00008949  0.66793172  1
  Ni  Ni38  1  0.49982686  0.16480667  0.83210815  1
  Ni  Ni39  1  0.50140694  0.50036287  0.49893343  1
  Cr  Cr40  1  0.33273287  0.33185679  0.66631623  1
  Ni  Ni41  1  0.50224961  0.49979385  0.83377129  1
  Ni  Ni42  1  0.50331644  0.83282537  0.50044215  1
  Cr  Cr43  1  0.33555596  0.66723613  0.66527047  1
  Ni  Ni44  1  0.50074012  0.83436588  0.83301295  1
  Ni  Ni45  1  0.83369510  0.16662719  0.49918226  1
  Ni  Ni46  1  0.66472828  0.99935131  0.66650082  1
  Ni  Ni47  1  0.83228447  0.16830783  0.83268354  1
  Fe  Fe48  1  0.83309520  0.49976177  0.49987111  1
  Ni  Ni49  1  0.66881435  0.33379431  0.66778048  1
  Ni  Ni50  1  0.83205241  0.49848178  0.83089321  1
  Ni  Ni51  1  0.83071058  0.83219718  0.49891491  1
  Ni  Ni52  1  0.66647379  0.66581849  0.66581908  1
  Cr  Cr53  1  0.83119540  0.83152557  0.83360472  1
" 