1875,Ni76Fe4Cr18_8,-232.152887798523, 161.843077865399,Ni76Fe4Cr18,"# generated using pymatgen
 data_Cr11Fe2Ni41
_symmetry_space_group_name_H-M   'P 1'
_cell_length_a   7.46820577
_cell_length_b   7.46820577
_cell_length_c   10.56163789
_cell_angle_alpha   90.00000000
_cell_angle_beta   90.00000000
_cell_angle_gamma   90.00000000
_symmetry_Int_Tables_number   1
_chemical_formula_structural   Cr11Fe2Ni41
_chemical_formula_sum   'Cr11 Fe2 Ni41'
_cell_volume   589.06582051
_cell_formula_units_Z   1
loop_
 _symmetry_equiv_pos_site_id
 _symmetry_equiv_pos_as_xyz
  1  'x, y, z'
loop_
 _atom_site_type_symbol
 _atom_site_label
 _atom_site_symmetry_multiplicity
 _atom_site_fract_x
 _atom_site_fract_y
 _atom_site_fract_z
 _atom_site_occupancy
  Ni  Ni0  1  0.00000375  0.99961395  0.00158097  1
  Ni  Ni1  1  0.16455167  0.16567085  0.16525940  1
  Ni  Ni2  1  0.00161201  0.99979479  0.33376000  1
  Ni  Ni3  1  0.00146020  0.33357179  0.00176973  1
  Ni  Ni4  1  0.16587463  0.50184317  0.16570517  1
  Ni  Ni5  1  0.99905700  0.33366332  0.33305571  1
  Ni  Ni6  1  0.99781764  0.66668303  0.00163932  1
  Ni  Ni7  1  0.16663459  0.83224850  0.16709879  1
  Ni  Ni8  1  0.00123520  0.66641459  0.33373327  1
  Ni  Ni9  1  0.33420542  0.00061545  0.00123655  1
  Ni  Ni10  1  0.50044824  0.16556094  0.16554569  1
  Ni  Ni11  1  0.33048516  0.99743026  0.33192423  1
  Ni  Ni12  1  0.33269831  0.33266713  0.00014740  1
  Ni  Ni13  1  0.49833683  0.50146450  0.16582167  1
  Cr  Cr14  1  0.33274813  0.33487525  0.33198907  1
  Ni  Ni15  1  0.33550128  0.66639483  0.00186648  1
  Ni  Ni16  1  0.49731599  0.83267604  0.16463192  1
  Ni  Ni17  1  0.33216858  0.66801827  0.33348962  1
  Ni  Ni18  1  0.66577568  0.99741239  0.00040744  1
  Ni  Ni19  1  0.83479280  0.16647109  0.16751099  1
  Cr  Cr20  1  0.66665084  0.99881959  0.33231857  1
  Cr  Cr21  1  0.66518085  0.33564518  0.00150326  1
  Fe  Fe22  1  0.83546014  0.49965018  0.16666932  1
  Ni  Ni23  1  0.66923180  0.33481732  0.33246536  1
  Ni  Ni24  1  0.66625258  0.66834184  0.99967815  1
  Fe  Fe25  1  0.83510123  0.83408526  0.16531019  1
  Cr  Cr26  1  0.66549287  0.66485730  0.33217337  1
  Ni  Ni27  1  0.16488159  0.16699453  0.49751473  1
  Cr  Cr28  1  0.99960036  0.99759452  0.66470758  1
  Ni  Ni29  1  0.16893813  0.16743324  0.83717544  1
  Ni  Ni30  1  0.16647177  0.50236101  0.49974894  1
  Cr  Cr31  1  0.00135781  0.33456309  0.66553063  1
  Cr  Cr32  1  0.16736474  0.50093337  0.83456167  1
  Ni  Ni33  1  0.16637301  0.83034368  0.49733755  1
  Ni  Ni34  1  0.99740361  0.66642425  0.66481505  1
  Cr  Cr35  1  0.16623698  0.83129077  0.83561435  1
  Cr  Cr36  1  0.50234854  0.16772835  0.49992238  1
  Cr  Cr37  1  0.33290307  -0.00001428  0.66645962  1
  Ni  Ni38  1  0.49958717  0.16655127  0.83386193  1
  Ni  Ni39  1  0.50025384  0.50181964  0.50140113  1
  Ni  Ni40  1  0.33474884  0.33484164  0.66740509  1
  Ni  Ni41  1  0.50064416  0.50130792  0.83233329  1
  Ni  Ni42  1  0.49924106  0.83044491  0.50052419  1
  Ni  Ni43  1  0.33530397  0.66511869  0.66411826  1
  Ni  Ni44  1  0.50211943  0.83193398  0.83417246  1
  Ni  Ni45  1  0.83356154  0.16747575  0.49873945  1
  Ni  Ni46  1  0.66635633  0.99720917  0.66684173  1
  Cr  Cr47  1  0.83207126  0.16555443  0.83337886  1
  Ni  Ni48  1  0.83316434  0.50000906  0.49925912  1
  Ni  Ni49  1  0.66540115  0.33596675  0.66582089  1
  Ni  Ni50  1  0.83166440  0.50322520  0.83390645  1
  Ni  Ni51  1  0.83393188  0.83213532  0.50052987  1
  Ni  Ni52  1  0.66697853  0.66659013  0.66716780  1
  Ni  Ni53  1  0.83081194  0.83066970  0.83467276  1
" 