1868,Ni76Fe22Cr0_19,-242.251562249239, 209.105245059655,Ni76Fe22Cr0,"# generated using pymatgen
 data_CrFe12Ni41
_symmetry_space_group_name_H-M   'P 1'
_cell_length_a   7.42160275
_cell_length_b   7.42160275
_cell_length_c   10.49573126
_cell_angle_alpha   90.00000000
_cell_angle_beta   90.00000000
_cell_angle_gamma   90.00000000
_symmetry_Int_Tables_number   1
_chemical_formula_structural   CrFe12Ni41
_chemical_formula_sum   'Cr1 Fe12 Ni41'
_cell_volume   578.10684451
_cell_formula_units_Z   1
loop_
 _symmetry_equiv_pos_site_id
 _symmetry_equiv_pos_as_xyz
  1  'x, y, z'
loop_
 _atom_site_type_symbol
 _atom_site_label
 _atom_site_symmetry_multiplicity
 _atom_site_fract_x
 _atom_site_fract_y
 _atom_site_fract_z
 _atom_site_occupancy
  Fe  Fe0  1  1.00298518  1.00267245  1.00213971  1
  Fe  Fe1  1  0.17056715  0.17016712  0.16933782  1
  Fe  Fe2  1  0.00358121  1.00221151  0.33729805  1
  Ni  Ni3  1  0.00372325  0.33617913  0.00340687  1
  Fe  Fe4  1  0.16998918  0.50339924  0.16977522  1
  Ni  Ni5  1  0.00308854  0.33681533  0.33705018  1
  Ni  Ni6  1  0.00309561  0.66969759  0.00390077  1
  Fe  Fe7  1  0.17064908  0.83561290  0.16985638  1
  Ni  Ni8  1  1.00175179  0.66886398  0.33685361  1
  Ni  Ni9  1  0.33747816  0.00363971  1.00248902  1
  Ni  Ni10  1  0.50207166  0.16987822  0.16951368  1
  Ni  Ni11  1  0.33719168  0.00380666  0.33711145  1
  Ni  Ni12  1  0.33613262  0.33587949  0.00308703  1
  Ni  Ni13  1  0.50339410  0.50226741  0.16931682  1
  Ni  Ni14  1  0.33583881  0.33545713  0.33625293  1
  Ni  Ni15  1  0.33643050  0.66966576  1.00279851  1
  Ni  Ni16  1  0.50316899  0.83704314  0.16954292  1
  Ni  Ni17  1  0.33688414  0.66992147  0.33679347  1
  Ni  Ni18  1  0.66936851  1.00300486  1.00283674  1
  Fe  Fe19  1  0.83509275  0.17025481  0.16971711  1
  Fe  Fe20  1  0.66911381  1.00250156  0.33655980  1
  Ni  Ni21  1  0.66932721  0.33513199  0.00401093  1
  Ni  Ni22  1  0.83688395  0.50359502  0.16999271  1
  Fe  Fe23  1  0.66909970  0.33747328  0.33616706  1
  Ni  Ni24  1  0.66966482  0.67104351  0.00373182  1
  Ni  Ni25  1  0.83683022  0.83542425  0.16960710  1
  Ni  Ni26  1  0.67055457  0.67021733  0.33651298  1
  Fe  Fe27  1  0.17006561  0.16978428  0.50333869  1
  Ni  Ni28  1  1.00220704  1.00292002  0.66981826  1
  Ni  Ni29  1  0.17070022  0.16954849  0.83627999  1
  Ni  Ni30  1  0.16915399  0.50343226  0.50297004  1
  Fe  Fe31  1  0.00438718  0.33580191  0.66873839  1
  Ni  Ni32  1  0.17095398  0.50260631  0.83708223  1
  Ni  Ni33  1  0.16937356  0.83603903  0.50287353  1
  Ni  Ni34  1  1.00302584  0.67064711  0.66843463  1
  Ni  Ni35  1  0.16933621  0.83702576  0.83695781  1
  Ni  Ni36  1  0.50296771  0.16968793  0.50278641  1
  Ni  Ni37  1  0.33676085  0.00399559  0.66958676  1
  Ni  Ni38  1  0.50183812  0.16952205  0.83688264  1
  Ni  Ni39  1  0.50272828  0.50240520  0.50291350  1
  Ni  Ni40  1  0.33618437  0.33611546  0.66984621  1
  Ni  Ni41  1  0.50126145  0.50231188  0.83695373  1
  Ni  Ni42  1  0.50253797  0.83709416  0.50285332  1
  Ni  Ni43  1  0.33644122  0.66907354  0.66960056  1
  Ni  Ni44  1  0.50291394  0.83734790  0.83678687  1
  Ni  Ni45  1  0.83624605  0.16990643  0.50300716  1
  Ni  Ni46  1  0.67021473  1.00266568  0.66958694  1
  Fe  Fe47  1  0.83628065  0.16766257  0.83616819  1
  Ni  Ni48  1  0.83729915  0.50300227  0.50257263  1
  Fe  Fe49  1  0.66811367  0.33557535  0.66890586  1
  Cr  Cr50  1  0.83645109  0.50422808  0.83621333  1
  Ni  Ni51  1  0.83727662  0.83627505  0.50303428  1
  Ni  Ni52  1  0.66971621  0.67122520  0.66893578  1
  Ni  Ni53  1  0.83693676  0.83760530  0.83654124  1
" 