1827,Ni76Fe22Cr0_1,-241.871584876053, 209.925347398923,Ni76Fe22Cr0,"# generated using pymatgen
 data_CrFe12Ni41
_symmetry_space_group_name_H-M   'P 1'
_cell_length_a   7.41819587
_cell_length_b   7.41819587
_cell_length_c   10.49091320
_cell_angle_alpha   90.00000000
_cell_angle_beta   90.00000000
_cell_angle_gamma   90.00000000
_symmetry_Int_Tables_number   1
_chemical_formula_structural   CrFe12Ni41
_chemical_formula_sum   'Cr1 Fe12 Ni41'
_cell_volume   577.31107082
_cell_formula_units_Z   1
loop_
 _symmetry_equiv_pos_site_id
 _symmetry_equiv_pos_as_xyz
  1  'x, y, z'
loop_
 _atom_site_type_symbol
 _atom_site_label
 _atom_site_symmetry_multiplicity
 _atom_site_fract_x
 _atom_site_fract_y
 _atom_site_fract_z
 _atom_site_occupancy
  Fe  Fe0  1  1.00314265  1.00149917  0.00418166  1
  Ni  Ni1  1  0.16997792  0.17038538  0.16940804  1
  Ni  Ni2  1  1.00228374  1.00225226  0.33555102  1
  Fe  Fe3  1  1.00325095  0.33679697  1.00262463  1
  Ni  Ni4  1  0.17065241  0.50386770  0.16959586  1
  Fe  Fe5  1  0.00344445  0.33817864  0.33631509  1
  Ni  Ni6  1  0.00390213  0.66956303  1.00314183  1
  Ni  Ni7  1  0.16854145  0.83582912  0.17117825  1
  Ni  Ni8  1  1.00268849  0.67114229  0.33693235  1
  Ni  Ni9  1  0.33598656  0.00401518  0.00362116  1
  Ni  Ni10  1  0.50397790  0.17087341  0.17043229  1
  Ni  Ni11  1  0.33621628  0.00344218  0.33546310  1
  Fe  Fe12  1  0.33863054  0.33779226  1.00301706  1
  Ni  Ni13  1  0.50328443  0.50330790  0.16991026  1
  Ni  Ni14  1  0.33905573  0.33676749  0.33465176  1
  Ni  Ni15  1  0.33546035  0.67078784  1.00324016  1
  Fe  Fe16  1  0.50199477  0.83668598  0.16947465  1
  Ni  Ni17  1  0.33604457  0.66970004  0.33686610  1
  Ni  Ni18  1  0.66904347  0.00496466  0.00453706  1
  Ni  Ni19  1  0.83600303  0.16887713  0.17091265  1
  Fe  Fe20  1  0.66967568  1.00216723  0.33682165  1
  Ni  Ni21  1  0.67021879  0.33603096  1.00227711  1
  Fe  Fe22  1  0.83686016  0.50238384  0.16960956  1
  Ni  Ni23  1  0.67003139  0.33612734  0.33760498  1
  Ni  Ni24  1  0.67040944  0.66886466  0.00399588  1
  Ni  Ni25  1  0.83614956  0.83620334  0.16949850  1
  Ni  Ni26  1  0.67098998  0.66816157  0.33469165  1
  Cr  Cr27  1  0.17082724  0.17129721  0.50290609  1
  Ni  Ni28  1  1.00191942  1.00320371  0.67198070  1
  Ni  Ni29  1  0.17048939  0.16958201  0.83762658  1
  Ni  Ni30  1  0.16973802  0.50476266  0.50366045  1
  Ni  Ni31  1  1.00242870  0.33746438  0.67054632  1
  Ni  Ni32  1  0.16924521  0.50375554  0.83652702  1
  Fe  Fe33  1  0.16917088  0.83642490  0.50346212  1
  Ni  Ni34  1  1.00271444  0.66926857  0.66962695  1
  Ni  Ni35  1  0.17030664  0.83647857  0.83507997  1
  Ni  Ni36  1  0.50445287  0.16853296  0.50347173  1
  Ni  Ni37  1  0.33792510  1.00297989  0.67066618  1
  Ni  Ni38  1  0.50316548  0.16894672  0.83606679  1
  Fe  Fe39  1  0.50399239  0.50319271  0.50276345  1
  Ni  Ni40  1  0.33707398  0.33711397  0.67170297  1
  Ni  Ni41  1  0.50415196  0.50425530  0.83545420  1
  Ni  Ni42  1  0.50450502  0.83656496  0.50221799  1
  Ni  Ni43  1  0.33685763  0.66967142  0.66932045  1
  Ni  Ni44  1  0.50384838  0.83683053  0.83807794  1
  Ni  Ni45  1  0.83504975  0.16928473  0.50362524  1
  Ni  Ni46  1  0.66983603  0.00340744  0.66973501  1
  Fe  Fe47  1  0.83612249  0.17041106  0.83662426  1
  Ni  Ni48  1  0.83768305  0.50457234  0.50228580  1
  Fe  Fe49  1  0.67038298  0.33701667  0.66983539  1
  Ni  Ni50  1  0.83670231  0.50441907  0.83706473  1
  Ni  Ni51  1  0.83511347  0.83589682  0.50422563  1
  Ni  Ni52  1  0.67033963  0.67011304  0.67070893  1
  Fe  Fe53  1  0.83584641  0.83569087  0.83698847  1
" 