888,Ni76Fe7Cr15_1,-234.261329651966, 172.334706001584,Ni76Fe7Cr15,"# generated using pymatgen
 data_Cr9Fe4Ni41
_symmetry_space_group_name_H-M   'P 1'
_cell_length_a   7.45836453
_cell_length_b   7.45836453
_cell_length_c   10.54772027
_cell_angle_alpha   90.00000000
_cell_angle_beta   90.00000000
_cell_angle_gamma   90.00000000
_symmetry_Int_Tables_number   1
_chemical_formula_structural   Cr9Fe4Ni41
_chemical_formula_sum   'Cr9 Fe4 Ni41'
_cell_volume   586.74016015
_cell_formula_units_Z   1
loop_
 _symmetry_equiv_pos_site_id
 _symmetry_equiv_pos_as_xyz
  1  'x, y, z'
loop_
 _atom_site_type_symbol
 _atom_site_label
 _atom_site_symmetry_multiplicity
 _atom_site_fract_x
 _atom_site_fract_y
 _atom_site_fract_z
 _atom_site_occupancy
  Ni  Ni0  1  0.99903608  0.99830911  1.00042471  1
  Ni  Ni1  1  0.16628176  0.16785413  0.16867449  1
  Ni  Ni2  1  0.99986755  0.00502169  0.33297444  1
  Cr  Cr3  1  0.99955586  0.33515318  0.00146192  1
  Ni  Ni4  1  0.16974119  0.50033096  0.16746823  1
  Ni  Ni5  1  1.00048217  0.33205492  0.33486053  1
  Ni  Ni6  1  0.00179326  0.66857009  0.99901770  1
  Ni  Ni7  1  0.16816028  0.83356054  0.16602062  1
  Cr  Cr8  1  0.00144886  0.66454279  0.33277454  1
  Cr  Cr9  1  0.33410878  0.00073787  0.00211591  1
  Ni  Ni10  1  0.50185655  0.16892359  0.16708186  1
  Cr  Cr11  1  0.33476555  0.00078187  0.33325802  1
  Ni  Ni12  1  0.33649467  0.33612073  0.00128928  1
  Ni  Ni13  1  0.49990720  0.50077326  0.16703701  1
  Ni  Ni14  1  0.33326668  0.33520243  0.33374280  1
  Ni  Ni15  1  0.33229249  0.66526044  0.00147467  1
  Ni  Ni16  1  0.50041758  0.83204947  0.16803803  1
  Ni  Ni17  1  0.33598920  0.66531235  0.33318326  1
  Ni  Ni18  1  0.66890894  0.00250829  1.00046438  1
  Ni  Ni19  1  0.83360896  0.16734200  0.16829378  1
  Ni  Ni20  1  0.66735650  0.00230109  0.33393206  1
  Ni  Ni21  1  0.66559759  0.33335986  1.00002879  1
  Ni  Ni22  1  0.83209697  0.49889257  0.16765709  1
  Ni  Ni23  1  0.66799795  0.33351941  0.33393283  1
  Ni  Ni24  1  0.66766025  0.66587669  1.00021683  1
  Cr  Cr25  1  0.83295683  0.83517097  0.16656171  1
  Ni  Ni26  1  0.66420523  0.66592676  0.33468730  1
  Ni  Ni27  1  0.16577115  0.16995348  0.50073653  1
  Fe  Fe28  1  0.99923931  0.00090535  0.66815516  1
  Cr  Cr29  1  0.16758115  0.16751585  0.83274936  1
  Ni  Ni30  1  0.16900213  0.49737949  0.50125920  1
  Fe  Fe31  1  0.99919271  0.33587315  0.66581183  1
  Ni  Ni32  1  0.16839830  0.50326836  0.83302036  1
  Cr  Cr33  1  0.16906015  0.83405115  0.50191945  1
  Ni  Ni34  1  0.00138142  0.66616583  0.66976148  1
  Ni  Ni35  1  0.16417845  0.83135775  0.83346548  1
  Fe  Fe36  1  0.50169363  0.16899990  0.50141695  1
  Fe  Fe37  1  0.33558950  0.00065553  0.66657708  1
  Ni  Ni38  1  0.50332125  0.17000708  0.83297501  1
  Ni  Ni39  1  0.50035955  0.50147205  0.50029346  1
  Ni  Ni40  1  0.33453761  0.33460037  0.66671152  1
  Ni  Ni41  1  0.50054779  0.49893205  0.83441577  1
  Ni  Ni42  1  0.50169256  0.83213650  0.50072330  1
  Ni  Ni43  1  0.33245992  0.66563347  0.66708859  1
  Cr  Cr44  1  0.50176871  0.83251270  0.83345035  1
  Ni  Ni45  1  0.83466113  0.16861758  0.49992705  1
  Ni  Ni46  1  0.66742301  0.00257468  0.66734815  1
  Ni  Ni47  1  0.83135024  0.16578896  0.83352873  1
  Ni  Ni48  1  0.83238141  0.49775710  0.50115615  1
  Ni  Ni49  1  0.66689002  0.33282325  0.66778173  1
  Ni  Ni50  1  0.83279768  0.50182997  0.83293558  1
  Cr  Cr51  1  0.83071153  0.83468601  0.50062604  1
  Ni  Ni52  1  0.66790485  0.66635019  0.66684321  1
  Ni  Ni53  1  0.83568349  0.83412877  0.83408326  1
" 