5022,Ni76Fe6Cr17_18,-233.073106038123, 165.544904011022,Ni76Fe6Cr17,"# generated using pymatgen
 data_Cr10Fe3Ni41
_symmetry_space_group_name_H-M   'P 1'
_cell_length_a   7.46669311
_cell_length_b   7.46669311
_cell_length_c   10.55949866
_cell_angle_alpha   90.00000000
_cell_angle_beta   90.00000000
_cell_angle_gamma   90.00000000
_symmetry_Int_Tables_number   1
_chemical_formula_structural   Cr10Fe3Ni41
_chemical_formula_sum   'Cr10 Fe3 Ni41'
_cell_volume   588.70795286
_cell_formula_units_Z   1
loop_
 _symmetry_equiv_pos_site_id
 _symmetry_equiv_pos_as_xyz
  1  'x, y, z'
loop_
 _atom_site_type_symbol
 _atom_site_label
 _atom_site_symmetry_multiplicity
 _atom_site_fract_x
 _atom_site_fract_y
 _atom_site_fract_z
 _atom_site_occupancy
  Fe  Fe0  1  0.00090991  0.00257244  0.00069636  1
  Ni  Ni1  1  0.16648349  0.16746399  0.16673516  1
  Ni  Ni2  1  0.99980530  1.00002258  0.33382510  1
  Ni  Ni3  1  0.99980491  0.33046314  0.00133436  1
  Ni  Ni4  1  0.16691595  0.49907055  0.16752864  1
  Ni  Ni5  1  0.00004057  0.33160260  0.33182741  1
  Cr  Cr6  1  0.00070080  0.66658600  0.00264825  1
  Ni  Ni7  1  0.16556977  0.83353787  0.16743665  1
  Ni  Ni8  1  0.99980557  0.66844667  0.33242731  1
  Ni  Ni9  1  0.33332129  0.00073695  0.99818741  1
  Ni  Ni10  1  0.50008526  0.16863446  0.16651202  1
  Ni  Ni11  1  0.33167675  0.99995910  0.33409060  1
  Ni  Ni12  1  0.33392216  0.33211357  0.00033802  1
  Ni  Ni13  1  0.50008493  0.49833452  0.16662644  1
  Ni  Ni14  1  0.33313848  0.33336125  0.33194393  1
  Ni  Ni15  1  0.33496739  0.66722199  0.99904571  1
  Cr  Cr16  1  0.50024125  0.83384574  0.16667343  1
  Ni  Ni17  1  0.33343665  0.66675053  0.33387750  1
  Ni  Ni18  1  0.66612329  0.00156086  0.99948247  1
  Ni  Ni19  1  0.83350298  0.16728715  0.16655557  1
  Ni  Ni20  1  0.66858890  0.99972424  0.33385607  1
  Ni  Ni21  1  0.66634380  0.33211179  0.99963311  1
  Ni  Ni22  1  0.83307007  0.49924691  0.16734958  1
  Ni  Ni23  1  0.66689219  0.33336101  0.33241268  1
  Ni  Ni24  1  0.66447443  0.66639917  0.00034339  1
  Ni  Ni25  1  0.83424001  0.83353789  0.16781103  1
  Ni  Ni26  1  0.66682928  0.66698591  0.33364303  1
  Ni  Ni27  1  0.16420055  0.16554523  0.49970980  1
  Ni  Ni28  1  0.00039653  0.00193362  0.66632309  1
  Ni  Ni29  1  0.16626039  0.16584313  0.83362743  1
  Cr  Cr30  1  0.16819113  0.49967973  0.50011986  1
  Ni  Ni31  1  0.00042433  0.32972819  0.66690932  1
  Cr  Cr32  1  0.16881741  0.49926157  0.83223294  1
  Ni  Ni33  1  0.16590948  0.83433271  0.49964870  1
  Fe  Fe34  1  0.00139376  0.66922428  0.66552564  1
  Ni  Ni35  1  0.16903147  0.83524788  0.83298761  1
  Cr  Cr36  1  0.49968075  0.16785006  0.49747034  1
  Cr  Cr37  1  0.33115734  0.99915471  0.66736147  1
  Ni  Ni38  1  0.49978489  0.16799133  0.83532990  1
  Ni  Ni39  1  0.49998185  0.50216673  0.50068491  1
  Ni  Ni40  1  0.33267157  0.33520075  0.66778833  1
  Ni  Ni41  1  0.49978455  0.50021228  0.83275927  1
  Ni  Ni42  1  0.50024519  0.83012395  0.49884327  1
  Ni  Ni43  1  0.33573116  0.66596526  0.66714695  1
  Ni  Ni44  1  0.49824847  0.83186791  0.83475772  1
  Ni  Ni45  1  0.83589083  0.16528091  0.49980349  1
  Cr  Cr46  1  0.66832328  0.99929220  0.66631630  1
  Ni  Ni47  1  0.83402533  0.16737910  0.83371149  1
  Cr  Cr48  1  0.83219705  0.50003772  0.50054948  1
  Fe  Fe49  1  0.66569323  0.33417904  0.66762230  1
  Cr  Cr50  1  0.83136888  0.49788709  0.83219293  1
  Ni  Ni51  1  0.83391752  0.83433138  0.49925276  1
  Ni  Ni52  1  0.66394516  0.66599132  0.66608599  1
  Cr  Cr53  1  0.83303440  0.83463491  0.83367942  1
" 