3813,Ni76Fe16Cr7_14,-238.153534989781, 192.582324443902,Ni76Fe16Cr7,"# generated using pymatgen
 data_Cr5Fe8Ni41
_symmetry_space_group_name_H-M   'P 1'
_cell_length_a   7.43893863
_cell_length_b   7.43893863
_cell_length_c   10.52024790
_cell_angle_alpha   90.00000000
_cell_angle_beta   90.00000000
_cell_angle_gamma   90.00000000
_symmetry_Int_Tables_number   1
_chemical_formula_structural   Cr5Fe8Ni41
_chemical_formula_sum   'Cr5 Fe8 Ni41'
_cell_volume   582.16745837
_cell_formula_units_Z   1
loop_
 _symmetry_equiv_pos_site_id
 _symmetry_equiv_pos_as_xyz
  1  'x, y, z'
loop_
 _atom_site_type_symbol
 _atom_site_label
 _atom_site_symmetry_multiplicity
 _atom_site_fract_x
 _atom_site_fract_y
 _atom_site_fract_z
 _atom_site_occupancy
  Ni  Ni0  1  1.00188312  1.00155092  1.00123298  1
  Ni  Ni1  1  0.16989803  0.16767050  0.16903485  1
  Ni  Ni2  1  0.00233143  0.00380846  0.33471154  1
  Cr  Cr3  1  0.00234058  0.33387224  0.00199211  1
  Ni  Ni4  1  0.16953089  0.50346236  0.16960978  1
  Ni  Ni5  1  1.00178302  0.33447468  0.33575074  1
  Fe  Fe6  1  0.00364823  0.67037538  1.00185234  1
  Ni  Ni7  1  0.16823294  0.83453595  0.16819134  1
  Ni  Ni8  1  0.00510948  0.66738560  0.33380564  1
  Ni  Ni9  1  0.33423202  1.00074741  0.00258494  1
  Ni  Ni10  1  0.50263967  0.16876478  0.16828244  1
  Fe  Fe11  1  0.33461988  1.00185615  0.33463331  1
  Ni  Ni12  1  0.33526926  0.33618406  0.00311528  1
  Ni  Ni13  1  0.50040850  0.49976743  0.16751601  1
  Fe  Fe14  1  0.33496271  0.33538361  0.33531792  1
  Ni  Ni15  1  0.33464706  0.66873882  1.00148437  1
  Ni  Ni16  1  0.50060579  0.83713673  0.16894170  1
  Ni  Ni17  1  0.33362000  0.66862726  0.33553714  1
  Ni  Ni18  1  0.66955277  0.00217477  0.00332598  1
  Ni  Ni19  1  0.83313309  0.16747042  0.16934457  1
  Ni  Ni20  1  0.66828841  0.00454543  0.33364549  1
  Ni  Ni21  1  0.66797889  0.33422060  0.00235735  1
  Ni  Ni22  1  0.83573106  0.50143038  0.16991575  1
  Ni  Ni23  1  0.66953206  0.33305119  0.33559410  1
  Cr  Cr24  1  0.66753224  0.66925818  0.00214256  1
  Ni  Ni25  1  0.83682911  0.83676866  0.16790758  1
  Cr  Cr26  1  0.66693717  0.66824762  0.33464236  1
  Ni  Ni27  1  0.16941865  0.16861580  0.50233369  1
  Fe  Fe28  1  0.00283273  0.00237494  0.66956089  1
  Ni  Ni29  1  0.16828793  0.16803638  0.83429989  1
  Ni  Ni30  1  0.16899209  0.50254317  0.50165229  1
  Ni  Ni31  1  0.00279478  0.33495057  0.66815214  1
  Ni  Ni32  1  0.16889541  0.50332634  0.83440696  1
  Ni  Ni33  1  0.16982910  0.83450622  0.50186586  1
  Ni  Ni34  1  0.00266399  0.66682419  0.66963566  1
  Ni  Ni35  1  0.16840557  0.83430225  0.83560909  1
  Ni  Ni36  1  0.50220321  0.16931245  0.50142858  1
  Fe  Fe37  1  0.33414198  1.00074134  0.66828579  1
  Cr  Cr38  1  0.50192822  0.16866960  0.83659504  1
  Ni  Ni39  1  0.50100722  0.50022162  0.50343027  1
  Ni  Ni40  1  0.33279684  0.33652893  0.66775702  1
  Fe  Fe41  1  0.50065494  0.50308555  0.83457496  1
  Fe  Fe42  1  0.49964639  0.83571197  0.50298800  1
  Ni  Ni43  1  0.33579876  0.66812432  0.66864610  1
  Ni  Ni44  1  0.50136568  0.83484050  0.83382793  1
  Ni  Ni45  1  0.83404611  0.17014382  0.50197923  1
  Ni  Ni46  1  0.66877669  1.00088695  0.66869542  1
  Ni  Ni47  1  0.83518837  0.16772262  0.83434174  1
  Ni  Ni48  1  0.83566839  0.49981924  0.50264031  1
  Fe  Fe49  1  0.66975460  0.33696573  0.66728096  1
  Ni  Ni50  1  0.83571934  0.50250227  0.83311067  1
  Cr  Cr51  1  0.83682752  0.83511854  0.50235237  1
  Ni  Ni52  1  0.66720426  0.66919381  0.66920118  1
  Ni  Ni53  1  0.83589677  0.83544419  0.83490071  1
" 