3226,Ni76Fe8Cr15_19,-234.272179806225, 172.905266847933,Ni76Fe8Cr15,"# generated using pymatgen
 data_Cr9Fe4Ni41
_symmetry_space_group_name_H-M   'P 1'
_cell_length_a   7.45786349
_cell_length_b   7.45786349
_cell_length_c   10.54701170
_cell_angle_alpha   90.00000000
_cell_angle_beta   90.00000000
_cell_angle_gamma   90.00000000
_symmetry_Int_Tables_number   1
_chemical_formula_structural   Cr9Fe4Ni41
_chemical_formula_sum   'Cr9 Fe4 Ni41'
_cell_volume   586.62192089
_cell_formula_units_Z   1
loop_
 _symmetry_equiv_pos_site_id
 _symmetry_equiv_pos_as_xyz
  1  'x, y, z'
loop_
 _atom_site_type_symbol
 _atom_site_label
 _atom_site_symmetry_multiplicity
 _atom_site_fract_x
 _atom_site_fract_y
 _atom_site_fract_z
 _atom_site_occupancy
  Ni  Ni0  1  0.99907465  0.00354427  0.99922945  1
  Ni  Ni1  1  0.16619566  0.17094737  0.16767579  1
  Ni  Ni2  1  0.00085648  0.00220555  0.33501782  1
  Ni  Ni3  1  0.00150994  0.33160272  0.00103655  1
  Ni  Ni4  1  0.16915169  0.49785449  0.16743414  1
  Ni  Ni5  1  0.99991643  0.33371973  0.33375497  1
  Cr  Cr6  1  0.99943683  0.66692533  1.00057038  1
  Cr  Cr7  1  0.16663355  0.83331760  0.16869118  1
  Ni  Ni8  1  1.00055972  0.66592208  0.33519081  1
  Cr  Cr9  1  0.33461007  0.00085499  0.99950161  1
  Ni  Ni10  1  0.50123522  0.16802922  0.16835699  1
  Ni  Ni11  1  0.33397997  1.00000621  0.33383757  1
  Ni  Ni12  1  0.33234307  0.33365572  0.00198282  1
  Ni  Ni13  1  0.49890857  0.50139983  0.16808995  1
  Fe  Fe14  1  0.33284403  0.33448556  0.33220792  1
  Ni  Ni15  1  0.33643942  0.66675012  0.00111149  1
  Ni  Ni16  1  0.50383108  0.83241963  0.16750721  1
  Ni  Ni17  1  0.33477749  0.66762494  0.33466896  1
  Ni  Ni18  1  0.66794846  0.99944491  1.00010321  1
  Ni  Ni19  1  0.83441455  0.16602138  0.16793848  1
  Ni  Ni20  1  0.66701054  0.00064568  0.33305269  1
  Cr  Cr21  1  0.66853551  0.33332597  0.00119582  1
  Fe  Fe22  1  0.83359614  0.50026201  0.16903558  1
  Ni  Ni23  1  0.66871147  0.33451621  0.33305168  1
  Ni  Ni24  1  0.66589164  0.66918298  0.00103835  1
  Ni  Ni25  1  0.83086547  0.83537527  0.16778502  1
  Ni  Ni26  1  0.66651023  0.66668583  0.33392580  1
  Ni  Ni27  1  0.16480748  0.16886840  0.49988455  1
  Ni  Ni28  1  1.00009926  0.00120113  0.66759913  1
  Ni  Ni29  1  0.16542005  0.16762837  0.83428684  1
  Ni  Ni30  1  0.16683477  0.50093913  0.50099971  1
  Ni  Ni31  1  1.00057038  0.33343058  0.66705704  1
  Cr  Cr32  1  0.16686556  0.49990892  0.83366410  1
  Ni  Ni33  1  0.16656540  0.83204501  0.50001218  1
  Ni  Ni34  1  1.00045777  0.66721704  0.66649302  1
  Ni  Ni35  1  0.16636385  0.83462751  0.83296756  1
  Cr  Cr36  1  0.50144571  0.16665047  0.49901124  1
  Cr  Cr37  1  0.33294738  0.99896221  0.66865050  1
  Ni  Ni38  1  0.50100260  0.16544511  0.83447876  1
  Fe  Fe39  1  0.50021533  0.50381945  0.49949425  1
  Fe  Fe40  1  0.33107693  0.33447610  0.66725521  1
  Cr  Cr41  1  0.49998627  0.50227523  0.83347594  1
  Ni  Ni42  1  0.50164478  0.83150869  0.49987933  1
  Ni  Ni43  1  0.33377294  0.66824997  0.66606370  1
  Ni  Ni44  1  0.50286908  0.83400198  0.83446011  1
  Ni  Ni45  1  0.83612242  0.16664748  0.50012117  1
  Ni  Ni46  1  0.66877203  0.99889971  0.66869144  1
  Ni  Ni47  1  0.83542097  0.16501229  0.83378842  1
  Ni  Ni48  1  0.83559010  0.50166686  0.49978363  1
  Cr  Cr49  1  0.66994889  0.33395242  0.66756655  1
  Ni  Ni50  1  0.83479371  0.50145835  0.83362758  1
  Ni  Ni51  1  0.83363632  0.83353375  0.50099394  1
  Ni  Ni52  1  0.66761769  0.66872085  0.66688208  1
  Ni  Ni53  1  0.83261405  0.83537701  0.83306941  1
" 