5987,Ni76Fe7Cr15_12,-234.318663695282, 172.152164983782,Ni76Fe7Cr15,"# generated using pymatgen
 data_Cr9Fe4Ni41
_symmetry_space_group_name_H-M   'P 1'
_cell_length_a   7.45872835
_cell_length_b   7.45872835
_cell_length_c   10.54823479
_cell_angle_alpha   90.00000000
_cell_angle_beta   90.00000000
_cell_angle_gamma   90.00000000
_symmetry_Int_Tables_number   1
_chemical_formula_structural   Cr9Fe4Ni41
_chemical_formula_sum   'Cr9 Fe4 Ni41'
_cell_volume   586.82602765
_cell_formula_units_Z   1
loop_
 _symmetry_equiv_pos_site_id
 _symmetry_equiv_pos_as_xyz
  1  'x, y, z'
loop_
 _atom_site_type_symbol
 _atom_site_label
 _atom_site_symmetry_multiplicity
 _atom_site_fract_x
 _atom_site_fract_y
 _atom_site_fract_z
 _atom_site_occupancy
  Ni  Ni0  1  0.00136816  0.99988229  1.00043919  1
  Ni  Ni1  1  0.16761093  0.16630422  0.16614013  1
  Ni  Ni2  1  0.99940481  1.00022815  0.33312203  1
  Ni  Ni3  1  0.00154900  0.33194040  0.00080440  1
  Ni  Ni4  1  0.16970379  0.50182250  0.16543302  1
  Cr  Cr5  1  0.99907119  0.33279454  0.33227783  1
  Ni  Ni6  1  0.00091734  0.66886178  0.00204597  1
  Ni  Ni7  1  0.16511495  0.83375297  0.16770636  1
  Ni  Ni8  1  0.99800963  0.66881499  0.33093333  1
  Ni  Ni9  1  0.33120876  0.99967681  0.00178929  1
  Ni  Ni10  1  0.50116508  0.16887327  0.16782441  1
  Ni  Ni11  1  0.33315580  0.00298631  0.33151248  1
  Ni  Ni12  1  0.33348546  0.33435531  0.00128297  1
  Ni  Ni13  1  0.50051039  0.50011308  0.16686509  1
  Ni  Ni14  1  0.33509432  0.33213430  0.33222202  1
  Ni  Ni15  1  0.33403822  0.66793948  0.99968979  1
  Fe  Fe16  1  0.49969874  0.83517404  0.16674272  1
  Ni  Ni17  1  0.33417815  0.66752235  0.32884367  1
  Fe  Fe18  1  0.66806373  0.99868796  0.00196149  1
  Ni  Ni19  1  0.83271603  0.16416063  0.16502581  1
  Ni  Ni20  1  0.66875840  0.00151267  0.33286406  1
  Ni  Ni21  1  0.66755888  0.33481839  0.00355861  1
  Fe  Fe22  1  0.83453634  0.50016097  0.16568483  1
  Ni  Ni23  1  0.66693134  0.33341343  0.33282404  1
  Ni  Ni24  1  0.66653560  0.66721636  0.00148506  1
  Ni  Ni25  1  0.83440180  0.83440825  0.16749097  1
  Ni  Ni26  1  0.66954582  0.66692469  0.33182111  1
  Ni  Ni27  1  0.16681642  0.16750999  0.50005047  1
  Ni  Ni28  1  0.99876980  0.00077372  0.66784640  1
  Ni  Ni29  1  0.16505355  0.16790682  0.83529760  1
  Cr  Cr30  1  0.16690971  0.50191506  0.50152585  1
  Fe  Fe31  1  0.00086774  0.33276809  0.66789158  1
  Ni  Ni32  1  0.16851924  0.50078730  0.83461952  1
  Cr  Cr33  1  0.16414670  0.83361025  0.49717453  1
  Ni  Ni34  1  0.99890656  0.66955592  0.66832336  1
  Ni  Ni35  1  0.16520296  0.83292155  0.83555494  1
  Ni  Ni36  1  0.50123960  0.16731505  0.49760430  1
  Cr  Cr37  1  0.33305099  0.00089256  0.66851157  1
  Cr  Cr38  1  0.50280609  0.16793497  0.83782810  1
  Cr  Cr39  1  0.49945525  0.50120062  0.50007704  1
  Ni  Ni40  1  0.33202178  0.33346038  0.66864220  1
  Ni  Ni41  1  0.49878423  0.50227037  0.83481136  1
  Cr  Cr42  1  0.50280650  0.83469793  0.49844072  1
  Ni  Ni43  1  0.33358357  0.66627363  0.67284063  1
  Ni  Ni44  1  0.50243703  0.83174624  0.83626371  1
  Ni  Ni45  1  0.83367215  0.16445398  0.50046456  1
  Ni  Ni46  1  0.67097518  0.99894594  0.66829710  1
  Ni  Ni47  1  0.83633834  0.16366511  0.83603430  1
  Ni  Ni48  1  0.83378682  0.50308639  0.49865026  1
  Cr  Cr49  1  0.66760897  0.33302683  0.66527539  1
  Cr  Cr50  1  0.83486725  0.50044894  0.83670633  1
  Ni  Ni51  1  0.83377355  0.83436841  0.50054677  1
  Ni  Ni52  1  0.66914141  0.66889656  0.66832072  1
  Ni  Ni53  1  0.83424103  0.83520232  0.83412507  1
" 