8865,Ni76Fe16Cr7_18,-238.105383797238, 190.626658638989,Ni76Fe16Cr7,"# generated using pymatgen
 data_Cr5Fe8Ni41
_symmetry_space_group_name_H-M   'P 1'
_cell_length_a   7.43961744
_cell_length_b   7.43961744
_cell_length_c   10.52120788
_cell_angle_alpha   90.00000000
_cell_angle_beta   90.00000000
_cell_angle_gamma   90.00000000
_symmetry_Int_Tables_number   1
_chemical_formula_structural   Cr5Fe8Ni41
_chemical_formula_sum   'Cr5 Fe8 Ni41'
_cell_volume   582.32684160
_cell_formula_units_Z   1
loop_
 _symmetry_equiv_pos_site_id
 _symmetry_equiv_pos_as_xyz
  1  'x, y, z'
loop_
 _atom_site_type_symbol
 _atom_site_label
 _atom_site_symmetry_multiplicity
 _atom_site_fract_x
 _atom_site_fract_y
 _atom_site_fract_z
 _atom_site_occupancy
  Ni  Ni0  1  1.00022456  0.00261545  0.00349009  1
  Fe  Fe1  1  0.16725761  0.16840623  0.16787433  1
  Fe  Fe2  1  1.00053276  1.00051562  0.33432511  1
  Ni  Ni3  1  0.00349320  0.33349222  1.00082423  1
  Fe  Fe4  1  0.17044072  0.50305207  0.16856042  1
  Ni  Ni5  1  0.00238116  0.33475064  0.33522310  1
  Ni  Ni6  1  0.00242130  0.66942149  1.00165661  1
  Ni  Ni7  1  0.16775868  0.83579798  0.16853582  1
  Ni  Ni8  1  0.00341043  0.66960925  0.33635237  1
  Fe  Fe9  1  0.33525680  1.00170653  1.00119869  1
  Cr  Cr10  1  0.50171317  0.16973072  0.16863096  1
  Fe  Fe11  1  0.33554924  1.00016256  0.33558387  1
  Ni  Ni12  1  0.33406589  0.33665628  1.00101773  1
  Ni  Ni13  1  0.50098006  0.50242112  0.16826536  1
  Ni  Ni14  1  0.33485266  0.33720326  0.33519002  1
  Ni  Ni15  1  0.33607240  0.66719393  0.00311465  1
  Ni  Ni16  1  0.50140457  0.83411199  0.16848097  1
  Ni  Ni17  1  0.33475201  0.66809309  0.33505236  1
  Ni  Ni18  1  0.67020040  1.00060701  1.00071015  1
  Fe  Fe19  1  0.83579579  0.16648759  0.16878643  1
  Ni  Ni20  1  0.66981633  1.00126336  0.33627151  1
  Ni  Ni21  1  0.66797178  0.33445858  1.00057536  1
  Cr  Cr22  1  0.83404518  0.50258071  0.16867237  1
  Ni  Ni23  1  0.66829589  0.33393161  0.33694476  1
  Ni  Ni24  1  0.66703838  0.67046248  1.00140937  1
  Ni  Ni25  1  0.83636797  0.83596194  0.16823052  1
  Ni  Ni26  1  0.66736847  0.67033256  0.33553725  1
  Cr  Cr27  1  0.17035298  0.16885240  0.50147707  1
  Cr  Cr28  1  0.99995061  0.00189152  0.66829833  1
  Ni  Ni29  1  0.17026245  0.17083466  0.83641839  1
  Ni  Ni30  1  0.16806279  0.50372588  0.50173376  1
  Ni  Ni31  1  1.00181300  0.33733014  0.66948131  1
  Ni  Ni32  1  0.16762428  0.49951811  0.83532448  1
  Ni  Ni33  1  0.16827442  0.83298013  0.50108872  1
  Ni  Ni34  1  1.00176072  0.66640093  0.66751834  1
  Cr  Cr35  1  0.16851759  0.83480012  0.83528274  1
  Ni  Ni36  1  0.50333787  0.16920423  0.50215303  1
  Ni  Ni37  1  0.33836825  0.00189827  0.66859529  1
  Ni  Ni38  1  0.50104044  0.16877592  0.83471043  1
  Ni  Ni39  1  0.50245067  0.50052211  0.50126325  1
  Ni  Ni40  1  0.33559093  0.33599207  0.66932421  1
  Ni  Ni41  1  0.50265252  0.50055505  0.83600163  1
  Fe  Fe42  1  0.50229353  0.83484078  0.50209900  1
  Ni  Ni43  1  0.33554403  0.66763739  0.66736271  1
  Ni  Ni44  1  0.50379383  0.83620069  0.83531600  1
  Ni  Ni45  1  0.83220542  0.16941655  0.50056739  1
  Ni  Ni46  1  0.66688440  0.00184744  0.66854715  1
  Fe  Fe47  1  0.83407692  0.16967262  0.83576845  1
  Ni  Ni48  1  0.83501736  0.50224554  0.50206048  1
  Ni  Ni49  1  0.66812592  0.33450368  0.66800766  1
  Ni  Ni50  1  0.83525482  0.50227040  0.83474681  1
  Ni  Ni51  1  0.83540554  0.83386712  0.50070636  1
  Ni  Ni52  1  0.66822679  0.66917813  0.66858561  1
  Ni  Ni53  1  0.83319458  0.83356193  0.83659712  1
" 