6673,Ni76Fe22Cr0_3,-242.052060312292, 208.907870772939,Ni76Fe22Cr0,"# generated using pymatgen
 data_CrFe12Ni41
_symmetry_space_group_name_H-M   'P 1'
_cell_length_a   7.42188023
_cell_length_b   7.42188023
_cell_length_c   10.49612368
_cell_angle_alpha   90.00000000
_cell_angle_beta   90.00000000
_cell_angle_gamma   90.00000000
_symmetry_Int_Tables_number   1
_chemical_formula_structural   CrFe12Ni41
_chemical_formula_sum   'Cr1 Fe12 Ni41'
_cell_volume   578.17169013
_cell_formula_units_Z   1
loop_
 _symmetry_equiv_pos_site_id
 _symmetry_equiv_pos_as_xyz
  1  'x, y, z'
loop_
 _atom_site_type_symbol
 _atom_site_label
 _atom_site_symmetry_multiplicity
 _atom_site_fract_x
 _atom_site_fract_y
 _atom_site_fract_z
 _atom_site_occupancy
  Ni  Ni0  1  0.00354977  1.00302566  1.00227797  1
  Ni  Ni1  1  0.16870432  0.16997019  0.16835512  1
  Ni  Ni2  1  0.00304918  0.00429632  0.33708088  1
  Ni  Ni3  1  0.00457903  0.33795224  1.00237382  1
  Ni  Ni4  1  0.17169250  0.50301191  0.17066189  1
  Ni  Ni5  1  0.00483369  0.33734291  0.33715885  1
  Ni  Ni6  1  1.00228867  0.66825411  0.00444816  1
  Ni  Ni7  1  0.16882726  0.83671203  0.16905846  1
  Fe  Fe8  1  0.00360900  0.67113913  0.33723639  1
  Ni  Ni9  1  0.33561476  0.00414008  0.00373471  1
  Ni  Ni10  1  0.50244644  0.17241048  0.17173656  1
  Ni  Ni11  1  0.33711095  0.00400204  0.33536435  1
  Ni  Ni12  1  0.33484300  0.33651866  1.00277495  1
  Ni  Ni13  1  0.50302549  0.50288188  0.16940179  1
  Ni  Ni14  1  0.33438590  0.33616388  0.33772759  1
  Ni  Ni15  1  0.33638612  0.66894289  1.00295309  1
  Ni  Ni16  1  0.50247555  0.83379306  0.16959166  1
  Fe  Fe17  1  0.33673764  0.67082232  0.33569225  1
  Cr  Cr18  1  0.66835277  1.00155091  0.00414361  1
  Ni  Ni19  1  0.83795914  0.16998210  0.17082953  1
  Ni  Ni20  1  0.66900752  1.00004174  0.33717238  1
  Fe  Fe21  1  0.66964398  0.33724755  1.00214677  1
  Fe  Fe22  1  0.83672917  0.50318634  0.17079086  1
  Fe  Fe23  1  0.66967474  0.33472228  0.33760313  1
  Ni  Ni24  1  0.67084868  0.66886149  1.00132358  1
  Ni  Ni25  1  0.83774617  0.83653293  0.17152592  1
  Ni  Ni26  1  0.67019069  0.67070506  0.33706327  1
  Ni  Ni27  1  0.16881435  0.16902133  0.50385724  1
  Fe  Fe28  1  0.00369535  0.00459646  0.66961037  1
  Ni  Ni29  1  0.16951470  0.16980129  0.83695365  1
  Fe  Fe30  1  0.16842865  0.50343814  0.50339105  1
  Ni  Ni31  1  0.00390351  0.33896093  0.66960453  1
  Ni  Ni32  1  0.17198234  0.50367582  0.83538350  1
  Ni  Ni33  1  0.17017633  0.83803985  0.50308859  1
  Ni  Ni34  1  1.00228095  0.66888693  0.66831768  1
  Ni  Ni35  1  0.16780740  0.83577842  0.83714707  1
  Fe  Fe36  1  0.50317492  0.16802272  0.50331780  1
  Ni  Ni37  1  0.33783891  0.00349741  0.67026490  1
  Ni  Ni38  1  0.50248034  0.17337471  0.83480079  1
  Ni  Ni39  1  0.50262787  0.50275301  0.50274395  1
  Ni  Ni40  1  0.33554033  0.33554653  0.66879719  1
  Ni  Ni41  1  0.50280245  0.50254485  0.83646064  1
  Ni  Ni42  1  0.50230926  0.83362679  0.50379687  1
  Fe  Fe43  1  0.33590330  0.66902177  0.67027432  1
  Fe  Fe44  1  0.50095763  0.83710971  0.83575565  1
  Ni  Ni45  1  0.83768428  0.16977740  0.50356746  1
  Ni  Ni46  1  0.66851370  1.00179211  0.66849522  1
  Ni  Ni47  1  0.83715226  0.16931883  0.83471804  1
  Ni  Ni48  1  0.83406778  0.50245066  0.50292542  1
  Ni  Ni49  1  0.66973623  0.33552419  0.66905107  1
  Fe  Fe50  1  0.83835348  0.50235604  0.83519794  1
  Ni  Ni51  1  0.83670532  0.83688169  0.50343857  1
  Fe  Fe52  1  0.66932357  0.66829577  0.66911160  1
  Ni  Ni53  1  0.83822670  0.83601050  0.83401539  1
" 