6280,Ni76Fe22Cr0_14,-241.97993449325, 209.505944516067,Ni76Fe22Cr0,"# generated using pymatgen
 data_CrFe12Ni41
_symmetry_space_group_name_H-M   'P 1'
_cell_length_a   7.42169628
_cell_length_b   7.42169628
_cell_length_c   10.49586353
_cell_angle_alpha   90.00000000
_cell_angle_beta   90.00000000
_cell_angle_gamma   90.00000000
_symmetry_Int_Tables_number   1
_chemical_formula_structural   CrFe12Ni41
_chemical_formula_sum   'Cr1 Fe12 Ni41'
_cell_volume   578.12870134
_cell_formula_units_Z   1
loop_
 _symmetry_equiv_pos_site_id
 _symmetry_equiv_pos_as_xyz
  1  'x, y, z'
loop_
 _atom_site_type_symbol
 _atom_site_label
 _atom_site_symmetry_multiplicity
 _atom_site_fract_x
 _atom_site_fract_y
 _atom_site_fract_z
 _atom_site_occupancy
  Ni  Ni0  1  1.00260702  0.00448850  0.00310563  1
  Ni  Ni1  1  0.16974871  0.16928829  0.16960502  1
  Ni  Ni2  1  0.00467974  0.00633440  0.33574027  1
  Ni  Ni3  1  0.00322546  0.33531710  1.00233573  1
  Ni  Ni4  1  0.16913822  0.50321312  0.16939893  1
  Ni  Ni5  1  1.00253781  0.33503947  0.33712564  1
  Ni  Ni6  1  1.00250919  0.66945119  0.00409844  1
  Ni  Ni7  1  0.17052052  0.83666708  0.17030049  1
  Fe  Fe8  1  0.00537446  0.66890128  0.33571140  1
  Ni  Ni9  1  0.33659381  0.00309610  1.00299752  1
  Ni  Ni10  1  0.50273816  0.16936603  0.16893664  1
  Ni  Ni11  1  0.33591445  1.00254648  0.33658549  1
  Ni  Ni12  1  0.33558180  0.33620757  0.00407811  1
  Ni  Ni13  1  0.50372985  0.50322942  0.17022630  1
  Fe  Fe14  1  0.33523256  0.33638659  0.33578560  1
  Ni  Ni15  1  0.33776949  0.66978760  1.00280460  1
  Ni  Ni16  1  0.50195809  0.83647171  0.16943404  1
  Ni  Ni17  1  0.33865869  0.67070163  0.33716187  1
  Ni  Ni18  1  0.66988218  1.00247088  0.00337139  1
  Ni  Ni19  1  0.83638724  0.17130844  0.17015084  1
  Fe  Fe20  1  0.66798267  0.00332464  0.33479160  1
  Fe  Fe21  1  0.66982832  0.33638554  1.00248716  1
  Ni  Ni22  1  0.83634556  0.50257361  0.16978929  1
  Fe  Fe23  1  0.66924739  0.33615345  0.33678170  1
  Ni  Ni24  1  0.66892570  0.67053127  1.00266362  1
  Fe  Fe25  1  0.83635045  0.83661977  0.16923551  1
  Ni  Ni26  1  0.66741618  0.66878461  0.33609968  1
  Ni  Ni27  1  0.17117592  0.16993866  0.50288285  1
  Fe  Fe28  1  0.00460899  0.00309489  0.67071139  1
  Ni  Ni29  1  0.17033657  0.16934934  0.83661904  1
  Ni  Ni30  1  0.16809241  0.50284023  0.50327081  1
  Ni  Ni31  1  1.00298349  0.33532585  0.66952524  1
  Fe  Fe32  1  0.17027317  0.50290980  0.83619902  1
  Ni  Ni33  1  0.17134861  0.83658733  0.50301676  1
  Ni  Ni34  1  0.00354463  0.66832215  0.66972757  1
  Ni  Ni35  1  0.16961495  0.83652076  0.83599814  1
  Ni  Ni36  1  0.50253944  0.16929009  0.50284158  1
  Fe  Fe37  1  0.33643126  0.00359062  0.66976121  1
  Ni  Ni38  1  0.50228906  0.17057444  0.83731866  1
  Fe  Fe39  1  0.50190253  0.50395473  0.50386973  1
  Ni  Ni40  1  0.33618571  0.33597067  0.66868766  1
  Ni  Ni41  1  0.50407075  0.50248554  0.83566441  1
  Ni  Ni42  1  0.50214546  0.83801050  0.50388984  1
  Ni  Ni43  1  0.33710601  0.67022731  0.66930388  1
  Ni  Ni44  1  0.50254499  0.83622013  0.83607546  1
  Fe  Fe45  1  0.83745244  0.17034458  0.50299395  1
  Fe  Fe46  1  0.66827349  0.00369757  0.67183462  1
  Ni  Ni47  1  0.83653571  0.17065539  0.83528878  1
  Ni  Ni48  1  0.83641637  0.50186298  0.50305634  1
  Ni  Ni49  1  0.67008280  0.33637331  0.66894392  1
  Ni  Ni50  1  0.83619543  0.50343180  0.83619168  1
  Cr  Cr51  1  0.83637271  0.83433003  0.50270591  1
  Ni  Ni52  1  0.66858445  0.66929274  0.67050791  1
  Ni  Ni53  1  0.83699624  0.83514013  0.83729843  1
" 