5184,Ni76Fe7Cr15_15,-234.219971724308, 170.19480332365,Ni76Fe7Cr15,"# generated using pymatgen
 data_Cr9Fe4Ni41
_symmetry_space_group_name_H-M   'P 1'
_cell_length_a   7.45848482
_cell_length_b   7.45848482
_cell_length_c   10.54789039
_cell_angle_alpha   90.00000000
_cell_angle_beta   90.00000000
_cell_angle_gamma   90.00000000
_symmetry_Int_Tables_number   1
_chemical_formula_structural   Cr9Fe4Ni41
_chemical_formula_sum   'Cr9 Fe4 Ni41'
_cell_volume   586.76855098
_cell_formula_units_Z   1
loop_
 _symmetry_equiv_pos_site_id
 _symmetry_equiv_pos_as_xyz
  1  'x, y, z'
loop_
 _atom_site_type_symbol
 _atom_site_label
 _atom_site_symmetry_multiplicity
 _atom_site_fract_x
 _atom_site_fract_y
 _atom_site_fract_z
 _atom_site_occupancy
  Ni  Ni0  1  1.00044734  1.00041113  1.00053662  1
  Ni  Ni1  1  0.16715267  0.16537795  0.16728977  1
  Ni  Ni2  1  0.00224336  1.00019605  0.33415732  1
  Ni  Ni3  1  0.99827507  0.33285665  0.00072159  1
  Ni  Ni4  1  0.16212572  0.50106061  0.16588534  1
  Ni  Ni5  1  0.99973526  0.33405561  0.33404167  1
  Ni  Ni6  1  0.99998477  0.66822387  0.00153956  1
  Ni  Ni7  1  0.16580185  0.83551788  0.16627923  1
  Ni  Ni8  1  0.00074548  0.66720146  0.33396724  1
  Ni  Ni9  1  0.33357144  0.99931014  1.00051032  1
  Ni  Ni10  1  0.50129666  0.16577908  0.16681732  1
  Ni  Ni11  1  0.33246085  1.00052511  0.33390650  1
  Cr  Cr12  1  0.33188216  0.33287412  0.00232796  1
  Fe  Fe13  1  0.50165123  0.50174460  0.16602125  1
  Cr  Cr14  1  0.33300941  0.33359655  0.33409440  1
  Ni  Ni15  1  0.33294598  0.67048895  0.00254796  1
  Ni  Ni16  1  0.50069371  0.83721697  0.16364569  1
  Cr  Cr17  1  0.33140803  0.66926828  0.33282758  1
  Ni  Ni18  1  0.66809406  0.00059287  0.99985266  1
  Fe  Fe19  1  0.83586989  0.16636935  0.16739844  1
  Cr  Cr20  1  0.66756787  0.00075959  0.33519674  1
  Ni  Ni21  1  0.66974897  0.33266620  0.00209966  1
  Ni  Ni22  1  0.83479620  0.50037101  0.16627441  1
  Ni  Ni23  1  0.66908922  0.33371301  0.33357427  1
  Ni  Ni24  1  0.66856332  0.66835810  0.00101811  1
  Ni  Ni25  1  0.83523969  0.83248800  0.16616257  1
  Cr  Cr26  1  0.66850830  0.66688999  0.33522596  1
  Ni  Ni27  1  0.16668116  0.16606846  0.50145852  1
  Ni  Ni28  1  0.00218799  1.00019172  0.66699853  1
  Ni  Ni29  1  0.16791564  0.16438519  0.83296601  1
  Ni  Ni30  1  0.16504094  0.50050936  0.50246229  1
  Ni  Ni31  1  0.00177701  0.33306241  0.66671799  1
  Cr  Cr32  1  0.16443368  0.50162140  0.83268696  1
  Ni  Ni33  1  0.16601339  0.83522502  0.50082444  1
  Ni  Ni34  1  0.99987389  0.66846906  0.66617063  1
  Ni  Ni35  1  0.16562873  0.83608590  0.83449346  1
  Ni  Ni36  1  0.49885199  0.16704865  0.50036683  1
  Ni  Ni37  1  0.33232005  1.00045754  0.66715228  1
  Ni  Ni38  1  0.49921171  0.16506492  0.83473109  1
  Ni  Ni39  1  0.50109798  0.50011596  0.50159372  1
  Ni  Ni40  1  0.33240780  0.33243298  0.66532010  1
  Cr  Cr41  1  0.50227291  0.50079809  0.83450051  1
  Ni  Ni42  1  0.49888823  0.83449056  0.50324744  1
  Ni  Ni43  1  0.33311927  0.66873255  0.66551261  1
  Fe  Fe44  1  0.49909316  0.83382011  0.83457758  1
  Ni  Ni45  1  0.83651325  0.16806578  0.49927551  1
  Cr  Cr46  1  0.66903156  0.99889463  0.66738846  1
  Fe  Fe47  1  0.83654670  0.16726990  0.83475022  1
  Ni  Ni48  1  0.83566596  0.50074271  0.50098158  1
  Cr  Cr49  1  0.66884667  0.33363663  0.66609844  1
  Ni  Ni50  1  0.83420821  0.50288356  0.83456765  1
  Ni  Ni51  1  0.83683025  0.83294984  0.50115812  1
  Ni  Ni52  1  0.66844953  0.66792161  0.66627831  1
  Ni  Ni53  1  0.83518147  0.83213990  0.83479818  1
" 