6302,Ni76Fe16Cr7_9,-238.507066534752, 193.302636426389,Ni76Fe16Cr7,"# generated using pymatgen
 data_Cr5Fe8Ni41
_symmetry_space_group_name_H-M   'P 1'
_cell_length_a   7.44129358
_cell_length_b   7.44129358
_cell_length_c   10.52357830
_cell_angle_alpha   90.00000000
_cell_angle_beta   90.00000000
_cell_angle_gamma   90.00000000
_symmetry_Int_Tables_number   1
_chemical_formula_structural   Cr5Fe8Ni41
_chemical_formula_sum   'Cr5 Fe8 Ni41'
_cell_volume   582.72052438
_cell_formula_units_Z   1
loop_
 _symmetry_equiv_pos_site_id
 _symmetry_equiv_pos_as_xyz
  1  'x, y, z'
loop_
 _atom_site_type_symbol
 _atom_site_label
 _atom_site_symmetry_multiplicity
 _atom_site_fract_x
 _atom_site_fract_y
 _atom_site_fract_z
 _atom_site_occupancy
  Ni  Ni0  1  1.00132029  0.00352677  1.00116669  1
  Ni  Ni1  1  0.16682956  0.16658680  0.16819667  1
  Ni  Ni2  1  1.00122060  1.00144268  0.33532323  1
  Ni  Ni3  1  0.00181550  0.33186578  1.00100898  1
  Cr  Cr4  1  0.16940634  0.50048345  0.16868409  1
  Ni  Ni5  1  1.00031492  0.33346992  0.33549581  1
  Cr  Cr6  1  0.00215142  0.67002743  0.00180973  1
  Ni  Ni7  1  0.17074572  0.83820604  0.16932053  1
  Ni  Ni8  1  1.00036967  0.67027946  0.33544897  1
  Ni  Ni9  1  0.33523910  0.00194813  1.00144006  1
  Fe  Fe10  1  0.50181667  0.16890215  0.16806346  1
  Fe  Fe11  1  0.33440501  1.00114960  0.33501453  1
  Ni  Ni12  1  0.33524102  0.33393747  1.00127781  1
  Ni  Ni13  1  0.50404915  0.50319530  0.16822447  1
  Ni  Ni14  1  0.33677492  0.33448272  0.33516039  1
  Ni  Ni15  1  0.33676071  0.66930543  1.00095811  1
  Ni  Ni16  1  0.50131354  0.83372531  0.16777143  1
  Ni  Ni17  1  0.33639835  0.66894250  0.33527144  1
  Ni  Ni18  1  0.66863207  0.00200355  1.00091968  1
  Ni  Ni19  1  0.83593674  0.16932683  0.16782802  1
  Ni  Ni20  1  0.66943803  0.00181800  0.33525489  1
  Ni  Ni21  1  0.66813340  0.33338588  0.00352304  1
  Ni  Ni22  1  0.83145778  0.49928206  0.16939970  1
  Ni  Ni23  1  0.66810117  0.33533439  0.33543045  1
  Ni  Ni24  1  0.66655953  0.66980211  0.00320184  1
  Fe  Fe25  1  0.83429302  0.83582951  0.16933030  1
  Ni  Ni26  1  0.66842157  0.66803961  0.33554524  1
  Ni  Ni27  1  0.16741438  0.16667417  0.50130162  1
  Ni  Ni28  1  1.00077914  1.00072465  0.66870338  1
  Ni  Ni29  1  0.16725639  0.16827977  0.83568918  1
  Cr  Cr30  1  0.16880730  0.50145399  0.50149959  1
  Fe  Fe31  1  0.00275133  0.33270887  0.66853054  1
  Ni  Ni32  1  0.17003911  0.50027376  0.83461164  1
  Ni  Ni33  1  0.16929986  0.83737496  0.50163044  1
  Ni  Ni34  1  0.00216262  0.67028789  0.66828775  1
  Ni  Ni35  1  0.17026344  0.83663231  0.83423964  1
  Fe  Fe36  1  0.50209805  0.16821022  0.50191494  1
  Ni  Ni37  1  0.33527420  0.00194431  0.66799543  1
  Fe  Fe38  1  0.50122408  0.16599526  0.83521467  1
  Ni  Ni39  1  0.50362695  0.50275048  0.50118062  1
  Ni  Ni40  1  0.33528010  0.33435044  0.66875205  1
  Cr  Cr41  1  0.49969327  0.50354442  0.83604656  1
  Ni  Ni42  1  0.50178217  0.83408254  0.50200138  1
  Ni  Ni43  1  0.33405838  0.66889457  0.66896135  1
  Ni  Ni44  1  0.50131379  0.83600979  0.83541525  1
  Ni  Ni45  1  0.83571774  0.16852110  0.50185034  1
  Ni  Ni46  1  0.66913864  0.00194637  0.66901624  1
  Ni  Ni47  1  0.83634292  0.16639836  0.83551415  1
  Ni  Ni48  1  0.83242461  0.50086464  0.50135562  1
  Fe  Fe49  1  0.66839160  0.33323738  0.66643010  1
  Cr  Cr50  1  0.83557448  0.50015425  0.83448745  1
  Ni  Ni51  1  0.83410620  0.83580530  0.50140279  1
  Fe  Fe52  1  0.66786766  0.67124085  0.66650475  1
  Ni  Ni53  1  0.83361177  0.83878642  0.83483893  1
" 