7695,Ni76Fe6Cr17_6,-233.117259263612, 166.566440071988,Ni76Fe6Cr17,"# generated using pymatgen
 data_Cr10Fe3Ni41
_symmetry_space_group_name_H-M   'P 1'
_cell_length_a   7.46174322
_cell_length_b   7.46174322
_cell_length_c   10.55249846
_cell_angle_alpha   90.00000000
_cell_angle_beta   90.00000000
_cell_angle_gamma   90.00000000
_symmetry_Int_Tables_number   1
_chemical_formula_structural   Cr10Fe3Ni41
_chemical_formula_sum   'Cr10 Fe3 Ni41'
_cell_volume   587.53791340
_cell_formula_units_Z   1
loop_
 _symmetry_equiv_pos_site_id
 _symmetry_equiv_pos_as_xyz
  1  'x, y, z'
loop_
 _atom_site_type_symbol
 _atom_site_label
 _atom_site_symmetry_multiplicity
 _atom_site_fract_x
 _atom_site_fract_y
 _atom_site_fract_z
 _atom_site_occupancy
  Ni  Ni0  1  0.99935582  0.00042817  0.00128434  1
  Cr  Cr1  1  0.16711199  0.16463194  0.16685939  1
  Ni  Ni2  1  1.00002927  0.99983056  0.33381341  1
  Ni  Ni3  1  0.99910920  0.33385428  0.99823956  1
  Cr  Cr4  1  0.16544844  0.50179964  0.16557021  1
  Ni  Ni5  1  0.99784907  0.33385326  0.33554188  1
  Ni  Ni6  1  0.00118951  0.66678434  0.00108521  1
  Ni  Ni7  1  0.16432070  0.83430337  0.16605687  1
  Ni  Ni8  1  0.99818734  0.66738199  0.33401249  1
  Ni  Ni9  1  0.33428077  0.00116150  0.99984911  1
  Ni  Ni10  1  0.50231158  0.16725130  0.16686366  1
  Ni  Ni11  1  0.33364291  0.00155001  0.33518897  1
  Ni  Ni12  1  0.33347393  0.33206690  0.99934709  1
  Cr  Cr13  1  0.50200965  0.49686619  0.16702542  1
  Fe  Fe14  1  0.33379054  0.33008042  0.33548292  1
  Ni  Ni15  1  0.33065876  0.66783862  0.99964379  1
  Cr  Cr16  1  0.50027891  0.83628785  0.16659278  1
  Cr  Cr17  1  0.33200076  0.66901806  0.33459857  1
  Ni  Ni18  1  0.66742955  0.00324051  0.99966267  1
  Ni  Ni19  1  0.83129754  0.16648155  0.16669786  1
  Ni  Ni20  1  0.66739499  0.00188475  0.33417205  1
  Ni  Ni21  1  0.66848342  0.33023544  0.00108613  1
  Ni  Ni22  1  0.83365488  0.50028653  0.16802155  1
  Ni  Ni23  1  0.66930317  0.33207045  0.33275422  1
  Cr  Cr24  1  0.66917287  0.66736424  1.00022440  1
  Ni  Ni25  1  0.83634188  0.83429748  0.16785940  1
  Ni  Ni26  1  0.67102323  0.66711168  0.33437390  1
  Ni  Ni27  1  0.16871606  0.16699852  0.49967870  1
  Cr  Cr28  1  0.99967454  0.00210865  0.66602277  1
  Ni  Ni29  1  0.16857514  0.16912485  0.83446555  1
  Ni  Ni30  1  0.16528827  0.50035707  0.50183435  1
  Ni  Ni31  1  0.00057951  0.33607617  0.66728576  1
  Ni  Ni32  1  0.16622590  0.49931246  0.83363531  1
  Ni  Ni33  1  0.16655095  0.83371070  0.49949203  1
  Ni  Ni34  1  0.99974869  0.66366718  0.66596879  1
  Cr  Cr35  1  0.16689553  0.83294707  0.83560987  1
  Ni  Ni36  1  0.49984821  0.16581617  0.49994472  1
  Ni  Ni37  1  0.33664131  0.00106564  0.66602822  1
  Ni  Ni38  1  0.50042945  0.16610886  0.83425835  1
  Cr  Cr39  1  0.50149501  0.49902137  0.50071804  1
  Ni  Ni40  1  0.33194186  0.33246884  0.66662459  1
  Cr  Cr41  1  0.49943388  0.49906484  0.83332339  1
  Fe  Fe42  1  0.50116055  0.83632480  0.50117226  1
  Ni  Ni43  1  0.33303260  0.66753401  0.66659335  1
  Fe  Fe44  1  0.50124964  0.83632322  0.83288573  1
  Ni  Ni45  1  0.83250229  0.16707958  0.49946411  1
  Ni  Ni46  1  0.66467712  1.00023489  0.66723105  1
  Ni  Ni47  1  0.83206234  0.16729357  0.83490486  1
  Ni  Ni48  1  0.83485082  0.50135540  0.50029339  1
  Ni  Ni49  1  0.66854554  0.33246831  0.66722638  1
  Ni  Ni50  1  0.83549000  0.50006344  0.83275241  1
  Ni  Ni51  1  0.83366885  0.83263162  0.49913888  1
  Ni  Ni52  1  0.66828601  0.66836565  0.66666463  1
  Ni  Ni53  1  0.83247292  0.83370980  0.83406839  1
" 