1864,Ni76Fe7Cr15_18,-234.346768936342, 178.144307440156,Ni76Fe7Cr15,"# generated using pymatgen
 data_Cr9Fe4Ni41
_symmetry_space_group_name_H-M   'P 1'
_cell_length_a   7.45580661
_cell_length_b   7.45580661
_cell_length_c   10.54410283
_cell_angle_alpha   90.00000000
_cell_angle_beta   90.00000000
_cell_angle_gamma   90.00000000
_symmetry_Int_Tables_number   1
_chemical_formula_structural   Cr9Fe4Ni41
_chemical_formula_sum   'Cr9 Fe4 Ni41'
_cell_volume   586.13668273
_cell_formula_units_Z   1
loop_
 _symmetry_equiv_pos_site_id
 _symmetry_equiv_pos_as_xyz
  1  'x, y, z'
loop_
 _atom_site_type_symbol
 _atom_site_label
 _atom_site_symmetry_multiplicity
 _atom_site_fract_x
 _atom_site_fract_y
 _atom_site_fract_z
 _atom_site_occupancy
  Ni  Ni0  1  0.00136623  1.00027905  0.00177382  1
  Ni  Ni1  1  0.16627409  0.16680641  0.16592915  1
  Fe  Fe2  1  1.00053040  1.00010542  0.33306068  1
  Ni  Ni3  1  1.00033729  0.33383073  0.00252693  1
  Fe  Fe4  1  0.16664702  0.50082093  0.16722586  1
  Ni  Ni5  1  0.00082831  0.33450811  0.33197293  1
  Ni  Ni6  1  0.00145333  0.66815699  0.00178824  1
  Ni  Ni7  1  0.16623445  0.83536890  0.16691562  1
  Ni  Ni8  1  0.99976561  0.66747316  0.33291909  1
  Ni  Ni9  1  0.33177395  0.99851876  1.00060155  1
  Cr  Cr10  1  0.50050345  0.16680378  0.16680476  1
  Ni  Ni11  1  0.33436988  1.00061712  0.33393878  1
  Ni  Ni12  1  0.33255912  0.33521844  0.00193633  1
  Ni  Ni13  1  0.50159322  0.49997539  0.16752353  1
  Ni  Ni14  1  0.33330745  0.33342450  0.33421993  1
  Ni  Ni15  1  0.33352022  0.66853498  0.00162499  1
  Ni  Ni16  1  0.50030039  0.83410478  0.16711682  1
  Cr  Cr17  1  0.33424276  0.66783289  0.33467530  1
  Ni  Ni18  1  0.66888361  0.99941959  0.00174507  1
  Ni  Ni19  1  0.83575376  0.16767055  0.16853528  1
  Ni  Ni20  1  0.66799861  0.99962744  0.33505715  1
  Ni  Ni21  1  0.66899503  0.33506595  0.00192540  1
  Ni  Ni22  1  0.83494272  0.50023223  0.16750712  1
  Ni  Ni23  1  0.66826329  0.33392558  0.33409880  1
  Cr  Cr24  1  0.66796506  0.66739277  1.00065298  1
  Ni  Ni25  1  0.83581018  0.83420619  0.16821592  1
  Ni  Ni26  1  0.66858492  0.66849809  0.33302603  1
  Cr  Cr27  1  0.16717852  0.16814495  0.50080878  1
  Ni  Ni28  1  0.99894676  0.99901701  0.66684394  1
  Fe  Fe29  1  0.16645201  0.16688298  0.83541606  1
  Ni  Ni30  1  0.16726731  0.50133489  0.50079559  1
  Ni  Ni31  1  1.00064842  0.33404317  0.66767162  1
  Cr  Cr32  1  0.16692187  0.50204266  0.83346219  1
  Ni  Ni33  1  0.16499942  0.83268247  0.50078994  1
  Ni  Ni34  1  0.00076549  0.66896557  0.66747786  1
  Ni  Ni35  1  0.16590180  0.83397320  0.83460656  1
  Ni  Ni36  1  0.50210858  0.16819195  0.49942670  1
  Cr  Cr37  1  0.33409786  0.99881668  0.66787899  1
  Cr  Cr38  1  0.50018267  0.16837491  0.83652612  1
  Ni  Ni39  1  0.50054361  0.49932473  0.50191611  1
  Ni  Ni40  1  0.33459233  0.33639504  0.66583873  1
  Ni  Ni41  1  0.50089430  0.50084965  0.83278314  1
  Ni  Ni42  1  0.50257184  0.83454478  0.50056632  1
  Ni  Ni43  1  0.33471292  0.66686888  0.66582883  1
  Ni  Ni44  1  0.50029316  0.83299167  0.83457605  1
  Fe  Fe45  1  0.83257262  0.16672719  0.50038176  1
  Ni  Ni46  1  0.66892009  0.99898479  0.66561570  1
  Cr  Cr47  1  0.83443345  0.16730141  0.83373819  1
  Cr  Cr48  1  0.83469227  0.50281992  0.50196072  1
  Ni  Ni49  1  0.66689120  0.33464912  0.66657514  1
  Ni  Ni50  1  0.83403561  0.50142075  0.83332946  1
  Ni  Ni51  1  0.83453499  0.83488938  0.50069443  1
  Ni  Ni52  1  0.66670638  0.66858554  0.66867848  1
  Ni  Ni53  1  0.83603764  0.83346545  0.83320200  1
" 