8186,Ni76Fe16Cr7_5,-238.111662867715, 191.428866394067,Ni76Fe16Cr7,"# generated using pymatgen
 data_Cr5Fe8Ni41
_symmetry_space_group_name_H-M   'P 1'
_cell_length_a   7.43930545
_cell_length_b   7.43930545
_cell_length_c   10.52076666
_cell_angle_alpha   90.00000000
_cell_angle_beta   90.00000000
_cell_angle_gamma   90.00000000
_symmetry_Int_Tables_number   1
_chemical_formula_structural   Cr5Fe8Ni41
_chemical_formula_sum   'Cr5 Fe8 Ni41'
_cell_volume   582.25358343
_cell_formula_units_Z   1
loop_
 _symmetry_equiv_pos_site_id
 _symmetry_equiv_pos_as_xyz
  1  'x, y, z'
loop_
 _atom_site_type_symbol
 _atom_site_label
 _atom_site_symmetry_multiplicity
 _atom_site_fract_x
 _atom_site_fract_y
 _atom_site_fract_z
 _atom_site_occupancy
  Ni  Ni0  1  0.00304932  1.00090604  1.00012167  1
  Ni  Ni1  1  0.17052077  0.16913715  0.16900319  1
  Ni  Ni2  1  0.00396218  1.00144330  0.33730221  1
  Ni  Ni3  1  1.00149846  0.33635865  1.00126229  1
  Ni  Ni4  1  0.16857028  0.50104082  0.16835986  1
  Ni  Ni5  1  0.00218593  0.33599032  0.33596834  1
  Ni  Ni6  1  0.00271965  0.66832844  1.00172886  1
  Fe  Fe7  1  0.17030984  0.83483984  0.16825634  1
  Ni  Ni8  1  0.00269361  0.66815927  0.33545925  1
  Ni  Ni9  1  0.33559807  1.00115174  0.00279217  1
  Ni  Ni10  1  0.49885997  0.16920274  0.16769532  1
  Fe  Fe11  1  0.33312070  1.00099674  0.33414019  1
  Ni  Ni12  1  0.33637021  0.33533311  0.00194702  1
  Ni  Ni13  1  0.50114581  0.50131233  0.16888987  1
  Ni  Ni14  1  0.33500304  0.33681651  0.33394764  1
  Ni  Ni15  1  0.33490227  0.66910739  1.00185949  1
  Ni  Ni16  1  0.49957770  0.83507864  0.16785693  1
  Ni  Ni17  1  0.33533494  0.66817814  0.33527130  1
  Fe  Fe18  1  0.66649258  0.00205847  1.00008480  1
  Cr  Cr19  1  0.83603426  0.17080682  0.16781277  1
  Cr  Cr20  1  0.66822856  1.00163543  0.33560757  1
  Ni  Ni21  1  0.66772432  0.33566209  0.00189964  1
  Ni  Ni22  1  0.83587686  0.50175977  0.16899215  1
  Ni  Ni23  1  0.66840386  0.33808285  0.33499605  1
  Fe  Fe24  1  0.66783740  0.66729256  1.00150112  1
  Cr  Cr25  1  0.83615800  0.83279653  0.16790260  1
  Ni  Ni26  1  0.66756476  0.66640325  0.33631305  1
  Fe  Fe27  1  0.16638436  0.16866140  0.50159819  1
  Ni  Ni28  1  1.00090835  0.00287410  0.66816917  1
  Fe  Fe29  1  0.16895869  0.16843146  0.83567600  1
  Ni  Ni30  1  0.16885100  0.50155137  0.50119544  1
  Ni  Ni31  1  1.00109981  0.33370782  0.66836484  1
  Ni  Ni32  1  0.16885413  0.50114781  0.83603735  1
  Ni  Ni33  1  0.16860719  0.83567551  0.50034797  1
  Cr  Cr34  1  0.00269137  0.66870552  0.66825491  1
  Ni  Ni35  1  0.16866146  0.83588796  0.83664385  1
  Cr  Cr36  1  0.50154338  0.16950429  0.50199004  1
  Ni  Ni37  1  0.33553373  1.00035211  0.66879291  1
  Ni  Ni38  1  0.50181588  0.16835180  0.83577550  1
  Ni  Ni39  1  0.50152119  0.50306327  0.50193613  1
  Ni  Ni40  1  0.33559711  0.33648452  0.66969969  1
  Ni  Ni41  1  0.50131956  0.50085880  0.83476797  1
  Ni  Ni42  1  0.50098836  0.83338597  0.50307459  1
  Ni  Ni43  1  0.33679611  0.66875674  0.66846145  1
  Ni  Ni44  1  0.50171584  0.83638235  0.83466391  1
  Ni  Ni45  1  0.83750808  0.16890190  0.50294363  1
  Ni  Ni46  1  0.66914868  1.00167759  0.66977001  1
  Fe  Fe47  1  0.83489779  0.16870764  0.83456170  1
  Ni  Ni48  1  0.83522093  0.50073759  0.50021717  1
  Ni  Ni49  1  0.66889541  0.33496759  0.66869590  1
  Ni  Ni50  1  0.83541963  0.50104947  0.83638462  1
  Ni  Ni51  1  0.83599667  0.83595318  0.50191524  1
  Fe  Fe52  1  0.66679399  0.66864382  0.66805677  1
  Ni  Ni53  1  0.83521454  0.83638611  0.83571998  1
" 