2182,Ni76Fe8Cr15_14,-234.425902109426, 177.300276706544,Ni76Fe8Cr15,"# generated using pymatgen
 data_Cr9Fe4Ni41
_symmetry_space_group_name_H-M   'P 1'
_cell_length_a   7.45590648
_cell_length_b   7.45590648
_cell_length_c   10.54424406
_cell_angle_alpha   90.00000000
_cell_angle_beta   90.00000000
_cell_angle_gamma   90.00000000
_symmetry_Int_Tables_number   1
_chemical_formula_structural   Cr9Fe4Ni41
_chemical_formula_sum   'Cr9 Fe4 Ni41'
_cell_volume   586.16023646
_cell_formula_units_Z   1
loop_
 _symmetry_equiv_pos_site_id
 _symmetry_equiv_pos_as_xyz
  1  'x, y, z'
loop_
 _atom_site_type_symbol
 _atom_site_label
 _atom_site_symmetry_multiplicity
 _atom_site_fract_x
 _atom_site_fract_y
 _atom_site_fract_z
 _atom_site_occupancy
  Cr  Cr0  1  0.00088140  1.00059505  1.00004957  1
  Ni  Ni1  1  0.16736641  0.17081808  0.16668832  1
  Cr  Cr2  1  0.99980304  0.00157434  0.33538030  1
  Ni  Ni3  1  0.00198130  0.33617227  0.00152358  1
  Ni  Ni4  1  0.16894923  0.49942252  0.16738945  1
  Ni  Ni5  1  0.00113905  0.33472347  0.33421636  1
  Ni  Ni6  1  0.00089304  0.66572519  0.99898788  1
  Cr  Cr7  1  0.17005834  0.83159482  0.16860758  1
  Ni  Ni8  1  0.99958982  0.66612246  0.33596798  1
  Ni  Ni9  1  0.33539278  0.00130211  0.99999958  1
  Cr  Cr10  1  0.50024223  0.16755523  0.16709141  1
  Ni  Ni11  1  0.33559718  0.00094169  0.33543252  1
  Ni  Ni12  1  0.33285708  0.33471605  1.00011878  1
  Ni  Ni13  1  0.49909412  0.50236992  0.16722004  1
  Ni  Ni14  1  0.33396754  0.33501805  0.33505320  1
  Ni  Ni15  1  0.33239588  0.66629109  0.00194204  1
  Ni  Ni16  1  0.50197936  0.83256899  0.16762890  1
  Ni  Ni17  1  0.33589038  0.66632180  0.33547585  1
  Ni  Ni18  1  0.66681245  1.00037068  0.00266169  1
  Ni  Ni19  1  0.83371452  0.16787894  0.16795608  1
  Fe  Fe20  1  0.66680164  0.99984086  0.33521827  1
  Ni  Ni21  1  0.66743727  0.33331884  1.00035156  1
  Cr  Cr22  1  0.83533522  0.49958338  0.16766902  1
  Ni  Ni23  1  0.66714499  0.33525809  0.33649419  1
  Fe  Fe24  1  0.66750434  0.66665613  0.00183193  1
  Ni  Ni25  1  0.83079585  0.83364587  0.16625240  1
  Ni  Ni26  1  0.66669210  0.66763235  0.33429470  1
  Ni  Ni27  1  0.16710615  0.16950702  0.50063661  1
  Fe  Fe28  1  1.00051926  0.00075928  0.66575412  1
  Ni  Ni29  1  0.16821108  0.16922182  0.83478343  1
  Ni  Ni30  1  0.16675907  0.50093665  0.50037529  1
  Ni  Ni31  1  0.00146078  0.33626207  0.66638754  1
  Ni  Ni32  1  0.16516651  0.50126318  0.83447711  1
  Ni  Ni33  1  0.16753924  0.83184679  0.50101857  1
  Ni  Ni34  1  1.00040108  0.66659614  0.66749022  1
  Ni  Ni35  1  0.16663716  0.83175054  0.83349967  1
  Ni  Ni36  1  0.50174918  0.16823045  0.50091156  1
  Cr  Cr37  1  0.33392192  0.00209982  0.66681745  1
  Ni  Ni38  1  0.50081433  0.16732574  0.83482125  1
  Ni  Ni39  1  0.50107563  0.50108546  0.50129407  1
  Ni  Ni40  1  0.33309800  0.33462241  0.66705479  1
  Cr  Cr41  1  0.50133911  0.49905545  0.83330487  1
  Ni  Ni42  1  0.50138328  0.83295469  0.49904459  1
  Ni  Ni43  1  0.33221605  0.66601985  0.66494590  1
  Cr  Cr44  1  0.50068205  0.83463618  0.83551515  1
  Ni  Ni45  1  0.83342966  0.16900005  0.50099771  1
  Ni  Ni46  1  0.66820092  1.00069703  0.66473255  1
  Cr  Cr47  1  0.83220958  0.17011919  0.83236361  1
  Ni  Ni48  1  0.83436799  0.50047892  0.50113482  1
  Ni  Ni49  1  0.66766680  0.33417812  0.66550252  1
  Ni  Ni50  1  0.83632384  0.50140444  0.83409884  1
  Ni  Ni51  1  0.83327308  0.83269794  0.50257144  1
  Ni  Ni52  1  0.66978247  0.66718312  0.66642245  1
  Fe  Fe53  1  0.83469447  0.83239469  0.83288594  1
" 