2886,Ni76Fe4Cr18_0,-232.138338426791, 164.268979502724,Ni76Fe4Cr18,"# generated using pymatgen
 data_Cr11Fe2Ni41
_symmetry_space_group_name_H-M   'P 1'
_cell_length_a   7.47057344
_cell_length_b   7.47057344
_cell_length_c   10.56498628
_cell_angle_alpha   90.00000000
_cell_angle_beta   90.00000000
_cell_angle_gamma   90.00000000
_symmetry_Int_Tables_number   1
_chemical_formula_structural   Cr11Fe2Ni41
_chemical_formula_sum   'Cr11 Fe2 Ni41'
_cell_volume   589.62625960
_cell_formula_units_Z   1
loop_
 _symmetry_equiv_pos_site_id
 _symmetry_equiv_pos_as_xyz
  1  'x, y, z'
loop_
 _atom_site_type_symbol
 _atom_site_label
 _atom_site_symmetry_multiplicity
 _atom_site_fract_x
 _atom_site_fract_y
 _atom_site_fract_z
 _atom_site_occupancy
  Fe  Fe0  1  0.99928722  0.99925527  0.99808084  1
  Ni  Ni1  1  0.16636572  0.16703969  0.16641120  1
  Ni  Ni2  1  0.00011521  0.00032808  0.33431155  1
  Fe  Fe3  1  0.99875414  0.33380095  0.99819903  1
  Cr  Cr4  1  0.16376203  0.49865064  0.16733305  1
  Ni  Ni5  1  0.99894438  0.33266759  0.33442185  1
  Ni  Ni6  1  0.99913055  0.66627222  0.99807228  1
  Ni  Ni7  1  0.16342253  0.83434286  0.16644233  1
  Ni  Ni8  1  0.99756042  0.66630190  0.33504567  1
  Cr  Cr9  1  0.33319407  0.99968952  0.00182675  1
  Ni  Ni10  1  0.50045517  0.16890411  0.16674876  1
  Cr  Cr11  1  0.33330782  0.00114270  0.33256046  1
  Ni  Ni12  1  0.33310034  0.33213816  0.00033714  1
  Ni  Ni13  1  0.50191190  0.49588116  0.16713656  1
  Ni  Ni14  1  0.33385819  0.33165924  0.33338763  1
  Cr  Cr15  1  0.33307755  0.66683201  0.99921325  1
  Ni  Ni16  1  0.50196748  0.83447378  0.16738109  1
  Cr  Cr17  1  0.33506619  0.66726825  0.33292961  1
  Ni  Ni18  1  0.66723680  0.00109548  0.99889110  1
  Cr  Cr19  1  0.83275161  0.16753121  0.16640004  1
  Ni  Ni20  1  0.66659950  0.00001388  0.33445271  1
  Ni  Ni21  1  0.66699371  0.33303700  0.99934433  1
  Ni  Ni22  1  0.83221101  0.49893440  0.16758156  1
  Ni  Ni23  1  0.66655918  0.33399626  0.33388845  1
  Cr  Cr24  1  0.66818397  0.66599087  0.99963699  1
  Cr  Cr25  1  0.83453901  0.83226476  0.16866205  1
  Ni  Ni26  1  0.66795303  0.66517171  0.33317187  1
  Ni  Ni27  1  0.16527118  0.16523176  0.49820049  1
  Ni  Ni28  1  0.99936455  0.99860126  0.66709572  1
  Ni  Ni29  1  0.16415262  0.16544575  0.83470760  1
  Ni  Ni30  1  0.16581199  0.50134712  0.49859687  1
  Cr  Cr31  1  0.99636972  0.33289090  0.66617818  1
  Ni  Ni32  1  0.16575669  0.50103071  0.83395813  1
  Ni  Ni33  1  0.16405644  0.83265789  0.50171104  1
  Ni  Ni34  1  0.99884546  0.66768453  0.66638577  1
  Ni  Ni35  1  0.16420979  0.83262922  0.83128380  1
  Ni  Ni36  1  0.50214609  0.16638638  0.49946162  1
  Ni  Ni37  1  0.33148888  0.99715320  0.66535095  1
  Cr  Cr38  1  0.50150149  0.16633573  0.83145137  1
  Ni  Ni39  1  0.50150545  0.49994356  0.49991307  1
  Cr  Cr40  1  0.33213444  0.33348859  0.66445916  1
  Ni  Ni41  1  0.50030507  0.50013350  0.83225966  1
  Ni  Ni42  1  0.50212977  0.83285362  0.50218035  1
  Ni  Ni43  1  0.33281804  0.66829411  0.66751916  1
  Ni  Ni44  1  0.50095419  0.83260520  0.83003386  1
  Ni  Ni45  1  0.83181808  0.16484467  0.49900114  1
  Ni  Ni46  1  0.66845435  0.99885727  0.66568428  1
  Ni  Ni47  1  0.83338309  0.16512455  0.83395014  1
  Ni  Ni48  1  0.83205692  0.50117260  0.49797851  1
  Ni  Ni49  1  0.66837655  0.33423539  0.66573147  1
  Ni  Ni50  1  0.83317088  0.50018328  0.83357754  1
  Ni  Ni51  1  0.83314647  0.83326889  0.49958797  1
  Ni  Ni52  1  0.66763963  0.66619336  0.66703863  1
  Ni  Ni53  1  0.83408042  0.83398026  0.83209233  1
" 