4235,Ni77Fe18Cr4_1,-239.618722441026, 198.669252906633,Ni77Fe18Cr4,"# generated using pymatgen
 data_Cr4Fe9Ni41
_symmetry_space_group_name_H-M   'P 1'
_cell_length_a   7.43535514
_cell_length_b   7.43535514
_cell_length_c   10.51518008
_cell_angle_alpha   90.00000000
_cell_angle_beta   90.00000000
_cell_angle_gamma   90.00000000
_symmetry_Int_Tables_number   1
_chemical_formula_structural   Cr4Fe9Ni41
_chemical_formula_sum   'Cr4 Fe9 Ni41'
_cell_volume   581.32653670
_cell_formula_units_Z   1
loop_
 _symmetry_equiv_pos_site_id
 _symmetry_equiv_pos_as_xyz
  1  'x, y, z'
loop_
 _atom_site_type_symbol
 _atom_site_label
 _atom_site_symmetry_multiplicity
 _atom_site_fract_x
 _atom_site_fract_y
 _atom_site_fract_z
 _atom_site_occupancy
  Ni  Ni0  1  0.00264674  1.00076729  1.00125521  1
  Ni  Ni1  1  0.16869752  0.16897584  0.16956069  1
  Ni  Ni2  1  0.00223170  1.00158789  0.33571217  1
  Fe  Fe3  1  0.00339737  0.33379962  1.00204059  1
  Ni  Ni4  1  0.16943734  0.50269589  0.16945713  1
  Ni  Ni5  1  0.00283140  0.33569472  0.33480271  1
  Ni  Ni6  1  0.00387254  0.66907507  0.00215200  1
  Ni  Ni7  1  0.16824407  0.83438170  0.16899861  1
  Ni  Ni8  1  0.00336525  0.66923089  0.33494294  1
  Ni  Ni9  1  0.33394790  0.99934994  0.00415208  1
  Ni  Ni10  1  0.50184198  0.16859992  0.16809931  1
  Ni  Ni11  1  0.33507662  1.00133439  0.33420535  1
  Fe  Fe12  1  0.33341794  0.33507479  0.00360070  1
  Ni  Ni13  1  0.50052063  0.50327424  0.16754681  1
  Ni  Ni14  1  0.33447287  0.33595881  0.33477218  1
  Ni  Ni15  1  0.33364928  0.66953554  1.00134163  1
  Ni  Ni16  1  0.50269027  0.83532808  0.16942702  1
  Ni  Ni17  1  0.33368116  0.66944811  0.33569124  1
  Ni  Ni18  1  0.66976155  0.00374677  0.00285852  1
  Ni  Ni19  1  0.83596815  0.16702874  0.16798707  1
  Ni  Ni20  1  0.66888365  1.00200403  0.33544463  1
  Ni  Ni21  1  0.67047465  0.33611120  0.00256438  1
  Fe  Fe22  1  0.83670874  0.50270178  0.16791830  1
  Cr  Cr23  1  0.66949602  0.33376234  0.33668730  1
  Fe  Fe24  1  0.66874496  0.67162015  1.00200363  1
  Ni  Ni25  1  0.83545724  0.83578956  0.16897089  1
  Fe  Fe26  1  0.66873495  0.67045885  0.33537753  1
  Ni  Ni27  1  0.16994652  0.16987785  0.50183816  1
  Fe  Fe28  1  0.00333704  1.00183667  0.66875218  1
  Ni  Ni29  1  0.16807881  0.16923226  0.83479933  1
  Ni  Ni30  1  0.16831988  0.50231347  0.50215225  1
  Ni  Ni31  1  0.00292174  0.33669855  0.66904631  1
  Ni  Ni32  1  0.16818078  0.50242005  0.83476476  1
  Ni  Ni33  1  0.16812107  0.83428514  0.50225447  1
  Ni  Ni34  1  0.00366048  0.66817200  0.66919025  1
  Ni  Ni35  1  0.16899401  0.83451418  0.83501150  1
  Ni  Ni36  1  0.49983218  0.16689304  0.50177482  1
  Ni  Ni37  1  0.33471440  1.00095218  0.66832664  1
  Cr  Cr38  1  0.50066659  0.16701416  0.83696451  1
  Fe  Fe39  1  0.49899843  0.50260927  0.50105993  1
  Ni  Ni40  1  0.33304003  0.33632463  0.66831529  1
  Fe  Fe41  1  0.50056344  0.50308548  0.83759682  1
  Fe  Fe42  1  0.50056900  0.83724091  0.50167133  1
  Ni  Ni43  1  0.33271090  0.66942589  0.66941803  1
  Ni  Ni44  1  0.50149336  0.83558287  0.83599728  1
  Ni  Ni45  1  0.83682125  0.16689341  0.50299422  1
  Ni  Ni46  1  0.66904644  1.00189686  0.66829741  1
  Ni  Ni47  1  0.83683555  0.16825699  0.83507854  1
  Ni  Ni48  1  0.83958288  0.50409106  0.50021361  1
  Cr  Cr49  1  0.67067195  0.33453611  0.66718339  1
  Ni  Ni50  1  0.83834443  0.50272328  0.83811915  1
  Ni  Ni51  1  0.83602824  0.83560298  0.50163248  1
  Cr  Cr52  1  0.66944249  0.66941782  0.66937806  1
  Ni  Ni53  1  0.83591048  0.83585158  0.83568352  1
" 