7199,Ni77Fe12Cr9_15,-237.279708878874, 185.160159942534,Ni77Fe12Cr9,"# generated using pymatgen
 data_CrFeNi7
_symmetry_space_group_name_H-M   'P 1'
_cell_length_a   7.44560746
_cell_length_b   7.44560746
_cell_length_c   10.52967906
_cell_angle_alpha   90.00000000
_cell_angle_beta   90.00000000
_cell_angle_gamma   90.00000000
_symmetry_Int_Tables_number   1
_chemical_formula_structural   CrFeNi7
_chemical_formula_sum   'Cr6 Fe6 Ni42'
_cell_volume   583.73456022
_cell_formula_units_Z   6
loop_
 _symmetry_equiv_pos_site_id
 _symmetry_equiv_pos_as_xyz
  1  'x, y, z'
loop_
 _atom_site_type_symbol
 _atom_site_label
 _atom_site_symmetry_multiplicity
 _atom_site_fract_x
 _atom_site_fract_y
 _atom_site_fract_z
 _atom_site_occupancy
  Fe  Fe0  1  1.00079801  0.00424521  0.00152786  1
  Ni  Ni1  1  0.16579226  0.16918060  0.16894976  1
  Ni  Ni2  1  0.99999251  0.00261867  0.33528039  1
  Ni  Ni3  1  0.99987951  0.33429486  0.00168833  1
  Ni  Ni4  1  0.16586203  0.49945366  0.17023480  1
  Ni  Ni5  1  0.00261993  0.33418156  0.33446267  1
  Fe  Fe6  1  0.99951445  0.66571259  1.00138827  1
  Cr  Cr7  1  0.16695754  0.83547996  0.16911499  1
  Ni  Ni8  1  1.00104034  0.66752127  0.33469715  1
  Ni  Ni9  1  0.33492221  1.00067609  0.99997230  1
  Cr  Cr10  1  0.50167103  0.16760811  0.16913417  1
  Fe  Fe11  1  0.33399054  1.00066054  0.33553775  1
  Cr  Cr12  1  0.33299693  0.33431885  1.00070158  1
  Ni  Ni13  1  0.50349173  0.50290924  0.17067597  1
  Ni  Ni14  1  0.33216980  0.33768523  0.33374077  1
  Cr  Cr15  1  0.33645168  0.66873875  0.99984641  1
  Ni  Ni16  1  0.50442485  0.83424552  0.16904098  1
  Ni  Ni17  1  0.33608249  0.66639852  0.33587922  1
  Ni  Ni18  1  0.66797162  1.00058744  1.00140877  1
  Ni  Ni19  1  0.83632670  0.16812836  0.16877508  1
  Ni  Ni20  1  0.67066195  0.99874691  0.33436676  1
  Ni  Ni21  1  0.67180135  0.33552640  1.00026463  1
  Ni  Ni22  1  0.83492504  0.50185849  0.16780491  1
  Ni  Ni23  1  0.66956175  0.33660133  0.33417206  1
  Ni  Ni24  1  0.66840768  0.66821624  0.00317872  1
  Ni  Ni25  1  0.83286188  0.83432572  0.16808743  1
  Ni  Ni26  1  0.66720626  0.66904535  0.33386976  1
  Ni  Ni27  1  0.16707319  0.16862346  0.50099538  1
  Ni  Ni28  1  0.00277876  0.00219169  0.66765770  1
  Ni  Ni29  1  0.16807848  0.16720009  0.83442955  1
  Ni  Ni30  1  0.16729472  0.50038532  0.50113984  1
  Ni  Ni31  1  0.00227992  0.33484161  0.66816637  1
  Ni  Ni32  1  0.16604403  0.50102748  0.83289242  1
  Fe  Fe33  1  0.16767196  0.83378384  0.50184759  1
  Ni  Ni34  1  0.00202984  0.66728074  0.66789463  1
  Ni  Ni35  1  0.16911124  0.83607861  0.83302448  1
  Cr  Cr36  1  0.50070554  0.16865689  0.50131099  1
  Ni  Ni37  1  0.33378152  1.00080602  0.66954065  1
  Ni  Ni38  1  0.50173547  0.16706167  0.83399537  1
  Ni  Ni39  1  0.50161209  0.50289238  0.50113746  1
  Ni  Ni40  1  0.33333109  0.33523969  0.66978525  1
  Ni  Ni41  1  0.50334370  0.50078577  0.83248349  1
  Ni  Ni42  1  0.50291597  0.83371620  0.50118425  1
  Fe  Fe43  1  0.33512402  0.66779199  0.66801296  1
  Ni  Ni44  1  0.50049892  0.83648197  0.83410220  1
  Fe  Fe45  1  0.83590834  0.16874997  0.50149660  1
  Ni  Ni46  1  0.66780063  1.00057651  0.66855515  1
  Ni  Ni47  1  0.83450585  0.16995559  0.83399872  1
  Ni  Ni48  1  0.83541651  0.50312311  0.50149960  1
  Ni  Ni49  1  0.66873538  0.33613488  0.66988157  1
  Ni  Ni50  1  0.83489818  0.49981899  0.83499256  1
  Ni  Ni51  1  0.83455432  0.83390629  0.50097893  1
  Ni  Ni52  1  0.66734905  0.66768086  0.66731297  1
  Cr  Cr53  1  0.83478762  0.83399128  0.83563023  1
" 