5975,Ni77Fe12Cr9_10,-237.111100322401, 184.298396733923,Ni77Fe12Cr9,"# generated using pymatgen
 data_CrFeNi7
_symmetry_space_group_name_H-M   'P 1'
_cell_length_a   7.44658878
_cell_length_b   7.44658878
_cell_length_c   10.53106685
_cell_angle_alpha   90.00000000
_cell_angle_beta   90.00000000
_cell_angle_gamma   90.00000000
_symmetry_Int_Tables_number   1
_chemical_formula_structural   CrFeNi7
_chemical_formula_sum   'Cr6 Fe6 Ni42'
_cell_volume   583.96539630
_cell_formula_units_Z   6
loop_
 _symmetry_equiv_pos_site_id
 _symmetry_equiv_pos_as_xyz
  1  'x, y, z'
loop_
 _atom_site_type_symbol
 _atom_site_label
 _atom_site_symmetry_multiplicity
 _atom_site_fract_x
 _atom_site_fract_y
 _atom_site_fract_z
 _atom_site_occupancy
  Fe  Fe0  1  0.00230269  0.00253691  0.00238653  1
  Ni  Ni1  1  0.16732698  0.16866361  0.16830532  1
  Ni  Ni2  1  0.00151953  1.00128367  0.33498555  1
  Ni  Ni3  1  1.00125046  0.33588607  1.00091061  1
  Ni  Ni4  1  0.16672588  0.50065809  0.16794769  1
  Ni  Ni5  1  1.00050861  0.33439968  0.33373775  1
  Ni  Ni6  1  0.00244182  0.66581361  0.00211070  1
  Ni  Ni7  1  0.16804843  0.83481833  0.16837514  1
  Ni  Ni8  1  1.00036725  0.66841694  0.33373582  1
  Ni  Ni9  1  0.33597072  1.00110186  1.00041634  1
  Fe  Fe10  1  0.50137303  0.16629850  0.16808386  1
  Ni  Ni11  1  0.33492100  1.00123468  0.33530725  1
  Ni  Ni12  1  0.33230356  0.33257459  1.00115583  1
  Cr  Cr13  1  0.50091460  0.50166496  0.16918847  1
  Ni  Ni14  1  0.33423236  0.33264434  0.33457639  1
  Ni  Ni15  1  0.33238599  0.67037412  1.00078767  1
  Ni  Ni16  1  0.50204231  0.83554510  0.16755813  1
  Ni  Ni17  1  0.33437109  0.67020576  0.33476878  1
  Ni  Ni18  1  0.66604617  0.00227267  0.00228607  1
  Ni  Ni19  1  0.83520353  0.16799737  0.16872821  1
  Ni  Ni20  1  0.66770507  1.00111098  0.33442317  1
  Ni  Ni21  1  0.67063142  0.33228975  1.00055434  1
  Ni  Ni22  1  0.83593649  0.50112084  0.16722761  1
  Ni  Ni23  1  0.66944219  0.33385230  0.33616141  1
  Ni  Ni24  1  0.66935602  0.66947888  0.00187162  1
  Ni  Ni25  1  0.83404447  0.83496600  0.16855197  1
  Ni  Ni26  1  0.66936413  0.66906499  0.33595438  1
  Ni  Ni27  1  0.16898351  0.16685663  0.50214296  1
  Ni  Ni28  1  0.00201044  0.00460236  0.66738035  1
  Ni  Ni29  1  0.16790126  0.16898607  0.83374144  1
  Cr  Cr30  1  0.16792863  0.49880441  0.49845763  1
  Ni  Ni31  1  1.00092994  0.33215330  0.66936399  1
  Ni  Ni32  1  0.16737533  0.49885669  0.83699226  1
  Ni  Ni33  1  0.16781844  0.83854289  0.49983323  1
  Cr  Cr34  1  1.00016213  0.66767150  0.66834984  1
  Ni  Ni35  1  0.16949414  0.83633713  0.83596524  1
  Ni  Ni36  1  0.50076675  0.16779127  0.50124618  1
  Ni  Ni37  1  0.33549274  0.00368982  0.66844101  1
  Ni  Ni38  1  0.50138359  0.16694159  0.83535351  1
  Fe  Fe39  1  0.50321073  0.50115487  0.50009350  1
  Ni  Ni40  1  0.33381715  0.33052417  0.66839942  1
  Cr  Cr41  1  0.50148634  0.50088509  0.83470120  1
  Ni  Ni42  1  0.50339057  0.83613916  0.50120840  1
  Cr  Cr43  1  0.33599567  0.67057566  0.66822337  1
  Ni  Ni44  1  0.50125780  0.83673480  0.83526988  1
  Fe  Fe45  1  0.83535029  0.16673755  0.50112256  1
  Ni  Ni46  1  0.66668457  0.00178035  0.66744642  1
  Ni  Ni47  1  0.83486195  0.16924583  0.83363525  1
  Ni  Ni48  1  0.83199143  0.50128890  0.50122069  1
  Fe  Fe49  1  0.66869021  0.33268625  0.66724556  1
  Fe  Fe50  1  0.83580605  0.49891781  0.83583649  1
  Ni  Ni51  1  0.83298369  0.83465013  0.50020401  1
  Ni  Ni52  1  0.66828562  0.66893291  0.66628490  1
  Cr  Cr53  1  0.83338530  0.83641832  0.83592411  1
" 