5936,Ni77Cr23_13,-208.694099090249, 157.77446361332,Ni77Cr23,"# generated using pymatgen
 data_Cr41Ni13
_symmetry_space_group_name_H-M   'P 1'
_cell_length_a   7.57460756
_cell_length_b   7.57460756
_cell_length_c   10.71211274
_cell_angle_alpha   90.00000000
_cell_angle_beta   90.00000000
_cell_angle_gamma   90.00000000
_symmetry_Int_Tables_number   1
_chemical_formula_structural   Cr41Ni13
_chemical_formula_sum   'Cr41 Ni13'
_cell_volume   614.60403675
_cell_formula_units_Z   1
loop_
 _symmetry_equiv_pos_site_id
 _symmetry_equiv_pos_as_xyz
  1  'x, y, z'
loop_
 _atom_site_type_symbol
 _atom_site_label
 _atom_site_symmetry_multiplicity
 _atom_site_fract_x
 _atom_site_fract_y
 _atom_site_fract_z
 _atom_site_occupancy
  Ni  Ni0  1  -0.00405186  0.98944328  -0.00704438  1
  Cr  Cr1  1  0.15970096  0.15890906  0.15675344  1
  Cr  Cr2  1  -0.00647869  0.99152032  0.32447730  1
  Cr  Cr3  1  -0.00617704  0.32739217  -0.00531148  1
  Ni  Ni4  1  0.15931266  0.49580181  0.15970807  1
  Cr  Cr5  1  -0.00549323  0.32718474  0.32620667  1
  Cr  Cr6  1  -0.00411717  0.66226931  -0.00541918  1
  Ni  Ni7  1  0.15889153  0.82567242  0.15774342  1
  Cr  Cr8  1  -0.00593921  0.66022424  0.32449572  1
  Cr  Cr9  1  0.32438995  0.98857167  0.99112130  1
  Cr  Cr10  1  0.49329224  0.15781648  0.16053849  1
  Cr  Cr11  1  0.32535231  -0.00703081  0.32787469  1
  Cr  Cr12  1  0.32703321  0.32949522  -0.00505829  1
  Cr  Cr13  1  0.49289800  0.49469432  0.15981254  1
  Cr  Cr14  1  0.32563013  0.32642076  0.32539069  1
  Cr  Cr15  1  0.32525552  0.66027494  0.99196262  1
  Cr  Cr16  1  0.49326856  0.82631201  0.16202144  1
  Cr  Cr17  1  0.32339174  0.65990903  0.32317349  1
  Cr  Cr18  1  0.65950802  0.99111929  0.99012518  1
  Cr  Cr19  1  0.82589626  0.15756028  0.15662551  1
  Ni  Ni20  1  0.65835984  0.99211229  0.32801631  1
  Cr  Cr21  1  0.65769798  0.32796430  0.98900148  1
  Cr  Cr22  1  0.82496621  0.49455773  0.16033969  1
  Cr  Cr23  1  0.65885586  0.32500694  0.32872268  1
  Cr  Cr24  1  0.65705181  0.65939764  0.98882281  1
  Cr  Cr25  1  0.82438013  0.82679276  0.16094005  1
  Ni  Ni26  1  0.65901527  0.66151658  0.32620793  1
  Cr  Cr27  1  0.16165171  0.15949370  0.49695073  1
  Cr  Cr28  1  -0.00609472  0.99083436  0.66068706  1
  Cr  Cr29  1  0.15907030  0.15781093  0.82574072  1
  Cr  Cr30  1  0.15943914  0.49389229  0.49662435  1
  Ni  Ni31  1  -0.00614453  0.32807523  0.65953146  1
  Cr  Cr32  1  0.16045706  0.49342579  0.82302377  1
  Cr  Cr33  1  0.16102193  0.82469204  0.49716705  1
  Ni  Ni34  1  -0.00343310  0.65952826  0.66104008  1
  Ni  Ni35  1  0.16184766  0.82534120  0.82421253  1
  Ni  Ni36  1  0.49272631  0.15702478  0.49275841  1
  Ni  Ni37  1  0.32692309  0.98910144  0.66084514  1
  Cr  Cr38  1  0.49005340  0.15824979  0.82668130  1
  Cr  Cr39  1  0.49182461  0.49618763  0.49228895  1
  Cr  Cr40  1  0.32910297  0.32573693  0.65848003  1
  Ni  Ni41  1  0.49020328  0.49679011  0.82449424  1
  Cr  Cr42  1  0.49216543  0.82657252  0.49190000  1
  Ni  Ni43  1  0.32506566  0.66241897  0.66323523  1
  Ni  Ni44  1  0.48825830  0.82403376  0.82352957  1
  Cr  Cr45  1  0.82698690  0.15886061  0.49325899  1
  Cr  Cr46  1  0.65696267  -0.00698268  0.65923164  1
  Cr  Cr47  1  0.82944015  0.15955839  0.82856744  1
  Cr  Cr48  1  0.82778237  0.49518938  0.49501813  1
  Cr  Cr49  1  0.65982661  0.32571534  0.66075310  1
  Cr  Cr50  1  0.82776928  0.49346919  0.82388104  1
  Cr  Cr51  1  0.82496610  0.82424745  0.49039118  1
  Cr  Cr52  1  0.65855473  0.66041634  0.66225824  1
  Cr  Cr53  1  0.82827984  0.82600566  0.82679956  1
" 