2351,Ni77Fe6Cr15_17,-234.025313538563, 170.167179227039,Ni77Fe6Cr15,"# generated using pymatgen
 data_Cr3FeNi14
_symmetry_space_group_name_H-M   'P 1'
_cell_length_a   7.46298456
_cell_length_b   7.46298456
_cell_length_c   10.55425398
_cell_angle_alpha   90.00000000
_cell_angle_beta   90.00000000
_cell_angle_gamma   90.00000000
_symmetry_Int_Tables_number   1
_chemical_formula_structural   Cr3FeNi14
_chemical_formula_sum   'Cr9 Fe3 Ni42'
_cell_volume   587.83119174
_cell_formula_units_Z   3
loop_
 _symmetry_equiv_pos_site_id
 _symmetry_equiv_pos_as_xyz
  1  'x, y, z'
loop_
 _atom_site_type_symbol
 _atom_site_label
 _atom_site_symmetry_multiplicity
 _atom_site_fract_x
 _atom_site_fract_y
 _atom_site_fract_z
 _atom_site_occupancy
  Ni  Ni0  1  1.00004668  0.99699706  0.99868443  1
  Cr  Cr1  1  0.16592473  0.16631878  0.16657168  1
  Ni  Ni2  1  0.00250046  0.99903965  0.33572722  1
  Ni  Ni3  1  0.99928349  0.33688978  0.99762336  1
  Ni  Ni4  1  0.16556006  0.50167034  0.16682889  1
  Ni  Ni5  1  0.00075022  0.33558315  0.33618350  1
  Ni  Ni6  1  0.00039578  0.66678913  0.99997614  1
  Ni  Ni7  1  0.16823769  0.83232195  0.16590759  1
  Cr  Cr8  1  0.99895577  0.66797368  0.33441457  1
  Ni  Ni9  1  0.33508545  0.99807816  0.99870830  1
  Ni  Ni10  1  0.50006555  0.16590615  0.16685626  1
  Ni  Ni11  1  0.33199765  1.00006831  0.33305226  1
  Cr  Cr12  1  0.33518508  0.33492733  0.99757816  1
  Fe  Fe13  1  0.50106348  0.50164459  0.16645658  1
  Ni  Ni14  1  0.33301672  0.33447880  0.33268092  1
  Ni  Ni15  1  0.33329990  0.66827975  0.00108046  1
  Ni  Ni16  1  0.49956443  0.83267981  0.16628259  1
  Fe  Fe17  1  0.33295909  0.66660416  0.33208379  1
  Ni  Ni18  1  0.66560388  0.99918532  0.99933461  1
  Cr  Cr19  1  0.83465402  0.16866912  0.16510269  1
  Cr  Cr20  1  0.66906915  0.99842115  0.33344924  1
  Ni  Ni21  1  0.66714819  0.33460952  0.99987226  1
  Ni  Ni22  1  0.83351084  0.50128945  0.16577870  1
  Ni  Ni23  1  0.66698204  0.33673222  0.33195902  1
  Ni  Ni24  1  0.66719811  0.66707695  0.99983838  1
  Ni  Ni25  1  0.83319136  0.83113120  0.16469348  1
  Ni  Ni26  1  0.66764019  0.66507436  0.33249808  1
  Ni  Ni27  1  0.16623841  0.16815812  0.49921990  1
  Cr  Cr28  1  0.99949393  0.99913413  0.66553920  1
  Ni  Ni29  1  0.16610372  0.16688235  0.83349838  1
  Ni  Ni30  1  0.16613068  0.49949888  0.50145398  1
  Ni  Ni31  1  1.00018625  0.33593192  0.66661666  1
  Ni  Ni32  1  0.16591467  0.50187147  0.83269090  1
  Ni  Ni33  1  0.16764513  0.83323242  0.49986350  1
  Ni  Ni34  1  0.00089983  0.66572746  0.66698956  1
  Ni  Ni35  1  0.16811459  0.83207912  0.83520135  1
  Cr  Cr36  1  0.49918510  0.16758482  0.50151610  1
  Ni  Ni37  1  0.33328642  0.99997491  0.66921973  1
  Ni  Ni38  1  0.50157800  0.16591878  0.83257655  1
  Cr  Cr39  1  0.50040537  0.50097043  0.50081258  1
  Ni  Ni40  1  0.33255397  0.33452260  0.66905898  1
  Ni  Ni41  1  0.50116815  0.50207473  0.83293865  1
  Cr  Cr42  1  0.49909026  0.83183764  0.50331985  1
  Ni  Ni43  1  0.33017371  0.66631850  0.66849224  1
  Ni  Ni44  1  0.49987421  0.83290819  0.83307124  1
  Ni  Ni45  1  0.83523341  0.16949749  0.49939153  1
  Ni  Ni46  1  0.66764433  0.00083022  0.66885426  1
  Ni  Ni47  1  0.83311276  0.16810940  0.83535709  1
  Ni  Ni48  1  0.83414281  0.49946200  0.50154364  1
  Ni  Ni49  1  0.66828388  0.33312138  0.66883243  1
  Ni  Ni50  1  0.83390334  0.50017601  0.83377578  1
  Ni  Ni51  1  0.83376110  0.83173714  0.50143909  1
  Fe  Fe52  1  0.66890097  0.66636414  0.66926242  1
  Ni  Ni53  1  0.83278455  0.83233540  0.83494081  1
" 