4121,Ni77Fe12Cr9_19,-237.128286024572, 183.372247937733,Ni77Fe12Cr9,"# generated using pymatgen
 data_CrFeNi7
_symmetry_space_group_name_H-M   'P 1'
_cell_length_a   7.44559659
_cell_length_b   7.44559659
_cell_length_c   10.52966367
_cell_angle_alpha   90.00000000
_cell_angle_beta   90.00000000
_cell_angle_gamma   90.00000000
_symmetry_Int_Tables_number   1
_chemical_formula_structural   CrFeNi7
_chemical_formula_sum   'Cr6 Fe6 Ni42'
_cell_volume   583.73200201
_cell_formula_units_Z   6
loop_
 _symmetry_equiv_pos_site_id
 _symmetry_equiv_pos_as_xyz
  1  'x, y, z'
loop_
 _atom_site_type_symbol
 _atom_site_label
 _atom_site_symmetry_multiplicity
 _atom_site_fract_x
 _atom_site_fract_y
 _atom_site_fract_z
 _atom_site_occupancy
  Ni  Ni0  1  1.00053336  1.00108147  1.00064619  1
  Cr  Cr1  1  0.16720775  0.16613012  0.16894394  1
  Fe  Fe2  1  1.00010369  1.00098216  0.33608608  1
  Ni  Ni3  1  0.99809202  0.33505542  0.99968940  1
  Cr  Cr4  1  0.16603570  0.50351713  0.16851926  1
  Ni  Ni5  1  0.99862003  0.33470366  0.33532736  1
  Ni  Ni6  1  1.00053070  0.66819742  1.00048266  1
  Fe  Fe7  1  0.16848648  0.83515932  0.16770919  1
  Ni  Ni8  1  0.99953552  0.66851054  0.33486677  1
  Ni  Ni9  1  0.33582368  0.99923992  1.00031435  1
  Ni  Ni10  1  0.50410848  0.16463444  0.16895898  1
  Ni  Ni11  1  0.33668187  1.00046652  0.33574590  1
  Cr  Cr12  1  0.33481624  0.33405764  0.99922528  1
  Cr  Cr13  1  0.50408435  0.50243890  0.16988717  1
  Ni  Ni14  1  0.33585281  0.33242457  0.33722042  1
  Ni  Ni15  1  0.33462462  0.67144916  0.99986972  1
  Ni  Ni16  1  0.50167517  0.83620665  0.16725944  1
  Ni  Ni17  1  0.33532595  0.67142581  0.33555405  1
  Ni  Ni18  1  0.66788580  0.00169796  0.00144758  1
  Ni  Ni19  1  0.83327092  0.16778364  0.16756154  1
  Ni  Ni20  1  0.66707135  1.00141532  0.33459660  1
  Ni  Ni21  1  0.67085464  0.33379722  1.00068183  1
  Ni  Ni22  1  0.83459481  0.50157249  0.16777018  1
  Ni  Ni23  1  0.66993317  0.33339302  0.33591683  1
  Ni  Ni24  1  0.66905801  0.66891472  1.00047351  1
  Fe  Fe25  1  0.83328855  0.83472232  0.16769224  1
  Ni  Ni26  1  0.66929322  0.66953398  0.33608503  1
  Ni  Ni27  1  0.16790752  0.16605177  0.50163691  1
  Ni  Ni28  1  0.00272199  0.00194125  0.66725936  1
  Ni  Ni29  1  0.16715115  0.16608761  0.83387534  1
  Cr  Cr30  1  0.16819649  0.50190060  0.50125062  1
  Ni  Ni31  1  1.00059121  0.33421545  0.66947703  1
  Ni  Ni32  1  0.16742932  0.50314825  0.83471410  1
  Ni  Ni33  1  0.16810772  0.83630947  0.50077301  1
  Ni  Ni34  1  1.00060812  0.66815914  0.66886470  1
  Ni  Ni35  1  0.16730789  0.83513381  0.83531722  1
  Ni  Ni36  1  0.50081926  0.16816124  0.49976721  1
  Ni  Ni37  1  0.33381972  0.00146983  0.66818148  1
  Ni  Ni38  1  0.50175101  0.16796957  0.83587264  1
  Ni  Ni39  1  0.50319650  0.50220722  0.50071470  1
  Fe  Fe40  1  0.33506299  0.33423963  0.66873238  1
  Ni  Ni41  1  0.50264074  0.50263038  0.83429806  1
  Ni  Ni42  1  0.50082848  0.83400838  0.50123099  1
  Ni  Ni43  1  0.33549360  0.66950946  0.66885479  1
  Fe  Fe44  1  0.50149654  0.83418635  0.83517421  1
  Ni  Ni45  1  0.83558869  0.16833282  0.50047326  1
  Cr  Cr46  1  0.66814077  1.00077330  0.66800682  1
  Ni  Ni47  1  0.83550091  0.16765226  0.83624109  1
  Ni  Ni48  1  0.83316985  0.50181231  0.50137518  1
  Fe  Fe49  1  0.66869851  0.33561165  0.66821219  1
  Ni  Ni50  1  0.83421463  0.50231346  0.83527392  1
  Ni  Ni51  1  0.83532680  0.83417116  0.50040518  1
  Ni  Ni52  1  0.66833397  0.66688257  0.66751170  1
  Ni  Ni53  1  0.83629467  0.83439751  0.83576234  1
" 