5785,Ni77Fe2Cr20_10,-231.089795511912, 156.203531354423,Ni77Fe2Cr20,"# generated using pymatgen
 data_Cr12FeNi41
_symmetry_space_group_name_H-M   'P 1'
_cell_length_a   7.47362880
_cell_length_b   7.47362880
_cell_length_c   10.56930721
_cell_angle_alpha   90.00000000
_cell_angle_beta   90.00000000
_cell_angle_gamma   90.00000000
_symmetry_Int_Tables_number   1
_chemical_formula_structural   Cr12FeNi41
_chemical_formula_sum   'Cr12 Fe1 Ni41'
_cell_volume   590.35000171
_cell_formula_units_Z   1
loop_
 _symmetry_equiv_pos_site_id
 _symmetry_equiv_pos_as_xyz
  1  'x, y, z'
loop_
 _atom_site_type_symbol
 _atom_site_label
 _atom_site_symmetry_multiplicity
 _atom_site_fract_x
 _atom_site_fract_y
 _atom_site_fract_z
 _atom_site_occupancy
  Ni  Ni0  1  -0.00009147  0.99776012  0.00152874  1
  Ni  Ni1  1  0.16719891  0.16570652  0.16520691  1
  Ni  Ni2  1  0.99843729  0.99851239  0.33372061  1
  Cr  Cr3  1  -0.00003953  0.33403556  0.00262317  1
  Ni  Ni4  1  0.16739276  0.50013273  0.16537754  1
  Cr  Cr5  1  0.00049837  0.33197158  0.33151414  1
  Ni  Ni6  1  0.99880497  0.66688108  0.00010949  1
  Cr  Cr7  1  0.16587206  0.83316505  0.16575455  1
  Ni  Ni8  1  0.99954260  0.66815567  0.33257193  1
  Ni  Ni9  1  0.33481892  0.99942902  0.99895841  1
  Ni  Ni10  1  0.49877887  0.16424397  0.16451888  1
  Ni  Ni11  1  0.33371850  0.99845799  0.33359031  1
  Ni  Ni12  1  0.33361249  0.33175396  0.00269343  1
  Ni  Ni13  1  0.49877495  0.50174247  0.16530687  1
  Cr  Cr14  1  0.33248025  0.33308836  0.33218757  1
  Ni  Ni15  1  0.33364683  0.66747005  0.00034263  1
  Ni  Ni16  1  0.50184578  0.83269526  0.16641837  1
  Ni  Ni17  1  0.33369401  0.66717393  0.33384254  1
  Ni  Ni18  1  0.66395229  0.99772395  0.00149637  1
  Ni  Ni19  1  0.83270359  0.16258276  0.16654034  1
  Ni  Ni20  1  0.66653755  0.99750222  0.33249503  1
  Cr  Cr21  1  0.66512643  0.33285490  0.00120263  1
  Ni  Ni22  1  0.83252578  0.50322724  0.16552111  1
  Cr  Cr23  1  0.66568475  0.33193251  0.33145454  1
  Ni  Ni24  1  0.66623712  0.66807412  0.00147817  1
  Ni  Ni25  1  0.83108314  0.83287544  0.16621718  1
  Ni  Ni26  1  0.66544517  0.66921312  0.33135283  1
  Ni  Ni27  1  0.16669852  0.16393017  0.50131596  1
  Ni  Ni28  1  0.00046956  0.99907257  0.66345016  1
  Cr  Cr29  1  0.16896441  0.16349605  0.83252624  1
  Ni  Ni30  1  0.16877733  0.50169183  0.50131926  1
  Ni  Ni31  1  0.99918875  0.33312617  0.66453146  1
  Cr  Cr32  1  0.16571930  0.50202199  0.83203934  1
  Ni  Ni33  1  0.16540668  0.83305102  0.50010707  1
  Ni  Ni34  1  0.00044881  0.66648405  0.66600495  1
  Ni  Ni35  1  0.16786910  0.83285161  0.83291516  1
  Ni  Ni36  1  0.49937783  0.16538756  0.50192059  1
  Ni  Ni37  1  0.33369800  0.99904432  0.66616809  1
  Ni  Ni38  1  0.49863693  0.16364834  0.83225105  1
  Ni  Ni39  1  0.49743822  0.50046390  0.50129670  1
  Ni  Ni40  1  0.33380003  0.33194027  0.66363886  1
  Cr  Cr41  1  0.50047308  0.49970646  0.83197211  1
  Fe  Fe42  1  0.49927324  0.83321017  0.49946239  1
  Ni  Ni43  1  0.33257396  0.66769063  0.66450743  1
  Ni  Ni44  1  0.49789111  0.83456702  0.83277080  1
  Ni  Ni45  1  0.83260635  0.16198683  0.50151712  1
  Ni  Ni46  1  0.66448752  0.00030735  0.66469236  1
  Cr  Cr47  1  0.83105071  0.16606180  0.83035102  1
  Cr  Cr48  1  0.83204636  0.50153499  0.50208755  1
  Ni  Ni49  1  0.66568099  0.33196023  0.66578724  1
  Ni  Ni50  1  0.83250472  0.50187754  0.83101194  1
  Ni  Ni51  1  0.83385280  0.83496723  0.49907850  1
  Ni  Ni52  1  0.66564560  0.66642881  0.66585584  1
  Cr  Cr53  1  0.83336183  0.83135322  0.83362064  1
" 