5441,Ni77Fe6Cr15_0,-233.888227385568, 168.43852645408,Ni77Fe6Cr15,"# generated using pymatgen
 data_Cr3FeNi14
_symmetry_space_group_name_H-M   'P 1'
_cell_length_a   7.46326739
_cell_length_b   7.46326739
_cell_length_c   10.55465397
_cell_angle_alpha   90.00000000
_cell_angle_beta   90.00000000
_cell_angle_gamma   90.00000000
_symmetry_Int_Tables_number   1
_chemical_formula_structural   Cr3FeNi14
_chemical_formula_sum   'Cr9 Fe3 Ni42'
_cell_volume   587.89802775
_cell_formula_units_Z   3
loop_
 _symmetry_equiv_pos_site_id
 _symmetry_equiv_pos_as_xyz
  1  'x, y, z'
loop_
 _atom_site_type_symbol
 _atom_site_label
 _atom_site_symmetry_multiplicity
 _atom_site_fract_x
 _atom_site_fract_y
 _atom_site_fract_z
 _atom_site_occupancy
  Ni  Ni0  1  1.00008871  0.00168715  0.00064403  1
  Ni  Ni1  1  0.16521543  0.16669658  0.16751967  1
  Ni  Ni2  1  0.00140769  0.00127488  0.33242323  1
  Ni  Ni3  1  1.00005752  0.33153104  0.00085334  1
  Ni  Ni4  1  0.16549732  0.49957411  0.16840862  1
  Ni  Ni5  1  0.00327490  0.33252506  0.33349957  1
  Fe  Fe6  1  0.99897216  0.66828444  0.00096149  1
  Ni  Ni7  1  0.16594577  0.83448852  0.16795613  1
  Ni  Ni8  1  0.00121063  0.66695938  0.33151702  1
  Ni  Ni9  1  0.33216622  1.00012435  0.99903921  1
  Cr  Cr10  1  0.49838999  0.16657533  0.16505729  1
  Ni  Ni11  1  0.33104022  0.99962330  0.33384517  1
  Fe  Fe12  1  0.33319183  0.33236674  0.99926945  1
  Ni  Ni13  1  0.50100598  0.50214111  0.16733336  1
  Ni  Ni14  1  0.33040399  0.33540965  0.33425156  1
  Cr  Cr15  1  0.33412418  0.66702572  0.99989764  1
  Ni  Ni16  1  0.50038173  0.83174554  0.16743550  1
  Ni  Ni17  1  0.33411855  0.66572760  0.33308773  1
  Ni  Ni18  1  0.66850438  0.99996871  0.99879077  1
  Ni  Ni19  1  0.83699916  0.16732085  0.16538827  1
  Cr  Cr20  1  0.66866577  0.99840141  0.33489421  1
  Ni  Ni21  1  0.66812069  0.33366514  0.00025707  1
  Ni  Ni22  1  0.83425524  0.50141250  0.16628449  1
  Cr  Cr23  1  0.66724527  0.33488263  0.33325789  1
  Ni  Ni24  1  0.66655785  0.66712631  0.00126430  1
  Ni  Ni25  1  0.83443082  0.83202734  0.16644356  1
  Ni  Ni26  1  0.66542950  0.66759645  0.33285212  1
  Ni  Ni27  1  0.16838747  0.16930117  0.49892362  1
  Cr  Cr28  1  0.99897920  0.00075791  0.66748250  1
  Ni  Ni29  1  0.16853940  0.16721733  0.83431868  1
  Ni  Ni30  1  0.16752811  0.49750281  0.49952565  1
  Fe  Fe31  1  0.00173915  0.33330708  0.66690319  1
  Ni  Ni32  1  0.16671054  0.49890743  0.83282749  1
  Cr  Cr33  1  0.16708562  0.83376706  0.49819942  1
  Ni  Ni34  1  0.99966566  0.66640793  0.66852398  1
  Ni  Ni35  1  0.16634080  0.83463265  0.83443230  1
  Ni  Ni36  1  0.49843955  0.16672142  0.50253099  1
  Ni  Ni37  1  0.33577269  0.00283247  0.66787362  1
  Ni  Ni38  1  0.49974778  0.16642813  0.83302101  1
  Ni  Ni39  1  0.49911939  0.49990165  0.49999816  1
  Ni  Ni40  1  0.33419320  0.33285775  0.66728793  1
  Ni  Ni41  1  0.50042512  0.49854969  0.83342874  1
  Ni  Ni42  1  0.50215646  0.83413710  0.50007826  1
  Cr  Cr43  1  0.33398112  0.66564525  0.66770487  1
  Ni  Ni44  1  0.50158302  0.83577984  0.83324685  1
  Ni  Ni45  1  0.83393506  0.16626507  0.50097379  1
  Ni  Ni46  1  0.66618004  0.00077379  0.66706924  1
  Ni  Ni47  1  0.83247460  0.16606025  0.83439845  1
  Cr  Cr48  1  0.83444818  0.50166079  0.50132426  1
  Ni  Ni49  1  0.66484198  0.33199873  0.66707253  1
  Cr  Cr50  1  0.83346357  0.50088125  0.83313787  1
  Ni  Ni51  1  0.83153486  0.83327765  0.50041637  1
  Ni  Ni52  1  0.66686838  0.66798801  0.66664321  1
  Ni  Ni53  1  0.83283327  0.83395369  0.83390008  1
" 