5920,Ni77Fe6Cr15_10,-233.879461712918, 169.034209900155,Ni77Fe6Cr15,"# generated using pymatgen
 data_Cr3FeNi14
_symmetry_space_group_name_H-M   'P 1'
_cell_length_a   7.46171958
_cell_length_b   7.46171958
_cell_length_c   10.55246502
_cell_angle_alpha   90.00000000
_cell_angle_beta   90.00000000
_cell_angle_gamma   90.00000000
_symmetry_Int_Tables_number   1
_chemical_formula_structural   Cr3FeNi14
_chemical_formula_sum   'Cr9 Fe3 Ni42'
_cell_volume   587.53232882
_cell_formula_units_Z   3
loop_
 _symmetry_equiv_pos_site_id
 _symmetry_equiv_pos_as_xyz
  1  'x, y, z'
loop_
 _atom_site_type_symbol
 _atom_site_label
 _atom_site_symmetry_multiplicity
 _atom_site_fract_x
 _atom_site_fract_y
 _atom_site_fract_z
 _atom_site_occupancy
  Ni  Ni0  1  0.99844890  1.00025644  1.00017846  1
  Ni  Ni1  1  0.16620796  0.16829280  0.16798672  1
  Fe  Fe2  1  0.00072004  0.00182278  0.33385004  1
  Ni  Ni3  1  0.00096771  0.33342493  0.00133984  1
  Ni  Ni4  1  0.16746272  0.49900999  0.16635099  1
  Ni  Ni5  1  0.00297213  0.33188405  0.33287205  1
  Ni  Ni6  1  0.00125435  0.66738904  0.00075576  1
  Ni  Ni7  1  0.16684950  0.83376832  0.16661890  1
  Cr  Cr8  1  0.00104474  0.66694634  0.33331903  1
  Cr  Cr9  1  0.33340587  0.99910009  0.00098034  1
  Ni  Ni10  1  0.50023015  0.16738131  0.16737950  1
  Ni  Ni11  1  0.33424529  1.00011429  0.33416756  1
  Ni  Ni12  1  0.33252486  0.33668689  0.00093670  1
  Ni  Ni13  1  0.50001659  0.50096273  0.16571735  1
  Ni  Ni14  1  0.33140495  0.33330790  0.33414029  1
  Ni  Ni15  1  0.33322490  0.66511422  1.00022155  1
  Ni  Ni16  1  0.50154188  0.83272723  0.16807135  1
  Ni  Ni17  1  0.33466940  0.66764943  0.33376097  1
  Ni  Ni18  1  0.66985549  0.99955515  0.00114463  1
  Ni  Ni19  1  0.83463342  0.16676754  0.16561843  1
  Ni  Ni20  1  0.66629776  0.99866882  0.33387239  1
  Ni  Ni21  1  0.66757859  0.33388075  0.00189394  1
  Ni  Ni22  1  0.83359224  0.50032128  0.16529223  1
  Cr  Cr23  1  0.66687130  0.33223886  0.33269054  1
  Ni  Ni24  1  0.66659199  0.66763392  0.00112308  1
  Ni  Ni25  1  0.83267914  0.83398217  0.16627609  1
  Ni  Ni26  1  0.66487598  0.67009106  0.33332793  1
  Ni  Ni27  1  0.16805593  0.16582764  0.49991705  1
  Ni  Ni28  1  1.00000104  0.00045347  0.66667609  1
  Ni  Ni29  1  0.16597488  0.16692024  0.83316668  1
  Fe  Fe30  1  0.17050184  0.49851288  0.49851276  1
  Cr  Cr31  1  0.00168308  0.33108639  0.66684109  1
  Ni  Ni32  1  0.16904300  0.49921134  0.83572242  1
  Ni  Ni33  1  0.16763089  0.83706672  0.50021420  1
  Cr  Cr34  1  0.00074314  0.67000000  0.66715736  1
  Ni  Ni35  1  0.16544652  0.83493839  0.83423771  1
  Ni  Ni36  1  0.49873841  0.16683601  0.50159508  1
  Ni  Ni37  1  0.33317710  0.00128042  0.66596516  1
  Cr  Cr38  1  0.50001789  0.16809295  0.83243723  1
  Ni  Ni39  1  0.49968064  0.50013562  0.50130652  1
  Ni  Ni40  1  0.33483783  0.33261438  0.66599353  1
  Ni  Ni41  1  0.49988378  0.50084766  0.83404714  1
  Ni  Ni42  1  0.50111671  0.83409900  0.49983575  1
  Cr  Cr43  1  0.33483320  0.66727121  0.66741991  1
  Ni  Ni44  1  0.50216437  0.83198530  0.83316513  1
  Ni  Ni45  1  0.83427767  0.16439079  0.50139951  1
  Ni  Ni46  1  0.66789273  0.99975018  0.66605545  1
  Fe  Fe47  1  0.83463336  0.16434153  0.83452935  1
  Cr  Cr48  1  0.83132167  0.50095053  0.50042666  1
  Ni  Ni49  1  0.66453614  0.33244796  0.66603416  1
  Cr  Cr50  1  0.83177089  0.50119698  0.83532235  1
  Ni  Ni51  1  0.83232246  0.83612017  0.50098452  1
  Ni  Ni52  1  0.66536523  0.66887210  0.66661995  1
  Ni  Ni53  1  0.83346108  0.83505117  0.83380989  1
" 