581,Ni77Fe4Cr17_5,-232.202712610832, 163.454738537122,Ni77Fe4Cr17,"# generated using pymatgen
 data_Cr11Fe2Ni41
_symmetry_space_group_name_H-M   'P 1'
_cell_length_a   7.47082137
_cell_length_b   7.47082137
_cell_length_c   10.56533690
_cell_angle_alpha   90.00000000
_cell_angle_beta   90.00000000
_cell_angle_gamma   90.00000000
_symmetry_Int_Tables_number   1
_chemical_formula_structural   Cr11Fe2Ni41
_chemical_formula_sum   'Cr11 Fe2 Ni41'
_cell_volume   589.68496431
_cell_formula_units_Z   1
loop_
 _symmetry_equiv_pos_site_id
 _symmetry_equiv_pos_as_xyz
  1  'x, y, z'
loop_
 _atom_site_type_symbol
 _atom_site_label
 _atom_site_symmetry_multiplicity
 _atom_site_fract_x
 _atom_site_fract_y
 _atom_site_fract_z
 _atom_site_occupancy
  Ni  Ni0  1  0.99901194  0.99889116  0.00047950  1
  Ni  Ni1  1  0.16645733  0.16513175  0.16587692  1
  Ni  Ni2  1  0.00172053  0.00043614  0.33263431  1
  Ni  Ni3  1  0.00082050  0.33370246  0.00052441  1
  Fe  Fe4  1  0.16482000  0.49979789  0.16466711  1
  Ni  Ni5  1  0.99832970  0.33234662  0.33242171  1
  Ni  Ni6  1  0.00001330  0.66664962  0.99952229  1
  Ni  Ni7  1  0.16348830  0.83539293  0.16608044  1
  Ni  Ni8  1  0.99925653  0.66645898  0.33178191  1
  Ni  Ni9  1  0.33239742  0.99881316  0.00107867  1
  Ni  Ni10  1  0.49755328  0.16776412  0.16587348  1
  Ni  Ni11  1  0.33066035  0.00036311  0.33418433  1
  Ni  Ni12  1  0.33160891  0.33479947  0.00131025  1
  Ni  Ni13  1  0.50206224  0.49816996  0.16585155  1
  Cr  Cr14  1  0.33331578  0.33187961  0.33326144  1
  Ni  Ni15  1  0.33249154  0.66563246  0.99826928  1
  Cr  Cr16  1  0.49995898  0.83329442  0.16482680  1
  Cr  Cr17  1  0.33269131  0.66739426  0.33467994  1
  Ni  Ni18  1  0.66783261  0.99800693  0.99911787  1
  Fe  Fe19  1  0.83462346  0.16631448  0.16646208  1
  Cr  Cr20  1  0.66624269  0.00100265  0.33328696  1
  Cr  Cr21  1  0.66699694  0.33346386  0.00001809  1
  Ni  Ni22  1  0.83314676  0.50113947  0.16786404  1
  Ni  Ni23  1  0.66757115  0.33417549  0.33299374  1
  Ni  Ni24  1  0.66673836  0.66743743  0.99929222  1
  Ni  Ni25  1  0.83577858  0.83088530  0.16560176  1
  Ni  Ni26  1  0.66749560  0.66377870  0.33201145  1
  Ni  Ni27  1  0.16720735  0.16453578  0.49934958  1
  Ni  Ni28  1  0.99948174  0.99846942  0.66612754  1
  Cr  Cr29  1  0.16631791  0.16580774  0.83388371  1
  Ni  Ni30  1  0.16736625  0.50019471  0.50034342  1
  Cr  Cr31  1  0.99950979  0.33289081  0.66675240  1
  Ni  Ni32  1  0.16663715  0.50227519  0.83429155  1
  Ni  Ni33  1  0.16753287  0.83451301  0.50039745  1
  Ni  Ni34  1  0.00343183  0.66805478  0.66793850  1
  Ni  Ni35  1  0.16578706  0.83119047  0.83276334  1
  Ni  Ni36  1  0.49903143  0.16662683  0.50122327  1
  Ni  Ni37  1  0.33336803  0.99799634  0.66397897  1
  Cr  Cr38  1  0.49974189  0.16576968  0.83237106  1
  Ni  Ni39  1  0.49909671  0.49832591  0.50039656  1
  Ni  Ni40  1  0.33493403  0.33493048  0.66467615  1
  Ni  Ni41  1  0.49880931  0.50142320  0.83299383  1
  Ni  Ni42  1  0.49683777  0.83428960  0.50030896  1
  Ni  Ni43  1  0.33163068  0.66631648  0.66631667  1
  Ni  Ni44  1  0.49960105  0.83198346  0.83410099  1
  Ni  Ni45  1  0.83300323  0.16679279  0.49949542  1
  Ni  Ni46  1  0.66639270  0.00177410  0.66665674  1
  Ni  Ni47  1  0.83300181  0.16498397  0.83310605  1
  Cr  Cr48  1  0.83284520  0.49885524  0.49772589  1
  Ni  Ni49  1  0.66465445  0.33098100  0.66576757  1
  Ni  Ni50  1  0.83379600  0.50110013  0.83381298  1
  Cr  Cr51  1  0.83481627  0.83344410  0.49923970  1
  Cr  Cr52  1  0.66459053  0.66655658  0.66816819  1
  Ni  Ni53  1  0.83385425  0.83315718  0.83420235  1
" 