2337,Ni77Fe2Cr20_13,-230.975602935351, 154.393408958428,Ni77Fe2Cr20,"# generated using pymatgen
 data_Cr12FeNi41
_symmetry_space_group_name_H-M   'P 1'
_cell_length_a   7.47422566
_cell_length_b   7.47422566
_cell_length_c   10.57015130
_cell_angle_alpha   90.00000000
_cell_angle_beta   90.00000000
_cell_angle_gamma   90.00000000
_symmetry_Int_Tables_number   1
_chemical_formula_structural   Cr12FeNi41
_chemical_formula_sum   'Cr12 Fe1 Ni41'
_cell_volume   590.49145289
_cell_formula_units_Z   1
loop_
 _symmetry_equiv_pos_site_id
 _symmetry_equiv_pos_as_xyz
  1  'x, y, z'
loop_
 _atom_site_type_symbol
 _atom_site_label
 _atom_site_symmetry_multiplicity
 _atom_site_fract_x
 _atom_site_fract_y
 _atom_site_fract_z
 _atom_site_occupancy
  Ni  Ni0  1  0.99872583  0.99666677  0.99823857  1
  Cr  Cr1  1  0.16777618  0.16540872  0.16622446  1
  Ni  Ni2  1  0.99946206  0.99757710  0.33473916  1
  Ni  Ni3  1  0.00153785  0.33466102  0.99894501  1
  Fe  Fe4  1  0.16486843  0.50156539  0.16617769  1
  Ni  Ni5  1  0.99941565  0.33470494  0.33501255  1
  Ni  Ni6  1  0.00250136  0.66732828  0.00024685  1
  Ni  Ni7  1  0.16625128  0.83175076  0.16573218  1
  Ni  Ni8  1  0.99928074  0.66633321  0.33259462  1
  Ni  Ni9  1  0.33438159  0.99793419  0.99920507  1
  Ni  Ni10  1  0.49810443  0.16389362  0.16661504  1
  Ni  Ni11  1  0.33376926  0.99883365  0.33399301  1
  Ni  Ni12  1  0.33185854  0.33365656  0.99842349  1
  Cr  Cr13  1  0.49880977  0.49982638  0.16805925  1
  Ni  Ni14  1  0.33318491  0.33270102  0.33442079  1
  Ni  Ni15  1  0.32973179  0.66699801  0.99781177  1
  Ni  Ni16  1  0.49824000  0.83474018  0.16677454  1
  Ni  Ni17  1  0.33203763  0.66705071  0.33396632  1
  Ni  Ni18  1  0.66543900  0.99880393  0.99819527  1
  Cr  Cr19  1  0.83277570  0.16574642  0.16645431  1
  Ni  Ni20  1  0.66530070  0.99866896  0.33329779  1
  Cr  Cr21  1  0.66479237  0.32987910  0.99867884  1
  Ni  Ni22  1  0.83576379  0.50143789  0.16813678  1
  Ni  Ni23  1  0.66598357  0.33291147  0.33493117  1
  Cr  Cr24  1  0.66635729  0.66952790  -0.00046664  1
  Ni  Ni25  1  0.83404984  0.83132918  0.16659992  1
  Ni  Ni26  1  0.66724688  0.66697763  0.33386963  1
  Ni  Ni27  1  0.16602402  0.16617949  0.49792855  1
  Cr  Cr28  1  0.99894211  -0.00018444  0.66493384  1
  Cr  Cr29  1  0.16566880  0.16581377  0.83414190  1
  Ni  Ni30  1  0.16507726  0.49846907  0.49665159  1
  Ni  Ni31  1  0.99759451  0.33262564  0.66465710  1
  Ni  Ni32  1  0.16704754  0.50039690  0.83651905  1
  Ni  Ni33  1  0.16736546  0.83392213  0.49720085  1
  Cr  Cr34  1  0.00088110  0.66602261  0.66543819  1
  Ni  Ni35  1  0.16748985  0.83199148  0.83552643  1
  Ni  Ni36  1  0.50008220  0.16545041  0.49858678  1
  Ni  Ni37  1  0.33568145  0.99898561  0.66533007  1
  Ni  Ni38  1  0.50102607  0.16438147  0.83335291  1
  Ni  Ni39  1  0.50061804  0.49881805  0.49745758  1
  Cr  Cr40  1  0.33357560  0.33242908  0.66544363  1
  Ni  Ni41  1  0.49694179  0.49892921  0.83339858  1
  Ni  Ni42  1  0.49914624  0.83426790  0.49795907  1
  Cr  Cr43  1  0.33245326  0.66759988  0.66661411  1
  Ni  Ni44  1  0.49831985  0.83522139  0.83383027  1
  Ni  Ni45  1  0.83246089  0.16765729  0.49940406  1
  Ni  Ni46  1  0.66476496  0.00171020  0.66708554  1
  Ni  Ni47  1  0.83126988  0.16474576  0.83276122  1
  Ni  Ni48  1  0.83282487  0.49754242  0.49781951  1
  Ni  Ni49  1  0.66682201  0.32986674  0.66553870  1
  Cr  Cr50  1  0.83423068  0.49774364  0.83219050  1
  Ni  Ni51  1  0.83209193  0.83338313  0.49676498  1
  Cr  Cr52  1  0.66524463  0.66706122  0.66547097  1
  Ni  Ni53  1  0.83277847  0.83612686  0.83518648  1
" 