1328,Ni77Fe6Cr15_1,-234.02012619352, 168.333468749806,Ni77Fe6Cr15,"# generated using pymatgen
 data_Cr3FeNi14
_symmetry_space_group_name_H-M   'P 1'
_cell_length_a   7.46399796
_cell_length_b   7.46399796
_cell_length_c   10.55568715
_cell_angle_alpha   90.00000000
_cell_angle_beta   90.00000000
_cell_angle_gamma   90.00000000
_symmetry_Int_Tables_number   1
_chemical_formula_structural   Cr3FeNi14
_chemical_formula_sum   'Cr9 Fe3 Ni42'
_cell_volume   588.07069056
_cell_formula_units_Z   3
loop_
 _symmetry_equiv_pos_site_id
 _symmetry_equiv_pos_as_xyz
  1  'x, y, z'
loop_
 _atom_site_type_symbol
 _atom_site_label
 _atom_site_symmetry_multiplicity
 _atom_site_fract_x
 _atom_site_fract_y
 _atom_site_fract_z
 _atom_site_occupancy
  Ni  Ni0  1  0.00089206  0.00263845  0.00072496  1
  Ni  Ni1  1  0.16687213  0.16742526  0.16584149  1
  Cr  Cr2  1  0.00038467  0.99823585  0.33417048  1
  Ni  Ni3  1  0.99934425  0.33095942  0.00072567  1
  Ni  Ni4  1  0.16775457  0.50034414  0.16742767  1
  Cr  Cr5  1  0.99960795  0.33442664  0.33263360  1
  Cr  Cr6  1  0.00202984  0.66683896  0.00160667  1
  Fe  Fe7  1  0.16892021  0.83431399  0.16656792  1
  Ni  Ni8  1  0.99894927  0.66769310  0.33306674  1
  Ni  Ni9  1  0.33341078  0.99809351  0.99981958  1
  Ni  Ni10  1  0.50116009  0.16605828  0.16817594  1
  Ni  Ni11  1  0.33528783  0.00074024  0.33390112  1
  Cr  Cr12  1  0.33385940  0.33359215  0.99932043  1
  Ni  Ni13  1  0.50007861  0.50151186  0.16757075  1
  Ni  Ni14  1  0.33633700  0.33246876  0.33310138  1
  Ni  Ni15  1  0.33514904  0.66865249  1.00005316  1
  Ni  Ni16  1  0.50148920  0.83304286  0.16624341  1
  Fe  Fe17  1  0.33536266  0.66740503  0.33244062  1
  Ni  Ni18  1  0.66631193  0.00080875  0.00121479  1
  Ni  Ni19  1  0.83258073  0.16601485  0.16414789  1
  Ni  Ni20  1  0.66435081  0.99947409  0.33358060  1
  Ni  Ni21  1  0.66795159  0.33269861  0.00115281  1
  Fe  Fe22  1  0.83123738  0.49974038  0.16726327  1
  Ni  Ni23  1  0.66405741  0.33449509  0.33370648  1
  Ni  Ni24  1  0.66340457  0.66710431  0.00142495  1
  Ni  Ni25  1  0.83141390  0.83392610  0.16705885  1
  Ni  Ni26  1  0.66736485  0.66664319  0.33412173  1
  Ni  Ni27  1  0.16825145  0.16523785  0.50240850  1
  Ni  Ni28  1  0.00124166  0.00294822  0.66596096  1
  Ni  Ni29  1  0.16579057  0.16650906  0.83236243  1
  Cr  Cr30  1  0.16752405  0.49871877  0.49974747  1
  Ni  Ni31  1  0.00029197  0.32997456  0.66729632  1
  Ni  Ni32  1  0.16893425  0.49826791  0.83365113  1
  Ni  Ni33  1  0.16683062  0.83612433  0.49877390  1
  Cr  Cr34  1  0.99927936  0.66794832  0.66558010  1
  Ni  Ni35  1  0.16980965  0.83583650  0.83514087  1
  Ni  Ni36  1  0.50023432  0.16672719  0.49962248  1
  Ni  Ni37  1  0.33304091  0.00225157  0.66689110  1
  Ni  Ni38  1  0.50047287  0.16605617  0.83281255  1
  Ni  Ni39  1  0.50314709  0.49950947  0.49954332  1
  Ni  Ni40  1  0.33418406  0.33086295  0.66762917  1
  Ni  Ni41  1  0.49941230  0.50080607  0.83350001  1
  Ni  Ni42  1  0.50191684  0.83437610  0.49954292  1
  Cr  Cr43  1  0.33598305  0.66753496  0.66877187  1
  Ni  Ni44  1  0.49898759  0.83374990  0.83482847  1
  Ni  Ni45  1  0.83212667  0.16646923  0.50251732  1
  Ni  Ni46  1  0.66633049  0.00120257  0.66581663  1
  Ni  Ni47  1  0.83435071  0.16693391  0.83394837  1
  Ni  Ni48  1  0.83038224  0.50092994  0.49961636  1
  Ni  Ni49  1  0.66613784  0.33286169  0.66575461  1
  Cr  Cr50  1  0.83215087  0.49717152  0.83376112  1
  Ni  Ni51  1  0.83186773  0.83321426  0.50037317  1
  Ni  Ni52  1  0.66544264  0.66654870  0.66506413  1
  Cr  Cr53  1  0.83134717  0.83691357  0.83305343  1
" 