5580,Ni77Fe6Cr15_3,-233.883416300216, 168.025744674992,Ni77Fe6Cr15,"# generated using pymatgen
 data_Cr3FeNi14
_symmetry_space_group_name_H-M   'P 1'
_cell_length_a   7.46552966
_cell_length_b   7.46552966
_cell_length_c   10.55785329
_cell_angle_alpha   90.00000000
_cell_angle_beta   90.00000000
_cell_angle_gamma   90.00000000
_symmetry_Int_Tables_number   1
_chemical_formula_structural   Cr3FeNi14
_chemical_formula_sum   'Cr9 Fe3 Ni42'
_cell_volume   588.43280035
_cell_formula_units_Z   3
loop_
 _symmetry_equiv_pos_site_id
 _symmetry_equiv_pos_as_xyz
  1  'x, y, z'
loop_
 _atom_site_type_symbol
 _atom_site_label
 _atom_site_symmetry_multiplicity
 _atom_site_fract_x
 _atom_site_fract_y
 _atom_site_fract_z
 _atom_site_occupancy
  Ni  Ni0  1  0.00025905  0.99822638  0.99926609  1
  Ni  Ni1  1  0.16821970  0.16598782  0.16511898  1
  Cr  Cr2  1  0.00033099  0.00013053  0.33420824  1
  Cr  Cr3  1  0.00138714  0.33339623  0.00058571  1
  Ni  Ni4  1  0.16626297  0.50105169  0.16596289  1
  Ni  Ni5  1  0.99807571  0.33508791  0.33367093  1
  Ni  Ni6  1  0.00059395  0.66892895  0.00072762  1
  Ni  Ni7  1  0.16599234  0.83326594  0.16496041  1
  Ni  Ni8  1  0.99824453  0.66504050  0.33315130  1
  Ni  Ni9  1  0.33259449  0.99900522  0.00140937  1
  Ni  Ni10  1  0.50010044  0.16602985  0.16693214  1
  Ni  Ni11  1  0.33517202  0.00026176  0.33357853  1
  Ni  Ni12  1  0.33267622  0.33424790  0.00079478  1
  Ni  Ni13  1  0.50065504  0.49960408  0.16533838  1
  Cr  Cr14  1  0.33320910  0.33195604  0.33309225  1
  Ni  Ni15  1  0.33335021  0.66704957  0.99945231  1
  Fe  Fe16  1  0.50094316  0.83437404  0.16592917  1
  Cr  Cr17  1  0.33287022  0.66824947  0.33417901  1
  Ni  Ni18  1  0.66745244  0.99754987  0.00100684  1
  Ni  Ni19  1  0.83198539  0.16575886  0.16758476  1
  Ni  Ni20  1  0.66534430  0.00042816  0.33340604  1
  Cr  Cr21  1  0.66614157  0.33405538  0.00105038  1
  Ni  Ni22  1  0.83338509  0.50183498  0.16831651  1
  Ni  Ni23  1  0.66868053  0.33321256  0.33369402  1
  Ni  Ni24  1  0.66636009  0.66884783  0.99969336  1
  Ni  Ni25  1  0.83343013  0.83271327  0.16551360  1
  Ni  Ni26  1  0.66876647  0.66666370  0.33376520  1
  Ni  Ni27  1  0.16620946  0.16732749  0.50176769  1
  Ni  Ni28  1  1.00007445  0.00218402  0.66718521  1
  Fe  Fe29  1  0.16549868  0.16630881  0.83338408  1
  Ni  Ni30  1  0.16626445  0.49949129  0.50069938  1
  Ni  Ni31  1  0.00015732  0.33163028  0.66639356  1
  Ni  Ni32  1  0.16924501  0.50082452  0.83364289  1
  Ni  Ni33  1  0.16681514  0.83348743  0.50036559  1
  Cr  Cr34  1  0.00027612  0.66732169  0.66620187  1
  Ni  Ni35  1  0.16596240  0.83248539  0.83497826  1
  Ni  Ni36  1  0.50088308  0.16755752  0.49894186  1
  Cr  Cr37  1  0.33132280  0.99878033  0.66486853  1
  Cr  Cr38  1  0.50018608  0.16820872  0.83424108  1
  Ni  Ni39  1  0.50143712  0.49987396  0.50278222  1
  Ni  Ni40  1  0.33269055  0.33614534  0.66617116  1
  Ni  Ni41  1  0.49827434  0.50211425  0.83218253  1
  Ni  Ni42  1  0.50066076  0.83287306  0.49930382  1
  Ni  Ni43  1  0.33516038  0.66470168  0.66691756  1
  Ni  Ni44  1  0.50032515  0.82996560  0.83543041  1
  Ni  Ni45  1  0.83321152  0.16810342  0.50031372  1
  Cr  Cr46  1  0.66901574  0.99912417  0.66575402  1
  Ni  Ni47  1  0.83530777  0.16494045  0.83240689  1
  Ni  Ni48  1  0.83260126  0.49926738  0.49935685  1
  Ni  Ni49  1  0.66745750  0.33580853  0.66563117  1
  Fe  Fe50  1  0.83239318  0.50171398  0.83254062  1
  Ni  Ni51  1  0.83282955  0.83293473  0.49958495  1
  Ni  Ni52  1  0.66473098  0.66478407  0.66684899  1
  Ni  Ni53  1  0.83401578  0.83457324  0.83520613  1
" 