7072,Ni77Fe2Cr20_6,-231.120276096332, 158.519470122827,Ni77Fe2Cr20,"# generated using pymatgen
 data_Cr12FeNi41
_symmetry_space_group_name_H-M   'P 1'
_cell_length_a   7.47400335
_cell_length_b   7.47400335
_cell_length_c   10.56983690
_cell_angle_alpha   90.00000000
_cell_angle_beta   90.00000000
_cell_angle_gamma   90.00000000
_symmetry_Int_Tables_number   1
_chemical_formula_structural   Cr12FeNi41
_chemical_formula_sum   'Cr12 Fe1 Ni41'
_cell_volume   590.43876403
_cell_formula_units_Z   1
loop_
 _symmetry_equiv_pos_site_id
 _symmetry_equiv_pos_as_xyz
  1  'x, y, z'
loop_
 _atom_site_type_symbol
 _atom_site_label
 _atom_site_symmetry_multiplicity
 _atom_site_fract_x
 _atom_site_fract_y
 _atom_site_fract_z
 _atom_site_occupancy
  Ni  Ni0  1  0.99842614  0.99823202  0.99874469  1
  Cr  Cr1  1  0.16680457  0.16675831  0.16582017  1
  Ni  Ni2  1  0.00119960  0.99893542  0.32989887  1
  Ni  Ni3  1  0.99871829  0.33235012  0.99830886  1
  Ni  Ni4  1  0.16709698  0.49871914  0.16372331  1
  Ni  Ni5  1  -0.00042173  0.33396969  0.33250904  1
  Ni  Ni6  1  -0.00024566  0.66800184  -0.00045046  1
  Ni  Ni7  1  0.16637483  0.83445295  0.16374890  1
  Cr  Cr8  1  0.00103995  0.66642379  0.33200569  1
  Ni  Ni9  1  0.33320906  0.99741632  0.99683625  1
  Cr  Cr10  1  0.49845550  0.16769837  0.16535254  1
  Ni  Ni11  1  0.33248999  0.99785958  0.33451598  1
  Ni  Ni12  1  0.33396086  0.33423912  0.99858701  1
  Ni  Ni13  1  0.49975243  0.50001248  0.16467206  1
  Ni  Ni14  1  0.33365505  0.33479810  0.33374491  1
  Ni  Ni15  1  0.33356409  0.66718900  0.00131146  1
  Ni  Ni16  1  0.50002485  0.83174813  0.16414208  1
  Cr  Cr17  1  0.33339895  0.66569492  0.33155552  1
  Ni  Ni18  1  0.66709183  0.99852780  0.99848901  1
  Fe  Fe19  1  0.83291802  0.16625816  0.16419248  1
  Cr  Cr20  1  0.66573219  0.99688340  0.33064861  1
  Ni  Ni21  1  0.66590926  0.33279245  0.99648054  1
  Cr  Cr22  1  0.83033361  0.49989484  0.16463843  1
  Ni  Ni23  1  0.66480588  0.33527082  0.33429569  1
  Ni  Ni24  1  0.66542166  0.66736669  0.99869813  1
  Ni  Ni25  1  0.83246114  0.83291200  0.16383932  1
  Ni  Ni26  1  0.66455416  0.66411494  0.33281691  1
  Cr  Cr27  1  0.16689840  0.16409250  0.49948418  1
  Ni  Ni28  1  0.00127781  0.99865833  0.66999822  1
  Ni  Ni29  1  0.16582527  0.16376148  0.83391581  1
  Ni  Ni30  1  0.16522610  0.49964412  0.50002917  1
  Ni  Ni31  1  0.99714531  0.33386289  0.66750742  1
  Cr  Cr32  1  0.16566799  0.50187816  0.83528180  1
  Ni  Ni33  1  0.16768964  0.83304405  0.50163965  1
  Ni  Ni34  1  0.00038441  0.66573843  0.66651242  1
  Ni  Ni35  1  0.16640013  0.83456181  0.83271518  1
  Ni  Ni36  1  0.49835802  0.16699243  0.49857464  1
  Ni  Ni37  1  0.33253225  0.99657527  0.66724330  1
  Ni  Ni38  1  0.49882375  0.16606865  0.83496105  1
  Ni  Ni39  1  0.50180455  0.49997975  0.49903628  1
  Cr  Cr40  1  0.33573587  0.33318099  0.66744212  1
  Ni  Ni41  1  0.50265949  0.50118365  0.83500426  1
  Ni  Ni42  1  0.49734919  0.83159073  0.50032431  1
  Ni  Ni43  1  0.33365284  0.66803074  0.66527704  1
  Ni  Ni44  1  0.49874946  0.83125261  0.83409648  1
  Cr  Cr45  1  0.83337096  0.16840178  0.49777181  1
  Cr  Cr46  1  0.66383213  0.00201752  0.67015577  1
  Ni  Ni47  1  0.83393945  0.16735274  0.83538838  1
  Ni  Ni48  1  0.83147310  0.49899720  0.50115571  1
  Ni  Ni49  1  0.66712221  0.33525351  0.66735965  1
  Ni  Ni50  1  0.83101325  0.50052969  0.83182924  1
  Cr  Cr51  1  0.83326910  0.82906305  0.50184901  1
  Ni  Ni52  1  0.66449886  0.66394058  0.66715239  1
  Ni  Ni53  1  0.83344120  0.83069912  0.83404094  1
" 