5616,Ni77Fe2Cr20_2,-230.989120653364, 157.169152918817,Ni77Fe2Cr20,"# generated using pymatgen
 data_Cr12FeNi41
_symmetry_space_group_name_H-M   'P 1'
_cell_length_a   7.47508816
_cell_length_b   7.47508816
_cell_length_c   10.57137106
_cell_angle_alpha   90.00000000
_cell_angle_beta   90.00000000
_cell_angle_gamma   90.00000000
_symmetry_Int_Tables_number   1
_chemical_formula_structural   Cr12FeNi41
_chemical_formula_sum   'Cr12 Fe1 Ni41'
_cell_volume   590.69589857
_cell_formula_units_Z   1
loop_
 _symmetry_equiv_pos_site_id
 _symmetry_equiv_pos_as_xyz
  1  'x, y, z'
loop_
 _atom_site_type_symbol
 _atom_site_label
 _atom_site_symmetry_multiplicity
 _atom_site_fract_x
 _atom_site_fract_y
 _atom_site_fract_z
 _atom_site_occupancy
  Ni  Ni0  1  0.00140471  0.99886939  0.00022705  1
  Ni  Ni1  1  0.16376758  0.16448191  0.16657134  1
  Ni  Ni2  1  -0.00007560  0.00121504  0.33057157  1
  Ni  Ni3  1  0.99708138  0.33218819  0.99868149  1
  Cr  Cr4  1  0.16667188  0.49908786  0.16655468  1
  Ni  Ni5  1  0.99860293  0.33005314  0.33207253  1
  Ni  Ni6  1  0.99822179  0.66730436  0.99873256  1
  Ni  Ni7  1  0.16454076  0.83440410  0.16384157  1
  Cr  Cr8  1  0.99937770  0.66780723  0.33212723  1
  Ni  Ni9  1  0.32900039  -0.00022298  0.99941608  1
  Ni  Ni10  1  0.50064047  0.16829829  0.16706146  1
  Cr  Cr11  1  0.33161534  0.00057233  0.33385272  1
  Cr  Cr12  1  0.33443037  0.33098863  0.99847303  1
  Ni  Ni13  1  0.50090440  0.49820876  0.16615945  1
  Ni  Ni14  1  0.33494036  0.33218075  0.33275471  1
  Ni  Ni15  1  0.33176757  0.66667512  0.99908294  1
  Cr  Cr16  1  0.49866601  0.83159070  0.16515238  1
  Ni  Ni17  1  0.33370631  0.66513873  0.33385918  1
  Cr  Cr18  1  0.66786059  0.00155696  0.00019539  1
  Ni  Ni19  1  0.83395925  0.16670330  0.16724244  1
  Ni  Ni20  1  0.66684016  0.00243612  0.33205519  1
  Ni  Ni21  1  0.66743612  0.33505703  -0.00033491  1
  Ni  Ni22  1  0.83141936  0.49740592  0.16427827  1
  Ni  Ni23  1  0.66482896  0.33214789  0.33168642  1
  Ni  Ni24  1  0.66835629  0.66244821  -0.00023705  1
  Ni  Ni25  1  0.83517510  0.83428229  0.16530876  1
  Cr  Cr26  1  0.66560843  0.66463411  0.33277343  1
  Ni  Ni27  1  0.16607129  0.16455265  0.49901968  1
  Ni  Ni28  1  0.00129577  0.99901094  0.66759328  1
  Ni  Ni29  1  0.16383805  0.16530004  0.83277499  1
  Cr  Cr30  1  0.16563219  0.49875690  0.49879166  1
  Ni  Ni31  1  0.99765920  0.33292850  0.66763351  1
  Ni  Ni32  1  0.16418390  0.50047839  0.83275329  1
  Ni  Ni33  1  0.16863805  0.83407542  0.50159278  1
  Ni  Ni34  1  0.99883319  0.66641291  0.66776306  1
  Fe  Fe35  1  0.16447428  0.83271317  0.83284531  1
  Ni  Ni36  1  0.49950433  0.16556254  0.49949189  1
  Ni  Ni37  1  0.33192083  0.99887260  0.66507052  1
  Ni  Ni38  1  0.50013500  0.16629713  0.83185209  1
  Ni  Ni39  1  0.50033239  0.50022839  0.49904283  1
  Cr  Cr40  1  0.33387384  0.33122266  0.66685294  1
  Ni  Ni41  1  0.50059888  0.50026775  0.83317901  1
  Ni  Ni42  1  0.49745243  0.83261254  0.50118674  1
  Ni  Ni43  1  0.33289339  0.66794463  0.66539519  1
  Cr  Cr44  1  0.49929466  0.83211092  0.83195394  1
  Cr  Cr45  1  0.83331193  0.16766647  0.49945677  1
  Ni  Ni46  1  0.66517324  0.00008720  0.66640927  1
  Ni  Ni47  1  0.83435195  0.16684159  0.83189930  1
  Ni  Ni48  1  0.83124544  0.49765305  0.50151960  1
  Ni  Ni49  1  0.66677204  0.33394719  0.66704528  1
  Ni  Ni50  1  0.83358979  0.49939287  0.83258251  1
  Cr  Cr51  1  0.83190529  0.83400023  0.50113366  1
  Ni  Ni52  1  0.66662453  0.66437339  0.66585145  1
  Ni  Ni53  1  0.83460306  0.83213408  0.83210709  1
" 