5857,Ni77Fe12Cr9_3,-237.018709677059, 182.707283514417,Ni77Fe12Cr9,"# generated using pymatgen
 data_CrFeNi7
_symmetry_space_group_name_H-M   'P 1'
_cell_length_a   7.44698566
_cell_length_b   7.44698566
_cell_length_c   10.53162812
_cell_angle_alpha   90.00000000
_cell_angle_beta   90.00000000
_cell_angle_gamma   90.00000000
_symmetry_Int_Tables_number   1
_chemical_formula_structural   CrFeNi7
_chemical_formula_sum   'Cr6 Fe6 Ni42'
_cell_volume   584.05877087
_cell_formula_units_Z   6
loop_
 _symmetry_equiv_pos_site_id
 _symmetry_equiv_pos_as_xyz
  1  'x, y, z'
loop_
 _atom_site_type_symbol
 _atom_site_label
 _atom_site_symmetry_multiplicity
 _atom_site_fract_x
 _atom_site_fract_y
 _atom_site_fract_z
 _atom_site_occupancy
  Ni  Ni0  1  0.00393428  0.00234225  0.00312699  1
  Ni  Ni1  1  0.16772723  0.16852916  0.16871388  1
  Ni  Ni2  1  0.00243851  0.00235106  0.33302541  1
  Ni  Ni3  1  0.00171337  0.33375851  1.00109871  1
  Ni  Ni4  1  0.16786651  0.50015608  0.16831926  1
  Ni  Ni5  1  0.00150542  0.33501216  0.33443923  1
  Fe  Fe6  1  0.00221759  0.66621539  0.00267388  1
  Ni  Ni7  1  0.16896274  0.83460721  0.16839509  1
  Ni  Ni8  1  0.99879470  0.66666888  0.33253696  1
  Ni  Ni9  1  0.33250981  1.00053947  0.00178760  1
  Fe  Fe10  1  0.49996937  0.16898032  0.16770485  1
  Ni  Ni11  1  0.33431990  0.00275861  0.33397420  1
  Ni  Ni12  1  0.33226992  0.33320033  0.00282524  1
  Fe  Fe13  1  0.50135478  0.50138899  0.16853303  1
  Ni  Ni14  1  0.33408401  0.33388441  0.33454862  1
  Fe  Fe15  1  0.33290075  0.66732113  0.00160182  1
  Ni  Ni16  1  0.50026743  0.83344421  0.16649739  1
  Fe  Fe17  1  0.33493132  0.66702287  0.33418825  1
  Fe  Fe18  1  0.66880582  0.00348141  0.00309203  1
  Ni  Ni19  1  0.83635662  0.16998022  0.16695379  1
  Cr  Cr20  1  0.66882331  1.00125299  0.33371050  1
  Ni  Ni21  1  0.67006009  0.33769944  0.00399806  1
  Ni  Ni22  1  0.83499329  0.50073972  0.16791919  1
  Ni  Ni23  1  0.66834938  0.33726203  0.33395570  1
  Ni  Ni24  1  0.66809492  0.66827327  0.00276507  1
  Ni  Ni25  1  0.83496933  0.83372061  0.16741431  1
  Ni  Ni26  1  0.66851293  0.66694526  0.33527581  1
  Ni  Ni27  1  0.16802110  0.16982147  0.50109672  1
  Ni  Ni28  1  0.00173857  0.00311297  0.66783302  1
  Ni  Ni29  1  0.16689543  0.16805992  0.83430524  1
  Ni  Ni30  1  0.16644004  0.49863327  0.50025854  1
  Ni  Ni31  1  0.00153284  0.33480808  0.66868590  1
  Ni  Ni32  1  0.16572206  0.49943112  0.83586976  1
  Cr  Cr33  1  0.16534030  0.83570024  0.49890529  1
  Ni  Ni34  1  0.99970896  0.66599613  0.66931107  1
  Ni  Ni35  1  0.16826425  0.83579831  0.83645336  1
  Ni  Ni36  1  0.50065034  0.16923618  0.50171003  1
  Ni  Ni37  1  0.33412272  0.00255119  0.66828758  1
  Cr  Cr38  1  0.50243253  0.16753050  0.83479533  1
  Ni  Ni39  1  0.50222598  0.49966344  0.49952692  1
  Ni  Ni40  1  0.33241976  0.33307598  0.66653648  1
  Cr  Cr41  1  0.50335483  0.50062061  0.83526144  1
  Ni  Ni42  1  0.50263016  0.83520748  0.50218300  1
  Cr  Cr43  1  0.33426263  0.66733952  0.66837503  1
  Ni  Ni44  1  0.50076274  0.83533215  0.83556667  1
  Ni  Ni45  1  0.83550417  0.16925894  0.50190497  1
  Ni  Ni46  1  0.66808224  1.00108247  0.66729119  1
  Ni  Ni47  1  0.83655553  0.17020168  0.83517165  1
  Ni  Ni48  1  0.83516713  0.50109617  0.50142649  1
  Ni  Ni49  1  0.67018809  0.33524854  0.66602949  1
  Ni  Ni50  1  0.83582564  0.49969415  0.83493760  1
  Ni  Ni51  1  0.83425696  0.83376689  0.50143993  1
  Ni  Ni52  1  0.66963437  0.66778895  0.66576385  1
  Cr  Cr53  1  0.83426447  0.83514483  0.83473577  1
" 