4667,Ni77Fe18Cr4_11,-239.520564347592, 199.035738821822,Ni77Fe18Cr4,"# generated using pymatgen
 data_Cr4Fe9Ni41
_symmetry_space_group_name_H-M   'P 1'
_cell_length_a   7.43513598
_cell_length_b   7.43513598
_cell_length_c   10.51487014
_cell_angle_alpha   90.00000000
_cell_angle_beta   90.00000000
_cell_angle_gamma   90.00000000
_symmetry_Int_Tables_number   1
_chemical_formula_structural   Cr4Fe9Ni41
_chemical_formula_sum   'Cr4 Fe9 Ni41'
_cell_volume   581.27513344
_cell_formula_units_Z   1
loop_
 _symmetry_equiv_pos_site_id
 _symmetry_equiv_pos_as_xyz
  1  'x, y, z'
loop_
 _atom_site_type_symbol
 _atom_site_label
 _atom_site_symmetry_multiplicity
 _atom_site_fract_x
 _atom_site_fract_y
 _atom_site_fract_z
 _atom_site_occupancy
  Ni  Ni0  1  1.00149146  0.99997263  1.00209618  1
  Cr  Cr1  1  0.16810293  0.16738791  0.17068866  1
  Ni  Ni2  1  1.00192533  1.00032473  0.33583825  1
  Fe  Fe3  1  0.99976838  0.33593478  1.00092894  1
  Ni  Ni4  1  0.16773094  0.50382367  0.16849452  1
  Fe  Fe5  1  0.00266058  0.33714994  0.33724018  1
  Ni  Ni6  1  1.00139787  0.66907148  1.00199824  1
  Ni  Ni7  1  0.16836061  0.83461378  0.16896677  1
  Ni  Ni8  1  1.00181037  0.66915099  0.33563822  1
  Ni  Ni9  1  0.33587761  1.00185643  1.00193778  1
  Ni  Ni10  1  0.50260446  0.16926864  0.16832493  1
  Ni  Ni11  1  0.33500873  0.00264759  0.33642609  1
  Cr  Cr12  1  0.33661922  0.33724749  1.00023425  1
  Ni  Ni13  1  0.50350091  0.50278531  0.16964693  1
  Ni  Ni14  1  0.33635657  0.33658980  0.33638888  1
  Fe  Fe15  1  0.33686207  0.67110176  0.00245627  1
  Ni  Ni16  1  0.50185877  0.83467253  0.16849272  1
  Ni  Ni17  1  0.33484269  0.66719443  0.33386638  1
  Ni  Ni18  1  0.66905256  1.00174270  1.00201204  1
  Fe  Fe19  1  0.83477602  0.16883852  0.16768207  1
  Cr  Cr20  1  0.66898059  1.00116932  0.33509890  1
  Ni  Ni21  1  0.66884705  0.33636257  0.00319400  1
  Ni  Ni22  1  0.83497417  0.50272848  0.16966309  1
  Fe  Fe23  1  0.66770141  0.33654746  0.33567617  1
  Ni  Ni24  1  0.67036433  0.66826131  0.00255167  1
  Ni  Ni25  1  0.83622633  0.83392927  0.16751499  1
  Ni  Ni26  1  0.66978114  0.66746110  0.33560490  1
  Ni  Ni27  1  0.16951985  0.16950997  0.50149215  1
  Cr  Cr28  1  1.00165559  1.00110969  0.66835464  1
  Ni  Ni29  1  0.16832668  0.16806381  0.83437576  1
  Ni  Ni30  1  0.17032597  0.50241878  0.50298246  1
  Ni  Ni31  1  0.00254359  0.33672270  0.66908042  1
  Fe  Fe32  1  0.16720558  0.50405250  0.83413361  1
  Ni  Ni33  1  0.16891093  0.83457343  0.50069534  1
  Ni  Ni34  1  1.00197501  0.66762523  0.66868494  1
  Ni  Ni35  1  0.16979333  0.83625844  0.83658158  1
  Ni  Ni36  1  0.50148104  0.17103917  0.50393171  1
  Ni  Ni37  1  0.33647235  0.00288259  0.66826948  1
  Fe  Fe38  1  0.50399219  0.16728588  0.83481359  1
  Ni  Ni39  1  0.50213416  0.50209047  0.50171559  1
  Ni  Ni40  1  0.33560536  0.33574454  0.66918217  1
  Ni  Ni41  1  0.50427093  0.50336575  0.83492373  1
  Fe  Fe42  1  0.50055361  0.83483956  0.50279526  1
  Ni  Ni43  1  0.33511583  0.66790634  0.66930849  1
  Ni  Ni44  1  0.50238111  0.83420152  0.83487713  1
  Ni  Ni45  1  0.83536625  0.16957045  0.50173619  1
  Ni  Ni46  1  0.66809148  0.00232493  0.66952302  1
  Ni  Ni47  1  0.83544504  0.16992162  0.83693707  1
  Fe  Fe48  1  0.83619466  0.50194171  0.50281985  1
  Ni  Ni49  1  0.66834886  0.33550424  0.66852044  1
  Ni  Ni50  1  0.83342449  0.50202616  0.83433297  1
  Ni  Ni51  1  0.83563253  0.83414348  0.50292780  1
  Ni  Ni52  1  0.66921786  0.66851731  0.66818341  1
  Ni  Ni53  1  0.83441669  0.83440918  0.83604326  1
" 