1382,Ni77Fe6Cr15_18,-233.975550341135, 168.749191761111,Ni77Fe6Cr15,"# generated using pymatgen
 data_Cr3FeNi14
_symmetry_space_group_name_H-M   'P 1'
_cell_length_a   7.46244205
_cell_length_b   7.46244205
_cell_length_c   10.55348676
_cell_angle_alpha   90.00000000
_cell_angle_beta   90.00000000
_cell_angle_gamma   90.00000000
_symmetry_Int_Tables_number   1
_chemical_formula_structural   Cr3FeNi14
_chemical_formula_sum   'Cr9 Fe3 Ni42'
_cell_volume   587.70300718
_cell_formula_units_Z   3
loop_
 _symmetry_equiv_pos_site_id
 _symmetry_equiv_pos_as_xyz
  1  'x, y, z'
loop_
 _atom_site_type_symbol
 _atom_site_label
 _atom_site_symmetry_multiplicity
 _atom_site_fract_x
 _atom_site_fract_y
 _atom_site_fract_z
 _atom_site_occupancy
  Ni  Ni0  1  0.99764490  0.00047740  0.00034504  1
  Ni  Ni1  1  0.16450472  0.16913115  0.16853914  1
  Ni  Ni2  1  0.00049284  0.00372487  0.33271263  1
  Fe  Fe3  1  0.00095606  0.33304560  0.99952087  1
  Ni  Ni4  1  0.16935093  0.49818979  0.16654181  1
  Ni  Ni5  1  0.00149366  0.33075561  0.33397327  1
  Ni  Ni6  1  1.00000946  0.66763305  0.99857633  1
  Cr  Cr7  1  0.16682044  0.83339331  0.16753102  1
  Cr  Cr8  1  0.00202382  0.66658685  0.33443789  1
  Cr  Cr9  1  0.33319087  0.00108530  0.99801029  1
  Cr  Cr10  1  0.50113668  0.16772579  0.16760673  1
  Ni  Ni11  1  0.33330532  0.00065845  0.33567770  1
  Ni  Ni12  1  0.33319292  0.33635792  1.00017363  1
  Ni  Ni13  1  0.49782469  0.50094739  0.16668945  1
  Ni  Ni14  1  0.33270205  0.33421934  0.33356364  1
  Ni  Ni15  1  0.33416676  0.66371695  1.00016225  1
  Ni  Ni16  1  0.50206832  0.83230069  0.16784192  1
  Ni  Ni17  1  0.33440110  0.66604797  0.33402175  1
  Ni  Ni18  1  0.67029080  0.99950474  0.99999195  1
  Ni  Ni19  1  0.83505318  0.16488799  0.16793691  1
  Ni  Ni20  1  0.66712761  0.00202413  0.33291590  1
  Ni  Ni21  1  0.66637414  0.33399252  0.99876115  1
  Cr  Cr22  1  0.83362614  0.49914734  0.16573156  1
  Ni  Ni23  1  0.66673078  0.33185063  0.33554796  1
  Ni  Ni24  1  0.66675034  0.66742837  0.99997938  1
  Ni  Ni25  1  0.83229669  0.83714794  0.16527446  1
  Cr  Cr26  1  0.66406574  0.66686919  0.33273071  1
  Fe  Fe27  1  0.16782762  0.16722340  0.49848023  1
  Cr  Cr28  1  0.00148719  0.00056789  0.66804946  1
  Ni  Ni29  1  0.16643468  0.16742780  0.83436205  1
  Ni  Ni30  1  0.16628428  0.50075689  0.49980228  1
  Ni  Ni31  1  0.99842790  0.33572128  0.66713713  1
  Ni  Ni32  1  0.16586729  0.50121978  0.83458121  1
  Ni  Ni33  1  0.16999512  0.83323590  0.50032669  1
  Ni  Ni34  1  0.00078750  0.66474466  0.66772629  1
  Ni  Ni35  1  0.16678397  0.83227854  0.83295988  1
  Ni  Ni36  1  0.50118063  0.16610312  0.49955169  1
  Ni  Ni37  1  0.33518941  0.99840991  0.66683153  1
  Ni  Ni38  1  0.50191210  0.16667898  0.83335556  1
  Ni  Ni39  1  0.50034716  0.49938418  0.49957424  1
  Cr  Cr40  1  0.33396510  0.33344210  0.66766644  1
  Ni  Ni41  1  0.50108081  0.50056814  0.83466224  1
  Ni  Ni42  1  0.49746825  0.83543839  0.50079958  1
  Ni  Ni43  1  0.33357895  0.66874754  0.66674194  1
  Ni  Ni44  1  0.50091249  0.83367824  0.83228276  1
  Fe  Fe45  1  0.83220339  0.16959383  0.49931354  1
  Ni  Ni46  1  0.66460669  0.00076903  0.66801904  1
  Ni  Ni47  1  0.83257795  0.16759524  0.83419255  1
  Ni  Ni48  1  0.83429424  0.49704090  0.50233352  1
  Ni  Ni49  1  0.66861178  0.33410982  0.66661608  1
  Ni  Ni50  1  0.83397725  0.50022128  0.83265524  1
  Cr  Cr51  1  0.83347133  0.83369908  0.50084592  1
  Ni  Ni52  1  0.66655942  0.66604701  0.66792939  1
  Ni  Ni53  1  0.83323000  0.83311023  0.83507165  1
" 