5416,Ni77Cr23_7,-208.469774941955, 154.853537418882,Ni77Cr23,"# generated using pymatgen
 data_Cr41Ni13
_symmetry_space_group_name_H-M   'P 1'
_cell_length_a   7.57488030
_cell_length_b   7.57488030
_cell_length_c   10.71249845
_cell_angle_alpha   90.00000000
_cell_angle_beta   90.00000000
_cell_angle_gamma   90.00000000
_symmetry_Int_Tables_number   1
_chemical_formula_structural   Cr41Ni13
_chemical_formula_sum   'Cr41 Ni13'
_cell_volume   614.67042907
_cell_formula_units_Z   1
loop_
 _symmetry_equiv_pos_site_id
 _symmetry_equiv_pos_as_xyz
  1  'x, y, z'
loop_
 _atom_site_type_symbol
 _atom_site_label
 _atom_site_symmetry_multiplicity
 _atom_site_fract_x
 _atom_site_fract_y
 _atom_site_fract_z
 _atom_site_occupancy
  Cr  Cr0  1  -0.00594597  0.99171965  -0.00470714  1
  Cr  Cr1  1  0.16207189  0.15893678  0.16072309  1
  Cr  Cr2  1  0.99271462  0.99154395  0.32606022  1
  Cr  Cr3  1  -0.00621265  0.32733376  0.99174412  1
  Cr  Cr4  1  0.16065473  0.49476480  0.16084593  1
  Cr  Cr5  1  -0.00489451  0.32470114  0.32772415  1
  Ni  Ni6  1  0.99247293  0.66248557  -0.00409055  1
  Ni  Ni7  1  0.15883293  0.82491891  0.15802060  1
  Cr  Cr8  1  0.99010899  0.66243562  0.32486383  1
  Cr  Cr9  1  0.32687405  0.99016777  -0.00665829  1
  Cr  Cr10  1  0.49238005  0.15870067  0.16140591  1
  Cr  Cr11  1  0.32663152  0.99166201  0.32672653  1
  Cr  Cr12  1  0.32639539  0.32738779  0.99117206  1
  Cr  Cr13  1  0.49226679  0.49206245  0.16227640  1
  Ni  Ni14  1  0.32669956  0.32373796  0.32940651  1
  Cr  Cr15  1  0.32759829  0.66140541  0.99255193  1
  Ni  Ni16  1  0.49404580  0.82431428  0.16080111  1
  Cr  Cr17  1  0.32875720  0.66241835  0.32490034  1
  Cr  Cr18  1  0.65786737  0.98895477  -0.00500310  1
  Cr  Cr19  1  0.82434040  0.15742864  0.15766370  1
  Cr  Cr20  1  0.65904288  0.98919988  0.32611457  1
  Cr  Cr21  1  0.65843899  0.32840558  0.99072023  1
  Cr  Cr22  1  0.82571243  0.49460755  0.15970262  1
  Cr  Cr23  1  0.65890281  0.32694370  0.32673644  1
  Cr  Cr24  1  0.65789314  0.66057822  -0.00669177  1
  Ni  Ni25  1  0.82559561  0.82307096  0.15988210  1
  Ni  Ni26  1  0.65905195  0.66449813  0.32609707  1
  Ni  Ni27  1  0.16417570  0.15963524  0.49198133  1
  Cr  Cr28  1  -0.00593573  -0.00541770  0.65691216  1
  Ni  Ni29  1  0.16066677  0.15916638  0.82573178  1
  Cr  Cr30  1  0.16139254  0.49343362  0.49120911  1
  Cr  Cr31  1  -0.00507417  0.32456819  0.65899481  1
  Cr  Cr32  1  0.15944913  0.49583954  0.82666463  1
  Cr  Cr33  1  0.16006608  0.82639787  0.49396664  1
  Cr  Cr34  1  0.99140823  0.65988981  0.65756341  1
  Cr  Cr35  1  0.15922146  0.82730353  0.82709918  1
  Ni  Ni36  1  0.48914204  0.15768563  0.49153807  1
  Cr  Cr37  1  0.32754676  0.99260230  0.65912142  1
  Cr  Cr38  1  0.49268434  0.15731043  0.82704249  1
  Cr  Cr39  1  0.49245502  0.49314510  0.49027950  1
  Cr  Cr40  1  0.32603198  0.32567163  0.65965734  1
  Ni  Ni41  1  0.49239690  0.49548173  0.82627796  1
  Ni  Ni42  1  0.49596108  0.82769482  0.49144970  1
  Cr  Cr43  1  0.33021760  0.66072501  0.66144139  1
  Ni  Ni44  1  0.49329932  0.82408531  0.82622872  1
  Cr  Cr45  1  0.82387216  0.15767313  0.49352818  1
  Cr  Cr46  1  0.65704916  0.99020938  0.65742378  1
  Cr  Cr47  1  0.82652988  0.15710885  0.82735978  1
  Cr  Cr48  1  0.82503944  0.49568325  0.49194258  1
  Cr  Cr49  1  0.65766349  0.32725014  0.66154332  1
  Cr  Cr50  1  0.82620238  0.49504278  0.82659970  1
  Ni  Ni51  1  0.82201871  0.82554000  0.49094764  1
  Cr  Cr52  1  0.65698415  0.66099938  0.65849855  1
  Cr  Cr53  1  0.82687821  0.82653011  0.82564799  1
" 