7037,Ni77Fe12Cr9_12,-237.255003373665, 185.80945123345,Ni77Fe12Cr9,"# generated using pymatgen
 data_CrFeNi7
_symmetry_space_group_name_H-M   'P 1'
_cell_length_a   7.44642816
_cell_length_b   7.44642816
_cell_length_c   10.53083970
_cell_angle_alpha   90.00000000
_cell_angle_beta   90.00000000
_cell_angle_gamma   90.00000000
_symmetry_Int_Tables_number   1
_chemical_formula_structural   CrFeNi7
_chemical_formula_sum   'Cr6 Fe6 Ni42'
_cell_volume   583.92760961
_cell_formula_units_Z   6
loop_
 _symmetry_equiv_pos_site_id
 _symmetry_equiv_pos_as_xyz
  1  'x, y, z'
loop_
 _atom_site_type_symbol
 _atom_site_label
 _atom_site_symmetry_multiplicity
 _atom_site_fract_x
 _atom_site_fract_y
 _atom_site_fract_z
 _atom_site_occupancy
  Fe  Fe0  1  0.99906713  1.00081111  0.00146651  1
  Fe  Fe1  1  0.16591067  0.16891055  0.16757497  1
  Ni  Ni2  1  0.99867869  1.00032589  0.33303866  1
  Ni  Ni3  1  0.00223860  0.33481005  1.00085325  1
  Ni  Ni4  1  0.16949226  0.50262509  0.16748044  1
  Ni  Ni5  1  0.99961390  0.33481351  0.33467591  1
  Ni  Ni6  1  0.00235937  0.66810580  0.99998037  1
  Ni  Ni7  1  0.16687676  0.83224519  0.16911811  1
  Ni  Ni8  1  0.00255413  0.66901428  0.33636079  1
  Cr  Cr9  1  0.33558411  1.00086911  1.00125451  1
  Ni  Ni10  1  0.50435876  0.16896160  0.16773082  1
  Cr  Cr11  1  0.33557168  0.99863651  0.33438335  1
  Ni  Ni12  1  0.33424340  0.33667536  1.00128521  1
  Ni  Ni13  1  0.49922256  0.50149663  0.16746223  1
  Cr  Cr14  1  0.33522889  0.33691057  0.33345372  1
  Ni  Ni15  1  0.33437897  0.66650037  0.00229495  1
  Ni  Ni16  1  0.50215770  0.83369651  0.16835228  1
  Ni  Ni17  1  0.33422295  0.66839621  0.33399277  1
  Ni  Ni18  1  0.66927664  1.00110070  0.00166041  1
  Ni  Ni19  1  0.83398793  0.16634601  0.16886524  1
  Ni  Ni20  1  0.67006250  1.00119723  0.33474264  1
  Ni  Ni21  1  0.66766997  0.33387992  1.00059315  1
  Cr  Cr22  1  0.83499493  0.50091502  0.16819565  1
  Ni  Ni23  1  0.66944621  0.33362470  0.33563268  1
  Ni  Ni24  1  0.66741292  0.66917391  1.00045349  1
  Ni  Ni25  1  0.83511663  0.83738068  0.16816627  1
  Ni  Ni26  1  0.66737509  0.66933396  0.33528490  1
  Cr  Cr27  1  0.16693797  0.16842401  0.50321244  1
  Ni  Ni28  1  1.00091631  1.00128519  0.66919529  1
  Fe  Fe29  1  0.16743119  0.16920812  0.83327003  1
  Ni  Ni30  1  0.16651108  0.50311020  0.50079549  1
  Ni  Ni31  1  1.00078550  0.33467418  0.66862389  1
  Ni  Ni32  1  0.16736408  0.50088863  0.83587724  1
  Ni  Ni33  1  0.16669926  0.83206604  0.50099249  1
  Fe  Fe34  1  0.99996541  0.66830896  0.66830426  1
  Ni  Ni35  1  0.16655431  0.83380235  0.83404270  1
  Ni  Ni36  1  0.50508948  0.16791158  0.50323149  1
  Ni  Ni37  1  0.33519855  0.00201709  0.66852563  1
  Ni  Ni38  1  0.50264622  0.16914047  0.83319028  1
  Fe  Fe39  1  0.50295666  0.50174266  0.50130996  1
  Ni  Ni40  1  0.33487962  0.33349226  0.66925743  1
  Ni  Ni41  1  0.50145375  0.49982063  0.83583579  1
  Ni  Ni42  1  0.50295218  0.83520295  0.50105210  1
  Cr  Cr43  1  0.33508016  0.66880751  0.66798681  1
  Ni  Ni44  1  0.50258029  0.83519230  0.83474965  1
  Ni  Ni45  1  0.83243364  0.16809773  0.50060394  1
  Ni  Ni46  1  0.66803841  1.00134276  0.66775056  1
  Ni  Ni47  1  0.83394694  0.16833218  0.83468237  1
  Fe  Fe48  1  0.83467522  0.50142337  0.50142577  1
  Ni  Ni49  1  0.66848879  0.33429750  0.66792838  1
  Ni  Ni50  1  0.83533608  0.50082403  0.83416391  1
  Ni  Ni51  1  0.83450092  0.83508252  0.50103944  1
  Ni  Ni52  1  0.66922302  0.66851478  0.66841525  1
  Ni  Ni53  1  0.83501565  0.83499753  0.83494821  1
" 