8226,Ni77Fe18Cr4_6,-239.364648205375, 195.11513369155,Ni77Fe18Cr4,"# generated using pymatgen
 data_Cr4Fe9Ni41
_symmetry_space_group_name_H-M   'P 1'
_cell_length_a   7.43644705
_cell_length_b   7.43644705
_cell_length_c   10.51672427
_cell_angle_alpha   90.00000000
_cell_angle_beta   90.00000000
_cell_angle_gamma   90.00000000
_symmetry_Int_Tables_number   1
_chemical_formula_structural   Cr4Fe9Ni41
_chemical_formula_sum   'Cr4 Fe9 Ni41'
_cell_volume   581.58268395
_cell_formula_units_Z   1
loop_
 _symmetry_equiv_pos_site_id
 _symmetry_equiv_pos_as_xyz
  1  'x, y, z'
loop_
 _atom_site_type_symbol
 _atom_site_label
 _atom_site_symmetry_multiplicity
 _atom_site_fract_x
 _atom_site_fract_y
 _atom_site_fract_z
 _atom_site_occupancy
  Ni  Ni0  1  1.00145218  1.00091882  0.00432800  1
  Ni  Ni1  1  0.17212723  0.16701088  0.16877427  1
  Fe  Fe2  1  0.00388722  1.00163661  0.33621828  1
  Fe  Fe3  1  0.00223742  0.33413839  1.00188371  1
  Ni  Ni4  1  0.16619147  0.50252222  0.16973318  1
  Cr  Cr5  1  1.00089805  0.33692101  0.33578161  1
  Ni  Ni6  1  1.00114445  0.66864033  0.00292898  1
  Ni  Ni7  1  0.16612822  0.83638451  0.16925034  1
  Ni  Ni8  1  1.00187107  0.67046103  0.33604678  1
  Ni  Ni9  1  0.33582868  1.00190069  1.00190815  1
  Ni  Ni10  1  0.50298780  0.16803680  0.17007606  1
  Ni  Ni11  1  0.33646920  1.00108550  0.33482072  1
  Cr  Cr12  1  0.33763314  0.33519081  0.00243333  1
  Fe  Fe13  1  0.50215871  0.50203105  0.17091747  1
  Ni  Ni14  1  0.33748904  0.33523605  0.33534641  1
  Cr  Cr15  1  0.33301427  0.67094226  1.00079688  1
  Fe  Fe16  1  0.50112231  0.83625869  0.16944105  1
  Ni  Ni17  1  0.33337594  0.66970562  0.33541488  1
  Ni  Ni18  1  0.66901223  0.00464967  0.00367923  1
  Fe  Fe19  1  0.83639610  0.16817131  0.16891357  1
  Fe  Fe20  1  0.66818706  1.00175264  0.33635766  1
  Ni  Ni21  1  0.67144942  0.33417151  0.00229818  1
  Ni  Ni22  1  0.83353449  0.50472458  0.16677822  1
  Ni  Ni23  1  0.66782689  0.33429581  0.33555440  1
  Fe  Fe24  1  0.66871190  0.66975400  1.00129134  1
  Ni  Ni25  1  0.83444840  0.83376447  0.16994046  1
  Fe  Fe26  1  0.66782321  0.66712942  0.33709642  1
  Ni  Ni27  1  0.17094024  0.16829354  0.50235937  1
  Ni  Ni28  1  0.00284833  0.00286882  0.66566560  1
  Ni  Ni29  1  0.16975510  0.16737900  0.83512753  1
  Ni  Ni30  1  0.16944833  0.50235886  0.50280889  1
  Ni  Ni31  1  1.00129428  0.33520600  0.66930081  1
  Ni  Ni32  1  0.16681651  0.50127691  0.83342812  1
  Ni  Ni33  1  0.16885392  0.83568323  0.50225587  1
  Ni  Ni34  1  0.00319563  0.66790181  0.66695326  1
  Ni  Ni35  1  0.16826759  0.83731648  0.83464790  1
  Ni  Ni36  1  0.50141117  0.16871010  0.50207855  1
  Ni  Ni37  1  0.33571014  1.00120013  0.66993182  1
  Ni  Ni38  1  0.50229515  0.16825604  0.83410675  1
  Ni  Ni39  1  0.50203675  0.50117260  0.50118613  1
  Ni  Ni40  1  0.33575435  0.33562654  0.66772738  1
  Ni  Ni41  1  0.50446676  0.50088743  0.83393360  1
  Ni  Ni42  1  0.50204927  0.83581664  0.50221985  1
  Ni  Ni43  1  0.33552346  0.66930366  0.66936613  1
  Ni  Ni44  1  0.50240348  0.83792504  0.83553076  1
  Ni  Ni45  1  0.83403115  0.16797954  0.50272502  1
  Ni  Ni46  1  0.66777227  0.00303099  0.66677228  1
  Fe  Fe47  1  0.83547977  0.16886342  0.83424319  1
  Ni  Ni48  1  0.83443364  0.50306118  0.50369177  1
  Ni  Ni49  1  0.66907278  0.33511918  0.66826926  1
  Ni  Ni50  1  0.83528151  0.50120524  0.83591238  1
  Ni  Ni51  1  0.83535873  0.83477890  0.50153719  1
  Ni  Ni52  1  0.66753489  0.66796759  0.66782926  1
  Cr  Cr53  1  0.83566219  0.83447994  0.83348522  1
" 