3082,Ni77Fe18Cr4_19,-239.153394523339, 196.596019004944,Ni77Fe18Cr4,"# generated using pymatgen
 data_Cr4Fe9Ni41
_symmetry_space_group_name_H-M   'P 1'
_cell_length_a   7.43299921
_cell_length_b   7.43299921
_cell_length_c   10.51184829
_cell_angle_alpha   90.00000000
_cell_angle_beta   90.00000000
_cell_angle_gamma   90.00000000
_symmetry_Int_Tables_number   1
_chemical_formula_structural   Cr4Fe9Ni41
_chemical_formula_sum   'Cr4 Fe9 Ni41'
_cell_volume   580.77412345
_cell_formula_units_Z   1
loop_
 _symmetry_equiv_pos_site_id
 _symmetry_equiv_pos_as_xyz
  1  'x, y, z'
loop_
 _atom_site_type_symbol
 _atom_site_label
 _atom_site_symmetry_multiplicity
 _atom_site_fract_x
 _atom_site_fract_y
 _atom_site_fract_z
 _atom_site_occupancy
  Fe  Fe0  1  1.00162524  1.00221104  1.00196328  1
  Ni  Ni1  1  0.16888712  0.16926713  0.17024068  1
  Ni  Ni2  1  0.00271065  0.00251484  0.33461385  1
  Ni  Ni3  1  0.00459032  0.33356610  0.00243619  1
  Ni  Ni4  1  0.17004772  0.50211584  0.16876761  1
  Fe  Fe5  1  0.00311865  0.33520289  0.33680167  1
  Ni  Ni6  1  0.00432683  0.67030749  1.00150510  1
  Ni  Ni7  1  0.16824150  0.83541952  0.16955455  1
  Ni  Ni8  1  0.00506875  0.67020798  0.33756876  1
  Cr  Cr9  1  0.33546810  1.00226140  1.00133680  1
  Ni  Ni10  1  0.50246009  0.16925932  0.16975007  1
  Ni  Ni11  1  0.33535702  0.00261807  0.33681278  1
  Ni  Ni12  1  0.33489666  0.33656307  0.00270533  1
  Ni  Ni13  1  0.50054447  0.50086310  0.16771070  1
  Fe  Fe14  1  0.33601260  0.33542478  0.33605650  1
  Ni  Ni15  1  0.33529654  0.66742671  0.00252645  1
  Ni  Ni16  1  0.50213593  0.83662322  0.16922441  1
  Ni  Ni17  1  0.33366486  0.66916508  0.33504993  1
  Ni  Ni18  1  0.67031068  0.00242611  0.00270886  1
  Fe  Fe19  1  0.83510495  0.16766778  0.16886287  1
  Ni  Ni20  1  0.66884333  0.00491991  0.33574169  1
  Ni  Ni21  1  0.66716200  0.33306464  1.00153176  1
  Cr  Cr22  1  0.83605889  0.50185336  0.16713530  1
  Ni  Ni23  1  0.66775639  0.33291654  0.33698699  1
  Ni  Ni24  1  0.66720039  0.67122568  0.00247048  1
  Ni  Ni25  1  0.83648012  0.83776635  0.16806799  1
  Cr  Cr26  1  0.66791237  0.66912883  0.33648638  1
  Ni  Ni27  1  0.16855552  0.16783715  0.50218740  1
  Ni  Ni28  1  1.00167607  0.00330210  0.66976305  1
  Ni  Ni29  1  0.16730018  0.16986243  0.83434382  1
  Ni  Ni30  1  0.16865180  0.50262725  0.50227382  1
  Ni  Ni31  1  0.00414517  0.33362928  0.66750814  1
  Ni  Ni32  1  0.17054890  0.50174355  0.83592946  1
  Ni  Ni33  1  0.16991206  0.83621482  0.50230209  1
  Ni  Ni34  1  0.00302053  0.67007366  0.66771765  1
  Ni  Ni35  1  0.16863749  0.83508444  0.83487861  1
  Ni  Ni36  1  0.50250220  0.16799569  0.50319612  1
  Fe  Fe37  1  0.33367980  1.00126047  0.66837474  1
  Fe  Fe38  1  0.50262733  0.16980517  0.83524131  1
  Ni  Ni39  1  0.50185563  0.50193247  0.50268887  1
  Ni  Ni40  1  0.33530806  0.33546214  0.66898056  1
  Ni  Ni41  1  0.50110527  0.50309271  0.83649545  1
  Ni  Ni42  1  0.50049698  0.83682686  0.50250688  1
  Ni  Ni43  1  0.33615657  0.66770568  0.66920380  1
  Ni  Ni44  1  0.50313512  0.83415708  0.83517102  1
  Ni  Ni45  1  0.83590986  0.16941675  0.50126899  1
  Fe  Fe46  1  0.66972678  1.00208199  0.66902853  1
  Ni  Ni47  1  0.83632339  0.16762488  0.83695958  1
  Ni  Ni48  1  0.83652124  0.50062534  0.50364806  1
  Fe  Fe49  1  0.66922205  0.33618330  0.66777108  1
  Cr  Cr50  1  0.83566650  0.50220098  0.83560912  1
  Fe  Fe51  1  0.83695101  0.83717550  0.50277832  1
  Ni  Ni52  1  0.66776776  0.67036343  0.66770799  1
  Ni  Ni53  1  0.83499368  0.83740723  0.83552766  1
" 