3819,Ni77Cr23_15,-208.783811940891, 156.909721801667,Ni77Cr23,"# generated using pymatgen
 data_Cr41Ni13
_symmetry_space_group_name_H-M   'P 1'
_cell_length_a   7.57129246
_cell_length_b   7.57129246
_cell_length_c   10.70742448
_cell_angle_alpha   90.00000000
_cell_angle_beta   90.00000000
_cell_angle_gamma   90.00000000
_symmetry_Int_Tables_number   1
_chemical_formula_structural   Cr41Ni13
_chemical_formula_sum   'Cr41 Ni13'
_cell_volume   613.79742882
_cell_formula_units_Z   1
loop_
 _symmetry_equiv_pos_site_id
 _symmetry_equiv_pos_as_xyz
  1  'x, y, z'
loop_
 _atom_site_type_symbol
 _atom_site_label
 _atom_site_symmetry_multiplicity
 _atom_site_fract_x
 _atom_site_fract_y
 _atom_site_fract_z
 _atom_site_occupancy
  Ni  Ni0  1  0.98687178  -0.00593198  -0.00595442  1
  Cr  Cr1  1  0.15494728  0.15988953  0.15638546  1
  Cr  Cr2  1  0.98769785  0.99253887  0.32543676  1
  Ni  Ni3  1  0.98728771  0.32527759  0.99308305  1
  Cr  Cr4  1  0.15751134  0.49134542  0.16138409  1
  Cr  Cr5  1  0.98921738  0.32391642  0.32742459  1
  Cr  Cr6  1  0.99121104  0.66152197  0.99199902  1
  Cr  Cr7  1  0.15798756  0.82891600  0.15954461  1
  Cr  Cr8  1  0.99013794  0.66292216  0.32709318  1
  Cr  Cr9  1  0.32540919  0.99275725  0.99249158  1
  Cr  Cr10  1  0.49649025  0.16083393  0.15810925  1
  Cr  Cr11  1  0.32979303  -0.00514362  0.32628751  1
  Cr  Cr12  1  0.32825269  0.32706487  0.99185426  1
  Cr  Cr13  1  0.49725472  0.49359410  0.15795759  1
  Cr  Cr14  1  0.32908904  0.32503924  0.32851779  1
  Cr  Cr15  1  0.32802685  0.65948624  0.99297696  1
  Cr  Cr16  1  0.49627131  0.82504407  0.15799852  1
  Cr  Cr17  1  0.32605384  0.65979743  0.32427301  1
  Cr  Cr18  1  0.66175822  0.99204144  -0.00634380  1
  Ni  Ni19  1  0.82633017  0.15777155  0.15664032  1
  Cr  Cr20  1  0.66223626  -0.00615239  0.32700028  1
  Ni  Ni21  1  0.66588283  0.32827126  0.99293667  1
  Cr  Cr22  1  0.82581677  0.49125607  0.15760874  1
  Cr  Cr23  1  0.66057414  0.32210292  0.32698788  1
  Ni  Ni24  1  0.66571214  0.65912158  0.99161174  1
  Ni  Ni25  1  0.82663661  0.82845381  0.15665761  1
  Cr  Cr26  1  0.66276692  0.66301315  0.32491461  1
  Cr  Cr27  1  0.15787799  0.15865197  0.49399409  1
  Cr  Cr28  1  0.98888339  0.99196059  0.66012449  1
  Cr  Cr29  1  0.15597700  0.15952563  0.82956081  1
  Cr  Cr30  1  0.15845381  0.49356408  0.49156671  1
  Cr  Cr31  1  0.99062529  0.32717932  0.65983528  1
  Cr  Cr32  1  0.15485825  0.49102137  0.82660796  1
  Cr  Cr33  1  0.15826997  0.82715224  0.49261799  1
  Cr  Cr34  1  0.98975847  0.66108654  0.66064373  1
  Cr  Cr35  1  0.15659865  0.82949931  0.82735317  1
  Ni  Ni36  1  0.49811807  0.15726364  0.49540087  1
  Cr  Cr37  1  0.33008266  -0.00507904  0.66072996  1
  Cr  Cr38  1  0.49666475  0.15882520  0.82589313  1
  Cr  Cr39  1  0.49532267  0.49478260  0.49288664  1
  Cr  Cr40  1  0.32781133  0.32592227  0.65900182  1
  Cr  Cr41  1  0.49922393  0.49434541  0.82783483  1
  Cr  Cr42  1  0.49527089  0.82639548  0.49542224  1
  Cr  Cr43  1  0.32631233  0.65872932  0.66164274  1
  Cr  Cr44  1  0.49759603  0.82547541  0.82527089  1
  Ni  Ni45  1  0.82230339  0.15569489  0.49438953  1
  Ni  Ni46  1  0.66332944  0.98983820  0.65810699  1
  Cr  Cr47  1  0.82654977  0.16014288  0.82820876  1
  Cr  Cr48  1  0.82489706  0.49454228  0.49445870  1
  Cr  Cr49  1  0.66066830  0.32453091  0.65909957  1
  Ni  Ni50  1  0.82421342  0.49556686  0.82830934  1
  Ni  Ni51  1  0.82299202  0.82923856  0.49568397  1
  Ni  Ni52  1  0.66447279  0.66243958  0.66201436  1
  Ni  Ni53  1  0.82389571  0.82520787  0.82671680  1
" 