5230,Ni77Fe4Cr17_2,-232.083384583475, 162.60564231635,Ni77Fe4Cr17,"# generated using pymatgen
 data_Cr11Fe2Ni41
_symmetry_space_group_name_H-M   'P 1'
_cell_length_a   7.47286580
_cell_length_b   7.47286580
_cell_length_c   10.56822816
_cell_angle_alpha   90.00000000
_cell_angle_beta   90.00000000
_cell_angle_gamma   90.00000000
_symmetry_Int_Tables_number   1
_chemical_formula_structural   Cr11Fe2Ni41
_chemical_formula_sum   'Cr11 Fe2 Ni41'
_cell_volume   590.16920792
_cell_formula_units_Z   1
loop_
 _symmetry_equiv_pos_site_id
 _symmetry_equiv_pos_as_xyz
  1  'x, y, z'
loop_
 _atom_site_type_symbol
 _atom_site_label
 _atom_site_symmetry_multiplicity
 _atom_site_fract_x
 _atom_site_fract_y
 _atom_site_fract_z
 _atom_site_occupancy
  Ni  Ni0  1  0.99898515  0.00128445  0.00045751  1
  Ni  Ni1  1  0.16551588  0.16436385  0.16685304  1
  Fe  Fe2  1  0.00209953  0.99709655  0.33209907  1
  Ni  Ni3  1  0.99857612  0.33057017  0.99857789  1
  Ni  Ni4  1  0.16760679  0.49993325  0.16699341  1
  Cr  Cr5  1  0.00063797  0.33336639  0.33189403  1
  Cr  Cr6  1  0.00128370  0.66630655  0.99921290  1
  Ni  Ni7  1  0.16768298  0.83450609  0.16750800  1
  Ni  Ni8  1  0.99957160  0.66868577  0.33305783  1
  Ni  Ni9  1  0.33348750  0.99804468  -0.00032938  1
  Fe  Fe10  1  0.49924904  0.16430878  0.16597394  1
  Ni  Ni11  1  0.33130910  0.99889203  0.33245214  1
  Cr  Cr12  1  0.33116887  0.33281300  0.99896807  1
  Cr  Cr13  1  0.49904672  0.50123570  0.16755569  1
  Ni  Ni14  1  0.33329282  0.33184850  0.33256061  1
  Ni  Ni15  1  0.33363843  0.66883324  0.99920969  1
  Ni  Ni16  1  0.49851374  0.83326633  0.16531991  1
  Ni  Ni17  1  0.33250491  0.66800899  0.33259597  1
  Ni  Ni18  1  0.66637068  -0.00034921  -0.00026360  1
  Ni  Ni19  1  0.83367193  0.16478148  0.16423440  1
  Cr  Cr20  1  0.66579776  0.99796508  0.33172690  1
  Ni  Ni21  1  0.66823570  0.33066806  0.99844933  1
  Cr  Cr22  1  0.83215125  0.49927204  0.16621344  1
  Ni  Ni23  1  0.66498833  0.33423186  0.33301555  1
  Ni  Ni24  1  0.66506052  0.66848234  0.99793689  1
  Ni  Ni25  1  0.83271133  0.83531926  0.16671690  1
  Ni  Ni26  1  0.66674630  0.66668054  0.33542647  1
  Ni  Ni27  1  0.16717071  0.16366400  0.50064870  1
  Ni  Ni28  1  0.00228420  0.99873144  0.66602157  1
  Ni  Ni29  1  0.16519229  0.16554453  0.83130903  1
  Cr  Cr30  1  0.16751874  0.50005743  0.50031115  1
  Ni  Ni31  1  0.00162772  0.33315653  0.66831186  1
  Ni  Ni32  1  0.16652497  0.49922657  0.83180937  1
  Ni  Ni33  1  0.16643424  0.83481765  0.49914111  1
  Ni  Ni34  1  0.99886635  0.66690432  0.66654404  1
  Ni  Ni35  1  0.16746740  0.83408451  0.83216430  1
  Cr  Cr36  1  0.49552909  0.16749305  0.49852726  1
  Ni  Ni37  1  0.33027741  0.99898377  0.66671918  1
  Ni  Ni38  1  0.49888085  0.16568775  0.83443349  1
  Ni  Ni39  1  0.50084107  0.50221477  0.49844683  1
  Ni  Ni40  1  0.33072169  0.33268006  0.66712944  1
  Ni  Ni41  1  0.49983594  0.50131534  0.83250601  1
  Ni  Ni42  1  0.49805240  0.82925907  0.49961900  1
  Ni  Ni43  1  0.33326262  0.66714116  0.66703512  1
  Ni  Ni44  1  0.49874471  0.83181086  0.83391859  1
  Cr  Cr45  1  0.83638314  0.16638144  0.50001167  1
  Cr  Cr46  1  0.66574295  0.99631936  0.66799948  1
  Ni  Ni47  1  0.83475879  0.16661210  0.83515199  1
  Ni  Ni48  1  0.83064955  0.50286318  0.49933543  1
  Cr  Cr49  1  0.66615001  0.33553000  0.66716734  1
  Ni  Ni50  1  0.83247085  0.49903659  0.83275010  1
  Ni  Ni51  1  0.83437319  0.82943816  0.49922527  1
  Ni  Ni52  1  0.66668670  0.66643698  0.66540168  1
  Ni  Ni53  1  0.83262627  0.83317206  0.83292285  1
" 