3283,Ni77Fe4Cr17_8,-232.174299812995, 162.751077305094,Ni77Fe4Cr17,"# generated using pymatgen
 data_Cr11Fe2Ni41
_symmetry_space_group_name_H-M   'P 1'
_cell_length_a   7.46962529
_cell_length_b   7.46962529
_cell_length_c   10.56364539
_cell_angle_alpha   90.00000000
_cell_angle_beta   90.00000000
_cell_angle_gamma   90.00000000
_symmetry_Int_Tables_number   1
_chemical_formula_structural   Cr11Fe2Ni41
_chemical_formula_sum   'Cr11 Fe2 Ni41'
_cell_volume   589.40178413
_cell_formula_units_Z   1
loop_
 _symmetry_equiv_pos_site_id
 _symmetry_equiv_pos_as_xyz
  1  'x, y, z'
loop_
 _atom_site_type_symbol
 _atom_site_label
 _atom_site_symmetry_multiplicity
 _atom_site_fract_x
 _atom_site_fract_y
 _atom_site_fract_z
 _atom_site_occupancy
  Ni  Ni0  1  0.00038616  0.99830382  0.00062750  1
  Ni  Ni1  1  0.16651465  0.16651822  0.16565253  1
  Ni  Ni2  1  0.99969823  0.00004588  0.33362371  1
  Ni  Ni3  1  0.00087465  0.33354564  0.00158147  1
  Ni  Ni4  1  0.16505610  0.49907520  0.16686527  1
  Ni  Ni5  1  0.00050403  0.33225623  0.33273854  1
  Ni  Ni6  1  0.99947459  0.66763432  0.99959704  1
  Ni  Ni7  1  0.16656681  0.83388929  0.16635940  1
  Ni  Ni8  1  0.00096893  0.66718069  0.33210733  1
  Ni  Ni9  1  0.33155471  0.00103948  0.00140408  1
  Ni  Ni10  1  0.49944317  0.16505696  0.16611485  1
  Ni  Ni11  1  0.33221453  0.99873481  0.33243272  1
  Ni  Ni12  1  0.33230672  0.33204703  0.00166022  1
  Ni  Ni13  1  0.49944350  0.49907535  0.16867117  1
  Ni  Ni14  1  0.33263978  0.33479821  0.33223588  1
  Cr  Cr15  1  0.33168284  0.66610131  0.00069318  1
  Ni  Ni16  1  0.49939586  0.83534917  0.16796103  1
  Ni  Ni17  1  0.33348588  0.66594959  0.33358466  1
  Ni  Ni18  1  0.66754242  0.99963758  0.00173442  1
  Ni  Ni19  1  0.83352407  0.16656707  0.16711138  1
  Ni  Ni20  1  0.66757112  0.99919835  0.33240969  1
  Cr  Cr21  1  0.66600946  0.33337114  0.00102723  1
  Ni  Ni22  1  0.83498299  0.49902657  0.16718763  1
  Ni  Ni23  1  0.66633894  0.33352832  0.33136987  1
  Cr  Cr24  1  0.66844927  0.66642298  0.99943346  1
  Fe  Fe25  1  0.83396483  0.83400995  0.16724726  1
  Ni  Ni26  1  0.66502774  0.66675566  0.33279630  1
  Ni  Ni27  1  0.16501404  0.16620538  0.50040093  1
  Ni  Ni28  1  0.99962342  0.99778423  0.66523267  1
  Cr  Cr29  1  0.16739478  0.16483481  0.83366552  1
  Ni  Ni30  1  0.16726200  0.49914553  0.49894290  1
  Fe  Fe31  1  0.99943287  0.33271237  0.66471048  1
  Cr  Cr32  1  0.16441834  0.49994827  0.83389634  1
  Ni  Ni33  1  0.16591951  0.83413187  0.49984194  1
  Ni  Ni34  1  0.99793579  0.66903886  0.66777956  1
  Ni  Ni35  1  0.16299324  0.83433271  0.83327955  1
  Cr  Cr36  1  0.49996568  0.16575051  0.50022450  1
  Ni  Ni37  1  0.33087227  0.00042483  0.66564742  1
  Cr  Cr38  1  0.49869501  0.16648184  0.83305475  1
  Ni  Ni39  1  0.49884524  0.50090403  0.49960287  1
  Ni  Ni40  1  0.33438264  0.33334269  0.66558762  1
  Ni  Ni41  1  0.50212093  0.49840066  0.83120664  1
  Ni  Ni42  1  0.50045828  0.83264346  0.49929284  1
  Cr  Cr43  1  0.33316140  0.66617246  0.66485663  1
  Cr  Cr44  1  0.50049484  0.83480892  0.83227742  1
  Ni  Ni45  1  0.83486550  0.16459241  0.50021277  1
  Ni  Ni46  1  0.66898587  0.99892071  0.66534089  1
  Cr  Cr47  1  0.83339187  0.16590416  0.83204340  1
  Cr  Cr48  1  0.83337180  0.49994754  0.50000739  1
  Ni  Ni49  1  0.66566375  0.33502945  0.66738655  1
  Ni  Ni50  1  0.83300747  0.50230920  0.83163119  1
  Ni  Ni51  1  0.83310447  0.83489083  0.50026961  1
  Ni  Ni52  1  0.66830309  0.66553152  0.66732908  1
  Ni  Ni53  1  0.83537657  0.83137458  0.83273335  1
" 