8559,Ni77Fe2Cr20_15,-231.10034133254, 157.482333447299,Ni77Fe2Cr20,"# generated using pymatgen
 data_Cr12FeNi41
_symmetry_space_group_name_H-M   'P 1'
_cell_length_a   7.47660143
_cell_length_b   7.47660143
_cell_length_c   10.57351114
_cell_angle_alpha   90.00000000
_cell_angle_beta   90.00000000
_cell_angle_gamma   90.00000000
_symmetry_Int_Tables_number   1
_chemical_formula_structural   Cr12FeNi41
_chemical_formula_sum   'Cr12 Fe1 Ni41'
_cell_volume   591.05471547
_cell_formula_units_Z   1
loop_
 _symmetry_equiv_pos_site_id
 _symmetry_equiv_pos_as_xyz
  1  'x, y, z'
loop_
 _atom_site_type_symbol
 _atom_site_label
 _atom_site_symmetry_multiplicity
 _atom_site_fract_x
 _atom_site_fract_y
 _atom_site_fract_z
 _atom_site_occupancy
  Ni  Ni0  1  0.99653717  0.99841011  0.99869419  1
  Ni  Ni1  1  0.16656050  0.16721833  0.16774745  1
  Ni  Ni2  1  -0.00006315  0.99747292  0.33440069  1
  Ni  Ni3  1  0.99743277  0.33486913  -0.00045137  1
  Ni  Ni4  1  0.16615168  0.49929747  0.16566598  1
  Cr  Cr5  1  0.00063955  0.33269994  0.33202013  1
  Ni  Ni6  1  0.99824457  0.66483771  0.99831027  1
  Cr  Cr7  1  0.16372990  0.83216783  0.16688323  1
  Ni  Ni8  1  0.99781868  0.66787827  0.33258583  1
  Cr  Cr9  1  0.33407534  0.99820520  0.99793854  1
  Ni  Ni10  1  0.49868408  0.16722711  0.16697419  1
  Ni  Ni11  1  0.33256703  0.00106689  0.33463342  1
  Cr  Cr12  1  0.33252201  0.33388994  0.00175346  1
  Ni  Ni13  1  0.49922919  0.49938790  0.16663257  1
  Ni  Ni14  1  0.33342122  0.33159009  0.33163185  1
  Ni  Ni15  1  0.33161321  0.66501157  0.99843211  1
  Cr  Cr16  1  0.50195938  0.83167002  0.16644266  1
  Ni  Ni17  1  0.33353101  0.66541603  0.33297397  1
  Ni  Ni18  1  0.66787684  0.99932465  0.99756153  1
  Cr  Cr19  1  0.83283748  0.16369162  0.16330577  1
  Ni  Ni20  1  0.66556246  0.99737581  0.33394293  1
  Ni  Ni21  1  0.66809817  0.33272945  0.99912326  1
  Ni  Ni22  1  0.83268233  0.50245498  0.16398186  1
  Cr  Cr23  1  0.66400795  0.33372460  0.33335137  1
  Ni  Ni24  1  0.66821192  0.66603800  -0.00021333  1
  Ni  Ni25  1  0.83275148  0.83098297  0.16675385  1
  Ni  Ni26  1  0.66670676  0.66700876  0.33344508  1
  Ni  Ni27  1  0.16736460  0.16192489  0.49872797  1
  Ni  Ni28  1  0.99878829  0.99711437  0.66503183  1
  Cr  Cr29  1  0.16465921  0.16530373  0.83135145  1
  Cr  Cr30  1  0.16690815  0.50042707  0.49900867  1
  Cr  Cr31  1  0.99743908  0.33322252  0.66623922  1
  Ni  Ni32  1  0.16328287  0.50245911  0.83404782  1
  Ni  Ni33  1  0.16565598  0.83552408  0.49870834  1
  Ni  Ni34  1  0.99689526  0.66832120  0.66726735  1
  Ni  Ni35  1  0.16415895  0.83092306  0.83257749  1
  Ni  Ni36  1  0.49894436  0.16484828  0.50040704  1
  Ni  Ni37  1  0.33374073  0.00031705  0.66516024  1
  Ni  Ni38  1  0.50320963  0.16401777  0.83069337  1
  Ni  Ni39  1  0.50163806  0.49965496  0.49893008  1
  Ni  Ni40  1  0.33541802  0.32977315  0.66464611  1
  Cr  Cr41  1  0.50102342  0.49937289  0.83204604  1
  Ni  Ni42  1  0.49964119  0.83354897  0.49846365  1
  Cr  Cr43  1  0.33248447  0.66826572  0.66746671  1
  Ni  Ni44  1  0.50103654  0.83427802  0.83298155  1
  Ni  Ni45  1  0.83180434  0.16382235  0.50061822  1
  Ni  Ni46  1  0.66551797  -0.00016655  0.66662210  1
  Ni  Ni47  1  0.83016280  0.16499872  0.83387506  1
  Ni  Ni48  1  0.82981867  0.50143392  0.50046191  1
  Ni  Ni49  1  0.66528794  0.33163454  0.66536091  1
  Ni  Ni50  1  0.83358228  0.50023926  0.83362440  1
  Fe  Fe51  1  0.83230549  0.83309522  0.49925354  1
  Ni  Ni52  1  0.66846190  0.66662707  0.66483178  1
  Ni  Ni53  1  0.83287887  0.83286996  0.83257426  1
" 