5054,Ni77Fe2Cr20_16,-231.100230411337, 157.304098932205,Ni77Fe2Cr20,"# generated using pymatgen
 data_Cr12FeNi41
_symmetry_space_group_name_H-M   'P 1'
_cell_length_a   7.47462084
_cell_length_b   7.47462084
_cell_length_c   10.57071016
_cell_angle_alpha   90.00000000
_cell_angle_beta   90.00000000
_cell_angle_gamma   90.00000000
_symmetry_Int_Tables_number   1
_chemical_formula_structural   Cr12FeNi41
_chemical_formula_sum   'Cr12 Fe1 Ni41'
_cell_volume   590.58511912
_cell_formula_units_Z   1
loop_
 _symmetry_equiv_pos_site_id
 _symmetry_equiv_pos_as_xyz
  1  'x, y, z'
loop_
 _atom_site_type_symbol
 _atom_site_label
 _atom_site_symmetry_multiplicity
 _atom_site_fract_x
 _atom_site_fract_y
 _atom_site_fract_z
 _atom_site_occupancy
  Ni  Ni0  1  0.00009931  0.99926788  0.00077358  1
  Ni  Ni1  1  0.16494142  0.16499902  0.16465564  1
  Ni  Ni2  1  0.99800960  0.00028349  0.33255267  1
  Ni  Ni3  1  0.99900952  0.33042570  0.99914958  1
  Cr  Cr4  1  0.16552197  0.49920087  0.16909337  1
  Ni  Ni5  1  0.00036735  0.32873878  0.33427345  1
  Ni  Ni6  1  0.99838434  0.66920346  0.99800322  1
  Ni  Ni7  1  0.16521969  0.83443544  0.16585045  1
  Ni  Ni8  1  0.00049200  0.66978716  0.33419493  1
  Ni  Ni9  1  0.33053113  0.00142621  0.00072921  1
  Ni  Ni10  1  0.50087780  0.16570523  0.16490209  1
  Cr  Cr11  1  0.33207794  0.00089252  0.33384333  1
  Ni  Ni12  1  0.33401927  0.32986344  0.00090962  1
  Ni  Ni13  1  0.50015263  0.49781980  0.16825989  1
  Ni  Ni14  1  0.33412690  0.33315901  0.33351685  1
  Cr  Cr15  1  0.33354415  0.66626944  0.00100111  1
  Ni  Ni16  1  0.49939911  0.83485834  0.16745944  1
  Ni  Ni17  1  0.33423265  0.66580161  0.33368311  1
  Ni  Ni18  1  0.66782676  0.00015495  0.00273506  1
  Ni  Ni19  1  0.83269979  0.16511250  0.16667129  1
  Ni  Ni20  1  0.66788997  0.00015407  0.33297886  1
  Ni  Ni21  1  0.66563346  0.33213374  0.00033386  1
  Cr  Cr22  1  0.83410524  0.49759624  0.16773310  1
  Ni  Ni23  1  0.66416972  0.33087484  0.33249474  1
  Cr  Cr24  1  0.66717799  0.66484737  0.99885796  1
  Fe  Fe25  1  0.83339230  0.83480117  0.16742306  1
  Ni  Ni26  1  0.66385405  0.66762405  0.33294847  1
  Ni  Ni27  1  0.16627464  0.16812702  0.49962468  1
  Cr  Cr28  1  0.00032982  0.99937239  0.66415376  1
  Ni  Ni29  1  0.16676520  0.16489605  0.83409655  1
  Ni  Ni30  1  0.16639908  0.49898249  0.49776043  1
  Ni  Ni31  1  0.00036800  0.33300469  0.66516659  1
  Cr  Cr32  1  0.16390451  0.49702635  0.83306885  1
  Ni  Ni33  1  0.16550653  0.83168444  0.49870322  1
  Ni  Ni34  1  0.99738235  0.66682174  0.66676969  1
  Ni  Ni35  1  0.16365522  0.83557715  0.83400721  1
  Ni  Ni36  1  0.50084224  0.16624689  0.50073300  1
  Ni  Ni37  1  0.33156364  0.00175648  0.66447928  1
  Cr  Cr38  1  0.49763288  0.16568217  0.83254447  1
  Ni  Ni39  1  0.49926353  0.49879628  0.49806338  1
  Ni  Ni40  1  0.33293694  0.33116550  0.66423019  1
  Ni  Ni41  1  0.50221304  0.49655437  0.83210978  1
  Ni  Ni42  1  0.50125729  0.83343066  0.49972124  1
  Cr  Cr43  1  0.33277771  0.66575279  0.66396657  1
  Cr  Cr44  1  0.49998702  0.83732364  0.83063802  1
  Ni  Ni45  1  0.83137126  0.16566668  0.49795801  1
  Ni  Ni46  1  0.66665843  0.99855263  0.66244936  1
  Cr  Cr47  1  0.83206229  0.16671724  0.83301660  1
  Cr  Cr48  1  0.83398182  0.49929665  0.49930360  1
  Ni  Ni49  1  0.66530584  0.33412648  0.66541781  1
  Ni  Ni50  1  0.83271667  0.49993135  0.83183025  1
  Ni  Ni51  1  0.83154485  0.83321810  0.49788144  1
  Ni  Ni52  1  0.66801843  0.66570227  0.66646268  1
  Ni  Ni53  1  0.83416851  0.83179501  0.83345921  1
" 