842,Ni77Fe18Cr4_18,-238.818777461105, 195.102059060851,Ni77Fe18Cr4,"# generated using pymatgen
 data_Cr4Fe9Ni41
_symmetry_space_group_name_H-M   'P 1'
_cell_length_a   7.43350502
_cell_length_b   7.43350502
_cell_length_c   10.51256362
_cell_angle_alpha   90.00000000
_cell_angle_beta   90.00000000
_cell_angle_gamma   90.00000000
_symmetry_Int_Tables_number   1
_chemical_formula_structural   Cr4Fe9Ni41
_chemical_formula_sum   'Cr4 Fe9 Ni41'
_cell_volume   580.89269525
_cell_formula_units_Z   1
loop_
 _symmetry_equiv_pos_site_id
 _symmetry_equiv_pos_as_xyz
  1  'x, y, z'
loop_
 _atom_site_type_symbol
 _atom_site_label
 _atom_site_symmetry_multiplicity
 _atom_site_fract_x
 _atom_site_fract_y
 _atom_site_fract_z
 _atom_site_occupancy
  Ni  Ni0  1  1.00221416  1.00178750  1.00139726  1
  Ni  Ni1  1  0.16869105  0.16896707  0.16936773  1
  Ni  Ni2  1  0.00258103  0.00435085  0.33646806  1
  Fe  Fe3  1  0.00288108  0.33549710  0.00335994  1
  Ni  Ni4  1  0.16854584  0.50196205  0.16761376  1
  Ni  Ni5  1  0.00233902  0.33345706  0.33479720  1
  Ni  Ni6  1  0.00299043  0.67093640  1.00223780  1
  Ni  Ni7  1  0.17086325  0.83584177  0.16766743  1
  Cr  Cr8  1  0.00229069  0.66905079  0.33605567  1
  Fe  Fe9  1  0.33493520  0.00291321  0.00360927  1
  Ni  Ni10  1  0.50227811  0.16784719  0.16842258  1
  Ni  Ni11  1  0.33561874  0.00278991  0.33515079  1
  Ni  Ni12  1  0.33677868  0.33564105  1.00125707  1
  Fe  Fe13  1  0.50182810  0.50188467  0.16865095  1
  Ni  Ni14  1  0.33583262  0.33498626  0.33615092  1
  Ni  Ni15  1  0.33486450  0.66741858  0.00265582  1
  Ni  Ni16  1  0.50154206  0.83551153  0.16922960  1
  Ni  Ni17  1  0.33734119  0.66898819  0.33574487  1
  Fe  Fe18  1  0.66953046  0.00291040  0.00270142  1
  Ni  Ni19  1  0.83579935  0.17016952  0.16865466  1
  Ni  Ni20  1  0.66857200  0.00283965  0.33554795  1
  Ni  Ni21  1  0.66699637  0.33486589  0.00232699  1
  Ni  Ni22  1  0.83547962  0.50122879  0.16817001  1
  Ni  Ni23  1  0.66859408  0.33517727  0.33600277  1
  Ni  Ni24  1  0.66891184  0.66819722  0.00377196  1
  Fe  Fe25  1  0.83543338  0.83665840  0.16800032  1
  Ni  Ni26  1  0.66703381  0.66875073  0.33557697  1
  Ni  Ni27  1  0.16781619  0.16958046  0.50068044  1
  Ni  Ni28  1  1.00024977  0.00262480  0.66890791  1
  Ni  Ni29  1  0.16806021  0.16961903  0.83671904  1
  Ni  Ni30  1  0.16939537  0.50180181  0.50362980  1
  Ni  Ni31  1  0.00279778  0.33465548  0.66862014  1
  Fe  Fe32  1  0.17053545  0.50193484  0.83557322  1
  Ni  Ni33  1  0.16934070  0.83538487  0.50270120  1
  Ni  Ni34  1  0.00274702  0.66948783  0.66872833  1
  Fe  Fe35  1  0.16634718  0.83527676  0.83632024  1
  Ni  Ni36  1  0.50287078  0.16907278  0.50185251  1
  Cr  Cr37  1  0.33517808  0.00313140  0.66806665  1
  Ni  Ni38  1  0.50231807  0.17092193  0.83648993  1
  Ni  Ni39  1  0.50230088  0.50332578  0.50212285  1
  Fe  Fe40  1  0.33533181  0.33708405  0.66899281  1
  Ni  Ni41  1  0.50077955  0.50144680  0.83599825  1
  Ni  Ni42  1  0.50286586  0.83437477  0.50132869  1
  Ni  Ni43  1  0.33514595  0.66639444  0.66836798  1
  Cr  Cr44  1  0.50330741  0.83435030  0.83606448  1
  Ni  Ni45  1  0.83608341  0.16901600  0.50267230  1
  Ni  Ni46  1  0.67147686  0.00306505  0.66889203  1
  Ni  Ni47  1  0.83638969  0.16734386  0.83544174  1
  Ni  Ni48  1  0.83507290  0.50180341  0.50308997  1
  Fe  Fe49  1  0.66875580  0.33499455  0.66829459  1
  Cr  Cr50  1  0.83555432  0.50290047  0.83516234  1
  Ni  Ni51  1  0.83455846  0.83594908  0.50326939  1
  Ni  Ni52  1  0.66887370  0.66894631  0.66741865  1
  Ni  Ni53  1  0.83691364  0.83671758  0.83583820  1
" 