3048,Ni77Fe18Cr4_8,-238.974239122755, 196.497576756278,Ni77Fe18Cr4,"# generated using pymatgen
 data_Cr4Fe9Ni41
_symmetry_space_group_name_H-M   'P 1'
_cell_length_a   7.43125108
_cell_length_b   7.43125108
_cell_length_c   10.50937606
_cell_angle_alpha   90.00000000
_cell_angle_beta   90.00000000
_cell_angle_gamma   90.00000000
_symmetry_Int_Tables_number   1
_chemical_formula_structural   Cr4Fe9Ni41
_chemical_formula_sum   'Cr4 Fe9 Ni41'
_cell_volume   580.36445173
_cell_formula_units_Z   1
loop_
 _symmetry_equiv_pos_site_id
 _symmetry_equiv_pos_as_xyz
  1  'x, y, z'
loop_
 _atom_site_type_symbol
 _atom_site_label
 _atom_site_symmetry_multiplicity
 _atom_site_fract_x
 _atom_site_fract_y
 _atom_site_fract_z
 _atom_site_occupancy
  Ni  Ni0  1  0.00328360  0.00281207  1.00151176  1
  Ni  Ni1  1  0.17080290  0.16964842  0.16906148  1
  Ni  Ni2  1  0.00369636  1.00204895  0.33711451  1
  Ni  Ni3  1  0.00377169  0.33574772  1.00196303  1
  Ni  Ni4  1  0.16825297  0.50182039  0.16757002  1
  Fe  Fe5  1  0.00283139  0.33621668  0.33651981  1
  Fe  Fe6  1  1.00236662  0.66840036  0.00246422  1
  Ni  Ni7  1  0.16827108  0.83575976  0.16814185  1
  Ni  Ni8  1  1.00143797  0.66914989  0.33544854  1
  Fe  Fe9  1  0.33631458  0.00294785  0.00243404  1
  Ni  Ni10  1  0.50126473  0.16888198  0.16884611  1
  Ni  Ni11  1  0.33503547  0.00390310  0.33489522  1
  Ni  Ni12  1  0.33426389  0.33589396  0.00330066  1
  Fe  Fe13  1  0.50271740  0.50203885  0.16819588  1
  Fe  Fe14  1  0.33590810  0.33372715  0.33542856  1
  Ni  Ni15  1  0.33521008  0.66918138  0.00315433  1
  Ni  Ni16  1  0.50379347  0.83653663  0.16796236  1
  Cr  Cr17  1  0.33568276  0.67004453  0.33622295  1
  Ni  Ni18  1  0.66868915  1.00185459  1.00167226  1
  Cr  Cr19  1  0.83524050  0.16854662  0.16923030  1
  Ni  Ni20  1  0.66849444  0.00260439  0.33670894  1
  Ni  Ni21  1  0.66919206  0.33569733  1.00212611  1
  Fe  Fe22  1  0.83566986  0.50414244  0.16901678  1
  Ni  Ni23  1  0.66869088  0.33623959  0.33646494  1
  Ni  Ni24  1  0.66853414  0.66967283  0.00382013  1
  Ni  Ni25  1  0.83516320  0.83398845  0.16899675  1
  Ni  Ni26  1  0.67054640  0.66838009  0.33575053  1
  Ni  Ni27  1  0.16966992  0.16828466  0.50099765  1
  Ni  Ni28  1  0.00321064  1.00133603  0.66860179  1
  Ni  Ni29  1  0.16957126  0.16819071  0.83716566  1
  Ni  Ni30  1  0.16876167  0.50261948  0.50321548  1
  Cr  Cr31  1  1.00191386  0.33555524  0.66891605  1
  Ni  Ni32  1  0.16729333  0.50315010  0.83644453  1
  Ni  Ni33  1  0.16782871  0.83631642  0.50322653  1
  Ni  Ni34  1  0.00361117  0.67003310  0.66940841  1
  Ni  Ni35  1  0.16882209  0.83588274  0.83585605  1
  Ni  Ni36  1  0.50295007  0.16930052  0.50245440  1
  Ni  Ni37  1  0.33567014  1.00140033  0.66944648  1
  Ni  Ni38  1  0.50284711  0.16742052  0.83592390  1
  Ni  Ni39  1  0.50379135  0.50153224  0.50338379  1
  Fe  Fe40  1  0.33654364  0.33481492  0.66863380  1
  Cr  Cr41  1  0.50294181  0.50232934  0.83517294  1
  Ni  Ni42  1  0.50370665  0.83638631  0.50338977  1
  Ni  Ni43  1  0.33490344  0.67033028  0.66810864  1
  Ni  Ni44  1  0.50260461  0.83763442  0.83587128  1
  Ni  Ni45  1  0.83460847  0.16837317  0.50206617  1
  Ni  Ni46  1  0.66834753  0.00288037  0.66884573  1
  Fe  Fe47  1  0.83519884  0.16844285  0.83644337  1
  Ni  Ni48  1  0.83467937  0.50337495  0.50099907  1
  Ni  Ni49  1  0.66864183  0.33508222  0.66863490  1
  Ni  Ni50  1  0.83657141  0.50291488  0.83711996  1
  Ni  Ni51  1  0.83569155  0.83547732  0.50245495  1
  Ni  Ni52  1  0.66871194  0.66926280  0.66765030  1
  Fe  Fe53  1  0.83584157  0.83584776  0.83560600  1
" 