7871,Ni77Cr23_8,-208.495028978879, 150.658771429445,Ni77Cr23,"# generated using pymatgen
 data_Cr41Ni13
_symmetry_space_group_name_H-M   'P 1'
_cell_length_a   7.57621337
_cell_length_b   7.57621337
_cell_length_c   10.71438370
_cell_angle_alpha   90.00000000
_cell_angle_beta   90.00000000
_cell_angle_gamma   90.00000000
_symmetry_Int_Tables_number   1
_chemical_formula_structural   Cr41Ni13
_chemical_formula_sum   'Cr41 Ni13'
_cell_volume   614.99500673
_cell_formula_units_Z   1
loop_
 _symmetry_equiv_pos_site_id
 _symmetry_equiv_pos_as_xyz
  1  'x, y, z'
loop_
 _atom_site_type_symbol
 _atom_site_label
 _atom_site_symmetry_multiplicity
 _atom_site_fract_x
 _atom_site_fract_y
 _atom_site_fract_z
 _atom_site_occupancy
  Cr  Cr0  1  -0.00549962  -0.00589565  0.99239851  1
  Cr  Cr1  1  0.16125574  0.15765383  0.15708512  1
  Ni  Ni2  1  -0.00702789  0.98894739  0.32858442  1
  Cr  Cr3  1  -0.00640231  0.32658884  0.99245165  1
  Cr  Cr4  1  0.15959373  0.49530545  0.16088201  1
  Cr  Cr5  1  0.99215539  0.32607778  0.32509393  1
  Cr  Cr6  1  0.99111415  0.65781809  -0.00546830  1
  Cr  Cr7  1  0.15947407  0.82568633  0.16144020  1
  Ni  Ni8  1  -0.00706129  0.66181968  0.32728185  1
  Ni  Ni9  1  0.32653102  -0.00490177  0.99017951  1
  Cr  Cr10  1  0.49318121  0.16057081  0.15873857  1
  Cr  Cr11  1  0.32456878  0.99202970  0.32662406  1
  Ni  Ni12  1  0.32845194  0.32450039  0.99037036  1
  Cr  Cr13  1  0.49294812  0.49108957  0.16016407  1
  Cr  Cr14  1  0.32629181  0.32681892  0.32664461  1
  Cr  Cr15  1  0.32810994  0.65944436  0.99175203  1
  Cr  Cr16  1  0.48986391  0.82672904  0.15821893  1
  Ni  Ni17  1  0.32299661  0.66087320  0.32766884  1
  Cr  Cr18  1  0.65746282  0.99118733  0.99219692  1
  Cr  Cr19  1  0.82401751  0.16041415  0.16014289  1
  Cr  Cr20  1  0.66097278  0.99244740  0.32715349  1
  Ni  Ni21  1  0.65729871  0.32827164  -0.00665072  1
  Ni  Ni22  1  0.82474830  0.49170658  0.16060132  1
  Ni  Ni23  1  0.66118360  0.32793809  0.32482601  1
  Cr  Cr24  1  0.65906182  0.65824677  0.99144203  1
  Cr  Cr25  1  0.82883395  0.82511418  0.16079634  1
  Cr  Cr26  1  0.66004355  0.65916734  0.32515058  1
  Cr  Cr27  1  0.15895197  0.15784018  0.49318452  1
  Cr  Cr28  1  -0.00614317  -0.00707657  0.65829555  1
  Ni  Ni29  1  0.16258104  0.15918093  0.82844934  1
  Cr  Cr30  1  0.15950867  0.49688077  0.49166749  1
  Cr  Cr31  1  -0.00492882  0.32493663  0.66127399  1
  Cr  Cr32  1  0.16117878  0.49205111  0.82624401  1
  Ni  Ni33  1  0.15634963  0.82530889  0.48965987  1
  Cr  Cr34  1  0.99253725  0.66058552  0.65783259  1
  Cr  Cr35  1  0.16020392  0.82710681  0.82740196  1
  Cr  Cr36  1  0.49446521  0.16087643  0.49088272  1
  Cr  Cr37  1  0.32556559  0.99272970  0.66026302  1
  Cr  Cr38  1  0.49282501  0.15979879  0.82744456  1
  Cr  Cr39  1  0.49256311  0.49244581  0.49163066  1
  Cr  Cr40  1  0.32535346  0.32585685  0.66067404  1
  Ni  Ni41  1  0.49245756  0.49224728  0.82810479  1
  Cr  Cr42  1  0.49129862  0.82514139  0.49235625  1
  Cr  Cr43  1  0.32755890  0.65989290  0.65971008  1
  Ni  Ni44  1  0.49085777  0.82544331  0.82721113  1
  Cr  Cr45  1  0.82515422  0.15858506  0.49207391  1
  Cr  Cr46  1  0.65896846  0.98986141  0.65834748  1
  Cr  Cr47  1  0.82597554  0.15972015  0.82598143  1
  Cr  Cr48  1  0.82644940  0.49375468  0.49222454  1
  Cr  Cr49  1  0.65818140  0.32753721  0.65909212  1
  Cr  Cr50  1  0.82466484  0.49187374  0.82667469  1
  Ni  Ni51  1  0.83014582  0.82558441  0.49091100  1
  Cr  Cr52  1  0.65807293  0.66061329  0.66202447  1
  Cr  Cr53  1  0.82599120  0.82653050  0.82557121  1
" 