3890,Ni77Fe2Cr20_7,-231.117212362236, 157.711312490609,Ni77Fe2Cr20,"# generated using pymatgen
 data_Cr12FeNi41
_symmetry_space_group_name_H-M   'P 1'
_cell_length_a   7.47345212
_cell_length_b   7.47345212
_cell_length_c   10.56905735
_cell_angle_alpha   90.00000000
_cell_angle_beta   90.00000000
_cell_angle_gamma   90.00000000
_symmetry_Int_Tables_number   1
_chemical_formula_structural   Cr12FeNi41
_chemical_formula_sum   'Cr12 Fe1 Ni41'
_cell_volume   590.30813415
_cell_formula_units_Z   1
loop_
 _symmetry_equiv_pos_site_id
 _symmetry_equiv_pos_as_xyz
  1  'x, y, z'
loop_
 _atom_site_type_symbol
 _atom_site_label
 _atom_site_symmetry_multiplicity
 _atom_site_fract_x
 _atom_site_fract_y
 _atom_site_fract_z
 _atom_site_occupancy
  Ni  Ni0  1  0.00237412  0.99846561  0.00080762  1
  Fe  Fe1  1  0.16930090  0.16372311  0.16528717  1
  Cr  Cr2  1  0.00005115  0.99840731  0.33311382  1
  Cr  Cr3  1  0.00089045  0.33115677  0.00150833  1
  Cr  Cr4  1  0.16826914  0.50401990  0.16632080  1
  Cr  Cr5  1  0.99622662  0.33244745  0.33341911  1
  Ni  Ni6  1  0.00156743  0.66793587  -0.00042780  1
  Ni  Ni7  1  0.16898679  0.83348855  0.16559647  1
  Ni  Ni8  1  0.99937184  0.66653626  0.33496597  1
  Ni  Ni9  1  0.33305227  0.99887536  -0.00034733  1
  Ni  Ni10  1  0.50008794  0.16435596  0.16651020  1
  Ni  Ni11  1  0.33504338  0.99690401  0.33332713  1
  Ni  Ni12  1  0.33392656  0.33211837  0.99830628  1
  Ni  Ni13  1  0.50054548  0.50036785  0.16635450  1
  Cr  Cr14  1  0.33543181  0.33182566  0.33441696  1
  Ni  Ni15  1  0.33420739  0.66750580  0.99841448  1
  Ni  Ni16  1  0.49738673  0.83368161  0.16652141  1
  Ni  Ni17  1  0.33447665  0.66886121  0.33411573  1
  Ni  Ni18  1  0.66356760  0.99854293  0.00036556  1
  Ni  Ni19  1  0.82921293  0.16526590  0.16626563  1
  Ni  Ni20  1  0.66404069  -0.00005705  0.33361479  1
  Cr  Cr21  1  0.66351104  0.33320456  0.00131641  1
  Ni  Ni22  1  0.83094176  0.50023490  0.16760643  1
  Ni  Ni23  1  0.66595492  0.33297530  0.33273416  1
  Ni  Ni24  1  0.66285878  0.66735589  0.00043256  1
  Cr  Cr25  1  0.83211845  0.83187372  0.16445582  1
  Ni  Ni26  1  0.66490863  0.66576003  0.33338653  1
  Ni  Ni27  1  0.16672355  0.16416651  0.50087101  1
  Ni  Ni28  1  0.00128683  0.99931261  0.66450465  1
  Ni  Ni29  1  0.16826941  0.16439571  0.83364115  1
  Ni  Ni30  1  0.16464236  0.50139441  0.49959804  1
  Ni  Ni31  1  -0.00008792  0.33246788  0.66399033  1
  Ni  Ni32  1  0.16730846  0.50044042  0.83371314  1
  Ni  Ni33  1  0.16653866  0.83282956  0.49889820  1
  Ni  Ni34  1  -0.00022999  0.66688225  0.66414364  1
  Ni  Ni35  1  0.16723131  0.83373796  0.83403412  1
  Ni  Ni36  1  0.50132759  0.16421231  0.49966597  1
  Ni  Ni37  1  0.33279565  -0.00018767  0.66597698  1
  Ni  Ni38  1  0.49737484  0.16424208  0.83250285  1
  Ni  Ni39  1  0.50200166  0.50035247  0.49799427  1
  Cr  Cr40  1  0.33338908  0.33255345  0.66710751  1
  Ni  Ni41  1  0.49819417  0.50026387  0.83440117  1
  Ni  Ni42  1  0.50029942  0.83443678  0.49788791  1
  Cr  Cr43  1  0.33435436  0.66919528  0.66617039  1
  Ni  Ni44  1  0.49831166  0.83455882  0.83423099  1
  Ni  Ni45  1  0.83077547  0.16602195  0.50161235  1
  Ni  Ni46  1  0.66430265  0.99876530  0.66434406  1
  Cr  Cr47  1  0.83186168  0.16369390  0.82968391  1
  Ni  Ni48  1  0.83209756  0.50045133  0.49999128  1
  Ni  Ni49  1  0.66598180  0.33312564  0.66388107  1
  Cr  Cr50  1  0.83321068  0.50148900  0.83091812  1
  Ni  Ni51  1  0.83205520  0.83227052  0.50070410  1
  Ni  Ni52  1  0.66603090  0.66669078  0.66487206  1
  Cr  Cr53  1  0.83250338  0.83326588  0.83313384  1
" 