2641,Ni77Fe18Cr4_10,-239.234028680777, 195.271122874589,Ni77Fe18Cr4,"# generated using pymatgen
 data_Cr4Fe9Ni41
_symmetry_space_group_name_H-M   'P 1'
_cell_length_a   7.43539158
_cell_length_b   7.43539158
_cell_length_c   10.51523162
_cell_angle_alpha   90.00000000
_cell_angle_beta   90.00000000
_cell_angle_gamma   90.00000000
_symmetry_Int_Tables_number   1
_chemical_formula_structural   Cr4Fe9Ni41
_chemical_formula_sum   'Cr4 Fe9 Ni41'
_cell_volume   581.33508500
_cell_formula_units_Z   1
loop_
 _symmetry_equiv_pos_site_id
 _symmetry_equiv_pos_as_xyz
  1  'x, y, z'
loop_
 _atom_site_type_symbol
 _atom_site_label
 _atom_site_symmetry_multiplicity
 _atom_site_fract_x
 _atom_site_fract_y
 _atom_site_fract_z
 _atom_site_occupancy
  Fe  Fe0  1  0.00243095  0.00233953  1.00198480  1
  Ni  Ni1  1  0.16988840  0.17030293  0.16888471  1
  Ni  Ni2  1  0.00223831  1.00091731  0.33394733  1
  Cr  Cr3  1  1.00111202  0.33505105  1.00153369  1
  Ni  Ni4  1  0.16964478  0.50250817  0.17060714  1
  Fe  Fe5  1  0.00258377  0.33450588  0.33526301  1
  Ni  Ni6  1  1.00165517  0.67083274  0.00341402  1
  Fe  Fe7  1  0.16807030  0.83730725  0.16834699  1
  Ni  Ni8  1  0.00360701  0.66985371  0.33507357  1
  Ni  Ni9  1  0.33560046  0.00315110  1.00095650  1
  Ni  Ni10  1  0.50184102  0.16882817  0.16950759  1
  Ni  Ni11  1  0.33374497  0.00344123  0.33657782  1
  Ni  Ni12  1  0.33786679  0.33423521  0.00287981  1
  Fe  Fe13  1  0.50091059  0.49952709  0.16850674  1
  Ni  Ni14  1  0.33649260  0.33500452  0.33455985  1
  Ni  Ni15  1  0.33322445  0.66870925  0.00246352  1
  Cr  Cr16  1  0.50278786  0.83720729  0.16901287  1
  Ni  Ni17  1  0.33189287  0.66802638  0.33653971  1
  Ni  Ni18  1  0.66955765  0.00446835  1.00114111  1
  Ni  Ni19  1  0.83476878  0.16670615  0.17050288  1
  Ni  Ni20  1  0.67016757  0.00500747  0.33735142  1
  Ni  Ni21  1  0.66757327  0.33357546  0.00231416  1
  Fe  Fe22  1  0.83595800  0.50091632  0.16881387  1
  Ni  Ni23  1  0.66833291  0.33330374  0.33503273  1
  Fe  Fe24  1  0.66844419  0.66867000  1.00051023  1
  Ni  Ni25  1  0.83664584  0.83628822  0.16762260  1
  Cr  Cr26  1  0.67003203  0.66768718  0.33632466  1
  Ni  Ni27  1  0.16848887  0.16976543  0.50196720  1
  Ni  Ni28  1  1.00207028  1.00110106  0.67070401  1
  Ni  Ni29  1  0.17012006  0.16688798  0.83533148  1
  Fe  Fe30  1  0.16906265  0.50161805  0.50191389  1
  Fe  Fe31  1  1.00083633  0.33359307  0.66832588  1
  Cr  Cr32  1  0.16989659  0.50181946  0.83214158  1
  Fe  Fe33  1  0.16811955  0.83702057  0.50300343  1
  Ni  Ni34  1  1.00083456  0.67074206  0.66784733  1
  Ni  Ni35  1  0.16889374  0.83609883  0.83653304  1
  Ni  Ni36  1  0.50121555  0.16874058  0.50116207  1
  Ni  Ni37  1  0.33500358  0.00281545  0.66924281  1
  Ni  Ni38  1  0.50191385  0.16838385  0.83559626  1
  Ni  Ni39  1  0.50116320  0.50175078  0.50219382  1
  Ni  Ni40  1  0.33810086  0.33399280  0.66876049  1
  Ni  Ni41  1  0.50284177  0.50252230  0.83670740  1
  Ni  Ni42  1  0.50176973  0.83582894  0.50306784  1
  Ni  Ni43  1  0.33586042  0.66957781  0.66762123  1
  Ni  Ni44  1  0.50222388  0.83538722  0.83455797  1
  Ni  Ni45  1  0.83684234  0.16859659  0.50139098  1
  Ni  Ni46  1  0.66922648  0.00297956  0.66779049  1
  Ni  Ni47  1  0.83447796  0.16770697  0.83421349  1
  Ni  Ni48  1  0.83681385  0.50154756  0.50232264  1
  Ni  Ni49  1  0.66804205  0.33539263  0.66905934  1
  Ni  Ni50  1  0.83366761  0.50337301  0.83518262  1
  Ni  Ni51  1  0.83578383  0.83603912  0.50264703  1
  Ni  Ni52  1  0.66953950  0.66797805  0.66994500  1
  Ni  Ni53  1  0.83507031  0.83532052  0.83604927  1
" 