39,Ni77Fe6Cr15_12,-233.844899340746, 167.337217936372,Ni77Fe6Cr15,"# generated using pymatgen
 data_Cr3FeNi14
_symmetry_space_group_name_H-M   'P 1'
_cell_length_a   7.46361015
_cell_length_b   7.46361015
_cell_length_c   10.55513870
_cell_angle_alpha   90.00000000
_cell_angle_beta   90.00000000
_cell_angle_gamma   90.00000000
_symmetry_Int_Tables_number   1
_chemical_formula_structural   Cr3FeNi14
_chemical_formula_sum   'Cr9 Fe3 Ni42'
_cell_volume   587.97903042
_cell_formula_units_Z   3
loop_
 _symmetry_equiv_pos_site_id
 _symmetry_equiv_pos_as_xyz
  1  'x, y, z'
loop_
 _atom_site_type_symbol
 _atom_site_label
 _atom_site_symmetry_multiplicity
 _atom_site_fract_x
 _atom_site_fract_y
 _atom_site_fract_z
 _atom_site_occupancy
  Ni  Ni0  1  0.00120806  0.00061608  0.00116131  1
  Ni  Ni1  1  0.16570874  0.16852953  0.16612148  1
  Ni  Ni2  1  0.99919612  0.00121759  0.33323334  1
  Ni  Ni3  1  0.00134812  0.33287940  0.00096400  1
  Ni  Ni4  1  0.16686899  0.49809793  0.16861755  1
  Ni  Ni5  1  0.99896401  0.33288097  0.33290428  1
  Cr  Cr6  1  0.00057891  0.66624130  0.99954616  1
  Ni  Ni7  1  0.16598921  0.83411614  0.16770543  1
  Ni  Ni8  1  0.99795809  0.66659000  0.33130620  1
  Ni  Ni9  1  0.33245355  0.00303190  0.00049792  1
  Ni  Ni10  1  0.50063591  0.16922305  0.16405479  1
  Cr  Cr11  1  0.33333767  0.00230146  0.33307849  1
  Ni  Ni12  1  0.33371235  0.33198092  0.99985275  1
  Ni  Ni13  1  0.50031287  0.49823736  0.16944243  1
  Ni  Ni14  1  0.33468058  0.33395024  0.33284065  1
  Cr  Cr15  1  0.33202650  0.66533576  0.00166354  1
  Ni  Ni16  1  0.50057345  0.83327952  0.16687203  1
  Ni  Ni17  1  0.33547517  0.66555454  0.33132166  1
  Ni  Ni18  1  0.66699942  0.00186532  0.00225453  1
  Ni  Ni19  1  0.83429485  0.16821175  0.16640297  1
  Cr  Cr20  1  0.66818882  0.00154307  0.33354203  1
  Ni  Ni21  1  0.66560026  0.33281074  0.00134181  1
  Ni  Ni22  1  0.83354678  0.49808068  0.16783914  1
  Ni  Ni23  1  0.66714489  0.33516628  0.33342082  1
  Cr  Cr24  1  0.66825654  0.66524185  0.00060014  1
  Ni  Ni25  1  0.83411485  0.83438579  0.16784855  1
  Ni  Ni26  1  0.66739088  0.66527940  0.33438960  1
  Ni  Ni27  1  0.16594825  0.16874450  0.50168538  1
  Ni  Ni28  1  0.99976939  1.00001781  0.66636166  1
  Ni  Ni29  1  0.16781770  0.16772163  0.83291932  1
  Cr  Cr30  1  0.16658484  0.49896149  0.49866084  1
  Ni  Ni31  1  0.99997106  0.33400976  0.66689977  1
  Ni  Ni32  1  0.16774676  0.49822072  0.83203467  1
  Cr  Cr33  1  0.16645157  0.83293476  0.50073571  1
  Ni  Ni34  1  0.99902629  0.66665824  0.66917042  1
  Ni  Ni35  1  0.16533654  0.83477016  0.83175439  1
  Ni  Ni36  1  0.50080702  0.16840095  0.50274598  1
  Ni  Ni37  1  0.33400754  0.00194953  0.66730719  1
  Ni  Ni38  1  0.49945259  0.16917925  0.83394734  1
  Fe  Fe39  1  0.50143644  0.49958730  0.50000722  1
  Ni  Ni40  1  0.33470273  0.33274726  0.66777179  1
  Ni  Ni41  1  0.49929831  0.49694793  0.83122604  1
  Ni  Ni42  1  0.50199443  0.83190082  0.50201831  1
  Ni  Ni43  1  0.33359120  0.66594736  0.66768777  1
  Cr  Cr44  1  0.50095993  0.83650871  0.83252134  1
  Ni  Ni45  1  0.83394350  0.16837368  0.50054176  1
  Ni  Ni46  1  0.66696067  0.00124207  0.66527353  1
  Cr  Cr47  1  0.83255029  0.16587293  0.83471030  1
  Ni  Ni48  1  0.83273587  0.49993655  0.50086872  1
  Ni  Ni49  1  0.66604014  0.33347245  0.66613163  1
  Fe  Fe50  1  0.83366388  0.49858898  0.83212899  1
  Ni  Ni51  1  0.83235607  0.83243819  0.50117497  1
  Fe  Fe52  1  0.66776171  0.66615401  0.66583885  1
  Ni  Ni53  1  0.83495485  0.83449955  0.83148769  1
" 