8591,Ni77Fe4Cr17_9,-232.106165522078, 161.543507441867,Ni77Fe4Cr17,"# generated using pymatgen
 data_Cr11Fe2Ni41
_symmetry_space_group_name_H-M   'P 1'
_cell_length_a   7.47159962
_cell_length_b   7.47159962
_cell_length_c   10.56643752
_cell_angle_alpha   90.00000000
_cell_angle_beta   90.00000000
_cell_angle_gamma   90.00000000
_symmetry_Int_Tables_number   1
_chemical_formula_structural   Cr11Fe2Ni41
_chemical_formula_sum   'Cr11 Fe2 Ni41'
_cell_volume   589.86927099
_cell_formula_units_Z   1
loop_
 _symmetry_equiv_pos_site_id
 _symmetry_equiv_pos_as_xyz
  1  'x, y, z'
loop_
 _atom_site_type_symbol
 _atom_site_label
 _atom_site_symmetry_multiplicity
 _atom_site_fract_x
 _atom_site_fract_y
 _atom_site_fract_z
 _atom_site_occupancy
  Ni  Ni0  1  0.00098457  0.99807980  0.99820574  1
  Ni  Ni1  1  0.17017253  0.16509775  0.16590155  1
  Ni  Ni2  1  0.00148706  0.99852642  0.33371877  1
  Cr  Cr3  1  0.00126365  0.33379051  0.99914432  1
  Ni  Ni4  1  0.16852466  0.50108420  0.16588494  1
  Cr  Cr5  1  0.99959169  0.33390101  0.33348344  1
  Ni  Ni6  1  0.00050057  0.66716716  0.99866697  1
  Ni  Ni7  1  0.16768017  0.83290308  0.16600488  1
  Ni  Ni8  1  0.00188246  0.66648271  0.33302689  1
  Ni  Ni9  1  0.33270457  0.99830472  0.00043404  1
  Ni  Ni10  1  0.49677813  0.16610071  0.16691908  1
  Ni  Ni11  1  0.33362169  0.99874717  0.33338143  1
  Ni  Ni12  1  0.33135697  0.33312404  0.00169875  1
  Ni  Ni13  1  0.49832532  0.49998437  0.16682419  1
  Ni  Ni14  1  0.33525734  0.33336123  0.33267661  1
  Ni  Ni15  1  0.33247133  0.66765691  0.00069235  1
  Ni  Ni16  1  0.49816843  0.83300091  0.16578932  1
  Ni  Ni17  1  0.33250886  0.66697728  0.33289127  1
  Ni  Ni18  1  0.66539875  0.99696817  0.99853204  1
  Cr  Cr19  1  0.83250628  0.16461927  0.16702041  1
  Ni  Ni20  1  0.66397880  0.00127604  0.33371810  1
  Cr  Cr21  1  0.66633552  0.33343813  0.00090442  1
  Ni  Ni22  1  0.83223367  0.50247565  0.16680408  1
  Ni  Ni23  1  0.66447570  0.33296520  0.33411961  1
  Ni  Ni24  1  0.66611407  0.66851177  0.99969350  1
  Cr  Cr25  1  0.83357803  0.83188471  0.16654214  1
  Fe  Fe26  1  0.66425133  0.66491834  0.33302591  1
  Ni  Ni27  1  0.16838871  0.16627809  0.50015503  1
  Cr  Cr28  1  0.00171364  0.00100893  0.66691123  1
  Ni  Ni29  1  0.16597236  0.16675600  0.83302954  1
  Ni  Ni30  1  0.16643675  0.49946947  0.50011157  1
  Ni  Ni31  1  0.99898894  0.33502135  0.66660612  1
  Ni  Ni32  1  0.16402199  0.49900134  0.83308998  1
  Ni  Ni33  1  0.16772449  0.83333803  0.49834011  1
  Ni  Ni34  1  0.99872947  0.66273882  0.66739247  1
  Fe  Fe35  1  0.16554932  0.83307627  0.83479570  1
  Ni  Ni36  1  0.49856117  0.16728342  0.49914057  1
  Ni  Ni37  1  0.33270254  0.00047910  0.66526985  1
  Cr  Cr38  1  0.49741379  0.16514009  0.83302826  1
  Ni  Ni39  1  0.50041561  0.49836766  0.49917591  1
  Ni  Ni40  1  0.33136284  0.33175199  0.66471074  1
  Cr  Cr41  1  0.49912085  0.50087655  0.83285097  1
  Ni  Ni42  1  0.49812295  0.83343458  0.49855436  1
  Cr  Cr43  1  0.33256917  0.66783113  0.66538286  1
  Ni  Ni44  1  0.50112538  0.83332407  0.83474372  1
  Ni  Ni45  1  0.83213640  0.16857188  0.49929966  1
  Cr  Cr46  1  0.66445112  -0.00006812  0.66680748  1
  Ni  Ni47  1  0.83540719  0.16529120  0.83288889  1
  Ni  Ni48  1  0.83223318  0.49903053  0.50138590  1
  Ni  Ni49  1  0.66873405  0.33479147  0.66434539  1
  Ni  Ni50  1  0.83540279  0.50242272  0.83089733  1
  Cr  Cr51  1  0.83357902  0.83153822  0.49740730  1
  Ni  Ni52  1  0.66788483  0.66407593  0.66636607  1
  Ni  Ni53  1  0.83264976  0.83137249  0.83515872  1
" 