116,Ni77Fe2Cr20_1,-231.119099417797, 156.933857911749,Ni77Fe2Cr20,"# generated using pymatgen
 data_Cr12FeNi41
_symmetry_space_group_name_H-M   'P 1'
_cell_length_a   7.47307100
_cell_length_b   7.47307100
_cell_length_c   10.56851837
_cell_angle_alpha   90.00000000
_cell_angle_beta   90.00000000
_cell_angle_gamma   90.00000000
_symmetry_Int_Tables_number   1
_chemical_formula_structural   Cr12FeNi41
_chemical_formula_sum   'Cr12 Fe1 Ni41'
_cell_volume   590.21782818
_cell_formula_units_Z   1
loop_
 _symmetry_equiv_pos_site_id
 _symmetry_equiv_pos_as_xyz
  1  'x, y, z'
loop_
 _atom_site_type_symbol
 _atom_site_label
 _atom_site_symmetry_multiplicity
 _atom_site_fract_x
 _atom_site_fract_y
 _atom_site_fract_z
 _atom_site_occupancy
  Ni  Ni0  1  0.00001512  0.99858833  0.99801278  1
  Cr  Cr1  1  0.16277062  0.16408175  0.16689953  1
  Ni  Ni2  1  0.99630391  0.99863876  0.33430823  1
  Ni  Ni3  1  0.99716518  0.33429481  0.99910606  1
  Cr  Cr4  1  0.16585002  0.50102246  0.16786468  1
  Ni  Ni5  1  0.99685646  0.33426616  0.33321323  1
  Ni  Ni6  1  0.99776512  0.66577639  0.99743097  1
  Cr  Cr7  1  0.16582965  0.83363995  0.16639925  1
  Ni  Ni8  1  0.99781725  0.66576948  0.33515348  1
  Ni  Ni9  1  0.33241705  0.99674140  0.99641661  1
  Cr  Cr10  1  0.50077413  0.16665513  0.16825003  1
  Ni  Ni11  1  0.33545597  0.99751343  0.33466352  1
  Cr  Cr12  1  0.33215806  0.33311212  0.99752758  1
  Ni  Ni13  1  0.50303073  0.50251920  0.16705100  1
  Ni  Ni14  1  0.33338966  0.33384337  0.33444756  1
  Ni  Ni15  1  0.33343847  0.66921245  0.99877569  1
  Ni  Ni16  1  0.50048325  0.82964799  0.16705124  1
  Ni  Ni17  1  0.33352842  0.66745668  0.33384247  1
  Cr  Cr18  1  0.66516604  0.99713013  0.00045122  1
  Ni  Ni19  1  0.83375824  0.16711014  0.16740136  1
  Ni  Ni20  1  0.66699421  0.99858378  0.33381845  1
  Ni  Ni21  1  0.66943253  0.33521141  0.00020704  1
  Ni  Ni22  1  0.83050037  0.49966258  0.16564946  1
  Ni  Ni23  1  0.66855632  0.33242464  0.33310722  1
  Ni  Ni24  1  0.66766564  0.66607053  0.00036055  1
  Ni  Ni25  1  0.83232238  0.83200565  0.16700152  1
  Ni  Ni26  1  0.66747754  0.66784743  0.33173673  1
  Cr  Cr27  1  0.16697860  0.16470266  0.49786837  1
  Fe  Fe28  1  0.00116452  0.99628549  0.66612125  1
  Ni  Ni29  1  0.16789014  0.16385908  0.83363912  1
  Ni  Ni30  1  0.16563234  0.50236234  0.49854220  1
  Cr  Cr31  1  0.00024131  0.33653565  0.66604481  1
  Ni  Ni32  1  0.16494035  0.50162690  0.83280605  1
  Ni  Ni33  1  0.16609094  0.83134230  0.49968455  1
  Ni  Ni34  1  -0.00021761  0.66692791  0.66626469  1
  Ni  Ni35  1  0.16619190  0.83316014  0.83296735  1
  Ni  Ni36  1  0.50053336  0.16574753  0.49927695  1
  Ni  Ni37  1  0.33340712  0.99863398  0.66777402  1
  Ni  Ni38  1  0.49685272  0.16578860  0.83139640  1
  Cr  Cr39  1  0.50016609  0.49984267  0.50009075  1
  Ni  Ni40  1  0.33272213  0.33146893  0.66717699  1
  Cr  Cr41  1  0.50224765  0.50078609  0.83173159  1
  Ni  Ni42  1  0.49877524  0.83343921  0.49840544  1
  Ni  Ni43  1  0.33024777  0.66863717  0.66628426  1
  Ni  Ni44  1  0.49759691  0.83241084  0.83339226  1
  Ni  Ni45  1  0.83107771  0.16631079  0.49688030  1
  Cr  Cr46  1  0.66460245  0.99822464  0.66468073  1
  Cr  Cr47  1  0.83339705  0.16717268  0.83405010  1
  Ni  Ni48  1  0.83316028  0.50063852  0.49902705  1
  Ni  Ni49  1  0.66609084  0.33282615  0.66548557  1
  Ni  Ni50  1  0.83350766  0.50225152  0.83402981  1
  Ni  Ni51  1  0.83404713  0.83177817  0.49876975  1
  Ni  Ni52  1  0.66885063  0.66747216  0.66668217  1
  Ni  Ni53  1  0.83512008  0.82917934  0.83301766  1
" 