3079,Ni77Cr23_16,-208.486012681613, 154.711823590545,Ni77Cr23,"# generated using pymatgen
 data_Cr41Ni13
_symmetry_space_group_name_H-M   'P 1'
_cell_length_a   7.57703810
_cell_length_b   7.57703810
_cell_length_c   10.71555005
_cell_angle_alpha   90.00000000
_cell_angle_beta   90.00000000
_cell_angle_gamma   90.00000000
_symmetry_Int_Tables_number   1
_chemical_formula_structural   Cr41Ni13
_chemical_formula_sum   'Cr41 Ni13'
_cell_volume   615.19587018
_cell_formula_units_Z   1
loop_
 _symmetry_equiv_pos_site_id
 _symmetry_equiv_pos_as_xyz
  1  'x, y, z'
loop_
 _atom_site_type_symbol
 _atom_site_label
 _atom_site_symmetry_multiplicity
 _atom_site_fract_x
 _atom_site_fract_y
 _atom_site_fract_z
 _atom_site_occupancy
  Cr  Cr0  1  -0.00602987  -0.00682396  -0.00546995  1
  Ni  Ni1  1  0.16090176  0.16102776  0.16076380  1
  Cr  Cr2  1  -0.00524568  -0.00630878  0.32546084  1
  Ni  Ni3  1  -0.00607789  0.32644364  -0.00619528  1
  Cr  Cr4  1  0.15901501  0.49101348  0.15809940  1
  Cr  Cr5  1  0.99260755  0.32444644  0.32604643  1
  Ni  Ni6  1  0.99238251  0.65756581  0.99224941  1
  Cr  Cr7  1  0.16146184  0.82358214  0.16066058  1
  Cr  Cr8  1  0.98997139  0.65988655  0.32757375  1
  Cr  Cr9  1  0.32551367  -0.00668170  -0.00621283  1
  Cr  Cr10  1  0.49214443  0.15684512  0.16171462  1
  Ni  Ni11  1  0.32722605  -0.00613862  0.32482949  1
  Cr  Cr12  1  0.32673711  0.32531293  0.99242527  1
  Cr  Cr13  1  0.49070616  0.49400213  0.16274688  1
  Ni  Ni14  1  0.32664653  0.32593088  0.32621884  1
  Cr  Cr15  1  0.32731379  0.65943476  0.99003996  1
  Cr  Cr16  1  0.49441109  0.82759100  0.16302798  1
  Ni  Ni17  1  0.33015337  0.65849643  0.32771908  1
  Ni  Ni18  1  0.66011218  0.99263712  0.99220138  1
  Cr  Cr19  1  0.82485854  0.15903924  0.15705911  1
  Ni  Ni20  1  0.65674152  0.99035838  0.32615131  1
  Cr  Cr21  1  0.65863867  0.32676853  0.99121935  1
  Cr  Cr22  1  0.82847437  0.49391467  0.15763756  1
  Cr  Cr23  1  0.65841331  0.32976864  0.32858214  1
  Cr  Cr24  1  0.65858930  0.65876446  0.99228580  1
  Cr  Cr25  1  0.82240495  0.82550217  0.15864973  1
  Ni  Ni26  1  0.65620118  0.65953431  0.32883479  1
  Cr  Cr27  1  0.16237242  0.16078491  0.49135046  1
  Cr  Cr28  1  0.99267940  0.99221068  0.65814794  1
  Cr  Cr29  1  0.15824736  0.16239749  0.82589206  1
  Cr  Cr30  1  0.16116034  0.49274831  0.49147872  1
  Cr  Cr31  1  0.99066633  0.32605113  0.65710700  1
  Cr  Cr32  1  0.15829480  0.49269808  0.82843570  1
  Cr  Cr33  1  0.16255007  0.82469123  0.49213100  1
  Cr  Cr34  1  0.99109456  0.65996929  0.65788369  1
  Cr  Cr35  1  0.15812267  0.82304332  0.82549037  1
  Cr  Cr36  1  0.49295648  0.15808639  0.49155051  1
  Cr  Cr37  1  0.32547325  0.99221255  0.66057191  1
  Cr  Cr38  1  0.49573936  0.15806370  0.82522837  1
  Ni  Ni39  1  0.49350291  0.49404875  0.48946036  1
  Cr  Cr40  1  0.32976799  0.32810297  0.66011411  1
  Ni  Ni41  1  0.49280475  0.49273903  0.82554779  1
  Cr  Cr42  1  0.49332005  0.82692643  0.48954694  1
  Cr  Cr43  1  0.32932775  0.65791482  0.66096377  1
  Cr  Cr44  1  0.49533590  0.82801162  0.82610337  1
  Cr  Cr45  1  0.82284151  0.15869614  0.49471034  1
  Ni  Ni46  1  0.65934333  0.99247218  0.65986103  1
  Cr  Cr47  1  0.82418857  0.15852486  0.82611900  1
  Ni  Ni48  1  0.82242289  0.49424125  0.49152952  1
  Cr  Cr49  1  0.65785748  0.32929783  0.65833153  1
  Cr  Cr50  1  0.82893457  0.49228118  0.82874977  1
  Cr  Cr51  1  0.82222136  0.82623078  0.49246008  1
  Cr  Cr52  1  0.65784978  0.65636553  0.65790986  1
  Cr  Cr53  1  0.82471140  0.82733621  0.82706551  1
" 