1722,Ni77Fe12Cr9_1,-237.079824290266, 185.997882602353,Ni77Fe12Cr9,"# generated using pymatgen
 data_CrFeNi7
_symmetry_space_group_name_H-M   'P 1'
_cell_length_a   7.44320794
_cell_length_b   7.44320794
_cell_length_c   10.52628562
_cell_angle_alpha   90.00000000
_cell_angle_beta   90.00000000
_cell_angle_gamma   90.00000000
_symmetry_Int_Tables_number   1
_chemical_formula_structural   CrFeNi7
_chemical_formula_sum   'Cr6 Fe6 Ni42'
_cell_volume   583.17037599
_cell_formula_units_Z   6
loop_
 _symmetry_equiv_pos_site_id
 _symmetry_equiv_pos_as_xyz
  1  'x, y, z'
loop_
 _atom_site_type_symbol
 _atom_site_label
 _atom_site_symmetry_multiplicity
 _atom_site_fract_x
 _atom_site_fract_y
 _atom_site_fract_z
 _atom_site_occupancy
  Ni  Ni0  1  0.99956728  0.00366583  0.00245787  1
  Ni  Ni1  1  0.16730499  0.16898878  0.16752535  1
  Fe  Fe2  1  0.00180828  0.00295479  0.33448125  1
  Ni  Ni3  1  0.00286936  0.33409389  1.00004075  1
  Ni  Ni4  1  0.16963088  0.50027226  0.16821118  1
  Ni  Ni5  1  0.00230761  0.33527612  0.33516531  1
  Ni  Ni6  1  1.00156024  0.66674958  1.00064710  1
  Cr  Cr7  1  0.16909474  0.83507625  0.16831969  1
  Ni  Ni8  1  0.00340780  0.66610825  0.33588165  1
  Ni  Ni9  1  0.33701899  0.00368259  0.00245341  1
  Fe  Fe10  1  0.50064449  0.17062422  0.16706380  1
  Fe  Fe11  1  0.33558956  1.00149524  0.33502865  1
  Ni  Ni12  1  0.33408093  0.33557679  0.00216837  1
  Ni  Ni13  1  0.50065965  0.50280249  0.16852464  1
  Ni  Ni14  1  0.33469685  0.33631213  0.33328543  1
  Ni  Ni15  1  0.33618060  0.66628397  1.00150152  1
  Ni  Ni16  1  0.50106261  0.83313732  0.16666565  1
  Ni  Ni17  1  0.33522251  0.66705992  0.33634244  1
  Ni  Ni18  1  0.66847898  0.00187415  0.00163462  1
  Ni  Ni19  1  0.83632854  0.16849607  0.16783464  1
  Cr  Cr20  1  0.66723296  0.00241264  0.33390003  1
  Ni  Ni21  1  0.66737201  0.33340281  1.00126811  1
  Cr  Cr22  1  0.83238280  0.50009284  0.16769890  1
  Ni  Ni23  1  0.66759685  0.33459150  0.33602381  1
  Ni  Ni24  1  0.66696034  0.66987216  1.00115149  1
  Fe  Fe25  1  0.83452581  0.83406197  0.16657157  1
  Ni  Ni26  1  0.66636270  0.66834836  0.33472429  1
  Cr  Cr27  1  0.16847576  0.16672000  0.50297376  1
  Ni  Ni28  1  1.00036924  0.00221512  0.66859755  1
  Ni  Ni29  1  0.16892636  0.16879621  0.83551545  1
  Fe  Fe30  1  0.16868034  0.50175195  0.50184438  1
  Ni  Ni31  1  1.00100400  0.33598784  0.66976982  1
  Ni  Ni32  1  0.16911220  0.50067077  0.83507934  1
  Ni  Ni33  1  0.17051592  0.83385947  0.50134905  1
  Ni  Ni34  1  0.00206182  0.66648647  0.66800829  1
  Cr  Cr35  1  0.16895697  0.83655377  0.83443074  1
  Ni  Ni36  1  0.50170717  0.17010398  0.50150652  1
  Ni  Ni37  1  0.33757661  0.00186479  0.66746763  1
  Ni  Ni38  1  0.50141501  0.16967162  0.83536305  1
  Ni  Ni39  1  0.50306873  0.50163142  0.50063077  1
  Ni  Ni40  1  0.33586016  0.33570782  0.66948075  1
  Ni  Ni41  1  0.50260967  0.50088967  0.83556332  1
  Ni  Ni42  1  0.49903659  0.83355600  0.50347223  1
  Ni  Ni43  1  0.33553667  0.66694928  0.66688146  1
  Fe  Fe44  1  0.50302328  0.83512977  0.83506667  1
  Ni  Ni45  1  0.83418412  0.17152803  0.50290782  1
  Ni  Ni46  1  0.66740271  0.00260369  0.66934807  1
  Ni  Ni47  1  0.83447175  0.16846886  0.83407847  1
  Ni  Ni48  1  0.83298473  0.50010522  0.50145618  1
  Ni  Ni49  1  0.66787059  0.33421105  0.66699304  1
  Ni  Ni50  1  0.83326280  0.50161487  0.83480502  1
  Cr  Cr51  1  0.83636265  0.83329624  0.50197535  1
  Ni  Ni52  1  0.66749114  0.66817664  0.66895643  1
  Ni  Ni53  1  0.83456230  0.83461417  0.83638491  1
" 