6184,Ni77Fe12Cr9_13,-237.010971985639, 184.921722049479,Ni77Fe12Cr9,"# generated using pymatgen
 data_CrFeNi7
_symmetry_space_group_name_H-M   'P 1'
_cell_length_a   7.44456827
_cell_length_b   7.44456827
_cell_length_c   10.52820941
_cell_angle_alpha   90.00000000
_cell_angle_beta   90.00000000
_cell_angle_gamma   90.00000000
_symmetry_Int_Tables_number   1
_chemical_formula_structural   CrFeNi7
_chemical_formula_sum   'Cr6 Fe6 Ni42'
_cell_volume   583.49017587
_cell_formula_units_Z   6
loop_
 _symmetry_equiv_pos_site_id
 _symmetry_equiv_pos_as_xyz
  1  'x, y, z'
loop_
 _atom_site_type_symbol
 _atom_site_label
 _atom_site_symmetry_multiplicity
 _atom_site_fract_x
 _atom_site_fract_y
 _atom_site_fract_z
 _atom_site_occupancy
  Ni  Ni0  1  0.00250901  1.00150082  0.00200923  1
  Ni  Ni1  1  0.16861827  0.16714885  0.16826473  1
  Ni  Ni2  1  0.00323883  1.00013954  0.33340982  1
  Ni  Ni3  1  0.00234296  0.33464969  0.00154694  1
  Ni  Ni4  1  0.16898554  0.50239456  0.16824078  1
  Ni  Ni5  1  0.00299429  0.33478537  0.33308673  1
  Ni  Ni6  1  0.00285893  0.66845134  1.00062124  1
  Ni  Ni7  1  0.16815226  0.83511318  0.16872624  1
  Ni  Ni8  1  1.00084604  0.66964914  0.33485895  1
  Ni  Ni9  1  0.33489361  1.00119344  1.00129998  1
  Ni  Ni10  1  0.50185794  0.16709308  0.16881394  1
  Ni  Ni11  1  0.33477226  0.00212946  0.33528322  1
  Fe  Fe12  1  0.33434682  0.33398049  1.00124669  1
  Cr  Cr13  1  0.50008840  0.50141238  0.16743024  1
  Ni  Ni14  1  0.33488872  0.33266197  0.33373783  1
  Ni  Ni15  1  0.33366453  0.66966242  0.00183263  1
  Fe  Fe16  1  0.50144173  0.83654384  0.16747208  1
  Fe  Fe17  1  0.33483048  0.66941325  0.33460061  1
  Ni  Ni18  1  0.66722861  0.00187828  0.00227174  1
  Ni  Ni19  1  0.83423381  0.16600737  0.16825579  1
  Ni  Ni20  1  0.66650413  0.99983603  0.33292181  1
  Ni  Ni21  1  0.66840368  0.33368306  0.99975406  1
  Cr  Cr22  1  0.83554718  0.50160951  0.16859244  1
  Ni  Ni23  1  0.66637553  0.33514151  0.33607569  1
  Ni  Ni24  1  0.66796384  0.66932828  0.99869967  1
  Ni  Ni25  1  0.83600050  0.83728564  0.16803628  1
  Ni  Ni26  1  0.66864724  0.66963725  0.33716179  1
  Fe  Fe27  1  0.16999769  0.16787013  0.50031633  1
  Cr  Cr28  1  0.00408215  1.00034767  0.66965197  1
  Fe  Fe29  1  0.16906678  0.16865688  0.83643076  1
  Cr  Cr30  1  0.16848891  0.50228784  0.50084224  1
  Ni  Ni31  1  0.00195734  0.33659336  0.67001484  1
  Ni  Ni32  1  0.16910016  0.50281970  0.83562092  1
  Ni  Ni33  1  0.16954522  0.83565396  0.50107761  1
  Ni  Ni34  1  1.00089547  0.66694809  0.66903885  1
  Ni  Ni35  1  0.16982965  0.83332116  0.83476793  1
  Fe  Fe36  1  0.49959840  0.16838714  0.50096816  1
  Ni  Ni37  1  0.33475568  0.00159341  0.66785065  1
  Ni  Ni38  1  0.50138776  0.16876330  0.83487984  1
  Ni  Ni39  1  0.50161806  0.50116742  0.50210764  1
  Ni  Ni40  1  0.33530741  0.33419994  0.66976759  1
  Ni  Ni41  1  0.50029028  0.50127142  0.83437138  1
  Ni  Ni42  1  0.49958966  0.83389532  0.50022498  1
  Ni  Ni43  1  0.33598532  0.66891131  0.66837579  1
  Ni  Ni44  1  0.49915761  0.83470757  0.83622533  1
  Cr  Cr45  1  0.83491059  0.16921986  0.49873169  1
  Cr  Cr46  1  0.66570241  0.99914159  0.66935873  1
  Ni  Ni47  1  0.83375507  0.16951091  0.83749630  1
  Ni  Ni48  1  0.83342702  0.50212527  0.50196643  1
  Ni  Ni49  1  0.66718918  0.33748528  0.66847604  1
  Ni  Ni50  1  0.83519911  0.50058786  0.83361908  1
  Ni  Ni51  1  0.83526919  0.83317858  0.50002669  1
  Ni  Ni52  1  0.66759410  0.66636868  0.66838631  1
  Ni  Ni53  1  0.83559283  0.83418483  0.83668297  1
" 