5411,Ni77Cr23_11,-208.65808183654, 155.429858880578,Ni77Cr23,"# generated using pymatgen
 data_Cr41Ni13
_symmetry_space_group_name_H-M   'P 1'
_cell_length_a   7.57383913
_cell_length_b   7.57383913
_cell_length_c   10.71102601
_cell_angle_alpha   90.00000000
_cell_angle_beta   90.00000000
_cell_angle_gamma   90.00000000
_symmetry_Int_Tables_number   1
_chemical_formula_structural   Cr41Ni13
_chemical_formula_sum   'Cr41 Ni13'
_cell_volume   614.41700415
_cell_formula_units_Z   1
loop_
 _symmetry_equiv_pos_site_id
 _symmetry_equiv_pos_as_xyz
  1  'x, y, z'
loop_
 _atom_site_type_symbol
 _atom_site_label
 _atom_site_symmetry_multiplicity
 _atom_site_fract_x
 _atom_site_fract_y
 _atom_site_fract_z
 _atom_site_occupancy
  Cr  Cr0  1  -0.00702944  0.99141809  -0.00668282  1
  Cr  Cr1  1  0.16046602  0.16204500  0.15956017  1
  Cr  Cr2  1  0.99065901  0.99178723  0.32652346  1
  Cr  Cr3  1  -0.00510961  0.32792378  -0.00603615  1
  Ni  Ni4  1  0.16229230  0.49601284  0.16204708  1
  Cr  Cr5  1  0.99139762  0.32907300  0.32695975  1
  Cr  Cr6  1  0.99290881  0.65962279  -0.00504914  1
  Cr  Cr7  1  0.15830841  0.82317519  0.16369958  1
  Ni  Ni8  1  -0.00605373  0.65787614  0.32459263  1
  Cr  Cr9  1  0.32633455  -0.00610789  -0.00660877  1
  Ni  Ni10  1  0.49316795  0.16249207  0.15924753  1
  Cr  Cr11  1  0.32740571  0.99279244  0.32451794  1
  Cr  Cr12  1  0.32664814  0.32744977  -0.00369815  1
  Ni  Ni13  1  0.49105996  0.49379264  0.15971899  1
  Cr  Cr14  1  0.32863542  0.32921796  0.32295084  1
  Cr  Cr15  1  0.32587204  0.65775823  -0.00667345  1
  Cr  Cr16  1  0.49506921  0.82446189  0.16013883  1
  Ni  Ni17  1  0.32552185  0.65504695  0.32504476  1
  Cr  Cr18  1  0.65960978  0.99226534  -0.00464631  1
  Cr  Cr19  1  0.82494635  0.15887737  0.15979952  1
  Cr  Cr20  1  0.66066563  -0.00446935  0.32580891  1
  Cr  Cr21  1  0.65748237  0.32782673  -0.00409321  1
  Cr  Cr22  1  0.82641216  0.49609372  0.15878515  1
  Cr  Cr23  1  0.65888244  0.32668745  0.32838719  1
  Ni  Ni24  1  0.65916142  0.65946776  -0.00427947  1
  Ni  Ni25  1  0.82583650  0.82300322  0.15949857  1
  Cr  Cr26  1  0.66012485  0.65644373  0.32808499  1
  Cr  Cr27  1  0.15753945  0.16060467  0.49647753  1
  Ni  Ni28  1  0.99144025  -0.00332616  0.65841767  1
  Cr  Cr29  1  0.15836017  0.16150851  0.82235639  1
  Cr  Cr30  1  0.15978796  0.49263594  0.49155579  1
  Ni  Ni31  1  0.99280297  0.32445667  0.65700093  1
  Cr  Cr32  1  0.15905566  0.48952368  0.82473733  1
  Cr  Cr33  1  0.15981268  0.82540091  0.49046805  1
  Cr  Cr34  1  0.99196208  0.65890167  0.65905132  1
  Cr  Cr35  1  0.15898004  0.82762660  0.82394495  1
  Cr  Cr36  1  0.49244079  0.16132897  0.49299494  1
  Cr  Cr37  1  0.32517856  0.99292441  0.66074453  1
  Cr  Cr38  1  0.49219836  0.16109665  0.82635100  1
  Ni  Ni39  1  0.49270054  0.49238928  0.49291005  1
  Ni  Ni40  1  0.32495263  0.32761189  0.65856129  1
  Cr  Cr41  1  0.49411352  0.49300291  0.82639600  1
  Cr  Cr42  1  0.49123430  0.82314921  0.49191633  1
  Cr  Cr43  1  0.32699758  0.65709427  0.65869700  1
  Cr  Cr44  1  0.49504333  0.82452729  0.82724569  1
  Ni  Ni45  1  0.82877593  0.16253411  0.49587861  1
  Cr  Cr46  1  0.66185260  -0.00657971  0.65776102  1
  Cr  Cr47  1  0.82826953  0.16136273  0.82396748  1
  Ni  Ni48  1  0.82678260  0.49046254  0.49338946  1
  Cr  Cr49  1  0.66030134  0.32783579  0.65494927  1
  Cr  Cr50  1  0.82556594  0.49222619  0.82725619  1
  Cr  Cr51  1  0.82784416  0.82598992  0.49144174  1
  Cr  Cr52  1  0.65986657  0.65751327  0.65846607  1
  Cr  Cr53  1  0.82476336  0.82546235  0.82876357  1
" 