1169,Ni77Fe4Cr17_10,-231.980633712021, 159.706124322989,Ni77Fe4Cr17,"# generated using pymatgen
 data_Cr11Fe2Ni41
_symmetry_space_group_name_H-M   'P 1'
_cell_length_a   7.46821211
_cell_length_b   7.46821211
_cell_length_c   10.56164685
_cell_angle_alpha   90.00000000
_cell_angle_beta   90.00000000
_cell_angle_gamma   90.00000000
_symmetry_Int_Tables_number   1
_chemical_formula_structural   Cr11Fe2Ni41
_chemical_formula_sum   'Cr11 Fe2 Ni41'
_cell_volume   589.06731958
_cell_formula_units_Z   1
loop_
 _symmetry_equiv_pos_site_id
 _symmetry_equiv_pos_as_xyz
  1  'x, y, z'
loop_
 _atom_site_type_symbol
 _atom_site_label
 _atom_site_symmetry_multiplicity
 _atom_site_fract_x
 _atom_site_fract_y
 _atom_site_fract_z
 _atom_site_occupancy
  Ni  Ni0  1  0.00080532  0.99846395  0.00093864  1
  Ni  Ni1  1  0.16701687  0.16778108  0.16542962  1
  Ni  Ni2  1  0.99884529  0.99863235  0.33196713  1
  Ni  Ni3  1  0.00154801  0.33561765  0.99957062  1
  Ni  Ni4  1  0.16609612  0.49913663  0.16575964  1
  Ni  Ni5  1  0.00136579  0.33568569  0.33327340  1
  Ni  Ni6  1  -0.00005893  0.66586571  0.00098242  1
  Ni  Ni7  1  0.16499334  0.83282796  0.16534365  1
  Ni  Ni8  1  0.99939825  0.66541716  0.33248669  1
  Ni  Ni9  1  0.33396168  0.00006453  0.00073975  1
  Ni  Ni10  1  0.49760363  0.16827513  0.16403155  1
  Cr  Cr11  1  0.33417827  0.00054802  0.33040113  1
  Ni  Ni12  1  0.33316004  0.33360076  0.00013565  1
  Ni  Ni13  1  0.49921808  0.49913503  0.16444176  1
  Ni  Ni14  1  0.33214630  0.33441918  0.33233685  1
  Ni  Ni15  1  0.33285384  0.66610432  0.00088795  1
  Ni  Ni16  1  0.49992217  0.83235935  0.16262811  1
  Cr  Cr17  1  0.33206258  0.66478190  0.33238096  1
  Ni  Ni18  1  0.66484995  0.99868272  0.99961845  1
  Cr  Cr19  1  0.83439504  0.16790814  0.16533248  1
  Cr  Cr20  1  0.66649655  0.99892429  0.33505138  1
  Ni  Ni21  1  0.66515751  0.33444250  0.00016751  1
  Ni  Ni22  1  0.83434263  0.50137921  0.16502694  1
  Cr  Cr23  1  0.66525297  0.33393611  0.33473878  1
  Fe  Fe24  1  0.66657899  0.66646786  0.99916169  1
  Ni  Ni25  1  0.83481198  0.83151711  0.16472903  1
  Cr  Cr26  1  0.66771352  0.66696273  0.33295866  1
  Cr  Cr27  1  0.16601500  0.16791187  0.50025890  1
  Ni  Ni28  1  0.99800172  0.99974648  0.66667605  1
  Ni  Ni29  1  0.16811256  0.16758677  0.83368639  1
  Ni  Ni30  1  0.16609176  0.49909603  0.50127902  1
  Ni  Ni31  1  0.00141992  0.33541940  0.66713734  1
  Fe  Fe32  1  0.16726130  0.49974877  0.83349392  1
  Cr  Cr33  1  0.16586887  0.83151983  0.50123816  1
  Ni  Ni34  1  0.99826664  0.66456833  0.66634955  1
  Cr  Cr35  1  0.16706979  0.83392208  0.83228484  1
  Ni  Ni36  1  0.49900968  0.16717800  0.50175514  1
  Ni  Ni37  1  0.33598691  0.00078193  0.66782919  1
  Ni  Ni38  1  0.49749600  0.16649815  0.83407570  1
  Ni  Ni39  1  0.49836251  0.50024189  0.50132186  1
  Ni  Ni40  1  0.33259069  0.33433396  0.66756546  1
  Ni  Ni41  1  0.49979200  0.50083393  0.83398562  1
  Ni  Ni42  1  0.50127612  0.83227956  0.50409632  1
  Ni  Ni43  1  0.33460974  0.66462722  0.66642625  1
  Ni  Ni44  1  0.50063587  0.83229481  0.83293508  1
  Ni  Ni45  1  0.83483356  0.16612178  0.50075961  1
  Ni  Ni46  1  0.66587523  0.99778625  0.66565722  1
  Cr  Cr47  1  0.83424610  0.16610488  0.83417895  1
  Ni  Ni48  1  0.83540349  0.50107669  0.50040815  1
  Cr  Cr49  1  0.66674095  0.33377594  0.66539416  1
  Ni  Ni50  1  0.83304788  0.50206214  0.83433059  1
  Ni  Ni51  1  0.83375564  0.83252276  0.50183731  1
  Ni  Ni52  1  0.66707086  0.66764378  0.66717122  1
  Ni  Ni53  1  0.83223342  0.83116967  0.83313754  1
" 