8714,Ni77Cr23_5,-208.512879607059, 151.863462193884,Ni77Cr23,"# generated using pymatgen
 data_Cr41Ni13
_symmetry_space_group_name_H-M   'P 1'
_cell_length_a   7.57846344
_cell_length_b   7.57846344
_cell_length_c   10.71756578
_cell_angle_alpha   90.00000000
_cell_angle_beta   90.00000000
_cell_angle_gamma   90.00000000
_symmetry_Int_Tables_number   1
_chemical_formula_structural   Cr41Ni13
_chemical_formula_sum   'Cr41 Ni13'
_cell_volume   615.54311350
_cell_formula_units_Z   1
loop_
 _symmetry_equiv_pos_site_id
 _symmetry_equiv_pos_as_xyz
  1  'x, y, z'
loop_
 _atom_site_type_symbol
 _atom_site_label
 _atom_site_symmetry_multiplicity
 _atom_site_fract_x
 _atom_site_fract_y
 _atom_site_fract_z
 _atom_site_occupancy
  Ni  Ni0  1  0.99043443  -0.00414461  0.98997758  1
  Cr  Cr1  1  0.16080747  0.15910586  0.15938495  1
  Cr  Cr2  1  -0.00720311  0.99216358  0.32672916  1
  Cr  Cr3  1  0.99154227  0.32410107  0.99142014  1
  Cr  Cr4  1  0.16234341  0.49280265  0.16182524  1
  Cr  Cr5  1  0.99180407  0.32569867  0.32584517  1
  Cr  Cr6  1  0.99194342  0.65894348  -0.00550811  1
  Cr  Cr7  1  0.15875509  0.82631470  0.15868347  1
  Cr  Cr8  1  -0.00681588  0.65998774  0.32573774  1
  Cr  Cr9  1  0.32638843  -0.00515098  0.99256876  1
  Ni  Ni10  1  0.49583443  0.16024541  0.16021614  1
  Cr  Cr11  1  0.32793335  0.99219276  0.32642639  1
  Cr  Cr12  1  0.32626285  0.32326342  0.99232932  1
  Cr  Cr13  1  0.49221611  0.48935313  0.15992857  1
  Ni  Ni14  1  0.32969854  0.32629855  0.32470210  1
  Cr  Cr15  1  0.32654047  0.65998834  -0.00710534  1
  Cr  Cr16  1  0.49405455  0.82880128  0.15903078  1
  Ni  Ni17  1  0.32699073  0.65989436  0.32833701  1
  Ni  Ni18  1  0.66116538  -0.00228499  -0.00714203  1
  Cr  Cr19  1  0.82269378  0.15755219  0.15958817  1
  Ni  Ni20  1  0.65668096  -0.00526774  0.32565650  1
  Ni  Ni21  1  0.65968817  0.32088913  -0.00727230  1
  Cr  Cr22  1  0.82368203  0.49042859  0.15982305  1
  Ni  Ni23  1  0.65570767  0.32313611  0.32449225  1
  Cr  Cr24  1  0.65955111  0.65891919  0.99159461  1
  Cr  Cr25  1  0.82553484  0.83028547  0.15693054  1
  Cr  Cr26  1  0.65861005  0.66135657  0.32740522  1
  Cr  Cr27  1  0.15934897  0.15856578  0.49366051  1
  Ni  Ni28  1  -0.00664129  -0.00642475  0.66107768  1
  Ni  Ni29  1  0.15490655  0.15642775  0.82605450  1
  Cr  Cr30  1  0.16178403  0.49255302  0.49070940  1
  Cr  Cr31  1  0.99204101  0.32293282  0.66145109  1
  Cr  Cr32  1  0.16039752  0.49240694  0.82599479  1
  Ni  Ni33  1  0.16131707  0.82605588  0.49269434  1
  Cr  Cr34  1  0.99230896  0.66012976  0.65755765  1
  Cr  Cr35  1  0.15743435  0.82813437  0.82658177  1
  Cr  Cr36  1  0.49346698  0.16016219  0.48934826  1
  Cr  Cr37  1  0.32510352  0.99254990  0.65839856  1
  Cr  Cr38  1  0.49466456  0.15901429  0.82759316  1
  Cr  Cr39  1  0.49170017  0.49104038  0.49215733  1
  Cr  Cr40  1  0.32501125  0.32323347  0.66137181  1
  Cr  Cr41  1  0.49268552  0.49165009  0.82630241  1
  Ni  Ni42  1  0.49057093  0.82611548  0.49022778  1
  Cr  Cr43  1  0.32734841  0.66201846  0.65796091  1
  Cr  Cr44  1  0.49375838  0.82713284  0.82660058  1
  Cr  Cr45  1  0.82481247  0.15837132  0.49210070  1
  Cr  Cr46  1  0.65867086  0.99256477  0.65826472  1
  Ni  Ni47  1  0.82773686  0.15693731  0.82781142  1
  Cr  Cr48  1  0.82455749  0.49049223  0.49175066  1
  Cr  Cr49  1  0.66088830  0.32498451  0.66066651  1
  Cr  Cr50  1  0.82478966  0.49116511  0.82634060  1
  Cr  Cr51  1  0.82656338  0.82911550  0.49286191  1
  Cr  Cr52  1  0.65841141  0.66063326  0.65833001  1
  Cr  Cr53  1  0.82657383  0.83021918  0.82758162  1
" 