4648,Ni77Fe6Cr15_14,-234.002103325313, 170.147593351962,Ni77Fe6Cr15,"# generated using pymatgen
 data_Cr3FeNi14
_symmetry_space_group_name_H-M   'P 1'
_cell_length_a   7.46206877
_cell_length_b   7.46206877
_cell_length_c   10.55295885
_cell_angle_alpha   90.00000000
_cell_angle_beta   90.00000000
_cell_angle_gamma   90.00000000
_symmetry_Int_Tables_number   1
_chemical_formula_structural   Cr3FeNi14
_chemical_formula_sum   'Cr9 Fe3 Ni42'
_cell_volume   587.61481743
_cell_formula_units_Z   3
loop_
 _symmetry_equiv_pos_site_id
 _symmetry_equiv_pos_as_xyz
  1  'x, y, z'
loop_
 _atom_site_type_symbol
 _atom_site_label
 _atom_site_symmetry_multiplicity
 _atom_site_fract_x
 _atom_site_fract_y
 _atom_site_fract_z
 _atom_site_occupancy
  Ni  Ni0  1  0.00191942  0.00170403  0.00095345  1
  Ni  Ni1  1  0.16833557  0.16680263  0.16770977  1
  Ni  Ni2  1  0.99960626  0.00162382  0.33269027  1
  Cr  Cr3  1  0.99983555  0.33202079  0.00116330  1
  Ni  Ni4  1  0.16845065  0.50072859  0.16828070  1
  Ni  Ni5  1  0.99965968  0.33485507  0.33315471  1
  Ni  Ni6  1  0.00061691  0.66609253  0.00131610  1
  Fe  Fe7  1  0.16830633  0.83355131  0.16736435  1
  Ni  Ni8  1  1.00008763  0.66450814  0.33453207  1
  Ni  Ni9  1  0.33457881  0.00111331  0.00063289  1
  Ni  Ni10  1  0.50034444  0.16711432  0.16692421  1
  Ni  Ni11  1  0.33596794  1.00007430  0.33182375  1
  Ni  Ni12  1  0.33460152  0.33148203  0.00172830  1
  Ni  Ni13  1  0.49988068  0.50023262  0.16688515  1
  Ni  Ni14  1  0.33419301  0.33470182  0.33296336  1
  Ni  Ni15  1  0.33479549  0.66848181  0.00232187  1
  Ni  Ni16  1  0.49970738  0.83368026  0.16663455  1
  Ni  Ni17  1  0.33511102  0.66622119  0.33378564  1
  Ni  Ni18  1  0.66460010  0.00193748  0.99923227  1
  Ni  Ni19  1  0.83238374  0.16694226  0.16808437  1
  Ni  Ni20  1  0.66555052  0.00057364  0.33592090  1
  Ni  Ni21  1  0.66665004  0.33276597  0.00074917  1
  Ni  Ni22  1  0.83269963  0.50029176  0.16729395  1
  Ni  Ni23  1  0.66720492  0.33428268  0.33395697  1
  Ni  Ni24  1  0.66572587  0.66625672  0.00129872  1
  Cr  Cr25  1  0.83229801  0.83418446  0.16721254  1
  Ni  Ni26  1  0.66584017  0.66614759  0.33438689  1
  Cr  Cr27  1  0.16758523  0.16913368  0.49970915  1
  Ni  Ni28  1  0.99907416  0.00319503  0.66735596  1
  Ni  Ni29  1  0.16824587  0.16615984  0.83291781  1
  Ni  Ni30  1  0.16734456  0.50009372  0.50070856  1
  Ni  Ni31  1  0.99873944  0.33329276  0.66695606  1
  Cr  Cr32  1  0.16747265  0.49901303  0.83150031  1
  Cr  Cr33  1  0.16639959  0.83366417  0.49940066  1
  Fe  Fe34  1  0.99877504  0.66551994  0.66515973  1
  Cr  Cr35  1  0.16814679  0.83481303  0.83423688  1
  Ni  Ni36  1  0.50199101  0.16746688  0.50049774  1
  Ni  Ni37  1  0.33620752  0.00139712  0.66837120  1
  Ni  Ni38  1  0.50034446  0.16570827  0.83354495  1
  Ni  Ni39  1  0.49930539  0.49858925  0.49886110  1
  Ni  Ni40  1  0.33417601  0.33188972  0.66608002  1
  Cr  Cr41  1  0.50100962  0.49835291  0.83606306  1
  Ni  Ni42  1  0.50114442  0.83500731  0.49953151  1
  Fe  Fe43  1  0.33538912  0.66719658  0.66506428  1
  Ni  Ni44  1  0.49986274  0.83636520  0.83459728  1
  Ni  Ni45  1  0.83197751  0.16671252  0.50026821  1
  Ni  Ni46  1  0.66571498  0.00182211  0.66604650  1
  Ni  Ni47  1  0.83238902  0.16715388  0.83271513  1
  Ni  Ni48  1  0.83437956  0.49912417  0.49929630  1
  Ni  Ni49  1  0.66819346  0.33222601  0.66646503  1
  Ni  Ni50  1  0.83348051  0.49861698  0.83430197  1
  Ni  Ni51  1  0.83291144  0.83512194  0.49930470  1
  Cr  Cr52  1  0.66639882  0.66747042  0.66487523  1
  Cr  Cr53  1  0.83240473  0.83453732  0.83518538  1
" 