5064,Ni77Fe18Cr4_16,-239.414348131482, 195.72682794105,Ni77Fe18Cr4,"# generated using pymatgen
 data_Cr4Fe9Ni41
_symmetry_space_group_name_H-M   'P 1'
_cell_length_a   7.43157817
_cell_length_b   7.43157817
_cell_length_c   10.50983864
_cell_angle_alpha   90.00000000
_cell_angle_beta   90.00000000
_cell_angle_gamma   90.00000000
_symmetry_Int_Tables_number   1
_chemical_formula_structural   Cr4Fe9Ni41
_chemical_formula_sum   'Cr4 Fe9 Ni41'
_cell_volume   580.44108980
_cell_formula_units_Z   1
loop_
 _symmetry_equiv_pos_site_id
 _symmetry_equiv_pos_as_xyz
  1  'x, y, z'
loop_
 _atom_site_type_symbol
 _atom_site_label
 _atom_site_symmetry_multiplicity
 _atom_site_fract_x
 _atom_site_fract_y
 _atom_site_fract_z
 _atom_site_occupancy
  Ni  Ni0  1  1.00105398  1.00205831  1.00123182  1
  Cr  Cr1  1  0.16852403  0.16685363  0.17067890  1
  Ni  Ni2  1  1.00104446  1.00160951  0.33710250  1
  Ni  Ni3  1  0.99979616  0.33624649  1.00080670  1
  Fe  Fe4  1  0.16785947  0.50414050  0.17055270  1
  Ni  Ni5  1  1.00141857  0.33667139  0.33708214  1
  Fe  Fe6  1  1.00185487  0.66999823  0.00247475  1
  Ni  Ni7  1  0.16836598  0.83478885  0.16845655  1
  Ni  Ni8  1  0.00256087  0.66888020  0.33552770  1
  Ni  Ni9  1  0.33655202  0.99955863  1.00038308  1
  Ni  Ni10  1  0.50436280  0.16997882  0.16918716  1
  Ni  Ni11  1  0.33656392  1.00162923  0.33717405  1
  Cr  Cr12  1  0.33563993  0.33600393  0.00278060  1
  Ni  Ni13  1  0.50421424  0.50255405  0.16991773  1
  Ni  Ni14  1  0.33661966  0.33711467  0.33697660  1
  Ni  Ni15  1  0.33531253  0.67117636  0.00315615  1
  Fe  Fe16  1  0.50312956  0.83586103  0.16894377  1
  Ni  Ni17  1  0.33548755  0.66842431  0.33572866  1
  Ni  Ni18  1  0.66956607  1.00224123  1.00227852  1
  Ni  Ni19  1  0.83428117  0.16950430  0.16820581  1
  Ni  Ni20  1  0.66958785  0.00276035  0.33545483  1
  Ni  Ni21  1  0.67173312  0.33499905  0.00307321  1
  Ni  Ni22  1  0.83410548  0.50270401  0.16830036  1
  Ni  Ni23  1  0.66909922  0.33561530  0.33551102  1
  Ni  Ni24  1  0.66928602  0.66991377  1.00236444  1
  Ni  Ni25  1  0.83678461  0.83499270  0.16899967  1
  Ni  Ni26  1  0.66911971  0.66881136  0.33676486  1
  Ni  Ni27  1  0.16946769  0.16879537  0.50262109  1
  Ni  Ni28  1  1.00148840  1.00181874  0.66883334  1
  Ni  Ni29  1  0.16880798  0.16756394  0.83477317  1
  Ni  Ni30  1  0.16855521  0.50146399  0.50135298  1
  Fe  Fe31  1  0.00337109  0.33477994  0.66845753  1
  Fe  Fe32  1  0.16703231  0.50283877  0.83516364  1
  Ni  Ni33  1  0.16779150  0.83687624  0.50180347  1
  Ni  Ni34  1  1.00094087  0.66909886  0.66954779  1
  Ni  Ni35  1  0.16753917  0.83770853  0.83688229  1
  Ni  Ni36  1  0.50157594  0.16982755  0.50265470  1
  Ni  Ni37  1  0.33623825  0.00439507  0.66970431  1
  Ni  Ni38  1  0.50179810  0.16764940  0.83531244  1
  Ni  Ni39  1  0.50331356  0.50129827  0.50144379  1
  Ni  Ni40  1  0.33521454  0.33384841  0.66812017  1
  Cr  Cr41  1  0.50453406  0.50207296  0.83534059  1
  Ni  Ni42  1  0.50307520  0.83604951  0.50167010  1
  Cr  Cr43  1  0.33454741  0.66972725  0.66771074  1
  Ni  Ni44  1  0.50304453  0.83766828  0.83751496  1
  Ni  Ni45  1  0.83614823  0.16906568  0.50211072  1
  Ni  Ni46  1  0.66943021  0.00265736  0.66943473  1
  Fe  Fe47  1  0.83552330  0.16727011  0.83627529  1
  Ni  Ni48  1  0.83529652  0.50297286  0.50281685  1
  Fe  Fe49  1  0.66924983  0.33400652  0.66774472  1
  Fe  Fe50  1  0.83710466  0.50287804  0.83620808  1
  Ni  Ni51  1  0.83631849  0.83511157  0.50240113  1
  Fe  Fe52  1  0.67098297  0.67126313  0.66806535  1
  Ni  Ni53  1  0.83655175  0.83506902  0.83578736  1
" 