6163,Ni77Fe18Cr4_0,-239.082856788848, 195.966944560045,Ni77Fe18Cr4,"# generated using pymatgen
 data_Cr4Fe9Ni41
_symmetry_space_group_name_H-M   'P 1'
_cell_length_a   7.43313102
_cell_length_b   7.43313102
_cell_length_c   10.51203470
_cell_angle_alpha   90.00000000
_cell_angle_beta   90.00000000
_cell_angle_gamma   90.00000000
_symmetry_Int_Tables_number   1
_chemical_formula_structural   Cr4Fe9Ni41
_chemical_formula_sum   'Cr4 Fe9 Ni41'
_cell_volume   580.80501976
_cell_formula_units_Z   1
loop_
 _symmetry_equiv_pos_site_id
 _symmetry_equiv_pos_as_xyz
  1  'x, y, z'
loop_
 _atom_site_type_symbol
 _atom_site_label
 _atom_site_symmetry_multiplicity
 _atom_site_fract_x
 _atom_site_fract_y
 _atom_site_fract_z
 _atom_site_occupancy
  Ni  Ni0  1  1.00194045  1.00219944  1.00218877  1
  Ni  Ni1  1  0.16743464  0.16693492  0.16801102  1
  Fe  Fe2  1  1.00169761  1.00154653  0.33545566  1
  Fe  Fe3  1  1.00165967  0.33381246  1.00157711  1
  Cr  Cr4  1  0.16852380  0.50282018  0.16789470  1
  Ni  Ni5  1  0.99975131  0.33516620  0.33584259  1
  Fe  Fe6  1  1.00164225  0.67111781  1.00187615  1
  Ni  Ni7  1  0.16852184  0.83683772  0.16890035  1
  Ni  Ni8  1  1.00108904  0.66940582  0.33688382  1
  Ni  Ni9  1  0.33419564  0.00292782  0.00315366  1
  Ni  Ni10  1  0.50390246  0.16820067  0.16741832  1
  Ni  Ni11  1  0.33621410  1.00026580  0.33544828  1
  Ni  Ni12  1  0.33639422  0.33541061  1.00038139  1
  Ni  Ni13  1  0.50463327  0.50302655  0.16767343  1
  Cr  Cr14  1  0.33645221  0.33453090  0.33742875  1
  Ni  Ni15  1  0.33608239  0.66858010  0.00240444  1
  Ni  Ni16  1  0.50293244  0.83556792  0.16885496  1
  Ni  Ni17  1  0.33627968  0.67147088  0.33642216  1
  Ni  Ni18  1  0.67078526  0.00274717  0.00284568  1
  Ni  Ni19  1  0.83528581  0.16866098  0.16869508  1
  Ni  Ni20  1  0.66916051  1.00175434  0.33529489  1
  Ni  Ni21  1  0.66903759  0.33605272  1.00181121  1
  Fe  Fe22  1  0.83381482  0.50224108  0.16971926  1
  Ni  Ni23  1  0.67123458  0.33539768  0.33626380  1
  Ni  Ni24  1  0.66972024  0.66803562  0.00320871  1
  Ni  Ni25  1  0.83530267  0.83617087  0.16833127  1
  Ni  Ni26  1  0.66945054  0.66973224  0.33564639  1
  Ni  Ni27  1  0.16831879  0.16713816  0.50182519  1
  Ni  Ni28  1  1.00148779  1.00135179  0.66835400  1
  Ni  Ni29  1  0.16978746  0.16781479  0.83679777  1
  Ni  Ni30  1  0.16834626  0.50393254  0.50273978  1
  Cr  Cr31  1  0.00287486  0.33545583  0.66864221  1
  Ni  Ni32  1  0.16873559  0.50332826  0.83644693  1
  Ni  Ni33  1  0.16887312  0.83581584  0.50204104  1
  Fe  Fe34  1  0.00329465  0.67074359  0.66837812  1
  Ni  Ni35  1  0.16722260  0.83583186  0.83575843  1
  Ni  Ni36  1  0.50363041  0.16756116  0.50365809  1
  Ni  Ni37  1  0.33475620  0.00272034  0.66826648  1
  Ni  Ni38  1  0.50234688  0.17005639  0.83575998  1
  Ni  Ni39  1  0.50358631  0.50320215  0.50366493  1
  Ni  Ni40  1  0.33586066  0.33650281  0.66939325  1
  Ni  Ni41  1  0.50292724  0.50089644  0.83552373  1
  Ni  Ni42  1  0.50271872  0.83597332  0.50168276  1
  Ni  Ni43  1  0.33501506  0.66768800  0.66791218  1
  Cr  Cr44  1  0.50162242  0.83686427  0.83636095  1
  Ni  Ni45  1  0.83464782  0.16809712  0.50154812  1
  Ni  Ni46  1  0.67061400  0.00230957  0.66876722  1
  Fe  Fe47  1  0.83513291  0.16834323  0.83636006  1
  Ni  Ni48  1  0.83482707  0.50281603  0.50037703  1
  Fe  Fe49  1  0.66728288  0.33482123  0.66875409  1
  Ni  Ni50  1  0.83505660  0.50323897  0.83726284  1
  Ni  Ni51  1  0.83537564  0.83582694  0.50311763  1
  Fe  Fe52  1  0.66907577  0.66847078  0.66819325  1
  Fe  Fe53  1  0.83664144  0.83578170  0.83598025  1
" 