1612,Ni77Fe4Cr17_19,-231.854855450802, 159.816404168934,Ni77Fe4Cr17,"# generated using pymatgen
 data_Cr11Fe2Ni41
_symmetry_space_group_name_H-M   'P 1'
_cell_length_a   7.47064626
_cell_length_b   7.47064626
_cell_length_c   10.56508927
_cell_angle_alpha   90.00000000
_cell_angle_beta   90.00000000
_cell_angle_gamma   90.00000000
_symmetry_Int_Tables_number   1
_chemical_formula_structural   Cr11Fe2Ni41
_chemical_formula_sum   'Cr11 Fe2 Ni41'
_cell_volume   589.64350195
_cell_formula_units_Z   1
loop_
 _symmetry_equiv_pos_site_id
 _symmetry_equiv_pos_as_xyz
  1  'x, y, z'
loop_
 _atom_site_type_symbol
 _atom_site_label
 _atom_site_symmetry_multiplicity
 _atom_site_fract_x
 _atom_site_fract_y
 _atom_site_fract_z
 _atom_site_occupancy
  Cr  Cr0  1  0.00080568  0.00034724  0.99706046  1
  Ni  Ni1  1  0.16747361  0.16931451  0.16687491  1
  Ni  Ni2  1  0.00062493  0.99913150  0.33418885  1
  Ni  Ni3  1  0.99962978  0.33448029  0.00047260  1
  Ni  Ni4  1  0.16596968  0.49692407  0.16737832  1
  Ni  Ni5  1  0.00062233  0.33533838  0.33153180  1
  Ni  Ni6  1  0.99700440  0.66410914  0.99896019  1
  Cr  Cr7  1  0.16806005  0.83329458  0.16732743  1
  Ni  Ni8  1  0.99975867  0.66480708  0.33468347  1
  Ni  Ni9  1  0.33369903  0.00218033  0.99930538  1
  Cr  Cr10  1  0.49844748  0.16598471  0.16634001  1
  Ni  Ni11  1  0.33390937  0.99896493  0.33342124  1
  Ni  Ni12  1  0.33290618  0.33116557  -0.00011706  1
  Ni  Ni13  1  0.50019790  0.50066425  0.16676352  1
  Ni  Ni14  1  0.33179565  0.33338935  0.33198586  1
  Cr  Cr15  1  0.33374685  0.66601208  0.00103161  1
  Ni  Ni16  1  0.50036737  0.83208943  0.16743173  1
  Ni  Ni17  1  0.33282582  0.66692349  0.33315251  1
  Ni  Ni18  1  0.66492026  0.99955551  0.99850235  1
  Cr  Cr19  1  0.83415871  0.16830423  0.16783861  1
  Ni  Ni20  1  0.66474348  0.99809992  0.33462740  1
  Ni  Ni21  1  0.66674260  0.33481744  0.99782230  1
  Ni  Ni22  1  0.83311012  0.49954645  0.16598153  1
  Ni  Ni23  1  0.66686015  0.33425476  0.33319024  1
  Ni  Ni24  1  0.66823633  0.66490385  0.00001769  1
  Cr  Cr25  1  0.83045469  0.83136280  0.16669298  1
  Ni  Ni26  1  0.66669259  0.66692248  0.33255726  1
  Cr  Cr27  1  0.16768738  0.16696371  0.49896719  1
  Fe  Fe28  1  -0.00019339  0.99804415  0.66796376  1
  Ni  Ni29  1  0.16656046  0.16552140  0.83322324  1
  Ni  Ni30  1  0.16506863  0.50162619  0.49947453  1
  Ni  Ni31  1  0.99901988  0.33460016  0.66727308  1
  Cr  Cr32  1  0.16643616  0.49906866  0.83213997  1
  Ni  Ni33  1  0.16674457  0.83137400  0.50011133  1
  Ni  Ni34  1  0.99918905  0.66681963  0.66563215  1
  Ni  Ni35  1  0.16502549  0.83549735  0.83145970  1
  Ni  Ni36  1  0.49992806  0.16443240  0.50026283  1
  Ni  Ni37  1  0.33339019  0.99965118  0.66655052  1
  Fe  Fe38  1  0.50007774  0.16777451  0.83272473  1
  Cr  Cr39  1  0.49937265  0.49972791  0.50029966  1
  Ni  Ni40  1  0.33351267  0.33189839  0.66740818  1
  Ni  Ni41  1  0.50233716  0.49758904  0.83271287  1
  Ni  Ni42  1  0.49975898  0.83474382  0.49890741  1
  Ni  Ni43  1  0.33155310  0.66772736  0.66530832  1
  Cr  Cr44  1  0.50036569  0.83274768  0.83330549  1
  Cr  Cr45  1  0.83144314  0.16657519  0.49877121  1
  Ni  Ni46  1  0.66583659  -0.00017972  0.66614886  1
  Ni  Ni47  1  0.83282638  0.16710206  0.83262805  1
  Ni  Ni48  1  0.83461951  0.50145585  0.49966777  1
  Ni  Ni49  1  0.66674591  0.33275869  0.66826556  1
  Ni  Ni50  1  0.83111935  0.49912533  0.83362802  1
  Ni  Ni51  1  0.83277373  0.83171349  0.49976894  1
  Ni  Ni52  1  0.66853540  0.66669724  0.66670314  1
  Ni  Ni53  1  0.83349575  0.83304991  0.83266422  1
" 