201,Ni77Fe12Cr9_4,-237.045022172823, 184.167438252216,Ni77Fe12Cr9,"# generated using pymatgen
 data_CrFeNi7
_symmetry_space_group_name_H-M   'P 1'
_cell_length_a   7.44672844
_cell_length_b   7.44672844
_cell_length_c   10.53126435
_cell_angle_alpha   90.00000000
_cell_angle_beta   90.00000000
_cell_angle_gamma   90.00000000
_symmetry_Int_Tables_number   1
_chemical_formula_structural   CrFeNi7
_chemical_formula_sum   'Cr6 Fe6 Ni42'
_cell_volume   583.99825296
_cell_formula_units_Z   6
loop_
 _symmetry_equiv_pos_site_id
 _symmetry_equiv_pos_as_xyz
  1  'x, y, z'
loop_
 _atom_site_type_symbol
 _atom_site_label
 _atom_site_symmetry_multiplicity
 _atom_site_fract_x
 _atom_site_fract_y
 _atom_site_fract_z
 _atom_site_occupancy
  Ni  Ni0  1  0.00245731  0.99930954  0.00188022  1
  Ni  Ni1  1  0.17075272  0.16754941  0.16943072  1
  Fe  Fe2  1  1.00084980  0.00143070  0.33464008  1
  Cr  Cr3  1  0.00214974  0.33550152  0.99962465  1
  Ni  Ni4  1  0.17044123  0.50171856  0.16881122  1
  Ni  Ni5  1  0.00293030  0.33557023  0.33645941  1
  Ni  Ni6  1  0.00325068  0.66958443  0.00155265  1
  Fe  Fe7  1  0.16875272  0.83443813  0.16781346  1
  Ni  Ni8  1  1.00108145  0.66713130  0.33435437  1
  Ni  Ni9  1  0.33546968  1.00096113  0.00149038  1
  Ni  Ni10  1  0.49884173  0.16742844  0.16756675  1
  Ni  Ni11  1  0.33647426  0.00224803  0.33325382  1
  Ni  Ni12  1  0.33668223  0.33469456  0.00185880  1
  Ni  Ni13  1  0.49877930  0.50147005  0.16766360  1
  Ni  Ni14  1  0.33412031  0.33433315  0.33417747  1
  Ni  Ni15  1  0.33417152  0.66843535  1.00133093  1
  Ni  Ni16  1  0.50167933  0.83519452  0.16811822  1
  Ni  Ni17  1  0.33511345  0.66751259  0.33393418  1
  Ni  Ni18  1  0.66616872  0.00182347  0.00141925  1
  Cr  Cr19  1  0.83396211  0.16556892  0.16790703  1
  Ni  Ni20  1  0.66666205  1.00040046  0.33572822  1
  Ni  Ni21  1  0.66501715  0.33390201  0.99976253  1
  Cr  Cr22  1  0.83425663  0.50387912  0.16866952  1
  Ni  Ni23  1  0.66704203  0.33421118  0.33611316  1
  Fe  Fe24  1  0.66608410  0.66842900  0.00137898  1
  Ni  Ni25  1  0.83474662  0.83488424  0.16844065  1
  Ni  Ni26  1  0.66789934  0.66948218  0.33510908  1
  Fe  Fe27  1  0.16730276  0.17082853  0.50072588  1
  Ni  Ni28  1  0.99934134  0.00291004  0.66797396  1
  Ni  Ni29  1  0.16847797  0.16861150  0.83428832  1
  Ni  Ni30  1  0.16774215  0.49998282  0.50161599  1
  Ni  Ni31  1  1.00098516  0.33525994  0.66812176  1
  Ni  Ni32  1  0.16848365  0.50115439  0.83366604  1
  Cr  Cr33  1  0.16733018  0.83319573  0.50138578  1
  Ni  Ni34  1  1.00117684  0.66592681  0.66818631  1
  Fe  Fe35  1  0.16930822  0.83335150  0.83547203  1
  Ni  Ni36  1  0.50279250  0.16856213  0.50031549  1
  Cr  Cr37  1  0.33640257  0.00146071  0.66905950  1
  Ni  Ni38  1  0.50101843  0.16855959  0.83620860  1
  Ni  Ni39  1  0.50094792  0.50102555  0.50157704  1
  Ni  Ni40  1  0.33433361  0.33653125  0.66805787  1
  Ni  Ni41  1  0.50070856  0.50090003  0.83485107  1
  Ni  Ni42  1  0.50408552  0.83450570  0.50095284  1
  Ni  Ni43  1  0.33532457  0.66583199  0.66882885  1
  Ni  Ni44  1  0.50109388  0.83463212  0.83502066  1
  Ni  Ni45  1  0.83429748  0.16757170  0.50226014  1
  Ni  Ni46  1  0.66886603  0.00191945  0.66694413  1
  Fe  Fe47  1  0.83334524  0.16936577  0.83351953  1
  Ni  Ni48  1  0.83540263  0.50127835  0.50149444  1
  Ni  Ni49  1  0.66877227  0.33469767  0.66821568  1
  Ni  Ni50  1  0.83489863  0.50122839  0.83386458  1
  Ni  Ni51  1  0.83325668  0.83524402  0.50105116  1
  Ni  Ni52  1  0.66759329  0.66747753  0.66717700  1
  Cr  Cr53  1  0.83454770  0.83456688  0.83434826  1
" 