6001,Ni77Cr23_12,-208.648355205706, 157.105707037776,Ni77Cr23,"# generated using pymatgen
 data_Cr41Ni13
_symmetry_space_group_name_H-M   'P 1'
_cell_length_a   7.57254844
_cell_length_b   7.57254844
_cell_length_c   10.70920071
_cell_angle_alpha   90.00000000
_cell_angle_beta   90.00000000
_cell_angle_gamma   90.00000000
_symmetry_Int_Tables_number   1
_chemical_formula_structural   Cr41Ni13
_chemical_formula_sum   'Cr41 Ni13'
_cell_volume   614.10294276
_cell_formula_units_Z   1
loop_
 _symmetry_equiv_pos_site_id
 _symmetry_equiv_pos_as_xyz
  1  'x, y, z'
loop_
 _atom_site_type_symbol
 _atom_site_label
 _atom_site_symmetry_multiplicity
 _atom_site_fract_x
 _atom_site_fract_y
 _atom_site_fract_z
 _atom_site_occupancy
  Ni  Ni0  1  0.99112942  -0.00678704  0.99184971  1
  Cr  Cr1  1  0.16020372  0.15753916  0.15990383  1
  Cr  Cr2  1  0.99136043  -0.00595790  0.32727847  1
  Cr  Cr3  1  0.99217840  0.32844721  0.99220886  1
  Cr  Cr4  1  0.16010369  0.49514132  0.16008302  1
  Cr  Cr5  1  -0.00622153  0.32811988  0.32871972  1
  Ni  Ni6  1  -0.00643516  0.65998149  0.99189415  1
  Cr  Cr7  1  0.15822115  0.82674820  0.15781274  1
  Cr  Cr8  1  -0.00602812  0.65726017  0.32740886  1
  Cr  Cr9  1  0.32906335  -0.00670527  -0.00593644  1
  Ni  Ni10  1  0.49428796  0.16082815  0.15832402  1
  Cr  Cr11  1  0.32956839  0.99215395  0.32607508  1
  Cr  Cr12  1  0.32761350  0.32704294  -0.00670645  1
  Cr  Cr13  1  0.49456759  0.49229460  0.16000923  1
  Cr  Cr14  1  0.32562600  0.32810907  0.32564715  1
  Cr  Cr15  1  0.32481965  0.65799193  0.99154687  1
  Cr  Cr16  1  0.49235899  0.82405890  0.16190760  1
  Ni  Ni17  1  0.32835975  0.65949153  0.32858426  1
  Cr  Cr18  1  0.65945609  -0.00473486  -0.00675771  1
  Cr  Cr19  1  0.82704337  0.15988898  0.15823287  1
  Cr  Cr20  1  0.65812378  0.99213215  0.32650900  1
  Ni  Ni21  1  0.66029813  0.32423640  0.99301853  1
  Cr  Cr22  1  0.82437057  0.49466202  0.15946829  1
  Cr  Cr23  1  0.65986054  0.32521947  0.32353758  1
  Cr  Cr24  1  0.65975809  0.65915335  0.99277694  1
  Cr  Cr25  1  0.82829793  0.82488719  0.15906977  1
  Ni  Ni26  1  0.65637304  0.66055349  0.32780907  1
  Cr  Cr27  1  0.16115422  0.16092880  0.49374221  1
  Cr  Cr28  1  0.99115419  -0.00645498  0.66039376  1
  Cr  Cr29  1  0.15937723  0.15944960  0.82547575  1
  Ni  Ni30  1  0.16283794  0.49365501  0.49338012  1
  Cr  Cr31  1  -0.00596929  0.32859734  0.65865754  1
  Ni  Ni32  1  0.15924960  0.49235527  0.82612361  1
  Cr  Cr33  1  0.16133720  0.82637604  0.49156976  1
  Cr  Cr34  1  -0.00625472  0.65731404  0.66049457  1
  Cr  Cr35  1  0.15790962  0.82689153  0.83015171  1
  Cr  Cr36  1  0.49254943  0.16191549  0.49488459  1
  Cr  Cr37  1  0.32828306  0.99189382  0.65875297  1
  Cr  Cr38  1  0.49403729  0.16324433  0.82534264  1
  Cr  Cr39  1  0.49378729  0.49363143  0.49405240  1
  Ni  Ni40  1  0.32626610  0.32933022  0.65976487  1
  Cr  Cr41  1  0.49375781  0.49132249  0.82466166  1
  Ni  Ni42  1  0.49389232  0.82273675  0.49195572  1
  Cr  Cr43  1  0.32555974  0.65833945  0.65977844  1
  Cr  Cr44  1  0.49364758  0.82440881  0.82419072  1
  Cr  Cr45  1  0.82568992  0.16111015  0.49457088  1
  Cr  Cr46  1  0.65959882  0.99184594  0.65941575  1
  Ni  Ni47  1  0.82540777  0.16146064  0.82735321  1
  Cr  Cr48  1  0.82292789  0.49350886  0.49262356  1
  Ni  Ni49  1  0.65937620  0.32706325  0.66147526  1
  Cr  Cr50  1  0.82366128  0.49249949  0.82662630  1
  Cr  Cr51  1  0.82413442  0.82398668  0.49267573  1
  Ni  Ni52  1  0.65861942  0.65819259  0.65792775  1
  Cr  Cr53  1  0.82748465  0.82647613  0.82751918  1
" 