4344,Ni77Fe4Cr17_16,-231.901263538994, 159.496608793123,Ni77Fe4Cr17,"# generated using pymatgen
 data_Cr11Fe2Ni41
_symmetry_space_group_name_H-M   'P 1'
_cell_length_a   7.46810778
_cell_length_b   7.46810778
_cell_length_c   10.56149930
_cell_angle_alpha   90.00000000
_cell_angle_beta   90.00000000
_cell_angle_gamma   90.00000000
_symmetry_Int_Tables_number   1
_chemical_formula_structural   Cr11Fe2Ni41
_chemical_formula_sum   'Cr11 Fe2 Ni41'
_cell_volume   589.04263230
_cell_formula_units_Z   1
loop_
 _symmetry_equiv_pos_site_id
 _symmetry_equiv_pos_as_xyz
  1  'x, y, z'
loop_
 _atom_site_type_symbol
 _atom_site_label
 _atom_site_symmetry_multiplicity
 _atom_site_fract_x
 _atom_site_fract_y
 _atom_site_fract_z
 _atom_site_occupancy
  Cr  Cr0  1  0.00053372  0.99989083  0.99935777  1
  Ni  Ni1  1  0.16773041  0.16692057  0.16661845  1
  Ni  Ni2  1  0.00130095  0.00152825  0.33381416  1
  Ni  Ni3  1  0.99890664  0.33347507  0.00207706  1
  Ni  Ni4  1  0.16449628  0.49903726  0.16634164  1
  Ni  Ni5  1  0.99751034  0.33360661  0.33299150  1
  Ni  Ni6  1  0.99980818  0.66488496  0.00000546  1
  Ni  Ni7  1  0.16719499  0.83382753  0.16872922  1
  Ni  Ni8  1  0.00271485  0.66472457  0.33249582  1
  Ni  Ni9  1  0.33422326  0.00158666  0.00054246  1
  Ni  Ni10  1  0.50009239  0.16603647  0.16534703  1
  Ni  Ni11  1  0.33311047  0.99839053  0.33310110  1
  Ni  Ni12  1  0.33397867  0.33103208  0.00158348  1
  Ni  Ni13  1  0.50097846  0.49793881  0.16737810  1
  Cr  Cr14  1  0.33201718  0.33384837  0.33405233  1
  Cr  Cr15  1  0.33224785  0.66725745  0.00149773  1
  Ni  Ni16  1  0.49874731  0.83597954  0.16889574  1
  Ni  Ni17  1  0.33265837  0.66773892  0.33338688  1
  Ni  Ni18  1  0.66454061  0.00233155  0.99891303  1
  Fe  Fe19  1  0.83242298  0.16831910  0.16761887  1
  Ni  Ni20  1  0.66499027  0.00308892  0.33300454  1
  Ni  Ni21  1  0.66698202  0.33212003  0.99987294  1
  Ni  Ni22  1  0.83440786  0.49782996  0.16735744  1
  Ni  Ni23  1  0.66799736  0.33281097  0.33360053  1
  Cr  Cr24  1  0.66802708  0.66615286  0.99905349  1
  Cr  Cr25  1  0.83281700  0.83315233  0.16960699  1
  Fe  Fe26  1  0.66555875  0.66436975  0.33290476  1
  Ni  Ni27  1  0.16381619  0.16593982  0.49901079  1
  Ni  Ni28  1  0.00044351  0.00126495  0.66694352  1
  Ni  Ni29  1  0.16603761  0.16602488  0.83406551  1
  Ni  Ni30  1  0.16437606  0.50143609  0.50004479  1
  Ni  Ni31  1  0.99752221  0.33202674  0.66476268  1
  Cr  Cr32  1  0.16580799  0.49784521  0.83326830  1
  Ni  Ni33  1  0.16677603  0.83245429  0.49889993  1
  Ni  Ni34  1  0.00092162  0.66650414  0.66732154  1
  Ni  Ni35  1  0.16563134  0.83385793  0.83213756  1
  Ni  Ni36  1  0.50184205  0.16656835  0.49806956  1
  Cr  Cr37  1  0.33200563  0.99903608  0.66565823  1
  Ni  Ni38  1  0.50047363  0.16801029  0.83636621  1
  Ni  Ni39  1  0.50107771  0.50023220  0.49892514  1
  Cr  Cr40  1  0.33513879  0.33362619  0.66361296  1
  Ni  Ni41  1  0.50151035  0.49719429  0.83336085  1
  Ni  Ni42  1  0.49785979  0.83295919  0.49602893  1
  Ni  Ni43  1  0.33242819  0.66724302  0.66503861  1
  Ni  Ni44  1  0.49886142  0.83486590  0.83469088  1
  Ni  Ni45  1  0.83382964  0.16894222  0.49815667  1
  Cr  Cr46  1  0.66803692  0.00312292  0.66836576  1
  Ni  Ni47  1  0.83341609  0.16880053  0.83405151  1
  Ni  Ni48  1  0.83444366  0.49753366  0.49924194  1
  Ni  Ni49  1  0.66899178  0.33347846  0.66629308  1
  Ni  Ni50  1  0.83408947  0.49769527  0.83317724  1
  Cr  Cr51  1  0.83461513  0.83358309  0.49765745  1
  Cr  Cr52  1  0.66504621  0.66448318  0.66769459  1
  Ni  Ni53  1  0.83517383  0.83355824  0.83317433  1
" 