2487,Ni77Fe18Cr4_9,-239.597031862151, 196.583244333817,Ni77Fe18Cr4,"# generated using pymatgen
 data_Cr4Fe9Ni41
_symmetry_space_group_name_H-M   'P 1'
_cell_length_a   7.43584828
_cell_length_b   7.43584828
_cell_length_c   10.51587748
_cell_angle_alpha   90.00000000
_cell_angle_beta   90.00000000
_cell_angle_gamma   90.00000000
_symmetry_Int_Tables_number   1
_chemical_formula_structural   Cr4Fe9Ni41
_chemical_formula_sum   'Cr4 Fe9 Ni41'
_cell_volume   581.44221128
_cell_formula_units_Z   1
loop_
 _symmetry_equiv_pos_site_id
 _symmetry_equiv_pos_as_xyz
  1  'x, y, z'
loop_
 _atom_site_type_symbol
 _atom_site_label
 _atom_site_symmetry_multiplicity
 _atom_site_fract_x
 _atom_site_fract_y
 _atom_site_fract_z
 _atom_site_occupancy
  Ni  Ni0  1  1.00115532  0.00294964  1.00201899  1
  Ni  Ni1  1  0.16891709  0.16979240  0.16827871  1
  Ni  Ni2  1  0.00259019  0.00231155  0.33557553  1
  Ni  Ni3  1  0.00329907  0.33610588  1.00071125  1
  Ni  Ni4  1  0.17041015  0.50131507  0.16914038  1
  Ni  Ni5  1  0.00216352  0.33419109  0.33670431  1
  Ni  Ni6  1  0.99999488  0.66750990  0.00348044  1
  Ni  Ni7  1  0.16988179  0.83489093  0.16854650  1
  Fe  Fe8  1  0.00385573  0.66800696  0.33541612  1
  Ni  Ni9  1  0.33651531  0.00354678  0.00272511  1
  Fe  Fe10  1  0.49939588  0.16750132  0.16846077  1
  Ni  Ni11  1  0.33409610  0.00215921  0.33533812  1
  Ni  Ni12  1  0.33503097  0.33554083  0.00237569  1
  Fe  Fe13  1  0.50153374  0.50265569  0.16940333  1
  Ni  Ni14  1  0.33557793  0.33501601  0.33570059  1
  Ni  Ni15  1  0.33777453  0.66702544  0.00279812  1
  Ni  Ni16  1  0.50208765  0.83450930  0.16821530  1
  Ni  Ni17  1  0.33844699  0.66893115  0.33573367  1
  Ni  Ni18  1  0.66814846  1.00007867  1.00112699  1
  Cr  Cr19  1  0.83524600  0.16960030  0.16806275  1
  Fe  Fe20  1  0.66711844  0.00239853  0.33495139  1
  Fe  Fe21  1  0.66791076  0.33585330  1.00189860  1
  Fe  Fe22  1  0.83745657  0.50428081  0.16935218  1
  Ni  Ni23  1  0.66818466  0.33790564  0.33547765  1
  Ni  Ni24  1  0.66868069  0.66879769  0.00227681  1
  Ni  Ni25  1  0.83431955  0.83536758  0.16909421  1
  Ni  Ni26  1  0.66882088  0.66873047  0.33514533  1
  Ni  Ni27  1  0.16840238  0.16998994  0.50082790  1
  Cr  Cr28  1  0.00238395  0.00342250  0.66956856  1
  Ni  Ni29  1  0.16969848  0.17181897  0.83725029  1
  Ni  Ni30  1  0.16896309  0.50038675  0.50150915  1
  Ni  Ni31  1  1.00156666  0.33597428  0.66864789  1
  Ni  Ni32  1  0.16806940  0.49938323  0.83539262  1
  Ni  Ni33  1  0.16962672  0.83543572  0.49962362  1
  Ni  Ni34  1  0.99754883  0.66640344  0.66659036  1
  Cr  Cr35  1  0.16951286  0.83369028  0.83876161  1
  Fe  Fe36  1  0.50166261  0.16938100  0.50174859  1
  Ni  Ni37  1  0.33755325  0.00510613  0.66821506  1
  Ni  Ni38  1  0.50234407  0.16934366  0.83569442  1
  Ni  Ni39  1  0.50291042  0.50209444  0.50090777  1
  Ni  Ni40  1  0.33527130  0.33347763  0.66832195  1
  Ni  Ni41  1  0.50290307  0.50090229  0.83688687  1
  Ni  Ni42  1  0.50334814  0.83601033  0.50167549  1
  Cr  Cr43  1  0.33783107  0.66765869  0.66858465  1
  Ni  Ni44  1  0.50454125  0.83612538  0.83631477  1
  Ni  Ni45  1  0.83424460  0.16958041  0.50113352  1
  Fe  Fe46  1  0.66828080  1.00185694  0.66972190  1
  Ni  Ni47  1  0.83390597  0.17044543  0.83672440  1
  Ni  Ni48  1  0.83460917  0.50114530  0.50075903  1
  Fe  Fe49  1  0.66860731  0.33664335  0.66834773  1
  Ni  Ni50  1  0.83495059  0.50147017  0.83605099  1
  Ni  Ni51  1  0.83326921  0.83561611  0.50007091  1
  Ni  Ni52  1  0.67017332  0.66844491  0.66908934  1
  Ni  Ni53  1  0.83249522  0.83450719  0.83685836  1
" 