3767,Ni77Fe18Cr4_13,-239.135189019238, 196.102226321861,Ni77Fe18Cr4,"# generated using pymatgen
 data_Cr4Fe9Ni41
_symmetry_space_group_name_H-M   'P 1'
_cell_length_a   7.43893222
_cell_length_b   7.43893222
_cell_length_c   10.52023884
_cell_angle_alpha   90.00000000
_cell_angle_beta   90.00000000
_cell_angle_gamma   90.00000000
_symmetry_Int_Tables_number   1
_chemical_formula_structural   Cr4Fe9Ni41
_chemical_formula_sum   'Cr4 Fe9 Ni41'
_cell_volume   582.16595335
_cell_formula_units_Z   1
loop_
 _symmetry_equiv_pos_site_id
 _symmetry_equiv_pos_as_xyz
  1  'x, y, z'
loop_
 _atom_site_type_symbol
 _atom_site_label
 _atom_site_symmetry_multiplicity
 _atom_site_fract_x
 _atom_site_fract_y
 _atom_site_fract_z
 _atom_site_occupancy
  Ni  Ni0  1  0.00272783  1.00164854  1.00107778  1
  Ni  Ni1  1  0.17068625  0.16833740  0.16873262  1
  Ni  Ni2  1  0.00251875  1.00177933  0.33625566  1
  Ni  Ni3  1  0.00319733  0.33558857  1.00144261  1
  Ni  Ni4  1  0.16733128  0.50209441  0.16861521  1
  Ni  Ni5  1  0.00276826  0.33434910  0.33507242  1
  Fe  Fe6  1  1.00181533  0.66854791  1.00150884  1
  Ni  Ni7  1  0.16728805  0.83524215  0.16895434  1
  Fe  Fe8  1  1.00062612  0.66930500  0.33443769  1
  Ni  Ni9  1  0.33481269  1.00169027  0.00285468  1
  Ni  Ni10  1  0.50036291  0.16784394  0.16874052  1
  Fe  Fe11  1  0.33518855  0.00305548  0.33527522  1
  Ni  Ni12  1  0.33377644  0.33497732  1.00172049  1
  Cr  Cr13  1  0.50191793  0.49992848  0.16789401  1
  Ni  Ni14  1  0.33447732  0.33461633  0.33452572  1
  Ni  Ni15  1  0.33502307  0.66899926  1.00066555  1
  Fe  Fe16  1  0.50185062  0.83638070  0.16783012  1
  Ni  Ni17  1  0.33572078  0.66918567  0.33547570  1
  Ni  Ni18  1  0.66812676  1.00039965  1.00149732  1
  Cr  Cr19  1  0.83388171  0.16800287  0.16834208  1
  Ni  Ni20  1  0.66878233  1.00053169  0.33548360  1
  Ni  Ni21  1  0.66869603  0.33579975  1.00052034  1
  Ni  Ni22  1  0.83660999  0.50398272  0.16926417  1
  Ni  Ni23  1  0.66842705  0.33570666  0.33698161  1
  Ni  Ni24  1  0.66873729  0.66946844  1.00139372  1
  Ni  Ni25  1  0.83612162  0.83387907  0.16825720  1
  Ni  Ni26  1  0.66852083  0.66942865  0.33601018  1
  Ni  Ni27  1  0.16838065  0.16588843  0.50106611  1
  Ni  Ni28  1  0.00210231  1.00161136  0.66833530  1
  Fe  Fe29  1  0.16797421  0.16769796  0.83613334  1
  Cr  Cr30  1  0.16871658  0.50295841  0.50117743  1
  Ni  Ni31  1  0.99971350  0.33426396  0.66915610  1
  Ni  Ni32  1  0.16784931  0.50300700  0.83620542  1
  Ni  Ni33  1  0.16701564  0.83716249  0.50245506  1
  Ni  Ni34  1  1.00128193  0.66979076  0.66925102  1
  Ni  Ni35  1  0.16793275  0.83486972  0.83425975  1
  Ni  Ni36  1  0.50300121  0.16906576  0.50059564  1
  Ni  Ni37  1  0.33452004  0.99960733  0.66785390  1
  Ni  Ni38  1  0.50310582  0.16833197  0.83633790  1
  Ni  Ni39  1  0.50437168  0.50105964  0.50171705  1
  Cr  Cr40  1  0.33568287  0.33533809  0.66992526  1
  Ni  Ni41  1  0.50270103  0.50144713  0.83549151  1
  Fe  Fe42  1  0.50142670  0.83513495  0.50256550  1
  Ni  Ni43  1  0.33608875  0.67104892  0.66952309  1
  Ni  Ni44  1  0.50208246  0.83589238  0.83472728  1
  Fe  Fe45  1  0.83551076  0.16822983  0.50173660  1
  Ni  Ni46  1  0.66904666  1.00117956  0.66868537  1
  Fe  Fe47  1  0.83477012  0.16866686  0.83532703  1
  Fe  Fe48  1  0.83355168  0.50149088  0.50212950  1
  Ni  Ni49  1  0.67030370  0.33583212  0.66816500  1
  Ni  Ni50  1  0.83511629  0.50198611  0.83472430  1
  Ni  Ni51  1  0.83585709  0.83578644  0.50194886  1
  Ni  Ni52  1  0.66829610  0.66865609  0.66826254  1
  Ni  Ni53  1  0.83565335  0.83527277  0.83546101  1
" 