2673,Ni77Fe18Cr4_2,-239.22806167182, 196.57212327575,Ni77Fe18Cr4,"# generated using pymatgen
 data_Cr4Fe9Ni41
_symmetry_space_group_name_H-M   'P 1'
_cell_length_a   7.43531689
_cell_length_b   7.43531689
_cell_length_c   10.51512599
_cell_angle_alpha   90.00000000
_cell_angle_beta   90.00000000
_cell_angle_gamma   90.00000000
_symmetry_Int_Tables_number   1
_chemical_formula_structural   Cr4Fe9Ni41
_chemical_formula_sum   'Cr4 Fe9 Ni41'
_cell_volume   581.31756577
_cell_formula_units_Z   1
loop_
 _symmetry_equiv_pos_site_id
 _symmetry_equiv_pos_as_xyz
  1  'x, y, z'
loop_
 _atom_site_type_symbol
 _atom_site_label
 _atom_site_symmetry_multiplicity
 _atom_site_fract_x
 _atom_site_fract_y
 _atom_site_fract_z
 _atom_site_occupancy
  Fe  Fe0  1  1.00130108  1.00209330  0.00217837  1
  Ni  Ni1  1  0.16739942  0.17062178  0.16798180  1
  Ni  Ni2  1  1.00191825  0.00270254  0.33515002  1
  Ni  Ni3  1  0.99970874  0.33540493  0.00238781  1
  Ni  Ni4  1  0.16784656  0.49915188  0.16907316  1
  Ni  Ni5  1  1.00074276  0.33494370  0.33562841  1
  Ni  Ni6  1  1.00206146  0.66758440  0.00227360  1
  Fe  Fe7  1  0.16560435  0.83479522  0.16758448  1
  Ni  Ni8  1  0.99978333  0.66869498  0.33531142  1
  Ni  Ni9  1  0.33438970  0.00248509  0.00330804  1
  Fe  Fe10  1  0.50399363  0.17068539  0.16776502  1
  Cr  Cr11  1  0.33480120  0.00231289  0.33606867  1
  Fe  Fe12  1  0.33477987  0.33747557  0.00246465  1
  Ni  Ni13  1  0.50245665  0.50294584  0.16758275  1
  Ni  Ni14  1  0.33529712  0.33341393  0.33398816  1
  Ni  Ni15  1  0.33466716  0.67067819  0.00335074  1
  Ni  Ni16  1  0.50562944  0.83523059  0.16784330  1
  Cr  Cr17  1  0.33443544  0.66971413  0.33484571  1
  Fe  Fe18  1  0.67034595  0.00218844  1.00194458  1
  Ni  Ni19  1  0.83750486  0.16789996  0.16949365  1
  Fe  Fe20  1  0.67121217  1.00197895  0.33619983  1
  Ni  Ni21  1  0.67066844  0.33552543  1.00172813  1
  Ni  Ni22  1  0.83596155  0.50255409  0.16901100  1
  Ni  Ni23  1  0.67060585  0.33523894  0.33434217  1
  Ni  Ni24  1  0.66952489  0.66606249  0.00275890  1
  Ni  Ni25  1  0.83387215  0.83558510  0.16895066  1
  Ni  Ni26  1  0.67121637  0.66815452  0.33441214  1
  Ni  Ni27  1  0.16803780  0.17003091  0.50281513  1
  Ni  Ni28  1  0.00297730  0.00281229  0.66974326  1
  Ni  Ni29  1  0.16858603  0.16979077  0.83551928  1
  Ni  Ni30  1  0.16569950  0.50002396  0.50208931  1
  Ni  Ni31  1  1.00013056  0.33541995  0.66843942  1
  Ni  Ni32  1  0.16863622  0.50061420  0.83506380  1
  Ni  Ni33  1  0.16581656  0.83629430  0.50408834  1
  Ni  Ni34  1  0.00222860  0.66816832  0.66879454  1
  Fe  Fe35  1  0.16752278  0.83528473  0.83494245  1
  Ni  Ni36  1  0.50178788  0.16770728  0.50234422  1
  Ni  Ni37  1  0.33463422  0.00260534  0.66747226  1
  Ni  Ni38  1  0.50091364  0.16975607  0.83622596  1
  Cr  Cr39  1  0.50301210  0.50155274  0.50375239  1
  Fe  Fe40  1  0.33433809  0.33445717  0.66915488  1
  Ni  Ni41  1  0.50125868  0.50116206  0.83554760  1
  Ni  Ni42  1  0.50530601  0.83735680  0.50397914  1
  Ni  Ni43  1  0.33334069  0.67066791  0.66858642  1
  Cr  Cr44  1  0.50433387  0.83483990  0.83365527  1
  Fe  Fe45  1  0.83612382  0.16902242  0.50244509  1
  Ni  Ni46  1  0.66890412  0.00453691  0.66758809  1
  Ni  Ni47  1  0.83661651  0.16794623  0.83486233  1
  Ni  Ni48  1  0.83757008  0.50350521  0.50165715  1
  Ni  Ni49  1  0.67090646  0.33433125  0.67059965  1
  Ni  Ni50  1  0.83620656  0.50284471  0.83570552  1
  Ni  Ni51  1  0.83538084  0.83534300  0.50207783  1
  Ni  Ni52  1  0.67077297  0.66764659  0.66915400  1
  Ni  Ni53  1  0.83645405  0.83538103  0.83529382  1
" 