1985,Ni77Cr23_3,-208.60843596146, 154.881342382763,Ni77Cr23,"# generated using pymatgen
 data_Cr41Ni13
_symmetry_space_group_name_H-M   'P 1'
_cell_length_a   7.57275059
_cell_length_b   7.57275059
_cell_length_c   10.70948658
_cell_angle_alpha   90.00000000
_cell_angle_beta   90.00000000
_cell_angle_gamma   90.00000000
_symmetry_Int_Tables_number   1
_chemical_formula_structural   Cr41Ni13
_chemical_formula_sum   'Cr41 Ni13'
_cell_volume   614.15212341
_cell_formula_units_Z   1
loop_
 _symmetry_equiv_pos_site_id
 _symmetry_equiv_pos_as_xyz
  1  'x, y, z'
loop_
 _atom_site_type_symbol
 _atom_site_label
 _atom_site_symmetry_multiplicity
 _atom_site_fract_x
 _atom_site_fract_y
 _atom_site_fract_z
 _atom_site_occupancy
  Cr  Cr0  1  -0.00676828  -0.00474441  -0.00604821  1
  Ni  Ni1  1  0.15643897  0.16063708  0.15990838  1
  Cr  Cr2  1  0.99113378  -0.00450819  0.32481999  1
  Cr  Cr3  1  -0.00552945  0.32422226  0.99265566  1
  Cr  Cr4  1  0.15890753  0.49097987  0.16123895  1
  Ni  Ni5  1  0.99102064  0.32434643  0.32610929  1
  Cr  Cr6  1  0.99182953  0.65966030  -0.00663077  1
  Cr  Cr7  1  0.15966061  0.82857561  0.16064575  1
  Cr  Cr8  1  -0.00534279  0.65767173  0.32756149  1
  Cr  Cr9  1  0.32581781  -0.00587567  0.99246429  1
  Cr  Cr10  1  0.49335336  0.16092455  0.16130853  1
  Cr  Cr11  1  0.32728206  -0.00602800  0.32575969  1
  Cr  Cr12  1  0.32453519  0.32528107  0.99273639  1
  Cr  Cr13  1  0.49518141  0.49261066  0.15898695  1
  Cr  Cr14  1  0.32608401  0.32664538  0.32656980  1
  Cr  Cr15  1  0.32842469  0.65967356  -0.00666689  1
  Cr  Cr16  1  0.49330464  0.82563286  0.15840201  1
  Cr  Cr17  1  0.32505639  0.65838727  0.32694777  1
  Cr  Cr18  1  0.65996110  0.99143268  -0.00669912  1
  Ni  Ni19  1  0.82861392  0.16178409  0.16199026  1
  Cr  Cr20  1  0.66061965  -0.00338726  0.32753171  1
  Cr  Cr21  1  0.66000504  0.32663873  -0.00631048  1
  Cr  Cr22  1  0.82500840  0.49098560  0.15953270  1
  Ni  Ni23  1  0.66293360  0.32320226  0.32715277  1
  Ni  Ni24  1  0.65858408  0.66091197  0.99162998  1
  Cr  Cr25  1  0.82609417  0.82663299  0.15847873  1
  Cr  Cr26  1  0.65941365  0.65918556  0.32567483  1
  Cr  Cr27  1  0.15996063  0.16001260  0.49360728  1
  Cr  Cr28  1  -0.00695424  -0.00556893  0.66034555  1
  Ni  Ni29  1  0.16093957  0.15823247  0.82600030  1
  Ni  Ni30  1  0.15962208  0.49263680  0.49290873  1
  Cr  Cr31  1  -0.00618986  0.32611017  0.65975130  1
  Cr  Cr32  1  0.16010640  0.49184848  0.82512924  1
  Cr  Cr33  1  0.16122841  0.82551783  0.49416190  1
  Cr  Cr34  1  -0.00607050  0.65847618  0.65818580  1
  Cr  Cr35  1  0.16231676  0.82887677  0.82437735  1
  Ni  Ni36  1  0.49489884  0.15992550  0.49284655  1
  Ni  Ni37  1  0.32768585  0.99160557  0.66106099  1
  Cr  Cr38  1  0.49020719  0.15776079  0.82505072  1
  Cr  Cr39  1  0.49290892  0.49193693  0.49322258  1
  Cr  Cr40  1  0.32564055  0.32630110  0.65983407  1
  Cr  Cr41  1  0.49472975  0.49603901  0.82685669  1
  Cr  Cr42  1  0.49152661  0.82753163  0.49559409  1
  Ni  Ni43  1  0.32835762  0.66177322  0.65965425  1
  Ni  Ni44  1  0.49276805  0.82435460  0.82460010  1
  Ni  Ni45  1  0.82462417  0.16214413  0.49041536  1
  Cr  Cr46  1  0.65803831  0.99282801  0.65818969  1
  Cr  Cr47  1  0.82822418  0.16020487  0.82639748  1
  Cr  Cr48  1  0.82677032  0.49075559  0.49240508  1
  Cr  Cr49  1  0.65963809  0.32548495  0.65759268  1
  Cr  Cr50  1  0.82424295  0.49443875  0.82699677  1
  Cr  Cr51  1  0.82628666  0.82694458  0.49389923  1
  Ni  Ni52  1  0.65622688  0.66115318  0.66160566  1
  Cr  Cr53  1  0.82376708  0.82432123  0.82668508  1
" 