7558,Ni77Fe6Cr15_19,-234.022887240804, 168.060585101755,Ni77Fe6Cr15,"# generated using pymatgen
 data_Cr3FeNi14
_symmetry_space_group_name_H-M   'P 1'
_cell_length_a   7.46254539
_cell_length_b   7.46254539
_cell_length_c   10.55363290
_cell_angle_alpha   90.00000000
_cell_angle_beta   90.00000000
_cell_angle_gamma   90.00000000
_symmetry_Int_Tables_number   1
_chemical_formula_structural   Cr3FeNi14
_chemical_formula_sum   'Cr9 Fe3 Ni42'
_cell_volume   587.72742191
_cell_formula_units_Z   3
loop_
 _symmetry_equiv_pos_site_id
 _symmetry_equiv_pos_as_xyz
  1  'x, y, z'
loop_
 _atom_site_type_symbol
 _atom_site_label
 _atom_site_symmetry_multiplicity
 _atom_site_fract_x
 _atom_site_fract_y
 _atom_site_fract_z
 _atom_site_occupancy
  Ni  Ni0  1  0.00192448  0.99922333  0.00137185  1
  Ni  Ni1  1  0.16803201  0.16631580  0.16783737  1
  Fe  Fe2  1  0.00118044  0.00313170  0.33423853  1
  Cr  Cr3  1  0.99887754  0.33474826  0.00125963  1
  Ni  Ni4  1  0.16861339  0.49968206  0.16633702  1
  Ni  Ni5  1  0.99981793  0.33186570  0.33366804  1
  Ni  Ni6  1  0.00181952  0.66790948  0.99953661  1
  Ni  Ni7  1  0.16909193  0.83490795  0.16497747  1
  Cr  Cr8  1  0.00100745  0.66522052  0.33398146  1
  Ni  Ni9  1  0.33307006  0.99785609  0.00171912  1
  Ni  Ni10  1  0.49984332  0.16742262  0.16664546  1
  Ni  Ni11  1  0.33436339  1.00025099  0.33370607  1
  Ni  Ni12  1  0.33564844  0.33436630  0.00195934  1
  Ni  Ni13  1  0.50037115  0.49968058  0.16638807  1
  Ni  Ni14  1  0.33328474  0.33242360  0.33352676  1
  Ni  Ni15  1  0.33376370  0.66868343  0.99989883  1
  Ni  Ni16  1  0.49878351  0.83380157  0.16650636  1
  Ni  Ni17  1  0.33516751  0.66823136  0.33346652  1
  Fe  Fe18  1  0.66545825  0.00066212  0.00172948  1
  Ni  Ni19  1  0.83302856  0.16790237  0.16684429  1
  Ni  Ni20  1  0.66536222  0.00136249  0.33432286  1
  Ni  Ni21  1  0.66668793  0.33446888  0.00092350  1
  Ni  Ni22  1  0.83192071  0.49862167  0.16661291  1
  Ni  Ni23  1  0.66780245  0.33267249  0.33352516  1
  Ni  Ni24  1  0.66532225  0.66532782  1.00017857  1
  Cr  Cr25  1  0.83299212  0.83356959  0.16641180  1
  Ni  Ni26  1  0.66480761  0.66687003  0.33482513  1
  Ni  Ni27  1  0.16697458  0.16842448  0.49877833  1
  Cr  Cr28  1  0.00068809  0.00035446  0.66479387  1
  Cr  Cr29  1  0.16726386  0.16797696  0.83389554  1
  Ni  Ni30  1  0.16755311  0.49902656  0.50222826  1
  Ni  Ni31  1  0.99905920  0.33651724  0.66636929  1
  Ni  Ni32  1  0.16729411  0.50259608  0.83233956  1
  Ni  Ni33  1  0.16725941  0.83345444  0.50033721  1
  Ni  Ni34  1  0.00120198  0.66394181  0.66698529  1
  Ni  Ni35  1  0.16769167  0.83063074  0.83558880  1
  Ni  Ni36  1  0.50015157  0.16833662  0.49894616  1
  Cr  Cr37  1  0.33399226  0.99811746  0.66523719  1
  Cr  Cr38  1  0.50069688  0.16903274  0.83502652  1
  Ni  Ni39  1  0.50059136  0.50013278  0.50109488  1
  Ni  Ni40  1  0.33332434  0.33710410  0.66541719  1
  Ni  Ni41  1  0.50081282  0.50148446  0.83342210  1
  Ni  Ni42  1  0.50097446  0.83243545  0.49914502  1
  Ni  Ni43  1  0.33332261  0.66549396  0.66753946  1
  Ni  Ni44  1  0.49921946  0.83054507  0.83525570  1
  Ni  Ni45  1  0.83377877  0.16804127  0.49966220  1
  Cr  Cr46  1  0.66622460  0.00035511  0.66577363  1
  Fe  Fe47  1  0.83300654  0.16993335  0.83427383  1
  Ni  Ni48  1  0.83276031  0.49985045  0.50178669  1
  Ni  Ni49  1  0.66852163  0.33632353  0.66645538  1
  Ni  Ni50  1  0.83279818  0.50051412  0.83250545  1
  Ni  Ni51  1  0.83267104  0.83301506  0.49989685  1
  Ni  Ni52  1  0.66638036  0.66413287  0.66590245  1
  Cr  Cr53  1  0.83403357  0.83133936  0.83523429  1
" 