8807,Ni77Fe6Cr15_6,-234.02555911458, 167.065594113233,Ni77Fe6Cr15,"# generated using pymatgen
 data_Cr3FeNi14
_symmetry_space_group_name_H-M   'P 1'
_cell_length_a   7.46422509
_cell_length_b   7.46422509
_cell_length_c   10.55600836
_cell_angle_alpha   90.00000000
_cell_angle_beta   90.00000000
_cell_angle_gamma   90.00000000
_symmetry_Int_Tables_number   1
_chemical_formula_structural   Cr3FeNi14
_chemical_formula_sum   'Cr9 Fe3 Ni42'
_cell_volume   588.12437649
_cell_formula_units_Z   3
loop_
 _symmetry_equiv_pos_site_id
 _symmetry_equiv_pos_as_xyz
  1  'x, y, z'
loop_
 _atom_site_type_symbol
 _atom_site_label
 _atom_site_symmetry_multiplicity
 _atom_site_fract_x
 _atom_site_fract_y
 _atom_site_fract_z
 _atom_site_occupancy
  Ni  Ni0  1  0.00140874  0.00106054  0.00130454  1
  Ni  Ni1  1  0.16711856  0.16487525  0.16672280  1
  Ni  Ni2  1  1.00015051  0.99957252  0.33365274  1
  Ni  Ni3  1  1.00004901  0.33205453  0.99790375  1
  Cr  Cr4  1  0.16645941  0.49987783  0.16748859  1
  Ni  Ni5  1  0.00111603  0.33176029  0.33475473  1
  Ni  Ni6  1  0.00293285  0.66745267  0.99952712  1
  Ni  Ni7  1  0.16685835  0.83534892  0.16672083  1
  Ni  Ni8  1  0.00076203  0.66923091  0.33444594  1
  Ni  Ni9  1  0.33341998  1.00015942  0.00043135  1
  Ni  Ni10  1  0.50055724  0.16460789  0.16712059  1
  Ni  Ni11  1  0.33301526  0.00108892  0.33232035  1
  Ni  Ni12  1  0.33352507  0.33170182  0.99851935  1
  Cr  Cr13  1  0.49948886  0.49915452  0.16834578  1
  Ni  Ni14  1  0.33320920  0.33140500  0.33484452  1
  Ni  Ni15  1  0.33154136  0.66870561  0.99794132  1
  Ni  Ni16  1  0.49985178  0.83658259  0.16793634  1
  Ni  Ni17  1  0.33204545  0.66807308  0.33382449  1
  Ni  Ni18  1  0.66573866  0.00304278  0.00113080  1
  Ni  Ni19  1  0.83289173  0.16487176  0.16697427  1
  Ni  Ni20  1  0.66740257  0.00073467  0.33275570  1
  Ni  Ni21  1  0.66699219  0.33017766  0.99840359  1
  Cr  Cr22  1  0.83461874  0.49955110  0.16761339  1
  Ni  Ni23  1  0.66624287  0.33079179  0.33324227  1
  Cr  Cr24  1  0.66636226  0.66749038  0.99968085  1
  Ni  Ni25  1  0.83385726  0.83605910  0.16823680  1
  Ni  Ni26  1  0.66775831  0.66903806  0.33273075  1
  Ni  Ni27  1  0.16757115  0.16753742  0.50034343  1
  Ni  Ni28  1  0.00151228  1.00000851  0.66561050  1
  Ni  Ni29  1  0.16756160  0.16821130  0.83350086  1
  Ni  Ni30  1  0.16601210  0.49923827  0.50000394  1
  Ni  Ni31  1  0.00329126  0.33353665  0.66790744  1
  Ni  Ni32  1  0.16600921  0.49975376  0.83317938  1
  Ni  Ni33  1  0.16430605  0.83379094  0.50018953  1
  Ni  Ni34  1  0.00118261  0.66702121  0.66659390  1
  Ni  Ni35  1  0.16918065  0.83260232  0.83365570  1
  Ni  Ni36  1  0.49852140  0.16610561  0.49891873  1
  Ni  Ni37  1  0.33278395  0.00129875  0.66781689  1
  Ni  Ni38  1  0.49946611  0.16585132  0.83452705  1
  Cr  Cr39  1  0.49811821  0.49899311  0.49869082  1
  Ni  Ni40  1  0.33091140  0.33215323  0.66720402  1
  Fe  Fe41  1  0.49826743  0.49958465  0.83383470  1
  Cr  Cr42  1  0.50117005  0.83577990  0.50039114  1
  Fe  Fe43  1  0.33097292  0.66752510  0.66854417  1
  Ni  Ni44  1  0.49804675  0.83476291  0.83243775  1
  Fe  Fe45  1  0.83519343  0.16393789  0.49922701  1
  Ni  Ni46  1  0.66627205  0.99919061  0.66668164  1
  Ni  Ni47  1  0.83354045  0.16902386  0.83418637  1
  Cr  Cr48  1  0.83607099  0.50186304  0.49856437  1
  Cr  Cr49  1  0.66656831  0.33222433  0.66891099  1
  Ni  Ni50  1  0.83570152  0.49833625  0.83376218  1
  Ni  Ni51  1  0.83508636  0.83427983  0.50013198  1
  Ni  Ni52  1  0.66765517  0.66889525  0.66842299  1
  Cr  Cr53  1  0.83386205  0.83423415  0.83239876  1
" 