2655,Ni77Fe18Cr4_12,-239.105755509351, 194.16346810805,Ni77Fe18Cr4,"# generated using pymatgen
 data_Cr4Fe9Ni41
_symmetry_space_group_name_H-M   'P 1'
_cell_length_a   7.43524403
_cell_length_b   7.43524403
_cell_length_c   10.51502294
_cell_angle_alpha   90.00000000
_cell_angle_beta   90.00000000
_cell_angle_gamma   90.00000000
_symmetry_Int_Tables_number   1
_chemical_formula_structural   Cr4Fe9Ni41
_chemical_formula_sum   'Cr4 Fe9 Ni41'
_cell_volume   581.30047506
_cell_formula_units_Z   1
loop_
 _symmetry_equiv_pos_site_id
 _symmetry_equiv_pos_as_xyz
  1  'x, y, z'
loop_
 _atom_site_type_symbol
 _atom_site_label
 _atom_site_symmetry_multiplicity
 _atom_site_fract_x
 _atom_site_fract_y
 _atom_site_fract_z
 _atom_site_occupancy
  Ni  Ni0  1  1.00197362  0.00219382  1.00151486  1
  Ni  Ni1  1  0.16906949  0.16889319  0.16840362  1
  Ni  Ni2  1  0.00244053  1.00200580  0.33612265  1
  Ni  Ni3  1  0.00276695  0.33469097  0.00239546  1
  Ni  Ni4  1  0.16884437  0.50223175  0.16822608  1
  Ni  Ni5  1  1.00135076  0.33575243  0.33579684  1
  Fe  Fe6  1  0.00290039  0.67001780  0.00302096  1
  Ni  Ni7  1  0.16960756  0.83529179  0.16948494  1
  Ni  Ni8  1  0.00239687  0.66866053  0.33495177  1
  Ni  Ni9  1  0.33479229  0.00221730  0.00263079  1
  Ni  Ni10  1  0.50162715  0.16867775  0.16862225  1
  Ni  Ni11  1  0.33470958  1.00201380  0.33438378  1
  Ni  Ni12  1  0.33485100  0.33551395  0.00291244  1
  Ni  Ni13  1  0.50212349  0.50271474  0.16908437  1
  Fe  Fe14  1  0.33548151  0.33501858  0.33515240  1
  Ni  Ni15  1  0.33448410  0.66868305  0.00326534  1
  Ni  Ni16  1  0.50157899  0.83502002  0.16816546  1
  Ni  Ni17  1  0.33471293  0.66868506  0.33480695  1
  Ni  Ni18  1  0.66965032  0.00256079  0.00255046  1
  Ni  Ni19  1  0.83571857  0.16944222  0.16900977  1
  Ni  Ni20  1  0.66925974  0.00306527  0.33448403  1
  Ni  Ni21  1  0.66879832  0.33437810  0.00345473  1
  Ni  Ni22  1  0.83544689  0.50218232  0.16866274  1
  Ni  Ni23  1  0.66928764  0.33574655  0.33555601  1
  Ni  Ni24  1  0.66882103  0.66947839  0.00457624  1
  Ni  Ni25  1  0.83522914  0.83479383  0.16854792  1
  Ni  Ni26  1  0.66930108  0.66759740  0.33488536  1
  Ni  Ni27  1  0.16902794  0.16928557  0.50273916  1
  Ni  Ni28  1  1.00183158  1.00101058  0.66877682  1
  Fe  Fe29  1  0.16850314  0.16801915  0.83535739  1
  Fe  Fe30  1  0.16750237  0.50134540  0.50191512  1
  Ni  Ni31  1  0.00262819  0.33559472  0.66822927  1
  Fe  Fe32  1  0.16856016  0.50195134  0.83578285  1
  Fe  Fe33  1  0.16633567  0.83666690  0.50206530  1
  Ni  Ni34  1  0.00291987  0.66981223  0.66852923  1
  Ni  Ni35  1  0.16750745  0.83576465  0.83461383  1
  Ni  Ni36  1  0.50119641  0.17012638  0.50289512  1
  Ni  Ni37  1  0.33446133  0.00376303  0.66940081  1
  Ni  Ni38  1  0.50173889  0.16881552  0.83489409  1
  Fe  Fe39  1  0.50339490  0.49961678  0.50179158  1
  Ni  Ni40  1  0.33557537  0.33474264  0.66804211  1
  Cr  Cr41  1  0.50119929  0.50017069  0.83516712  1
  Cr  Cr42  1  0.50230037  0.83626314  0.50247389  1
  Fe  Fe43  1  0.33250515  0.66822940  0.66847848  1
  Cr  Cr44  1  0.50170498  0.83754170  0.83584017  1
  Ni  Ni45  1  0.83618817  0.16982646  0.50269702  1
  Ni  Ni46  1  0.67011472  0.00405563  0.66937954  1
  Ni  Ni47  1  0.83571411  0.16764290  0.83470719  1
  Ni  Ni48  1  0.83601936  0.50218390  0.50242267  1
  Ni  Ni49  1  0.66821349  0.33365117  0.66740578  1
  Cr  Cr50  1  0.83676225  0.50132510  0.83617486  1
  Ni  Ni51  1  0.83685960  0.83440384  0.50303734  1
  Fe  Fe52  1  0.67151785  0.66899547  0.66717175  1
  Ni  Ni53  1  0.83798313  0.83715855  0.83483334  1
" 