1835,Ni77Fe4Cr17_15,-232.059009757369, 160.853819829284,Ni77Fe4Cr17,"# generated using pymatgen
 data_Cr11Fe2Ni41
_symmetry_space_group_name_H-M   'P 1'
_cell_length_a   7.46744646
_cell_length_b   7.46744646
_cell_length_c   10.56056406
_cell_angle_alpha   90.00000000
_cell_angle_beta   90.00000000
_cell_angle_gamma   90.00000000
_symmetry_Int_Tables_number   1
_chemical_formula_structural   Cr11Fe2Ni41
_chemical_formula_sum   'Cr11 Fe2 Ni41'
_cell_volume   588.88616351
_cell_formula_units_Z   1
loop_
 _symmetry_equiv_pos_site_id
 _symmetry_equiv_pos_as_xyz
  1  'x, y, z'
loop_
 _atom_site_type_symbol
 _atom_site_label
 _atom_site_symmetry_multiplicity
 _atom_site_fract_x
 _atom_site_fract_y
 _atom_site_fract_z
 _atom_site_occupancy
  Ni  Ni0  1  0.00095640  0.99743280  0.99876241  1
  Ni  Ni1  1  0.17068213  0.16664960  0.16720357  1
  Cr  Cr2  1  0.00167416  0.00120467  0.33372507  1
  Cr  Cr3  1  0.00157669  0.33354998  0.00104758  1
  Ni  Ni4  1  0.16676044  0.50018728  0.16642562  1
  Ni  Ni5  1  0.00031340  0.33572744  0.33428628  1
  Ni  Ni6  1  0.00370487  0.66865745  0.99989523  1
  Ni  Ni7  1  0.16827529  0.83310230  0.16408181  1
  Ni  Ni8  1  0.99793845  0.66298645  0.33311871  1
  Ni  Ni9  1  0.33367170  0.99854346  0.00143710  1
  Ni  Ni10  1  0.49703812  0.16597698  0.16719606  1
  Ni  Ni11  1  0.33568044  0.00250341  0.33209493  1
  Ni  Ni12  1  0.33389568  0.33443487  0.00060871  1
  Ni  Ni13  1  0.49894305  0.49886422  0.16703385  1
  Ni  Ni14  1  0.33322243  0.33188495  0.33326391  1
  Ni  Ni15  1  0.33142029  0.66695848  0.99961060  1
  Ni  Ni16  1  0.49815824  0.83511386  0.16728365  1
  Cr  Cr17  1  0.33409073  0.66652280  0.33187830  1
  Ni  Ni18  1  0.66528648  0.99986451  0.99762911  1
  Cr  Cr19  1  0.83191649  0.16728063  0.16679052  1
  Ni  Ni20  1  0.66372663  0.00000811  0.33512150  1
  Cr  Cr21  1  0.66389346  0.33195141  0.99932224  1
  Ni  Ni22  1  0.83421341  0.50128630  0.16999816  1
  Ni  Ni23  1  0.66638693  0.33454080  0.33365964  1
  Cr  Cr24  1  0.66435832  0.66753426  0.00016805  1
  Cr  Cr25  1  0.83348325  0.83141973  0.16643759  1
  Ni  Ni26  1  0.66757893  0.66536267  0.33416299  1
  Ni  Ni27  1  0.16800045  0.16894575  0.50041080  1
  Ni  Ni28  1  0.99826911  0.00069592  0.66730087  1
  Cr  Cr29  1  0.16793955  0.16611257  0.83229880  1
  Ni  Ni30  1  0.16596649  0.49740124  0.50108814  1
  Ni  Ni31  1  0.00166103  0.33248433  0.66452033  1
  Ni  Ni32  1  0.16951057  0.50267486  0.83238812  1
  Cr  Cr33  1  0.16643800  0.83360200  0.50152567  1
  Fe  Fe34  1  0.00033593  0.66706338  0.66658557  1
  Ni  Ni35  1  0.16647735  0.83167858  0.83426019  1
  Ni  Ni36  1  0.49912568  0.16641910  0.49879005  1
  Ni  Ni37  1  0.33412732  0.99931187  0.66639785  1
  Ni  Ni38  1  0.50013982  0.16489905  0.83395313  1
  Ni  Ni39  1  0.50031534  0.49906643  0.50016204  1
  Ni  Ni40  1  0.33178957  0.33498542  0.66605204  1
  Ni  Ni41  1  0.49579500  0.50076104  0.83276718  1
  Fe  Fe42  1  0.50248557  0.83411797  0.50082984  1
  Ni  Ni43  1  0.33455084  0.66562013  0.66845291  1
  Ni  Ni44  1  0.49952013  0.83424206  0.83203332  1
  Ni  Ni45  1  0.83283326  0.16633100  0.50035366  1
  Ni  Ni46  1  0.66755952  0.99786760  0.66716454  1
  Ni  Ni47  1  0.83206932  0.16184213  0.83249292  1
  Ni  Ni48  1  0.83363287  0.50120178  0.49806443  1
  Cr  Cr49  1  0.66642716  0.33266447  0.66716627  1
  Cr  Cr50  1  0.83464225  0.50156517  0.83219725  1
  Ni  Ni51  1  0.83110090  0.83238454  0.50089759  1
  Ni  Ni52  1  0.66506451  0.66908766  0.66550928  1
  Ni  Ni53  1  0.83393396  0.83598240  0.83265189  1
" 