196,Ni77Cr23_10,-208.533006845159, 152.9413505539,Ni77Cr23,"# generated using pymatgen
 data_Cr41Ni13
_symmetry_space_group_name_H-M   'P 1'
_cell_length_a   7.57527577
_cell_length_b   7.57527577
_cell_length_c   10.71305773
_cell_angle_alpha   90.00000000
_cell_angle_beta   90.00000000
_cell_angle_gamma   90.00000000
_symmetry_Int_Tables_number   1
_chemical_formula_structural   Cr41Ni13
_chemical_formula_sum   'Cr41 Ni13'
_cell_volume   614.76670726
_cell_formula_units_Z   1
loop_
 _symmetry_equiv_pos_site_id
 _symmetry_equiv_pos_as_xyz
  1  'x, y, z'
loop_
 _atom_site_type_symbol
 _atom_site_label
 _atom_site_symmetry_multiplicity
 _atom_site_fract_x
 _atom_site_fract_y
 _atom_site_fract_z
 _atom_site_occupancy
  Cr  Cr0  1  -0.00572073  -0.00367678  0.99268231  1
  Ni  Ni1  1  0.16068151  0.16324986  0.15705080  1
  Cr  Cr2  1  -0.00490496  -0.00371248  0.32894531  1
  Ni  Ni3  1  -0.00465406  0.32941179  -0.00668864  1
  Cr  Cr4  1  0.15948957  0.49182179  0.15877589  1
  Cr  Cr5  1  -0.00564954  0.32527264  0.32414944  1
  Cr  Cr6  1  0.99124868  0.65514884  0.98964028  1
  Cr  Cr7  1  0.15930384  0.82654344  0.15977394  1
  Cr  Cr8  1  0.99057435  0.65726869  0.32774474  1
  Cr  Cr9  1  0.32694117  -0.00537757  -0.00513040  1
  Cr  Cr10  1  0.49256346  0.16160134  0.15798055  1
  Cr  Cr11  1  0.32613395  -0.00424091  0.32602402  1
  Ni  Ni12  1  0.32384749  0.32816309  -0.00627155  1
  Ni  Ni13  1  0.49311309  0.49236044  0.15800311  1
  Cr  Cr14  1  0.32631928  0.32422514  0.32675941  1
  Cr  Cr15  1  0.32751445  0.65726733  -0.00673591  1
  Ni  Ni16  1  0.49291892  0.82424492  0.15947534  1
  Cr  Cr17  1  0.32881104  0.65775661  0.32338764  1
  Cr  Cr18  1  0.65771696  0.99194774  -0.00664481  1
  Cr  Cr19  1  0.82896377  0.16157987  0.15700945  1
  Cr  Cr20  1  0.65728164  -0.00639784  0.32689295  1
  Cr  Cr21  1  0.66054527  0.32959504  -0.00690265  1
  Ni  Ni22  1  0.82581903  0.49168263  0.15750532  1
  Cr  Cr23  1  0.65816828  0.32743743  0.32497528  1
  Cr  Cr24  1  0.65947762  0.65804455  -0.00567745  1
  Cr  Cr25  1  0.82740388  0.82696352  0.16077691  1
  Cr  Cr26  1  0.65916107  0.65755358  0.32258647  1
  Ni  Ni27  1  0.16272147  0.16179572  0.49390961  1
  Cr  Cr28  1  -0.00609188  -0.00566053  0.65743334  1
  Cr  Cr29  1  0.16095379  0.16189894  0.82862625  1
  Cr  Cr30  1  0.16144424  0.49172181  0.49396668  1
  Cr  Cr31  1  -0.00601498  0.32652436  0.66087143  1
  Ni  Ni32  1  0.15899960  0.48729412  0.82707186  1
  Cr  Cr33  1  0.15858147  0.82436967  0.49223580  1
  Cr  Cr34  1  0.99199423  0.65745431  0.66131951  1
  Cr  Cr35  1  0.15996704  0.82406385  0.82667098  1
  Ni  Ni36  1  0.49045828  0.16195073  0.49597087  1
  Cr  Cr37  1  0.32533757  -0.00445360  0.65817419  1
  Cr  Cr38  1  0.49271464  0.16222274  0.82447318  1
  Cr  Cr39  1  0.49230633  0.49002974  0.49449924  1
  Ni  Ni40  1  0.32621781  0.32484994  0.65888158  1
  Cr  Cr41  1  0.49076651  0.48947482  0.82428624  1
  Cr  Cr42  1  0.49312159  0.82468377  0.49267589  1
  Cr  Cr43  1  0.32455311  0.65712252  0.66188093  1
  Cr  Cr44  1  0.49228418  0.82660310  0.82733869  1
  Cr  Cr45  1  0.82369430  0.16093256  0.49348304  1
  Cr  Cr46  1  0.65869242  -0.00556874  0.65873580  1
  Cr  Cr47  1  0.82523725  0.16222162  0.82799809  1
  Cr  Cr48  1  0.82509666  0.49248454  0.49254820  1
  Ni  Ni49  1  0.65797563  0.32638649  0.65929774  1
  Ni  Ni50  1  0.82740846  0.48902821  0.82637924  1
  Ni  Ni51  1  0.82505816  0.82625277  0.49292916  1
  Cr  Cr52  1  0.66136025  0.65747819  0.66099184  1
  Cr  Cr53  1  0.82634317  0.82735395  0.82551321  1
" 