1771,Ni77Fe12Cr9_2,-237.25389038824, 186.076781192806,Ni77Fe12Cr9,"# generated using pymatgen
 data_CrFeNi7
_symmetry_space_group_name_H-M   'P 1'
_cell_length_a   7.44855422
_cell_length_b   7.44855422
_cell_length_c   10.53384640
_cell_angle_alpha   90.00000000
_cell_angle_beta   90.00000000
_cell_angle_gamma   90.00000000
_symmetry_Int_Tables_number   1
_chemical_formula_structural   CrFeNi7
_chemical_formula_sum   'Cr6 Fe6 Ni42'
_cell_volume   584.42790996
_cell_formula_units_Z   6
loop_
 _symmetry_equiv_pos_site_id
 _symmetry_equiv_pos_as_xyz
  1  'x, y, z'
loop_
 _atom_site_type_symbol
 _atom_site_label
 _atom_site_symmetry_multiplicity
 _atom_site_fract_x
 _atom_site_fract_y
 _atom_site_fract_z
 _atom_site_occupancy
  Ni  Ni0  1  1.00015757  0.00187117  1.00045837  1
  Ni  Ni1  1  0.16906648  0.16939059  0.16831954  1
  Cr  Cr2  1  0.00197189  0.00206674  0.33516155  1
  Ni  Ni3  1  0.00171444  0.33404275  1.00042953  1
  Fe  Fe4  1  0.16954419  0.50105605  0.16790906  1
  Ni  Ni5  1  0.00209528  0.33535589  0.33539234  1
  Ni  Ni6  1  0.00225708  0.66781150  0.99988502  1
  Ni  Ni7  1  0.17039577  0.83279028  0.16785164  1
  Ni  Ni8  1  0.00445924  0.66638814  0.33614538  1
  Cr  Cr9  1  0.33458889  0.00158600  1.00122954  1
  Ni  Ni10  1  0.50138270  0.16830021  0.16866266  1
  Ni  Ni11  1  0.33601357  0.00124849  0.33436829  1
  Ni  Ni12  1  0.33381370  0.33549467  0.00226186  1
  Fe  Fe13  1  0.49878893  0.50012393  0.16685932  1
  Ni  Ni14  1  0.33445654  0.33427073  0.33411628  1
  Ni  Ni15  1  0.33406943  0.66715771  0.00228981  1
  Ni  Ni16  1  0.49901754  0.83492089  0.16833270  1
  Ni  Ni17  1  0.33282465  0.66820311  0.33427748  1
  Ni  Ni18  1  0.66884414  0.00161423  1.00071665  1
  Ni  Ni19  1  0.83327299  0.16915564  0.16727800  1
  Ni  Ni20  1  0.66535121  0.00361184  0.33500962  1
  Ni  Ni21  1  0.66819445  0.33339266  0.00142679  1
  Cr  Cr22  1  0.83560476  0.49942073  0.16688669  1
  Ni  Ni23  1  0.66717181  0.33216557  0.33529359  1
  Ni  Ni24  1  0.66739706  0.66871639  1.00030576  1
  Cr  Cr25  1  0.83457372  0.83557697  0.16639630  1
  Cr  Cr26  1  0.66719331  0.66816743  0.33619677  1
  Ni  Ni27  1  0.16969072  0.16896708  0.50173360  1
  Ni  Ni28  1  0.00175886  1.00088883  0.66815967  1
  Ni  Ni29  1  0.16750154  0.16937642  0.83366853  1
  Ni  Ni30  1  0.16730533  0.50183144  0.50018793  1
  Ni  Ni31  1  0.00163711  0.33497385  0.66790109  1
  Ni  Ni32  1  0.16622690  0.50080147  0.83541278  1
  Ni  Ni33  1  0.16840043  0.83292434  0.50170688  1
  Ni  Ni34  1  1.00034538  0.66786237  0.66769120  1
  Fe  Fe35  1  0.16648086  0.83420955  0.83401874  1
  Ni  Ni36  1  0.50117991  0.16787331  0.50089632  1
  Ni  Ni37  1  0.33459438  0.00198817  0.66776396  1
  Ni  Ni38  1  0.50152686  0.16676949  0.83416307  1
  Fe  Fe39  1  0.50062991  0.49959029  0.50191705  1
  Ni  Ni40  1  0.33368603  0.33284130  0.66734594  1
  Cr  Cr41  1  0.50120533  0.50095498  0.83498113  1
  Fe  Fe42  1  0.50063144  0.83617610  0.50180239  1
  Fe  Fe43  1  0.33351268  0.66857503  0.66730009  1
  Ni  Ni44  1  0.50281738  0.83535885  0.83395243  1
  Ni  Ni45  1  0.83285194  0.16896709  0.50115435  1
  Ni  Ni46  1  0.66736906  1.00069814  0.66799938  1
  Ni  Ni47  1  0.83469582  0.16754495  0.83529253  1
  Ni  Ni48  1  0.83577742  0.50129207  0.50216832  1
  Ni  Ni49  1  0.66840049  0.33425652  0.66700363  1
  Ni  Ni50  1  0.83650399  0.50209197  0.83447755  1
  Ni  Ni51  1  0.83468342  0.83346584  0.50227441  1
  Ni  Ni52  1  0.66949954  0.66876966  0.66739153  1
  Ni  Ni53  1  0.83390198  0.83408666  0.83521099  1
" 