5933,Ni77Fe12Cr9_17,-237.139733316898, 185.427225868101,Ni77Fe12Cr9,"# generated using pymatgen
 data_CrFeNi7
_symmetry_space_group_name_H-M   'P 1'
_cell_length_a   7.44878323
_cell_length_b   7.44878323
_cell_length_c   10.53417026
_cell_angle_alpha   90.00000000
_cell_angle_beta   90.00000000
_cell_angle_gamma   90.00000000
_symmetry_Int_Tables_number   1
_chemical_formula_structural   CrFeNi7
_chemical_formula_sum   'Cr6 Fe6 Ni42'
_cell_volume   584.48181688
_cell_formula_units_Z   6
loop_
 _symmetry_equiv_pos_site_id
 _symmetry_equiv_pos_as_xyz
  1  'x, y, z'
loop_
 _atom_site_type_symbol
 _atom_site_label
 _atom_site_symmetry_multiplicity
 _atom_site_fract_x
 _atom_site_fract_y
 _atom_site_fract_z
 _atom_site_occupancy
  Ni  Ni0  1  0.00169168  0.00222597  0.00222764  1
  Ni  Ni1  1  0.16838170  0.16841905  0.16838972  1
  Ni  Ni2  1  0.00308791  1.00008731  0.33243696  1
  Ni  Ni3  1  0.00238585  0.33335508  0.00133691  1
  Ni  Ni4  1  0.16671226  0.50040110  0.16702819  1
  Ni  Ni5  1  0.00299022  0.33487084  0.33393076  1
  Ni  Ni6  1  0.99885716  0.66804340  0.00223361  1
  Ni  Ni7  1  0.16640770  0.83522721  0.16582269  1
  Ni  Ni8  1  1.00022246  0.66902970  0.33580821  1
  Ni  Ni9  1  0.33464763  0.00303187  1.00093359  1
  Ni  Ni10  1  0.50038960  0.16871970  0.16746301  1
  Fe  Fe11  1  0.33356693  1.00115372  0.33330240  1
  Ni  Ni12  1  0.33517615  0.33317387  0.00186322  1
  Ni  Ni13  1  0.50196392  0.50005895  0.16614583  1
  Ni  Ni14  1  0.33428629  0.33376256  0.33516484  1
  Fe  Fe15  1  0.33392528  0.66968297  0.00202389  1
  Ni  Ni16  1  0.50142323  0.83478271  0.16504271  1
  Cr  Cr17  1  0.33567745  0.66657530  0.33299381  1
  Ni  Ni18  1  0.66730127  1.00010142  1.00081101  1
  Ni  Ni19  1  0.83523514  0.16866604  0.16624533  1
  Cr  Cr20  1  0.66868187  0.99781216  0.33310943  1
  Fe  Fe21  1  0.66940462  0.33338513  0.00146026  1
  Ni  Ni22  1  0.83517283  0.50148228  0.16870372  1
  Ni  Ni23  1  0.66608706  0.33666076  0.33292805  1
  Ni  Ni24  1  0.66703891  0.66779788  0.00272513  1
  Ni  Ni25  1  0.83535192  0.83325697  0.16748812  1
  Ni  Ni26  1  0.66868111  0.66693707  0.33482529  1
  Ni  Ni27  1  0.16848647  0.16611703  0.49938454  1
  Ni  Ni28  1  0.00314995  0.00139927  0.66865438  1
  Ni  Ni29  1  0.16725745  0.16602387  0.83563234  1
  Ni  Ni30  1  0.16646643  0.50158583  0.50117292  1
  Ni  Ni31  1  1.00022157  0.33134422  0.66815824  1
  Cr  Cr32  1  0.16677175  0.50308241  0.83635824  1
  Ni  Ni33  1  0.16767508  0.83534862  0.50308786  1
  Fe  Fe34  1  0.00134909  0.66568840  0.66672700  1
  Ni  Ni35  1  0.16963919  0.83683790  0.83505950  1
  Ni  Ni36  1  0.49954343  0.16808084  0.50054713  1
  Fe  Fe37  1  0.33477536  0.00157802  0.66900824  1
  Ni  Ni38  1  0.50218423  0.16765612  0.83557542  1
  Ni  Ni39  1  0.50281791  0.50126500  0.50076269  1
  Cr  Cr40  1  0.33449375  0.33579537  0.66689940  1
  Ni  Ni41  1  0.50352401  0.50228975  0.83699440  1
  Ni  Ni42  1  0.50049513  0.83481957  0.50341732  1
  Ni  Ni43  1  0.33719640  0.67014602  0.66899651  1
  Ni  Ni44  1  0.49995501  0.83441619  0.83487319  1
  Cr  Cr45  1  0.83422470  0.16966739  0.50110790  1
  Fe  Fe46  1  0.66658778  0.00268443  0.66846567  1
  Ni  Ni47  1  0.83470422  0.16907926  0.83524632  1
  Ni  Ni48  1  0.83411670  0.50225175  0.50132347  1
  Ni  Ni49  1  0.66766458  0.33709496  0.67002695  1
  Ni  Ni50  1  0.83242440  0.49946503  0.83425919  1
  Ni  Ni51  1  0.83555553  0.83251765  0.50227248  1
  Ni  Ni52  1  0.66520526  0.66743561  0.66604584  1
  Cr  Cr53  1  0.83497038  0.83383236  0.83370240  1
" 