7816,Ni77Fe2Cr20_17,-230.957157455173, 152.583347863334,Ni77Fe2Cr20,"# generated using pymatgen
 data_Cr12FeNi41
_symmetry_space_group_name_H-M   'P 1'
_cell_length_a   7.47588280
_cell_length_b   7.47588280
_cell_length_c   10.57249485
_cell_angle_alpha   90.00000000
_cell_angle_beta   90.00000000
_cell_angle_gamma   90.00000000
_symmetry_Int_Tables_number   1
_chemical_formula_structural   Cr12FeNi41
_chemical_formula_sum   'Cr12 Fe1 Ni41'
_cell_volume   590.88429969
_cell_formula_units_Z   1
loop_
 _symmetry_equiv_pos_site_id
 _symmetry_equiv_pos_as_xyz
  1  'x, y, z'
loop_
 _atom_site_type_symbol
 _atom_site_label
 _atom_site_symmetry_multiplicity
 _atom_site_fract_x
 _atom_site_fract_y
 _atom_site_fract_z
 _atom_site_occupancy
  Ni  Ni0  1  0.00156867  0.00198370  0.00011994  1
  Ni  Ni1  1  0.16569885  0.16512894  0.16570508  1
  Ni  Ni2  1  0.00067521  0.99928325  0.33313098  1
  Ni  Ni3  1  0.00054615  0.33097372  -0.00009035  1
  Ni  Ni4  1  0.16538312  0.49980557  0.16497371  1
  Cr  Cr5  1  -0.00004946  0.33076555  0.33223938  1
  Ni  Ni6  1  0.00383045  0.66534608  0.00004817  1
  Ni  Ni7  1  0.16555464  0.83298624  0.16637584  1
  Ni  Ni8  1  0.00063304  0.66611400  0.33412995  1
  Ni  Ni9  1  0.33026270  -0.00002402  0.99741619  1
  Cr  Cr10  1  0.49820008  0.16561563  0.16730283  1
  Ni  Ni11  1  0.33013788  -0.00036784  0.33487004  1
  Ni  Ni12  1  0.32969944  0.33089900  0.99866345  1
  Cr  Cr13  1  0.49707565  0.49723453  0.16780245  1
  Ni  Ni14  1  0.33211876  0.33226873  0.33499844  1
  Ni  Ni15  1  0.32816072  0.66735829  0.99834846  1
  Cr  Cr16  1  0.49632006  0.83495607  0.16742165  1
  Ni  Ni17  1  0.33109728  0.66630130  0.33439533  1
  Ni  Ni18  1  0.66592358  0.00335266  0.99642552  1
  Ni  Ni19  1  0.83330439  0.16629022  0.16491927  1
  Ni  Ni20  1  0.66704544  0.00078390  0.33646778  1
  Ni  Ni21  1  0.66787795  0.32880342  0.00003479  1
  Ni  Ni22  1  0.83489801  0.49811033  0.16606024  1
  Ni  Ni23  1  0.66690972  0.33255666  0.33408602  1
  Cr  Cr24  1  0.66458523  0.66592175  -0.00022753  1
  Cr  Cr25  1  0.83538255  0.83469141  0.16761288  1
  Ni  Ni26  1  0.66657019  0.66514726  0.33541286  1
  Ni  Ni27  1  0.16779804  0.16606014  0.49918914  1
  Cr  Cr28  1  0.00280421  0.00092673  0.66411341  1
  Ni  Ni29  1  0.16684522  0.16689173  0.83306581  1
  Ni  Ni30  1  0.16616938  0.49898497  0.50057289  1
  Ni  Ni31  1  0.00001711  0.33186996  0.66533976  1
  Ni  Ni32  1  0.16545308  0.49810767  0.83273116  1
  Ni  Ni33  1  0.16592530  0.83287042  0.49737688  1
  Ni  Ni34  1  0.00117886  0.66519578  0.66392468  1
  Ni  Ni35  1  0.16710941  0.83338690  0.83450603  1
  Ni  Ni36  1  0.49868927  0.16635751  0.49954111  1
  Ni  Ni37  1  0.33366556  0.00130906  0.66610972  1
  Ni  Ni38  1  0.49862752  0.16457927  0.83208599  1
  Ni  Ni39  1  0.49879899  0.49734849  0.49718592  1
  Ni  Ni40  1  0.33183826  0.32991541  0.66484679  1
  Cr  Cr41  1  0.49627420  0.49506430  0.83401640  1
  Ni  Ni42  1  0.49872268  0.83512642  0.49731759  1
  Cr  Cr43  1  0.33168631  0.66859411  0.66629679  1
  Ni  Ni44  1  0.49667079  0.83759001  0.83392050  1
  Ni  Ni45  1  0.83172124  0.16605851  0.49956208  1
  Fe  Fe46  1  0.66481940  0.00179352  0.66506002  1
  Ni  Ni47  1  0.83260422  0.16682819  0.83335563  1
  Ni  Ni48  1  0.83348163  0.49910640  0.49960935  1
  Ni  Ni49  1  0.66614841  0.33007611  0.66421541  1
  Cr  Cr50  1  0.83710648  0.49691346  0.83203912  1
  Ni  Ni51  1  0.83374554  0.83275495  0.49750674  1
  Cr  Cr52  1  0.66513456  0.66691331  0.66327954  1
  Cr  Cr53  1  0.83564474  0.83518107  0.83267885  1
" 