6661,Ni77Fe12Cr9_9,-237.200283753463, 185.732860307089,Ni77Fe12Cr9,"# generated using pymatgen
 data_CrFeNi7
_symmetry_space_group_name_H-M   'P 1'
_cell_length_a   7.44774750
_cell_length_b   7.44774750
_cell_length_c   10.53270553
_cell_angle_alpha   90.00000000
_cell_angle_beta   90.00000000
_cell_angle_gamma   90.00000000
_symmetry_Int_Tables_number   1
_chemical_formula_structural   CrFeNi7
_chemical_formula_sum   'Cr6 Fe6 Ni42'
_cell_volume   584.23804124
_cell_formula_units_Z   6
loop_
 _symmetry_equiv_pos_site_id
 _symmetry_equiv_pos_as_xyz
  1  'x, y, z'
loop_
 _atom_site_type_symbol
 _atom_site_label
 _atom_site_symmetry_multiplicity
 _atom_site_fract_x
 _atom_site_fract_y
 _atom_site_fract_z
 _atom_site_occupancy
  Cr  Cr0  1  0.00238131  0.00151708  0.99974269  1
  Ni  Ni1  1  0.16837722  0.16797285  0.16797302  1
  Ni  Ni2  1  0.00162400  1.00067528  0.33557724  1
  Ni  Ni3  1  0.00218024  0.33573447  1.00107174  1
  Ni  Ni4  1  0.16852513  0.50180952  0.16823981  1
  Cr  Cr5  1  0.00254041  0.33464046  0.33518460  1
  Ni  Ni6  1  0.00319109  0.66512322  1.00062854  1
  Ni  Ni7  1  0.16990387  0.83397858  0.16948719  1
  Ni  Ni8  1  0.00287734  0.66902046  0.33515383  1
  Ni  Ni9  1  0.33560955  0.99995729  1.00055982  1
  Cr  Cr10  1  0.49967972  0.16636638  0.16709152  1
  Fe  Fe11  1  0.33368281  0.99981695  0.33574519  1
  Ni  Ni12  1  0.33280915  0.33629527  1.00068724  1
  Ni  Ni13  1  0.50000204  0.50349714  0.16723768  1
  Ni  Ni14  1  0.33299369  0.33556467  0.33465569  1
  Ni  Ni15  1  0.33473269  0.66753699  1.00084690  1
  Ni  Ni16  1  0.49993926  0.83321016  0.16876577  1
  Ni  Ni17  1  0.33441335  0.66792540  0.33376450  1
  Ni  Ni18  1  0.66666737  1.00095167  0.99868289  1
  Ni  Ni19  1  0.83580815  0.16816243  0.16781898  1
  Ni  Ni20  1  0.66859875  0.99978424  0.33688886  1
  Fe  Fe21  1  0.66831332  0.33558131  0.99956941  1
  Ni  Ni22  1  0.83518517  0.50228527  0.16635649  1
  Cr  Cr23  1  0.66716655  0.33496131  0.33390752  1
  Ni  Ni24  1  0.66608014  0.66790815  1.00034794  1
  Cr  Cr25  1  0.83395106  0.83336647  0.16802314  1
  Ni  Ni26  1  0.66738702  0.66969910  0.33462855  1
  Ni  Ni27  1  0.16885633  0.16711662  0.50219236  1
  Ni  Ni28  1  1.00117855  1.00082469  0.66808941  1
  Ni  Ni29  1  0.16947853  0.16869239  0.83417939  1
  Fe  Fe30  1  0.16878412  0.50304613  0.50260102  1
  Fe  Fe31  1  1.00128042  0.33459526  0.66878191  1
  Ni  Ni32  1  0.16778239  0.50105605  0.83332121  1
  Fe  Fe33  1  0.16860178  0.83440535  0.50225705  1
  Ni  Ni34  1  0.00147624  0.66883938  0.66826447  1
  Ni  Ni35  1  0.16851001  0.83402982  0.83325314  1
  Ni  Ni36  1  0.49747012  0.16589403  0.50234703  1
  Ni  Ni37  1  0.33442478  0.00142025  0.66822185  1
  Ni  Ni38  1  0.49988709  0.16788295  0.83369357  1
  Cr  Cr39  1  0.50165895  0.50221425  0.50267465  1
  Ni  Ni40  1  0.33432472  0.33399361  0.66862082  1
  Ni  Ni41  1  0.50098350  0.50124685  0.83420515  1
  Ni  Ni42  1  0.50225642  0.83594914  0.50129140  1
  Ni  Ni43  1  0.33441208  0.66854861  0.66964898  1
  Ni  Ni44  1  0.50123956  0.83487235  0.83387707  1
  Fe  Fe45  1  0.83301550  0.16614319  0.50302147  1
  Ni  Ni46  1  0.66792852  1.00113336  0.66783040  1
  Ni  Ni47  1  0.83447178  0.16857547  0.83276759  1
  Ni  Ni48  1  0.83668004  0.50496913  0.50306478  1
  Ni  Ni49  1  0.66758827  0.33384377  0.66913768  1
  Ni  Ni50  1  0.83506271  0.50243377  0.83452675  1
  Ni  Ni51  1  0.83532036  0.83307517  0.50142740  1
  Ni  Ni52  1  0.66850769  0.66878453  0.66871111  1
  Ni  Ni53  1  0.83416702  0.83303958  0.83332342  1
" 