7532,Ni77Fe4Cr17_12,-232.286197752284, 165.520849858672,Ni77Fe4Cr17,"# generated using pymatgen
 data_Cr11Fe2Ni41
_symmetry_space_group_name_H-M   'P 1'
_cell_length_a   7.46780457
_cell_length_b   7.46780457
_cell_length_c   10.56107051
_cell_angle_alpha   90.00000000
_cell_angle_beta   90.00000000
_cell_angle_gamma   90.00000000
_symmetry_Int_Tables_number   1
_chemical_formula_structural   Cr11Fe2Ni41
_chemical_formula_sum   'Cr11 Fe2 Ni41'
_cell_volume   588.97089065
_cell_formula_units_Z   1
loop_
 _symmetry_equiv_pos_site_id
 _symmetry_equiv_pos_as_xyz
  1  'x, y, z'
loop_
 _atom_site_type_symbol
 _atom_site_label
 _atom_site_symmetry_multiplicity
 _atom_site_fract_x
 _atom_site_fract_y
 _atom_site_fract_z
 _atom_site_occupancy
  Ni  Ni0  1  0.00081349  0.00118447  0.00142961  1
  Ni  Ni1  1  0.16411354  0.16733816  0.16425648  1
  Ni  Ni2  1  0.99890570  0.00076237  0.33212219  1
  Ni  Ni3  1  0.99910426  0.33330452  0.99991640  1
  Ni  Ni4  1  0.16558540  0.49985375  0.16572652  1
  Ni  Ni5  1  0.99767005  0.33371374  0.33366477  1
  Ni  Ni6  1  0.00105956  0.66527463  0.00092860  1
  Ni  Ni7  1  0.16357480  0.83282967  0.16518682  1
  Ni  Ni8  1  0.00042217  0.66571335  0.33161606  1
  Ni  Ni9  1  0.33238282  0.00059252  0.99933943  1
  Ni  Ni10  1  0.50186812  0.16826083  0.16350411  1
  Cr  Cr11  1  0.33116008  0.99879889  0.33162464  1
  Ni  Ni12  1  0.33321139  0.33340822  -0.00001166  1
  Ni  Ni13  1  0.50071942  0.49898831  0.16611387  1
  Cr  Cr14  1  0.33170850  0.33344835  0.33005323  1
  Ni  Ni15  1  0.33200682  0.66607391  0.99941828  1
  Cr  Cr16  1  0.50143105  0.83172549  0.16640299  1
  Ni  Ni17  1  0.33077563  0.66673344  0.33376311  1
  Ni  Ni18  1  0.66704044  0.00211562  -0.00001294  1
  Ni  Ni19  1  0.83409386  0.16651115  0.16755288  1
  Ni  Ni20  1  0.66897880  0.00108259  0.33203195  1
  Ni  Ni21  1  0.66746835  0.33324927  0.00066977  1
  Ni  Ni22  1  0.83360997  0.49983613  0.16614067  1
  Ni  Ni23  1  0.67055508  0.33346973  0.33012730  1
  Ni  Ni24  1  0.66693675  0.66448473  0.99948357  1
  Ni  Ni25  1  0.83488965  0.83362146  0.16572810  1
  Ni  Ni26  1  0.66853539  0.66554512  0.33245054  1
  Ni  Ni27  1  0.16280564  0.16796287  0.50112913  1
  Ni  Ni28  1  0.00001581  0.00277269  0.66653734  1
  Ni  Ni29  1  0.16463672  0.16803661  0.83409932  1
  Ni  Ni30  1  0.16357839  0.49765434  0.49932168  1
  Ni  Ni31  1  0.00105909  0.33161078  0.66632144  1
  Ni  Ni32  1  0.16690985  0.49664586  0.83499388  1
  Ni  Ni33  1  0.16495661  0.83409594  0.49796915  1
  Cr  Cr34  1  0.99963882  0.66418969  0.66907185  1
  Ni  Ni35  1  0.16776400  0.83504589  0.83674336  1
  Cr  Cr36  1  0.50068093  0.16637173  0.49973775  1
  Cr  Cr37  1  0.33210408  0.99979026  0.66770176  1
  Fe  Fe38  1  0.49986861  0.16725695  0.83598482  1
  Cr  Cr39  1  0.50077279  0.50111079  0.49761575  1
  Ni  Ni40  1  0.33055676  0.33298695  0.66883609  1
  Ni  Ni41  1  0.49952441  0.50060525  0.83527264  1
  Ni  Ni42  1  0.50159470  0.83327967  0.49904663  1
  Cr  Cr43  1  0.33261548  0.66621890  0.66619695  1
  Ni  Ni44  1  0.50106598  0.83246076  0.83417691  1
  Fe  Fe45  1  0.83539617  0.16727953  0.49915856  1
  Ni  Ni46  1  0.66744462  0.99990237  0.66792683  1
  Ni  Ni47  1  0.83574140  0.16705387  0.83311092  1
  Ni  Ni48  1  0.83523819  0.49916941  0.49868919  1
  Cr  Cr49  1  0.66972486  0.33489450  0.66923479  1
  Ni  Ni50  1  0.83314174  0.49761579  0.83553274  1
  Cr  Cr51  1  0.83225319  0.83351691  0.49951853  1
  Ni  Ni52  1  0.66602933  0.66726419  0.66795536  1
  Cr  Cr53  1  0.83352396  0.83455022  0.83615250  1
" 