352,Ni77Cr23_6,-208.653462357924, 153.558307923316,Ni77Cr23,"# generated using pymatgen
 data_Cr41Ni13
_symmetry_space_group_name_H-M   'P 1'
_cell_length_a   7.57012215
_cell_length_b   7.57012215
_cell_length_c   10.70576942
_cell_angle_alpha   90.00000000
_cell_angle_beta   90.00000000
_cell_angle_gamma   90.00000000
_symmetry_Int_Tables_number   1
_chemical_formula_structural   Cr41Ni13
_chemical_formula_sum   'Cr41 Ni13'
_cell_volume   613.51284505
_cell_formula_units_Z   1
loop_
 _symmetry_equiv_pos_site_id
 _symmetry_equiv_pos_as_xyz
  1  'x, y, z'
loop_
 _atom_site_type_symbol
 _atom_site_label
 _atom_site_symmetry_multiplicity
 _atom_site_fract_x
 _atom_site_fract_y
 _atom_site_fract_z
 _atom_site_occupancy
  Cr  Cr0  1  0.99205453  -0.00584835  -0.00575928  1
  Cr  Cr1  1  0.15992140  0.15961567  0.15954893  1
  Ni  Ni2  1  0.99281126  0.99292223  0.32845111  1
  Cr  Cr3  1  -0.00678467  0.32674125  0.99065319  1
  Cr  Cr4  1  0.16284398  0.49376976  0.15818588  1
  Cr  Cr5  1  -0.00674346  0.32367442  0.32767835  1
  Cr  Cr6  1  0.99255134  0.65866529  0.99156988  1
  Cr  Cr7  1  0.15930259  0.82619952  0.16103168  1
  Cr  Cr8  1  0.99260085  0.66237746  0.32709035  1
  Cr  Cr9  1  0.32794544  -0.00650763  0.99211108  1
  Cr  Cr10  1  0.49376192  0.16324771  0.15882158  1
  Cr  Cr11  1  0.32397006  0.99287990  0.32744540  1
  Ni  Ni12  1  0.32727910  0.32754521  -0.00568610  1
  Ni  Ni13  1  0.49301127  0.49315065  0.16226303  1
  Cr  Cr14  1  0.32849597  0.32886277  0.32698696  1
  Cr  Cr15  1  0.32804247  0.65869066  -0.00588042  1
  Cr  Cr16  1  0.49320077  0.82382767  0.16028738  1
  Ni  Ni17  1  0.33080403  0.65776738  0.32618956  1
  Cr  Cr18  1  0.65961305  0.99290438  0.99094867  1
  Cr  Cr19  1  0.82591936  0.15966163  0.16125567  1
  Cr  Cr20  1  0.66238067  0.99221676  0.32645152  1
  Cr  Cr21  1  0.65961827  0.32682422  0.99263051  1
  Cr  Cr22  1  0.82352398  0.49321490  0.16088095  1
  Ni  Ni23  1  0.65793210  0.33087898  0.32627110  1
  Cr  Cr24  1  0.65897149  0.65982199  0.99204984  1
  Cr  Cr25  1  0.82707478  0.82668102  0.16257400  1
  Ni  Ni26  1  0.65707474  0.65699263  0.32752589  1
  Ni  Ni27  1  0.15975768  0.15758412  0.49326604  1
  Cr  Cr28  1  -0.00623282  -0.00558793  0.65768188  1
  Cr  Cr29  1  0.16073386  0.16007110  0.82620084  1
  Cr  Cr30  1  0.16188433  0.49299621  0.49353461  1
  Cr  Cr31  1  0.99265157  0.32611231  0.66123880  1
  Cr  Cr32  1  0.15841428  0.49294137  0.82780444  1
  Cr  Cr33  1  0.15902275  0.82847225  0.49262456  1
  Cr  Cr34  1  0.99140725  0.65904672  0.66096609  1
  Cr  Cr35  1  0.16238557  0.82659304  0.82601088  1
  Cr  Cr36  1  0.49208607  0.16161781  0.49413899  1
  Ni  Ni37  1  0.32631008  0.99317880  0.66039755  1
  Cr  Cr38  1  0.49324790  0.15786946  0.82655646  1
  Ni  Ni39  1  0.49414965  0.49415377  0.48941492  1
  Cr  Cr40  1  0.32588171  0.32505661  0.65723269  1
  Cr  Cr41  1  0.49374803  0.49338200  0.82713707  1
  Cr  Cr42  1  0.49375404  0.82456442  0.49394521  1
  Cr  Cr43  1  0.32832929  0.66134991  0.65962107  1
  Ni  Ni44  1  0.49262618  0.82764169  0.82561706  1
  Cr  Cr45  1  0.82729280  0.15876362  0.49114686  1
  Cr  Cr46  1  0.65872634  0.99199446  0.66219214  1
  Ni  Ni47  1  0.82641035  0.16175155  0.82686906  1
  Cr  Cr48  1  0.82331400  0.49466199  0.49244161  1
  Cr  Cr49  1  0.66101991  0.32738064  0.66048124  1
  Ni  Ni50  1  0.82640356  0.49127739  0.82662166  1
  Ni  Ni51  1  0.82683778  0.82658714  0.49094883  1
  Cr  Cr52  1  0.65980985  0.66016068  0.66016355  1
  Cr  Cr53  1  0.82521955  0.82596965  0.82653804  1
" 