7875,Ni77Fe6Cr15_9,-233.864611270268, 169.465653566839,Ni77Fe6Cr15,"# generated using pymatgen
 data_Cr3FeNi14
_symmetry_space_group_name_H-M   'P 1'
_cell_length_a   7.46504262
_cell_length_b   7.46504262
_cell_length_c   10.55716452
_cell_angle_alpha   90.00000000
_cell_angle_beta   90.00000000
_cell_angle_gamma   90.00000000
_symmetry_Int_Tables_number   1
_chemical_formula_structural   Cr3FeNi14
_chemical_formula_sum   'Cr9 Fe3 Ni42'
_cell_volume   588.31764267
_cell_formula_units_Z   3
loop_
 _symmetry_equiv_pos_site_id
 _symmetry_equiv_pos_as_xyz
  1  'x, y, z'
loop_
 _atom_site_type_symbol
 _atom_site_label
 _atom_site_symmetry_multiplicity
 _atom_site_fract_x
 _atom_site_fract_y
 _atom_site_fract_z
 _atom_site_occupancy
  Ni  Ni0  1  0.99963049  0.00074729  0.99971933  1
  Ni  Ni1  1  0.16569612  0.16662993  0.16620333  1
  Ni  Ni2  1  0.99876759  0.00117176  0.33267105  1
  Ni  Ni3  1  0.99899986  0.33183572  0.99981000  1
  Ni  Ni4  1  0.16817670  0.50116911  0.16780652  1
  Ni  Ni5  1  0.00077726  0.33307555  0.33446025  1
  Ni  Ni6  1  0.99926579  0.66782142  0.99997519  1
  Ni  Ni7  1  0.16615283  0.83260376  0.16525274  1
  Ni  Ni8  1  0.00124115  0.66615569  0.33353000  1
  Ni  Ni9  1  0.33280528  0.99816770  0.00060370  1
  Ni  Ni10  1  0.50131748  0.16636662  0.16683786  1
  Cr  Cr11  1  0.33379286  0.00045494  0.33279983  1
  Cr  Cr12  1  0.33261026  0.33311772  0.00275001  1
  Ni  Ni13  1  0.49847971  0.50107360  0.16733566  1
  Ni  Ni14  1  0.33321178  0.33555378  0.33373557  1
  Ni  Ni15  1  0.33491635  0.66865345  0.00085568  1
  Ni  Ni16  1  0.50076320  0.83296385  0.16527937  1
  Ni  Ni17  1  0.33363121  0.66456163  0.33354493  1
  Ni  Ni18  1  0.66796661  0.99842816  0.00119098  1
  Ni  Ni19  1  0.83339093  0.16434752  0.16640520  1
  Ni  Ni20  1  0.66800919  0.00075184  0.33272668  1
  Fe  Fe21  1  0.66855860  0.33357554  0.99992317  1
  Cr  Cr22  1  0.83401972  0.50078524  0.16660619  1
  Ni  Ni23  1  0.66641442  0.33308047  0.33436468  1
  Ni  Ni24  1  0.66622379  0.66802917  0.99886212  1
  Ni  Ni25  1  0.83348701  0.83544051  0.16684341  1
  Ni  Ni26  1  0.66553058  0.66657021  0.33358573  1
  Ni  Ni27  1  0.16710016  0.16702562  0.50098979  1
  Ni  Ni28  1  0.00129200  0.00171931  0.66801282  1
  Ni  Ni29  1  0.16515650  0.16359276  0.83321060  1
  Ni  Ni30  1  0.16885038  0.50037700  0.49838599  1
  Cr  Cr31  1  0.99910770  0.33132038  0.66596135  1
  Cr  Cr32  1  0.16789011  0.50077692  0.83426675  1
  Ni  Ni33  1  0.16829810  0.83300178  0.50127528  1
  Cr  Cr34  1  0.00077176  0.66759228  0.66657923  1
  Fe  Fe35  1  0.16673952  0.83573458  0.83423932  1
  Ni  Ni36  1  0.50083603  0.16790416  0.50148951  1
  Ni  Ni37  1  0.33276488  0.99987311  0.66637778  1
  Cr  Cr38  1  0.50036317  0.16644747  0.83205485  1
  Ni  Ni39  1  0.49873179  0.49914020  0.49999886  1
  Ni  Ni40  1  0.33519401  0.33296432  0.66473932  1
  Ni  Ni41  1  0.50162816  0.50184322  0.83307386  1
  Ni  Ni42  1  0.49840234  0.83335880  0.50104034  1
  Ni  Ni43  1  0.33488333  0.66756861  0.66600260  1
  Fe  Fe44  1  0.50019238  0.83287125  0.83433451  1
  Ni  Ni45  1  0.83246681  0.16735609  0.50005522  1
  Ni  Ni46  1  0.66634590  0.00203439  0.66648268  1
  Ni  Ni47  1  0.83435543  0.16509038  0.83394602  1
  Ni  Ni48  1  0.83282031  0.49793784  0.49854548  1
  Ni  Ni49  1  0.66569722  0.33258362  0.66660559  1
  Ni  Ni50  1  0.83112970  0.50043782  0.83569103  1
  Cr  Cr51  1  0.83367882  0.83512561  0.49751815  1
  Cr  Cr52  1  0.66499761  0.66556971  0.66747845  1
  Ni  Ni53  1  0.83372089  0.83487234  0.83521720  1
" 