6986,Ni77Fe6Cr15_7,-233.953549746385, 169.650636116716,Ni77Fe6Cr15,"# generated using pymatgen
 data_Cr3FeNi14
_symmetry_space_group_name_H-M   'P 1'
_cell_length_a   7.46312067
_cell_length_b   7.46312067
_cell_length_c   10.55444648
_cell_angle_alpha   90.00000000
_cell_angle_beta   90.00000000
_cell_angle_gamma   90.00000000
_symmetry_Int_Tables_number   1
_chemical_formula_structural   Cr3FeNi14
_chemical_formula_sum   'Cr9 Fe3 Ni42'
_cell_volume   587.86335622
_cell_formula_units_Z   3
loop_
 _symmetry_equiv_pos_site_id
 _symmetry_equiv_pos_as_xyz
  1  'x, y, z'
loop_
 _atom_site_type_symbol
 _atom_site_label
 _atom_site_symmetry_multiplicity
 _atom_site_fract_x
 _atom_site_fract_y
 _atom_site_fract_z
 _atom_site_occupancy
  Fe  Fe0  1  0.00117836  0.00110821  0.00113762  1
  Ni  Ni1  1  0.16640592  0.16727793  0.16683089  1
  Ni  Ni2  1  0.00091416  0.00053875  0.33318986  1
  Ni  Ni3  1  0.00159145  0.33283798  0.00179618  1
  Ni  Ni4  1  0.16574333  0.49926047  0.16659090  1
  Ni  Ni5  1  0.99850934  0.33302526  0.33277122  1
  Cr  Cr6  1  0.00106426  0.66708035  0.00163793  1
  Ni  Ni7  1  0.16591548  0.83425053  0.16800714  1
  Ni  Ni8  1  0.99982262  0.66722512  0.33247268  1
  Ni  Ni9  1  0.33412974  0.00153266  0.99910943  1
  Ni  Ni10  1  0.50038810  0.16743993  0.16598271  1
  Ni  Ni11  1  0.33192586  0.99960302  0.33361512  1
  Ni  Ni12  1  0.33217465  0.33119456  0.00033555  1
  Cr  Cr13  1  0.50047212  0.49925995  0.16710980  1
  Fe  Fe14  1  0.33279512  0.33267770  0.33268414  1
  Ni  Ni15  1  0.33256686  0.66806157  0.99919119  1
  Cr  Cr16  1  0.50013557  0.83453936  0.16671850  1
  Ni  Ni17  1  0.33257792  0.66860178  0.33427737  1
  Ni  Ni18  1  0.66564659  0.00087362  0.99998985  1
  Ni  Ni19  1  0.83399500  0.16760955  0.16667389  1
  Ni  Ni20  1  0.66794966  0.00091543  0.33355574  1
  Ni  Ni21  1  0.66702370  0.33127495  0.00235678  1
  Ni  Ni22  1  0.83459777  0.49898943  0.16774489  1
  Ni  Ni23  1  0.66932397  0.33367794  0.33316872  1
  Ni  Ni24  1  0.66729437  0.66864164  1.00002059  1
  Ni  Ni25  1  0.83475730  0.83419192  0.16721902  1
  Ni  Ni26  1  0.66838858  0.66619575  0.33556116  1
  Ni  Ni27  1  0.16487891  0.16535974  0.50084586  1
  Ni  Ni28  1  0.00145942  0.99950030  0.66629990  1
  Ni  Ni29  1  0.16897301  0.16659799  0.83311255  1
  Cr  Cr30  1  0.16701219  0.50018065  0.50115669  1
  Ni  Ni31  1  0.00281893  0.33291566  0.66622171  1
  Fe  Fe32  1  0.16818095  0.49961734  0.83305748  1
  Ni  Ni33  1  0.16701724  0.83516989  0.50013659  1
  Ni  Ni34  1  0.00028352  0.66837353  0.66693294  1
  Ni  Ni35  1  0.16838933  0.83488993  0.83264464  1
  Cr  Cr36  1  0.49942106  0.16613152  0.49956327  1
  Ni  Ni37  1  0.33259402  0.99944338  0.66806433  1
  Ni  Ni38  1  0.49693049  0.16466551  0.83500470  1
  Ni  Ni39  1  0.50165382  0.50322200  0.49955552  1
  Ni  Ni40  1  0.33073933  0.33247913  0.66799268  1
  Cr  Cr41  1  0.49851480  0.50131256  0.83449071  1
  Ni  Ni42  1  0.50056104  0.83119797  0.50102130  1
  Ni  Ni43  1  0.33333195  0.66886649  0.66732154  1
  Ni  Ni44  1  0.49971104  0.83462151  0.83337644  1
  Ni  Ni45  1  0.83617283  0.16645119  0.49971119  1
  Ni  Ni46  1  0.66673621  0.99690757  0.66724430  1
  Cr  Cr47  1  0.83470026  0.16500103  0.83410518  1
  Ni  Ni48  1  0.83220203  0.50108493  0.49946358  1
  Cr  Cr49  1  0.66712340  0.33326070  0.66496696  1
  Cr  Cr50  1  0.83443924  0.50163535  0.83338938  1
  Ni  Ni51  1  0.83321101  0.83325324  0.50098514  1
  Ni  Ni52  1  0.66717417  0.67022486  0.66520872  1
  Ni  Ni53  1  0.83268882  0.83395751  0.83258465  1
" 