8633,Ni77Fe18Cr4_7,-239.345595310664, 197.815532146067,Ni77Fe18Cr4,"# generated using pymatgen
 data_Cr4Fe9Ni41
_symmetry_space_group_name_H-M   'P 1'
_cell_length_a   7.43360745
_cell_length_b   7.43360745
_cell_length_c   10.51270847
_cell_angle_alpha   90.00000000
_cell_angle_beta   90.00000000
_cell_angle_gamma   90.00000000
_symmetry_Int_Tables_number   1
_chemical_formula_structural   Cr4Fe9Ni41
_chemical_formula_sum   'Cr4 Fe9 Ni41'
_cell_volume   580.91670764
_cell_formula_units_Z   1
loop_
 _symmetry_equiv_pos_site_id
 _symmetry_equiv_pos_as_xyz
  1  'x, y, z'
loop_
 _atom_site_type_symbol
 _atom_site_label
 _atom_site_symmetry_multiplicity
 _atom_site_fract_x
 _atom_site_fract_y
 _atom_site_fract_z
 _atom_site_occupancy
  Ni  Ni0  1  1.00184297  1.00171813  1.00220712  1
  Ni  Ni1  1  0.16914307  0.17125425  0.16933262  1
  Ni  Ni2  1  1.00091496  0.00252497  0.33573165  1
  Ni  Ni3  1  0.00416099  0.33687473  0.00296565  1
  Ni  Ni4  1  0.16834124  0.49984345  0.16915432  1
  Ni  Ni5  1  0.00498981  0.33539062  0.33558252  1
  Ni  Ni6  1  1.00148623  0.66815494  1.00103955  1
  Cr  Cr7  1  0.16846468  0.83558499  0.16959154  1
  Ni  Ni8  1  0.00235986  0.66883279  0.33655340  1
  Ni  Ni9  1  0.33699855  0.00383087  1.00078755  1
  Ni  Ni10  1  0.50145166  0.16842740  0.16815495  1
  Fe  Fe11  1  0.33622187  0.00277513  0.33602300  1
  Ni  Ni12  1  0.33544937  0.33553138  1.00224803  1
  Ni  Ni13  1  0.50195497  0.50237106  0.16867144  1
  Ni  Ni14  1  0.33384126  0.33653827  0.33528966  1
  Fe  Fe15  1  0.33554281  0.66859679  1.00166385  1
  Ni  Ni16  1  0.50482202  0.83595031  0.16940812  1
  Ni  Ni17  1  0.33611372  0.66732685  0.33569941  1
  Ni  Ni18  1  0.66790672  1.00115548  0.00316273  1
  Fe  Fe19  1  0.83634879  0.16809854  0.16860790  1
  Ni  Ni20  1  0.66942231  1.00025155  0.33542730  1
  Fe  Fe21  1  0.66831950  0.33577138  0.00255656  1
  Ni  Ni22  1  0.83645363  0.50321100  0.16848768  1
  Cr  Cr23  1  0.66808991  0.33480406  0.33502746  1
  Fe  Fe24  1  0.66942404  0.66936921  0.00229930  1
  Ni  Ni25  1  0.83362620  0.83514662  0.16921328  1
  Ni  Ni26  1  0.66827476  0.67140084  0.33555673  1
  Ni  Ni27  1  0.16887642  0.16980919  0.50220931  1
  Ni  Ni28  1  1.00205655  1.00084156  0.66881013  1
  Ni  Ni29  1  0.17079270  0.16905671  0.83520420  1
  Ni  Ni30  1  0.16789347  0.50130967  0.50074788  1
  Fe  Fe31  1  0.00251396  0.33642642  0.66822147  1
  Ni  Ni32  1  0.16801127  0.50162248  0.83684729  1
  Ni  Ni33  1  0.16776460  0.83563086  0.50138125  1
  Ni  Ni34  1  1.00082277  0.66999258  0.66915234  1
  Ni  Ni35  1  0.16792424  0.83607103  0.83603359  1
  Ni  Ni36  1  0.50196331  0.16804487  0.50345566  1
  Fe  Fe37  1  0.33606364  0.00352956  0.66941752  1
  Ni  Ni38  1  0.50050151  0.16899818  0.83513409  1
  Fe  Fe39  1  0.50168655  0.50219918  0.50230007  1
  Ni  Ni40  1  0.33649137  0.33438565  0.66921090  1
  Ni  Ni41  1  0.50298455  0.50138326  0.83608188  1
  Ni  Ni42  1  0.50384980  0.83661967  0.50083397  1
  Cr  Cr43  1  0.33496573  0.66813860  0.66985321  1
  Ni  Ni44  1  0.50313026  0.83636632  0.83650573  1
  Ni  Ni45  1  0.83590838  0.16791500  0.50237089  1
  Ni  Ni46  1  0.66909358  1.00203080  0.66815927  1
  Cr  Cr47  1  0.83549454  0.16887754  0.83575585  1
  Fe  Fe48  1  0.83665957  0.50327856  0.50296093  1
  Ni  Ni49  1  0.66684504  0.33562100  0.66879264  1
  Ni  Ni50  1  0.83575322  0.50425029  0.83484608  1
  Ni  Ni51  1  0.83513456  0.83563941  0.50224795  1
  Ni  Ni52  1  0.67061867  0.66909892  0.66919447  1
  Ni  Ni53  1  0.83569359  0.83358686  0.83528796  1
" 