4689,Ni77Fe6Cr15_16,-233.900030675201, 167.400938754428,Ni77Fe6Cr15,"# generated using pymatgen
 data_Cr3FeNi14
_symmetry_space_group_name_H-M   'P 1'
_cell_length_a   7.46367552
_cell_length_b   7.46367552
_cell_length_c   10.55523115
_cell_angle_alpha   90.00000000
_cell_angle_beta   90.00000000
_cell_angle_gamma   90.00000000
_symmetry_Int_Tables_number   1
_chemical_formula_structural   Cr3FeNi14
_chemical_formula_sum   'Cr9 Fe3 Ni42'
_cell_volume   587.99448060
_cell_formula_units_Z   3
loop_
 _symmetry_equiv_pos_site_id
 _symmetry_equiv_pos_as_xyz
  1  'x, y, z'
loop_
 _atom_site_type_symbol
 _atom_site_label
 _atom_site_symmetry_multiplicity
 _atom_site_fract_x
 _atom_site_fract_y
 _atom_site_fract_z
 _atom_site_occupancy
  Ni  Ni0  1  0.00066396  0.99739008  0.00040298  1
  Ni  Ni1  1  0.16734042  0.16679672  0.16713316  1
  Ni  Ni2  1  0.99791900  0.00061370  0.33425480  1
  Cr  Cr3  1  0.00158288  0.33371230  0.00158579  1
  Ni  Ni4  1  0.16733679  0.50066934  0.16711868  1
  Ni  Ni5  1  0.99975985  0.33238133  0.33249702  1
  Ni  Ni6  1  0.00090122  0.66950779  0.00063898  1
  Ni  Ni7  1  0.16450820  0.83321084  0.16502616  1
  Ni  Ni8  1  0.99814733  0.66768232  0.33214881  1
  Ni  Ni9  1  0.33321342  0.00100676  0.00036543  1
  Ni  Ni10  1  0.50109680  0.16875643  0.16590027  1
  Cr  Cr11  1  0.33387053  0.00153737  0.33463507  1
  Ni  Ni12  1  0.33571767  0.33377860  0.99976772  1
  Ni  Ni13  1  0.50110304  0.49871491  0.16588582  1
  Ni  Ni14  1  0.33350195  0.33237506  0.33214654  1
  Ni  Ni15  1  0.33297688  0.66589317  0.00060117  1
  Fe  Fe16  1  0.50197854  0.83351542  0.16550734  1
  Cr  Cr17  1  0.33351015  0.66687027  0.33241418  1
  Ni  Ni18  1  0.66680081  1.00013320  0.00184564  1
  Ni  Ni19  1  0.83224023  0.16592928  0.16813722  1
  Ni  Ni20  1  0.66892542  0.00051869  0.33404281  1
  Ni  Ni21  1  0.66318494  0.33354088  0.00128099  1
  Ni  Ni22  1  0.83223760  0.50154324  0.16812655  1
  Ni  Ni23  1  0.66741570  0.33214577  0.33238059  1
  Ni  Ni24  1  0.66680010  0.66700399  0.00137802  1
  Ni  Ni25  1  0.83419508  0.83320476  0.16676993  1
  Ni  Ni26  1  0.66893354  0.66801499  0.33264136  1
  Ni  Ni27  1  0.16629600  0.16545882  0.50092166  1
  Ni  Ni28  1  1.00020476  0.99935466  0.66602085  1
  Ni  Ni29  1  0.16966696  0.16619331  0.83262276  1
  Cr  Cr30  1  0.16622218  0.49955812  0.50014947  1
  Ni  Ni31  1  0.00215779  0.33261088  0.66640498  1
  Ni  Ni32  1  0.16966709  0.50125890  0.83265831  1
  Ni  Ni33  1  0.16536419  0.83559198  0.50221267  1
  Ni  Ni34  1  0.00128377  0.66871164  0.66788673  1
  Ni  Ni35  1  0.16516826  0.83322506  0.83343869  1
  Ni  Ni36  1  0.50097995  0.16543694  0.50123678  1
  Ni  Ni37  1  0.33358540  0.00109168  0.66579701  1
  Ni  Ni38  1  0.49823330  0.16900809  0.83353978  1
  Cr  Cr39  1  0.50055169  0.49957972  0.50096931  1
  Ni  Ni40  1  0.33337268  0.33261164  0.66876019  1
  Ni  Ni41  1  0.49815005  0.49836696  0.83362964  1
  Ni  Ni42  1  0.50185557  0.83567142  0.50127326  1
  Ni  Ni43  1  0.33250652  0.66697488  0.66766613  1
  Cr  Cr44  1  0.49992591  0.83385325  0.83431039  1
  Ni  Ni45  1  0.83340148  0.16451076  0.49981515  1
  Ni  Ni46  1  0.66688790  1.00022072  0.66479183  1
  Cr  Cr47  1  0.83291322  0.16427931  0.83338427  1
  Cr  Cr48  1  0.83390272  0.50021366  0.49960585  1
  Fe  Fe49  1  0.66514364  0.33127948  0.66695722  1
  Cr  Cr50  1  0.83287821  0.50254347  0.83276356  1
  Ni  Ni51  1  0.83345940  0.83566424  0.50036767  1
  Fe  Fe52  1  0.66688834  0.66917733  0.66684115  1
  Ni  Ni53  1  0.83566957  0.83330444  0.83354023  1
" 