8395,Ni77Fe4Cr17_13,-232.088017302826, 159.313690037222,Ni77Fe4Cr17,"# generated using pymatgen
 data_Cr11Fe2Ni41
_symmetry_space_group_name_H-M   'P 1'
_cell_length_a   7.46714697
_cell_length_b   7.46714697
_cell_length_c   10.56014051
_cell_angle_alpha   90.00000000
_cell_angle_beta   90.00000000
_cell_angle_gamma   90.00000000
_symmetry_Int_Tables_number   1
_chemical_formula_structural   Cr11Fe2Ni41
_chemical_formula_sum   'Cr11 Fe2 Ni41'
_cell_volume   588.81531171
_cell_formula_units_Z   1
loop_
 _symmetry_equiv_pos_site_id
 _symmetry_equiv_pos_as_xyz
  1  'x, y, z'
loop_
 _atom_site_type_symbol
 _atom_site_label
 _atom_site_symmetry_multiplicity
 _atom_site_fract_x
 _atom_site_fract_y
 _atom_site_fract_z
 _atom_site_occupancy
  Ni  Ni0  1  0.00287514  0.00018315  0.99888953  1
  Fe  Fe1  1  0.16646369  0.16597726  0.16578380  1
  Ni  Ni2  1  0.00393922  0.00315101  0.33367918  1
  Ni  Ni3  1  0.99989290  0.33319737  0.99811957  1
  Cr  Cr4  1  0.16828137  0.49923700  0.16516303  1
  Ni  Ni5  1  0.99928817  0.33160466  0.33513080  1
  Ni  Ni6  1  0.00053252  0.66652656  0.99862448  1
  Ni  Ni7  1  0.16769034  0.83469631  0.16570368  1
  Cr  Cr8  1  0.00149184  0.66608772  0.33425203  1
  Ni  Ni9  1  0.33143989  0.00007509  0.99876303  1
  Cr  Cr10  1  0.49923660  0.16809178  0.16615829  1
  Ni  Ni11  1  0.33141414  0.99970888  0.33440398  1
  Ni  Ni12  1  0.33361592  0.33276195  0.99890889  1
  Ni  Ni13  1  0.50033996  0.49947302  0.16645641  1
  Fe  Fe14  1  0.33269521  0.33221219  0.33400969  1
  Ni  Ni15  1  0.33318296  0.66707255  0.99824146  1
  Cr  Cr16  1  0.49886122  0.83251548  0.16664311  1
  Ni  Ni17  1  0.33371184  0.66862671  0.33433830  1
  Ni  Ni18  1  0.66587276  0.00063566  0.99568725  1
  Cr  Cr19  1  0.83425504  0.16699031  0.16597304  1
  Ni  Ni20  1  0.66472805  0.00208518  0.33665002  1
  Ni  Ni21  1  0.66639109  0.33488181  0.99845591  1
  Ni  Ni22  1  0.83217715  0.49828330  0.16600928  1
  Ni  Ni23  1  0.66781792  0.33370250  0.33380149  1
  Ni  Ni24  1  0.66635476  0.66430450  0.99909640  1
  Cr  Cr25  1  0.83432353  0.83410536  0.16531781  1
  Ni  Ni26  1  0.66447938  0.66405567  0.33276776  1
  Ni  Ni27  1  0.16658166  0.16698376  0.49909522  1
  Ni  Ni28  1  0.00205140  0.00276493  0.66721503  1
  Ni  Ni29  1  0.16669739  0.16727115  0.83430957  1
  Ni  Ni30  1  0.16712610  0.49800661  0.50091696  1
  Ni  Ni31  1  0.00173093  0.33117025  0.66637983  1
  Ni  Ni32  1  0.16795100  0.49876971  0.83311648  1
  Ni  Ni33  1  0.16982769  0.83497092  0.50015164  1
  Cr  Cr34  1  0.00193322  0.66524689  0.66725647  1
  Ni  Ni35  1  0.16734864  0.83397397  0.83420172  1
  Ni  Ni36  1  0.49896762  0.16460993  0.49953000  1
  Ni  Ni37  1  0.33294580  0.00049980  0.66663994  1
  Ni  Ni38  1  0.49860867  0.16599318  0.83397203  1
  Cr  Cr39  1  0.49725954  0.49995170  0.49881650  1
  Ni  Ni40  1  0.33106194  0.33136448  0.66717378  1
  Ni  Ni41  1  0.49682686  0.49963728  0.83605990  1
  Ni  Ni42  1  0.49703512  0.83585468  0.49917548  1
  Ni  Ni43  1  0.33230394  0.66811178  0.66747680  1
  Ni  Ni44  1  0.49878936  0.83446128  0.83387789  1
  Ni  Ni45  1  0.83437990  0.16709224  0.49964717  1
  Ni  Ni46  1  0.66496817  0.00140446  0.66731902  1
  Ni  Ni47  1  0.83461387  0.16533080  0.83378572  1
  Ni  Ni48  1  0.83513106  0.49604383  0.49756803  1
  Cr  Cr49  1  0.66770296  0.33108174  0.66853821  1
  Ni  Ni50  1  0.83520688  0.49874952  0.83681410  1
  Cr  Cr51  1  0.83230396  0.83672794  0.49928698  1
  Cr  Cr52  1  0.66519864  0.66750754  0.66866486  1
  Ni  Ni53  1  0.83373579  0.83581738  0.83562319  1
" 