7954,Ni77Fe6Cr15_2,-233.932927227988, 167.4172941234,Ni77Fe6Cr15,"# generated using pymatgen
 data_Cr3FeNi14
_symmetry_space_group_name_H-M   'P 1'
_cell_length_a   7.46300724
_cell_length_b   7.46300724
_cell_length_c   10.55428606
_cell_angle_alpha   90.00000000
_cell_angle_beta   90.00000000
_cell_angle_gamma   90.00000000
_symmetry_Int_Tables_number   1
_chemical_formula_structural   Cr3FeNi14
_chemical_formula_sum   'Cr9 Fe3 Ni42'
_cell_volume   587.83655131
_cell_formula_units_Z   3
loop_
 _symmetry_equiv_pos_site_id
 _symmetry_equiv_pos_as_xyz
  1  'x, y, z'
loop_
 _atom_site_type_symbol
 _atom_site_label
 _atom_site_symmetry_multiplicity
 _atom_site_fract_x
 _atom_site_fract_y
 _atom_site_fract_z
 _atom_site_occupancy
  Ni  Ni0  1  0.00057076  1.00013728  1.00012392  1
  Ni  Ni1  1  0.16600903  0.16795007  0.16780800  1
  Fe  Fe2  1  0.00146252  0.00106914  0.33402842  1
  Cr  Cr3  1  0.00132610  0.33500976  0.99772380  1
  Ni  Ni4  1  0.16763303  0.50090035  0.16786601  1
  Ni  Ni5  1  0.00193805  0.33459108  0.33441178  1
  Ni  Ni6  1  0.00202596  0.66708936  0.99835602  1
  Ni  Ni7  1  0.16655459  0.83191442  0.16771750  1
  Ni  Ni8  1  0.00275006  0.66486556  0.33526161  1
  Cr  Cr9  1  0.33257515  1.00016124  0.99816663  1
  Ni  Ni10  1  0.49950584  0.16867516  0.16508319  1
  Cr  Cr11  1  0.33439073  0.99950732  0.33495500  1
  Ni  Ni12  1  0.33465531  0.33515731  0.00060252  1
  Ni  Ni13  1  0.49754447  0.50029727  0.16535253  1
  Ni  Ni14  1  0.33039868  0.33360455  0.33207822  1
  Ni  Ni15  1  0.33283326  0.66596948  0.00084598  1
  Ni  Ni16  1  0.49869157  0.83185933  0.16473970  1
  Ni  Ni17  1  0.33024753  0.66678269  0.33266387  1
  Ni  Ni18  1  0.66668029  0.00145353  0.99927290  1
  Ni  Ni19  1  0.83533081  0.16772841  0.16612212  1
  Cr  Cr20  1  0.66626412  0.00090028  0.33437142  1
  Ni  Ni21  1  0.66616713  0.33386405  0.00045580  1
  Ni  Ni22  1  0.83556060  0.50018106  0.16618764  1
  Cr  Cr23  1  0.66815359  0.33327569  0.33288643  1
  Ni  Ni24  1  0.66589955  0.66550106  0.99924032  1
  Cr  Cr25  1  0.83575326  0.83373871  0.16381770  1
  Cr  Cr26  1  0.66623806  0.66672314  0.33397414  1
  Ni  Ni27  1  0.16710470  0.16984698  0.50022089  1
  Cr  Cr28  1  1.00024114  0.00042501  0.66789223  1
  Ni  Ni29  1  0.16773022  0.16825536  0.83272991  1
  Ni  Ni30  1  0.16589997  0.49936680  0.50035411  1
  Ni  Ni31  1  0.00095428  0.33472907  0.66701792  1
  Ni  Ni32  1  0.16883874  0.50118082  0.83218844  1
  Fe  Fe33  1  0.16660896  0.83151028  0.50097881  1
  Ni  Ni34  1  0.00099881  0.66546592  0.66732448  1
  Ni  Ni35  1  0.16630284  0.83130957  0.83355952  1
  Ni  Ni36  1  0.49853909  0.16613033  0.50368428  1
  Fe  Fe37  1  0.33424221  0.00032927  0.66823200  1
  Ni  Ni38  1  0.50114487  0.16847991  0.83195787  1
  Cr  Cr39  1  0.49662971  0.49956692  0.50207802  1
  Ni  Ni40  1  0.33189267  0.33335972  0.66814363  1
  Ni  Ni41  1  0.49960641  0.50020616  0.83369105  1
  Ni  Ni42  1  0.49980362  0.83375432  0.50366465  1
  Ni  Ni43  1  0.33245270  0.66739503  0.66763245  1
  Ni  Ni44  1  0.50150325  0.83222087  0.83251658  1
  Ni  Ni45  1  0.83542782  0.16701234  0.50079188  1
  Ni  Ni46  1  0.66618150  1.00006748  0.66674244  1
  Ni  Ni47  1  0.83216802  0.16622739  0.83388938  1
  Ni  Ni48  1  0.83752641  0.50068868  0.50277382  1
  Ni  Ni49  1  0.66818591  0.33244031  0.66728007  1
  Ni  Ni50  1  0.83253902  0.50166346  0.83148739  1
  Ni  Ni51  1  0.83433059  0.83289155  0.50121055  1
  Ni  Ni52  1  0.66760935  0.66816378  0.66739510  1
  Ni  Ni53  1  0.83299457  0.83302282  0.83506680  1
" 