3357,Ni77Cr23_4,-208.623133577899, 157.293831801649,Ni77Cr23,"# generated using pymatgen
 data_Cr41Ni13
_symmetry_space_group_name_H-M   'P 1'
_cell_length_a   7.57263955
_cell_length_b   7.57263955
_cell_length_c   10.70932956
_cell_angle_alpha   90.00000000
_cell_angle_beta   90.00000000
_cell_angle_gamma   90.00000000
_symmetry_Int_Tables_number   1
_chemical_formula_structural   Cr41Ni13
_chemical_formula_sum   'Cr41 Ni13'
_cell_volume   614.12510867
_cell_formula_units_Z   1
loop_
 _symmetry_equiv_pos_site_id
 _symmetry_equiv_pos_as_xyz
  1  'x, y, z'
loop_
 _atom_site_type_symbol
 _atom_site_label
 _atom_site_symmetry_multiplicity
 _atom_site_fract_x
 _atom_site_fract_y
 _atom_site_fract_z
 _atom_site_occupancy
  Cr  Cr0  1  0.99210715  0.99094406  0.99208053  1
  Cr  Cr1  1  0.15954638  0.15882525  0.15909466  1
  Cr  Cr2  1  -0.00568875  -0.00512691  0.32846808  1
  Cr  Cr3  1  -0.00681284  0.32767381  0.99264636  1
  Cr  Cr4  1  0.16057078  0.49393723  0.16077681  1
  Cr  Cr5  1  -0.00695765  0.32382107  0.32817393  1
  Cr  Cr6  1  0.99066956  0.66031137  0.99067345  1
  Cr  Cr7  1  0.16108615  0.82637992  0.16218159  1
  Cr  Cr8  1  0.99166555  0.66038459  0.32633863  1
  Cr  Cr9  1  0.32678871  0.99274434  0.99261431  1
  Cr  Cr10  1  0.49449542  0.15844504  0.15812577  1
  Ni  Ni11  1  0.32674484  -0.00649095  0.32822006  1
  Cr  Cr12  1  0.32722330  0.32744936  -0.00661390  1
  Ni  Ni13  1  0.49152816  0.49372968  0.16095153  1
  Cr  Cr14  1  0.32762827  0.32468276  0.32652105  1
  Cr  Cr15  1  0.32847428  0.65876403  -0.00655740  1
  Cr  Cr16  1  0.49219099  0.82753818  0.16091887  1
  Ni  Ni17  1  0.32754371  0.66040683  0.32526532  1
  Ni  Ni18  1  0.66086230  0.99139570  0.99144749  1
  Cr  Cr19  1  0.82510090  0.15900410  0.15875101  1
  Cr  Cr20  1  0.65917027  -0.00606818  0.32874119  1
  Cr  Cr21  1  0.65859232  0.32969501  -0.00651176  1
  Cr  Cr22  1  0.82631590  0.49155583  0.16046770  1
  Cr  Cr23  1  0.65845265  0.32648996  0.32796996  1
  Cr  Cr24  1  0.65997839  0.66036945  -0.00624527  1
  Cr  Cr25  1  0.82564545  0.82859969  0.15898935  1
  Cr  Cr26  1  0.65769008  0.65864296  0.32364047  1
  Ni  Ni27  1  0.16102492  0.15875741  0.49144545  1
  Cr  Cr28  1  0.99236276  0.99236659  0.65869426  1
  Cr  Cr29  1  0.15957228  0.16030471  0.82815044  1
  Cr  Cr30  1  0.15986370  0.49529131  0.49414529  1
  Cr  Cr31  1  0.99236606  0.32520464  0.65873766  1
  Cr  Cr32  1  0.15848338  0.49401760  0.82405911  1
  Cr  Cr33  1  0.16141589  0.82401746  0.49227047  1
  Ni  Ni34  1  0.99218365  0.66000593  0.66214006  1
  Cr  Cr35  1  0.15957886  0.82470055  0.82440273  1
  Ni  Ni36  1  0.49446449  0.15877405  0.49422055  1
  Cr  Cr37  1  0.32675487  -0.00552405  0.65797117  1
  Cr  Cr38  1  0.49605745  0.15868051  0.82612750  1
  Cr  Cr39  1  0.49237917  0.49351291  0.49380236  1
  Cr  Cr40  1  0.32783496  0.32434667  0.65895752  1
  Cr  Cr41  1  0.49343307  0.49207951  0.82424692  1
  Cr  Cr42  1  0.49172264  0.82689362  0.49284144  1
  Ni  Ni43  1  0.32493863  0.65988821  0.65946323  1
  Cr  Cr44  1  0.49455171  0.82854826  0.82506996  1
  Ni  Ni45  1  0.82392281  0.15967613  0.49502683  1
  Ni  Ni46  1  0.66090181  -0.00436515  0.65907991  1
  Cr  Cr47  1  0.82356297  0.15965661  0.82701828  1
  Cr  Cr48  1  0.82672948  0.49168015  0.49459987  1
  Ni  Ni49  1  0.66091220  0.32361083  0.65853394  1
  Ni  Ni50  1  0.82597349  0.49439175  0.82430039  1
  Cr  Cr51  1  0.82589145  0.82660759  0.49426785  1
  Cr  Cr52  1  0.66112073  0.66024980  0.66140605  1
  Ni  Ni53  1  0.82489964  0.82603757  0.82540636  1
" 