9005,Ni77Fe2Cr20_11,-231.146897821621, 157.5734261321,Ni77Fe2Cr20,"# generated using pymatgen
 data_Cr12FeNi41
_symmetry_space_group_name_H-M   'P 1'
_cell_length_a   7.47511189
_cell_length_b   7.47511189
_cell_length_c   10.57140462
_cell_angle_alpha   90.00000000
_cell_angle_beta   90.00000000
_cell_angle_gamma   90.00000000
_symmetry_Int_Tables_number   1
_chemical_formula_structural   Cr12FeNi41
_chemical_formula_sum   'Cr12 Fe1 Ni41'
_cell_volume   590.70152367
_cell_formula_units_Z   1
loop_
 _symmetry_equiv_pos_site_id
 _symmetry_equiv_pos_as_xyz
  1  'x, y, z'
loop_
 _atom_site_type_symbol
 _atom_site_label
 _atom_site_symmetry_multiplicity
 _atom_site_fract_x
 _atom_site_fract_y
 _atom_site_fract_z
 _atom_site_occupancy
  Cr  Cr0  1  0.00040467  0.00105015  0.99926446  1
  Ni  Ni1  1  0.16769526  0.16714941  0.16725261  1
  Ni  Ni2  1  0.99903518  0.00299979  0.33059589  1
  Ni  Ni3  1  0.00118807  0.33278086  0.00138205  1
  Ni  Ni4  1  0.16797327  0.49639312  0.16544263  1
  Ni  Ni5  1  0.99843351  0.33178492  0.33233820  1
  Cr  Cr6  1  0.00121643  0.66533129  0.00003940  1
  Ni  Ni7  1  0.17006348  0.83494925  0.16636127  1
  Cr  Cr8  1  0.99902217  0.66319344  0.33056805  1
  Ni  Ni9  1  0.33514690  -0.00021399  -0.00050573  1
  Ni  Ni10  1  0.49910080  0.16648043  0.16601458  1
  Ni  Ni11  1  0.33551518  0.00160259  0.33075378  1
  Ni  Ni12  1  0.33358232  0.33248264  -0.00050593  1
  Ni  Ni13  1  0.50018290  0.49863824  0.16500182  1
  Ni  Ni14  1  0.33444880  0.33176230  0.33199902  1
  Ni  Ni15  1  0.33478708  0.66606444  0.99914470  1
  Ni  Ni16  1  0.49834645  0.83335365  0.16634368  1
  Cr  Cr17  1  0.33500523  0.66428564  0.33260529  1
  Ni  Ni18  1  0.66219968  -0.00007275  0.99931884  1
  Ni  Ni19  1  0.83154486  0.16869189  0.16753179  1
  Ni  Ni20  1  0.66417329  0.00192384  0.33278022  1
  Ni  Ni21  1  0.66356918  0.33209218  0.00136986  1
  Ni  Ni22  1  0.83010105  0.49595466  0.16629045  1
  Ni  Ni23  1  0.66552948  0.33219612  0.33309722  1
  Ni  Ni24  1  0.66222800  0.66628920  -0.00027109  1
  Cr  Cr25  1  0.82899149  0.83352858  0.16633320  1
  Ni  Ni26  1  0.66433744  0.66430439  0.33284124  1
  Cr  Cr27  1  0.16649863  0.16588694  0.49842961  1
  Ni  Ni28  1  0.99920947  0.00095041  0.66822619  1
  Ni  Ni29  1  0.16816521  0.16603289  0.83258096  1
  Ni  Ni30  1  0.16713201  0.49783879  0.49958939  1
  Ni  Ni31  1  0.99882389  0.33181447  0.66495489  1
  Ni  Ni32  1  0.16901261  0.49844543  0.83340418  1
  Cr  Cr33  1  0.16894068  0.83479902  0.49936100  1
  Cr  Cr34  1  0.00073363  0.66464091  0.66760656  1
  Ni  Ni35  1  0.16956293  0.83390345  0.83184657  1
  Ni  Ni36  1  0.50158402  0.16621454  0.49859163  1
  Ni  Ni37  1  0.33539802  0.99848283  0.66784843  1
  Ni  Ni38  1  0.49838850  0.16548798  0.83386786  1
  Ni  Ni39  1  0.50134668  0.49862572  0.49962801  1
  Cr  Cr40  1  0.33504773  0.33325561  0.66696688  1
  Ni  Ni41  1  0.49839465  0.50030935  0.83387170  1
  Fe  Fe42  1  0.50052547  0.83363034  0.49981842  1
  Ni  Ni43  1  0.33563757  0.66661853  0.66678588  1
  Ni  Ni44  1  0.49912650  0.83256772  0.83203861  1
  Ni  Ni45  1  0.83062123  0.16763598  0.49945304  1
  Ni  Ni46  1  0.66406032  0.00012891  0.66619551  1
  Cr  Cr47  1  0.83102212  0.16650092  0.83180787  1
  Ni  Ni48  1  0.82986100  0.49674182  0.49920882  1
  Ni  Ni49  1  0.66555579  0.33227872  0.66428886  1
  Cr  Cr50  1  0.82911794  0.49876205  0.83384915  1
  Cr  Cr51  1  0.83090247  0.83472290  0.49955320  1
  Ni  Ni52  1  0.66283141  0.66603120  0.66582022  1
  Ni  Ni53  1  0.82954931  0.83356821  0.83189097  1
" 