5601,Ni77Fe6Cr15_4,-234.044268130463, 168.68442079147,Ni77Fe6Cr15,"# generated using pymatgen
 data_Cr3FeNi14
_symmetry_space_group_name_H-M   'P 1'
_cell_length_a   7.46137689
_cell_length_b   7.46137689
_cell_length_c   10.55198040
_cell_angle_alpha   90.00000000
_cell_angle_beta   90.00000000
_cell_angle_gamma   90.00000000
_symmetry_Int_Tables_number   1
_chemical_formula_structural   Cr3FeNi14
_chemical_formula_sum   'Cr9 Fe3 Ni42'
_cell_volume   587.45138446
_cell_formula_units_Z   3
loop_
 _symmetry_equiv_pos_site_id
 _symmetry_equiv_pos_as_xyz
  1  'x, y, z'
loop_
 _atom_site_type_symbol
 _atom_site_label
 _atom_site_symmetry_multiplicity
 _atom_site_fract_x
 _atom_site_fract_y
 _atom_site_fract_z
 _atom_site_occupancy
  Ni  Ni0  1  0.99706716  0.99762060  1.00003125  1
  Cr  Cr1  1  0.16617538  0.16523862  0.16743010  1
  Ni  Ni2  1  0.99973311  0.99900471  0.33372506  1
  Ni  Ni3  1  0.99603662  0.33629889  0.00111806  1
  Ni  Ni4  1  0.16527310  0.50148988  0.16766352  1
  Fe  Fe5  1  0.99960110  0.33302293  0.33294072  1
  Ni  Ni6  1  0.00129094  0.66721363  1.00003137  1
  Ni  Ni7  1  0.16604197  0.83358215  0.16577276  1
  Ni  Ni8  1  0.00105025  0.66814519  0.33196624  1
  Ni  Ni9  1  0.33558017  0.99688947  0.00172573  1
  Ni  Ni10  1  0.50208829  0.16639397  0.16770908  1
  Ni  Ni11  1  0.33478282  0.00104714  0.33403554  1
  Cr  Cr12  1  0.33564462  0.33558647  0.00101408  1
  Ni  Ni13  1  0.50252801  0.50037109  0.16707632  1
  Ni  Ni14  1  0.33599243  0.33353595  0.33471592  1
  Ni  Ni15  1  0.33029752  0.66847201  0.00236234  1
  Ni  Ni16  1  0.50128881  0.83442875  0.16672101  1
  Cr  Cr17  1  0.33363991  0.66761156  0.33347297  1
  Ni  Ni18  1  0.66853941  0.00254655  0.00138907  1
  Ni  Ni19  1  0.83262989  0.16717870  0.16739920  1
  Ni  Ni20  1  0.66663640  0.00207148  0.33317841  1
  Ni  Ni21  1  0.66980148  0.33151696  0.00080061  1
  Ni  Ni22  1  0.83340256  0.50059984  0.16680873  1
  Ni  Ni23  1  0.66541745  0.33219618  0.33284153  1
  Fe  Fe24  1  0.66896106  0.66788228  0.00190815  1
  Ni  Ni25  1  0.83399644  0.83334724  0.16734862  1
  Ni  Ni26  1  0.66713751  0.66686815  0.33128911  1
  Ni  Ni27  1  0.16816941  0.16521944  0.49933171  1
  Ni  Ni28  1  0.99983435  0.99852428  0.66744644  1
  Cr  Cr29  1  0.16828789  0.16427114  0.83511662  1
  Fe  Fe30  1  0.16836655  0.50028921  0.50055243  1
  Cr  Cr31  1  0.99959899  0.33321364  0.66759410  1
  Ni  Ni32  1  0.16557039  0.50340942  0.83302686  1
  Ni  Ni33  1  0.16749442  0.83609340  0.50163879  1
  Ni  Ni34  1  0.00245799  0.66889248  0.66907910  1
  Ni  Ni35  1  0.16577512  0.83248632  0.83371535  1
  Ni  Ni36  1  0.49946729  0.16756556  0.50084688  1
  Ni  Ni37  1  0.33396111  1.00015567  0.66544935  1
  Ni  Ni38  1  0.50252965  0.16624507  0.83254615  1
  Ni  Ni39  1  0.50076335  0.49964928  0.50142165  1
  Ni  Ni40  1  0.33558954  0.33394801  0.66529944  1
  Cr  Cr41  1  0.50169810  0.50029444  0.83257302  1
  Ni  Ni42  1  0.49943703  0.83393893  0.50094830  1
  Ni  Ni43  1  0.33146595  0.66708294  0.66526234  1
  Cr  Cr44  1  0.49973425  0.83504932  0.83331317  1
  Ni  Ni45  1  0.83359676  0.16675948  0.49953295  1
  Ni  Ni46  1  0.66741260  0.00272444  0.66666569  1
  Ni  Ni47  1  0.83196350  0.16635146  0.83429471  1
  Cr  Cr48  1  0.83105545  0.50091162  0.49910051  1
  Ni  Ni49  1  0.66572259  0.33126564  0.66749454  1
  Ni  Ni50  1  0.83414875  0.50146192  0.83481037  1
  Cr  Cr51  1  0.83314334  0.83401871  0.50057252  1
  Ni  Ni52  1  0.66730909  0.66715617  0.66736298  1
  Ni  Ni53  1  0.83533241  0.83338186  0.83304876  1
" 