8319,Ni77Fe2Cr20_5,-231.015621422863, 156.121617787456,Ni77Fe2Cr20,"# generated using pymatgen
 data_Cr12FeNi41
_symmetry_space_group_name_H-M   'P 1'
_cell_length_a   7.47463530
_cell_length_b   7.47463530
_cell_length_c   10.57073061
_cell_angle_alpha   90.00000000
_cell_angle_beta   90.00000000
_cell_angle_gamma   90.00000000
_symmetry_Int_Tables_number   1
_chemical_formula_structural   Cr12FeNi41
_chemical_formula_sum   'Cr12 Fe1 Ni41'
_cell_volume   590.58854593
_cell_formula_units_Z   1
loop_
 _symmetry_equiv_pos_site_id
 _symmetry_equiv_pos_as_xyz
  1  'x, y, z'
loop_
 _atom_site_type_symbol
 _atom_site_label
 _atom_site_symmetry_multiplicity
 _atom_site_fract_x
 _atom_site_fract_y
 _atom_site_fract_z
 _atom_site_occupancy
  Ni  Ni0  1  -0.00038185  0.00054548  0.00037026  1
  Ni  Ni1  1  0.16636890  0.16477814  0.16376906  1
  Ni  Ni2  1  0.00030716  0.99785460  0.33302256  1
  Ni  Ni3  1  0.00016084  0.33361643  0.00012305  1
  Ni  Ni4  1  0.16556954  0.49961630  0.16531832  1
  Cr  Cr5  1  0.99595748  0.33253259  0.33262907  1
  Ni  Ni6  1  0.99778392  0.66410607  0.99913029  1
  Fe  Fe7  1  0.16670869  0.83305094  0.16698188  1
  Ni  Ni8  1  -0.00008641  0.66666417  0.33368038  1
  Ni  Ni9  1  0.33455368  0.00186236  0.00030055  1
  Ni  Ni10  1  0.49886838  0.16631523  0.16429898  1
  Ni  Ni11  1  0.33292544  0.99690245  0.33178775  1
  Ni  Ni12  1  0.33296257  0.33144460  0.99889470  1
  Ni  Ni13  1  0.50099111  0.50004050  0.16641899  1
  Cr  Cr14  1  0.33570579  0.33295218  0.33212086  1
  Cr  Cr15  1  0.33466113  0.66556568  -0.00028540  1
  Ni  Ni16  1  0.49847197  0.83222037  0.16600019  1
  Ni  Ni17  1  0.33315464  0.66781600  0.33302567  1
  Ni  Ni18  1  0.66443759  0.99944594  0.99913703  1
  Ni  Ni19  1  0.83329268  0.16747319  0.16486352  1
  Cr  Cr20  1  0.66572309  0.00153977  0.33307879  1
  Ni  Ni21  1  0.66531820  0.33317126  0.00114913  1
  Ni  Ni22  1  0.83191648  0.49940625  0.16536848  1
  Ni  Ni23  1  0.66627636  0.33395932  0.33277076  1
  Ni  Ni24  1  0.66668391  0.66589066  0.99809716  1
  Cr  Cr25  1  0.83269072  0.83088497  0.16433089  1
  Ni  Ni26  1  0.66541905  0.66490030  0.33374913  1
  Cr  Cr27  1  0.16705751  0.16291766  0.50088129  1
  Ni  Ni28  1  0.99785955  0.99829631  0.66487433  1
  Ni  Ni29  1  0.16784521  0.16582314  0.83459780  1
  Ni  Ni30  1  0.16652098  0.50314899  0.49775206  1
  Cr  Cr31  1  0.99785999  0.33411086  0.66612360  1
  Ni  Ni32  1  0.16535267  0.49680136  0.83586995  1
  Ni  Ni33  1  0.16638350  0.83312846  0.49673271  1
  Cr  Cr34  1  0.99717381  0.66626269  0.66605537  1
  Cr  Cr35  1  0.16490875  0.83633099  0.83397763  1
  Ni  Ni36  1  0.50179490  0.16535348  0.50043744  1
  Ni  Ni37  1  0.33539121  0.99904945  0.66614519  1
  Ni  Ni38  1  0.49869060  0.16554881  0.83357854  1
  Ni  Ni39  1  0.50252649  0.50081068  0.49841549  1
  Cr  Cr40  1  0.33472263  0.33340718  0.66805344  1
  Ni  Ni41  1  0.50287170  0.49827609  0.83373059  1
  Ni  Ni42  1  0.49956138  0.83239508  0.49966835  1
  Cr  Cr43  1  0.33504670  0.66660708  0.66550936  1
  Ni  Ni44  1  0.50300227  0.83463075  0.83282941  1
  Ni  Ni45  1  0.83022820  0.16513089  0.49987248  1
  Ni  Ni46  1  0.66528478  0.99840946  0.66558933  1
  Cr  Cr47  1  0.83214302  0.16519543  0.83358706  1
  Ni  Ni48  1  0.82933917  0.50111255  0.49832794  1
  Ni  Ni49  1  0.66541366  0.33331450  0.66446338  1
  Ni  Ni50  1  0.83024158  0.50086120  0.83504014  1
  Ni  Ni51  1  0.83256295  0.83233560  0.50029180  1
  Ni  Ni52  1  0.66622490  0.66673752  0.66658858  1
  Ni  Ni53  1  0.83014243  0.83203967  0.83346631  1
" 