2109,Ni77Fe4Cr17_0,-232.168177391365, 162.736548177628,Ni77Fe4Cr17,"# generated using pymatgen
 data_Cr11Fe2Ni41
_symmetry_space_group_name_H-M   'P 1'
_cell_length_a   7.47033721
_cell_length_b   7.47033721
_cell_length_c   10.56465220
_cell_angle_alpha   90.00000000
_cell_angle_beta   90.00000000
_cell_angle_gamma   90.00000000
_symmetry_Int_Tables_number   1
_chemical_formula_structural   Cr11Fe2Ni41
_chemical_formula_sum   'Cr11 Fe2 Ni41'
_cell_volume   589.57032631
_cell_formula_units_Z   1
loop_
 _symmetry_equiv_pos_site_id
 _symmetry_equiv_pos_as_xyz
  1  'x, y, z'
loop_
 _atom_site_type_symbol
 _atom_site_label
 _atom_site_symmetry_multiplicity
 _atom_site_fract_x
 _atom_site_fract_y
 _atom_site_fract_z
 _atom_site_occupancy
  Ni  Ni0  1  0.00045565  0.00127366  0.99874806  1
  Cr  Cr1  1  0.16785005  0.16620920  0.16491882  1
  Ni  Ni2  1  0.99940367  0.99834367  0.33470125  1
  Ni  Ni3  1  0.00104353  0.33292701  0.99729750  1
  Ni  Ni4  1  0.16902226  0.50180965  0.16544489  1
  Cr  Cr5  1  0.99947820  0.33310076  0.33427624  1
  Ni  Ni6  1  0.00245291  0.66513835  0.99880637  1
  Ni  Ni7  1  0.16774723  0.83173204  0.16707454  1
  Ni  Ni8  1  0.00130204  0.66771391  0.33497836  1
  Ni  Ni9  1  0.33296715  0.99783196  0.99941294  1
  Ni  Ni10  1  0.50028843  0.16556031  0.16782208  1
  Ni  Ni11  1  0.33433512  0.99902613  0.33395080  1
  Ni  Ni12  1  0.33111699  0.33510736  -0.00014064  1
  Ni  Ni13  1  0.49718498  0.50019937  0.16767532  1
  Ni  Ni14  1  0.33608231  0.33427211  0.33384888  1
  Ni  Ni15  1  0.33315183  0.66640140  0.99947161  1
  Ni  Ni16  1  0.49869873  0.83358008  0.16592661  1
  Ni  Ni17  1  0.33343359  0.66603996  0.33282113  1
  Ni  Ni18  1  0.66591531  0.99923959  0.00056107  1
  Ni  Ni19  1  0.83128467  0.16428582  0.16665068  1
  Ni  Ni20  1  0.66560091  0.00099540  0.33371445  1
  Cr  Cr21  1  0.66713216  0.33311215  0.99952481  1
  Cr  Cr22  1  0.83348049  0.50088639  0.16635423  1
  Ni  Ni23  1  0.66392616  0.33237688  0.33409682  1
  Ni  Ni24  1  0.66373413  0.66698850  0.99852363  1
  Cr  Cr25  1  0.83311757  0.83409569  0.16619564  1
  Ni  Ni26  1  0.66460694  0.66596692  0.33475649  1
  Ni  Ni27  1  0.16800778  0.16477411  0.49950125  1
  Ni  Ni28  1  0.00069069  0.99922550  0.66588903  1
  Ni  Ni29  1  0.16465717  0.16540004  0.83481148  1
  Ni  Ni30  1  0.16651742  0.50098285  0.49899892  1
  Cr  Cr31  1  0.99927241  0.33308473  0.66748241  1
  Ni  Ni32  1  0.16591492  0.50080592  0.83489573  1
  Fe  Fe33  1  0.16678217  0.83261529  0.49983323  1
  Ni  Ni34  1  0.00226551  0.66727573  0.66555354  1
  Ni  Ni35  1  0.16758211  0.83313346  0.83224167  1
  Ni  Ni36  1  0.49883471  0.16471443  0.49788672  1
  Ni  Ni37  1  0.33224273  0.99696593  0.66597426  1
  Cr  Cr38  1  0.49823604  0.16394068  0.83342063  1
  Ni  Ni39  1  0.49924124  0.49996172  0.49718346  1
  Cr  Cr40  1  0.33248567  0.33419534  0.66600103  1
  Ni  Ni41  1  0.49819111  0.50290566  0.83448369  1
  Ni  Ni42  1  0.50057264  0.83466361  0.49954339  1
  Ni  Ni43  1  0.33166070  0.66854315  0.66704626  1
  Ni  Ni44  1  0.49785286  0.83236370  0.83387090  1
  Fe  Fe45  1  0.83165873  0.16422260  0.49892634  1
  Ni  Ni46  1  0.66640667  0.99969804  0.66506243  1
  Ni  Ni47  1  0.83600017  0.16573831  0.83351156  1
  Ni  Ni48  1  0.83358080  0.50272132  0.49847415  1
  Cr  Cr49  1  0.66758159  0.33279763  0.66579248  1
  Ni  Ni50  1  0.83523295  0.49997898  0.83451458  1
  Ni  Ni51  1  0.83352097  0.83317481  0.49893896  1
  Cr  Cr52  1  0.66498768  0.66663831  0.66664635  1
  Cr  Cr53  1  0.83331994  0.83337429  0.83421339  1
" 