1255,Ni77Fe4Cr17_18,-232.149526851704, 162.257455880733,Ni77Fe4Cr17,"# generated using pymatgen
 data_Cr11Fe2Ni41
_symmetry_space_group_name_H-M   'P 1'
_cell_length_a   7.46678568
_cell_length_b   7.46678568
_cell_length_c   10.55962958
_cell_angle_alpha   90.00000000
_cell_angle_beta   90.00000000
_cell_angle_gamma   90.00000000
_symmetry_Int_Tables_number   1
_chemical_formula_structural   Cr11Fe2Ni41
_chemical_formula_sum   'Cr11 Fe2 Ni41'
_cell_volume   588.72985023
_cell_formula_units_Z   1
loop_
 _symmetry_equiv_pos_site_id
 _symmetry_equiv_pos_as_xyz
  1  'x, y, z'
loop_
 _atom_site_type_symbol
 _atom_site_label
 _atom_site_symmetry_multiplicity
 _atom_site_fract_x
 _atom_site_fract_y
 _atom_site_fract_z
 _atom_site_occupancy
  Ni  Ni0  1  0.00021683  0.99964399  0.00021572  1
  Ni  Ni1  1  0.16513975  0.16543698  0.16521975  1
  Ni  Ni2  1  0.99858599  0.99862527  0.33307084  1
  Ni  Ni3  1  0.99809807  0.33344571  0.99930955  1
  Ni  Ni4  1  0.16678708  0.50219511  0.16720751  1
  Cr  Cr5  1  0.00090278  0.33366422  0.33187161  1
  Ni  Ni6  1  0.99948469  0.66691645  0.00045256  1
  Ni  Ni7  1  0.16406194  0.83236257  0.16614709  1
  Ni  Ni8  1  0.00179315  0.66826163  0.33368113  1
  Ni  Ni9  1  0.33128073  0.99849774  0.99958481  1
  Ni  Ni10  1  0.50115285  0.16706315  0.16710424  1
  Cr  Cr11  1  0.33134198  0.00124109  0.33390351  1
  Cr  Cr12  1  0.33049537  0.33286392  0.00167354  1
  Ni  Ni13  1  0.49890173  0.49920442  0.16557371  1
  Ni  Ni14  1  0.33172455  0.33389549  0.33215639  1
  Ni  Ni15  1  0.33210872  0.66730212  0.99825589  1
  Cr  Cr16  1  0.49998713  0.83276840  0.16395369  1
  Ni  Ni17  1  0.33073921  0.66599319  0.33358036  1
  Ni  Ni18  1  0.66880870  0.99959508  0.00024635  1
  Ni  Ni19  1  0.83332768  0.16439311  0.16410589  1
  Ni  Ni20  1  0.66888700  0.00041300  0.33486642  1
  Ni  Ni21  1  0.66894155  0.33435391  0.00109855  1
  Ni  Ni22  1  0.83464933  0.50096567  0.16345469  1
  Cr  Cr23  1  0.66777484  0.33203407  0.33178041  1
  Ni  Ni24  1  0.66846215  0.66605159  0.99899269  1
  Ni  Ni25  1  0.83626125  0.83495566  0.16649959  1
  Cr  Cr26  1  0.67139882  0.66848514  0.33234481  1
  Ni  Ni27  1  0.16296211  0.16641360  0.50029676  1
  Ni  Ni28  1  0.99869219  0.99973405  0.66681437  1
  Ni  Ni29  1  0.16238540  0.16512689  0.83448201  1
  Ni  Ni30  1  0.16529638  0.50147290  0.50010895  1
  Ni  Ni31  1  0.99825652  0.33330173  0.66762195  1
  Ni  Ni32  1  0.16501767  0.50248848  0.83252219  1
  Ni  Ni33  1  0.16504451  0.83210767  0.49993143  1
  Ni  Ni34  1  0.00118139  0.66694773  0.66598495  1
  Ni  Ni35  1  0.16452286  0.83208716  0.83431783  1
  Fe  Fe36  1  0.50117233  0.16538251  0.50008990  1
  Cr  Cr37  1  0.33106893  0.99723319  0.66763336  1
  Cr  Cr38  1  0.50368947  0.16689137  0.83390514  1
  Cr  Cr39  1  0.49831221  0.50061704  0.49949115  1
  Cr  Cr40  1  0.32982450  0.33358749  0.66668443  1
  Ni  Ni41  1  0.50054616  0.50179492  0.83467027  1
  Ni  Ni42  1  0.50000434  0.83418773  0.50113276  1
  Ni  Ni43  1  0.33111974  0.66725992  0.66797954  1
  Fe  Fe44  1  0.50056343  0.83243375  0.83511034  1
  Ni  Ni45  1  0.83420572  0.16461784  0.50247246  1
  Ni  Ni46  1  0.66950950  0.00043191  0.66509867  1
  Ni  Ni47  1  0.83495536  0.16586765  0.83312152  1
  Ni  Ni48  1  0.83662039  0.49956715  0.50231460  1
  Ni  Ni49  1  0.67026005  0.33257255  0.66685809  1
  Ni  Ni50  1  0.83424745  0.49941065  0.83380830  1
  Ni  Ni51  1  0.83549095  0.83599625  0.49952579  1
  Cr  Cr52  1  0.66912879  0.66806701  0.66844365  1
  Ni  Ni53  1  0.83555490  0.83471930  0.83417540  1
" 