815,Ni77Fe18Cr4_5,-239.102250989986, 197.046778934694,Ni77Fe18Cr4,"# generated using pymatgen
 data_Cr4Fe9Ni41
_symmetry_space_group_name_H-M   'P 1'
_cell_length_a   7.43284314
_cell_length_b   7.43284314
_cell_length_c   10.51162758
_cell_angle_alpha   90.00000000
_cell_angle_beta   90.00000000
_cell_angle_gamma   90.00000000
_symmetry_Int_Tables_number   1
_chemical_formula_structural   Cr4Fe9Ni41
_chemical_formula_sum   'Cr4 Fe9 Ni41'
_cell_volume   580.73754048
_cell_formula_units_Z   1
loop_
 _symmetry_equiv_pos_site_id
 _symmetry_equiv_pos_as_xyz
  1  'x, y, z'
loop_
 _atom_site_type_symbol
 _atom_site_label
 _atom_site_symmetry_multiplicity
 _atom_site_fract_x
 _atom_site_fract_y
 _atom_site_fract_z
 _atom_site_occupancy
  Ni  Ni0  1  0.00247423  0.00257508  0.00294872  1
  Ni  Ni1  1  0.16871740  0.16802726  0.16881030  1
  Ni  Ni2  1  0.00438610  1.00124768  0.33437338  1
  Ni  Ni3  1  0.00400492  0.33408276  1.00105511  1
  Ni  Ni4  1  0.16979103  0.50252344  0.16873634  1
  Ni  Ni5  1  0.00486783  0.33535034  0.33627671  1
  Fe  Fe6  1  0.00339071  0.66971136  1.00150149  1
  Ni  Ni7  1  0.16892723  0.83635397  0.16922361  1
  Ni  Ni8  1  0.00350221  0.67030731  0.33666929  1
  Ni  Ni9  1  0.33489143  0.00287063  0.00254312  1
  Ni  Ni10  1  0.50199276  0.16937294  0.16794152  1
  Fe  Fe11  1  0.33375444  0.00231566  0.33561309  1
  Ni  Ni12  1  0.33520959  0.33564746  0.00260488  1
  Ni  Ni13  1  0.50203725  0.50230288  0.16922282  1
  Ni  Ni14  1  0.33528732  0.33656151  0.33549186  1
  Fe  Fe15  1  0.33587320  0.66875595  0.00261650  1
  Ni  Ni16  1  0.50155323  0.83522930  0.16762223  1
  Ni  Ni17  1  0.33529492  0.66773624  0.33530260  1
  Ni  Ni18  1  0.66953562  1.00184052  1.00195467  1
  Fe  Fe19  1  0.83660807  0.16849067  0.16765162  1
  Cr  Cr20  1  0.66900861  1.00126212  0.33495634  1
  Ni  Ni21  1  0.66769383  0.33514514  1.00201481  1
  Cr  Cr22  1  0.83509933  0.50164065  0.16954902  1
  Ni  Ni23  1  0.66674854  0.33744150  0.33531374  1
  Ni  Ni24  1  0.66797785  0.66991753  1.00181714  1
  Fe  Fe25  1  0.83625522  0.83630356  0.16870706  1
  Ni  Ni26  1  0.66810491  0.66821780  0.33721293  1
  Ni  Ni27  1  0.17109543  0.16913498  0.50166915  1
  Cr  Cr28  1  0.00331926  1.00120702  0.66916033  1
  Ni  Ni29  1  0.16898433  0.16908781  0.83641497  1
  Ni  Ni30  1  0.16822570  0.50297153  0.50221577  1
  Fe  Fe31  1  0.00340666  0.33818237  0.66976549  1
  Ni  Ni32  1  0.16868473  0.50302570  0.83595098  1
  Ni  Ni33  1  0.16943693  0.83479857  0.50116481  1
  Ni  Ni34  1  0.00235364  0.66807979  0.66860526  1
  Ni  Ni35  1  0.16913967  0.83479360  0.83650993  1
  Ni  Ni36  1  0.50049094  0.16945308  0.50359962  1
  Ni  Ni37  1  0.33687733  0.00294442  0.66807407  1
  Ni  Ni38  1  0.50367305  0.16911249  0.83535747  1
  Ni  Ni39  1  0.50334814  0.50265066  0.50147113  1
  Ni  Ni40  1  0.33615505  0.33564933  0.66880579  1
  Ni  Ni41  1  0.50294394  0.50197124  0.83620831  1
  Ni  Ni42  1  0.50182366  0.83479810  0.50386693  1
  Ni  Ni43  1  0.33533370  0.66831211  0.66916901  1
  Fe  Fe44  1  0.50163485  0.83634884  0.83542953  1
  Cr  Cr45  1  0.83527825  0.17098873  0.50184070  1
  Ni  Ni46  1  0.66684891  1.00163172  0.67019479  1
  Ni  Ni47  1  0.83424381  0.16957517  0.83727509  1
  Ni  Ni48  1  0.83532863  0.50431019  0.50303617  1
  Ni  Ni49  1  0.66707613  0.33647086  0.66958284  1
  Fe  Fe50  1  0.83568383  0.50134235  0.83536915  1
  Ni  Ni51  1  0.83564230  0.83194517  0.50199689  1
  Ni  Ni52  1  0.66921472  0.66880018  0.66787600  1
  Fe  Fe53  1  0.83501722  0.83543142  0.83590753  1
" 