5756,Ni77Fe2Cr20_19,-231.083364069691, 156.686962314122,Ni77Fe2Cr20,"# generated using pymatgen
 data_Cr12FeNi41
_symmetry_space_group_name_H-M   'P 1'
_cell_length_a   7.47566090
_cell_length_b   7.47566090
_cell_length_c   10.57218103
_cell_angle_alpha   90.00000000
_cell_angle_beta   90.00000000
_cell_angle_gamma   90.00000000
_symmetry_Int_Tables_number   1
_chemical_formula_structural   Cr12FeNi41
_chemical_formula_sum   'Cr12 Fe1 Ni41'
_cell_volume   590.83168470
_cell_formula_units_Z   1
loop_
 _symmetry_equiv_pos_site_id
 _symmetry_equiv_pos_as_xyz
  1  'x, y, z'
loop_
 _atom_site_type_symbol
 _atom_site_label
 _atom_site_symmetry_multiplicity
 _atom_site_fract_x
 _atom_site_fract_y
 _atom_site_fract_z
 _atom_site_occupancy
  Cr  Cr0  1  0.99820174  0.00127140  0.99702383  1
  Cr  Cr1  1  0.16595903  0.16888029  0.16764040  1
  Ni  Ni2  1  -0.00043543  0.00096823  0.33479777  1
  Ni  Ni3  1  0.99879011  0.33391421  0.99915225  1
  Ni  Ni4  1  0.16670275  0.49744590  0.16570272  1
  Ni  Ni5  1  0.99872975  0.33202380  0.33111686  1
  Cr  Cr6  1  -0.00041752  0.66347099  0.99777632  1
  Cr  Cr7  1  0.17049184  0.83166887  0.16672254  1
  Cr  Cr8  1  0.99849059  0.66571701  0.33324857  1
  Ni  Ni9  1  0.33572932  0.00036280  0.99863193  1
  Ni  Ni10  1  0.50180190  0.16480529  0.16590340  1
  Ni  Ni11  1  0.33460440  -0.00042249  0.33462094  1
  Ni  Ni12  1  0.33305319  0.33284911  0.99765500  1
  Cr  Cr13  1  0.49819187  0.50028825  0.16585936  1
  Ni  Ni14  1  0.33368144  0.33168072  0.33361485  1
  Ni  Ni15  1  0.33341909  0.66504224  0.99909527  1
  Ni  Ni16  1  0.50009916  0.83368626  0.16611440  1
  Ni  Ni17  1  0.33500217  0.66698158  0.33300395  1
  Ni  Ni18  1  0.66391382  0.00131647  0.00000281  1
  Ni  Ni19  1  0.83046589  0.16821918  0.16679640  1
  Ni  Ni20  1  0.66412691  -0.00043265  0.33196502  1
  Ni  Ni21  1  0.66637176  0.33158799  0.99844439  1
  Fe  Fe22  1  0.83187175  0.49588400  0.16613014  1
  Ni  Ni23  1  0.66580605  0.33248428  0.33282434  1
  Ni  Ni24  1  0.66495741  0.66530211  0.99860328  1
  Cr  Cr25  1  0.82820071  0.83482302  0.16675105  1
  Ni  Ni26  1  0.66432313  0.66622300  0.33480661  1
  Ni  Ni27  1  0.16671268  0.16343828  0.49822927  1
  Ni  Ni28  1  0.00022699  0.99800948  0.66680852  1
  Ni  Ni29  1  0.16549835  0.16649978  0.83267683  1
  Cr  Cr30  1  0.16547373  0.49782054  0.49809865  1
  Ni  Ni31  1  0.99755496  0.33286013  0.66809504  1
  Ni  Ni32  1  0.16506095  0.49836535  0.83467726  1
  Ni  Ni33  1  0.16620219  0.83603228  0.49928909  1
  Ni  Ni34  1  0.99645213  0.66740855  0.66718514  1
  Ni  Ni35  1  0.16511208  0.83341958  0.83195483  1
  Ni  Ni36  1  0.49867111  0.16524131  0.49823749  1
  Ni  Ni37  1  0.33156920  0.00041744  0.66503940  1
  Ni  Ni38  1  0.50037393  0.16715011  0.83409331  1
  Ni  Ni39  1  0.50284464  0.49993865  0.49774944  1
  Cr  Cr40  1  0.33473092  0.33000123  0.66678042  1
  Ni  Ni41  1  0.50105888  0.49789636  0.83435060  1
  Ni  Ni42  1  0.50038944  0.83308523  0.49741772  1
  Cr  Cr43  1  0.33271780  0.66714797  0.66585002  1
  Cr  Cr44  1  0.50057971  0.83299146  0.83490995  1
  Cr  Cr45  1  0.83345444  0.16620350  0.49946794  1
  Ni  Ni46  1  0.66646242  -0.00056473  0.66634659  1
  Ni  Ni47  1  0.83239266  0.16711845  0.83255649  1
  Ni  Ni48  1  0.82996024  0.50045290  0.49967554  1
  Ni  Ni49  1  0.66704331  0.33368975  0.66697552  1
  Ni  Ni50  1  0.83219310  0.49837436  0.83231914  1
  Ni  Ni51  1  0.83167988  0.83193266  0.50058367  1
  Ni  Ni52  1  0.66949094  0.66515265  0.66482454  1
  Ni  Ni53  1  0.83285169  0.83276606  0.83069438  1
" 