5274,Ni77Fe12Cr9_0,-237.101481606594, 183.332293604711,Ni77Fe12Cr9,"# generated using pymatgen
 data_CrFeNi7
_symmetry_space_group_name_H-M   'P 1'
_cell_length_a   7.44707610
_cell_length_b   7.44707610
_cell_length_c   10.53175602
_cell_angle_alpha   90.00000000
_cell_angle_beta   90.00000000
_cell_angle_gamma   90.00000000
_symmetry_Int_Tables_number   1
_chemical_formula_structural   CrFeNi7
_chemical_formula_sum   'Cr6 Fe6 Ni42'
_cell_volume   584.08005132
_cell_formula_units_Z   6
loop_
 _symmetry_equiv_pos_site_id
 _symmetry_equiv_pos_as_xyz
  1  'x, y, z'
loop_
 _atom_site_type_symbol
 _atom_site_label
 _atom_site_symmetry_multiplicity
 _atom_site_fract_x
 _atom_site_fract_y
 _atom_site_fract_z
 _atom_site_occupancy
  Ni  Ni0  1  0.00218849  0.00225749  1.00096275  1
  Ni  Ni1  1  0.16871317  0.16771109  0.16810296  1
  Ni  Ni2  1  0.00267352  0.00221343  0.33561145  1
  Ni  Ni3  1  0.00352424  0.33494134  0.00185610  1
  Ni  Ni4  1  0.16601763  0.50108855  0.16806659  1
  Ni  Ni5  1  1.00124948  0.33409949  0.33410685  1
  Ni  Ni6  1  1.00094552  0.66682467  0.00191257  1
  Ni  Ni7  1  0.16897836  0.83522371  0.16808021  1
  Ni  Ni8  1  0.00219597  0.66770948  0.33514801  1
  Ni  Ni9  1  0.33552577  0.00231326  0.00304797  1
  Ni  Ni10  1  0.50005224  0.16567846  0.16864229  1
  Fe  Fe11  1  0.33315305  1.00063444  0.33313949  1
  Ni  Ni12  1  0.33224793  0.33293467  1.00025296  1
  Cr  Cr13  1  0.50131104  0.50136733  0.16883604  1
  Ni  Ni14  1  0.33374850  0.33462334  0.33470720  1
  Fe  Fe15  1  0.33439521  0.66845454  0.00139299  1
  Ni  Ni16  1  0.50017881  0.83686326  0.16806953  1
  Ni  Ni17  1  0.33451191  0.66889442  0.33508909  1
  Ni  Ni18  1  0.66630805  0.99973814  1.00063715  1
  Fe  Fe19  1  0.83598108  0.16870665  0.16876466  1
  Fe  Fe20  1  0.66813687  0.00164614  0.33436229  1
  Cr  Cr21  1  0.66857077  0.33450374  1.00068899  1
  Ni  Ni22  1  0.83689937  0.50121493  0.16896060  1
  Ni  Ni23  1  0.66902532  0.33509840  0.33442283  1
  Ni  Ni24  1  0.66831085  0.67010664  0.99966876  1
  Cr  Cr25  1  0.83515181  0.83368372  0.16736377  1
  Ni  Ni26  1  0.66731506  0.66747152  0.33614378  1
  Ni  Ni27  1  0.16554670  0.16784553  0.50085750  1
  Ni  Ni28  1  0.99918029  0.00230578  0.66744524  1
  Ni  Ni29  1  0.16747380  0.17022758  0.83506351  1
  Ni  Ni30  1  0.16806827  0.50235722  0.50134246  1
  Ni  Ni31  1  0.00145324  0.33435382  0.66805907  1
  Ni  Ni32  1  0.16817702  0.49959385  0.83461297  1
  Ni  Ni33  1  0.16664438  0.83381933  0.50007824  1
  Ni  Ni34  1  1.00045947  0.66736260  0.66696059  1
  Cr  Cr35  1  0.16641018  0.83420273  0.83604964  1
  Cr  Cr36  1  0.50217345  0.16999903  0.50089255  1
  Cr  Cr37  1  0.33415430  0.00176091  0.66797555  1
  Ni  Ni38  1  0.50171751  0.16813357  0.83483918  1
  Ni  Ni39  1  0.50172444  0.50268755  0.50155011  1
  Ni  Ni40  1  0.33408202  0.33687354  0.66906128  1
  Ni  Ni41  1  0.50101098  0.50168492  0.83331113  1
  Fe  Fe42  1  0.50169087  0.83160165  0.50092775  1
  Ni  Ni43  1  0.33584570  0.66561117  0.66740908  1
  Ni  Ni44  1  0.50447187  0.83420293  0.83565227  1
  Ni  Ni45  1  0.83598196  0.16784594  0.50104531  1
  Ni  Ni46  1  0.67023731  1.00054290  0.66924421  1
  Ni  Ni47  1  0.83483117  0.16676526  0.83396316  1
  Ni  Ni48  1  0.83422978  0.50158733  0.50098118  1
  Ni  Ni49  1  0.66848702  0.33559505  0.66875148  1
  Ni  Ni50  1  0.83483469  0.50235134  0.83408222  1
  Fe  Fe51  1  0.83575360  0.83430487  0.50189657  1
  Ni  Ni52  1  0.66771835  0.66788231  0.66820889  1
  Ni  Ni53  1  0.83273993  0.83490683  0.83410933  1
" 