4516,Ni77Fe2Cr20_0,-231.151116412628, 160.200692448461,Ni77Fe2Cr20,"# generated using pymatgen
 data_Cr12FeNi41
_symmetry_space_group_name_H-M   'P 1'
_cell_length_a   7.47261828
_cell_length_b   7.47261828
_cell_length_c   10.56787811
_cell_angle_alpha   90.00000000
_cell_angle_beta   90.00000000
_cell_angle_gamma   90.00000000
_symmetry_Int_Tables_number   1
_chemical_formula_structural   Cr12FeNi41
_chemical_formula_sum   'Cr12 Fe1 Ni41'
_cell_volume   590.11056655
_cell_formula_units_Z   1
loop_
 _symmetry_equiv_pos_site_id
 _symmetry_equiv_pos_as_xyz
  1  'x, y, z'
loop_
 _atom_site_type_symbol
 _atom_site_label
 _atom_site_symmetry_multiplicity
 _atom_site_fract_x
 _atom_site_fract_y
 _atom_site_fract_z
 _atom_site_occupancy
  Ni  Ni0  1  0.99864408  0.00324328  0.99922894  1
  Ni  Ni1  1  0.16413249  0.16573149  0.16635569  1
  Ni  Ni2  1  0.00221868  0.00067613  0.33277009  1
  Ni  Ni3  1  0.99932813  0.33143211  0.00011772  1
  Ni  Ni4  1  0.16665996  0.50011150  0.16618438  1
  Cr  Cr5  1  0.99878472  0.33384788  0.33226286  1
  Cr  Cr6  1  0.00130948  0.66376225  0.99910086  1
  Ni  Ni7  1  0.16760506  0.83303406  0.16858674  1
  Ni  Ni8  1  0.00227102  0.66512425  0.33321303  1
  Cr  Cr9  1  0.33294171  0.99784838  0.99838454  1
  Cr  Cr10  1  0.50034570  0.16736570  0.16605644  1
  Ni  Ni11  1  0.33148856  0.99868250  0.33294734  1
  Ni  Ni12  1  0.32964682  0.33361503  0.99928316  1
  Cr  Cr13  1  0.49924794  0.49985547  0.16488122  1
  Fe  Fe14  1  0.33206662  0.33299425  0.33486377  1
  Ni  Ni15  1  0.33328562  0.66650886  0.00030294  1
  Ni  Ni16  1  0.49650496  0.83164323  0.16504174  1
  Ni  Ni17  1  0.33110786  0.66744368  0.33210361  1
  Ni  Ni18  1  0.66734368  -0.00020611  0.99823568  1
  Ni  Ni19  1  0.83505145  0.16789048  0.16422324  1
  Cr  Cr20  1  0.66489253  0.00120190  0.33470089  1
  Ni  Ni21  1  0.66990294  0.33177767  0.99907742  1
  Ni  Ni22  1  0.83362322  0.49694131  0.16535496  1
  Ni  Ni23  1  0.66749139  0.33276126  0.33499650  1
  Ni  Ni24  1  0.66520635  0.66730529  0.99897228  1
  Cr  Cr25  1  0.83470300  0.83452581  0.16590126  1
  Cr  Cr26  1  0.66598351  0.66485102  0.33486805  1
  Ni  Ni27  1  0.16828191  0.16577817  0.49944895  1
  Ni  Ni28  1  0.00071510  0.99912719  0.66696240  1
  Ni  Ni29  1  0.16616891  0.16578853  0.83302612  1
  Ni  Ni30  1  0.16856492  0.50003242  0.49943725  1
  Cr  Cr31  1  -0.00021277  0.33360604  0.66706793  1
  Ni  Ni32  1  0.16684200  0.49980922  0.83327380  1
  Cr  Cr33  1  0.16451765  0.83348044  0.49972008  1
  Ni  Ni34  1  0.99885913  0.66627560  0.66654346  1
  Ni  Ni35  1  0.16562568  0.83330674  0.83109643  1
  Ni  Ni36  1  0.49808838  0.16910493  0.49959972  1
  Ni  Ni37  1  0.33264634  0.00037658  0.66701436  1
  Ni  Ni38  1  0.49963226  0.16685856  0.83275831  1
  Ni  Ni39  1  0.49926132  0.49807080  0.50033222  1
  Ni  Ni40  1  0.33325673  0.33195780  0.66456171  1
  Cr  Cr41  1  0.49963746  0.49867851  0.83323024  1
  Ni  Ni42  1  0.49858932  0.83173253  0.50015551  1
  Ni  Ni43  1  0.33302816  0.66654874  0.66651521  1
  Ni  Ni44  1  0.49969633  0.83258377  0.83365858  1
  Ni  Ni45  1  0.83254348  0.16619409  0.49896187  1
  Cr  Cr46  1  0.66506572  0.99948805  0.66607142  1
  Ni  Ni47  1  0.83308077  0.16569058  0.83577427  1
  Ni  Ni48  1  0.83112925  0.50064288  0.50036967  1
  Ni  Ni49  1  0.66568769  0.33385957  0.66475508  1
  Ni  Ni50  1  0.83244306  0.49986502  0.83321292  1
  Ni  Ni51  1  0.83437753  0.83203468  0.50064752  1
  Ni  Ni52  1  0.66695998  0.66568377  0.66506140  1
  Ni  Ni53  1  0.83359833  0.83332826  0.83260029  1
" 