6646,Ni77Fe2Cr20_3,-230.98378304764, 151.941935961022,Ni77Fe2Cr20,"# generated using pymatgen
 data_Cr12FeNi41
_symmetry_space_group_name_H-M   'P 1'
_cell_length_a   7.47406773
_cell_length_b   7.47406773
_cell_length_c   10.56992795
_cell_angle_alpha   90.00000000
_cell_angle_beta   90.00000000
_cell_angle_gamma   90.00000000
_symmetry_Int_Tables_number   1
_chemical_formula_structural   Cr12FeNi41
_chemical_formula_sum   'Cr12 Fe1 Ni41'
_cell_volume   590.45402251
_cell_formula_units_Z   1
loop_
 _symmetry_equiv_pos_site_id
 _symmetry_equiv_pos_as_xyz
  1  'x, y, z'
loop_
 _atom_site_type_symbol
 _atom_site_label
 _atom_site_symmetry_multiplicity
 _atom_site_fract_x
 _atom_site_fract_y
 _atom_site_fract_z
 _atom_site_occupancy
  Ni  Ni0  1  0.99474195  0.99850380  0.99841943  1
  Cr  Cr1  1  0.16389066  0.16802785  0.16655598  1
  Ni  Ni2  1  0.99499840  -0.00023227  0.33383158  1
  Ni  Ni3  1  0.99737052  0.33503556  -0.00024111  1
  Ni  Ni4  1  0.16687301  0.49849546  0.16545393  1
  Ni  Ni5  1  0.99780501  0.33273880  0.33302357  1
  Ni  Ni6  1  0.99812185  0.66497587  0.99946290  1
  Cr  Cr7  1  0.16461207  0.83191197  0.16544276  1
  Cr  Cr8  1  0.99859767  0.66494039  0.33337020  1
  Cr  Cr9  1  0.33642897  0.00142956  0.99676344  1
  Ni  Ni10  1  0.50263002  0.16893716  0.16722688  1
  Fe  Fe11  1  0.33468494  0.00031053  0.33403803  1
  Ni  Ni12  1  0.33496713  0.33626337  -0.00029345  1
  Ni  Ni13  1  0.49937498  0.49757277  0.16504536  1
  Ni  Ni14  1  0.33419514  0.33434808  0.33137392  1
  Ni  Ni15  1  0.33273709  0.66286255  0.99734902  1
  Cr  Cr16  1  0.50199377  0.83126229  0.16631118  1
  Ni  Ni17  1  0.33190325  0.66406406  0.33429094  1
  Ni  Ni18  1  0.66897423  0.00082251  0.99891357  1
  Ni  Ni19  1  0.83163870  0.16643156  0.16614901  1
  Ni  Ni20  1  0.66793786  0.00210039  0.33353636  1
  Ni  Ni21  1  0.66626596  0.33247458  -0.00002507  1
  Ni  Ni22  1  0.83221952  0.49721424  0.16460066  1
  Ni  Ni23  1  0.66698550  0.32964182  0.33190940  1
  Ni  Ni24  1  0.66769219  0.66521789  0.99905919  1
  Ni  Ni25  1  0.83244653  0.83481067  0.16398978  1
  Cr  Cr26  1  0.66843877  0.66577336  0.33251996  1
  Cr  Cr27  1  0.16307348  0.16707147  0.49805274  1
  Ni  Ni28  1  0.99580570  0.99874060  0.66640757  1
  Cr  Cr29  1  0.16039963  0.16745178  0.83427868  1
  Ni  Ni30  1  0.16604690  0.49991934  0.49860023  1
  Ni  Ni31  1  0.99590085  0.33339157  0.66569065  1
  Ni  Ni32  1  0.16561877  0.50122180  0.83477076  1
  Ni  Ni33  1  0.16686701  0.83274652  0.49850489  1
  Cr  Cr34  1  0.99929698  0.66577369  0.66496940  1
  Ni  Ni35  1  0.16486857  0.83030620  0.83374403  1
  Ni  Ni36  1  0.50322264  0.16498334  0.49745971  1
  Cr  Cr37  1  0.33519737  0.99769484  0.66684199  1
  Ni  Ni38  1  0.50468644  0.16757161  0.83395608  1
  Cr  Cr39  1  0.50174987  0.49983899  0.50053428  1
  Cr  Cr40  1  0.33398569  0.33456848  0.66908541  1
  Ni  Ni41  1  0.50153969  0.50106302  0.83397947  1
  Ni  Ni42  1  0.50022858  0.83373657  0.49962930  1
  Ni  Ni43  1  0.33319155  0.66703142  0.66707835  1
  Ni  Ni44  1  0.50216004  0.83023636  0.83236671  1
  Ni  Ni45  1  0.83138677  0.16632258  0.49995458  1
  Ni  Ni46  1  0.66784253  -0.00016403  0.66631555  1
  Ni  Ni47  1  0.83086314  0.16652774  0.83256254  1
  Ni  Ni48  1  0.83300442  0.49637778  0.50047825  1
  Ni  Ni49  1  0.66869165  0.33133942  0.66676178  1
  Ni  Ni50  1  0.83134180  0.49864555  0.83315463  1
  Ni  Ni51  1  0.83139405  0.83561738  0.50038880  1
  Ni  Ni52  1  0.66634601  0.66738202  0.66682809  1
  Ni  Ni53  1  0.83140404  0.83330899  0.83416794  1
" 