5317,Ni77Fe2Cr20_12,-231.010319805588, 156.133547505784,Ni77Fe2Cr20,"# generated using pymatgen
 data_Cr12FeNi41
_symmetry_space_group_name_H-M   'P 1'
_cell_length_a   7.47730484
_cell_length_b   7.47730484
_cell_length_c   10.57450592
_cell_angle_alpha   90.00000000
_cell_angle_beta   90.00000000
_cell_angle_gamma   90.00000000
_symmetry_Int_Tables_number   1
_chemical_formula_structural   Cr12FeNi41
_chemical_formula_sum   'Cr12 Fe1 Ni41'
_cell_volume   591.22155359
_cell_formula_units_Z   1
loop_
 _symmetry_equiv_pos_site_id
 _symmetry_equiv_pos_as_xyz
  1  'x, y, z'
loop_
 _atom_site_type_symbol
 _atom_site_label
 _atom_site_symmetry_multiplicity
 _atom_site_fract_x
 _atom_site_fract_y
 _atom_site_fract_z
 _atom_site_occupancy
  Ni  Ni0  1  0.99849096  -0.00053714  0.99789896  1
  Ni  Ni1  1  0.16602475  0.16772959  0.16588941  1
  Cr  Cr2  1  -0.00055727  0.99894013  0.33434961  1
  Fe  Fe3  1  -0.00067339  0.33185845  0.99927080  1
  Ni  Ni4  1  0.16227403  0.49775978  0.16754913  1
  Ni  Ni5  1  -0.00036807  0.33445309  0.32968929  1
  Ni  Ni6  1  0.99822956  0.66604710  0.99930009  1
  Cr  Cr7  1  0.16646345  0.83149576  0.16626113  1
  Ni  Ni8  1  0.99909537  0.66407393  0.33199699  1
  Ni  Ni9  1  0.33183261  -0.00018240  -0.00025808  1
  Ni  Ni10  1  0.49980580  0.16238959  0.16815026  1
  Ni  Ni11  1  0.33486301  0.00078542  0.33300020  1
  Cr  Cr12  1  0.33026377  0.33097776  0.99924309  1
  Cr  Cr13  1  0.49792956  0.49880669  0.16866984  1
  Ni  Ni14  1  0.33263942  0.33085457  0.33240080  1
  Cr  Cr15  1  0.33159018  0.66664341  0.99704379  1
  Ni  Ni16  1  0.50018616  0.83749352  0.16640370  1
  Ni  Ni17  1  0.33180940  0.66634200  0.33322232  1
  Ni  Ni18  1  0.66764982  0.99855425  0.00099733  1
  Ni  Ni19  1  0.83209609  0.16601769  0.16553227  1
  Ni  Ni20  1  0.66343130  0.00026946  0.33066133  1
  Cr  Cr21  1  0.66782076  0.33157595  -0.00043789  1
  Ni  Ni22  1  0.83716847  0.49818348  0.16709949  1
  Ni  Ni23  1  0.66565952  0.33146464  0.33262337  1
  Cr  Cr24  1  0.66816351  0.66773664  0.99795602  1
  Ni  Ni25  1  0.83181306  0.83366886  0.16495441  1
  Cr  Cr26  1  0.66752053  0.66696922  0.33356917  1
  Ni  Ni27  1  0.16861027  0.16507849  0.50042281  1
  Ni  Ni28  1  0.00038616  0.00036208  0.66707439  1
  Ni  Ni29  1  0.16337251  0.16514833  0.83170960  1
  Cr  Cr30  1  0.16648745  0.49892927  0.49732485  1
  Ni  Ni31  1  -0.00062177  0.33070138  0.66869561  1
  Ni  Ni32  1  0.16507501  0.49894151  0.83265366  1
  Ni  Ni33  1  0.16806335  0.83398227  0.49928287  1
  Cr  Cr34  1  0.99806596  0.66784804  0.66587311  1
  Ni  Ni35  1  0.16602268  0.83384105  0.83266758  1
  Ni  Ni36  1  0.49794657  0.16575850  0.49844798  1
  Ni  Ni37  1  0.33138127  0.99899314  0.66520883  1
  Cr  Cr38  1  0.50009710  0.16412560  0.83109626  1
  Ni  Ni39  1  0.49998348  0.49863582  0.50073893  1
  Ni  Ni40  1  0.33292483  0.33248309  0.66598934  1
  Ni  Ni41  1  0.49914034  0.50119405  0.82843060  1
  Ni  Ni42  1  0.49825111  0.83356298  0.49995739  1
  Ni  Ni43  1  0.33550960  0.66648835  0.66736344  1
  Ni  Ni44  1  0.49915830  0.83244054  0.83156167  1
  Cr  Cr45  1  0.83155005  0.16707312  0.50097783  1
  Ni  Ni46  1  0.66620911  0.99766363  0.66628731  1
  Ni  Ni47  1  0.83510558  0.16516038  0.83212075  1
  Ni  Ni48  1  0.83095769  0.49922561  0.49885692  1
  Ni  Ni49  1  0.66565970  0.33479027  0.66581117  1
  Ni  Ni50  1  0.83369968  0.49854944  0.83188164  1
  Ni  Ni51  1  0.83162781  0.83195273  0.49998644  1
  Ni  Ni52  1  0.66431503  0.66547068  0.66647013  1
  Ni  Ni53  1  0.83276063  0.83419006  0.83303393  1
" 