1693,Ni77Fe6Cr15_13,-233.889182515006, 169.049784445622,Ni77Fe6Cr15,"# generated using pymatgen
 data_Cr3FeNi14
_symmetry_space_group_name_H-M   'P 1'
_cell_length_a   7.46345755
_cell_length_b   7.46345755
_cell_length_c   10.55492289
_cell_angle_alpha   90.00000000
_cell_angle_beta   90.00000000
_cell_angle_gamma   90.00000000
_symmetry_Int_Tables_number   1
_chemical_formula_structural   Cr3FeNi14
_chemical_formula_sum   'Cr9 Fe3 Ni42'
_cell_volume   587.94296669
_cell_formula_units_Z   3
loop_
 _symmetry_equiv_pos_site_id
 _symmetry_equiv_pos_as_xyz
  1  'x, y, z'
loop_
 _atom_site_type_symbol
 _atom_site_label
 _atom_site_symmetry_multiplicity
 _atom_site_fract_x
 _atom_site_fract_y
 _atom_site_fract_z
 _atom_site_occupancy
  Ni  Ni0  1  0.00121283  1.00006806  0.00164069  1
  Ni  Ni1  1  0.16442380  0.16745969  0.16603641  1
  Fe  Fe2  1  0.99794377  0.00145837  0.33272383  1
  Ni  Ni3  1  0.00191404  0.33346298  0.00050090  1
  Ni  Ni4  1  0.16866429  0.50098661  0.16731394  1
  Ni  Ni5  1  0.00118513  0.33345813  0.33439171  1
  Ni  Ni6  1  0.00242508  0.66719201  0.99927490  1
  Ni  Ni7  1  0.16615759  0.83227526  0.16539791  1
  Ni  Ni8  1  0.00178104  0.66571589  0.33365487  1
  Ni  Ni9  1  0.33272018  0.99983700  0.99913498  1
  Cr  Cr10  1  0.50170651  0.16794964  0.16538560  1
  Cr  Cr11  1  0.33440279  1.00017872  0.33321547  1
  Ni  Ni12  1  0.33222914  0.33390422  0.99924905  1
  Ni  Ni13  1  0.49651857  0.50056070  0.16693071  1
  Ni  Ni14  1  0.33175900  0.33583772  0.33502912  1
  Ni  Ni15  1  0.33194963  0.66698029  0.00121016  1
  Ni  Ni16  1  0.49916653  0.83284074  0.16628929  1
  Ni  Ni17  1  0.33241307  0.66458784  0.33235734  1
  Ni  Ni18  1  0.66678866  0.00034710  0.00061334  1
  Ni  Ni19  1  0.83497157  0.16481135  0.16701625  1
  Ni  Ni20  1  0.66890646  0.00089272  0.33445584  1
  Ni  Ni21  1  0.66657724  0.33269189  0.99967426  1
  Cr  Cr22  1  0.83492720  0.49839198  0.16618058  1
  Ni  Ni23  1  0.66777547  0.33186542  0.33519359  1
  Cr  Cr24  1  0.66631398  0.66751208  0.99945848  1
  Ni  Ni25  1  0.83539790  0.83708193  0.16705914  1
  Cr  Cr26  1  0.66601555  0.66821309  0.33454051  1
  Ni  Ni27  1  0.16661722  0.16867461  0.50039646  1
  Ni  Ni28  1  0.00068747  0.00066470  0.66614185  1
  Ni  Ni29  1  0.16922717  0.16646151  0.83428976  1
  Ni  Ni30  1  0.16840595  0.49874880  0.49786492  1
  Cr  Cr31  1  0.00058176  0.33313068  0.66606474  1
  Ni  Ni32  1  0.16834351  0.50025539  0.83554568  1
  Cr  Cr33  1  0.16683259  0.83303513  0.50062614  1
  Cr  Cr34  1  0.99874149  0.66659512  0.66810857  1
  Fe  Fe35  1  0.16805948  0.83406694  0.83468593  1
  Ni  Ni36  1  0.50156989  0.16782058  0.50146705  1
  Ni  Ni37  1  0.33485741  0.00062854  0.66797538  1
  Ni  Ni38  1  0.49845204  0.16660465  0.83354499  1
  Ni  Ni39  1  0.49952684  0.49934636  0.50096150  1
  Fe  Fe40  1  0.33547578  0.33315246  0.66689596  1
  Ni  Ni41  1  0.49916669  0.49994042  0.83283055  1
  Ni  Ni42  1  0.50208498  0.83355430  0.50180254  1
  Ni  Ni43  1  0.33654172  0.66721126  0.66715302  1
  Ni  Ni44  1  0.49979032  0.83417597  0.83262941  1
  Ni  Ni45  1  0.83253520  0.16611582  0.49891450  1
  Ni  Ni46  1  0.66517700  0.99920694  0.66565285  1
  Cr  Cr47  1  0.83265823  0.16603037  0.83515009  1
  Ni  Ni48  1  0.83278917  0.49926302  0.49996423  1
  Ni  Ni49  1  0.66507610  0.33442918  0.66585317  1
  Ni  Ni50  1  0.83321163  0.50159093  0.83425701  1
  Ni  Ni51  1  0.83193629  0.83534410  0.50026663  1
  Ni  Ni52  1  0.66503820  0.66708609  0.66661923  1
  Ni  Ni53  1  0.83335631  0.83329218  0.83339645  1
" 