677,Ni77Fe4Cr17_7,-231.869404422243, 158.767061978172,Ni77Fe4Cr17,"# generated using pymatgen
 data_Cr11Fe2Ni41
_symmetry_space_group_name_H-M   'P 1'
_cell_length_a   7.46902271
_cell_length_b   7.46902271
_cell_length_c   10.56279322
_cell_angle_alpha   90.00000000
_cell_angle_beta   90.00000000
_cell_angle_gamma   90.00000000
_symmetry_Int_Tables_number   1
_chemical_formula_structural   Cr11Fe2Ni41
_chemical_formula_sum   'Cr11 Fe2 Ni41'
_cell_volume   589.25915414
_cell_formula_units_Z   1
loop_
 _symmetry_equiv_pos_site_id
 _symmetry_equiv_pos_as_xyz
  1  'x, y, z'
loop_
 _atom_site_type_symbol
 _atom_site_label
 _atom_site_symmetry_multiplicity
 _atom_site_fract_x
 _atom_site_fract_y
 _atom_site_fract_z
 _atom_site_occupancy
  Ni  Ni0  1  0.99953031  0.00019763  0.99799258  1
  Cr  Cr1  1  0.16816117  0.16499054  0.16500288  1
  Ni  Ni2  1  0.00111730  0.00118790  0.33408020  1
  Ni  Ni3  1  0.99825004  0.33146834  0.99876147  1
  Cr  Cr4  1  0.16437697  0.49970391  0.16765227  1
  Ni  Ni5  1  0.99874110  0.33172737  0.33409210  1
  Ni  Ni6  1  0.99927385  0.66787001  0.99884391  1
  Ni  Ni7  1  0.16513638  0.83436949  0.16852538  1
  Ni  Ni8  1  0.00431320  0.66674916  0.33343815  1
  Ni  Ni9  1  0.33158066  0.00004280  0.99892448  1
  Ni  Ni10  1  0.50143616  0.16837682  0.16695187  1
  Ni  Ni11  1  0.33139309  0.00063980  0.33400840  1
  Ni  Ni12  1  0.33427453  0.33298454  0.99841522  1
  Ni  Ni13  1  0.50196537  0.49530726  0.16676633  1
  Ni  Ni14  1  0.33511000  0.33358626  0.33535499  1
  Cr  Cr15  1  0.33368480  0.66647835  0.99835764  1
  Cr  Cr16  1  0.49768193  0.83716483  0.16676379  1
  Ni  Ni17  1  0.33000932  0.66539701  0.33455682  1
  Ni  Ni18  1  0.66844280  0.00105091  0.99879676  1
  Ni  Ni19  1  0.83133593  0.16855185  0.16745131  1
  Ni  Ni20  1  0.66713930  0.00623074  0.33351444  1
  Ni  Ni21  1  0.66709159  0.33323896  0.00263506  1
  Ni  Ni22  1  0.83272782  0.49721212  0.16549035  1
  Ni  Ni23  1  0.66579297  0.33029293  0.33217734  1
  Ni  Ni24  1  0.66707312  0.66530502  0.99867541  1
  Cr  Cr25  1  0.83620047  0.83317199  0.16560848  1
  Cr  Cr26  1  0.66452327  0.66279472  0.33112267  1
  Ni  Ni27  1  0.16793267  0.16693435  0.50011292  1
  Ni  Ni28  1  0.00092226  0.00163134  0.66751870  1
  Ni  Ni29  1  0.16512533  0.16679562  0.83351579  1
  Ni  Ni30  1  0.16775925  0.49873914  0.49981952  1
  Ni  Ni31  1  0.00200289  0.32983449  0.66663878  1
  Ni  Ni32  1  0.16689397  0.49824032  0.83179021  1
  Ni  Ni33  1  0.16623117  0.83391872  0.49870112  1
  Fe  Fe34  1  0.00329251  0.66762840  0.66753999  1
  Ni  Ni35  1  0.16540757  0.83463129  0.83245007  1
  Ni  Ni36  1  0.49858079  0.16825160  0.49914977  1
  Ni  Ni37  1  0.33036555  0.99905150  0.66656244  1
  Cr  Cr38  1  0.49852754  0.16645333  0.83370426  1
  Ni  Ni39  1  0.49751089  0.49618365  0.50081309  1
  Ni  Ni40  1  0.33168753  0.33508411  0.66567252  1
  Ni  Ni41  1  0.49937318  0.50040831  0.83194349  1
  Cr  Cr42  1  0.49823804  0.83552583  0.50086588  1
  Ni  Ni43  1  0.33300791  0.66547842  0.66682175  1
  Ni  Ni44  1  0.50128698  0.83307891  0.83197574  1
  Fe  Fe45  1  0.83379471  0.16699383  0.50017384  1
  Ni  Ni46  1  0.66842068  0.00055442  0.66747510  1
  Ni  Ni47  1  0.83499953  0.16473696  0.83253394  1
  Cr  Cr48  1  0.83471439  0.49868300  0.50062504  1
  Ni  Ni49  1  0.66597467  0.33270631  0.66496323  1
  Cr  Cr50  1  0.83352313  0.49970175  0.83371979  1
  Cr  Cr51  1  0.83506589  0.83452307  0.50108358  1
  Ni  Ni52  1  0.66295458  0.66637854  0.66945148  1
  Ni  Ni53  1  0.83290308  0.83462166  0.83327783  1
" 