5715,Ni77Fe2Cr20_8,-231.137429149676, 158.253235881767,Ni77Fe2Cr20,"# generated using pymatgen
 data_Cr12FeNi41
_symmetry_space_group_name_H-M   'P 1'
_cell_length_a   7.47277400
_cell_length_b   7.47277400
_cell_length_c   10.56809834
_cell_angle_alpha   90.00000000
_cell_angle_beta   90.00000000
_cell_angle_gamma   90.00000000
_symmetry_Int_Tables_number   1
_chemical_formula_structural   Cr12FeNi41
_chemical_formula_sum   'Cr12 Fe1 Ni41'
_cell_volume   590.14745888
_cell_formula_units_Z   1
loop_
 _symmetry_equiv_pos_site_id
 _symmetry_equiv_pos_as_xyz
  1  'x, y, z'
loop_
 _atom_site_type_symbol
 _atom_site_label
 _atom_site_symmetry_multiplicity
 _atom_site_fract_x
 _atom_site_fract_y
 _atom_site_fract_z
 _atom_site_occupancy
  Ni  Ni0  1  0.00097020  0.99889947  0.00012107  1
  Cr  Cr1  1  0.16554451  0.16749593  0.16529003  1
  Ni  Ni2  1  0.99721751  0.99868850  0.33398315  1
  Ni  Ni3  1  -0.00018564  0.33436564  0.99943590  1
  Ni  Ni4  1  0.16488122  0.49967846  0.16617894  1
  Ni  Ni5  1  -0.00036328  0.33276770  0.33276899  1
  Ni  Ni6  1  0.99734622  0.66558493  0.00054883  1
  Ni  Ni7  1  0.16370612  0.83186212  0.16541241  1
  Ni  Ni8  1  0.99750481  0.66739504  0.33147496  1
  Ni  Ni9  1  0.33113969  0.00155164  0.00142814  1
  Ni  Ni10  1  0.50045841  0.16713478  0.16530090  1
  Cr  Cr11  1  0.33383966  -0.00009402  0.33360319  1
  Ni  Ni12  1  0.33304806  0.33246858  0.99937394  1
  Ni  Ni13  1  0.50036765  0.49889235  0.16503105  1
  Ni  Ni14  1  0.33288936  0.33287419  0.33287192  1
  Cr  Cr15  1  0.33278859  0.66523161  0.00119936  1
  Ni  Ni16  1  0.50171929  0.83282394  0.16641131  1
  Cr  Cr17  1  0.33341985  0.66601074  0.33204002  1
  Cr  Cr18  1  0.66684548  0.99914545  0.00227925  1
  Ni  Ni19  1  0.83263866  0.16596114  0.16635617  1
  Ni  Ni20  1  0.66796479  0.99809062  0.33301671  1
  Ni  Ni21  1  0.66598774  0.33609294  0.00127157  1
  Ni  Ni22  1  0.83360130  0.50093635  0.16545685  1
  Cr  Cr23  1  0.66642257  0.33253839  0.33253517  1
  Ni  Ni24  1  0.66863717  0.66367791  0.00023814  1
  Ni  Ni25  1  0.83342406  0.83195345  0.16688902  1
  Ni  Ni26  1  0.66785814  0.66817439  0.33265251  1
  Ni  Ni27  1  0.16438662  0.16657219  0.50007485  1
  Ni  Ni28  1  0.99807401  0.99955339  0.66474766  1
  Ni  Ni29  1  0.16528437  0.16939075  0.83369164  1
  Cr  Cr30  1  0.16638072  0.49869904  0.49968881  1
  Ni  Ni31  1  -0.00027894  0.33273218  0.66664538  1
  Ni  Ni32  1  0.16553544  0.49678342  0.83224123  1
  Ni  Ni33  1  0.16345412  0.83384031  0.50046740  1
  Ni  Ni34  1  0.99804070  0.66656487  0.66682516  1
  Cr  Cr35  1  0.16301023  0.83307846  0.83302910  1
  Ni  Ni36  1  0.50079625  0.16717524  0.50039804  1
  Cr  Cr37  1  0.33189254  0.00006450  0.66406931  1
  Cr  Cr38  1  0.49809793  0.16934516  0.83344945  1
  Ni  Ni39  1  0.50022544  0.49954827  0.50190551  1
  Ni  Ni40  1  0.33325770  0.33474329  0.66660501  1
  Ni  Ni41  1  0.50015462  0.49868231  0.83191393  1
  Ni  Ni42  1  0.50283770  0.83212709  0.50058330  1
  Ni  Ni43  1  0.33418826  0.66380222  0.66542182  1
  Cr  Cr44  1  0.50241661  0.83057098  0.83192091  1
  Ni  Ni45  1  0.83366704  0.16396050  0.50046507  1
  Ni  Ni46  1  0.66863310  0.99862221  0.66329805  1
  Cr  Cr47  1  0.83524102  0.16646811  0.83246776  1
  Fe  Fe48  1  0.83203023  0.50054110  0.50053337  1
  Ni  Ni49  1  0.66587170  0.33477777  0.66499314  1
  Ni  Ni50  1  0.83316048  0.50151397  0.83278417  1
  Ni  Ni51  1  0.83255743  0.83441089  0.49986636  1
  Ni  Ni52  1  0.66662179  0.66545009  0.66595948  1
  Ni  Ni53  1  0.83410065  0.83008933  0.83209446  1
" 