2368,Ni77Fe18Cr4_14,-239.064090673252, 196.727733811145,Ni77Fe18Cr4,"# generated using pymatgen
 data_Cr4Fe9Ni41
_symmetry_space_group_name_H-M   'P 1'
_cell_length_a   7.43359748
_cell_length_b   7.43359748
_cell_length_c   10.51269438
_cell_angle_alpha   90.00000000
_cell_angle_beta   90.00000000
_cell_angle_gamma   90.00000000
_symmetry_Int_Tables_number   1
_chemical_formula_structural   Cr4Fe9Ni41
_chemical_formula_sum   'Cr4 Fe9 Ni41'
_cell_volume   580.91437203
_cell_formula_units_Z   1
loop_
 _symmetry_equiv_pos_site_id
 _symmetry_equiv_pos_as_xyz
  1  'x, y, z'
loop_
 _atom_site_type_symbol
 _atom_site_label
 _atom_site_symmetry_multiplicity
 _atom_site_fract_x
 _atom_site_fract_y
 _atom_site_fract_z
 _atom_site_occupancy
  Ni  Ni0  1  0.00297019  0.00563955  0.00226390  1
  Ni  Ni1  1  0.17027731  0.16924288  0.16782708  1
  Cr  Cr2  1  0.00326301  0.00319723  0.33648145  1
  Fe  Fe3  1  0.00266024  0.33419862  0.00231660  1
  Ni  Ni4  1  0.16921731  0.50245170  0.16946781  1
  Ni  Ni5  1  1.00109314  0.33741068  0.33432037  1
  Cr  Cr6  1  1.00215737  0.66783498  0.00261678  1
  Ni  Ni7  1  0.17272017  0.83505921  0.16908975  1
  Ni  Ni8  1  0.00301732  0.66594920  0.33654294  1
  Ni  Ni9  1  0.33530766  0.00369683  0.00340917  1
  Ni  Ni10  1  0.50235913  0.16793715  0.16889972  1
  Ni  Ni11  1  0.33719711  1.00176894  0.33520122  1
  Ni  Ni12  1  0.33628902  0.33488397  0.00247430  1
  Fe  Fe13  1  0.50227173  0.50231758  0.16849661  1
  Fe  Fe14  1  0.33592444  0.33586271  0.33564654  1
  Ni  Ni15  1  0.33818049  0.66816554  0.00315807  1
  Ni  Ni16  1  0.49991678  0.83635507  0.16896140  1
  Ni  Ni17  1  0.33554700  0.66945814  0.33478673  1
  Fe  Fe18  1  0.66725372  0.00345746  1.00180544  1
  Ni  Ni19  1  0.83411378  0.17145107  0.16790090  1
  Ni  Ni20  1  0.66630684  0.00368595  0.33556643  1
  Ni  Ni21  1  0.66860373  0.33595271  1.00207460  1
  Ni  Ni22  1  0.83540978  0.50001318  0.17032015  1
  Ni  Ni23  1  0.66981296  0.33575666  0.33580242  1
  Ni  Ni24  1  0.66666761  0.66705541  1.00156697  1
  Cr  Cr25  1  0.83436233  0.83530766  0.16904830  1
  Ni  Ni26  1  0.66818679  0.66730229  0.33593333  1
  Fe  Fe27  1  0.16913017  0.17006037  0.50354477  1
  Ni  Ni28  1  1.00126041  0.00352802  0.66814893  1
  Ni  Ni29  1  0.16916008  0.16966911  0.83536364  1
  Ni  Ni30  1  0.16890286  0.50420922  0.50274905  1
  Ni  Ni31  1  0.00282040  0.33544667  0.66992887  1
  Ni  Ni32  1  0.16997916  0.50098240  0.83453715  1
  Ni  Ni33  1  0.16904716  0.83389406  0.50243440  1
  Ni  Ni34  1  1.00102736  0.66777926  0.66761615  1
  Cr  Cr35  1  0.16976603  0.83579963  0.83508015  1
  Ni  Ni36  1  0.50310556  0.16878616  0.50221861  1
  Ni  Ni37  1  0.33618228  0.00377908  0.66813645  1
  Ni  Ni38  1  0.50271591  0.16914925  0.83563443  1
  Ni  Ni39  1  0.50204066  0.50162758  0.50199106  1
  Ni  Ni40  1  0.33487750  0.33545022  0.66901517  1
  Ni  Ni41  1  0.50248402  0.50208179  0.83613794  1
  Fe  Fe42  1  0.50277142  0.83513132  0.50171608  1
  Ni  Ni43  1  0.33642384  0.66752092  0.66880266  1
  Fe  Fe44  1  0.50349236  0.83522044  0.83595454  1
  Ni  Ni45  1  0.83336434  0.16893155  0.50277996  1
  Ni  Ni46  1  0.66930600  1.00197897  0.66936480  1
  Ni  Ni47  1  0.83487040  0.16888753  0.83606842  1
  Ni  Ni48  1  0.83580622  0.50285912  0.50196531  1
  Fe  Fe49  1  0.66884769  0.33547381  0.66897025  1
  Ni  Ni50  1  0.83428578  0.50153005  0.83445972  1
  Ni  Ni51  1  0.83594267  0.83496013  0.50357154  1
  Ni  Ni52  1  0.66930208  0.66908243  0.66924891  1
  Fe  Fe53  1  0.83349682  0.83626470  0.83407823  1
" 