5258,Ni77Fe4Cr17_1,-232.246353503653, 163.961763004233,Ni77Fe4Cr17,"# generated using pymatgen
 data_Cr11Fe2Ni41
_symmetry_space_group_name_H-M   'P 1'
_cell_length_a   7.46864193
_cell_length_b   7.46864193
_cell_length_c   10.56225470
_cell_angle_alpha   90.00000000
_cell_angle_beta   90.00000000
_cell_angle_gamma   90.00000000
_symmetry_Int_Tables_number   1
_chemical_formula_structural   Cr11Fe2Ni41
_chemical_formula_sum   'Cr11 Fe2 Ni41'
_cell_volume   589.16903391
_cell_formula_units_Z   1
loop_
 _symmetry_equiv_pos_site_id
 _symmetry_equiv_pos_as_xyz
  1  'x, y, z'
loop_
 _atom_site_type_symbol
 _atom_site_label
 _atom_site_symmetry_multiplicity
 _atom_site_fract_x
 _atom_site_fract_y
 _atom_site_fract_z
 _atom_site_occupancy
  Ni  Ni0  1  0.99843098  0.99643110  0.00039116  1
  Cr  Cr1  1  0.16767629  0.16447139  0.16682378  1
  Fe  Fe2  1  0.99820477  0.99762561  0.33391563  1
  Cr  Cr3  1  0.00105559  0.33672686  0.00029683  1
  Ni  Ni4  1  0.16894701  0.50301416  0.16617486  1
  Cr  Cr5  1  0.99951101  0.33551873  0.33292367  1
  Ni  Ni6  1  -0.00003170  0.66823441  0.00029424  1
  Ni  Ni7  1  0.16582906  0.83061228  0.16718373  1
  Ni  Ni8  1  0.00103129  0.66869594  0.33209085  1
  Cr  Cr9  1  0.33509874  0.99835686  0.99797973  1
  Ni  Ni10  1  0.50109227  0.16647795  0.16771867  1
  Fe  Fe11  1  0.33529181  0.99819462  0.33409754  1
  Ni  Ni12  1  0.33295310  0.33477696  0.00024457  1
  Ni  Ni13  1  0.49895365  0.50104891  0.16782709  1
  Ni  Ni14  1  0.33476551  0.33433506  0.33355594  1
  Ni  Ni15  1  0.33208066  0.66642734  0.00074973  1
  Ni  Ni16  1  0.50052917  0.83199950  0.16683954  1
  Ni  Ni17  1  0.33271359  0.66655466  0.33347698  1
  Ni  Ni18  1  0.66707202  0.99710645  0.00068869  1
  Ni  Ni19  1  0.83100944  0.16349056  0.16763076  1
  Ni  Ni20  1  0.66628316  0.99939142  0.33281486  1
  Cr  Cr21  1  0.66586340  0.33328544  0.00245973  1
  Ni  Ni22  1  0.83178005  0.50296897  0.16715758  1
  Ni  Ni23  1  0.66447451  0.33170029  0.33265223  1
  Ni  Ni24  1  0.66759917  0.66964999  0.00091936  1
  Ni  Ni25  1  0.83320118  0.83318139  0.16624658  1
  Ni  Ni26  1  0.66595073  0.66854639  0.33247779  1
  Ni  Ni27  1  0.16571635  0.16550977  0.49947265  1
  Ni  Ni28  1  0.00049733  0.99854770  0.66518448  1
  Ni  Ni29  1  0.16591256  0.16603169  0.83312407  1
  Ni  Ni30  1  0.16819508  0.50157959  0.50012456  1
  Ni  Ni31  1  0.00046420  0.33365128  0.66654068  1
  Ni  Ni32  1  0.16552790  0.50201160  0.83341199  1
  Ni  Ni33  1  0.16573015  0.83235611  0.49902751  1
  Ni  Ni34  1  0.00100082  0.66747976  0.66737270  1
  Ni  Ni35  1  0.16467609  0.83167067  0.83319779  1
  Ni  Ni36  1  0.50058311  0.16747379  0.49736222  1
  Cr  Cr37  1  0.33286353  0.99736068  0.66651825  1
  Ni  Ni38  1  0.49929600  0.16644458  0.83459221  1
  Ni  Ni39  1  0.49914803  0.50097221  0.49886505  1
  Cr  Cr40  1  0.33223715  0.33330274  0.66618634  1
  Cr  Cr41  1  0.50057732  0.50204356  0.83272736  1
  Ni  Ni42  1  0.49990305  0.83099126  0.49862894  1
  Ni  Ni43  1  0.33199355  0.66761287  0.66551508  1
  Ni  Ni44  1  0.50060065  0.83135025  0.83413553  1
  Ni  Ni45  1  0.83335532  0.16490688  0.49983389  1
  Cr  Cr46  1  0.66569278  0.99801518  0.66668292  1
  Cr  Cr47  1  0.83427654  0.16539259  0.83228651  1
  Cr  Cr48  1  0.83145427  0.50142074  0.50186155  1
  Ni  Ni49  1  0.66736183  0.33322631  0.66487300  1
  Ni  Ni50  1  0.83456436  0.50352068  0.83133810  1
  Ni  Ni51  1  0.83408682  0.83393280  0.49936881  1
  Ni  Ni52  1  0.66675982  0.66773852  0.66624219  1
  Ni  Ni53  1  0.83439531  0.83086928  0.83412989  1
" 