5949,Ni77Fe12Cr9_18,-236.967166459614, 183.399213751494,Ni77Fe12Cr9,"# generated using pymatgen
 data_CrFeNi7
_symmetry_space_group_name_H-M   'P 1'
_cell_length_a   7.44797359
_cell_length_b   7.44797359
_cell_length_c   10.53302527
_cell_angle_alpha   90.00000000
_cell_angle_beta   90.00000000
_cell_angle_gamma   90.00000000
_symmetry_Int_Tables_number   1
_chemical_formula_structural   CrFeNi7
_chemical_formula_sum   'Cr6 Fe6 Ni42'
_cell_volume   584.29124955
_cell_formula_units_Z   6
loop_
 _symmetry_equiv_pos_site_id
 _symmetry_equiv_pos_as_xyz
  1  'x, y, z'
loop_
 _atom_site_type_symbol
 _atom_site_label
 _atom_site_symmetry_multiplicity
 _atom_site_fract_x
 _atom_site_fract_y
 _atom_site_fract_z
 _atom_site_occupancy
  Ni  Ni0  1  1.00063822  0.00212180  1.00051962  1
  Fe  Fe1  1  0.16741243  0.16806557  0.16690491  1
  Ni  Ni2  1  1.00094825  0.00193403  0.33571337  1
  Ni  Ni3  1  0.00198860  0.33473657  0.00175788  1
  Ni  Ni4  1  0.16744418  0.50106417  0.16897389  1
  Ni  Ni5  1  0.00157740  0.33470947  0.33399052  1
  Ni  Ni6  1  0.99937361  0.66699987  1.00013545  1
  Ni  Ni7  1  0.16491825  0.83275099  0.16811626  1
  Ni  Ni8  1  1.00127105  0.66727150  0.33514787  1
  Ni  Ni9  1  0.33503561  0.00292857  1.00099869  1
  Ni  Ni10  1  0.50278971  0.17086780  0.16582126  1
  Cr  Cr11  1  0.33344685  1.00104879  0.33295955  1
  Ni  Ni12  1  0.33279852  0.33340964  1.00060194  1
  Ni  Ni13  1  0.50075578  0.49953037  0.17005809  1
  Ni  Ni14  1  0.33353391  0.33639816  0.33533059  1
  Cr  Cr15  1  0.33497760  0.66741767  1.00099533  1
  Ni  Ni16  1  0.50237986  0.83352457  0.16689899  1
  Ni  Ni17  1  0.33449554  0.66637104  0.33510424  1
  Ni  Ni18  1  0.66820575  1.00018736  1.00086136  1
  Ni  Ni19  1  0.83463658  0.16829057  0.16776410  1
  Cr  Cr20  1  0.66901321  1.00046483  0.33548252  1
  Fe  Fe21  1  0.66780136  0.33444019  1.00117675  1
  Fe  Fe22  1  0.83413570  0.50237543  0.16822733  1
  Ni  Ni23  1  0.66869995  0.33607708  0.33539672  1
  Ni  Ni24  1  0.66944348  0.66903082  0.00144071  1
  Ni  Ni25  1  0.83646616  0.83490742  0.16747147  1
  Ni  Ni26  1  0.66800742  0.66685463  0.33453061  1
  Ni  Ni27  1  0.16855684  0.16847462  0.50004147  1
  Fe  Fe28  1  0.00315952  1.00102279  0.66769380  1
  Ni  Ni29  1  0.16919583  0.16727377  0.83628482  1
  Ni  Ni30  1  0.16854300  0.50239774  0.50037563  1
  Cr  Cr31  1  1.00095409  0.33478711  0.66833963  1
  Ni  Ni32  1  0.16819551  0.50143471  0.83440912  1
  Ni  Ni33  1  0.16732648  0.83294122  0.50206557  1
  Fe  Fe34  1  0.00268707  0.66794114  0.66805115  1
  Ni  Ni35  1  0.16682723  0.83518052  0.83336009  1
  Ni  Ni36  1  0.50047033  0.17117911  0.50246329  1
  Ni  Ni37  1  0.33357887  1.00115516  0.66860286  1
  Ni  Ni38  1  0.50073682  0.16929190  0.83541945  1
  Fe  Fe39  1  0.50041971  0.50049623  0.50075028  1
  Ni  Ni40  1  0.33419803  0.33448127  0.66791219  1
  Ni  Ni41  1  0.50110682  0.49872503  0.83371837  1
  Ni  Ni42  1  0.49911626  0.83328613  0.50045109  1
  Ni  Ni43  1  0.33347839  0.66826011  0.66794403  1
  Ni  Ni44  1  0.50045942  0.83570088  0.83623350  1
  Ni  Ni45  1  0.83485487  0.16970505  0.50033068  1
  Cr  Cr46  1  0.66829233  0.00219532  0.66730947  1
  Ni  Ni47  1  0.83392892  0.16808372  0.83603356  1
  Ni  Ni48  1  0.83526215  0.50082216  0.49831309  1
  Ni  Ni49  1  0.66796502  0.33484365  0.66839252  1
  Ni  Ni50  1  0.83446176  0.50088359  0.83778678  1
  Ni  Ni51  1  0.83778093  0.83317038  0.50000811  1
  Cr  Cr52  1  0.66849806  0.66683821  0.66814447  1
  Ni  Ni53  1  0.83689684  0.83479566  0.83633104  1
" 