5885,Ni77Fe12Cr9_5,-237.151898539217, 181.970697794494,Ni77Fe12Cr9,"# generated using pymatgen
 data_CrFeNi7
_symmetry_space_group_name_H-M   'P 1'
_cell_length_a   7.44855270
_cell_length_b   7.44855270
_cell_length_c   10.53384425
_cell_angle_alpha   90.00000000
_cell_angle_beta   90.00000000
_cell_angle_gamma   90.00000000
_symmetry_Int_Tables_number   1
_chemical_formula_structural   CrFeNi7
_chemical_formula_sum   'Cr6 Fe6 Ni42'
_cell_volume   584.42755302
_cell_formula_units_Z   6
loop_
 _symmetry_equiv_pos_site_id
 _symmetry_equiv_pos_as_xyz
  1  'x, y, z'
loop_
 _atom_site_type_symbol
 _atom_site_label
 _atom_site_symmetry_multiplicity
 _atom_site_fract_x
 _atom_site_fract_y
 _atom_site_fract_z
 _atom_site_occupancy
  Ni  Ni0  1  1.00121268  1.00088600  1.00104909  1
  Cr  Cr1  1  0.16824842  0.16894351  0.16725600  1
  Ni  Ni2  1  1.00018012  0.99933111  0.33479609  1
  Ni  Ni3  1  1.00027488  0.33541410  1.00045904  1
  Ni  Ni4  1  0.16936658  0.50264054  0.16634597  1
  Cr  Cr5  1  1.00009150  0.33621695  0.33519414  1
  Ni  Ni6  1  0.00220786  0.66755110  0.00259704  1
  Ni  Ni7  1  0.16846713  0.83336829  0.16771723  1
  Ni  Ni8  1  0.00300324  0.66922088  0.33390251  1
  Ni  Ni9  1  0.33460009  1.00088748  0.00198920  1
  Ni  Ni10  1  0.50219809  0.16871228  0.16774827  1
  Fe  Fe11  1  0.33491715  1.00024457  0.33375232  1
  Ni  Ni12  1  0.33562321  0.33548511  1.00035314  1
  Ni  Ni13  1  0.50091109  0.50083212  0.16766052  1
  Ni  Ni14  1  0.33739077  0.33689399  0.33545483  1
  Ni  Ni15  1  0.33362014  0.66745721  0.00212490  1
  Ni  Ni16  1  0.50102519  0.83417473  0.16778040  1
  Ni  Ni17  1  0.33346699  0.66621467  0.33354613  1
  Ni  Ni18  1  0.66803584  0.00281991  0.00313289  1
  Ni  Ni19  1  0.83257913  0.16780010  0.16632309  1
  Ni  Ni20  1  0.66890839  0.00320345  0.33239505  1
  Ni  Ni21  1  0.66782928  0.33434423  0.00194299  1
  Ni  Ni22  1  0.83342941  0.50136075  0.16762126  1
  Ni  Ni23  1  0.66576252  0.33407227  0.33450369  1
  Ni  Ni24  1  0.66773749  0.66639672  0.00351355  1
  Ni  Ni25  1  0.83429171  0.83457648  0.16767506  1
  Ni  Ni26  1  0.66728220  0.66647539  0.33289937  1
  Fe  Fe27  1  0.16789300  0.16856501  0.50246110  1
  Ni  Ni28  1  0.00304942  0.00299513  0.66792965  1
  Ni  Ni29  1  0.16798502  0.16851891  0.83390434  1
  Ni  Ni30  1  0.16956206  0.50163560  0.50271838  1
  Ni  Ni31  1  0.00125902  0.33445315  0.66777955  1
  Fe  Fe32  1  0.16626557  0.50117309  0.83476232  1
  Ni  Ni33  1  0.16899471  0.83451626  0.50180623  1
  Ni  Ni34  1  0.00367015  0.66629042  0.66733031  1
  Ni  Ni35  1  0.16926115  0.83584982  0.83416946  1
  Fe  Fe36  1  0.50175647  0.16973792  0.50081794  1
  Ni  Ni37  1  0.33298050  0.00279724  0.66705723  1
  Fe  Fe38  1  0.50139942  0.16875299  0.83535953  1
  Ni  Ni39  1  0.50066879  0.49978023  0.50185008  1
  Ni  Ni40  1  0.33492709  0.33464020  0.66805701  1
  Fe  Fe41  1  0.50151337  0.49939027  0.83465636  1
  Cr  Cr42  1  0.50006593  0.83312405  0.50156195  1
  Ni  Ni43  1  0.33249930  0.66641986  0.66821018  1
  Cr  Cr44  1  0.49976625  0.83346439  0.83404305  1
  Ni  Ni45  1  0.83404743  0.16910073  0.50265519  1
  Ni  Ni46  1  0.66772989  0.00549848  0.66823006  1
  Ni  Ni47  1  0.83590275  0.17086021  0.83477993  1
  Ni  Ni48  1  0.83352620  0.49910320  0.50219022  1
  Ni  Ni49  1  0.66757804  0.33413418  0.66742300  1
  Ni  Ni50  1  0.83390010  0.49851589  0.83373476  1
  Cr  Cr51  1  0.83531999  0.83411608  0.50295229  1
  Ni  Ni52  1  0.66741889  0.66410558  0.66746332  1
  Cr  Cr53  1  0.83543994  0.83397873  0.83340437  1
" 