5997,Ni77Fe4Cr17_11,-232.013023028458, 159.582806128854,Ni77Fe4Cr17,"# generated using pymatgen
 data_Cr11Fe2Ni41
_symmetry_space_group_name_H-M   'P 1'
_cell_length_a   7.46906122
_cell_length_b   7.46906122
_cell_length_c   10.56284767
_cell_angle_alpha   90.00000000
_cell_angle_beta   90.00000000
_cell_angle_gamma   90.00000000
_symmetry_Int_Tables_number   1
_chemical_formula_structural   Cr11Fe2Ni41
_chemical_formula_sum   'Cr11 Fe2 Ni41'
_cell_volume   589.26826805
_cell_formula_units_Z   1
loop_
 _symmetry_equiv_pos_site_id
 _symmetry_equiv_pos_as_xyz
  1  'x, y, z'
loop_
 _atom_site_type_symbol
 _atom_site_label
 _atom_site_symmetry_multiplicity
 _atom_site_fract_x
 _atom_site_fract_y
 _atom_site_fract_z
 _atom_site_occupancy
  Ni  Ni0  1  0.00141186  0.99846663  0.99945325  1
  Ni  Ni1  1  0.16626625  0.16563057  0.16653392  1
  Ni  Ni2  1  0.00209902  0.99952921  0.33413949  1
  Ni  Ni3  1  0.00016147  0.33243326  0.99856460  1
  Cr  Cr4  1  0.16526370  0.49870761  0.16559272  1
  Ni  Ni5  1  0.00033731  0.33283653  0.33575532  1
  Ni  Ni6  1  0.99801389  0.66882502  0.00001448  1
  Ni  Ni7  1  0.16689226  0.83495917  0.16512087  1
  Cr  Cr8  1  0.99820959  0.66887110  0.33327227  1
  Ni  Ni9  1  0.32976587  0.99878432  0.00071726  1
  Cr  Cr10  1  0.49884143  0.16472307  0.16752667  1
  Ni  Ni11  1  0.33062896  0.99866156  0.33306573  1
  Ni  Ni12  1  0.33177021  0.33328629  0.99950837  1
  Ni  Ni13  1  0.49969096  0.50258274  0.16732592  1
  Ni  Ni14  1  0.33252488  0.33321724  0.33410505  1
  Ni  Ni15  1  0.33375893  0.66797181  0.00137966  1
  Ni  Ni16  1  0.50039511  0.83186897  0.16696516  1
  Fe  Fe17  1  0.33395537  0.66764938  0.33369342  1
  Ni  Ni18  1  0.66865892  0.99653461  0.99952894  1
  Cr  Cr19  1  0.83610214  0.16571581  0.16918884  1
  Ni  Ni20  1  0.66759558  0.99623394  0.33465548  1
  Cr  Cr21  1  0.66741575  0.33652780  0.99939917  1
  Ni  Ni22  1  0.83255845  0.50164750  0.16647727  1
  Ni  Ni23  1  0.66696493  0.33692974  0.33398196  1
  Ni  Ni24  1  0.66764701  0.66700136  0.00052384  1
  Ni  Ni25  1  0.83232502  0.83272043  0.16538503  1
  Ni  Ni26  1  0.66605906  0.66604439  0.33310305  1
  Ni  Ni27  1  0.16420305  0.16762563  0.49880402  1
  Ni  Ni28  1  0.99919723  0.99855366  0.66612758  1
  Ni  Ni29  1  0.16340499  0.16672788  0.83451403  1
  Ni  Ni30  1  0.16666424  0.49949369  0.50101893  1
  Fe  Fe31  1  -0.00010576  0.33282060  0.66581242  1
  Cr  Cr32  1  0.16635431  0.50250090  0.83267586  1
  Ni  Ni33  1  0.16613243  0.83245496  0.49999504  1
  Ni  Ni34  1  0.99887610  0.66878456  0.66576785  1
  Ni  Ni35  1  0.16402865  0.83323683  0.83412549  1
  Cr  Cr36  1  0.50149815  0.16482676  0.49780112  1
  Cr  Cr37  1  0.32887023  0.99952789  0.66575149  1
  Cr  Cr38  1  0.49931150  0.16520311  0.83472810  1
  Ni  Ni39  1  0.49880437  0.50224545  0.49906079  1
  Ni  Ni40  1  0.33153876  0.33510710  0.66613274  1
  Ni  Ni41  1  0.49899861  0.50221224  0.83326014  1
  Ni  Ni42  1  0.50109855  0.83036075  0.49904302  1
  Ni  Ni43  1  0.33254295  0.66516349  0.66355444  1
  Cr  Cr44  1  0.50073812  0.83081120  0.83251677  1
  Ni  Ni45  1  0.83602424  0.16522318  0.49869503  1
  Ni  Ni46  1  0.67122318  0.99743257  0.66538734  1
  Ni  Ni47  1  0.83668492  0.16405147  0.83276790  1
  Ni  Ni48  1  0.83398437  0.50037027  0.49971671  1
  Cr  Cr49  1  0.66693997  0.33486636  0.66723183  1
  Ni  Ni50  1  0.83432105  0.50227121  0.83361440  1
  Ni  Ni51  1  0.83274887  0.83365071  0.50083133  1
  Ni  Ni52  1  0.66843466  0.66590384  0.66571377  1
  Ni  Ni53  1  0.83488930  0.83293464  0.83309510  1
" 