7155,Ni77Fe18Cr4_15,-239.372783324713, 197.083231098223,Ni77Fe18Cr4,"# generated using pymatgen
 data_Cr4Fe9Ni41
_symmetry_space_group_name_H-M   'P 1'
_cell_length_a   7.43734608
_cell_length_b   7.43734608
_cell_length_c   10.51799569
_cell_angle_alpha   90.00000000
_cell_angle_beta   90.00000000
_cell_angle_gamma   90.00000000
_symmetry_Int_Tables_number   1
_chemical_formula_structural   Cr4Fe9Ni41
_chemical_formula_sum   'Cr4 Fe9 Ni41'
_cell_volume   581.79364109
_cell_formula_units_Z   1
loop_
 _symmetry_equiv_pos_site_id
 _symmetry_equiv_pos_as_xyz
  1  'x, y, z'
loop_
 _atom_site_type_symbol
 _atom_site_label
 _atom_site_symmetry_multiplicity
 _atom_site_fract_x
 _atom_site_fract_y
 _atom_site_fract_z
 _atom_site_occupancy
  Ni  Ni0  1  1.00196757  1.00087574  0.00256423  1
  Ni  Ni1  1  0.17001098  0.16703539  0.16898025  1
  Ni  Ni2  1  1.00122740  0.00227265  0.33509102  1
  Cr  Cr3  1  0.00261556  0.33481286  1.00190831  1
  Ni  Ni4  1  0.17131854  0.50255914  0.16767166  1
  Cr  Cr5  1  0.00261659  0.33373807  0.33603506  1
  Fe  Fe6  1  0.00286476  0.67035656  1.00172163  1
  Ni  Ni7  1  0.16949842  0.83639722  0.16752671  1
  Cr  Cr8  1  1.00186566  0.66986157  0.33468134  1
  Ni  Ni9  1  0.33429375  0.00260504  0.00302930  1
  Ni  Ni10  1  0.50170378  0.16881464  0.16805909  1
  Ni  Ni11  1  0.33625600  0.00208456  0.33523246  1
  Ni  Ni12  1  0.33662110  0.33545938  0.00216418  1
  Ni  Ni13  1  0.50170383  0.50208394  0.16869913  1
  Ni  Ni14  1  0.33683616  0.33540306  0.33484146  1
  Ni  Ni15  1  0.33614034  0.66792814  0.00268165  1
  Ni  Ni16  1  0.50174622  0.83509215  0.16909977  1
  Ni  Ni17  1  0.33752499  0.66850276  0.33548117  1
  Fe  Fe18  1  0.66898429  0.00231405  0.00355460  1
  Ni  Ni19  1  0.83427147  0.16699396  0.16897931  1
  Ni  Ni20  1  0.66850643  1.00158237  0.33528396  1
  Fe  Fe21  1  0.66676454  0.33558673  1.00178827  1
  Ni  Ni22  1  0.83296495  0.50259897  0.16767201  1
  Fe  Fe23  1  0.66675788  0.33449370  0.33569815  1
  Ni  Ni24  1  0.66888290  0.66817859  0.00332610  1
  Ni  Ni25  1  0.83474609  0.83639811  0.16752375  1
  Fe  Fe26  1  0.66669267  0.66944999  0.33528281  1
  Ni  Ni27  1  0.16907847  0.16793110  0.50240681  1
  Ni  Ni28  1  1.00181548  1.00180377  0.66833452  1
  Ni  Ni29  1  0.16863930  0.16813560  0.83460389  1
  Ni  Ni30  1  0.17033218  0.50174895  0.50375875  1
  Ni  Ni31  1  0.00206409  0.33515951  0.66834836  1
  Ni  Ni32  1  0.16967809  0.50211114  0.83456070  1
  Ni  Ni33  1  0.16947048  0.83630950  0.50280545  1
  Ni  Ni34  1  1.00081604  0.66902777  0.66968460  1
  Ni  Ni35  1  0.16711665  0.83574481  0.83565905  1
  Ni  Ni36  1  0.50191491  0.16874985  0.50231947  1
  Fe  Fe37  1  0.33384240  0.00307631  0.66763580  1
  Fe  Fe38  1  0.50148212  0.17088622  0.83534720  1
  Ni  Ni39  1  0.50191437  0.50218695  0.50172328  1
  Ni  Ni40  1  0.33549685  0.33526075  0.66898308  1
  Ni  Ni41  1  0.50196517  0.50068219  0.83556878  1
  Ni  Ni42  1  0.50195980  0.83505365  0.50147281  1
  Fe  Fe43  1  0.33403831  0.66692068  0.66779796  1
  Cr  Cr44  1  0.50178944  0.83455331  0.83522436  1
  Ni  Ni45  1  0.83499647  0.16788848  0.50254094  1
  Fe  Fe46  1  0.67063277  0.00309498  0.66710158  1
  Ni  Ni47  1  0.83547943  0.16813773  0.83447148  1
  Ni  Ni48  1  0.83374067  0.50179202  0.50388976  1
  Ni  Ni49  1  0.66842785  0.33626019  0.66898382  1
  Ni  Ni50  1  0.83434734  0.50220553  0.83443026  1
  Ni  Ni51  1  0.83455845  0.83631038  0.50293736  1
  Ni  Ni52  1  0.66993834  0.66766585  0.66713044  1
  Ni  Ni53  1  0.83690792  0.83564974  0.83552838  1
" 