5676,Ni77Fe12Cr9_16,-237.000316831288, 184.661255345617,Ni77Fe12Cr9,"# generated using pymatgen
 data_CrFeNi7
_symmetry_space_group_name_H-M   'P 1'
_cell_length_a   7.44736626
_cell_length_b   7.44736626
_cell_length_c   10.53216637
_cell_angle_alpha   90.00000000
_cell_angle_beta   90.00000000
_cell_angle_gamma   90.00000000
_symmetry_Int_Tables_number   1
_chemical_formula_structural   CrFeNi7
_chemical_formula_sum   'Cr6 Fe6 Ni42'
_cell_volume   584.14832613
_cell_formula_units_Z   6
loop_
 _symmetry_equiv_pos_site_id
 _symmetry_equiv_pos_as_xyz
  1  'x, y, z'
loop_
 _atom_site_type_symbol
 _atom_site_label
 _atom_site_symmetry_multiplicity
 _atom_site_fract_x
 _atom_site_fract_y
 _atom_site_fract_z
 _atom_site_occupancy
  Ni  Ni0  1  1.00018914  1.00128512  0.00215608  1
  Ni  Ni1  1  0.16739559  0.16635133  0.16851301  1
  Ni  Ni2  1  0.00194389  0.00152752  0.33374754  1
  Ni  Ni3  1  1.00113898  0.33533371  0.00177485  1
  Fe  Fe4  1  0.16569242  0.50247463  0.16841387  1
  Fe  Fe5  1  1.00126327  0.33465423  0.33459382  1
  Ni  Ni6  1  1.00108519  0.66734722  0.00223861  1
  Ni  Ni7  1  0.16773441  0.83608506  0.16794802  1
  Ni  Ni8  1  0.00207032  0.66757428  0.33363345  1
  Ni  Ni9  1  0.33568839  0.99999502  0.00262773  1
  Ni  Ni10  1  0.50081209  0.16506811  0.16900181  1
  Ni  Ni11  1  0.33398965  1.00077238  0.33338372  1
  Cr  Cr12  1  0.33283462  0.33431741  1.00033445  1
  Cr  Cr13  1  0.50211308  0.50235561  0.16993542  1
  Ni  Ni14  1  0.33423878  0.33479945  0.33439174  1
  Ni  Ni15  1  0.33377963  0.66964934  0.00146556  1
  Ni  Ni16  1  0.50123546  0.83660319  0.16787698  1
  Ni  Ni17  1  0.33380050  0.66839394  0.33574119  1
  Ni  Ni18  1  0.66808693  0.99993945  0.00171656  1
  Ni  Ni19  1  0.83575700  0.16736473  0.16892163  1
  Ni  Ni20  1  0.66803069  0.00196628  0.33251945  1
  Cr  Cr21  1  0.66986693  0.33334239  1.00044848  1
  Ni  Ni22  1  0.83628002  0.50195507  0.16855252  1
  Ni  Ni23  1  0.66885131  0.33467323  0.33475351  1
  Fe  Fe24  1  0.66912352  0.67083040  1.00036377  1
  Ni  Ni25  1  0.83499361  0.83464577  0.16728870  1
  Ni  Ni26  1  0.66809327  0.66732578  0.33418939  1
  Ni  Ni27  1  0.16720234  0.16780348  0.50156797  1
  Ni  Ni28  1  1.00128659  0.00275720  0.66806043  1
  Ni  Ni29  1  0.16747701  0.16906196  0.83388381  1
  Ni  Ni30  1  0.16789990  0.50080932  0.50141551  1
  Ni  Ni31  1  1.00129005  0.33483924  0.66798377  1
  Ni  Ni32  1  0.16723132  0.49914583  0.83442473  1
  Ni  Ni33  1  0.16917506  0.83535141  0.50163238  1
  Ni  Ni34  1  0.00141551  0.66636889  0.66809159  1
  Cr  Cr35  1  0.16752652  0.83572899  0.83407733  1
  Cr  Cr36  1  0.50050654  0.16823693  0.50107529  1
  Ni  Ni37  1  0.33461934  1.00122281  0.66795074  1
  Fe  Fe38  1  0.50119481  0.16662927  0.83329933  1
  Ni  Ni39  1  0.50181007  0.50233034  0.50173595  1
  Ni  Ni40  1  0.33403344  0.33578976  0.66926223  1
  Ni  Ni41  1  0.50206012  0.50245379  0.83236152  1
  Ni  Ni42  1  0.49985925  0.83315379  0.50128517  1
  Ni  Ni43  1  0.33544022  0.66695034  0.66675667  1
  Ni  Ni44  1  0.50352663  0.83456235  0.83480156  1
  Fe  Fe45  1  0.83604646  0.16942516  0.50117506  1
  Ni  Ni46  1  0.66805846  0.00134628  0.66972873  1
  Fe  Fe47  1  0.83562023  0.16741568  0.83423146  1
  Ni  Ni48  1  0.83425439  0.50035680  0.50143700  1
  Ni  Ni49  1  0.66864232  0.33566321  0.66855190  1
  Ni  Ni50  1  0.83467153  0.50205198  0.83397443  1
  Cr  Cr51  1  0.83475002  0.83399513  0.50166720  1
  Ni  Ni52  1  0.66710902  0.66695571  0.66922344  1
  Ni  Ni53  1  0.83255775  0.83431728  0.83516656  1
" 