4897,Ni77Fe6Cr15_15,-233.845107003381, 165.745410217495,Ni77Fe6Cr15,"# generated using pymatgen
 data_Cr3FeNi14
_symmetry_space_group_name_H-M   'P 1'
_cell_length_a   7.46396385
_cell_length_b   7.46396385
_cell_length_c   10.55563890
_cell_angle_alpha   90.00000000
_cell_angle_beta   90.00000000
_cell_angle_gamma   90.00000000
_symmetry_Int_Tables_number   1
_chemical_formula_structural   Cr3FeNi14
_chemical_formula_sum   'Cr9 Fe3 Ni42'
_cell_volume   588.06262679
_cell_formula_units_Z   3
loop_
 _symmetry_equiv_pos_site_id
 _symmetry_equiv_pos_as_xyz
  1  'x, y, z'
loop_
 _atom_site_type_symbol
 _atom_site_label
 _atom_site_symmetry_multiplicity
 _atom_site_fract_x
 _atom_site_fract_y
 _atom_site_fract_z
 _atom_site_occupancy
  Ni  Ni0  1  0.00084333  0.00197610  0.99933760  1
  Ni  Ni1  1  0.16715846  0.16712514  0.16687293  1
  Ni  Ni2  1  0.00059984  0.00341523  0.33466077  1
  Ni  Ni3  1  0.99997306  0.33323322  0.99907104  1
  Ni  Ni4  1  0.16856835  0.49903669  0.16603254  1
  Ni  Ni5  1  0.00063878  0.33203917  0.33467552  1
  Fe  Fe6  1  0.00114587  0.66583317  0.99870568  1
  Ni  Ni7  1  0.16990716  0.83445884  0.16605663  1
  Cr  Cr8  1  0.00080390  0.66606551  0.33425106  1
  Ni  Ni9  1  0.33251006  0.99900466  0.00050323  1
  Ni  Ni10  1  0.49995146  0.16741517  0.16690200  1
  Ni  Ni11  1  0.33407623  0.00057117  0.33417792  1
  Ni  Ni12  1  0.33157030  0.33439376  0.00158629  1
  Ni  Ni13  1  0.49995246  0.50015718  0.16678319  1
  Ni  Ni14  1  0.33222764  0.33307296  0.33284515  1
  Ni  Ni15  1  0.33367187  0.66722121  0.00090487  1
  Ni  Ni16  1  0.49832889  0.83304675  0.16687320  1
  Ni  Ni17  1  0.33511236  0.66697615  0.33309432  1
  Ni  Ni18  1  0.66726709  0.99987425  0.99912766  1
  Ni  Ni19  1  0.83350976  0.16875083  0.16678245  1
  Ni  Ni20  1  0.66594471  0.00052955  0.33530158  1
  Ni  Ni21  1  0.66907636  0.33439390  0.00233770  1
  Ni  Ni22  1  0.83209852  0.49741146  0.16594245  1
  Fe  Fe23  1  0.66753122  0.33231229  0.33236059  1
  Ni  Ni24  1  0.66610581  0.66635142  0.99952933  1
  Cr  Cr25  1  0.83323688  0.83478427  0.16614303  1
  Ni  Ni26  1  0.66490942  0.66701521  0.33421800  1
  Ni  Ni27  1  0.16621944  0.16598193  0.49975623  1
  Ni  Ni28  1  0.99997385  0.99977537  0.66662082  1
  Ni  Ni29  1  0.16436632  0.16599954  0.83399072  1
  Ni  Ni30  1  0.16447757  0.49946827  0.50000433  1
  Fe  Fe31  1  1.00015824  0.33302778  0.66687307  1
  Ni  Ni32  1  0.16351316  0.50041232  0.83458357  1
  Ni  Ni33  1  0.16686659  0.83516864  0.50056021  1
  Ni  Ni34  1  0.99997353  0.66709981  0.66726107  1
  Ni  Ni35  1  0.16590583  0.83420739  0.83400246  1
  Ni  Ni36  1  0.50015679  0.16330743  0.49910605  1
  Ni  Ni37  1  0.33235174  0.99974338  0.66593814  1
  Cr  Cr38  1  0.50002623  0.16389100  0.83465726  1
  Cr  Cr39  1  0.49984245  0.50042541  0.49684267  1
  Cr  Cr40  1  0.32999444  0.33125941  0.66655034  1
  Cr  Cr41  1  0.50002650  0.50143318  0.83687296  1
  Ni  Ni42  1  0.50044332  0.83690858  0.49899319  1
  Cr  Cr43  1  0.33049703  0.66957745  0.66649078  1
  Ni  Ni44  1  0.50046185  0.83505902  0.83475348  1
  Ni  Ni45  1  0.83424350  0.16569599  0.49965380  1
  Ni  Ni46  1  0.66829406  0.99948998  0.66619038  1
  Ni  Ni47  1  0.83598161  0.16580863  0.83418372  1
  Ni  Ni48  1  0.83598369  0.49975420  0.49990179  1
  Cr  Cr49  1  0.67020101  0.33126016  0.66605617  1
  Ni  Ni50  1  0.83683485  0.50060352  0.83477666  1
  Ni  Ni51  1  0.83330985  0.83516727  0.50098264  1
  Cr  Cr52  1  0.67007965  0.66995701  0.66687153  1
  Ni  Ni53  1  0.83425227  0.83420722  0.83360437  1
" 