8844,Ni77Fe12Cr9_14,-237.003345920322, 180.791929958044,Ni77Fe12Cr9,"# generated using pymatgen
 data_CrFeNi7
_symmetry_space_group_name_H-M   'P 1'
_cell_length_a   7.44946231
_cell_length_b   7.44946231
_cell_length_c   10.53513064
_cell_angle_alpha   90.00000000
_cell_angle_beta   90.00000000
_cell_angle_gamma   90.00000000
_symmetry_Int_Tables_number   1
_chemical_formula_structural   CrFeNi7
_chemical_formula_sum   'Cr6 Fe6 Ni42'
_cell_volume   584.64168888
_cell_formula_units_Z   6
loop_
 _symmetry_equiv_pos_site_id
 _symmetry_equiv_pos_as_xyz
  1  'x, y, z'
loop_
 _atom_site_type_symbol
 _atom_site_label
 _atom_site_symmetry_multiplicity
 _atom_site_fract_x
 _atom_site_fract_y
 _atom_site_fract_z
 _atom_site_occupancy
  Ni  Ni0  1  0.00248387  0.99928970  1.00085744  1
  Ni  Ni1  1  0.16801720  0.16629019  0.16780768  1
  Ni  Ni2  1  0.00170243  1.00098393  0.33476410  1
  Cr  Cr3  1  0.00360215  0.33481876  1.00097265  1
  Ni  Ni4  1  0.17268340  0.50187172  0.16694112  1
  Cr  Cr5  1  0.00342684  0.33355447  0.33506163  1
  Ni  Ni6  1  0.00278780  0.66984597  1.00100421  1
  Ni  Ni7  1  0.16845165  0.83543220  0.16704070  1
  Cr  Cr8  1  0.00197643  0.66963529  0.33499505  1
  Fe  Fe9  1  0.33282303  1.00105625  1.00066180  1
  Fe  Fe10  1  0.49893017  0.16701310  0.16952364  1
  Ni  Ni11  1  0.33459796  1.00110163  0.33405593  1
  Ni  Ni12  1  0.33418812  0.33416871  0.00143478  1
  Ni  Ni13  1  0.49875503  0.50137742  0.16971769  1
  Ni  Ni14  1  0.33567681  0.33434704  0.33436274  1
  Fe  Fe15  1  0.33346850  0.66758093  0.00169145  1
  Ni  Ni16  1  0.49983839  0.83280474  0.16981188  1
  Ni  Ni17  1  0.33603205  0.66796101  0.33502280  1
  Cr  Cr18  1  0.66689973  1.00027043  1.00006832  1
  Ni  Ni19  1  0.83480716  0.16510751  0.16968616  1
  Ni  Ni20  1  0.66697383  1.00038125  0.33453080  1
  Cr  Cr21  1  0.66494009  0.33422128  1.00047462  1
  Fe  Fe22  1  0.83448032  0.50267753  0.16867687  1
  Ni  Ni23  1  0.66560855  0.33457543  0.33431408  1
  Cr  Cr24  1  0.66838597  0.66913292  0.00118235  1
  Ni  Ni25  1  0.83501785  0.83744161  0.16880308  1
  Ni  Ni26  1  0.66596925  0.66861011  0.33416504  1
  Ni  Ni27  1  0.16851195  0.16680605  0.50160013  1
  Ni  Ni28  1  0.00186812  1.00076139  0.66796481  1
  Ni  Ni29  1  0.16826232  0.16715069  0.83433282  1
  Ni  Ni30  1  0.17023877  0.50095886  0.50271330  1
  Ni  Ni31  1  0.00347688  0.33528956  0.66838575  1
  Ni  Ni32  1  0.16932049  0.50214717  0.83427547  1
  Ni  Ni33  1  0.16868223  0.83599913  0.50135728  1
  Ni  Ni34  1  1.00004373  0.66747168  0.66841207  1
  Ni  Ni35  1  0.16741614  0.83439200  0.83533735  1
  Ni  Ni36  1  0.50133096  0.16794487  0.49995160  1
  Ni  Ni37  1  0.33534104  0.00277881  0.66856232  1
  Ni  Ni38  1  0.49938018  0.16838019  0.83390892  1
  Ni  Ni39  1  0.50115540  0.50129193  0.50102378  1
  Ni  Ni40  1  0.33395957  0.33361555  0.66787315  1
  Ni  Ni41  1  0.49899821  0.50131203  0.83258949  1
  Ni  Ni42  1  0.50150579  0.83433413  0.50061925  1
  Fe  Fe43  1  0.33357962  0.66931175  0.66694498  1
  Ni  Ni44  1  0.49931461  0.83379603  0.83305632  1
  Ni  Ni45  1  0.83379818  0.16652647  0.50200008  1
  Ni  Ni46  1  0.66632761  0.99933550  0.66834697  1
  Ni  Ni47  1  0.83569673  0.16662482  0.83173324  1
  Ni  Ni48  1  0.83214255  0.50092364  0.50191031  1
  Fe  Fe49  1  0.66811588  0.33349443  0.66731358  1
  Ni  Ni50  1  0.83505791  0.50192034  0.83302051  1
  Ni  Ni51  1  0.83331542  0.83593355  0.50153589  1
  Ni  Ni52  1  0.66808318  0.66882378  0.66809955  1
  Ni  Ni53  1  0.83628849  0.83486106  0.83323905  1
" 