7120,Ni77Cr23_18,-208.686416607802, 158.016210711651,Ni77Cr23,"# generated using pymatgen
 data_Cr41Ni13
_symmetry_space_group_name_H-M   'P 1'
_cell_length_a   7.57092020
_cell_length_b   7.57092020
_cell_length_c   10.70689802
_cell_angle_alpha   90.00000000
_cell_angle_beta   90.00000000
_cell_angle_gamma   90.00000000
_symmetry_Int_Tables_number   1
_chemical_formula_structural   Cr41Ni13
_chemical_formula_sum   'Cr41 Ni13'
_cell_volume   613.70689567
_cell_formula_units_Z   1
loop_
 _symmetry_equiv_pos_site_id
 _symmetry_equiv_pos_as_xyz
  1  'x, y, z'
loop_
 _atom_site_type_symbol
 _atom_site_label
 _atom_site_symmetry_multiplicity
 _atom_site_fract_x
 _atom_site_fract_y
 _atom_site_fract_z
 _atom_site_occupancy
  Cr  Cr0  1  0.99281345  -0.00458157  0.99277188  1
  Ni  Ni1  1  0.16085130  0.15927934  0.16033495  1
  Cr  Cr2  1  0.99313721  0.99199357  0.32585178  1
  Cr  Cr3  1  -0.00604411  0.32487357  0.99245497  1
  Cr  Cr4  1  0.15973445  0.49302714  0.16015230  1
  Cr  Cr5  1  -0.00571787  0.32674488  0.32467432  1
  Cr  Cr6  1  -0.00604564  0.65912835  -0.00684438  1
  Cr  Cr7  1  0.15974650  0.82782509  0.16132916  1
  Ni  Ni8  1  0.99208623  0.66104016  0.32719209  1
  Cr  Cr9  1  0.32624201  0.99258343  -0.00626519  1
  Cr  Cr10  1  0.49164920  0.15968522  0.16146285  1
  Ni  Ni11  1  0.32896599  -0.00597666  0.32700912  1
  Cr  Cr12  1  0.32510182  0.32771247  -0.00548649  1
  Ni  Ni13  1  0.49294717  0.49262893  0.15946828  1
  Cr  Cr14  1  0.32752577  0.32509949  0.32637020  1
  Cr  Cr15  1  0.32794188  0.65912456  0.99133375  1
  Cr  Cr16  1  0.49277598  0.82728747  0.15964478  1
  Cr  Cr17  1  0.32755206  0.66008229  0.32717723  1
  Cr  Cr18  1  0.66036647  0.99257816  0.99111916  1
  Cr  Cr19  1  0.82632117  0.15968891  0.15925923  1
  Ni  Ni20  1  0.65731370  0.99191150  0.32912512  1
  Cr  Cr21  1  0.66036009  0.32657382  -0.00662825  1
  Cr  Cr22  1  0.82578921  0.49414783  0.16052313  1
  Cr  Cr23  1  0.65760924  0.32623256  0.32717968  1
  Cr  Cr24  1  0.65752298  0.66026833  -0.00685814  1
  Cr  Cr25  1  0.82690014  0.82558373  0.16169794  1
  Cr  Cr26  1  0.65986055  0.66122086  0.32797849  1
  Cr  Cr27  1  0.16211221  0.15814904  0.49310148  1
  Ni  Ni28  1  0.99119458  -0.00651850  0.66032400  1
  Cr  Cr29  1  0.15801713  0.16012019  0.82557138  1
  Cr  Cr30  1  0.15986137  0.49431791  0.49348338  1
  Cr  Cr31  1  -0.00652948  0.32452213  0.66229317  1
  Ni  Ni32  1  0.15954230  0.49321539  0.82675654  1
  Cr  Cr33  1  0.15873823  0.82695123  0.49232930  1
  Cr  Cr34  1  -0.00653162  0.66109496  0.65931374  1
  Cr  Cr35  1  0.16081280  0.82559626  0.82576275  1
  Ni  Ni36  1  0.49340731  0.15794574  0.49110463  1
  Cr  Cr37  1  0.32718799  0.99209537  0.65906346  1
  Cr  Cr38  1  0.49482495  0.15844830  0.82653311  1
  Ni  Ni39  1  0.49348119  0.49315683  0.49313620  1
  Cr  Cr40  1  0.32658546  0.32790876  0.65853948  1
  Cr  Cr41  1  0.49201443  0.49425897  0.82713134  1
  Ni  Ni42  1  0.49518239  0.82831648  0.49162289  1
  Cr  Cr43  1  0.32828479  0.65941481  0.66090918  1
  Ni  Ni44  1  0.49306458  0.82638335  0.82671817  1
  Cr  Cr45  1  0.82436532  0.15759742  0.49439842  1
  Cr  Cr46  1  0.66104378  0.99210168  0.65940709  1
  Ni  Ni47  1  0.82764156  0.15899230  0.82584831  1
  Cr  Cr48  1  0.82605405  0.49543576  0.49199465  1
  Cr  Cr49  1  0.65936420  0.32562681  0.65886869  1
  Cr  Cr50  1  0.82769934  0.49145846  0.82690165  1
  Ni  Ni51  1  0.82514251  0.82711506  0.49217441  1
  Cr  Cr52  1  0.65766437  0.66169371  0.65829409  1
  Cr  Cr53  1  0.82602887  0.82839969  0.82595209  1
" 