7075,Ni77Fe2Cr20_9,-230.735808623046, 148.421448853491,Ni77Fe2Cr20,"# generated using pymatgen
 data_Cr12FeNi41
_symmetry_space_group_name_H-M   'P 1'
_cell_length_a   7.47607543
_cell_length_b   7.47607543
_cell_length_c   10.57276727
_cell_angle_alpha   90.00000000
_cell_angle_beta   90.00000000
_cell_angle_gamma   90.00000000
_symmetry_Int_Tables_number   1
_chemical_formula_structural   Cr12FeNi41
_chemical_formula_sum   'Cr12 Fe1 Ni41'
_cell_volume   590.92997768
_cell_formula_units_Z   1
loop_
 _symmetry_equiv_pos_site_id
 _symmetry_equiv_pos_as_xyz
  1  'x, y, z'
loop_
 _atom_site_type_symbol
 _atom_site_label
 _atom_site_symmetry_multiplicity
 _atom_site_fract_x
 _atom_site_fract_y
 _atom_site_fract_z
 _atom_site_occupancy
  Ni  Ni0  1  0.99889117  0.00140479  0.99892076  1
  Ni  Ni1  1  0.16236261  0.16495516  0.16603973  1
  Ni  Ni2  1  0.00076527  -0.00055916  0.33279014  1
  Ni  Ni3  1  0.00024245  0.33027478  0.00037643  1
  Fe  Fe4  1  0.16567198  0.49977887  0.16600568  1
  Ni  Ni5  1  0.99751464  0.33271680  0.33286402  1
  Cr  Cr6  1  0.00080473  0.66712935  -0.00011702  1
  Ni  Ni7  1  0.16602502  0.83370702  0.16804119  1
  Ni  Ni8  1  0.99928529  0.66602447  0.33306963  1
  Cr  Cr9  1  0.33126364  0.99827466  0.99928916  1
  Cr  Cr10  1  0.49881919  0.16806458  0.16632588  1
  Ni  Ni11  1  0.32935422  0.99579725  0.33299761  1
  Ni  Ni12  1  0.33192523  0.33543813  0.99760993  1
  Ni  Ni13  1  0.50142285  0.50215310  0.16473732  1
  Cr  Cr14  1  0.33095472  0.33438009  0.33309521  1
  Ni  Ni15  1  0.33454927  0.66381494  0.99926228  1
  Ni  Ni16  1  0.49780675  0.82749636  0.16719009  1
  Ni  Ni17  1  0.33273314  0.66793248  0.33267336  1
  Cr  Cr18  1  0.66824927  0.99827012  0.99836740  1
  Ni  Ni19  1  0.83693105  0.16853085  0.16582133  1
  Cr  Cr20  1  0.66697515  0.99790367  0.33238474  1
  Ni  Ni21  1  0.66606106  0.33411358  -0.00048296  1
  Ni  Ni22  1  0.83084131  0.49850036  0.16734554  1
  Ni  Ni23  1  0.66977777  0.33601457  0.33277238  1
  Ni  Ni24  1  0.66356406  0.66518003  0.00000639  1
  Ni  Ni25  1  0.83430344  0.83117337  0.16652025  1
  Ni  Ni26  1  0.66616418  0.66462644  0.33298568  1
  Ni  Ni27  1  0.16413134  0.16401441  0.49967156  1
  Ni  Ni28  1  0.00099596  0.99929394  0.66649466  1
  Ni  Ni29  1  0.16617801  0.16561705  0.83251476  1
  Ni  Ni30  1  0.16675033  0.50028938  0.49834816  1
  Cr  Cr31  1  0.00208655  0.33131421  0.66473465  1
  Ni  Ni32  1  0.17082409  0.49830806  0.83416146  1
  Ni  Ni33  1  0.16677614  0.83388062  0.49856553  1
  Cr  Cr34  1  0.00035125  0.66778408  0.66515814  1
  Ni  Ni35  1  0.16701525  0.83426707  0.83164740  1
  Cr  Cr36  1  0.49706157  0.16605630  0.49915027  1
  Ni  Ni37  1  0.33060550  0.99848841  0.66655347  1
  Ni  Ni38  1  0.49716700  0.16814192  0.83277132  1
  Ni  Ni39  1  0.49993846  0.50290186  0.49983607  1
  Ni  Ni40  1  0.33182463  0.33369207  0.66755827  1
  Ni  Ni41  1  0.49697202  0.50018248  0.83355024  1
  Ni  Ni42  1  0.49733568  0.82875505  0.49917614  1
  Ni  Ni43  1  0.33433579  0.66598522  0.66628212  1
  Ni  Ni44  1  0.49820505  0.82985092  0.83187788  1
  Ni  Ni45  1  0.83668341  0.16656444  0.49729364  1
  Cr  Cr46  1  0.66710195  0.99715704  0.66745334  1
  Ni  Ni47  1  0.83487708  0.16440488  0.83500381  1
  Ni  Ni48  1  0.83150617  0.50036565  0.49627679  1
  Cr  Cr49  1  0.66460967  0.33370525  0.66527872  1
  Cr  Cr50  1  0.83071443  0.49988666  0.83431658  1
  Ni  Ni51  1  0.83400485  0.83131257  0.49889345  1
  Ni  Ni52  1  0.66312671  0.66754714  0.66516958  1
  Ni  Ni53  1  0.83295747  0.83453250  0.83276570  1
" 