94,Ni77Fe12Cr9_8,-237.222867280711, 186.562685632445,Ni77Fe12Cr9,"# generated using pymatgen
 data_CrFeNi7
_symmetry_space_group_name_H-M   'P 1'
_cell_length_a   7.44747185
_cell_length_b   7.44747185
_cell_length_c   10.53231569
_cell_angle_alpha   90.00000000
_cell_angle_beta   90.00000000
_cell_angle_gamma   90.00000000
_symmetry_Int_Tables_number   1
_chemical_formula_structural   CrFeNi7
_chemical_formula_sum   'Cr6 Fe6 Ni42'
_cell_volume   584.17317168
_cell_formula_units_Z   6
loop_
 _symmetry_equiv_pos_site_id
 _symmetry_equiv_pos_as_xyz
  1  'x, y, z'
loop_
 _atom_site_type_symbol
 _atom_site_label
 _atom_site_symmetry_multiplicity
 _atom_site_fract_x
 _atom_site_fract_y
 _atom_site_fract_z
 _atom_site_occupancy
  Ni  Ni0  1  0.00328872  1.00074372  0.00225851  1
  Ni  Ni1  1  0.16695565  0.16655908  0.16867392  1
  Ni  Ni2  1  0.00143682  0.00143088  0.33317462  1
  Ni  Ni3  1  1.00030035  0.33461837  1.00116979  1
  Ni  Ni4  1  0.16837882  0.50219594  0.16891048  1
  Ni  Ni5  1  0.00313588  0.33444631  0.33540574  1
  Ni  Ni6  1  0.00148332  0.66858068  1.00099054  1
  Ni  Ni7  1  0.16816573  0.83518877  0.16731918  1
  Ni  Ni8  1  0.00135357  0.66806404  0.33462734  1
  Ni  Ni9  1  0.33325568  1.00016405  0.00147344  1
  Ni  Ni10  1  0.50059213  0.16680879  0.16839551  1
  Ni  Ni11  1  0.33541466  0.00186694  0.33346668  1
  Cr  Cr12  1  0.33538701  0.33393343  0.00187396  1
  Ni  Ni13  1  0.50019102  0.50297433  0.16737172  1
  Fe  Fe14  1  0.33201891  0.33423922  0.33495560  1
  Fe  Fe15  1  0.33438974  0.66934685  1.00096878  1
  Ni  Ni16  1  0.50016299  0.83416493  0.16882614  1
  Fe  Fe17  1  0.33423369  0.66735851  0.33412750  1
  Cr  Cr18  1  0.66739420  0.00186227  0.00204666  1
  Ni  Ni19  1  0.83639474  0.16659030  0.16766834  1
  Fe  Fe20  1  0.66896081  1.00010584  0.33500379  1
  Ni  Ni21  1  0.66822853  0.33616705  1.00068524  1
  Cr  Cr22  1  0.83547432  0.50118419  0.16625022  1
  Cr  Cr23  1  0.66720984  0.33407029  0.33492861  1
  Ni  Ni24  1  0.66765336  0.66642247  1.00120393  1
  Ni  Ni25  1  0.83561602  0.83558624  0.16863577  1
  Fe  Fe26  1  0.66805271  0.67056064  0.33551841  1
  Ni  Ni27  1  0.16759697  0.16988870  0.50162230  1
  Ni  Ni28  1  1.00096165  0.00174207  0.66851545  1
  Ni  Ni29  1  0.16669203  0.16659075  0.83364154  1
  Ni  Ni30  1  0.16734686  0.49936057  0.50150203  1
  Ni  Ni31  1  0.00316670  0.33502359  0.66736560  1
  Ni  Ni32  1  0.16644336  0.50242503  0.83352802  1
  Cr  Cr33  1  0.16797811  0.83497929  0.50206406  1
  Ni  Ni34  1  1.00066319  0.66717656  0.66832800  1
  Ni  Ni35  1  0.16868729  0.83492753  0.83520307  1
  Ni  Ni36  1  0.50012346  0.16636762  0.50171877  1
  Ni  Ni37  1  0.33577678  0.00210809  0.66900479  1
  Ni  Ni38  1  0.50097896  0.16677100  0.83382662  1
  Ni  Ni39  1  0.50037486  0.50288915  0.50159327  1
  Ni  Ni40  1  0.33345157  0.33453913  0.66658312  1
  Ni  Ni41  1  0.50225226  0.50327252  0.83497697  1
  Ni  Ni42  1  0.50340785  0.83468931  0.50153281  1
  Ni  Ni43  1  0.33558960  0.66729575  0.66881683  1
  Ni  Ni44  1  0.49982917  0.83390069  0.83357938  1
  Ni  Ni45  1  0.83622261  0.16686321  0.50119830  1
  Ni  Ni46  1  0.66720376  0.99960374  0.66672814  1
  Ni  Ni47  1  0.83627309  0.16901415  0.83507851  1
  Ni  Ni48  1  0.83621346  0.50263988  0.50159379  1
  Cr  Cr49  1  0.66747395  0.33476558  0.66875905  1
  Ni  Ni50  1  0.83524536  0.50127871  0.83570190  1
  Ni  Ni51  1  0.83269546  0.83444082  0.50171018  1
  Ni  Ni52  1  0.66769002  0.66949987  0.66709250  1
  Fe  Fe53  1  0.83550220  0.83368237  0.83377439  1
" 