6645,Ni77Fe6Cr15_11,-234.267170742166, 174.204995441143,Ni77Fe6Cr15,"# generated using pymatgen
 data_Cr3FeNi14
_symmetry_space_group_name_H-M   'P 1'
_cell_length_a   7.46094342
_cell_length_b   7.46094342
_cell_length_c   10.55136737
_cell_angle_alpha   90.00000000
_cell_angle_beta   90.00000000
_cell_angle_gamma   90.00000000
_symmetry_Int_Tables_number   1
_chemical_formula_structural   Cr3FeNi14
_chemical_formula_sum   'Cr9 Fe3 Ni42'
_cell_volume   587.34900408
_cell_formula_units_Z   3
loop_
 _symmetry_equiv_pos_site_id
 _symmetry_equiv_pos_as_xyz
  1  'x, y, z'
loop_
 _atom_site_type_symbol
 _atom_site_label
 _atom_site_symmetry_multiplicity
 _atom_site_fract_x
 _atom_site_fract_y
 _atom_site_fract_z
 _atom_site_occupancy
  Ni  Ni0  1  1.00035676  0.99995683  0.99917552  1
  Ni  Ni1  1  0.16813227  0.16641204  0.16698696  1
  Cr  Cr2  1  0.00116418  1.00016246  0.33409007  1
  Ni  Ni3  1  1.00020383  0.33411102  0.99889462  1
  Cr  Cr4  1  0.16768392  0.49972006  0.16587068  1
  Ni  Ni5  1  0.99855413  0.33484647  0.33449500  1
  Ni  Ni6  1  0.99979064  0.66708755  0.99920084  1
  Ni  Ni7  1  0.16889975  0.83455798  0.16625600  1
  Cr  Cr8  1  0.99994110  0.66514910  0.33532949  1
  Cr  Cr9  1  0.33454340  1.00015497  1.00023879  1
  Ni  Ni10  1  0.50033085  0.16736682  0.16808503  1
  Ni  Ni11  1  0.33675595  0.99890537  0.33284688  1
  Ni  Ni12  1  0.33377460  0.33340722  0.00053316  1
  Ni  Ni13  1  0.50268335  0.50134002  0.16707871  1
  Fe  Fe14  1  0.33648566  0.33404221  0.33289233  1
  Ni  Ni15  1  0.33356219  0.66730177  0.00054553  1
  Ni  Ni16  1  0.50083854  0.83251956  0.16814343  1
  Ni  Ni17  1  0.33636895  0.66899215  0.33470382  1
  Ni  Ni18  1  0.66713881  1.00003655  0.99960858  1
  Cr  Cr19  1  0.83339661  0.16812094  0.16629591  1
  Ni  Ni20  1  0.66274823  0.00058783  0.33495052  1
  Ni  Ni21  1  0.66731136  0.33381347  1.00007783  1
  Ni  Ni22  1  0.83087189  0.50059117  0.16608282  1
  Ni  Ni23  1  0.66681739  0.33463977  0.33512064  1
  Ni  Ni24  1  0.66780877  0.66729551  0.00177347  1
  Fe  Fe25  1  0.83149629  0.83238660  0.16536906  1
  Ni  Ni26  1  0.66427790  0.66592828  0.33389688  1
  Cr  Cr27  1  0.16827594  0.16626057  0.49943951  1
  Ni  Ni28  1  0.00213977  0.99819350  0.66792817  1
  Ni  Ni29  1  0.16633722  0.16655537  0.83463539  1
  Ni  Ni30  1  0.16890179  0.50256422  0.50028749  1
  Cr  Cr31  1  0.99776107  0.33531526  0.66777349  1
  Ni  Ni32  1  0.16608040  0.50179494  0.83497269  1
  Ni  Ni33  1  0.16895478  0.83198748  0.50245397  1
  Ni  Ni34  1  0.00127393  0.66789711  0.66673821  1
  Ni  Ni35  1  0.16577726  0.83295335  0.83237800  1
  Ni  Ni36  1  0.50173478  0.16781563  0.49922214  1
  Ni  Ni37  1  0.33322960  0.99863698  0.66782286  1
  Ni  Ni38  1  0.50087192  0.16713131  0.83393489  1
  Ni  Ni39  1  0.50085724  0.50101664  0.49995312  1
  Fe  Fe40  1  0.33513155  0.33400939  0.66781416  1
  Cr  Cr41  1  0.50075439  0.50162162  0.83428889  1
  Ni  Ni42  1  0.49959399  0.83252931  0.49932082  1
  Ni  Ni43  1  0.33256036  0.66902040  0.66593280  1
  Ni  Ni44  1  0.50055087  0.83344411  0.83372510  1
  Ni  Ni45  1  0.83123030  0.16781222  0.49942525  1
  Cr  Cr46  1  0.66620922  0.00142580  0.66716720  1
  Ni  Ni47  1  0.83405034  0.16666886  0.83547595  1
  Ni  Ni48  1  0.83164799  0.50049314  0.50019243  1
  Ni  Ni49  1  0.66674559  0.33457987  0.66601961  1
  Ni  Ni50  1  0.83448326  0.50138384  0.83490791  1
  Ni  Ni51  1  0.83259936  0.83285514  0.50076624  1
  Ni  Ni52  1  0.66747093  0.66556631  0.66561983  1
  Ni  Ni53  1  0.83492899  0.83312406  0.83535147  1
" 