3782,Ni77Fe4Cr17_14,-232.457495871818, 166.66958612725,Ni77Fe4Cr17,"# generated using pymatgen
 data_Cr11Fe2Ni41
_symmetry_space_group_name_H-M   'P 1'
_cell_length_a   7.46679159
_cell_length_b   7.46679159
_cell_length_c   10.55963793
_cell_angle_alpha   90.00000000
_cell_angle_beta   90.00000000
_cell_angle_gamma   90.00000000
_symmetry_Int_Tables_number   1
_chemical_formula_structural   Cr11Fe2Ni41
_chemical_formula_sum   'Cr11 Fe2 Ni41'
_cell_volume   588.73124661
_cell_formula_units_Z   1
loop_
 _symmetry_equiv_pos_site_id
 _symmetry_equiv_pos_as_xyz
  1  'x, y, z'
loop_
 _atom_site_type_symbol
 _atom_site_label
 _atom_site_symmetry_multiplicity
 _atom_site_fract_x
 _atom_site_fract_y
 _atom_site_fract_z
 _atom_site_occupancy
  Ni  Ni0  1  0.00107343  0.99754928  0.00224898  1
  Ni  Ni1  1  0.16761347  0.16447124  0.16867378  1
  Ni  Ni2  1  0.00044643  0.00280173  0.33230684  1
  Cr  Cr3  1  0.00014319  0.33286885  0.00020193  1
  Ni  Ni4  1  0.16958353  0.50093320  0.16762385  1
  Ni  Ni5  1  0.00153303  0.32986723  0.33292836  1
  Ni  Ni6  1  0.00269229  0.66849871  0.99896688  1
  Ni  Ni7  1  0.16807725  0.83457482  0.16582571  1
  Cr  Cr8  1  0.00323673  0.66863926  0.33283514  1
  Ni  Ni9  1  0.33440277  0.99735441  0.99923380  1
  Ni  Ni10  1  0.50027168  0.16583763  0.16691725  1
  Ni  Ni11  1  0.33419708  0.99952927  0.33315709  1
  Cr  Cr12  1  0.33420159  0.33211384  0.00030833  1
  Ni  Ni13  1  0.49879637  0.50054230  0.16868519  1
  Ni  Ni14  1  0.33364860  0.33328702  0.33336065  1
  Ni  Ni15  1  0.33174417  0.66945350  0.00156654  1
  Ni  Ni16  1  0.49929225  0.83370433  0.16659375  1
  Ni  Ni17  1  0.33524780  0.66714044  0.33315014  1
  Ni  Ni18  1  0.66463168  0.00076333  0.00190970  1
  Ni  Ni19  1  0.83221923  0.16415522  0.16851076  1
  Ni  Ni20  1  0.66543755  0.00099815  0.33246321  1
  Ni  Ni21  1  0.66585951  0.33129651  0.00064074  1
  Cr  Cr22  1  0.83175879  0.49994970  0.16601640  1
  Ni  Ni23  1  0.66476927  0.33071077  0.33324961  1
  Fe  Fe24  1  0.66511093  0.66871627  0.00113167  1
  Ni  Ni25  1  0.83251774  0.83600300  0.16596183  1
  Ni  Ni26  1  0.66188618  0.66828059  0.33197147  1
  Ni  Ni27  1  0.16878208  0.16589936  0.49925413  1
  Ni  Ni28  1  0.00253171  0.99912133  0.66541710  1
  Ni  Ni29  1  0.17004482  0.16339315  0.83216383  1
  Ni  Ni30  1  0.16896631  0.49861052  0.49901514  1
  Cr  Cr31  1  0.00205192  0.33337781  0.66737924  1
  Ni  Ni32  1  0.16560251  0.50206024  0.83334361  1
  Ni  Ni33  1  0.16920306  0.83547317  0.50031304  1
  Ni  Ni34  1  0.00121661  0.66732303  0.66838820  1
  Ni  Ni35  1  0.16770247  0.83451584  0.83385525  1
  Ni  Ni36  1  0.49917226  0.16607082  0.50082525  1
  Ni  Ni37  1  0.33424330  0.00118336  0.66764879  1
  Ni  Ni38  1  0.49863485  0.16410389  0.83227577  1
  Fe  Fe39  1  0.49861683  0.49858256  0.49847094  1
  Ni  Ni40  1  0.33445050  0.33088180  0.66612858  1
  Cr  Cr41  1  0.50153577  0.49933390  0.83319467  1
  Ni  Ni42  1  0.49901397  0.83520637  0.49918242  1
  Cr  Cr43  1  0.33236149  0.66836288  0.66502930  1
  Ni  Ni44  1  0.49873360  0.83607204  0.83415111  1
  Ni  Ni45  1  0.83212420  0.16631051  0.49861053  1
  Ni  Ni46  1  0.66349296  0.00090726  0.66562847  1
  Cr  Cr47  1  0.83110690  0.16600036  0.83283265  1
  Cr  Cr48  1  0.83168249  0.49891811  0.50079742  1
  Ni  Ni49  1  0.66434029  0.33191182  0.66612899  1
  Ni  Ni50  1  0.83304638  0.50197436  0.83328241  1
  Cr  Cr51  1  0.83240264  0.83577948  0.50102980  1
  Ni  Ni52  1  0.66608120  0.66727923  0.66734626  1
  Cr  Cr53  1  0.83339211  0.83223195  0.83279328  1
" 