516,Ni77Cr23_1,-208.276937980042, 150.279419013828,Ni77Cr23,"# generated using pymatgen
 data_Cr41Ni13
_symmetry_space_group_name_H-M   'P 1'
_cell_length_a   7.57761480
_cell_length_b   7.57761480
_cell_length_c   10.71636562
_cell_angle_alpha   90.00000000
_cell_angle_beta   90.00000000
_cell_angle_gamma   90.00000000
_symmetry_Int_Tables_number   1
_chemical_formula_structural   Cr41Ni13
_chemical_formula_sum   'Cr41 Ni13'
_cell_volume   615.33635077
_cell_formula_units_Z   1
loop_
 _symmetry_equiv_pos_site_id
 _symmetry_equiv_pos_as_xyz
  1  'x, y, z'
loop_
 _atom_site_type_symbol
 _atom_site_label
 _atom_site_symmetry_multiplicity
 _atom_site_fract_x
 _atom_site_fract_y
 _atom_site_fract_z
 _atom_site_occupancy
  Cr  Cr0  1  0.99053876  0.98987050  0.99201644  1
  Cr  Cr1  1  0.15914235  0.15947029  0.15947721  1
  Cr  Cr2  1  0.99152612  0.99034379  0.32649647  1
  Cr  Cr3  1  -0.00720241  0.32580497  0.99200624  1
  Cr  Cr4  1  0.15909811  0.49298108  0.15834148  1
  Cr  Cr5  1  0.99213260  0.32547133  0.32626888  1
  Ni  Ni6  1  0.99198058  0.66234530  0.99198672  1
  Cr  Cr7  1  0.15860768  0.82565909  0.15811317  1
  Cr  Cr8  1  0.99209423  0.66229722  0.32736101  1
  Cr  Cr9  1  0.32555883  -0.00676538  0.99162760  1
  Cr  Cr10  1  0.49321384  0.16000534  0.16083859  1
  Cr  Cr11  1  0.32550759  -0.00681779  0.32778571  1
  Cr  Cr12  1  0.32840113  0.32754910  0.99258181  1
  Ni  Ni13  1  0.49367390  0.49186729  0.16033856  1
  Cr  Cr14  1  0.32888096  0.32660874  0.32513392  1
  Cr  Cr15  1  0.32560181  0.65733177  -0.00719384  1
  Cr  Cr16  1  0.49374482  0.82512715  0.15947665  1
  Cr  Cr17  1  0.32607474  0.65832285  0.32570043  1
  Cr  Cr18  1  0.66201596  0.99266466  0.99144676  1
  Cr  Cr19  1  0.82575898  0.15951335  0.16023317  1
  Cr  Cr20  1  0.66107721  -0.00685790  0.32627171  1
  Cr  Cr21  1  0.65691565  0.32585203  0.99092099  1
  Cr  Cr22  1  0.82523208  0.49350456  0.16004367  1
  Ni  Ni23  1  0.65727371  0.32603726  0.32603764  1
  Cr  Cr24  1  0.66027507  0.65959747  -0.00685261  1
  Ni  Ni25  1  0.82687353  0.82472100  0.15858461  1
  Cr  Cr26  1  0.65994248  0.65893255  0.32513217  1
  Cr  Cr27  1  0.16126762  0.15739706  0.49283242  1
  Cr  Cr28  1  -0.00719950  0.99021255  0.65959858  1
  Cr  Cr29  1  0.15993360  0.15754026  0.82580633  1
  Cr  Cr30  1  0.15791054  0.49384025  0.49283007  1
  Cr  Cr31  1  0.99228037  0.32518461  0.65983801  1
  Cr  Cr32  1  0.15876802  0.49449410  0.82693946  1
  Ni  Ni33  1  0.15860497  0.82709555  0.49356947  1
  Cr  Cr34  1  -0.00715460  0.66271614  0.65850492  1
  Ni  Ni35  1  0.15772604  0.82621026  0.82586417  1
  Ni  Ni36  1  0.49245275  0.15898898  0.49261771  1
  Ni  Ni37  1  0.32587329  -0.00713128  0.65904294  1
  Ni  Ni38  1  0.49368140  0.16021728  0.82491480  1
  Cr  Cr39  1  0.49430034  0.49164641  0.49169527  1
  Cr  Cr40  1  0.32853977  0.32467619  0.66039971  1
  Ni  Ni41  1  0.49294493  0.49064571  0.82647188  1
  Cr  Cr42  1  0.49147234  0.82854343  0.49339662  1
  Cr  Cr43  1  0.32513254  0.66039378  0.65960581  1
  Cr  Cr44  1  0.49160962  0.82720423  0.82524173  1
  Cr  Cr45  1  0.82424147  0.16022703  0.49150857  1
  Cr  Cr46  1  0.65961461  -0.00639393  0.66039348  1
  Ni  Ni47  1  0.82408411  0.15790402  0.82620067  1
  Cr  Cr48  1  0.82590359  0.49271150  0.49202966  1
  Cr  Cr49  1  0.65729236  0.32463068  0.66115639  1
  Cr  Cr50  1  0.82603098  0.49283121  0.82603727  1
  Ni  Ni51  1  0.82809935  0.82598551  0.49228180  1
  Cr  Cr52  1  0.66013262  0.65988082  0.65983594  1
  Ni  Ni53  1  0.82855168  0.82694518  0.82724629  1
" 