967,Ni77Cr23_19,-208.633117021046, 154.745794163345,Ni77Cr23,"# generated using pymatgen
 data_Cr41Ni13
_symmetry_space_group_name_H-M   'P 1'
_cell_length_a   7.57324120
_cell_length_b   7.57324120
_cell_length_c   10.71018041
_cell_angle_alpha   90.00000000
_cell_angle_beta   90.00000000
_cell_angle_gamma   90.00000000
_symmetry_Int_Tables_number   1
_chemical_formula_structural   Cr41Ni13
_chemical_formula_sum   'Cr41 Ni13'
_cell_volume   614.27149738
_cell_formula_units_Z   1
loop_
 _symmetry_equiv_pos_site_id
 _symmetry_equiv_pos_as_xyz
  1  'x, y, z'
loop_
 _atom_site_type_symbol
 _atom_site_label
 _atom_site_symmetry_multiplicity
 _atom_site_fract_x
 _atom_site_fract_y
 _atom_site_fract_z
 _atom_site_occupancy
  Cr  Cr0  1  -0.00508690  0.99273762  -0.00540473  1
  Ni  Ni1  1  0.16302373  0.15622595  0.16032292  1
  Cr  Cr2  1  -0.00547866  0.99238278  0.32558880  1
  Cr  Cr3  1  -0.00679038  0.32451964  0.99254017  1
  Cr  Cr4  1  0.15890656  0.49255824  0.15961397  1
  Cr  Cr5  1  0.99163899  0.32448514  0.32772107  1
  Cr  Cr6  1  0.99206716  0.66171512  -0.00571990  1
  Ni  Ni7  1  0.16114706  0.82989734  0.16099903  1
  Cr  Cr8  1  -0.00545669  0.66212008  0.32663129  1
  Cr  Cr9  1  0.32522248  -0.00554106  -0.00350985  1
  Ni  Ni10  1  0.49258667  0.15943440  0.16166983  1
  Ni  Ni11  1  0.32644574  -0.00683403  0.32411484  1
  Cr  Cr12  1  0.32836433  0.32404624  -0.00537599  1
  Cr  Cr13  1  0.49569173  0.49084786  0.15869520  1
  Cr  Cr14  1  0.32863811  0.32341116  0.32361226  1
  Cr  Cr15  1  0.32757907  0.66044096  -0.00651581  1
  Cr  Cr16  1  0.49283850  0.82893906  0.16062001  1
  Cr  Cr17  1  0.32484748  0.66260374  0.32713093  1
  Cr  Cr18  1  0.65882894  -0.00658652  0.99255127  1
  Cr  Cr19  1  0.82427261  0.16058122  0.16090293  1
  Ni  Ni20  1  0.65756664  -0.00233202  0.32676694  1
  Ni  Ni21  1  0.65872265  0.32772121  -0.00569764  1
  Cr  Cr22  1  0.82447554  0.49247669  0.15837978  1
  Ni  Ni23  1  0.65955107  0.32163924  0.32599577  1
  Ni  Ni24  1  0.65984862  0.65697653  0.99269683  1
  Cr  Cr25  1  0.82578808  0.82585882  0.15852671  1
  Cr  Cr26  1  0.65948598  0.65940689  0.32620252  1
  Cr  Cr27  1  0.15989155  0.15707570  0.49367891  1
  Cr  Cr28  1  0.99180456  -0.00683555  0.65888052  1
  Cr  Cr29  1  0.16045010  0.15910372  0.82571007  1
  Cr  Cr30  1  0.16038788  0.49517416  0.49480666  1
  Cr  Cr31  1  0.99188137  0.32507277  0.65870704  1
  Cr  Cr32  1  0.16020027  0.49319247  0.82456028  1
  Ni  Ni33  1  0.16259574  0.82744196  0.49406545  1
  Cr  Cr34  1  -0.00530843  0.66075130  0.65803858  1
  Cr  Cr35  1  0.16161441  0.82670515  0.82413567  1
  Cr  Cr36  1  0.49517373  0.15651260  0.49165296  1
  Ni  Ni37  1  0.32712017  0.98945635  0.65853888  1
  Cr  Cr38  1  0.49325443  0.15793306  0.82542999  1
  Cr  Cr39  1  0.49232781  0.49322447  0.49267527  1
  Cr  Cr40  1  0.32697204  0.32694764  0.66076421  1
  Cr  Cr41  1  0.49329143  0.49429606  0.82766488  1
  Cr  Cr42  1  0.49054972  0.82923057  0.49465223  1
  Ni  Ni43  1  0.32513988  0.66335735  0.65859679  1
  Cr  Cr44  1  0.49311641  0.82671314  0.82366042  1
  Ni  Ni45  1  0.82320029  0.15846737  0.49231338  1
  Ni  Ni46  1  0.65826958  -0.00609241  0.65846735  1
  Cr  Cr47  1  0.82528789  0.15940556  0.82547915  1
  Cr  Cr48  1  0.82629449  0.49007048  0.49060739  1
  Cr  Cr49  1  0.66017951  0.32401156  0.65835800  1
  Cr  Cr50  1  0.82555013  0.49295581  0.83001858  1
  Cr  Cr51  1  0.82544437  0.82993425  0.49266098  1
  Cr  Cr52  1  0.65788882  0.66101086  0.66047447  1
  Cr  Cr53  1  0.82409702  0.82655162  0.82774300  1
" 