5965,Ni77Cr23_9,-208.765513325001, 159.479024587811,Ni77Cr23,"# generated using pymatgen
 data_Cr41Ni13
_symmetry_space_group_name_H-M   'P 1'
_cell_length_a   7.56865119
_cell_length_b   7.56865119
_cell_length_c   10.70368916
_cell_angle_alpha   90.00000000
_cell_angle_beta   90.00000000
_cell_angle_gamma   90.00000000
_symmetry_Int_Tables_number   1
_chemical_formula_structural   Cr41Ni13
_chemical_formula_sum   'Cr41 Ni13'
_cell_volume   613.15527582
_cell_formula_units_Z   1
loop_
 _symmetry_equiv_pos_site_id
 _symmetry_equiv_pos_as_xyz
  1  'x, y, z'
loop_
 _atom_site_type_symbol
 _atom_site_label
 _atom_site_symmetry_multiplicity
 _atom_site_fract_x
 _atom_site_fract_y
 _atom_site_fract_z
 _atom_site_occupancy
  Cr  Cr0  1  0.99169343  -0.00642039  -0.00478459  1
  Ni  Ni1  1  0.15960775  0.15996622  0.15978069  1
  Cr  Cr2  1  -0.00655049  0.99143185  0.32688353  1
  Cr  Cr3  1  -0.00602831  0.32659114  -0.00589114  1
  Cr  Cr4  1  0.16074417  0.49310737  0.15818463  1
  Cr  Cr5  1  -0.00651108  0.32721634  0.32539805  1
  Cr  Cr6  1  -0.00607174  0.65969330  -0.00556372  1
  Cr  Cr7  1  0.15960007  0.82731080  0.15884546  1
  Cr  Cr8  1  0.99175838  0.66121778  0.32825079  1
  Cr  Cr9  1  0.32881749  0.99189576  -0.00614581  1
  Cr  Cr10  1  0.49355316  0.16002083  0.16098288  1
  Cr  Cr11  1  0.32561366  -0.00628813  0.32652023  1
  Cr  Cr12  1  0.32542297  0.32716538  -0.00616066  1
  Cr  Cr13  1  0.49410265  0.49424175  0.16156232  1
  Cr  Cr14  1  0.32674297  0.32609777  0.32688900  1
  Ni  Ni15  1  0.32752465  0.66102131  0.99221921  1
  Cr  Cr16  1  0.49467407  0.82560096  0.15833929  1
  Cr  Cr17  1  0.32618544  0.66005328  0.32788686  1
  Ni  Ni18  1  0.65970373  0.99122979  0.99320947  1
  Cr  Cr19  1  0.82672119  0.15888206  0.15952930  1
  Cr  Cr20  1  0.66079998  0.99198595  0.32592466  1
  Cr  Cr21  1  0.66047019  0.32492187  0.99309577  1
  Cr  Cr22  1  0.82501535  0.49423368  0.16158904  1
  Ni  Ni23  1  0.65978702  0.32859211  0.32644748  1
  Cr  Cr24  1  0.65878838  0.66307898  0.99249704  1
  Ni  Ni25  1  0.82508478  0.82706128  0.16003619  1
  Ni  Ni26  1  0.66191431  0.65960106  0.32660576  1
  Cr  Cr27  1  0.15991187  0.15913071  0.49521356  1
  Ni  Ni28  1  -0.00661979  0.99176174  0.65808686  1
  Cr  Cr29  1  0.15920324  0.15977446  0.82502218  1
  Ni  Ni30  1  0.16084996  0.49434626  0.49435858  1
  Cr  Cr31  1  -0.00466407  0.32654813  0.66035735  1
  Cr  Cr32  1  0.16149511  0.49346709  0.82724561  1
  Ni  Ni33  1  0.15692080  0.82571208  0.49418444  1
  Cr  Cr34  1  0.99250547  0.66156686  0.65717975  1
  Cr  Cr35  1  0.16145353  0.82662145  0.82691544  1
  Cr  Cr36  1  0.49316289  0.16198097  0.49272565  1
  Cr  Cr37  1  0.32595587  -0.00655672  0.65948770  1
  Cr  Cr38  1  0.49360866  0.15865065  0.82615838  1
  Cr  Cr39  1  0.49374753  0.49303183  0.49249740  1
  Ni  Ni40  1  0.32536652  0.32734887  0.65905621  1
  Cr  Cr41  1  0.49246744  0.49573786  0.82580220  1
  Cr  Cr42  1  0.49432488  0.82485112  0.49309430  1
  Cr  Cr43  1  0.32707111  0.65930666  0.65983451  1
  Ni  Ni44  1  0.49436670  0.82555276  0.82803876  1
  Cr  Cr45  1  0.82679054  0.15855758  0.49384886  1
  Cr  Cr46  1  0.66085342  0.99061824  0.66120964  1
  Cr  Cr47  1  0.82705328  0.15860385  0.82649155  1
  Cr  Cr48  1  0.82504719  0.49529360  0.49214080  1
  Cr  Cr49  1  0.65858009  0.32766501  0.66047356  1
  Cr  Cr50  1  0.82590070  0.49349605  0.82613124  1
  Ni  Ni51  1  0.82811830  0.82546292  0.49410293  1
  Ni  Ni52  1  0.66012327  0.66174271  0.65995199  1
  Cr  Cr53  1  0.82478617  0.82776200  0.82580365  1
" 