2872,Ni77Fe2Cr20_4,-231.199546261894, 156.13299339981,Ni77Fe2Cr20,"# generated using pymatgen
 data_Cr12FeNi41
_symmetry_space_group_name_H-M   'P 1'
_cell_length_a   7.47153650
_cell_length_b   7.47153650
_cell_length_c   10.56634825
_cell_angle_alpha   90.00000000
_cell_angle_beta   90.00000000
_cell_angle_gamma   90.00000000
_symmetry_Int_Tables_number   1
_chemical_formula_structural   Cr12FeNi41
_chemical_formula_sum   'Cr12 Fe1 Ni41'
_cell_volume   589.85432096
_cell_formula_units_Z   1
loop_
 _symmetry_equiv_pos_site_id
 _symmetry_equiv_pos_as_xyz
  1  'x, y, z'
loop_
 _atom_site_type_symbol
 _atom_site_label
 _atom_site_symmetry_multiplicity
 _atom_site_fract_x
 _atom_site_fract_y
 _atom_site_fract_z
 _atom_site_occupancy
  Ni  Ni0  1  0.99939666  0.99938416  -0.00011066  1
  Ni  Ni1  1  0.16624467  0.16620321  0.16587400  1
  Cr  Cr2  1  0.00181671  0.00039517  0.33225157  1
  Ni  Ni3  1  0.00088693  0.33274275  0.99966032  1
  Ni  Ni4  1  0.16566728  0.49875557  0.16390962  1
  Ni  Ni5  1  0.99874704  0.33273384  0.33221146  1
  Ni  Ni6  1  0.00107057  0.66697193  0.99907908  1
  Ni  Ni7  1  0.16755364  0.83414011  0.16456059  1
  Cr  Cr8  1  0.99830535  0.66605618  0.33329848  1
  Ni  Ni9  1  0.33348173  0.99938458  0.00053116  1
  Ni  Ni10  1  0.49949073  0.16465499  0.16543987  1
  Ni  Ni11  1  0.33344675  -0.00015056  0.33377516  1
  Ni  Ni12  1  0.33099206  0.33174233  -0.00023134  1
  Cr  Cr13  1  0.49989799  0.50012134  0.16513406  1
  Cr  Cr14  1  0.33196912  0.32905504  0.33255164  1
  Ni  Ni15  1  0.33080727  0.66797201  0.00034988  1
  Ni  Ni16  1  0.49930884  0.83456209  0.16550494  1
  Cr  Cr17  1  0.33338039  0.67036937  0.33209566  1
  Ni  Ni18  1  0.66622039  0.99956828  0.00020026  1
  Ni  Ni19  1  0.83336353  0.16653933  0.16504510  1
  Cr  Cr20  1  0.66382687  0.99898650  0.33152563  1
  Ni  Ni21  1  0.66721918  0.33006779  0.99922748  1
  Cr  Cr22  1  0.83329623  0.49858481  0.16692066  1
  Ni  Ni23  1  0.66827611  0.33309898  0.33358093  1
  Ni  Ni24  1  0.66722036  0.66946358  0.99922778  1
  Ni  Ni25  1  0.83223652  0.83398458  0.16431454  1
  Ni  Ni26  1  0.66747999  0.66709290  0.33488848  1
  Ni  Ni27  1  0.16852788  0.16439608  0.50076184  1
  Fe  Fe28  1  0.00027798  0.99905758  0.66748912  1
  Ni  Ni29  1  0.16640590  0.16678630  0.83246431  1
  Cr  Cr30  1  0.16340026  0.49791414  0.50077957  1
  Ni  Ni31  1  -0.00020086  0.33408339  0.66722646  1
  Ni  Ni32  1  0.16381627  0.49876004  0.83424960  1
  Ni  Ni33  1  0.16679768  0.83660850  0.50076814  1
  Ni  Ni34  1  0.99694497  0.66629341  0.66650080  1
  Ni  Ni35  1  0.16546718  0.83355208  0.83377174  1
  Ni  Ni36  1  0.49754079  0.16465928  0.50111468  1
  Ni  Ni37  1  0.33391544  0.00176128  0.66479283  1
  Ni  Ni38  1  0.49969860  0.16513836  0.83254394  1
  Cr  Cr39  1  0.50422546  0.49903153  0.49987196  1
  Ni  Ni40  1  0.33161580  0.32798286  0.66669315  1
  Cr  Cr41  1  0.50039253  0.49901060  0.83409316  1
  Ni  Ni42  1  0.50039498  0.83521823  0.49974211  1
  Cr  Cr43  1  0.33164383  0.66866571  0.66712575  1
  Ni  Ni44  1  0.50063790  0.83520018  0.83385198  1
  Cr  Cr45  1  0.83346061  0.16845298  0.50055063  1
  Ni  Ni46  1  0.66462500  0.99890774  0.66693172  1
  Ni  Ni47  1  0.83299412  0.16678752  0.83348140  1
  Ni  Ni48  1  0.83164514  0.50094963  0.49995241  1
  Ni  Ni49  1  0.66768342  0.33159814  0.66629061  1
  Ni  Ni50  1  0.83464169  0.49969978  0.83214684  1
  Ni  Ni51  1  0.83190622  0.82957788  0.50195052  1
  Ni  Ni52  1  0.67072280  0.66859278  0.66498312  1
  Ni  Ni53  1  0.83299390  0.83261160  0.83283367  1
" 