754,Ni77Fe6Cr15_5,-233.946106733803, 168.98151643895,Ni77Fe6Cr15,"# generated using pymatgen
 data_Cr3FeNi14
_symmetry_space_group_name_H-M   'P 1'
_cell_length_a   7.46564549
_cell_length_b   7.46564549
_cell_length_c   10.55801710
_cell_angle_alpha   90.00000000
_cell_angle_beta   90.00000000
_cell_angle_gamma   90.00000000
_symmetry_Int_Tables_number   1
_chemical_formula_structural   Cr3FeNi14
_chemical_formula_sum   'Cr9 Fe3 Ni42'
_cell_volume   588.46019052
_cell_formula_units_Z   3
loop_
 _symmetry_equiv_pos_site_id
 _symmetry_equiv_pos_as_xyz
  1  'x, y, z'
loop_
 _atom_site_type_symbol
 _atom_site_label
 _atom_site_symmetry_multiplicity
 _atom_site_fract_x
 _atom_site_fract_y
 _atom_site_fract_z
 _atom_site_occupancy
  Ni  Ni0  1  0.00270414  0.99892260  0.99885203  1
  Ni  Ni1  1  0.16734402  0.16559715  0.16682887  1
  Ni  Ni2  1  0.00072266  0.99906512  0.33393738  1
  Ni  Ni3  1  0.00227677  0.33147421  0.00047121  1
  Ni  Ni4  1  0.16630766  0.50020095  0.16510104  1
  Ni  Ni5  1  0.00187001  0.33348273  0.33523337  1
  Ni  Ni6  1  0.00127054  0.66989130  0.00136079  1
  Ni  Ni7  1  0.16608535  0.83446493  0.16663623  1
  Ni  Ni8  1  0.99975770  0.66764266  0.33417813  1
  Ni  Ni9  1  0.33160218  0.99998366  0.00026186  1
  Ni  Ni10  1  0.49747981  0.16510163  0.16645188  1
  Ni  Ni11  1  0.33348351  0.99994990  0.33325458  1
  Ni  Ni12  1  0.33409722  0.33258183  0.00132210  1
  Ni  Ni13  1  0.49925189  0.50138061  0.16391331  1
  Cr  Cr14  1  0.33183776  0.33318098  0.33235560  1
  Ni  Ni15  1  0.33394214  0.66776644  0.00091633  1
  Ni  Ni16  1  0.49990441  0.83383156  0.16752467  1
  Cr  Cr17  1  0.33298146  0.66687779  0.33253843  1
  Cr  Cr18  1  0.66664334  0.99909161  0.99859028  1
  Cr  Cr19  1  0.83468739  0.16458579  0.16663185  1
  Ni  Ni20  1  0.66626936  0.99784804  0.33393722  1
  Ni  Ni21  1  0.66387494  0.33392081  0.99868345  1
  Cr  Cr22  1  0.83443637  0.50207679  0.16657382  1
  Cr  Cr23  1  0.66547510  0.33373250  0.33491407  1
  Ni  Ni24  1  0.66506990  0.66722362  0.00022931  1
  Ni  Ni25  1  0.83428566  0.83288393  0.16778652  1
  Ni  Ni26  1  0.66727027  0.66946046  0.33408684  1
  Fe  Fe27  1  0.16715165  0.16519272  0.50084428  1
  Ni  Ni28  1  0.00112664  0.99989458  0.66741003  1
  Ni  Ni29  1  0.16697725  0.16545977  0.83277804  1
  Ni  Ni30  1  0.16519975  0.50008936  0.50139240  1
  Ni  Ni31  1  0.00026842  0.33179155  0.66466590  1
  Cr  Cr32  1  0.16884539  0.50048637  0.83420537  1
  Fe  Fe33  1  0.16715311  0.83451579  0.50086046  1
  Ni  Ni34  1  0.00030176  0.66866082  0.66487628  1
  Ni  Ni35  1  0.16714805  0.83484821  0.83255954  1
  Ni  Ni36  1  0.50000415  0.16529442  0.50065902  1
  Ni  Ni37  1  0.33229805  1.00000268  0.66678791  1
  Ni  Ni38  1  0.49772192  0.16834692  0.83315197  1
  Ni  Ni39  1  0.49885244  0.50124914  0.50308176  1
  Ni  Ni40  1  0.33410075  0.33292933  0.66610312  1
  Ni  Ni41  1  0.49961597  0.50028119  0.83306631  1
  Ni  Ni42  1  0.50075485  0.83378361  0.49988575  1
  Ni  Ni43  1  0.33390603  0.66735571  0.66629203  1
  Ni  Ni44  1  0.49776013  0.83166809  0.83297867  1
  Ni  Ni45  1  0.83510443  0.16540659  0.50026528  1
  Cr  Cr46  1  0.66756178  1.00003780  0.66852345  1
  Ni  Ni47  1  0.83558798  0.16718546  0.83327816  1
  Fe  Fe48  1  0.83270741  0.50114459  0.50102293  1
  Ni  Ni49  1  0.66583426  0.33367170  0.66635599  1
  Cr  Cr50  1  0.83260447  0.50010946  0.83281369  1
  Ni  Ni51  1  0.83414380  0.83394406  0.49896420  1
  Ni  Ni52  1  0.66596398  0.66653105  0.66597256  1
  Ni  Ni53  1  0.83544487  0.83297028  0.83370459  1
" 