4937,Ni77Fe12Cr9_7,-237.114414411549, 184.499105431384,Ni77Fe12Cr9,"# generated using pymatgen
 data_CrFeNi7
_symmetry_space_group_name_H-M   'P 1'
_cell_length_a   7.44471947
_cell_length_b   7.44471947
_cell_length_c   10.52842325
_cell_angle_alpha   90.00000000
_cell_angle_beta   90.00000000
_cell_angle_gamma   90.00000000
_symmetry_Int_Tables_number   1
_chemical_formula_structural   CrFeNi7
_chemical_formula_sum   'Cr6 Fe6 Ni42'
_cell_volume   583.52573002
_cell_formula_units_Z   6
loop_
 _symmetry_equiv_pos_site_id
 _symmetry_equiv_pos_as_xyz
  1  'x, y, z'
loop_
 _atom_site_type_symbol
 _atom_site_label
 _atom_site_symmetry_multiplicity
 _atom_site_fract_x
 _atom_site_fract_y
 _atom_site_fract_z
 _atom_site_occupancy
  Ni  Ni0  1  1.00085911  0.99822016  0.00210344  1
  Cr  Cr1  1  0.16901367  0.16950929  0.16599126  1
  Cr  Cr2  1  1.00004718  0.99856333  0.33459950  1
  Ni  Ni3  1  0.00278334  0.33750986  0.00266495  1
  Ni  Ni4  1  0.16716008  0.50212161  0.16858505  1
  Ni  Ni5  1  1.00028495  0.33881602  0.33471838  1
  Ni  Ni6  1  0.00213900  0.66874419  1.00121083  1
  Ni  Ni7  1  0.16953124  0.83261860  0.16767501  1
  Ni  Ni8  1  0.00155242  0.66653718  0.33508738  1
  Ni  Ni9  1  0.33642502  0.99975144  1.00091633  1
  Ni  Ni10  1  0.50211610  0.16633891  0.16945695  1
  Ni  Ni11  1  0.33832929  1.00029738  0.33521784  1
  Ni  Ni12  1  0.33458525  0.33615895  1.00094772  1
  Fe  Fe13  1  0.50120169  0.50266210  0.16891044  1
  Ni  Ni14  1  0.33657909  0.33592857  0.33468596  1
  Ni  Ni15  1  0.33381683  0.66859824  0.00176502  1
  Ni  Ni16  1  0.50219031  0.83593161  0.16826514  1
  Fe  Fe17  1  0.33486268  0.66819100  0.33528112  1
  Ni  Ni18  1  0.66722007  0.99912673  0.00296034  1
  Ni  Ni19  1  0.83299389  0.16868406  0.16884049  1
  Ni  Ni20  1  0.66586681  0.00150600  0.33436623  1
  Cr  Cr21  1  0.66695512  0.33528130  0.00185544  1
  Ni  Ni22  1  0.83626007  0.50216862  0.16920752  1
  Ni  Ni23  1  0.66761237  0.33463075  0.33540329  1
  Ni  Ni24  1  0.66854080  0.67061563  1.00061392  1
  Ni  Ni25  1  0.83283263  0.83368558  0.16691701  1
  Ni  Ni26  1  0.66892164  0.66841141  0.33506321  1
  Cr  Cr27  1  0.16888325  0.16968057  0.50239112  1
  Fe  Fe28  1  1.00021444  0.99831066  0.66778826  1
  Cr  Cr29  1  0.16975446  0.16889110  0.83612273  1
  Ni  Ni30  1  0.16781132  0.50177805  0.50130430  1
  Ni  Ni31  1  1.00119741  0.33799579  0.66715286  1
  Ni  Ni32  1  0.16826632  0.50231422  0.83462889  1
  Ni  Ni33  1  0.16921985  0.83316760  0.50208460  1
  Ni  Ni34  1  0.00222917  0.66820473  0.66821489  1
  Ni  Ni35  1  0.16860843  0.83328735  0.83474341  1
  Fe  Fe36  1  0.50301147  0.16843978  0.50117383  1
  Fe  Fe37  1  0.33703435  0.99923009  0.66831255  1
  Ni  Ni38  1  0.50021316  0.16725769  0.83353795  1
  Ni  Ni39  1  0.50226734  0.50177432  0.50113974  1
  Ni  Ni40  1  0.33629400  0.33673935  0.66883102  1
  Ni  Ni41  1  0.50080842  0.50256994  0.83422442  1
  Ni  Ni42  1  0.50237098  0.83474085  0.50128346  1
  Ni  Ni43  1  0.33387188  0.66786594  0.66761410  1
  Ni  Ni44  1  0.50201095  0.83464700  0.83495557  1
  Fe  Fe45  1  0.83235447  0.16931109  0.50182349  1
  Ni  Ni46  1  0.66721719  1.00085842  0.66718544  1
  Cr  Cr47  1  0.83458274  0.16782021  0.83449447  1
  Ni  Ni48  1  0.83444127  0.50159727  0.50162236  1
  Ni  Ni49  1  0.66696655  0.33473747  0.66699589  1
  Ni  Ni50  1  0.83541868  0.50414265  0.83366716  1
  Ni  Ni51  1  0.83297203  0.83341103  0.50232483  1
  Ni  Ni52  1  0.66838833  0.66887754  0.66879191  1
  Ni  Ni53  1  0.83388902  0.83271892  0.83525913  1
" 