5620,Ni77Fe2Cr20_14,-231.002598214884, 155.621019114939,Ni77Fe2Cr20,"# generated using pymatgen
 data_Cr12FeNi41
_symmetry_space_group_name_H-M   'P 1'
_cell_length_a   7.47419303
_cell_length_b   7.47419303
_cell_length_c   10.57010515
_cell_angle_alpha   90.00000000
_cell_angle_beta   90.00000000
_cell_angle_gamma   90.00000000
_symmetry_Int_Tables_number   1
_chemical_formula_structural   Cr12FeNi41
_chemical_formula_sum   'Cr12 Fe1 Ni41'
_cell_volume   590.48371905
_cell_formula_units_Z   1
loop_
 _symmetry_equiv_pos_site_id
 _symmetry_equiv_pos_as_xyz
  1  'x, y, z'
loop_
 _atom_site_type_symbol
 _atom_site_label
 _atom_site_symmetry_multiplicity
 _atom_site_fract_x
 _atom_site_fract_y
 _atom_site_fract_z
 _atom_site_occupancy
  Cr  Cr0  1  0.99928550  -0.00018094  -0.00042446  1
  Ni  Ni1  1  0.16700663  0.16870570  0.16574269  1
  Ni  Ni2  1  0.99514774  -0.00045931  0.33072536  1
  Ni  Ni3  1  0.99927988  0.33250643  0.99904810  1
  Ni  Ni4  1  0.16519142  0.49730670  0.16667188  1
  Ni  Ni5  1  0.99926016  0.33264477  0.33287735  1
  Ni  Ni6  1  0.99779621  0.66636674  -0.00031202  1
  Ni  Ni7  1  0.16319828  0.83249177  0.16614269  1
  Ni  Ni8  1  0.99772484  0.66634411  0.33260372  1
  Ni  Ni9  1  0.33276237  0.00121496  0.99908602  1
  Ni  Ni10  1  0.49997449  0.16799840  0.16547392  1
  Cr  Cr11  1  0.33248227  0.00274116  0.33068475  1
  Ni  Ni12  1  0.33210950  0.33026840  0.00330778  1
  Fe  Fe13  1  0.50015541  0.49591142  0.16647874  1
  Ni  Ni14  1  0.33390825  0.33397472  0.33176727  1
  Cr  Cr15  1  0.33169518  0.66723556  0.00059762  1
  Cr  Cr16  1  0.50338485  0.83481257  0.16484731  1
  Cr  Cr17  1  0.33198433  0.66154669  0.33236749  1
  Ni  Ni18  1  0.66642279  -0.00026226  -0.00028575  1
  Ni  Ni19  1  0.83152056  0.16591509  0.16729906  1
  Ni  Ni20  1  0.67058066  0.00166713  0.33284989  1
  Ni  Ni21  1  0.66721702  0.33173130  0.00040144  1
  Cr  Cr22  1  0.83378207  0.49987740  0.16483874  1
  Ni  Ni23  1  0.66543252  0.33163430  0.33397533  1
  Ni  Ni24  1  0.66877453  0.66708291  0.99821901  1
  Ni  Ni25  1  0.83333616  0.83299710  0.16771589  1
  Ni  Ni26  1  0.66923623  0.66519090  0.33394485  1
  Cr  Cr27  1  0.16523839  0.16837289  0.50087618  1
  Ni  Ni28  1  0.99752684  0.99950610  0.66790778  1
  Ni  Ni29  1  0.16557802  0.16524984  0.83237651  1
  Ni  Ni30  1  0.16498217  0.49831208  0.50003988  1
  Ni  Ni31  1  0.99749750  0.33254849  0.66658595  1
  Cr  Cr32  1  0.16258977  0.49769214  0.83164325  1
  Cr  Cr33  1  0.16257616  0.83153852  0.50093112  1
  Ni  Ni34  1  0.99789659  0.66644669  0.66611046  1
  Ni  Ni35  1  0.16633588  0.83449677  0.83118219  1
  Ni  Ni36  1  0.50225011  0.16917207  0.50011421  1
  Ni  Ni37  1  0.33264331  0.99933770  0.66907912  1
  Cr  Cr38  1  0.49918518  0.16427001  0.83278011  1
  Ni  Ni39  1  0.50074992  0.49677033  0.49947296  1
  Ni  Ni40  1  0.33302925  0.33313359  0.66356037  1
  Cr  Cr41  1  0.50269320  0.50005662  0.83312859  1
  Cr  Cr42  1  0.50291622  0.83400080  0.50220376  1
  Ni  Ni43  1  0.33295388  0.66608694  0.66599426  1
  Ni  Ni44  1  0.50061284  0.83413699  0.83191779  1
  Ni  Ni45  1  0.83065845  0.16669994  0.49907994  1
  Ni  Ni46  1  0.66833292  -0.00034037  0.66599500  1
  Ni  Ni47  1  0.83358375  0.16733649  0.83215176  1
  Ni  Ni48  1  0.83289596  0.49955758  0.50002963  1
  Ni  Ni49  1  0.66803506  0.33293452  0.66414814  1
  Ni  Ni50  1  0.83322689  0.49981899  0.83306078  1
  Ni  Ni51  1  0.83226292  0.83228147  0.49840977  1
  Ni  Ni52  1  0.66769374  0.66604770  0.66639149  1
  Ni  Ni53  1  0.83159285  0.83145904  0.83237201  1
" 