2871,Ni77Cr23_14,-208.611138240442, 154.244008123338,Ni77Cr23,"# generated using pymatgen
 data_Cr41Ni13
_symmetry_space_group_name_H-M   'P 1'
_cell_length_a   7.57414938
_cell_length_b   7.57414938
_cell_length_c   10.71146478
_cell_angle_alpha   90.00000000
_cell_angle_beta   90.00000000
_cell_angle_gamma   90.00000000
_symmetry_Int_Tables_number   1
_chemical_formula_structural   Cr41Ni13
_chemical_formula_sum   'Cr41 Ni13'
_cell_volume   614.49251417
_cell_formula_units_Z   1
loop_
 _symmetry_equiv_pos_site_id
 _symmetry_equiv_pos_as_xyz
  1  'x, y, z'
loop_
 _atom_site_type_symbol
 _atom_site_label
 _atom_site_symmetry_multiplicity
 _atom_site_fract_x
 _atom_site_fract_y
 _atom_site_fract_z
 _atom_site_occupancy
  Cr  Cr0  1  0.99265890  -0.00552384  -0.00638785  1
  Cr  Cr1  1  0.16302802  0.16087507  0.15976407  1
  Cr  Cr2  1  -0.00644733  0.99247787  0.32763741  1
  Cr  Cr3  1  0.99282940  0.32640916  -0.00675458  1
  Ni  Ni4  1  0.16368052  0.49117313  0.16141193  1
  Cr  Cr5  1  0.99107810  0.32649986  0.32482722  1
  Cr  Cr6  1  -0.00701188  0.65775314  -0.00460254  1
  Cr  Cr7  1  0.15992097  0.82484810  0.16018209  1
  Cr  Cr8  1  -0.00532660  0.65996612  0.32749741  1
  Cr  Cr9  1  0.32843510  -0.00582976  0.99219049  1
  Ni  Ni10  1  0.49488546  0.16139756  0.16166474  1
  Cr  Cr11  1  0.32648990  -0.00586319  0.32630629  1
  Cr  Cr12  1  0.32818453  0.32650571  -0.00427094  1
  Ni  Ni13  1  0.49198523  0.49072685  0.16096910  1
  Ni  Ni14  1  0.32939425  0.32698698  0.32259947  1
  Cr  Cr15  1  0.32845034  0.65847583  -0.00614204  1
  Cr  Cr16  1  0.49528138  0.82752241  0.15824756  1
  Cr  Cr17  1  0.32602543  0.65907069  0.32639726  1
  Ni  Ni18  1  0.65608981  0.99238172  -0.00683630  1
  Cr  Cr19  1  0.82330445  0.15704601  0.16041611  1
  Ni  Ni20  1  0.65711629  -0.00396511  0.32429020  1
  Cr  Cr21  1  0.65780359  0.32666617  -0.00477102  1
  Cr  Cr22  1  0.82474904  0.49406417  0.15973393  1
  Ni  Ni23  1  0.65449425  0.32306732  0.32347988  1
  Ni  Ni24  1  0.65629232  0.66097214  -0.00669010  1
  Cr  Cr25  1  0.82368820  0.82709162  0.15882900  1
  Cr  Cr26  1  0.65803947  0.65590410  0.32599155  1
  Cr  Cr27  1  0.16213893  0.16217136  0.49439739  1
  Cr  Cr28  1  0.99223746  0.99282181  0.65766543  1
  Cr  Cr29  1  0.16007392  0.16217777  0.82403504  1
  Cr  Cr30  1  0.16164035  0.49110905  0.49384340  1
  Ni  Ni31  1  -0.00519633  0.32576959  0.65909535  1
  Cr  Cr32  1  0.16001491  0.49103158  0.82421625  1
  Ni  Ni33  1  0.16040394  0.82683768  0.49289070  1
  Cr  Cr34  1  0.99248253  0.66053076  0.65655393  1
  Cr  Cr35  1  0.16164162  0.82572983  0.82725249  1
  Cr  Cr36  1  0.49301283  0.16032259  0.49110858  1
  Cr  Cr37  1  0.32789693  0.99170189  0.66032924  1
  Cr  Cr38  1  0.49289462  0.15831962  0.82528072  1
  Cr  Cr39  1  0.49114311  0.48934823  0.49157053  1
  Ni  Ni40  1  0.32597630  0.32601933  0.65926842  1
  Cr  Cr41  1  0.49198697  0.49508010  0.82570766  1
  Cr  Cr42  1  0.49411072  0.82835554  0.49333387  1
  Cr  Cr43  1  0.32744853  0.66167421  0.65904526  1
  Ni  Ni44  1  0.49682915  0.82774667  0.82793071  1
  Cr  Cr45  1  0.82334154  0.15926478  0.49218686  1
  Ni  Ni46  1  0.65882241  0.99205553  0.66123987  1
  Cr  Cr47  1  0.82646009  0.15870592  0.82556417  1
  Cr  Cr48  1  0.82521576  0.49056553  0.49331278  1
  Cr  Cr49  1  0.66021311  0.32499059  0.65917255  1
  Cr  Cr50  1  0.82712425  0.49366379  0.82580345  1
  Cr  Cr51  1  0.82357818  0.82802639  0.49035278  1
  Cr  Cr52  1  0.65861642  0.66101896  0.66083817  1
  Cr  Cr53  1  0.82298085  0.82646930  0.83023227  1
" 