46,Ni77Fe4Cr17_17,-232.019064429389, 160.923450309439,Ni77Fe4Cr17,"# generated using pymatgen
 data_Cr11Fe2Ni41
_symmetry_space_group_name_H-M   'P 1'
_cell_length_a   7.47030076
_cell_length_b   7.47030076
_cell_length_c   10.56460065
_cell_angle_alpha   90.00000000
_cell_angle_beta   90.00000000
_cell_angle_gamma   90.00000000
_symmetry_Int_Tables_number   1
_chemical_formula_structural   Cr11Fe2Ni41
_chemical_formula_sum   'Cr11 Fe2 Ni41'
_cell_volume   589.56169589
_cell_formula_units_Z   1
loop_
 _symmetry_equiv_pos_site_id
 _symmetry_equiv_pos_as_xyz
  1  'x, y, z'
loop_
 _atom_site_type_symbol
 _atom_site_label
 _atom_site_symmetry_multiplicity
 _atom_site_fract_x
 _atom_site_fract_y
 _atom_site_fract_z
 _atom_site_occupancy
  Ni  Ni0  1  0.99799052  0.00102305  0.00033654  1
  Ni  Ni1  1  0.16497078  0.16792740  0.16685456  1
  Ni  Ni2  1  0.99843008  0.00284036  0.33341711  1
  Ni  Ni3  1  0.00012206  0.33341562  0.00022259  1
  Ni  Ni4  1  0.16633056  0.49684307  0.16619287  1
  Ni  Ni5  1  0.99949375  0.33100710  0.33270287  1
  Ni  Ni6  1  0.99634660  0.66490767  0.99925818  1
  Cr  Cr7  1  0.16635787  0.83477042  0.16590772  1
  Cr  Cr8  1  0.99752601  0.66597344  0.33170640  1
  Ni  Ni9  1  0.33333798  0.00325663  0.99975653  1
  Cr  Cr10  1  0.50006203  0.16637085  0.16544571  1
  Ni  Ni11  1  0.33353841  0.00017912  0.33341341  1
  Ni  Ni12  1  0.33244870  0.33242526  0.99889113  1
  Ni  Ni13  1  0.50037977  0.50073202  0.16754055  1
  Ni  Ni14  1  0.33265050  0.33384536  0.33214565  1
  Cr  Cr15  1  0.33357453  0.66390949  0.00108224  1
  Ni  Ni16  1  0.50184411  0.83232877  0.16774160  1
  Fe  Fe17  1  0.33703917  0.66551261  0.33260838  1
  Ni  Ni18  1  0.66801791  0.99947993  0.99975598  1
  Ni  Ni19  1  0.83488258  0.16646372  0.16691668  1
  Ni  Ni20  1  0.66737837  0.99823514  0.33335130  1
  Ni  Ni21  1  0.66677595  0.33406889  0.99889055  1
  Ni  Ni22  1  0.83263764  0.49919121  0.16549736  1
  Ni  Ni23  1  0.66720304  0.33472414  0.33338912  1
  Ni  Ni24  1  0.66900718  0.66579798  0.00123171  1
  Ni  Ni25  1  0.83099648  0.83369209  0.16514412  1
  Fe  Fe26  1  0.66512111  0.66645247  0.33316624  1
  Ni  Ni27  1  0.16389530  0.16531697  0.49878760  1
  Ni  Ni28  1  0.99842825  0.00042356  0.66559367  1
  Ni  Ni29  1  0.16619612  0.16753474  0.83370496  1
  Cr  Cr30  1  0.16595430  0.49830774  0.50037114  1
  Ni  Ni31  1  0.99949001  0.33278564  0.66642173  1
  Ni  Ni32  1  0.16477907  0.49798126  0.83301397  1
  Cr  Cr33  1  0.16741060  0.83547052  0.50160113  1
  Ni  Ni34  1  0.99753617  0.66613626  0.66791534  1
  Cr  Cr35  1  0.16418375  0.83337036  0.83183646  1
  Cr  Cr36  1  0.50008354  0.16491661  0.49872324  1
  Ni  Ni37  1  0.33289781  0.99901255  0.66617669  1
  Ni  Ni38  1  0.49949732  0.16664586  0.83494830  1
  Ni  Ni39  1  0.50157174  0.50322644  0.49810216  1
  Cr  Cr40  1  0.33191461  0.33311719  0.66877861  1
  Ni  Ni41  1  0.50038857  0.49834721  0.83370396  1
  Ni  Ni42  1  0.50121464  0.83169233  0.49985835  1
  Ni  Ni43  1  0.33462292  0.66671311  0.66538768  1
  Cr  Cr44  1  0.50164875  0.83456983  0.83201111  1
  Ni  Ni45  1  0.83551720  0.16567458  0.49878964  1
  Ni  Ni46  1  0.66802083  0.99706003  0.66623988  1
  Ni  Ni47  1  0.83365299  0.16607405  0.83364088  1
  Ni  Ni48  1  0.83144497  0.49954440  0.50014583  1
  Cr  Cr49  1  0.66821244  0.33377248  0.66732043  1
  Ni  Ni50  1  0.83417862  0.50033464  0.83370206  1
  Ni  Ni51  1  0.83056010  0.83412819  0.50114910  1
  Ni  Ni52  1  0.66718865  0.66777443  0.66469862  1
  Ni  Ni53  1  0.83328913  0.83293731  0.83305248  1
" 