1855,Ni77Fe18Cr4_17,-239.370005033469, 196.978550614667,Ni77Fe18Cr4,"# generated using pymatgen
 data_Cr4Fe9Ni41
_symmetry_space_group_name_H-M   'P 1'
_cell_length_a   7.43280600
_cell_length_b   7.43280600
_cell_length_c   10.51157505
_cell_angle_alpha   90.00000000
_cell_angle_beta   90.00000000
_cell_angle_gamma   90.00000000
_symmetry_Int_Tables_number   1
_chemical_formula_structural   Cr4Fe9Ni41
_chemical_formula_sum   'Cr4 Fe9 Ni41'
_cell_volume   580.72883476
_cell_formula_units_Z   1
loop_
 _symmetry_equiv_pos_site_id
 _symmetry_equiv_pos_as_xyz
  1  'x, y, z'
loop_
 _atom_site_type_symbol
 _atom_site_label
 _atom_site_symmetry_multiplicity
 _atom_site_fract_x
 _atom_site_fract_y
 _atom_site_fract_z
 _atom_site_occupancy
  Ni  Ni0  1  1.00201905  0.00238245  1.00175397  1
  Ni  Ni1  1  0.16949575  0.16940891  0.16983646  1
  Ni  Ni2  1  0.00233245  0.00235447  0.33653697  1
  Ni  Ni3  1  0.00248233  0.33460711  1.00211188  1
  Ni  Ni4  1  0.16955005  0.50223144  0.16881935  1
  Ni  Ni5  1  0.00358141  0.33411972  0.33477034  1
  Ni  Ni6  1  0.00249061  0.66992082  1.00211195  1
  Ni  Ni7  1  0.16923029  0.83527105  0.16979657  1
  Ni  Ni8  1  1.00174214  0.67043984  0.33446325  1
  Fe  Fe9  1  0.33465871  0.00235664  0.00304627  1
  Ni  Ni10  1  0.50122138  0.16819801  0.16812866  1
  Ni  Ni11  1  0.33547862  0.00260328  0.33617048  1
  Ni  Ni12  1  0.33600653  0.33570445  0.00258272  1
  Ni  Ni13  1  0.50102534  0.50329278  0.16920180  1
  Ni  Ni14  1  0.33470763  0.33433607  0.33456781  1
  Ni  Ni15  1  0.33579730  0.66861680  1.00200576  1
  Ni  Ni16  1  0.50255082  0.83541643  0.16940056  1
  Ni  Ni17  1  0.33629060  0.66997311  0.33486492  1
  Fe  Fe18  1  0.66995008  0.00236516  0.00303580  1
  Ni  Ni19  1  0.83619208  0.16788021  0.16882566  1
  Ni  Ni20  1  0.66909391  1.00077331  0.33490412  1
  Ni  Ni21  1  0.66842380  0.33523884  1.00135603  1
  Ni  Ni22  1  0.83633753  0.50356042  0.16839675  1
  Cr  Cr23  1  0.66902023  0.33517674  0.33620840  1
  Ni  Ni24  1  0.66862261  0.66907459  1.00194569  1
  Ni  Ni25  1  0.83512751  0.83546826  0.16935494  1
  Ni  Ni26  1  0.66887962  0.67121620  0.33623798  1
  Ni  Ni27  1  0.16918647  0.16700891  0.50150325  1
  Fe  Fe28  1  0.00316491  1.00219375  0.66929902  1
  Ni  Ni29  1  0.16833173  0.16807097  0.83558725  1
  Cr  Cr30  1  0.16803676  0.50253502  0.50114319  1
  Ni  Ni31  1  1.00004543  0.33469583  0.67002427  1
  Ni  Ni32  1  0.16913903  0.50328643  0.83649495  1
  Fe  Fe33  1  0.16814012  0.83745992  0.50202396  1
  Ni  Ni34  1  1.00178871  0.66986529  0.67032550  1
  Ni  Ni35  1  0.16912598  0.83554726  0.83431078  1
  Ni  Ni36  1  0.50127912  0.16776138  0.50174771  1
  Fe  Fe37  1  0.33388431  1.00098171  0.66843679  1
  Fe  Fe38  1  0.50255126  0.17011007  0.83704616  1
  Fe  Fe39  1  0.50454723  0.50316703  0.50253797  1
  Cr  Cr40  1  0.33604607  0.33523561  0.66979498  1
  Ni  Ni41  1  0.50294632  0.50329015  0.83527644  1
  Fe  Fe42  1  0.50240625  0.83536333  0.50081753  1
  Ni  Ni43  1  0.33595420  0.67115464  0.67002842  1
  Fe  Fe44  1  0.50153690  0.83354732  0.83652722  1
  Ni  Ni45  1  0.83644644  0.16857071  0.50260399  1
  Cr  Cr46  1  0.66988749  0.00293594  0.66912025  1
  Ni  Ni47  1  0.83646065  0.16969095  0.83548504  1
  Ni  Ni48  1  0.83462752  0.50372712  0.50403388  1
  Ni  Ni49  1  0.67071935  0.33656053  0.66901160  1
  Ni  Ni50  1  0.83482547  0.50249739  0.83448023  1
  Ni  Ni51  1  0.83537472  0.83461355  0.50129278  1
  Ni  Ni52  1  0.66916821  0.66780607  0.66872936  1
  Ni  Ni53  1  0.83645514  0.83472018  0.83626659  1
" 