5183,Ni77Cr23_17,-208.522717664203, 155.118467699971,Ni77Cr23,"# generated using pymatgen
 data_Cr41Ni13
_symmetry_space_group_name_H-M   'P 1'
_cell_length_a   7.57333900
_cell_length_b   7.57333900
_cell_length_c   10.71031872
_cell_angle_alpha   90.00000000
_cell_angle_beta   90.00000000
_cell_angle_gamma   90.00000000
_symmetry_Int_Tables_number   1
_chemical_formula_structural   Cr41Ni13
_chemical_formula_sum   'Cr41 Ni13'
_cell_volume   614.29529492
_cell_formula_units_Z   1
loop_
 _symmetry_equiv_pos_site_id
 _symmetry_equiv_pos_as_xyz
  1  'x, y, z'
loop_
 _atom_site_type_symbol
 _atom_site_label
 _atom_site_symmetry_multiplicity
 _atom_site_fract_x
 _atom_site_fract_y
 _atom_site_fract_z
 _atom_site_occupancy
  Ni  Ni0  1  0.98763652  0.99014958  0.99249783  1
  Cr  Cr1  1  0.15853248  0.16138754  0.15902430  1
  Cr  Cr2  1  0.99163919  0.99267415  0.32661609  1
  Cr  Cr3  1  0.99147049  0.32711954  0.99124528  1
  Cr  Cr4  1  0.15934528  0.49290737  0.16393128  1
  Ni  Ni5  1  -0.00566254  0.32785371  0.32804926  1
  Cr  Cr6  1  0.98998904  0.66213983  0.99085425  1
  Cr  Cr7  1  0.15644644  0.82482915  0.16024938  1
  Ni  Ni8  1  0.99187767  0.65837261  0.32507647  1
  Cr  Cr9  1  0.32679161  -0.00613149  -0.00497949  1
  Ni  Ni10  1  0.49329278  0.15936603  0.15938040  1
  Cr  Cr11  1  0.32701176  -0.00576488  0.32582881  1
  Cr  Cr12  1  0.32825617  0.32533312  -0.00576137  1
  Cr  Cr13  1  0.49198546  0.49313289  0.16286929  1
  Ni  Ni14  1  0.32520317  0.32779095  0.32504005  1
  Cr  Cr15  1  0.32607316  0.65971677  0.99187326  1
  Cr  Cr16  1  0.49653094  0.82610966  0.16058019  1
  Ni  Ni17  1  0.32604123  0.65702816  0.32666312  1
  Ni  Ni18  1  0.66332495  0.99157698  -0.00639666  1
  Cr  Cr19  1  0.82629341  0.15700140  0.15818811  1
  Cr  Cr20  1  0.66026727  0.99293935  0.32570495  1
  Cr  Cr21  1  0.65913819  0.32602404  -0.00692274  1
  Cr  Cr22  1  0.82763066  0.49531113  0.16275958  1
  Cr  Cr23  1  0.65965379  0.32524225  0.32630096  1
  Cr  Cr24  1  0.66294475  0.66065846  0.99202805  1
  Ni  Ni25  1  0.82601270  0.82655621  0.15912568  1
  Ni  Ni26  1  0.66105397  0.66043040  0.32511231  1
  Cr  Cr27  1  0.15672979  0.16225289  0.49200436  1
  Cr  Cr28  1  0.99076732  0.99224341  0.65841284  1
  Cr  Cr29  1  0.15780497  0.15856502  0.82775093  1
  Cr  Cr30  1  0.15954063  0.49327526  0.48875251  1
  Cr  Cr31  1  0.99050365  0.32703653  0.65916083  1
  Cr  Cr32  1  0.15846018  0.49230746  0.82635984  1
  Cr  Cr33  1  0.16006232  0.82344317  0.49141426  1
  Cr  Cr34  1  0.99112776  0.65976299  0.66277600  1
  Cr  Cr35  1  0.15751457  0.82822969  0.82702771  1
  Cr  Cr36  1  0.49557414  0.15908650  0.49461238  1
  Cr  Cr37  1  0.32695758  0.99281509  0.65834261  1
  Cr  Cr38  1  0.49544137  0.15720551  0.82680629  1
  Cr  Cr39  1  0.49205233  0.49517134  0.49026517  1
  Cr  Cr40  1  0.32657897  0.32604568  0.66030144  1
  Cr  Cr41  1  0.49449224  0.49330434  0.82593272  1
  Cr  Cr42  1  0.49449921  0.82457015  0.49366005  1
  Cr  Cr43  1  0.32559196  0.66009348  0.66046957  1
  Cr  Cr44  1  0.49677811  0.82850674  0.82480835  1
  Ni  Ni45  1  0.82627851  0.15966292  0.49336976  1
  Ni  Ni46  1  0.66263489  0.99295880  0.66020372  1
  Cr  Cr47  1  0.82563592  0.15675392  0.82638574  1
  Cr  Cr48  1  0.82741119  0.49200408  0.48975002  1
  Cr  Cr49  1  0.66190684  0.32573974  0.65965166  1
  Ni  Ni50  1  0.82631341  0.49533207  0.82606744  1
  Cr  Cr51  1  0.82443525  0.82713584  0.49200444  1
  Cr  Cr52  1  0.66227808  0.65990883  0.66193805  1
  Ni  Ni53  1  0.82490482  0.82789012  0.82788920  1
" 