6500,Ni77Fe6Cr15_8,-233.895470580632, 168.166049609522,Ni77Fe6Cr15,"# generated using pymatgen
 data_Cr3FeNi14
_symmetry_space_group_name_H-M   'P 1'
_cell_length_a   7.46225936
_cell_length_b   7.46225936
_cell_length_c   10.55322839
_cell_angle_alpha   90.00000000
_cell_angle_beta   90.00000000
_cell_angle_gamma   90.00000000
_symmetry_Int_Tables_number   1
_chemical_formula_structural   Cr3FeNi14
_chemical_formula_sum   'Cr9 Fe3 Ni42'
_cell_volume   587.65984462
_cell_formula_units_Z   3
loop_
 _symmetry_equiv_pos_site_id
 _symmetry_equiv_pos_as_xyz
  1  'x, y, z'
loop_
 _atom_site_type_symbol
 _atom_site_label
 _atom_site_symmetry_multiplicity
 _atom_site_fract_x
 _atom_site_fract_y
 _atom_site_fract_z
 _atom_site_occupancy
  Ni  Ni0  1  0.99799305  0.00047114  0.00098413  1
  Ni  Ni1  1  0.16549700  0.16763470  0.16810569  1
  Ni  Ni2  1  0.00290502  0.99939136  0.33272577  1
  Ni  Ni3  1  0.00066125  0.33271134  0.99945916  1
  Ni  Ni4  1  0.16728650  0.49975604  0.16774197  1
  Ni  Ni5  1  0.00193120  0.33220747  0.33220482  1
  Ni  Ni6  1  0.99927118  0.66778165  0.99986674  1
  Ni  Ni7  1  0.16412956  0.83357193  0.16850098  1
  Ni  Ni8  1  0.00133769  0.66936370  0.33272419  1
  Cr  Cr9  1  0.33306090  0.00259083  0.99985269  1
  Ni  Ni10  1  0.50062426  0.16981852  0.16667704  1
  Ni  Ni11  1  0.33099156  0.00118547  0.33488367  1
  Ni  Ni12  1  0.33419169  0.33381359  0.00065288  1
  Ni  Ni13  1  0.49968136  0.49842021  0.16810594  1
  Ni  Ni14  1  0.33477802  0.33322690  0.33262894  1
  Cr  Cr15  1  0.33269230  0.66454341  0.99989162  1
  Cr  Cr16  1  0.50070944  0.83283427  0.16733930  1
  Ni  Ni17  1  0.33357645  0.66655023  0.33363082  1
  Ni  Ni18  1  0.66971939  0.00159028  0.99934189  1
  Ni  Ni19  1  0.83484179  0.16666178  0.16593042  1
  Cr  Cr20  1  0.66719784  0.00085564  0.33397529  1
  Ni  Ni21  1  0.66610860  0.33253475  1.00020662  1
  Cr  Cr22  1  0.83377592  0.49987677  0.16703003  1
  Ni  Ni23  1  0.66425264  0.33479518  0.33263377  1
  Ni  Ni24  1  0.66861632  0.66683709  0.99876381  1
  Fe  Fe25  1  0.83625544  0.83445615  0.16603884  1
  Ni  Ni26  1  0.66604752  0.66557408  0.33494731  1
  Ni  Ni27  1  0.16839344  0.16518747  0.50018853  1
  Ni  Ni28  1  0.00121464  0.99943969  0.66725332  1
  Ni  Ni29  1  0.16549845  0.16914042  0.83266775  1
  Cr  Cr30  1  0.16790582  0.49986869  0.49994396  1
  Ni  Ni31  1  0.00295045  0.33270800  0.66929969  1
  Ni  Ni32  1  0.16637626  0.49889144  0.83320592  1
  Ni  Ni33  1  0.16723226  0.83530700  0.50046298  1
  Ni  Ni34  1  0.00045281  0.66881492  0.66837236  1
  Fe  Fe35  1  0.16576130  0.83406618  0.83199456  1
  Ni  Ni36  1  0.49730734  0.16634176  0.50024290  1
  Ni  Ni37  1  0.33362429  1.00029108  0.66629721  1
  Ni  Ni38  1  0.50058784  0.16671257  0.83404204  1
  Ni  Ni39  1  0.49983660  0.50189666  0.49881338  1
  Ni  Ni40  1  0.33282467  0.33279224  0.66768041  1
  Ni  Ni41  1  0.49953092  0.50114020  0.83404256  1
  Ni  Ni42  1  0.49989931  0.83272473  0.50162722  1
  Ni  Ni43  1  0.33446822  0.66788005  0.66747138  1
  Ni  Ni44  1  0.50328054  0.83310996  0.83158124  1
  Cr  Cr45  1  0.83560385  0.16596114  0.50042865  1
  Ni  Ni46  1  0.66612403  0.99779523  0.66792532  1
  Ni  Ni47  1  0.83487681  0.16539155  0.83478843  1
  Cr  Cr48  1  0.83329383  0.50218822  0.50004940  1
  Cr  Cr49  1  0.66554239  0.33348532  0.66768213  1
  Fe  Fe50  1  0.83410471  0.50075360  0.83449667  1
  Ni  Ni51  1  0.83383159  0.83278050  0.50040756  1
  Ni  Ni52  1  0.66604087  0.66961362  0.66725085  1
  Ni  Ni53  1  0.83262775  0.83398816  0.83426414  1
" 