3682,Ni77Fe4Cr17_4,-232.107114855172, 162.40171562885,Ni77Fe4Cr17,"# generated using pymatgen
 data_Cr11Fe2Ni41
_symmetry_space_group_name_H-M   'P 1'
_cell_length_a   7.47040711
_cell_length_b   7.47040711
_cell_length_c   10.56475105
_cell_angle_alpha   90.00000000
_cell_angle_beta   90.00000000
_cell_angle_gamma   90.00000000
_symmetry_Int_Tables_number   1
_chemical_formula_structural   Cr11Fe2Ni41
_chemical_formula_sum   'Cr11 Fe2 Ni41'
_cell_volume   589.58687527
_cell_formula_units_Z   1
loop_
 _symmetry_equiv_pos_site_id
 _symmetry_equiv_pos_as_xyz
  1  'x, y, z'
loop_
 _atom_site_type_symbol
 _atom_site_label
 _atom_site_symmetry_multiplicity
 _atom_site_fract_x
 _atom_site_fract_y
 _atom_site_fract_z
 _atom_site_occupancy
  Ni  Ni0  1  0.99784376  -0.00007733  0.99960726  1
  Cr  Cr1  1  0.16706818  0.16658378  0.16634630  1
  Cr  Cr2  1  0.99957445  -0.00005032  0.33592017  1
  Ni  Ni3  1  0.99666988  0.33379742  0.99903746  1
  Cr  Cr4  1  0.16325376  0.49864027  0.16600733  1
  Ni  Ni5  1  0.99625094  0.33343705  0.33415588  1
  Ni  Ni6  1  0.99733778  0.66564164  0.99920747  1
  Ni  Ni7  1  0.16759782  0.83495704  0.16513238  1
  Ni  Ni8  1  0.99729326  0.66568644  0.33353169  1
  Ni  Ni9  1  0.33472301  0.00127899  0.00266581  1
  Fe  Fe10  1  0.50201838  0.16657422  0.16602879  1
  Ni  Ni11  1  0.33461693  0.99931561  0.33271500  1
  Ni  Ni12  1  0.33594113  0.33248432  0.99864398  1
  Ni  Ni13  1  0.50372276  0.49832620  0.16632878  1
  Ni  Ni14  1  0.33534447  0.33179204  0.33293984  1
  Cr  Cr15  1  0.33414005  0.66514790  0.00018660  1
  Ni  Ni16  1  0.50061167  0.83495164  0.16658284  1
  Cr  Cr17  1  0.33480419  0.66859754  0.33318070  1
  Ni  Ni18  1  0.66684861  0.00194669  0.99972766  1
  Ni  Ni19  1  0.83087020  0.16903443  0.16491944  1
  Ni  Ni20  1  0.66501121  0.00017314  0.33295516  1
  Ni  Ni21  1  0.66669619  0.33312516  0.00002890  1
  Ni  Ni22  1  0.83063824  0.49785312  0.16686233  1
  Ni  Ni23  1  0.66789379  0.33419408  0.33184988  1
  Ni  Ni24  1  0.66806368  0.66437374  -0.00002182  1
  Cr  Cr25  1  0.83151837  0.83129376  0.16502388  1
  Ni  Ni26  1  0.66674623  0.66501695  0.33412102  1
  Ni  Ni27  1  0.16590458  0.16565017  0.50051554  1
  Ni  Ni28  1  0.99791579  0.99967617  0.66444674  1
  Cr  Cr29  1  0.16769817  0.16822666  0.83247770  1
  Cr  Cr30  1  0.16523564  0.49739047  0.50079583  1
  Ni  Ni31  1  0.99779061  0.33289519  0.66607142  1
  Ni  Ni32  1  0.16481609  0.49758377  0.83264500  1
  Ni  Ni33  1  0.16630143  0.83528035  0.50135316  1
  Ni  Ni34  1  0.99823060  0.66669656  0.66659216  1
  Cr  Cr35  1  0.16337211  0.83276107  0.83309883  1
  Cr  Cr36  1  0.49946037  0.16673779  0.49927996  1
  Ni  Ni37  1  0.33279227  0.99954329  0.66392604  1
  Ni  Ni38  1  0.50075765  0.16831923  0.83438529  1
  Ni  Ni39  1  0.50289535  0.50053750  0.50106258  1
  Ni  Ni40  1  0.33423204  0.33440627  0.66781207  1
  Ni  Ni41  1  0.50148709  0.49630590  0.83184775  1
  Ni  Ni42  1  0.50141758  0.83289064  0.50058055  1
  Ni  Ni43  1  0.33399698  0.66533749  0.66556850  1
  Cr  Cr44  1  0.50384689  0.83482142  0.83144273  1
  Ni  Ni45  1  0.83387919  0.16732081  0.50120658  1
  Ni  Ni46  1  0.66863258  0.00003373  0.66656611  1
  Fe  Fe47  1  0.83114327  0.16703307  0.83306568  1
  Ni  Ni48  1  0.83140308  0.50008319  0.49859592  1
  Ni  Ni49  1  0.66728557  0.33413112  0.66749916  1
  Ni  Ni50  1  0.83299315  0.50068835  0.83385349  1
  Ni  Ni51  1  0.83158221  0.83198075  0.50091107  1
  Ni  Ni52  1  0.66712094  0.66522610  0.66516871  1
  Ni  Ni53  1  0.83256772  0.83220529  0.83340461  1
" 