871,Ni77Fe18Cr4_3,-239.080758957897, 196.62949494495,Ni77Fe18Cr4,"# generated using pymatgen
 data_Cr4Fe9Ni41
_symmetry_space_group_name_H-M   'P 1'
_cell_length_a   7.43403140
_cell_length_b   7.43403140
_cell_length_c   10.51330803
_cell_angle_alpha   90.00000000
_cell_angle_beta   90.00000000
_cell_angle_gamma   90.00000000
_symmetry_Int_Tables_number   1
_chemical_formula_structural   Cr4Fe9Ni41
_chemical_formula_sum   'Cr4 Fe9 Ni41'
_cell_volume   581.01610609
_cell_formula_units_Z   1
loop_
 _symmetry_equiv_pos_site_id
 _symmetry_equiv_pos_as_xyz
  1  'x, y, z'
loop_
 _atom_site_type_symbol
 _atom_site_label
 _atom_site_symmetry_multiplicity
 _atom_site_fract_x
 _atom_site_fract_y
 _atom_site_fract_z
 _atom_site_occupancy
  Ni  Ni0  1  1.00175353  0.00308920  1.00208616  1
  Ni  Ni1  1  0.16929698  0.16746891  0.16855565  1
  Ni  Ni2  1  1.00162164  0.00374530  0.33648635  1
  Ni  Ni3  1  0.00315686  0.33431896  1.00206916  1
  Ni  Ni4  1  0.17043016  0.50332309  0.16855218  1
  Ni  Ni5  1  0.00463210  0.33315223  0.33559275  1
  Ni  Ni6  1  0.00368516  0.66919877  1.00161626  1
  Ni  Ni7  1  0.16859119  0.83581123  0.16863409  1
  Ni  Ni8  1  0.00538131  0.66996418  0.33584464  1
  Ni  Ni9  1  0.33591454  0.00238306  0.00229521  1
  Ni  Ni10  1  0.50223093  0.16886173  0.16856906  1
  Fe  Fe11  1  0.33407440  1.00074719  0.33432783  1
  Ni  Ni12  1  0.33547531  0.33609079  0.00284888  1
  Ni  Ni13  1  0.50119598  0.50179373  0.16919442  1
  Fe  Fe14  1  0.33409641  0.33712832  0.33418332  1
  Ni  Ni15  1  0.33590215  0.66818516  1.00207578  1
  Ni  Ni16  1  0.50138219  0.83588401  0.16829076  1
  Ni  Ni17  1  0.33577304  0.66799615  0.33566954  1
  Ni  Ni18  1  0.66905609  0.00259236  0.00270848  1
  Ni  Ni19  1  0.83505914  0.16731558  0.16876504  1
  Ni  Ni20  1  0.66996860  1.00199972  0.33435778  1
  Ni  Ni21  1  0.66790378  0.33426125  1.00118676  1
  Cr  Cr22  1  0.83510848  0.50285431  0.16814957  1
  Ni  Ni23  1  0.66837452  0.33406434  0.33506732  1
  Ni  Ni24  1  0.66720443  0.66989580  1.00159936  1
  Ni  Ni25  1  0.83653751  0.83684535  0.16921482  1
  Ni  Ni26  1  0.66538710  0.67078033  0.33583714  1
  Ni  Ni27  1  0.16809736  0.16721362  0.50329080  1
  Ni  Ni28  1  0.00358856  0.00373407  0.66832526  1
  Fe  Fe29  1  0.16827516  0.16837348  0.83604082  1
  Ni  Ni30  1  0.17054232  0.50337761  0.50283838  1
  Ni  Ni31  1  0.00347235  0.33449112  0.66924909  1
  Fe  Fe32  1  0.16798336  0.50257607  0.83603472  1
  Ni  Ni33  1  0.16876996  0.83586033  0.50239844  1
  Ni  Ni34  1  0.00363450  0.66851454  0.66909954  1
  Ni  Ni35  1  0.16869815  0.83606791  0.83541913  1
  Cr  Cr36  1  0.50144651  0.17051996  0.50114228  1
  Ni  Ni37  1  0.33398806  1.00099747  0.66952750  1
  Ni  Ni38  1  0.50079897  0.17034705  0.83657433  1
  Ni  Ni39  1  0.50099266  0.50314680  0.50235525  1
  Fe  Fe40  1  0.33402814  0.33678761  0.66994374  1
  Ni  Ni41  1  0.50270171  0.50119064  0.83516367  1
  Fe  Fe42  1  0.50018414  0.83392192  0.50108895  1
  Ni  Ni43  1  0.33621250  0.66875257  0.66893934  1
  Fe  Fe44  1  0.50234990  0.83487395  0.83703664  1
  Ni  Ni45  1  0.83714708  0.16853125  0.50172098  1
  Cr  Cr46  1  0.67007832  1.00080855  0.66970730  1
  Ni  Ni47  1  0.83533119  0.16967297  0.83620285  1
  Cr  Cr48  1  0.83481143  0.50226840  0.50203563  1
  Fe  Fe49  1  0.66956483  0.33677063  0.67052547  1
  Ni  Ni50  1  0.83457205  0.50289063  0.83536339  1
  Fe  Fe51  1  0.83750722  0.83573925  0.50136054  1
  Ni  Ni52  1  0.66675500  0.66846951  0.66896880  1
  Ni  Ni53  1  0.83918812  0.83426415  0.83578200  1
" 