5800,Ni77Fe18Cr4_4,-239.218728191339, 196.384283056473,Ni77Fe18Cr4,"# generated using pymatgen
 data_Cr4Fe9Ni41
_symmetry_space_group_name_H-M   'P 1'
_cell_length_a   7.43387229
_cell_length_b   7.43387229
_cell_length_c   10.51308301
_cell_angle_alpha   90.00000000
_cell_angle_beta   90.00000000
_cell_angle_gamma   90.00000000
_symmetry_Int_Tables_number   1
_chemical_formula_structural   Cr4Fe9Ni41
_chemical_formula_sum   'Cr4 Fe9 Ni41'
_cell_volume   580.97879972
_cell_formula_units_Z   1
loop_
 _symmetry_equiv_pos_site_id
 _symmetry_equiv_pos_as_xyz
  1  'x, y, z'
loop_
 _atom_site_type_symbol
 _atom_site_label
 _atom_site_symmetry_multiplicity
 _atom_site_fract_x
 _atom_site_fract_y
 _atom_site_fract_z
 _atom_site_occupancy
  Ni  Ni0  1  1.00159938  1.00221677  1.00206807  1
  Ni  Ni1  1  0.16722176  0.16827543  0.16972244  1
  Ni  Ni2  1  1.00187423  0.00297438  0.33486627  1
  Ni  Ni3  1  0.00257926  0.33458343  0.00313824  1
  Fe  Fe4  1  0.16782580  0.50137629  0.16820047  1
  Ni  Ni5  1  1.00183145  0.33473710  0.33491075  1
  Ni  Ni6  1  0.00378934  0.66989256  0.00378293  1
  Ni  Ni7  1  0.16786346  0.83723993  0.16812218  1
  Fe  Fe8  1  1.00068679  0.66914501  0.33532478  1
  Ni  Ni9  1  0.33421539  0.99965553  0.00275168  1
  Cr  Cr10  1  0.50156425  0.16918364  0.16987106  1
  Ni  Ni11  1  0.33458235  0.00234356  0.33598567  1
  Ni  Ni12  1  0.33430761  0.33822001  0.00250110  1
  Ni  Ni13  1  0.50406281  0.50257946  0.16779708  1
  Ni  Ni14  1  0.33462820  0.33536675  0.33603125  1
  Ni  Ni15  1  0.33566834  0.66882289  1.00180429  1
  Ni  Ni16  1  0.50253274  0.83451393  0.16773708  1
  Cr  Cr17  1  0.33640532  0.66907486  0.33486302  1
  Ni  Ni18  1  0.67087968  1.00085637  0.00233811  1
  Ni  Ni19  1  0.83769246  0.16980146  0.16756501  1
  Ni  Ni20  1  0.67023502  1.00111770  0.33615309  1
  Ni  Ni21  1  0.66980670  0.33603175  0.00340931  1
  Ni  Ni22  1  0.83497666  0.50193769  0.17015397  1
  Ni  Ni23  1  0.67023212  0.33663660  0.33620584  1
  Fe  Fe24  1  0.66790047  0.66969419  0.00320649  1
  Ni  Ni25  1  0.83629835  0.83495318  0.16950853  1
  Ni  Ni26  1  0.66960368  0.66893945  0.33470485  1
  Fe  Fe27  1  0.16942853  0.16899802  0.50215924  1
  Ni  Ni28  1  1.00188932  1.00212964  0.66975762  1
  Ni  Ni29  1  0.16767767  0.16810513  0.83494408  1
  Ni  Ni30  1  0.16841527  0.50163862  0.50361242  1
  Ni  Ni31  1  0.00291816  0.33475969  0.66864486  1
  Fe  Fe32  1  0.17081094  0.50298624  0.83504573  1
  Ni  Ni33  1  0.16861826  0.83620189  0.50340639  1
  Ni  Ni34  1  0.00344369  0.66980451  0.66743775  1
  Ni  Ni35  1  0.16855692  0.83670603  0.83516307  1
  Fe  Fe36  1  0.50178483  0.16889135  0.50220882  1
  Ni  Ni37  1  0.33479222  1.00053246  0.66796005  1
  Cr  Cr38  1  0.50148619  0.16939044  0.83516728  1
  Ni  Ni39  1  0.50298797  0.50127550  0.50356864  1
  Ni  Ni40  1  0.33483623  0.33743065  0.66816652  1
  Ni  Ni41  1  0.50146798  0.50323458  0.83532419  1
  Ni  Ni42  1  0.50224522  0.83602458  0.50336343  1
  Ni  Ni43  1  0.33590616  0.66873324  0.66962355  1
  Ni  Ni44  1  0.50174800  0.83403424  0.83559120  1
  Ni  Ni45  1  0.83546465  0.16959802  0.50296129  1
  Ni  Ni46  1  0.67001165  1.00105652  0.66820357  1
  Fe  Fe47  1  0.83677864  0.16663661  0.83546992  1
  Fe  Fe48  1  0.83543534  0.50244395  0.50217045  1
  Ni  Ni49  1  0.66894144  0.33587559  0.66707973  1
  Cr  Cr50  1  0.83491952  0.50227820  0.83461759  1
  Fe  Fe51  1  0.83532841  0.83528853  0.50252776  1
  Ni  Ni52  1  0.66734384  0.66975957  0.66868713  1
  Ni  Ni53  1  0.83639291  0.83650987  0.83490776  1
" 