5377,Ni77Cr23_0,-208.680004215642, 155.71937767389,Ni77Cr23,"# generated using pymatgen
 data_Cr41Ni13
_symmetry_space_group_name_H-M   'P 1'
_cell_length_a   7.57060708
_cell_length_b   7.57060708
_cell_length_c   10.70645521
_cell_angle_alpha   90.00000000
_cell_angle_beta   90.00000000
_cell_angle_gamma   90.00000000
_symmetry_Int_Tables_number   1
_chemical_formula_structural   Cr41Ni13
_chemical_formula_sum   'Cr41 Ni13'
_cell_volume   613.63075374
_cell_formula_units_Z   1
loop_
 _symmetry_equiv_pos_site_id
 _symmetry_equiv_pos_as_xyz
  1  'x, y, z'
loop_
 _atom_site_type_symbol
 _atom_site_label
 _atom_site_symmetry_multiplicity
 _atom_site_fract_x
 _atom_site_fract_y
 _atom_site_fract_z
 _atom_site_occupancy
  Cr  Cr0  1  0.99124245  -0.00601881  0.99224129  1
  Cr  Cr1  1  0.15640278  0.15793841  0.16169681  1
  Ni  Ni2  1  0.99146429  -0.00552159  0.32877100  1
  Cr  Cr3  1  0.99283322  0.32521669  -0.00503995  1
  Cr  Cr4  1  0.15896158  0.49463700  0.15909086  1
  Cr  Cr5  1  0.99272509  0.32549896  0.32639886  1
  Cr  Cr6  1  0.99204688  0.66049259  0.98946552  1
  Cr  Cr7  1  0.15795303  0.82721486  0.16185928  1
  Cr  Cr8  1  0.99283191  0.65913437  0.33146026  1
  Cr  Cr9  1  0.32930821  -0.00615112  0.99287301  1
  Cr  Cr10  1  0.49629374  0.15888699  0.15964814  1
  Cr  Cr11  1  0.32555295  -0.00503279  0.32728288  1
  Cr  Cr12  1  0.32552595  0.32542109  -0.00647453  1
  Cr  Cr13  1  0.49499583  0.49453507  0.15902580  1
  Cr  Cr14  1  0.32480618  0.32646355  0.32751609  1
  Cr  Cr15  1  0.32707567  0.66051325  -0.00638293  1
  Cr  Cr16  1  0.49449166  0.82538070  0.15953887  1
  Cr  Cr17  1  0.32549730  0.65873017  0.32723019  1
  Ni  Ni18  1  0.66308114  0.98996369  -0.00670441  1
  Ni  Ni19  1  0.82673482  0.15612836  0.16003077  1
  Cr  Cr20  1  0.66242675  0.99300257  0.32612761  1
  Cr  Cr21  1  0.66096616  0.32255100  -0.00601382  1
  Cr  Cr22  1  0.82539466  0.49258174  0.15899050  1
  Cr  Cr23  1  0.66206525  0.32548665  0.32737936  1
  Ni  Ni24  1  0.66162885  0.66320681  0.99151123  1
  Cr  Cr25  1  0.82751064  0.82711983  0.16015179  1
  Cr  Cr26  1  0.66175175  0.66024021  0.33104038  1
  Ni  Ni27  1  0.15786409  0.16059521  0.49521369  1
  Ni  Ni28  1  -0.00661002  0.99300855  0.65799054  1
  Cr  Cr29  1  0.16002539  0.15936786  0.82187569  1
  Ni  Ni30  1  0.15843137  0.48994922  0.49454388  1
  Cr  Cr31  1  0.99269150  0.32703209  0.65851107  1
  Cr  Cr32  1  0.16060843  0.49185789  0.82634316  1
  Cr  Cr33  1  0.15829390  0.83025315  0.49299783  1
  Cr  Cr34  1  0.99136781  0.66150198  0.65912792  1
  Cr  Cr35  1  0.15730363  0.82953803  0.82431782  1
  Cr  Cr36  1  0.49153173  0.16043271  0.49705557  1
  Ni  Ni37  1  0.32287702  -0.00314925  0.65805521  1
  Cr  Cr38  1  0.49306646  0.16021407  0.82189309  1
  Cr  Cr39  1  0.49423241  0.49110935  0.49485346  1
  Ni  Ni40  1  0.32541947  0.32458577  0.65666895  1
  Cr  Cr41  1  0.49429580  0.49154848  0.82541572  1
  Cr  Cr42  1  0.49338117  0.82793696  0.49291916  1
  Cr  Cr43  1  0.32500621  0.65979784  0.65875463  1
  Cr  Cr44  1  0.49365884  0.82707676  0.82735598  1
  Cr  Cr45  1  0.82826013  0.15942679  0.49351240  1
  Cr  Cr46  1  0.66151762  0.99176522  0.66022861  1
  Cr  Cr47  1  0.82632874  0.15834315  0.82583131  1
  Ni  Ni48  1  0.82866412  0.49360993  0.49499788  1
  Ni  Ni49  1  0.65901638  0.32719502  0.65813346  1
  Cr  Cr50  1  0.82413475  0.49401512  0.82667914  1
  Ni  Ni51  1  0.83010327  0.82711470  0.49384932  1
  Cr  Cr52  1  0.66261136  0.66041008  0.65811310  1
  Ni  Ni53  1  0.82501265  0.82850602  0.82670948  1
" 