7538,Ni77Fe2Cr20_18,-231.043353586135, 152.210781430277,Ni77Fe2Cr20,"# generated using pymatgen
 data_Cr12FeNi41
_symmetry_space_group_name_H-M   'P 1'
_cell_length_a   7.47594103
_cell_length_b   7.47594103
_cell_length_c   10.57257720
_cell_angle_alpha   90.00000000
_cell_angle_beta   90.00000000
_cell_angle_gamma   90.00000000
_symmetry_Int_Tables_number   1
_chemical_formula_structural   Cr12FeNi41
_chemical_formula_sum   'Cr12 Fe1 Ni41'
_cell_volume   590.89810796
_cell_formula_units_Z   1
loop_
 _symmetry_equiv_pos_site_id
 _symmetry_equiv_pos_as_xyz
  1  'x, y, z'
loop_
 _atom_site_type_symbol
 _atom_site_label
 _atom_site_symmetry_multiplicity
 _atom_site_fract_x
 _atom_site_fract_y
 _atom_site_fract_z
 _atom_site_occupancy
  Cr  Cr0  1  0.99822903  0.99919979  -0.00031190  1
  Ni  Ni1  1  0.16662087  0.16561571  0.16829819  1
  Ni  Ni2  1  -0.00042767  -0.00021507  0.33223424  1
  Cr  Cr3  1  0.00002944  0.33038588  0.99692699  1
  Cr  Cr4  1  0.16739048  0.50007897  0.16826073  1
  Ni  Ni5  1  -0.00041004  0.33044116  0.33460639  1
  Cr  Cr6  1  -0.00005217  0.66871837  0.99862433  1
  Ni  Ni7  1  0.16585245  0.83388694  0.16898293  1
  Ni  Ni8  1  0.00062140  0.66827957  0.33466496  1
  Cr  Cr9  1  0.33083782  -0.00005974  0.99887932  1
  Ni  Ni10  1  0.50029418  0.16626583  0.16751403  1
  Ni  Ni11  1  0.33202112  0.00061356  0.33389109  1
  Ni  Ni12  1  0.33337681  0.33251015  0.99891956  1
  Cr  Cr13  1  0.49791043  0.49688287  0.16515345  1
  Ni  Ni14  1  0.33290591  0.33062226  0.33394668  1
  Ni  Ni15  1  0.33177078  0.66573866  0.99654756  1
  Cr  Cr16  1  0.49820802  0.83437150  0.16626099  1
  Ni  Ni17  1  0.33093153  0.66693393  0.33524224  1
  Ni  Ni18  1  0.66725703  0.00115135  -0.00027320  1
  Ni  Ni19  1  0.83129478  0.16458102  0.16721121  1
  Ni  Ni20  1  0.66673979  0.00166143  0.33318898  1
  Ni  Ni21  1  0.66543832  0.33035515  0.99870563  1
  Cr  Cr22  1  0.83333088  0.49723108  0.16867483  1
  Ni  Ni23  1  0.66569782  0.32959130  0.33450930  1
  Cr  Cr24  1  0.66721898  0.66771379  0.99678780  1
  Ni  Ni25  1  0.83417481  0.83711091  0.16835022  1
  Cr  Cr26  1  0.66734040  0.66718884  0.33600783  1
  Ni  Ni27  1  0.16373725  0.16472922  0.49879860  1
  Ni  Ni28  1  -0.00038198  -0.00043819  0.66644846  1
  Ni  Ni29  1  0.16464315  0.16570367  0.83067230  1
  Ni  Ni30  1  0.16521025  0.49991284  0.49836414  1
  Ni  Ni31  1  0.99840299  0.33254905  0.66617375  1
  Ni  Ni32  1  0.16684801  0.50031461  0.83184733  1
  Ni  Ni33  1  0.16613806  0.83335403  0.49922307  1
  Ni  Ni34  1  0.99912151  0.66609811  0.66561418  1
  Ni  Ni35  1  0.16675429  0.83197899  0.83004076  1
  Fe  Fe36  1  0.50021993  0.16466195  0.49893052  1
  Ni  Ni37  1  0.33150934  0.99721042  0.66499843  1
  Cr  Cr38  1  0.50142462  0.16481652  0.83182024  1
  Ni  Ni39  1  0.49923259  0.50007873  0.49929238  1
  Cr  Cr40  1  0.33162095  0.33308465  0.66469471  1
  Ni  Ni41  1  0.49938727  0.50036535  0.83317180  1
  Ni  Ni42  1  0.49849478  0.83351927  0.50081847  1
  Ni  Ni43  1  0.33309575  0.66690644  0.66631297  1
  Ni  Ni44  1  0.49946348  0.83161153  0.83102080  1
  Ni  Ni45  1  0.83356608  0.16560025  0.49963806  1
  Ni  Ni46  1  0.66705458  0.99815375  0.66528862  1
  Ni  Ni47  1  0.83238074  0.16556058  0.83120952  1
  Ni  Ni48  1  0.83385271  0.49794357  0.50030962  1
  Ni  Ni49  1  0.66798297  0.33398318  0.66526484  1
  Ni  Ni50  1  0.83188548  0.49823570  0.82981674  1
  Ni  Ni51  1  0.83368932  0.83467808  0.49998337  1
  Ni  Ni52  1  0.66598974  0.66592515  0.66609132  1
  Ni  Ni53  1  0.83195358  0.83448796  0.83023123  1
" 