1078,Ni77Cr23_2,-208.580752386602, 153.519754306656,Ni77Cr23,"# generated using pymatgen
 data_Cr41Ni13
_symmetry_space_group_name_H-M   'P 1'
_cell_length_a   7.57477252
_cell_length_b   7.57477252
_cell_length_c   10.71234603
_cell_angle_alpha   90.00000000
_cell_angle_beta   90.00000000
_cell_angle_gamma   90.00000000
_symmetry_Int_Tables_number   1
_chemical_formula_structural   Cr41Ni13
_chemical_formula_sum   'Cr41 Ni13'
_cell_volume   614.64419229
_cell_formula_units_Z   1
loop_
 _symmetry_equiv_pos_site_id
 _symmetry_equiv_pos_as_xyz
  1  'x, y, z'
loop_
 _atom_site_type_symbol
 _atom_site_label
 _atom_site_symmetry_multiplicity
 _atom_site_fract_x
 _atom_site_fract_y
 _atom_site_fract_z
 _atom_site_occupancy
  Cr  Cr0  1  -0.00673261  0.99237261  -0.00680027  1
  Cr  Cr1  1  0.16029015  0.15995830  0.16108518  1
  Cr  Cr2  1  -0.00517695  0.99163632  0.32592286  1
  Cr  Cr3  1  0.99250428  0.32602224  0.99124486  1
  Cr  Cr4  1  0.16157087  0.49361460  0.15946604  1
  Cr  Cr5  1  -0.00614615  0.32599223  0.32624448  1
  Cr  Cr6  1  -0.00563990  0.66032239  -0.00551406  1
  Ni  Ni7  1  0.16265055  0.82516774  0.15832108  1
  Cr  Cr8  1  0.99229106  0.66107106  0.32458551  1
  Cr  Cr9  1  0.32668743  0.99025427  -0.00686057  1
  Cr  Cr10  1  0.49306062  0.15781779  0.15956691  1
  Cr  Cr11  1  0.32602164  -0.00604416  0.32693872  1
  Cr  Cr12  1  0.32629988  0.32710098  0.99170850  1
  Cr  Cr13  1  0.49194777  0.49550757  0.15959206  1
  Ni  Ni14  1  0.32742506  0.32526070  0.32978543  1
  Ni  Ni15  1  0.32866394  0.66207450  -0.00495283  1
  Ni  Ni16  1  0.49299271  0.82404672  0.15706508  1
  Cr  Cr17  1  0.32765811  0.65928987  0.32462529  1
  Ni  Ni18  1  0.65831609  0.98935563  -0.00603661  1
  Cr  Cr19  1  0.82533500  0.15844926  0.15815100  1
  Cr  Cr20  1  0.65784384  0.99241623  0.32587965  1
  Cr  Cr21  1  0.65980960  0.32610184  -0.00710599  1
  Cr  Cr22  1  0.82517428  0.49393762  0.15981841  1
  Cr  Cr23  1  0.65616555  0.32782787  0.32775228  1
  Ni  Ni24  1  0.65647509  0.66276300  -0.00621036  1
  Cr  Cr25  1  0.82332760  0.82625559  0.15965238  1
  Ni  Ni26  1  0.65732219  0.65919476  0.32650013  1
  Ni  Ni27  1  0.16189104  0.16211272  0.49335148  1
  Cr  Cr28  1  -0.00496448  -0.00515174  0.65954546  1
  Ni  Ni29  1  0.15810695  0.16085342  0.82459649  1
  Cr  Cr30  1  0.16114536  0.48965204  0.49257932  1
  Ni  Ni31  1  -0.00525208  0.32411955  0.65987519  1
  Cr  Cr32  1  0.15994220  0.49105645  0.82656403  1
  Cr  Cr33  1  0.15937364  0.82770281  0.49286475  1
  Cr  Cr34  1  0.99148868  0.65854042  0.65952898  1
  Cr  Cr35  1  0.16119022  0.82645713  0.82662045  1
  Ni  Ni36  1  0.48955542  0.16277423  0.49173146  1
  Cr  Cr37  1  0.32537896  -0.00494288  0.65861450  1
  Cr  Cr38  1  0.49226147  0.15783328  0.82779934  1
  Ni  Ni39  1  0.49383634  0.49166988  0.49183145  1
  Cr  Cr40  1  0.32621065  0.32448523  0.65776704  1
  Cr  Cr41  1  0.49283359  0.49602648  0.82715762  1
  Cr  Cr42  1  0.49492791  0.82471846  0.49385318  1
  Cr  Cr43  1  0.32827611  0.65904718  0.65964793  1
  Cr  Cr44  1  0.49462790  0.82480508  0.82809376  1
  Cr  Cr45  1  0.82753687  0.15955727  0.49312781  1
  Cr  Cr46  1  0.65828551  -0.00706236  0.65905954  1
  Cr  Cr47  1  0.82768403  0.15908636  0.82724479  1
  Cr  Cr48  1  0.82457554  0.49433966  0.49375069  1
  Cr  Cr49  1  0.65892557  0.32798799  0.65803604  1
  Cr  Cr50  1  0.82593213  0.49358273  0.82492578  1
  Cr  Cr51  1  0.82431868  0.82485516  0.49355277  1
  Ni  Ni52  1  0.65891693  0.65814145  0.65839065  1
  Cr  Cr53  1  0.82287567  0.82600300  0.82548280  1
" 