5316,Ni77Fe12Cr9_6,-237.022832998213, 181.608976698884,Ni77Fe12Cr9,"# generated using pymatgen
 data_CrFeNi7
_symmetry_space_group_name_H-M   'P 1'
_cell_length_a   7.44796715
_cell_length_b   7.44796715
_cell_length_c   10.53301616
_cell_angle_alpha   90.00000000
_cell_angle_beta   90.00000000
_cell_angle_gamma   90.00000000
_symmetry_Int_Tables_number   1
_chemical_formula_structural   CrFeNi7
_chemical_formula_sum   'Cr6 Fe6 Ni42'
_cell_volume   584.28973383
_cell_formula_units_Z   6
loop_
 _symmetry_equiv_pos_site_id
 _symmetry_equiv_pos_as_xyz
  1  'x, y, z'
loop_
 _atom_site_type_symbol
 _atom_site_label
 _atom_site_symmetry_multiplicity
 _atom_site_fract_x
 _atom_site_fract_y
 _atom_site_fract_z
 _atom_site_occupancy
  Ni  Ni0  1  0.00162636  0.00193856  0.00160763  1
  Ni  Ni1  1  0.16755289  0.16859655  0.16882800  1
  Ni  Ni2  1  0.00271013  0.00317168  0.33432162  1
  Ni  Ni3  1  0.00195177  0.33354259  0.99980215  1
  Ni  Ni4  1  0.16817174  0.49952380  0.16701613  1
  Ni  Ni5  1  1.00100518  0.33250747  0.33609516  1
  Ni  Ni6  1  0.00144503  0.66820641  1.00051704  1
  Ni  Ni7  1  0.16891325  0.83574724  0.16634154  1
  Cr  Cr8  1  0.00187490  0.66875768  0.33441902  1
  Ni  Ni9  1  0.33326494  0.00366548  1.00080440  1
  Ni  Ni10  1  0.50012011  0.16886939  0.16645642  1
  Ni  Ni11  1  0.33339134  0.00201900  0.33550011  1
  Ni  Ni12  1  0.33459063  0.33379295  1.00075919  1
  Ni  Ni13  1  0.50015536  0.49993830  0.16717964  1
  Ni  Ni14  1  0.33527562  0.33410601  0.33473794  1
  Ni  Ni15  1  0.33346352  0.66657453  0.00173899  1
  Ni  Ni16  1  0.49924637  0.83499229  0.16574171  1
  Ni  Ni17  1  0.33421478  0.66786142  0.33498873  1
  Ni  Ni18  1  0.66888348  0.00305785  0.00134690  1
  Ni  Ni19  1  0.83619867  0.16958228  0.16654449  1
  Cr  Cr20  1  0.66872610  0.00379433  0.33332837  1
  Ni  Ni21  1  0.66710200  0.33388374  0.00161160  1
  Ni  Ni22  1  0.83540239  0.49847879  0.16596086  1
  Ni  Ni23  1  0.66767630  0.33374559  0.33432683  1
  Ni  Ni24  1  0.66880909  0.66691750  0.00174125  1
  Ni  Ni25  1  0.83565866  0.83575960  0.16490859  1
  Cr  Cr26  1  0.66659810  0.66603800  0.33529864  1
  Fe  Fe27  1  0.16817112  0.16814801  0.50129947  1
  Ni  Ni28  1  0.00134757  0.00310536  0.66776852  1
  Ni  Ni29  1  0.16782810  0.16868226  0.83338303  1
  Ni  Ni30  1  0.16869519  0.49888205  0.50026733  1
  Fe  Fe31  1  0.00193500  0.33474036  0.66817055  1
  Ni  Ni32  1  0.16821971  0.49887244  0.83668882  1
  Ni  Ni33  1  0.16847267  0.83676060  0.50076313  1
  Cr  Cr34  1  1.00106546  0.66951062  0.66847691  1
  Ni  Ni35  1  0.16537770  0.83645255  0.83699349  1
  Ni  Ni36  1  0.50150050  0.16910157  0.50237043  1
  Fe  Fe37  1  0.33387589  0.00274695  0.66827693  1
  Ni  Ni38  1  0.50119403  0.17037708  0.83493786  1
  Ni  Ni39  1  0.50096892  0.49881392  0.50120737  1
  Ni  Ni40  1  0.33580998  0.33242669  0.66817678  1
  Ni  Ni41  1  0.50180582  0.49861643  0.83542306  1
  Ni  Ni42  1  0.50034569  0.83598478  0.50278868  1
  Cr  Cr43  1  0.33441595  0.66497461  0.66760901  1
  Cr  Cr44  1  0.50269773  0.83505408  0.83567935  1
  Ni  Ni45  1  0.83497098  0.16903781  0.50271347  1
  Fe  Fe46  1  0.66859041  0.00232476  0.66789260  1
  Fe  Fe47  1  0.83490340  0.16784661  0.83496513  1
  Ni  Ni48  1  0.83427451  0.49787646  0.50282063  1
  Ni  Ni49  1  0.66641237  0.33403183  0.66814454  1
  Fe  Fe50  1  0.83323793  0.50090320  0.83568771  1
  Ni  Ni51  1  0.83489165  0.83708019  0.50307523  1
  Ni  Ni52  1  0.66882640  0.66589355  0.66655152  1
  Ni  Ni53  1  0.83530615  0.83585572  0.83511503  1
" 