890,Ni77Fe4Cr17_3,-232.294357861087, 162.975251346472,Ni77Fe4Cr17,"# generated using pymatgen
 data_Cr11Fe2Ni41
_symmetry_space_group_name_H-M   'P 1'
_cell_length_a   7.46629343
_cell_length_b   7.46629343
_cell_length_c   10.55893343
_cell_angle_alpha   90.00000000
_cell_angle_beta   90.00000000
_cell_angle_gamma   90.00000000
_symmetry_Int_Tables_number   1
_chemical_formula_structural   Cr11Fe2Ni41
_chemical_formula_sum   'Cr11 Fe2 Ni41'
_cell_volume   588.61342063
_cell_formula_units_Z   1
loop_
 _symmetry_equiv_pos_site_id
 _symmetry_equiv_pos_as_xyz
  1  'x, y, z'
loop_
 _atom_site_type_symbol
 _atom_site_label
 _atom_site_symmetry_multiplicity
 _atom_site_fract_x
 _atom_site_fract_y
 _atom_site_fract_z
 _atom_site_occupancy
  Ni  Ni0  1  0.99902769  0.00309764  0.99941093  1
  Ni  Ni1  1  0.16718885  0.16731365  0.16670114  1
  Ni  Ni2  1  0.99930426  0.00113274  0.33395910  1
  Ni  Ni3  1  0.00068206  0.32919435  0.99944496  1
  Cr  Cr4  1  0.16666694  0.49800312  0.16812175  1
  Ni  Ni5  1  0.99979215  0.33002167  0.33302897  1
  Cr  Cr6  1  0.99861925  0.66863095  0.99862620  1
  Cr  Cr7  1  0.16859746  0.83645099  0.16786002  1
  Ni  Ni8  1  0.99996334  0.66902752  0.33461528  1
  Ni  Ni9  1  0.33417510  0.00149667  0.99820012  1
  Ni  Ni10  1  0.50053529  0.16575879  0.16722256  1
  Ni  Ni11  1  0.33387213  0.00145794  0.33558223  1
  Ni  Ni12  1  0.33420404  0.33227156  0.99923261  1
  Fe  Fe13  1  0.50116732  0.49853967  0.16531814  1
  Ni  Ni14  1  0.33396523  0.33030148  0.33232069  1
  Ni  Ni15  1  0.33746044  0.66636435  0.99762257  1
  Ni  Ni16  1  0.50090114  0.83526605  0.16579079  1
  Ni  Ni17  1  0.33350958  0.66838529  0.33390498  1
  Ni  Ni18  1  0.66695489  0.99970294  0.99976935  1
  Ni  Ni19  1  0.83243574  0.16754479  0.16673999  1
  Ni  Ni20  1  0.66696152  0.00159794  0.33407089  1
  Ni  Ni21  1  0.66523835  0.33240633  0.00054561  1
  Ni  Ni22  1  0.83218565  0.49776558  0.16719579  1
  Ni  Ni23  1  0.66639508  0.32968723  0.33232461  1
  Ni  Ni24  1  0.66366330  0.66796976  0.00103927  1
  Ni  Ni25  1  0.83088791  0.83485952  0.16674167  1
  Cr  Cr26  1  0.66686318  0.66896111  0.33073884  1
  Ni  Ni27  1  0.16680228  0.16482584  0.49729747  1
  Cr  Cr28  1  0.99949011  0.00027996  0.66706321  1
  Ni  Ni29  1  0.16680490  0.16701244  0.83622900  1
  Cr  Cr30  1  0.16504737  0.50144673  0.49924054  1
  Ni  Ni31  1  0.00012459  0.33165194  0.66764848  1
  Ni  Ni32  1  0.16830631  0.50039268  0.83270180  1
  Ni  Ni33  1  0.16812510  0.83388441  0.49899708  1
  Ni  Ni34  1  0.00319367  0.66855159  0.66704894  1
  Ni  Ni35  1  0.16923154  0.83277990  0.83309237  1
  Ni  Ni36  1  0.50155438  0.16319393  0.49928237  1
  Fe  Fe37  1  0.33465596  0.99882180  0.66675031  1
  Ni  Ni38  1  0.50134582  0.16547213  0.83369578  1
  Cr  Cr39  1  0.49960143  0.49862581  0.49866800  1
  Cr  Cr40  1  0.33337397  0.33173432  0.66870452  1
  Ni  Ni41  1  0.49809112  0.50011719  0.83611257  1
  Ni  Ni42  1  0.49777341  0.83771333  0.50022902  1
  Ni  Ni43  1  0.33169840  0.66918413  0.66862229  1
  Ni  Ni44  1  0.49870028  0.83450854  0.83411014  1
  Ni  Ni45  1  0.83183600  0.16595864  0.49925963  1
  Ni  Ni46  1  0.66598378  0.00167680  0.66631634  1
  Ni  Ni47  1  0.83202732  0.16627993  0.83418506  1
  Cr  Cr48  1  0.83552997  0.49740049  0.50097335  1
  Ni  Ni49  1  0.66673433  0.32839824  0.66731139  1
  Cr  Cr50  1  0.83358176  0.49737129  0.83195877  1
  Ni  Ni51  1  0.83428214  0.83621827  0.49874271  1
  Cr  Cr52  1  0.66533164  0.67012525  0.66772365  1
  Ni  Ni53  1  0.83228185  0.83589209  0.83463347  1
" 