5939,Ni77Fe4Cr17_6,-232.144524014275, 162.728618721855,Ni77Fe4Cr17,"# generated using pymatgen
 data_Cr11Fe2Ni41
_symmetry_space_group_name_H-M   'P 1'
_cell_length_a   7.47015547
_cell_length_b   7.47015547
_cell_length_c   10.56439518
_cell_angle_alpha   90.00000000
_cell_angle_beta   90.00000000
_cell_angle_gamma   90.00000000
_symmetry_Int_Tables_number   1
_chemical_formula_structural   Cr11Fe2Ni41
_chemical_formula_sum   'Cr11 Fe2 Ni41'
_cell_volume   589.52729721
_cell_formula_units_Z   1
loop_
 _symmetry_equiv_pos_site_id
 _symmetry_equiv_pos_as_xyz
  1  'x, y, z'
loop_
 _atom_site_type_symbol
 _atom_site_label
 _atom_site_symmetry_multiplicity
 _atom_site_fract_x
 _atom_site_fract_y
 _atom_site_fract_z
 _atom_site_occupancy
  Ni  Ni0  1  0.00053217  0.99968351  0.99808436  1
  Ni  Ni1  1  0.16640706  0.16836107  0.16672035  1
  Cr  Cr2  1  0.99925854  0.00188360  0.33353601  1
  Cr  Cr3  1  0.00020203  0.33187631  0.00143158  1
  Ni  Ni4  1  0.16700401  0.49686721  0.16610163  1
  Ni  Ni5  1  0.99895104  0.33329723  0.33185009  1
  Ni  Ni6  1  0.00048693  0.66801320  0.99920452  1
  Cr  Cr7  1  0.16863298  0.83428008  0.16458576  1
  Cr  Cr8  1  0.99827731  0.66355449  0.33423417  1
  Ni  Ni9  1  0.33235349  0.99938296  0.99886552  1
  Cr  Cr10  1  0.49903942  0.16640192  0.16746411  1
  Ni  Ni11  1  0.33557535  0.00078939  0.33363278  1
  Ni  Ni12  1  0.33411894  0.33369926  0.99925942  1
  Ni  Ni13  1  0.50073373  0.50038154  0.16550699  1
  Ni  Ni14  1  0.33304611  0.33267318  0.33245216  1
  Ni  Ni15  1  0.33442000  0.66629368  0.99893231  1
  Ni  Ni16  1  0.50047654  0.83211033  0.16621835  1
  Cr  Cr17  1  0.33526955  0.66621828  0.33396176  1
  Fe  Fe18  1  0.66619355  0.99943828  0.99810166  1
  Ni  Ni19  1  0.83367494  0.16861784  0.16677290  1
  Ni  Ni20  1  0.66463118  0.00007581  0.33438798  1
  Ni  Ni21  1  0.66476934  0.33374560  -0.00008814  1
  Ni  Ni22  1  0.83163757  0.49805132  0.16732115  1
  Ni  Ni23  1  0.66737947  0.33360595  0.33387808  1
  Ni  Ni24  1  0.66446952  0.66624806  0.00063887  1
  Cr  Cr25  1  0.83032208  0.83254274  0.16480025  1
  Ni  Ni26  1  0.66525761  0.66569397  0.33351558  1
  Cr  Cr27  1  0.16560917  0.16703649  0.49815188  1
  Ni  Ni28  1  0.99703291  0.99880300  0.66754558  1
  Ni  Ni29  1  0.16595545  0.16526823  0.83455675  1
  Ni  Ni30  1  0.16588260  0.50048812  0.50046278  1
  Ni  Ni31  1  0.99782022  0.33312027  0.66603903  1
  Ni  Ni32  1  0.16857735  0.50115631  0.83281219  1
  Ni  Ni33  1  0.16689984  0.83186647  0.50150245  1
  Ni  Ni34  1  0.00056052  0.66745281  0.66555659  1
  Ni  Ni35  1  0.16584401  0.83295230  0.83361647  1
  Fe  Fe36  1  0.50311213  0.16641112  0.49831757  1
  Cr  Cr37  1  0.33368869  0.99738164  0.66679009  1
  Ni  Ni38  1  0.50090467  0.16653934  0.83414723  1
  Ni  Ni39  1  0.50149476  0.50066022  0.49967273  1
  Cr  Cr40  1  0.33402331  0.33560249  0.66810455  1
  Ni  Ni41  1  0.49859582  0.50019802  0.83419614  1
  Ni  Ni42  1  0.50132840  0.83254532  0.49894067  1
  Ni  Ni43  1  0.33275175  0.66644183  0.66658383  1
  Ni  Ni44  1  0.50005820  0.83263865  0.83421596  1
  Ni  Ni45  1  0.83132066  0.16718754  0.50052002  1
  Ni  Ni46  1  0.66889264  0.99972682  0.66670814  1
  Ni  Ni47  1  0.83251667  0.16380627  0.83208301  1
  Ni  Ni48  1  0.83199836  0.49892634  0.49987623  1
  Ni  Ni49  1  0.66788248  0.33241867  0.66558583  1
  Cr  Cr50  1  0.83221028  0.50059976  0.83183780  1
  Ni  Ni51  1  0.83114789  0.83326193  0.50144203  1
  Ni  Ni52  1  0.66606412  0.66722959  0.66522085  1
  Ni  Ni53  1  0.83347363  0.83526065  0.83291042  1
" 