6187,Ni77Fe12Cr9_11,-237.033215702333, 184.906224410811,Ni77Fe12Cr9,"# generated using pymatgen
 data_CrFeNi7
_symmetry_space_group_name_H-M   'P 1'
_cell_length_a   7.44814519
_cell_length_b   7.44814519
_cell_length_c   10.53326794
_cell_angle_alpha   90.00000000
_cell_angle_beta   90.00000000
_cell_angle_gamma   90.00000000
_symmetry_Int_Tables_number   1
_chemical_formula_structural   CrFeNi7
_chemical_formula_sum   'Cr6 Fe6 Ni42'
_cell_volume   584.33163487
_cell_formula_units_Z   6
loop_
 _symmetry_equiv_pos_site_id
 _symmetry_equiv_pos_as_xyz
  1  'x, y, z'
loop_
 _atom_site_type_symbol
 _atom_site_label
 _atom_site_symmetry_multiplicity
 _atom_site_fract_x
 _atom_site_fract_y
 _atom_site_fract_z
 _atom_site_occupancy
  Ni  Ni0  1  0.00160327  0.99913883  0.00271416  1
  Ni  Ni1  1  0.16726183  0.16672179  0.16922754  1
  Ni  Ni2  1  1.00108276  1.00096036  0.33391764  1
  Cr  Cr3  1  0.00303541  0.33448529  0.00190743  1
  Ni  Ni4  1  0.16878440  0.50195909  0.16931481  1
  Ni  Ni5  1  0.00232743  0.33518574  0.33463193  1
  Ni  Ni6  1  0.00168862  0.66878242  0.00152592  1
  Ni  Ni7  1  0.16723117  0.83547737  0.16797844  1
  Ni  Ni8  1  1.00030277  0.66808445  0.33432416  1
  Ni  Ni9  1  0.33424104  1.00036491  0.00127860  1
  Cr  Cr10  1  0.50046556  0.16747139  0.16784082  1
  Ni  Ni11  1  0.33479984  1.00126267  0.33497429  1
  Ni  Ni12  1  0.33418386  0.33423246  0.00169890  1
  Ni  Ni13  1  0.50121859  0.50250778  0.16779565  1
  Ni  Ni14  1  0.33375664  0.33542967  0.33542388  1
  Ni  Ni15  1  0.33307741  0.66918157  0.00289232  1
  Ni  Ni16  1  0.50135667  0.83333097  0.16754456  1
  Fe  Fe17  1  0.33287420  0.67007800  0.33413761  1
  Ni  Ni18  1  0.66795341  1.00000552  1.00014136  1
  Ni  Ni19  1  0.83578552  0.16650153  0.16859343  1
  Ni  Ni20  1  0.66819545  0.99915804  0.33607531  1
  Ni  Ni21  1  0.66817191  0.33398960  0.00254063  1
  Ni  Ni22  1  0.83386518  0.50213451  0.16881733  1
  Fe  Fe23  1  0.66967479  0.33317308  0.33442914  1
  Ni  Ni24  1  0.66907143  0.66964721  0.00309093  1
  Ni  Ni25  1  0.83488773  0.83477371  0.16849645  1
  Fe  Fe26  1  0.66775278  0.66876210  0.33436486  1
  Ni  Ni27  1  0.16745625  0.16742699  0.50085262  1
  Ni  Ni28  1  0.00136633  0.00238035  0.66744938  1
  Ni  Ni29  1  0.16928261  0.16627079  0.83370369  1
  Fe  Fe30  1  0.16715745  0.50184788  0.50017004  1
  Ni  Ni31  1  0.00316114  0.33339642  0.66730259  1
  Ni  Ni32  1  0.16826494  0.50078995  0.83304499  1
  Ni  Ni33  1  0.16817709  0.83800115  0.50062404  1
  Cr  Cr34  1  0.00213409  0.66810747  0.66805778  1
  Ni  Ni35  1  0.16842015  0.83638667  0.83507713  1
  Fe  Fe36  1  0.50100413  0.16569235  0.50060067  1
  Ni  Ni37  1  0.33499050  1.00106423  0.66723642  1
  Ni  Ni38  1  0.49906081  0.16602783  0.83434916  1
  Ni  Ni39  1  0.49982697  0.50123862  0.49891656  1
  Ni  Ni40  1  0.33257665  0.33364945  0.66619822  1
  Cr  Cr41  1  0.49992735  0.50207255  0.83772197  1
  Ni  Ni42  1  0.49986245  0.83403075  0.50094312  1
  Ni  Ni43  1  0.33380408  0.66892971  0.66616551  1
  Ni  Ni44  1  0.50010256  0.83719388  0.83532628  1
  Ni  Ni45  1  0.83777244  0.16694713  0.50094614  1
  Ni  Ni46  1  0.66753682  1.00094763  0.66757876  1
  Fe  Fe47  1  0.83547299  0.16561263  0.83498577  1
  Ni  Ni48  1  0.83384035  0.49996322  0.49870841  1
  Cr  Cr49  1  0.66875903  0.33233986  0.66738141  1
  Ni  Ni50  1  0.83591287  0.50165187  0.83659585  1
  Ni  Ni51  1  0.83523115  0.83641540  0.49967914  1
  Cr  Cr52  1  0.66753719  0.67121078  0.66722759  1
  Ni  Ni53  1  0.83523445  0.83612686  0.83600112  1
" 