1205,Ni78Fe11Cr9_9,-236.887640473335, 181.897108800655,Ni78Fe11Cr9,"# generated using pymatgen
 data_CrFeNi7
_symmetry_space_group_name_H-M   'P 1'
_cell_length_a   7.44830327
_cell_length_b   7.44830327
_cell_length_c   10.53349150
_cell_angle_alpha   90.00000000
_cell_angle_beta   90.00000000
_cell_angle_gamma   90.00000000
_symmetry_Int_Tables_number   1
_chemical_formula_structural   CrFeNi7
_chemical_formula_sum   'Cr6 Fe6 Ni42'
_cell_volume   584.36884239
_cell_formula_units_Z   6
loop_
 _symmetry_equiv_pos_site_id
 _symmetry_equiv_pos_as_xyz
  1  'x, y, z'
loop_
 _atom_site_type_symbol
 _atom_site_label
 _atom_site_symmetry_multiplicity
 _atom_site_fract_x
 _atom_site_fract_y
 _atom_site_fract_z
 _atom_site_occupancy
  Ni  Ni0  1  0.99905812  1.00098812  1.00022440  1
  Ni  Ni1  1  0.16689631  0.16688383  0.16846744  1
  Ni  Ni2  1  1.00085475  1.00103751  0.33473672  1
  Cr  Cr3  1  1.00089171  0.33353605  0.00230379  1
  Ni  Ni4  1  0.16806876  0.50089929  0.16989189  1
  Ni  Ni5  1  0.99905726  0.33391194  0.33520607  1
  Cr  Cr6  1  0.99907853  0.66965215  0.00258616  1
  Ni  Ni7  1  0.16659868  0.83593764  0.17059428  1
  Ni  Ni8  1  1.00070172  0.66872546  0.33495328  1
  Cr  Cr9  1  0.33395175  0.00205298  0.00183343  1
  Ni  Ni10  1  0.50335599  0.16818531  0.16748479  1
  Fe  Fe11  1  0.33454504  1.00030311  0.33498608  1
  Ni  Ni12  1  0.33647922  0.33452930  1.00063543  1
  Ni  Ni13  1  0.50352337  0.50100251  0.16696365  1
  Cr  Cr14  1  0.33562947  0.33499683  0.33479171  1
  Cr  Cr15  1  0.33595361  0.66634156  1.00109883  1
  Ni  Ni16  1  0.50369182  0.83461596  0.16954977  1
  Ni  Ni17  1  0.33536910  0.66945528  0.33521906  1
  Ni  Ni18  1  0.66947312  1.00084275  1.00105621  1
  Ni  Ni19  1  0.83363092  0.16673874  0.16787739  1
  Fe  Fe20  1  0.66939638  0.00141776  0.33500175  1
  Ni  Ni21  1  0.66649295  0.33494106  1.00124729  1
  Ni  Ni22  1  0.83215496  0.50140266  0.17022127  1
  Ni  Ni23  1  0.66940805  0.33512023  0.33504381  1
  Ni  Ni24  1  0.66799189  0.66802995  1.00104521  1
  Ni  Ni25  1  0.83355678  0.83557809  0.16826698  1
  Ni  Ni26  1  0.66764325  0.66772579  0.33476881  1
  Ni  Ni27  1  0.16587361  0.16794349  0.50140647  1
  Ni  Ni28  1  0.99953534  1.00072596  0.66864261  1
  Ni  Ni29  1  0.16759929  0.16899287  0.83392951  1
  Ni  Ni30  1  0.16684567  0.50176982  0.50229576  1
  Ni  Ni31  1  1.00072610  0.33449321  0.66683603  1
  Ni  Ni32  1  0.16828564  0.49944464  0.83186292  1
  Ni  Ni33  1  0.16644589  0.83391034  0.50047394  1
  Fe  Fe34  1  1.00014566  0.66763627  0.66735511  1
  Ni  Ni35  1  0.16542832  0.83501514  0.83281414  1
  Ni  Ni36  1  0.50331084  0.16822047  0.50127254  1
  Cr  Cr37  1  0.33530935  1.00124224  0.66660684  1
  Ni  Ni38  1  0.50256332  0.16956218  0.83481941  1
  Ni  Ni39  1  0.50234964  0.50171212  0.50267539  1
  Ni  Ni40  1  0.33507852  0.33605915  0.66836274  1
  Ni  Ni41  1  0.50277612  0.49960679  0.83407268  1
  Ni  Ni42  1  0.50269897  0.83374506  0.50020553  1
  Fe  Fe43  1  0.33498948  0.66710309  0.66744237  1
  Ni  Ni44  1  0.50480035  0.83423044  0.83380665  1
  Ni  Ni45  1  0.83479775  0.16776742  0.50212632  1
  Ni  Ni46  1  0.66947723  1.00074073  0.66732607  1
  Fe  Fe47  1  0.83337116  0.16778487  0.83331093  1
  Ni  Ni48  1  0.83459811  0.50118091  0.50047373  1
  Ni  Ni49  1  0.66790968  0.33477555  0.66741102  1
  Ni  Ni50  1  0.83267678  0.50187359  0.83323814  1
  Ni  Ni51  1  0.83479635  0.83466005  0.50132318  1
  Fe  Fe52  1  0.66863027  0.66782975  0.66758650  1
  Ni  Ni53  1  0.83347505  0.83506998  0.83421591  1
" 