8627,Ni78Fe2Cr18_14,-231.904890113223, 160.378398125822,Ni78Fe2Cr18,"# generated using pymatgen
 data_Cr11FeNi42
_symmetry_space_group_name_H-M   'P 1'
_cell_length_a   7.47284735
_cell_length_b   7.47284735
_cell_length_c   10.56820207
_cell_angle_alpha   90.00000000
_cell_angle_beta   90.00000000
_cell_angle_gamma   90.00000000
_symmetry_Int_Tables_number   1
_chemical_formula_structural   Cr11FeNi42
_chemical_formula_sum   'Cr11 Fe1 Ni42'
_cell_volume   590.16483745
_cell_formula_units_Z   1
loop_
 _symmetry_equiv_pos_site_id
 _symmetry_equiv_pos_as_xyz
  1  'x, y, z'
loop_
 _atom_site_type_symbol
 _atom_site_label
 _atom_site_symmetry_multiplicity
 _atom_site_fract_x
 _atom_site_fract_y
 _atom_site_fract_z
 _atom_site_occupancy
  Ni  Ni0  1  0.99880791  0.99864991  0.00070294  1
  Ni  Ni1  1  0.16624780  0.16790305  0.16600800  1
  Cr  Cr2  1  0.99905497  0.00045824  0.33211036  1
  Ni  Ni3  1  0.00061392  0.33362933  0.00084449  1
  Ni  Ni4  1  0.16594539  0.49734731  0.16617661  1
  Ni  Ni5  1  0.99879349  0.33457053  0.33255246  1
  Ni  Ni6  1  -0.00018041  0.66655708  0.99802371  1
  Cr  Cr7  1  0.16624288  0.83317718  0.16468860  1
  Ni  Ni8  1  0.99914275  0.66323400  0.33406208  1
  Ni  Ni9  1  0.33422200  0.99771487  -0.00023086  1
  Ni  Ni10  1  0.49932419  0.16431356  0.16803614  1
  Ni  Ni11  1  0.33633541  0.00067894  0.33294626  1
  Cr  Cr12  1  0.33227818  0.33395042  0.00108469  1
  Ni  Ni13  1  0.49894155  0.50025559  0.16696498  1
  Fe  Fe14  1  0.33410062  0.33247303  0.33226542  1
  Ni  Ni15  1  0.33353985  0.66716276  0.99851894  1
  Ni  Ni16  1  0.50213302  0.83426640  0.16542331  1
  Cr  Cr17  1  0.33353835  0.66608385  0.33411770  1
  Ni  Ni18  1  0.66580632  0.99692121  0.00089425  1
  Ni  Ni19  1  0.83326393  0.16471376  0.16639947  1
  Ni  Ni20  1  0.66365607  0.00102740  0.33187194  1
  Cr  Cr21  1  0.66613165  0.33294606  0.99865529  1
  Cr  Cr22  1  0.83363602  0.50094799  0.16709544  1
  Ni  Ni23  1  0.66612058  0.33215977  0.33431341  1
  Ni  Ni24  1  0.66547573  0.66896898  0.99945415  1
  Ni  Ni25  1  0.83035709  0.83396687  0.16513577  1
  Ni  Ni26  1  0.66576847  0.66564920  0.33229908  1
  Cr  Cr27  1  0.16705162  0.16649607  0.50053478  1
  Ni  Ni28  1  0.00001171  0.99843655  0.66626025  1
  Cr  Cr29  1  0.16707054  0.16549267  0.83257032  1
  Ni  Ni30  1  0.16500748  0.50065533  0.50033578  1
  Ni  Ni31  1  0.99878010  0.33501017  0.66543901  1
  Ni  Ni32  1  0.16533872  0.50228184  0.83232494  1
  Ni  Ni33  1  0.16784822  0.83125022  0.50178159  1
  Ni  Ni34  1  0.00274831  0.66538904  0.66674984  1
  Ni  Ni35  1  0.16635089  0.83106085  0.83242143  1
  Ni  Ni36  1  0.50127597  0.16607896  0.49982210  1
  Ni  Ni37  1  0.33422217  0.99821722  0.66612063  1
  Ni  Ni38  1  0.49966854  0.16464210  0.83097693  1
  Ni  Ni39  1  0.49988291  0.49808659  0.49955035  1
  Ni  Ni40  1  0.33455262  0.33432819  0.66587315  1
  Ni  Ni41  1  0.49898856  0.50072489  0.83232017  1
  Ni  Ni42  1  0.49789292  0.83467056  0.49923084  1
  Ni  Ni43  1  0.33080456  0.66629024  0.66641928  1
  Ni  Ni44  1  0.49882605  0.83346835  0.83418240  1
  Ni  Ni45  1  0.83052656  0.16891867  0.50044470  1
  Ni  Ni46  1  0.66460129  0.00218675  0.66606942  1
  Cr  Cr47  1  0.83232666  0.16587504  0.83177063  1
  Ni  Ni48  1  0.83394480  0.49727307  0.49874291  1
  Ni  Ni49  1  0.66550316  0.33159174  0.66524889  1
  Ni  Ni50  1  0.83450923  0.50144106  0.83281038  1
  Cr  Cr51  1  0.83301066  0.83257942  0.49901285  1
  Cr  Cr52  1  0.66534376  0.66513202  0.66713625  1
  Ni  Ni53  1  0.83365931  0.83174016  0.83448063  1
" 