4767,Ni78Fe11Cr10_13,-237.150523764819, 184.862958899628,Ni78Fe11Cr10,"# generated using pymatgen
 data_CrFeNi7
_symmetry_space_group_name_H-M   'P 1'
_cell_length_a   7.44757363
_cell_length_b   7.44757363
_cell_length_c   10.53245963
_cell_angle_alpha   90.00000000
_cell_angle_beta   90.00000000
_cell_angle_gamma   90.00000000
_symmetry_Int_Tables_number   1
_chemical_formula_structural   CrFeNi7
_chemical_formula_sum   'Cr6 Fe6 Ni42'
_cell_volume   584.19712321
_cell_formula_units_Z   6
loop_
 _symmetry_equiv_pos_site_id
 _symmetry_equiv_pos_as_xyz
  1  'x, y, z'
loop_
 _atom_site_type_symbol
 _atom_site_label
 _atom_site_symmetry_multiplicity
 _atom_site_fract_x
 _atom_site_fract_y
 _atom_site_fract_z
 _atom_site_occupancy
  Ni  Ni0  1  1.00075844  1.00027102  0.00154160  1
  Ni  Ni1  1  0.16874704  0.16758902  0.16840362  1
  Ni  Ni2  1  0.99896363  0.00133627  0.33364911  1
  Cr  Cr3  1  0.00243586  0.33408857  0.00181745  1
  Ni  Ni4  1  0.16810087  0.50203825  0.16904147  1
  Ni  Ni5  1  0.00248613  0.33421479  0.33303337  1
  Ni  Ni6  1  1.00121118  0.66921262  0.00163706  1
  Ni  Ni7  1  0.16629921  0.83429100  0.16796255  1
  Ni  Ni8  1  0.00240455  0.66836951  0.33380553  1
  Ni  Ni9  1  0.33452915  0.00250598  1.00091638  1
  Ni  Ni10  1  0.50123855  0.16964748  0.16771305  1
  Fe  Fe11  1  0.33422346  1.00075486  0.33474875  1
  Ni  Ni12  1  0.33562688  0.33482588  1.00108647  1
  Ni  Ni13  1  0.50156546  0.49966726  0.16777099  1
  Ni  Ni14  1  0.33445740  0.33650692  0.33399928  1
  Ni  Ni15  1  0.33446394  0.66658868  1.00088479  1
  Cr  Cr16  1  0.50082931  0.83490938  0.16769538  1
  Ni  Ni17  1  0.33403770  0.66557380  0.33551204  1
  Ni  Ni18  1  0.66863447  0.00142963  1.00044618  1
  Ni  Ni19  1  0.83393682  0.16784460  0.16929910  1
  Ni  Ni20  1  0.66977150  0.00175827  0.33601580  1
  Fe  Fe21  1  0.66650780  0.33436421  1.00105368  1
  Ni  Ni22  1  0.83425743  0.50211296  0.16875813  1
  Fe  Fe23  1  0.66787987  0.33387725  0.33393847  1
  Ni  Ni24  1  0.66824534  0.66812125  1.00056516  1
  Ni  Ni25  1  0.83630528  0.83396629  0.16754789  1
  Ni  Ni26  1  0.66747884  0.66909613  0.33482314  1
  Cr  Cr27  1  0.16891636  0.16755624  0.50155827  1
  Ni  Ni28  1  0.99971624  0.99963614  0.66873462  1
  Ni  Ni29  1  0.17010616  0.16650397  0.83426914  1
  Ni  Ni30  1  0.16886605  0.50337527  0.49985675  1
  Cr  Cr31  1  0.00217303  0.33408361  0.66932181  1
  Ni  Ni32  1  0.16748195  0.50241840  0.83502277  1
  Ni  Ni33  1  0.16787735  0.83307387  0.50076371  1
  Ni  Ni34  1  1.00050272  0.67006041  0.66848160  1
  Ni  Ni35  1  0.16816950  0.83499923  0.83519516  1
  Ni  Ni36  1  0.50290903  0.16695116  0.50193835  1
  Ni  Ni37  1  0.33593926  0.00262694  0.66837297  1
  Ni  Ni38  1  0.50120905  0.16705370  0.83426963  1
  Fe  Fe39  1  0.50040091  0.50097560  0.50014754  1
  Ni  Ni40  1  0.33673697  0.33380547  0.66883613  1
  Fe  Fe41  1  0.50153010  0.50013873  0.83575517  1
  Ni  Ni42  1  0.50216652  0.83604397  0.50068051  1
  Cr  Cr43  1  0.33454145  0.66746975  0.66739219  1
  Ni  Ni44  1  0.50145670  0.83614377  0.83522399  1
  Ni  Ni45  1  0.83142296  0.16596719  0.50075025  1
  Ni  Ni46  1  0.66826619  0.00163824  0.66746201  1
  Ni  Ni47  1  0.83260561  0.16773892  0.83387177  1
  Cr  Cr48  1  0.83507905  0.50211122  0.50056924  1
  Ni  Ni49  1  0.66569399  0.33302159  0.66854250  1
  Ni  Ni50  1  0.83374917  0.50266875  0.83445719  1
  Ni  Ni51  1  0.83387433  0.83531912  0.50229407  1
  Ni  Ni52  1  0.66868754  0.66926386  0.66853400  1
  Fe  Fe53  1  0.83512554  0.83499287  0.83463209  1
" 