6455,Ni78Fe22_8,-233.454632154096, 185.799639617779,Ni78Fe22,"# generated using pymatgen
 data_Fe7Ni2
_symmetry_space_group_name_H-M   'P 1'
_cell_length_a   7.40440641
_cell_length_b   7.40440641
_cell_length_c   10.47141197
_cell_angle_alpha   90.00000000
_cell_angle_beta   90.00000000
_cell_angle_gamma   90.00000000
_symmetry_Int_Tables_number   1
_chemical_formula_structural   Fe7Ni2
_chemical_formula_sum   'Fe42 Ni12'
_cell_volume   574.09761549
_cell_formula_units_Z   6
loop_
 _symmetry_equiv_pos_site_id
 _symmetry_equiv_pos_as_xyz
  1  'x, y, z'
loop_
 _atom_site_type_symbol
 _atom_site_label
 _atom_site_symmetry_multiplicity
 _atom_site_fract_x
 _atom_site_fract_y
 _atom_site_fract_z
 _atom_site_occupancy
  Fe  Fe0  1  1.00340221  0.00506786  1.00377228  1
  Fe  Fe1  1  0.17058015  0.17084968  0.17089664  1
  Fe  Fe2  1  1.00293925  0.00506975  0.33792931  1
  Ni  Ni3  1  0.00433923  0.33777603  1.00306651  1
  Fe  Fe4  1  0.17033466  0.50367177  0.17009881  1
  Ni  Ni5  1  0.00435383  0.33814373  0.33849975  1
  Fe  Fe6  1  0.00441767  0.67034088  1.00348550  1
  Fe  Fe7  1  0.17120263  0.83817389  0.17089775  1
  Fe  Fe8  1  1.00325576  0.67104736  0.33820751  1
  Fe  Fe9  1  0.33722921  0.00447058  0.00460185  1
  Fe  Fe10  1  0.50488075  0.16978050  0.17108068  1
  Fe  Fe11  1  0.33768145  0.00447167  0.33710254  1
  Fe  Fe12  1  0.33673990  0.33802583  1.00376399  1
  Fe  Fe13  1  0.50475120  0.50435262  0.17141512  1
  Fe  Fe14  1  0.33789552  0.33732057  0.33793306  1
  Fe  Fe15  1  0.33695522  0.67019076  0.00432496  1
  Ni  Ni16  1  0.50332325  0.83697929  0.17112189  1
  Fe  Fe17  1  0.33810491  0.67089460  0.33737271  1
  Fe  Fe18  1  0.67205460  0.00484389  0.00485248  1
  Ni  Ni19  1  0.83827434  0.17083675  0.17113257  1
  Ni  Ni20  1  0.67020369  1.00331902  0.33810404  1
  Fe  Fe21  1  0.67191772  0.33700726  1.00413485  1
  Fe  Fe22  1  0.83760818  0.50372638  0.17141238  1
  Fe  Fe23  1  0.67191866  0.33699818  0.33821364  1
  Fe  Fe24  1  0.67131938  0.67083587  0.00423429  1
  Fe  Fe25  1  0.83653879  0.83829918  0.17108074  1
  Fe  Fe26  1  0.67131968  0.67083263  0.33811391  1
  Fe  Fe27  1  0.16965093  0.17178105  0.50395643  1
  Fe  Fe28  1  1.00321453  1.00403995  0.67098771  1
  Fe  Fe29  1  0.16964292  0.17111822  0.83783631  1
  Fe  Fe30  1  0.16939222  0.50395700  0.50456809  1
  Fe  Fe31  1  1.00386167  0.33746680  0.67099744  1
  Ni  Ni32  1  0.17261850  0.50411922  0.83745432  1
  Fe  Fe33  1  0.16983275  0.83695460  0.50432385  1
  Fe  Fe34  1  1.00385492  0.67118459  0.67099638  1
  Fe  Fe35  1  0.16982581  0.83761860  0.83746829  1
  Fe  Fe36  1  0.50609413  0.17117220  0.50414391  1
  Fe  Fe37  1  0.33747031  1.00422896  0.67098643  1
  Fe  Fe38  1  0.50459836  0.17080141  0.83746861  1
  Ni  Ni39  1  0.50295699  0.50456197  0.50367828  1
  Fe  Fe40  1  0.33775188  0.33820602  0.67098821  1
  Fe  Fe41  1  0.50481953  0.50423019  0.83685691  1
  Fe  Fe42  1  0.50618092  0.83728667  0.50325006  1
  Fe  Fe43  1  0.33756554  0.67025603  0.67098885  1
  Fe  Fe44  1  0.50468868  0.83765830  0.83836730  1
  Ni  Ni45  1  0.83814518  0.17020075  0.50410451  1
  Fe  Fe46  1  0.67200671  1.00422639  0.67047193  1
  Ni  Ni47  1  0.83775033  0.16954657  0.83745615  1
  Ni  Ni48  1  0.83709850  0.50367712  0.50455668  1
  Fe  Fe49  1  0.67107838  0.33755861  0.67034152  1
  Fe  Fe50  1  0.83849906  0.50404785  0.83741250  1
  Ni  Ni51  1  0.83770297  0.83881324  0.50297293  1
  Fe  Fe52  1  0.67126973  0.67090654  0.67034119  1
  Ni  Ni53  1  0.83730644  0.83947430  0.83859518  1
" 