4675,Ni78Cr22_3,-207.910037205187, 160.259442512244,Ni78Cr22,"# generated using pymatgen
 data_Cr7Ni2
_symmetry_space_group_name_H-M   'P 1'
_cell_length_a   7.57653987
_cell_length_b   7.57653987
_cell_length_c   10.71484544
_cell_angle_alpha   90.00000000
_cell_angle_beta   90.00000000
_cell_angle_gamma   90.00000000
_symmetry_Int_Tables_number   1
_chemical_formula_structural   Cr7Ni2
_chemical_formula_sum   'Cr42 Ni12'
_cell_volume   615.07452126
_cell_formula_units_Z   6
loop_
 _symmetry_equiv_pos_site_id
 _symmetry_equiv_pos_as_xyz
  1  'x, y, z'
loop_
 _atom_site_type_symbol
 _atom_site_label
 _atom_site_symmetry_multiplicity
 _atom_site_fract_x
 _atom_site_fract_y
 _atom_site_fract_z
 _atom_site_occupancy
  Cr  Cr0  1  0.99142946  0.99033525  0.99112189  1
  Cr  Cr1  1  0.16160802  0.16012580  0.16100554  1
  Cr  Cr2  1  0.99267702  -0.00685336  0.32798872  1
  Cr  Cr3  1  0.99194873  0.32795714  -0.00648321  1
  Cr  Cr4  1  0.15723036  0.49277012  0.15878935  1
  Cr  Cr5  1  0.99209750  0.32561070  0.32637060  1
  Ni  Ni6  1  0.99078985  0.65967570  -0.00701684  1
  Cr  Cr7  1  0.15940557  0.82542772  0.15988721  1
  Cr  Cr8  1  0.99212703  0.65956604  0.32343621  1
  Cr  Cr9  1  0.32685665  -0.00694807  0.99236886  1
  Cr  Cr10  1  0.49271807  0.15737087  0.16012326  1
  Ni  Ni11  1  0.32778390  -0.00522931  0.32569245  1
  Cr  Cr12  1  0.32687910  0.32579105  -0.00718586  1
  Cr  Cr13  1  0.49322947  0.49167034  0.16026582  1
  Ni  Ni14  1  0.32720457  0.32464699  0.32673626  1
  Cr  Cr15  1  0.32471259  0.65948045  0.99240844  1
  Cr  Cr16  1  0.49382199  0.82928169  0.16044401  1
  Cr  Cr17  1  0.32692780  0.65901846  0.32725378  1
  Ni  Ni18  1  0.66056625  0.99181039  0.99201505  1
  Cr  Cr19  1  0.82399873  0.15953540  0.15970527  1
  Ni  Ni20  1  0.65814210  -0.00594369  0.32654501  1
  Cr  Cr21  1  0.65949279  0.32581641  -0.00611815  1
  Ni  Ni22  1  0.82744758  0.49379316  0.15825805  1
  Cr  Cr23  1  0.65875023  0.32619044  0.32655983  1
  Cr  Cr24  1  0.66220327  0.65999903  -0.00703953  1
  Cr  Cr25  1  0.82509826  0.82490768  0.15819464  1
  Cr  Cr26  1  0.65926780  0.65844241  0.32636971  1
  Cr  Cr27  1  0.15838110  0.16059027  0.49200094  1
  Cr  Cr28  1  0.99176418  -0.00563783  0.65921240  1
  Cr  Cr29  1  0.15893859  0.16096472  0.82532176  1
  Cr  Cr30  1  0.16106228  0.49185525  0.49410264  1
  Ni  Ni31  1  0.99200250  0.32554033  0.65867167  1
  Cr  Cr32  1  0.15839494  0.49304423  0.82542819  1
  Cr  Cr33  1  0.16110858  0.82588118  0.49222255  1
  Cr  Cr34  1  0.99231958  0.65988672  0.66045970  1
  Cr  Cr35  1  0.15843124  0.82431726  0.82620638  1
  Cr  Cr36  1  0.49355281  0.15943969  0.48946477  1
  Cr  Cr37  1  0.32491619  0.99111348  0.66027241  1
  Cr  Cr38  1  0.49350270  0.15819343  0.82874247  1
  Ni  Ni39  1  0.49182958  0.49353104  0.49386415  1
  Cr  Cr40  1  0.32604241  0.32844775  0.65949455  1
  Cr  Cr41  1  0.49239182  0.49415174  0.82363353  1
  Cr  Cr42  1  0.49303793  0.82482067  0.49255383  1
  Ni  Ni43  1  0.32867747  0.65807035  0.65857982  1
  Cr  Cr44  1  0.49511974  0.82597550  0.82532900  1
  Ni  Ni45  1  0.82609616  0.15961199  0.49293816  1
  Cr  Cr46  1  0.66164088  0.99166889  0.66008846  1
  Cr  Cr47  1  0.82588154  0.15823580  0.82551773  1
  Cr  Cr48  1  0.82532936  0.49134242  0.49429271  1
  Cr  Cr49  1  0.66051366  0.32789779  0.65787910  1
  Cr  Cr50  1  0.82753512  0.49466246  0.82601704  1
  Cr  Cr51  1  0.82417712  0.82750376  0.49281048  1
  Ni  Ni52  1  0.65757028  0.65895424  0.65962512  1
  Ni  Ni53  1  0.82517739  0.82549794  0.82738395  1
" 