3765,Ni78Cr22_4,-207.901874215385, 158.56132715,Ni78Cr22,"# generated using pymatgen
 data_Cr7Ni2
_symmetry_space_group_name_H-M   'P 1'
_cell_length_a   7.57485857
_cell_length_b   7.57485857
_cell_length_c   10.71246773
_cell_angle_alpha   90.00000000
_cell_angle_beta   90.00000000
_cell_angle_gamma   90.00000000
_symmetry_Int_Tables_number   1
_chemical_formula_structural   Cr7Ni2
_chemical_formula_sum   'Cr42 Ni12'
_cell_volume   614.66514142
_cell_formula_units_Z   6
loop_
 _symmetry_equiv_pos_site_id
 _symmetry_equiv_pos_as_xyz
  1  'x, y, z'
loop_
 _atom_site_type_symbol
 _atom_site_label
 _atom_site_symmetry_multiplicity
 _atom_site_fract_x
 _atom_site_fract_y
 _atom_site_fract_z
 _atom_site_occupancy
  Cr  Cr0  1  -0.00620655  -0.00446827  -0.00605426  1
  Ni  Ni1  1  0.15897259  0.16235221  0.15760243  1
  Cr  Cr2  1  -0.00488111  -0.00260969  0.32588667  1
  Ni  Ni3  1  -0.00591718  0.32660392  -0.00407412  1
  Cr  Cr4  1  0.15861985  0.49163916  0.15640547  1
  Cr  Cr5  1  0.99197639  0.32558020  0.32567849  1
  Ni  Ni6  1  0.99154068  0.65589059  -0.00581893  1
  Cr  Cr7  1  0.15805693  0.82494864  0.15920626  1
  Cr  Cr8  1  0.99159983  0.65556712  0.32595212  1
  Cr  Cr9  1  0.32564289  -0.00438747  -0.00546445  1
  Ni  Ni10  1  0.49168238  0.16145649  0.15825894  1
  Cr  Cr11  1  0.32373002  -0.00385698  0.32464261  1
  Ni  Ni12  1  0.32366581  0.32362367  -0.00516122  1
  Cr  Cr13  1  0.49154523  0.49137842  0.15931536  1
  Cr  Cr14  1  0.32379693  0.32314460  0.32539539  1
  Cr  Cr15  1  0.32485358  0.65965891  0.99148530  1
  Cr  Cr16  1  0.49351844  0.82645269  0.16103592  1
  Cr  Cr17  1  0.32465693  0.65932760  0.32734764  1
  Cr  Cr18  1  0.65914539  -0.00433675  -0.00628159  1
  Ni  Ni19  1  0.82794537  0.16291922  0.15813003  1
  Cr  Cr20  1  0.65980510  -0.00314903  0.32331793  1
  Cr  Cr21  1  0.66112693  0.32513234  -0.00451287  1
  Ni  Ni22  1  0.82850123  0.49026833  0.15745904  1
  Cr  Cr23  1  0.66290939  0.32646361  0.32425078  1
  Cr  Cr24  1  0.66134499  0.65764123  0.99181738  1
  Cr  Cr25  1  0.82719075  0.82598352  0.15904149  1
  Cr  Cr26  1  0.66222433  0.65537480  0.32767191  1
  Ni  Ni27  1  0.15822002  0.16105580  0.49619447  1
  Ni  Ni28  1  -0.00515001  -0.00375042  0.65821867  1
  Cr  Cr29  1  0.15800116  0.16333554  0.82461400  1
  Cr  Cr30  1  0.15923057  0.48908008  0.49415641  1
  Ni  Ni31  1  -0.00463005  0.32462324  0.65735887  1
  Cr  Cr32  1  0.15889155  0.48899694  0.82851771  1
  Cr  Cr33  1  0.15789718  0.82842862  0.49230064  1
  Cr  Cr34  1  0.99264974  0.65807250  0.65921247  1
  Cr  Cr35  1  0.15640031  0.82622878  0.82709798  1
  Cr  Cr36  1  0.49165442  0.16066165  0.49348694  1
  Cr  Cr37  1  0.32363175  -0.00634203  0.65927147  1
  Cr  Cr38  1  0.49126933  0.16259459  0.82634119  1
  Cr  Cr39  1  0.49203703  0.49089093  0.49335348  1
  Ni  Ni40  1  0.32225807  0.32471887  0.65858178  1
  Cr  Cr41  1  0.48957813  0.48933253  0.82601601  1
  Cr  Cr42  1  0.49392446  0.82715620  0.49121192  1
  Cr  Cr43  1  0.32565817  0.65903279  0.65984201  1
  Cr  Cr44  1  0.49372106  0.82685963  0.82641049  1
  Cr  Cr45  1  0.82870223  0.15970062  0.49547606  1
  Cr  Cr46  1  0.65992816  -0.00691015  0.66143456  1
  Cr  Cr47  1  0.82958601  0.16051811  0.82461352  1
  Ni  Ni48  1  0.82817679  0.49092335  0.49412301  1
  Cr  Cr49  1  0.66133534  0.32796727  0.65866255  1
  Cr  Cr50  1  0.83009092  0.49029677  0.82760394  1
  Cr  Cr51  1  0.82672353  0.82808743  0.49332508  1
  Cr  Cr52  1  0.66039491  0.65766362  0.65935052  1
  Cr  Cr53  1  0.82848819  0.82789375  0.82640666  1
" 