8698,Ni78Fe11Cr9_2,-237.287725117161, 185.522277267222,Ni78Fe11Cr9,"# generated using pymatgen
 data_CrFeNi7
_symmetry_space_group_name_H-M   'P 1'
_cell_length_a   7.44372711
_cell_length_b   7.44372711
_cell_length_c   10.52701983
_cell_angle_alpha   90.00000000
_cell_angle_beta   90.00000000
_cell_angle_gamma   90.00000000
_symmetry_Int_Tables_number   1
_chemical_formula_structural   CrFeNi7
_chemical_formula_sum   'Cr6 Fe6 Ni42'
_cell_volume   583.29241265
_cell_formula_units_Z   6
loop_
 _symmetry_equiv_pos_site_id
 _symmetry_equiv_pos_as_xyz
  1  'x, y, z'
loop_
 _atom_site_type_symbol
 _atom_site_label
 _atom_site_symmetry_multiplicity
 _atom_site_fract_x
 _atom_site_fract_y
 _atom_site_fract_z
 _atom_site_occupancy
  Cr  Cr0  1  0.00303639  1.00093888  0.99988677  1
  Ni  Ni1  1  0.16961521  0.16669921  0.16973893  1
  Fe  Fe2  1  0.00446278  0.00164889  0.33586300  1
  Ni  Ni3  1  1.00096514  0.33757570  1.00052865  1
  Fe  Fe4  1  0.16876260  0.50167823  0.16816461  1
  Ni  Ni5  1  0.00287799  0.33691048  0.33572983  1
  Ni  Ni6  1  0.00191697  0.66613218  0.00159950  1
  Ni  Ni7  1  0.17003236  0.83425956  0.16879378  1
  Ni  Ni8  1  0.00297417  0.66586970  0.33391068  1
  Ni  Ni9  1  0.33682617  1.00008767  0.00186976  1
  Ni  Ni10  1  0.49972191  0.16865539  0.16849750  1
  Ni  Ni11  1  0.33404748  1.00146189  0.33466704  1
  Cr  Cr12  1  0.33413481  0.33459059  1.00109717  1
  Ni  Ni13  1  0.50379216  0.50283487  0.16857182  1
  Ni  Ni14  1  0.33363508  0.33397527  0.33462854  1
  Ni  Ni15  1  0.33452337  0.67000711  1.00151685  1
  Ni  Ni16  1  0.49860900  0.83300792  0.16772455  1
  Ni  Ni17  1  0.33345827  0.66906604  0.33421580  1
  Ni  Ni18  1  0.66504987  1.00096488  1.00016509  1
  Cr  Cr19  1  0.83571473  0.17216190  0.16791205  1
  Cr  Cr20  1  0.66508700  1.00146256  0.33567796  1
  Ni  Ni21  1  0.66881531  0.33552604  1.00096297  1
  Ni  Ni22  1  0.83447083  0.50285257  0.16841723  1
  Ni  Ni23  1  0.66845148  0.33586702  0.33497813  1
  Ni  Ni24  1  0.66818550  0.66830319  0.00177439  1
  Fe  Fe25  1  0.83394891  0.83280972  0.16718889  1
  Ni  Ni26  1  0.66841768  0.66690025  0.33326069  1
  Ni  Ni27  1  0.16829923  0.16724994  0.50131419  1
  Ni  Ni28  1  0.00262574  0.00266851  0.66849074  1
  Ni  Ni29  1  0.16845144  0.16811639  0.83359818  1
  Fe  Fe30  1  0.16728246  0.50185985  0.50226026  1
  Ni  Ni31  1  1.00115878  0.33524158  0.66851379  1
  Ni  Ni32  1  0.16630616  0.50302966  0.83431014  1
  Ni  Ni33  1  0.17029690  0.83531524  0.50180088  1
  Ni  Ni34  1  0.00276627  0.66677518  0.66923097  1
  Ni  Ni35  1  0.16975299  0.83378920  0.83403066  1
  Ni  Ni36  1  0.49997061  0.16843565  0.50177518  1
  Ni  Ni37  1  0.33524546  1.00111866  0.66820553  1
  Ni  Ni38  1  0.50224201  0.16672928  0.83457030  1
  Cr  Cr39  1  0.50302512  0.50266771  0.50202005  1
  Fe  Fe40  1  0.33416384  0.33365405  0.66899947  1
  Fe  Fe41  1  0.50232843  0.50273671  0.83461496  1
  Ni  Ni42  1  0.49798575  0.83470274  0.50217029  1
  Ni  Ni43  1  0.33351189  0.67017944  0.66907328  1
  Ni  Ni44  1  0.50068378  0.83480400  0.83479587  1
  Ni  Ni45  1  0.83638688  0.17188544  0.50266757  1
  Ni  Ni46  1  0.66690243  0.00280286  0.66898251  1
  Ni  Ni47  1  0.83413557  0.17005123  0.83385634  1
  Ni  Ni48  1  0.83586033  0.49979395  0.50129663  1
  Ni  Ni49  1  0.67006122  0.33361549  0.66869310  1
  Ni  Ni50  1  0.83508327  0.50139051  0.83504471  1
  Cr  Cr51  1  0.83620026  0.83242204  0.50244473  1
  Ni  Ni52  1  0.66812745  0.66819882  0.66974979  1
  Ni  Ni53  1  0.83420106  0.83310667  0.83473620  1
" 