6820,Ni78Fe11Cr10_6,-237.045597547446, 186.6016754522,Ni78Fe11Cr10,"# generated using pymatgen
 data_CrFeNi7
_symmetry_space_group_name_H-M   'P 1'
_cell_length_a   7.44496292
_cell_length_b   7.44496292
_cell_length_c   10.52876753
_cell_angle_alpha   90.00000000
_cell_angle_beta   90.00000000
_cell_angle_gamma   90.00000000
_symmetry_Int_Tables_number   1
_chemical_formula_structural   CrFeNi7
_chemical_formula_sum   'Cr6 Fe6 Ni42'
_cell_volume   583.58297687
_cell_formula_units_Z   6
loop_
 _symmetry_equiv_pos_site_id
 _symmetry_equiv_pos_as_xyz
  1  'x, y, z'
loop_
 _atom_site_type_symbol
 _atom_site_label
 _atom_site_symmetry_multiplicity
 _atom_site_fract_x
 _atom_site_fract_y
 _atom_site_fract_z
 _atom_site_occupancy
  Ni  Ni0  1  0.00157631  0.00149571  0.00202575  1
  Fe  Fe1  1  0.16664527  0.16849339  0.16791484  1
  Fe  Fe2  1  0.00151825  1.00091962  0.33519497  1
  Ni  Ni3  1  0.00177971  0.33534244  1.00137051  1
  Ni  Ni4  1  0.16820923  0.50232202  0.16811305  1
  Ni  Ni5  1  0.00275300  0.33464441  0.33391088  1
  Ni  Ni6  1  1.00075169  0.66761168  1.00130154  1
  Ni  Ni7  1  0.16807336  0.83373468  0.16790365  1
  Ni  Ni8  1  1.00071178  0.66843830  0.33412288  1
  Ni  Ni9  1  0.33477612  0.00163154  0.99994421  1
  Cr  Cr10  1  0.50170953  0.16744463  0.16636794  1
  Ni  Ni11  1  0.33449682  1.00080528  0.33644573  1
  Ni  Ni12  1  0.33335679  0.33399123  0.00197574  1
  Ni  Ni13  1  0.50004673  0.50396130  0.16731549  1
  Ni  Ni14  1  0.33271680  0.33437973  0.33483280  1
  Fe  Fe15  1  0.33417608  0.66878592  0.00266657  1
  Ni  Ni16  1  0.50133540  0.83324907  0.16877810  1
  Ni  Ni17  1  0.33531578  0.66926441  0.33353083  1
  Ni  Ni18  1  0.66809746  1.00060355  1.00078860  1
  Ni  Ni19  1  0.83668153  0.16710435  0.16724850  1
  Ni  Ni20  1  0.66815470  0.99876595  0.33528796  1
  Ni  Ni21  1  0.66931235  0.33481592  1.00106583  1
  Ni  Ni22  1  0.83619222  0.50238368  0.16735062  1
  Cr  Cr23  1  0.66912529  0.33578683  0.33611644  1
  Ni  Ni24  1  0.66944832  0.66902930  0.00287914  1
  Ni  Ni25  1  0.83504022  0.83496070  0.16789437  1
  Ni  Ni26  1  0.66842182  0.67021957  0.33505781  1
  Ni  Ni27  1  0.16793720  0.16505884  0.50028959  1
  Ni  Ni28  1  0.00354680  1.00141021  0.66746570  1
  Ni  Ni29  1  0.16718093  0.16715825  0.83558354  1
  Cr  Cr30  1  0.16766009  0.50273887  0.50117577  1
  Ni  Ni31  1  0.99897908  0.33462484  0.66916728  1
  Ni  Ni32  1  0.16527840  0.50222812  0.83547758  1
  Ni  Ni33  1  0.16800384  0.83670577  0.50253379  1
  Ni  Ni34  1  1.00055849  0.66841493  0.66902657  1
  Fe  Fe35  1  0.16822157  0.83543596  0.83434852  1
  Ni  Ni36  1  0.50082027  0.16766037  0.50155475  1
  Ni  Ni37  1  0.33313593  1.00002531  0.66806023  1
  Ni  Ni38  1  0.50150384  0.16557377  0.83626455  1
  Ni  Ni39  1  0.50328253  0.50248518  0.50157209  1
  Cr  Cr40  1  0.33489255  0.33266982  0.66755464  1
  Cr  Cr41  1  0.50234856  0.50210841  0.83567933  1
  Fe  Fe42  1  0.50087346  0.83425922  0.50062332  1
  Ni  Ni43  1  0.33451506  0.67140892  0.66828147  1
  Ni  Ni44  1  0.50021799  0.83627989  0.83527779  1
  Ni  Ni45  1  0.83569167  0.16778708  0.50186177  1
  Cr  Cr46  1  0.66751091  0.00214065  0.66832467  1
  Ni  Ni47  1  0.83576459  0.16912880  0.83534001  1
  Ni  Ni48  1  0.83329035  0.50241870  0.50302663  1
  Ni  Ni49  1  0.67076042  0.33600427  0.66719703  1
  Ni  Ni50  1  0.83697981  0.50094312  0.83407275  1
  Ni  Ni51  1  0.83589312  0.83424296  0.50068523  1
  Ni  Ni52  1  0.66937548  0.66683915  0.66651288  1
  Fe  Fe53  1  0.83544717  0.83415599  0.83573038  1
" 