6140,Ni78Cr22_16,-207.818856630227, 158.022217977205,Ni78Cr22,"# generated using pymatgen
 data_Cr7Ni2
_symmetry_space_group_name_H-M   'P 1'
_cell_length_a   7.57831613
_cell_length_b   7.57831613
_cell_length_c   10.71735745
_cell_angle_alpha   90.00000000
_cell_angle_beta   90.00000000
_cell_angle_gamma   90.00000000
_symmetry_Int_Tables_number   1
_chemical_formula_structural   Cr7Ni2
_chemical_formula_sum   'Cr42 Ni12'
_cell_volume   615.50721942
_cell_formula_units_Z   6
loop_
 _symmetry_equiv_pos_site_id
 _symmetry_equiv_pos_as_xyz
  1  'x, y, z'
loop_
 _atom_site_type_symbol
 _atom_site_label
 _atom_site_symmetry_multiplicity
 _atom_site_fract_x
 _atom_site_fract_y
 _atom_site_fract_z
 _atom_site_occupancy
  Ni  Ni0  1  0.99220654  -0.00724999  -0.00731692  1
  Cr  Cr1  1  0.15990706  0.15860060  0.15988483  1
  Cr  Cr2  1  0.99250087  0.99157145  0.32605961  1
  Cr  Cr3  1  0.98946170  0.32519726  0.99131114  1
  Cr  Cr4  1  0.16061595  0.49086810  0.15913218  1
  Cr  Cr5  1  0.99187969  0.32862028  0.32678722  1
  Cr  Cr6  1  0.99236091  0.65850863  -0.00448992  1
  Ni  Ni7  1  0.15812108  0.82676639  0.15790285  1
  Cr  Cr8  1  -0.00666857  0.65809035  0.32553669  1
  Cr  Cr9  1  0.32721936  -0.00707537  0.99177093  1
  Cr  Cr10  1  0.49179322  0.16256430  0.16214227  1
  Cr  Cr11  1  0.32616524  0.99224639  0.32605962  1
  Cr  Cr12  1  0.32909329  0.32626282  0.99186576  1
  Ni  Ni13  1  0.49445775  0.49034401  0.16206650  1
  Ni  Ni14  1  0.32923913  0.33019895  0.32709808  1
  Cr  Cr15  1  0.32671356  0.65846455  -0.00522563  1
  Cr  Cr16  1  0.49169474  0.82496170  0.15911147  1
  Cr  Cr17  1  0.32605952  0.65743842  0.32593924  1
  Cr  Cr18  1  0.66006300  -0.00471675  0.99061129  1
  Cr  Cr19  1  0.82604150  0.16096882  0.16044963  1
  Cr  Cr20  1  0.65929566  -0.00581356  0.32629325  1
  Cr  Cr21  1  0.65936968  0.32578101  -0.00704089  1
  Ni  Ni22  1  0.82281970  0.49118194  0.16072821  1
  Ni  Ni23  1  0.65611907  0.33018520  0.32523477  1
  Cr  Cr24  1  0.65897774  0.65694207  -0.00444069  1
  Cr  Cr25  1  0.82722252  0.82567067  0.15889279  1
  Cr  Cr26  1  0.65871110  0.65713624  0.32463516  1
  Cr  Cr27  1  0.16073703  0.16203931  0.49024808  1
  Cr  Cr28  1  0.99166531  -0.00542224  0.65941224  1
  Cr  Cr29  1  0.15900396  0.15929785  0.82781974  1
  Ni  Ni30  1  0.16289760  0.49128761  0.49145102  1
  Cr  Cr31  1  0.99136629  0.32582918  0.65955866  1
  Cr  Cr32  1  0.15947094  0.49282508  0.82551559  1
  Cr  Cr33  1  0.15935599  0.82564865  0.49259941  1
  Cr  Cr34  1  -0.00655768  0.65736658  0.65685900  1
  Cr  Cr35  1  0.15858708  0.82579366  0.82805395  1
  Cr  Cr36  1  0.49314658  0.16308304  0.49050515  1
  Cr  Cr37  1  0.32738612  -0.00591446  0.66020419  1
  Ni  Ni38  1  0.49628786  0.16122780  0.82453164  1
  Ni  Ni39  1  0.49294736  0.49025761  0.49243030  1
  Cr  Cr40  1  0.32716475  0.32627336  0.65873647  1
  Cr  Cr41  1  0.49394284  0.49248326  0.82476250  1
  Cr  Cr42  1  0.49469253  0.82313744  0.49443912  1
  Cr  Cr43  1  0.32629404  0.65751449  0.65731220  1
  Cr  Cr44  1  0.49388180  0.82447236  0.82445739  1
  Cr  Cr45  1  0.82408902  0.16135252  0.49180436  1
  Cr  Cr46  1  0.65900114  -0.00462130  0.66077339  1
  Ni  Ni47  1  0.82378385  0.15948522  0.82571533  1
  Cr  Cr48  1  0.82274536  0.49207255  0.49352601  1
  Ni  Ni49  1  0.65795694  0.32701169  0.66016073  1
  Cr  Cr50  1  0.82438454  0.49264116  0.82456522  1
  Cr  Cr51  1  0.82422738  0.82460050  0.49412909  1
  Ni  Ni52  1  0.65788747  0.65532744  0.65797774  1
  Cr  Cr53  1  0.82578575  0.82478806  0.82502495  1
" 