4405,Ni78Fe11Cr9_7,-236.940805156097, 183.87111235825,Ni78Fe11Cr9,"# generated using pymatgen
 data_CrFeNi7
_symmetry_space_group_name_H-M   'P 1'
_cell_length_a   7.44768178
_cell_length_b   7.44768178
_cell_length_c   10.53261259
_cell_angle_alpha   90.00000000
_cell_angle_beta   90.00000000
_cell_angle_gamma   90.00000000
_symmetry_Int_Tables_number   1
_chemical_formula_structural   CrFeNi7
_chemical_formula_sum   'Cr6 Fe6 Ni42'
_cell_volume   584.22257556
_cell_formula_units_Z   6
loop_
 _symmetry_equiv_pos_site_id
 _symmetry_equiv_pos_as_xyz
  1  'x, y, z'
loop_
 _atom_site_type_symbol
 _atom_site_label
 _atom_site_symmetry_multiplicity
 _atom_site_fract_x
 _atom_site_fract_y
 _atom_site_fract_z
 _atom_site_occupancy
  Ni  Ni0  1  0.00253940  0.00196488  1.00113601  1
  Ni  Ni1  1  0.16650018  0.16933475  0.16742668  1
  Ni  Ni2  1  1.00117134  0.00239907  0.33477198  1
  Ni  Ni3  1  0.00161445  0.33468809  0.99988361  1
  Ni  Ni4  1  0.16729649  0.50054431  0.16766908  1
  Ni  Ni5  1  0.00156722  0.33458288  0.33536301  1
  Ni  Ni6  1  0.00276586  0.66727884  1.00037385  1
  Ni  Ni7  1  0.16684328  0.83401275  0.16705138  1
  Ni  Ni8  1  0.00300453  0.66692794  0.33515664  1
  Fe  Fe9  1  0.33407015  0.00272160  1.00093106  1
  Ni  Ni10  1  0.50216005  0.17049555  0.16713876  1
  Cr  Cr11  1  0.33412540  0.00296057  0.33623362  1
  Fe  Fe12  1  0.33393759  0.33360016  0.00193716  1
  Ni  Ni13  1  0.50153823  0.49950932  0.16814304  1
  Ni  Ni14  1  0.33508711  0.33639199  0.33388781  1
  Fe  Fe15  1  0.33326904  0.66756754  1.00113915  1
  Cr  Cr16  1  0.50208602  0.83376365  0.16739472  1
  Ni  Ni17  1  0.33342177  0.66516739  0.33523598  1
  Ni  Ni18  1  0.66788729  0.00357382  0.99928837  1
  Ni  Ni19  1  0.83520648  0.16966403  0.16747820  1
  Ni  Ni20  1  0.66929647  0.00416302  0.33646743  1
  Ni  Ni21  1  0.66804170  0.33364925  0.00231343  1
  Ni  Ni22  1  0.83498275  0.49960804  0.16772511  1
  Ni  Ni23  1  0.66727296  0.33441947  0.33398091  1
  Ni  Ni24  1  0.66882689  0.66676564  0.99982621  1
  Cr  Cr25  1  0.83604899  0.83471178  0.16936998  1
  Ni  Ni26  1  0.66743216  0.66532707  0.33685207  1
  Ni  Ni27  1  0.16783290  0.17031254  0.50149788  1
  Cr  Cr28  1  1.00067362  0.00161592  0.66773851  1
  Ni  Ni29  1  0.16928849  0.16889363  0.83478701  1
  Ni  Ni30  1  0.16903307  0.49981326  0.50080250  1
  Fe  Fe31  1  1.00035261  0.33553415  0.66767562  1
  Ni  Ni32  1  0.16673042  0.49966046  0.83499059  1
  Ni  Ni33  1  0.16861879  0.83382260  0.49992044  1
  Cr  Cr34  1  0.00137146  0.66777286  0.66818073  1
  Ni  Ni35  1  0.16929693  0.83536085  0.83686974  1
  Ni  Ni36  1  0.50216283  0.16930321  0.50213319  1
  Fe  Fe37  1  0.33661286  1.00086333  0.66771666  1
  Ni  Ni38  1  0.50042568  0.16639452  0.83466907  1
  Ni  Ni39  1  0.50119925  0.50095317  0.50096401  1
  Ni  Ni40  1  0.33449082  0.33417133  0.66731989  1
  Cr  Cr41  1  0.50200394  0.50076601  0.83441361  1
  Ni  Ni42  1  0.50279551  0.83356422  0.50317711  1
  Ni  Ni43  1  0.33461513  0.66750342  0.66766618  1
  Ni  Ni44  1  0.50193974  0.83666883  0.83400509  1
  Ni  Ni45  1  0.83391906  0.16876194  0.50060689  1
  Ni  Ni46  1  0.66713353  0.00199870  0.66840123  1
  Fe  Fe47  1  0.83380363  0.16845573  0.83578548  1
  Ni  Ni48  1  0.83348311  0.50040256  0.50056158  1
  Ni  Ni49  1  0.66678467  0.33331373  0.66766082  1
  Ni  Ni50  1  0.83514241  0.50093934  0.83539446  1
  Ni  Ni51  1  0.83264832  0.83484802  0.49889910  1
  Ni  Ni52  1  0.66700174  0.66858070  0.66755788  1
  Ni  Ni53  1  0.83285238  0.83413826  0.83663614  1
" 