1695,Ni78Fe2Cr18_0,-231.642866608002, 155.937006064249,Ni78Fe2Cr18,"# generated using pymatgen
 data_Cr11FeNi42
_symmetry_space_group_name_H-M   'P 1'
_cell_length_a   7.47508676
_cell_length_b   7.47508676
_cell_length_c   10.57136907
_cell_angle_alpha   90.00000000
_cell_angle_beta   90.00000000
_cell_angle_gamma   90.00000000
_symmetry_Int_Tables_number   1
_chemical_formula_structural   Cr11FeNi42
_chemical_formula_sum   'Cr11 Fe1 Ni42'
_cell_volume   590.69556535
_cell_formula_units_Z   1
loop_
 _symmetry_equiv_pos_site_id
 _symmetry_equiv_pos_as_xyz
  1  'x, y, z'
loop_
 _atom_site_type_symbol
 _atom_site_label
 _atom_site_symmetry_multiplicity
 _atom_site_fract_x
 _atom_site_fract_y
 _atom_site_fract_z
 _atom_site_occupancy
  Ni  Ni0  1  -0.00030766  0.00123505  0.99762247  1
  Ni  Ni1  1  0.16536861  0.16649989  0.16565478  1
  Ni  Ni2  1  0.00152874  0.00153349  0.33267474  1
  Ni  Ni3  1  0.99939567  0.33279701  0.99909362  1
  Ni  Ni4  1  0.16554557  0.49906157  0.16504033  1
  Ni  Ni5  1  0.99813107  0.33280183  0.33160851  1
  Ni  Ni6  1  0.99934751  0.66435731  0.99763098  1
  Cr  Cr7  1  0.16663738  0.83224550  0.16675315  1
  Ni  Ni8  1  -0.00048619  0.66411736  0.33271264  1
  Ni  Ni9  1  0.33281846  0.99927495  -0.00042175  1
  Ni  Ni10  1  0.50043853  0.16533189  0.16528324  1
  Ni  Ni11  1  0.33369927  0.99891454  0.33383546  1
  Ni  Ni12  1  0.33083053  0.33261535  0.00128785  1
  Ni  Ni13  1  0.50017310  0.50029994  0.16523192  1
  Cr  Cr14  1  0.33456360  0.33174874  0.33085416  1
  Ni  Ni15  1  0.33298750  0.66650299  -0.00040858  1
  Ni  Ni16  1  0.49954204  0.83280333  0.16664498  1
  Ni  Ni17  1  0.33473829  0.66751489  0.33275095  1
  Ni  Ni18  1  0.66592468  0.99922556  0.99918938  1
  Ni  Ni19  1  0.83253758  0.16725417  0.16634642  1
  Ni  Ni20  1  0.66316350  0.00052738  0.33187981  1
  Ni  Ni21  1  0.66811599  0.33296743  0.00193287  1
  Ni  Ni22  1  0.83269257  0.49833949  0.16696295  1
  Ni  Ni23  1  0.66654483  0.33371933  0.33188795  1
  Ni  Ni24  1  0.66610216  0.66618495  0.99915678  1
  Cr  Cr25  1  0.83225243  0.83331168  0.16642946  1
  Ni  Ni26  1  0.66423919  0.66413907  0.33305673  1
  Ni  Ni27  1  0.16825168  0.16440126  0.49970613  1
  Cr  Cr28  1  0.00080449  0.00016886  0.66863117  1
  Ni  Ni29  1  0.16599810  0.16707440  0.83292860  1
  Cr  Cr30  1  0.16625768  0.49974150  0.49972726  1
  Ni  Ni31  1  0.00110598  0.33277636  0.66764312  1
  Ni  Ni32  1  0.16592490  0.49870001  0.83347274  1
  Ni  Ni33  1  0.16886945  0.83403420  0.49758723  1
  Cr  Cr34  1  0.99841371  0.66550153  0.66865684  1
  Ni  Ni35  1  0.16812159  0.83268272  0.83436125  1
  Ni  Ni36  1  0.49809589  0.16533198  0.49955216  1
  Ni  Ni37  1  0.33332092  0.99844166  0.66493725  1
  Cr  Cr38  1  0.49851604  0.16515391  0.83373477  1
  Ni  Ni39  1  0.50036431  0.50028654  0.49954426  1
  Ni  Ni40  1  0.33059170  0.33184200  0.66533952  1
  Cr  Cr41  1  0.49735134  0.50047653  0.83381132  1
  Fe  Fe42  1  0.49847751  0.83269908  0.49923033  1
  Ni  Ni43  1  0.33416194  0.66811591  0.66599814  1
  Ni  Ni44  1  0.49932738  0.83277370  0.83203949  1
  Cr  Cr45  1  0.83289495  0.16677804  0.49766235  1
  Ni  Ni46  1  0.66355537  0.99697253  0.66715086  1
  Ni  Ni47  1  0.83383014  0.16597590  0.83448222  1
  Ni  Ni48  1  0.83071430  0.50002241  0.49779978  1
  Cr  Cr49  1  0.66781653  0.33385217  0.66502851  1
  Ni  Ni50  1  0.83377609  0.49946749  0.83388604  1
  Cr  Cr51  1  0.83251768  0.83185946  0.49671528  1
  Ni  Ni52  1  0.66451525  0.66765482  0.66597250  1
  Ni  Ni53  1  0.83086273  0.83285289  0.83467168  1
" 