6237,Ni78Cr22_15,-207.92116546556, 157.978721395577,Ni78Cr22,"# generated using pymatgen
 data_Cr7Ni2
_symmetry_space_group_name_H-M   'P 1'
_cell_length_a   7.57809672
_cell_length_b   7.57809672
_cell_length_c   10.71704716
_cell_angle_alpha   90.00000000
_cell_angle_beta   90.00000000
_cell_angle_gamma   90.00000000
_symmetry_Int_Tables_number   1
_chemical_formula_structural   Cr7Ni2
_chemical_formula_sum   'Cr42 Ni12'
_cell_volume   615.45376140
_cell_formula_units_Z   6
loop_
 _symmetry_equiv_pos_site_id
 _symmetry_equiv_pos_as_xyz
  1  'x, y, z'
loop_
 _atom_site_type_symbol
 _atom_site_label
 _atom_site_symmetry_multiplicity
 _atom_site_fract_x
 _atom_site_fract_y
 _atom_site_fract_z
 _atom_site_occupancy
  Ni  Ni0  1  0.99246890  -0.00301823  0.99136949  1
  Cr  Cr1  1  0.15891112  0.15991423  0.15564590  1
  Cr  Cr2  1  -0.00557714  0.99179181  0.32682418  1
  Ni  Ni3  1  -0.00482204  0.32186522  0.99066193  1
  Cr  Cr4  1  0.15964579  0.48906889  0.15699790  1
  Cr  Cr5  1  0.99192902  0.32489202  0.32628140  1
  Cr  Cr6  1  -0.00724901  0.65942600  -0.00711642  1
  Cr  Cr7  1  0.15901028  0.82856014  0.15944651  1
  Cr  Cr8  1  -0.00686772  0.66097119  0.32704009  1
  Cr  Cr9  1  0.32697904  -0.00492604  -0.00674279  1
  Ni  Ni10  1  0.49392200  0.16077961  0.15827310  1
  Cr  Cr11  1  0.32613381  -0.00542247  0.32813582  1
  Ni  Ni12  1  0.32395378  0.32142706  -0.00729688  1
  Cr  Cr13  1  0.49225511  0.49183218  0.16034678  1
  Cr  Cr14  1  0.32909637  0.32231965  0.32392862  1
  Cr  Cr15  1  0.32532625  0.65689634  -0.00731316  1
  Cr  Cr16  1  0.49439333  0.82736896  0.15850010  1
  Cr  Cr17  1  0.32402811  0.66063251  0.32609918  1
  Ni  Ni18  1  0.66029855  -0.00412902  -0.00612719  1
  Cr  Cr19  1  0.82693949  0.15940427  0.15776485  1
  Cr  Cr20  1  0.65738341  -0.00281594  0.32494639  1
  Cr  Cr21  1  0.65739636  0.32414734  -0.00677583  1
  Cr  Cr22  1  0.82562344  0.49098884  0.16191706  1
  Ni  Ni23  1  0.65647905  0.32542290  0.32628146  1
  Cr  Cr24  1  0.65995920  0.65924717  0.99081278  1
  Cr  Cr25  1  0.82471224  0.82841242  0.15767164  1
  Ni  Ni26  1  0.65898008  0.65771234  0.32603138  1
  Cr  Cr27  1  0.16001346  0.15907303  0.49538533  1
  Cr  Cr28  1  -0.00570716  -0.00703804  0.65858746  1
  Ni  Ni29  1  0.15898999  0.15961055  0.82688180  1
  Cr  Cr30  1  0.15963518  0.49114295  0.49313872  1
  Ni  Ni31  1  -0.00497502  0.32361796  0.66112719  1
  Cr  Cr32  1  0.15917899  0.48666966  0.82760100  1
  Ni  Ni33  1  0.16125352  0.82794131  0.49430168  1
  Cr  Cr34  1  -0.00697831  0.65891668  0.65832502  1
  Cr  Cr35  1  0.16034315  0.83100775  0.82550587  1
  Ni  Ni36  1  0.49200317  0.15908523  0.49226423  1
  Ni  Ni37  1  0.32418321  -0.00460634  0.65766212  1
  Cr  Cr38  1  0.48989044  0.15771513  0.82637990  1
  Cr  Cr39  1  0.49344323  0.49211662  0.49086763  1
  Cr  Cr40  1  0.32675398  0.32266014  0.66034683  1
  Cr  Cr41  1  0.49042949  0.49203180  0.82664673  1
  Cr  Cr42  1  0.49154030  0.82698778  0.49443281  1
  Cr  Cr43  1  0.32430970  0.66112767  0.65965322  1
  Cr  Cr44  1  0.49242734  0.82819857  0.82583594  1
  Cr  Cr45  1  0.82560533  0.16123186  0.49251666  1
  Cr  Cr46  1  0.65715741  -0.00480335  0.65984009  1
  Cr  Cr47  1  0.83033371  0.15928253  0.82730653  1
  Cr  Cr48  1  0.82534625  0.49097518  0.49183273  1
  Cr  Cr49  1  0.65975548  0.32455734  0.65763163  1
  Cr  Cr50  1  0.82816498  0.48913099  0.82442860  1
  Cr  Cr51  1  0.82450950  0.82629510  0.49125992  1
  Cr  Cr52  1  0.66040805  0.65867213  0.66187350  1
  Cr  Cr53  1  0.82501891  0.82997350  0.82910571  1
" 