4049,Ni78Fe11Cr10_18,-237.319126468034, 186.004926974383,Ni78Fe11Cr10,"# generated using pymatgen
 data_CrFeNi7
_symmetry_space_group_name_H-M   'P 1'
_cell_length_a   7.44762128
_cell_length_b   7.44762128
_cell_length_c   10.53252702
_cell_angle_alpha   90.00000000
_cell_angle_beta   90.00000000
_cell_angle_gamma   90.00000000
_symmetry_Int_Tables_number   1
_chemical_formula_structural   CrFeNi7
_chemical_formula_sum   'Cr6 Fe6 Ni42'
_cell_volume   584.20833597
_cell_formula_units_Z   6
loop_
 _symmetry_equiv_pos_site_id
 _symmetry_equiv_pos_as_xyz
  1  'x, y, z'
loop_
 _atom_site_type_symbol
 _atom_site_label
 _atom_site_symmetry_multiplicity
 _atom_site_fract_x
 _atom_site_fract_y
 _atom_site_fract_z
 _atom_site_occupancy
  Ni  Ni0  1  0.00330392  0.00411747  1.00101656  1
  Ni  Ni1  1  0.16847664  0.16775604  0.16855401  1
  Ni  Ni2  1  0.00290124  0.00361242  0.33357407  1
  Ni  Ni3  1  0.99940757  0.33066269  0.00139912  1
  Ni  Ni4  1  0.17067787  0.49963306  0.16816004  1
  Ni  Ni5  1  1.00078587  0.33313372  0.33514278  1
  Cr  Cr6  1  0.00157930  0.66984524  0.00232331  1
  Ni  Ni7  1  0.16854359  0.83643846  0.16885287  1
  Ni  Ni8  1  0.00420393  0.66740504  0.33423582  1
  Ni  Ni9  1  0.33439995  1.00112616  1.00092888  1
  Ni  Ni10  1  0.50084194  0.16800037  0.16747689  1
  Ni  Ni11  1  0.33505286  1.00044731  0.33531131  1
  Fe  Fe12  1  0.33431610  0.33249769  0.00249614  1
  Ni  Ni13  1  0.49960066  0.50035051  0.16771341  1
  Fe  Fe14  1  0.33527594  0.33441375  0.33519087  1
  Ni  Ni15  1  0.33670037  0.67258474  0.00304744  1
  Ni  Ni16  1  0.50147732  0.83531218  0.16800105  1
  Ni  Ni17  1  0.33473427  0.66944109  0.33427535  1
  Fe  Fe18  1  0.66864610  1.00055720  0.00175084  1
  Ni  Ni19  1  0.83479271  0.16604984  0.16747545  1
  Ni  Ni20  1  0.66611781  0.00400471  0.33225892  1
  Ni  Ni21  1  0.66907900  0.33260880  1.00086584  1
  Cr  Cr22  1  0.83374711  0.50089073  0.17005357  1
  Ni  Ni23  1  0.66831194  0.33288659  0.33604671  1
  Ni  Ni24  1  0.66602692  0.66796321  1.00107678  1
  Ni  Ni25  1  0.83418184  0.83767931  0.16963065  1
  Ni  Ni26  1  0.66489585  0.66728153  0.33501874  1
  Fe  Fe27  1  0.16775098  0.16770319  0.50114799  1
  Fe  Fe28  1  1.00077099  0.00175215  0.66824326  1
  Ni  Ni29  1  0.16868749  0.16595759  0.83345679  1
  Ni  Ni30  1  0.16706011  0.50058773  0.50052601  1
  Ni  Ni31  1  1.00001156  0.33373980  0.66764591  1
  Cr  Cr32  1  0.16719877  0.49872807  0.83630722  1
  Ni  Ni33  1  0.16800573  0.83537931  0.50100354  1
  Ni  Ni34  1  1.00031694  0.66692500  0.66815294  1
  Ni  Ni35  1  0.16723729  0.83854972  0.83422624  1
  Ni  Ni36  1  0.50190840  0.16737970  0.50155905  1
  Ni  Ni37  1  0.33510660  0.00306501  0.66771659  1
  Ni  Ni38  1  0.50042157  0.16615512  0.83492110  1
  Ni  Ni39  1  0.50168671  0.49949879  0.50099486  1
  Ni  Ni40  1  0.33444057  0.33045904  0.66618079  1
  Cr  Cr41  1  0.50285950  0.49908740  0.83512077  1
  Ni  Ni42  1  0.50100146  0.83691991  0.50087585  1
  Cr  Cr43  1  0.33495309  0.67131871  0.66721342  1
  Ni  Ni44  1  0.50272120  0.83789502  0.83521594  1
  Ni  Ni45  1  0.83363414  0.16871556  0.50153192  1
  Ni  Ni46  1  0.66547298  0.00304276  0.66961584  1
  Fe  Fe47  1  0.83453038  0.16761874  0.83446751  1
  Ni  Ni48  1  0.83526500  0.49985189  0.50185078  1
  Ni  Ni49  1  0.66932260  0.33278527  0.66713885  1
  Ni  Ni50  1  0.83401769  0.50108808  0.83291104  1
  Cr  Cr51  1  0.83427707  0.83602554  0.49898435  1
  Ni  Ni52  1  0.66961050  0.66823040  0.66763353  1
  Ni  Ni53  1  0.83407872  0.83526730  0.83390713  1
" 