7534,Ni78Fe22_10,-233.272838948025, 185.341075452555,Ni78Fe22,"# generated using pymatgen
 data_Fe7Ni2
_symmetry_space_group_name_H-M   'P 1'
_cell_length_a   7.40137052
_cell_length_b   7.40137052
_cell_length_c   10.46711857
_cell_angle_alpha   90.00000000
_cell_angle_beta   90.00000000
_cell_angle_gamma   90.00000000
_symmetry_Int_Tables_number   1
_chemical_formula_structural   Fe7Ni2
_chemical_formula_sum   'Fe42 Ni12'
_cell_volume   573.39174401
_cell_formula_units_Z   6
loop_
 _symmetry_equiv_pos_site_id
 _symmetry_equiv_pos_as_xyz
  1  'x, y, z'
loop_
 _atom_site_type_symbol
 _atom_site_label
 _atom_site_symmetry_multiplicity
 _atom_site_fract_x
 _atom_site_fract_y
 _atom_site_fract_z
 _atom_site_occupancy
  Fe  Fe0  1  0.00503862  0.00535710  0.00511862  1
  Fe  Fe1  1  0.17123643  0.17141140  0.17221533  1
  Ni  Ni2  1  1.00370567  0.00576294  0.33784603  1
  Fe  Fe3  1  1.00372361  0.33677543  0.00562818  1
  Fe  Fe4  1  0.17130189  0.50451383  0.17149077  1
  Ni  Ni5  1  0.00595676  0.33739331  0.33795203  1
  Fe  Fe6  1  1.00441252  0.67119355  1.00327474  1
  Fe  Fe7  1  0.17099865  0.83741116  0.17199833  1
  Fe  Fe8  1  1.00338579  0.67209857  0.33840487  1
  Fe  Fe9  1  0.33850117  0.00523242  1.00421273  1
  Fe  Fe10  1  0.50531451  0.17024226  0.16999316  1
  Fe  Fe11  1  0.33766199  1.00309628  0.33902729  1
  Ni  Ni12  1  0.33618260  0.33848268  0.00444140  1
  Fe  Fe13  1  0.50389540  0.50456947  0.17028077  1
  Fe  Fe14  1  0.33841628  0.33681619  0.33703510  1
  Fe  Fe15  1  0.33907143  0.67145758  0.00532700  1
  Fe  Fe16  1  0.50520378  0.83847063  0.17281147  1
  Ni  Ni17  1  0.33833633  0.66953552  0.33852400  1
  Ni  Ni18  1  0.67149878  1.00299694  1.00335963  1
  Fe  Fe19  1  0.83697959  0.17010151  0.17169441  1
  Ni  Ni20  1  0.67137953  1.00402175  0.33894088  1
  Fe  Fe21  1  0.66971660  0.33722579  1.00393618  1
  Fe  Fe22  1  0.83803311  0.50461571  0.17223081  1
  Fe  Fe23  1  0.67224305  0.33821770  0.33768622  1
  Fe  Fe24  1  0.66996956  0.67043227  1.00423866  1
  Fe  Fe25  1  0.83697886  0.83867888  0.17134293  1
  Ni  Ni26  1  0.66951342  0.67182799  0.33767997  1
  Ni  Ni27  1  0.17038220  0.17171477  0.50431432  1
  Fe  Fe28  1  1.00420224  1.00322982  0.67019092  1
  Fe  Fe29  1  0.17212355  0.17239172  0.83670513  1
  Fe  Fe30  1  0.17176639  0.50463416  0.50378940  1
  Fe  Fe31  1  1.00370501  0.33880608  0.66937651  1
  Fe  Fe32  1  0.17158482  0.50481437  0.83785258  1
  Fe  Fe33  1  0.17166410  0.83829210  0.50387191  1
  Ni  Ni34  1  0.00444187  0.67082423  0.66979008  1
  Fe  Fe35  1  0.17131742  0.83622147  0.83730117  1
  Fe  Fe36  1  0.50365315  0.16991207  0.50470436  1
  Fe  Fe37  1  0.33744707  1.00280729  0.67005711  1
  Fe  Fe38  1  0.50428553  0.17209983  0.83865984  1
  Fe  Fe39  1  0.50425993  0.50475180  0.50539720  1
  Fe  Fe40  1  0.33772895  0.33922895  0.67224437  1
  Ni  Ni41  1  0.50461195  0.50540655  0.83815723  1
  Ni  Ni42  1  0.50566480  0.83649882  0.50471961  1
  Fe  Fe43  1  0.33843758  0.67114577  0.67028460  1
  Fe  Fe44  1  0.50488543  0.83744513  0.83677869  1
  Fe  Fe45  1  0.83737658  0.17036114  0.50352372  1
  Fe  Fe46  1  0.67155425  1.00302829  0.67100922  1
  Fe  Fe47  1  0.83674064  0.17153834  0.83812953  1
  Fe  Fe48  1  0.83740938  0.50525272  0.50400539  1
  Fe  Fe49  1  0.67160933  0.33987414  0.67173689  1
  Fe  Fe50  1  0.83775037  0.50518003  0.83679847  1
  Fe  Fe51  1  0.83760506  0.83796688  0.50432086  1
  Ni  Ni52  1  0.67143022  0.67171552  0.67165758  1
  Fe  Fe53  1  0.83729455  0.83650742  0.83752009  1
" 