4631,Ni78Fe2Cr18_12,-231.764345736168, 157.719738089739,Ni78Fe2Cr18,"# generated using pymatgen
 data_Cr11FeNi42
_symmetry_space_group_name_H-M   'P 1'
_cell_length_a   7.47199334
_cell_length_b   7.47199334
_cell_length_c   10.56699432
_cell_angle_alpha   90.00000000
_cell_angle_beta   90.00000000
_cell_angle_gamma   90.00000000
_symmetry_Int_Tables_number   1
_chemical_formula_structural   Cr11FeNi42
_chemical_formula_sum   'Cr11 Fe1 Ni42'
_cell_volume   589.96252590
_cell_formula_units_Z   1
loop_
 _symmetry_equiv_pos_site_id
 _symmetry_equiv_pos_as_xyz
  1  'x, y, z'
loop_
 _atom_site_type_symbol
 _atom_site_label
 _atom_site_symmetry_multiplicity
 _atom_site_fract_x
 _atom_site_fract_y
 _atom_site_fract_z
 _atom_site_occupancy
  Ni  Ni0  1  0.99859078  0.99878662  0.00131607  1
  Ni  Ni1  1  0.16646400  0.16488774  0.16804693  1
  Fe  Fe2  1  -0.00031506  0.99802530  0.33266936  1
  Cr  Cr3  1  0.99907161  0.33216636  -0.00012759  1
  Ni  Ni4  1  0.16705935  0.50223751  0.16652999  1
  Cr  Cr5  1  -0.00014994  0.33326020  0.33358783  1
  Ni  Ni6  1  0.00276259  0.66824830  0.00151952  1
  Ni  Ni7  1  0.16370159  0.83186912  0.16659616  1
  Ni  Ni8  1  0.99954588  0.66781461  0.33266740  1
  Cr  Cr9  1  0.33239865  0.99884546  0.99802684  1
  Ni  Ni10  1  0.50160701  0.16825287  0.16769498  1
  Ni  Ni11  1  0.33108472  0.00054661  0.33222578  1
  Cr  Cr12  1  0.33437571  0.33454991  0.00025296  1
  Ni  Ni13  1  0.49969328  0.49757385  0.16795349  1
  Ni  Ni14  1  0.33363147  0.33318650  0.33188502  1
  Ni  Ni15  1  0.33029095  0.66587528  0.99864085  1
  Cr  Cr16  1  0.49943093  0.83324885  0.16777260  1
  Ni  Ni17  1  0.33138001  0.66526507  0.33255167  1
  Ni  Ni18  1  0.66848908  0.00278413  0.99926415  1
  Ni  Ni19  1  0.83093005  0.16491021  0.16539808  1
  Ni  Ni20  1  0.66803895  0.00022894  0.33186452  1
  Ni  Ni21  1  0.66611062  0.33033403  0.00086897  1
  Ni  Ni22  1  0.83225463  0.50033068  0.16693970  1
  Ni  Ni23  1  0.66550672  0.33349563  0.33151432  1
  Cr  Cr24  1  0.66516096  0.66560509  0.00066208  1
  Ni  Ni25  1  0.83559807  0.83377007  0.16702914  1
  Ni  Ni26  1  0.66807523  0.66528117  0.33326410  1
  Ni  Ni27  1  0.16620137  0.16654392  0.49982259  1
  Cr  Cr28  1  0.00048288  0.00085671  0.66486069  1
  Ni  Ni29  1  0.16687435  0.16624059  0.83114363  1
  Ni  Ni30  1  0.16648656  0.50057440  0.50094076  1
  Ni  Ni31  1  0.00048703  0.33368637  0.66586907  1
  Ni  Ni32  1  0.16834776  0.50143598  0.83155679  1
  Ni  Ni33  1  0.16517321  0.83187486  0.49878235  1
  Ni  Ni34  1  0.00120880  0.66443357  0.66482620  1
  Ni  Ni35  1  0.16860704  0.83133083  0.83360617  1
  Cr  Cr36  1  0.49927144  0.16760621  0.49926561  1
  Ni  Ni37  1  0.33303068  -0.00029696  0.66830945  1
  Ni  Ni38  1  0.50126174  0.16597251  0.83173715  1
  Ni  Ni39  1  0.49989451  0.49969316  0.49946203  1
  Ni  Ni40  1  0.33195851  0.33378770  0.66704776  1
  Ni  Ni41  1  0.49761698  0.49949087  0.83159490  1
  Cr  Cr42  1  0.49964203  0.83198122  0.50010684  1
  Ni  Ni43  1  0.33244212  0.66551572  0.66781567  1
  Ni  Ni44  1  0.49761484  0.83354382  0.83113296  1
  Ni  Ni45  1  0.83300708  0.16655255  0.50017451  1
  Ni  Ni46  1  0.66548737  0.00040285  0.66787379  1
  Ni  Ni47  1  0.83087635  0.16622686  0.83344249  1
  Ni  Ni48  1  0.83262436  0.50070553  0.50074295  1
  Ni  Ni49  1  0.66655683  0.33308961  0.66661353  1
  Cr  Cr50  1  0.83383269  0.49799902  0.83153890  1
  Ni  Ni51  1  0.83392439  0.83174002  0.49858831  1
  Ni  Ni52  1  0.66537011  0.66550821  0.66503815  1
  Cr  Cr53  1  0.83305974  0.83425240  0.83362048  1
" 