3706,Ni78Fe22_6,-232.905801718865, 183.976322927224,Ni78Fe22,"# generated using pymatgen
 data_Fe7Ni2
_symmetry_space_group_name_H-M   'P 1'
_cell_length_a   7.39900966
_cell_length_b   7.39900966
_cell_length_c   10.46377981
_cell_angle_alpha   90.00000000
_cell_angle_beta   90.00000000
_cell_angle_gamma   90.00000000
_symmetry_Int_Tables_number   1
_chemical_formula_structural   Fe7Ni2
_chemical_formula_sum   'Fe42 Ni12'
_cell_volume   572.84322433
_cell_formula_units_Z   6
loop_
 _symmetry_equiv_pos_site_id
 _symmetry_equiv_pos_as_xyz
  1  'x, y, z'
loop_
 _atom_site_type_symbol
 _atom_site_label
 _atom_site_symmetry_multiplicity
 _atom_site_fract_x
 _atom_site_fract_y
 _atom_site_fract_z
 _atom_site_occupancy
  Fe  Fe0  1  1.00441980  0.00508770  1.00387567  1
  Fe  Fe1  1  0.17119025  0.17182291  0.17133687  1
  Fe  Fe2  1  1.00400847  0.00602836  0.33815118  1
  Fe  Fe3  1  0.00489982  0.33713716  0.00521431  1
  Ni  Ni4  1  0.17178995  0.50491465  0.17105456  1
  Ni  Ni5  1  1.00411311  0.33936088  0.33791915  1
  Fe  Fe6  1  0.00556255  0.67156746  0.00538813  1
  Fe  Fe7  1  0.17062872  0.83808328  0.17091960  1
  Ni  Ni8  1  1.00410801  0.67089926  0.33803507  1
  Ni  Ni9  1  0.33801892  0.00461570  1.00433021  1
  Fe  Fe10  1  0.50420456  0.17205194  0.17141993  1
  Fe  Fe11  1  0.33788548  0.00529557  0.33817330  1
  Fe  Fe12  1  0.33768656  0.33795040  0.00530037  1
  Fe  Fe13  1  0.50483558  0.50347959  0.17148645  1
  Ni  Ni14  1  0.33864039  0.33760427  0.33762928  1
  Fe  Fe15  1  0.33777618  0.67150726  0.00475135  1
  Fe  Fe16  1  0.50435389  0.83826102  0.17131276  1
  Fe  Fe17  1  0.33719909  0.66926671  0.33817426  1
  Fe  Fe18  1  0.67126650  0.00499736  0.00468600  1
  Ni  Ni19  1  0.83750453  0.17095427  0.17151145  1
  Fe  Fe20  1  0.67189889  0.00563003  0.33784538  1
  Fe  Fe21  1  0.67120698  0.33680695  0.00488357  1
  Fe  Fe22  1  0.83857679  0.50404089  0.17190453  1
  Ni  Ni23  1  0.67104035  0.33841474  0.33762989  1
  Fe  Fe24  1  0.67045593  0.67198659  1.00433655  1
  Fe  Fe25  1  0.83880871  0.83745132  0.17142146  1
  Fe  Fe26  1  0.67141638  0.67010518  0.33826078  1
  Fe  Fe27  1  0.17206984  0.17103086  0.50485447  1
  Ni  Ni28  1  0.00551809  1.00399165  0.67165780  1
  Fe  Fe29  1  0.17110802  0.17036415  0.83760156  1
  Ni  Ni30  1  0.17123140  0.50445921  0.50491322  1
  Fe  Fe31  1  0.00514258  0.33680765  0.67097745  1
  Fe  Fe32  1  0.17062866  0.50404961  0.83801808  1
  Fe  Fe33  1  0.17150799  0.83777535  0.50509744  1
  Fe  Fe34  1  0.00547516  0.67204971  0.67056197  1
  Fe  Fe35  1  0.17087376  0.83937803  0.83777744  1
  Fe  Fe36  1  0.50363391  0.17156934  0.50435502  1
  Ni  Ni37  1  0.33742405  1.00440109  0.67142708  1
  Fe  Fe38  1  0.50450912  0.17095397  0.83801694  1
  Fe  Fe39  1  0.50428636  0.50459663  0.50428922  1
  Fe  Fe40  1  0.33705466  0.33731555  0.67056218  1
  Fe  Fe41  1  0.50549284  0.50396070  0.83801597  1
  Ni  Ni42  1  0.50472300  0.83826079  0.50480189  1
  Fe  Fe43  1  0.33747070  0.67229571  0.67086870  1
  Fe  Fe44  1  0.50465823  0.83887873  0.83746928  1
  Fe  Fe45  1  0.83808970  0.17150940  0.50444120  1
  Fe  Fe46  1  0.67135358  1.00451379  0.67126204  1
  Ni  Ni47  1  0.83773559  0.17063895  0.83759414  1
  Fe  Fe48  1  0.83793742  0.50516136  0.50395835  1
  Fe  Fe49  1  0.67159498  0.33650463  0.67130606  1
  Fe  Fe50  1  0.83767187  0.50419636  0.83793074  1
  Fe  Fe51  1  0.83848140  0.83712489  0.50468408  1
  Fe  Fe52  1  0.67084803  0.67277458  0.67119658  1
  Fe  Fe53  1  0.83826249  0.83839564  0.83768881  1
" 