6899,Ni78Fe2Cr18_5,-231.79848046643, 157.330893626728,Ni78Fe2Cr18,"# generated using pymatgen
 data_Cr11FeNi42
_symmetry_space_group_name_H-M   'P 1'
_cell_length_a   7.47259854
_cell_length_b   7.47259854
_cell_length_c   10.56785020
_cell_angle_alpha   90.00000000
_cell_angle_beta   90.00000000
_cell_angle_gamma   90.00000000
_symmetry_Int_Tables_number   1
_chemical_formula_structural   Cr11FeNi42
_chemical_formula_sum   'Cr11 Fe1 Ni42'
_cell_volume   590.10588994
_cell_formula_units_Z   1
loop_
 _symmetry_equiv_pos_site_id
 _symmetry_equiv_pos_as_xyz
  1  'x, y, z'
loop_
 _atom_site_type_symbol
 _atom_site_label
 _atom_site_symmetry_multiplicity
 _atom_site_fract_x
 _atom_site_fract_y
 _atom_site_fract_z
 _atom_site_occupancy
  Cr  Cr0  1  0.99830317  0.00108417  0.00147547  1
  Ni  Ni1  1  0.16457930  0.16804524  0.16585992  1
  Ni  Ni2  1  0.99786606  0.99922385  0.33068226  1
  Ni  Ni3  1  0.00091880  0.33297826  0.99954741  1
  Ni  Ni4  1  0.16664865  0.49898121  0.16636697  1
  Ni  Ni5  1  0.99694437  0.33324408  0.33019669  1
  Cr  Cr6  1  0.99825014  0.66498968  0.99941909  1
  Ni  Ni7  1  0.16684006  0.83206993  0.16813169  1
  Ni  Ni8  1  0.99932450  0.66657412  0.33126628  1
  Ni  Ni9  1  0.33283591  0.99826397  0.99795399  1
  Cr  Cr10  1  0.49969483  0.16579058  0.16479530  1
  Cr  Cr11  1  0.33337897  0.99770252  0.33448914  1
  Ni  Ni12  1  0.33037759  0.33292985  0.99946712  1
  Ni  Ni13  1  0.49912033  0.50241016  0.16692398  1
  Ni  Ni14  1  0.33428817  0.33530293  0.33204241  1
  Ni  Ni15  1  0.33276903  0.66776891  0.00118732  1
  Ni  Ni16  1  0.50077114  0.83067855  0.16474627  1
  Ni  Ni17  1  0.33387684  0.66569870  0.33232599  1
  Ni  Ni18  1  0.66553474  0.99744563  0.99888656  1
  Ni  Ni19  1  0.83431067  0.16603366  0.16882285  1
  Ni  Ni20  1  0.66822093  -0.00032217  0.33246738  1
  Cr  Cr21  1  0.67086695  0.33287963  -0.00004335  1
  Ni  Ni22  1  0.83302722  0.50021990  0.16820314  1
  Ni  Ni23  1  0.66743915  0.33380813  0.33466217  1
  Ni  Ni24  1  0.66554006  0.66843509  0.00067158  1
  Ni  Ni25  1  0.83053886  0.83277489  0.16729488  1
  Ni  Ni26  1  0.66600980  0.66546030  0.33181723  1
  Cr  Cr27  1  0.16230089  0.16487450  0.49926223  1
  Ni  Ni28  1  0.99942982  0.99957179  0.66776906  1
  Ni  Ni29  1  0.16533734  0.16555964  0.83351537  1
  Cr  Cr30  1  0.16239261  0.50107600  0.49816288  1
  Ni  Ni31  1  0.99579894  0.33272229  0.66890103  1
  Ni  Ni32  1  0.16318546  0.49920110  0.83414698  1
  Ni  Ni33  1  0.16594681  0.83301981  0.49968238  1
  Ni  Ni34  1  0.99784737  0.66662321  0.66841532  1
  Ni  Ni35  1  0.16780422  0.83381942  0.83116271  1
  Ni  Ni36  1  0.50331026  0.16563698  0.50038621  1
  Ni  Ni37  1  0.33375097  0.99845923  0.66686462  1
  Ni  Ni38  1  0.50039056  0.16244526  0.83298155  1
  Ni  Ni39  1  0.50351318  0.50017892  0.49710938  1
  Cr  Cr40  1  0.33550893  0.33057587  0.66656206  1
  Cr  Cr41  1  0.50094756  0.50144440  0.83534051  1
  Ni  Ni42  1  0.50145356  0.83297197  0.49966486  1
  Cr  Cr43  1  0.33317181  0.66875595  0.66439819  1
  Ni  Ni44  1  0.50037101  0.83528859  0.83426367  1
  Ni  Ni45  1  0.83116083  0.16734812  0.49916547  1
  Ni  Ni46  1  0.66588293  0.00057439  0.66730706  1
  Ni  Ni47  1  0.83301405  0.16649299  0.83108268  1
  Ni  Ni48  1  0.83121643  0.49858524  0.50018814  1
  Ni  Ni49  1  0.66947679  0.33215899  0.66457239  1
  Ni  Ni50  1  0.83431123  0.49930444  0.83052556  1
  Cr  Cr51  1  0.83437364  0.83296346  0.50006881  1
  Ni  Ni52  1  0.66813438  0.66623323  0.66675078  1
  Fe  Fe53  1  0.83163558  0.83358586  0.83203376  1
" 