1221,Ni78Fe2Cr18_2,-231.935123815294, 159.489407662427,Ni78Fe2Cr18,"# generated using pymatgen
 data_Cr11FeNi42
_symmetry_space_group_name_H-M   'P 1'
_cell_length_a   7.47298556
_cell_length_b   7.47298556
_cell_length_c   10.56839753
_cell_angle_alpha   90.00000000
_cell_angle_beta   90.00000000
_cell_angle_gamma   90.00000000
_symmetry_Int_Tables_number   1
_chemical_formula_structural   Cr11FeNi42
_chemical_formula_sum   'Cr11 Fe1 Ni42'
_cell_volume   590.19758419
_cell_formula_units_Z   1
loop_
 _symmetry_equiv_pos_site_id
 _symmetry_equiv_pos_as_xyz
  1  'x, y, z'
loop_
 _atom_site_type_symbol
 _atom_site_label
 _atom_site_symmetry_multiplicity
 _atom_site_fract_x
 _atom_site_fract_y
 _atom_site_fract_z
 _atom_site_occupancy
  Cr  Cr0  1  0.99911316  0.99638459  0.00054946  1
  Cr  Cr1  1  0.16863696  0.16515559  0.16674399  1
  Ni  Ni2  1  0.99957934  0.99850347  0.33214137  1
  Cr  Cr3  1  -0.00007349  0.33563510  0.99871387  1
  Ni  Ni4  1  0.16973643  0.50116167  0.16540330  1
  Cr  Cr5  1  0.99955107  0.33213747  0.33374966  1
  Ni  Ni6  1  -0.00036550  0.66669970  0.99902262  1
  Ni  Ni7  1  0.16675427  0.83260756  0.16672767  1
  Cr  Cr8  1  0.00151717  0.66840617  0.33351306  1
  Ni  Ni9  1  0.33468785  0.99940702  -0.00026663  1
  Ni  Ni10  1  0.49944459  0.16625540  0.16748830  1
  Ni  Ni11  1  0.33419408  0.99805055  0.33319237  1
  Ni  Ni12  1  0.33449019  0.33346084  0.00073789  1
  Ni  Ni13  1  0.49811437  0.49947693  0.16802487  1
  Fe  Fe14  1  0.33634122  0.33363911  0.33377333  1
  Cr  Cr15  1  0.33236825  0.66644142  -0.00030605  1
  Ni  Ni16  1  0.49988056  0.83307563  0.16786166  1
  Ni  Ni17  1  0.33484673  0.66690556  0.33226393  1
  Cr  Cr18  1  0.66445330  0.99880128  -0.00036747  1
  Ni  Ni19  1  0.83049015  0.16327356  0.16893583  1
  Ni  Ni20  1  0.66503426  -0.00027411  0.33092772  1
  Cr  Cr21  1  0.66410278  0.33275583  0.99848917  1
  Cr  Cr22  1  0.83086451  0.50189997  0.16573760  1
  Ni  Ni23  1  0.66321332  0.33223051  0.33214311  1
  Ni  Ni24  1  0.66711946  0.66689760  0.99925153  1
  Ni  Ni25  1  0.83217396  0.83393753  0.16687677  1
  Ni  Ni26  1  0.66276401  0.66685213  0.33319494  1
  Ni  Ni27  1  0.16876731  0.16526799  0.50032960  1
  Ni  Ni28  1  0.99957882  0.99823977  0.66600212  1
  Cr  Cr29  1  0.16837298  0.16606347  0.83137869  1
  Ni  Ni30  1  0.16791952  0.49934971  0.50134442  1
  Ni  Ni31  1  0.99931593  0.33481727  0.66669312  1
  Ni  Ni32  1  0.16567019  0.50102409  0.83206333  1
  Ni  Ni33  1  0.16701542  0.83419016  0.50021460  1
  Ni  Ni34  1  -0.00001888  0.66575054  0.66686186  1
  Ni  Ni35  1  0.16586333  0.83144246  0.83186554  1
  Ni  Ni36  1  0.49724079  0.16648407  0.49938494  1
  Ni  Ni37  1  0.33373688  0.99878801  0.66588192  1
  Ni  Ni38  1  0.49954012  0.16634216  0.83193434  1
  Ni  Ni39  1  0.49970013  0.49974333  0.49891556  1
  Ni  Ni40  1  0.33353778  0.33380743  0.66514839  1
  Ni  Ni41  1  0.50029214  0.49935124  0.83186828  1
  Ni  Ni42  1  0.49938698  0.83258102  0.49927419  1
  Ni  Ni43  1  0.33232490  0.66621246  0.66633904  1
  Ni  Ni44  1  0.50009752  0.83311520  0.83166977  1
  Cr  Cr45  1  0.83275835  0.16535644  0.50025771  1
  Ni  Ni46  1  0.66549259  0.99945361  0.66761221  1
  Ni  Ni47  1  0.83117412  0.16653503  0.82985185  1
  Ni  Ni48  1  0.83119005  0.50149545  0.50166092  1
  Ni  Ni49  1  0.66595464  0.33340549  0.66767555  1
  Ni  Ni50  1  0.83284654  0.50158235  0.83150157  1
  Ni  Ni51  1  0.83240548  0.83172966  0.49999793  1
  Ni  Ni52  1  0.66650177  0.66594921  0.66636126  1
  Ni  Ni53  1  0.83284768  0.83069041  0.83193353  1
" 