5405,Ni78Fe11Cr9_0,-236.994350478057, 184.025750696678,Ni78Fe11Cr9,"# generated using pymatgen
 data_CrFeNi7
_symmetry_space_group_name_H-M   'P 1'
_cell_length_a   7.44806747
_cell_length_b   7.44806747
_cell_length_c   10.53315802
_cell_angle_alpha   90.00000000
_cell_angle_beta   90.00000000
_cell_angle_gamma   90.00000000
_symmetry_Int_Tables_number   1
_chemical_formula_structural   CrFeNi7
_chemical_formula_sum   'Cr6 Fe6 Ni42'
_cell_volume   584.31334294
_cell_formula_units_Z   6
loop_
 _symmetry_equiv_pos_site_id
 _symmetry_equiv_pos_as_xyz
  1  'x, y, z'
loop_
 _atom_site_type_symbol
 _atom_site_label
 _atom_site_symmetry_multiplicity
 _atom_site_fract_x
 _atom_site_fract_y
 _atom_site_fract_z
 _atom_site_occupancy
  Cr  Cr0  1  1.00071474  0.00357890  0.00186084  1
  Ni  Ni1  1  0.16892119  0.16813666  0.16832782  1
  Ni  Ni2  1  0.99948710  0.00213414  0.33456640  1
  Ni  Ni3  1  0.00267041  0.33441908  1.00034446  1
  Ni  Ni4  1  0.16872917  0.50115498  0.16848829  1
  Ni  Ni5  1  0.00231807  0.33379967  0.33366901  1
  Cr  Cr6  1  1.00014674  0.66551488  0.00275411  1
  Ni  Ni7  1  0.16892317  0.83453037  0.16972476  1
  Ni  Ni8  1  1.00058075  0.66788789  0.33246031  1
  Ni  Ni9  1  0.33676160  0.00244497  0.00182473  1
  Ni  Ni10  1  0.50018451  0.16744799  0.16857588  1
  Ni  Ni11  1  0.33554427  0.00266610  0.33396533  1
  Ni  Ni12  1  0.33325776  0.33415874  1.00052770  1
  Ni  Ni13  1  0.50045599  0.50191873  0.16871607  1
  Ni  Ni14  1  0.33407688  0.33463281  0.33498579  1
  Ni  Ni15  1  0.33733383  0.66721743  0.00182614  1
  Fe  Fe16  1  0.50099111  0.83434070  0.16806232  1
  Ni  Ni17  1  0.33528318  0.66652269  0.33395594  1
  Fe  Fe18  1  0.66611881  0.99996263  1.00088682  1
  Ni  Ni19  1  0.83471366  0.16764318  0.16962498  1
  Ni  Ni20  1  0.66879043  1.00093099  0.33435989  1
  Cr  Cr21  1  0.66819246  0.33490700  0.00160780  1
  Ni  Ni22  1  0.83463676  0.50191998  0.16917442  1
  Fe  Fe23  1  0.66700258  0.33368536  0.33400443  1
  Ni  Ni24  1  0.66657014  0.66913709  0.99997796  1
  Ni  Ni25  1  0.83394814  0.83425773  0.16968994  1
  Ni  Ni26  1  0.66795769  0.66935781  0.33450330  1
  Ni  Ni27  1  0.16849664  0.16907849  0.50114729  1
  Fe  Fe28  1  0.99980904  0.00299365  0.66767308  1
  Ni  Ni29  1  0.16890265  0.17043482  0.83434487  1
  Ni  Ni30  1  0.17007559  0.50006968  0.50116893  1
  Fe  Fe31  1  0.00269227  0.33374199  0.66900034  1
  Ni  Ni32  1  0.16863415  0.49893240  0.83416356  1
  Cr  Cr33  1  0.16807592  0.83460626  0.50090547  1
  Ni  Ni34  1  1.00056345  0.66729838  0.66895350  1
  Cr  Cr35  1  0.17001334  0.83459762  0.83317772  1
  Ni  Ni36  1  0.50109707  0.16782176  0.50135361  1
  Ni  Ni37  1  0.33689294  0.00318431  0.66803589  1
  Ni  Ni38  1  0.50044278  0.16711680  0.83389478  1
  Ni  Ni39  1  0.49937245  0.50118745  0.50133183  1
  Ni  Ni40  1  0.33509593  0.33463238  0.66831129  1
  Ni  Ni41  1  0.50064144  0.50217765  0.83377279  1
  Ni  Ni42  1  0.50254313  0.83481309  0.50098429  1
  Ni  Ni43  1  0.33493707  0.66600681  0.66804566  1
  Ni  Ni44  1  0.50292333  0.83452839  0.83554772  1
  Ni  Ni45  1  0.83423137  0.16590602  0.50096928  1
  Ni  Ni46  1  0.66830347  0.00203052  0.66873894  1
  Ni  Ni47  1  0.83448188  0.16815226  0.83322664  1
  Cr  Cr48  1  0.83427473  0.50150197  0.50053479  1
  Ni  Ni49  1  0.66700691  0.33269737  0.66826590  1
  Ni  Ni50  1  0.83454488  0.50141089  0.83367310  1
  Ni  Ni51  1  0.83311014  0.83639598  0.50137817  1
  Fe  Fe52  1  0.66610317  0.66891989  0.66898323  1
  Ni  Ni53  1  0.83122802  0.83425962  0.83275685  1
" 