2746,Ni78Fe11Cr10_15,-237.261341536821, 186.77995577145,Ni78Fe11Cr10,"# generated using pymatgen
 data_CrFeNi7
_symmetry_space_group_name_H-M   'P 1'
_cell_length_a   7.44688619
_cell_length_b   7.44688619
_cell_length_c   10.53148745
_cell_angle_alpha   90.00000000
_cell_angle_beta   90.00000000
_cell_angle_gamma   90.00000000
_symmetry_Int_Tables_number   1
_chemical_formula_structural   CrFeNi7
_chemical_formula_sum   'Cr6 Fe6 Ni42'
_cell_volume   584.03536759
_cell_formula_units_Z   6
loop_
 _symmetry_equiv_pos_site_id
 _symmetry_equiv_pos_as_xyz
  1  'x, y, z'
loop_
 _atom_site_type_symbol
 _atom_site_label
 _atom_site_symmetry_multiplicity
 _atom_site_fract_x
 _atom_site_fract_y
 _atom_site_fract_z
 _atom_site_occupancy
  Ni  Ni0  1  0.00210144  0.00190500  0.00176313  1
  Ni  Ni1  1  0.16734076  0.16713145  0.16675330  1
  Ni  Ni2  1  0.00236324  1.00102337  0.33390925  1
  Ni  Ni3  1  1.00073383  0.33312186  0.00141990  1
  Ni  Ni4  1  0.16873522  0.50126356  0.16744938  1
  Fe  Fe5  1  1.00133125  0.33472538  0.33569277  1
  Ni  Ni6  1  0.00204426  0.66903187  0.00239975  1
  Ni  Ni7  1  0.16770695  0.83566701  0.16817739  1
  Ni  Ni8  1  0.00251017  0.66920944  0.33469839  1
  Ni  Ni9  1  0.33434956  1.00126618  1.00087995  1
  Fe  Fe10  1  0.50119817  0.16711303  0.16694201  1
  Ni  Ni11  1  0.33375545  0.99942240  0.33532188  1
  Ni  Ni12  1  0.33618392  0.33422623  0.00189780  1
  Ni  Ni13  1  0.50091282  0.50230924  0.16707916  1
  Cr  Cr14  1  0.33587154  0.33541792  0.33503333  1
  Ni  Ni15  1  0.33551453  0.66856685  0.00286964  1
  Ni  Ni16  1  0.50200989  0.83469274  0.16836438  1
  Ni  Ni17  1  0.33466493  0.66975951  0.33474175  1
  Ni  Ni18  1  0.66761037  0.00257299  0.00277321  1
  Fe  Fe19  1  0.83522187  0.16611582  0.16707425  1
  Fe  Fe20  1  0.66671335  1.00069121  0.33408354  1
  Ni  Ni21  1  0.66714345  0.33428873  1.00015942  1
  Cr  Cr22  1  0.83466113  0.50240274  0.16738717  1
  Ni  Ni23  1  0.66849687  0.33473376  0.33571504  1
  Ni  Ni24  1  0.66650389  0.66719862  1.00055925  1
  Ni  Ni25  1  0.83434150  0.83608855  0.16780279  1
  Ni  Ni26  1  0.66688356  0.66678360  0.33543586  1
  Ni  Ni27  1  0.16795182  0.16775428  0.50291395  1
  Ni  Ni28  1  0.00315976  0.00237723  0.66838955  1
  Ni  Ni29  1  0.16808661  0.16662686  0.83438683  1
  Ni  Ni30  1  0.16664888  0.50101806  0.50170595  1
  Ni  Ni31  1  0.00145203  0.33416324  0.66633085  1
  Cr  Cr32  1  0.16776349  0.50028534  0.83525650  1
  Ni  Ni33  1  0.16933515  0.83529318  0.50113403  1
  Ni  Ni34  1  0.00284195  0.66752071  0.66696475  1
  Ni  Ni35  1  0.16928397  0.83714279  0.83474866  1
  Ni  Ni36  1  0.50045176  0.16657844  0.50107764  1
  Ni  Ni37  1  0.33449176  1.00071086  0.66785922  1
  Ni  Ni38  1  0.50050432  0.16716724  0.83602138  1
  Ni  Ni39  1  0.50182433  0.50225701  0.50119112  1
  Ni  Ni40  1  0.33446497  0.33409939  0.66715136  1
  Ni  Ni41  1  0.50282743  0.50160761  0.83579329  1
  Ni  Ni42  1  0.50030227  0.83522440  0.50141162  1
  Ni  Ni43  1  0.33474912  0.66925128  0.66645028  1
  Ni  Ni44  1  0.50062176  0.83528950  0.83428445  1
  Fe  Fe45  1  0.83550742  0.16899275  0.50137150  1
  Ni  Ni46  1  0.66640881  0.00209623  0.66738098  1
  Ni  Ni47  1  0.83547093  0.16883039  0.83553102  1
  Ni  Ni48  1  0.83559090  0.50086154  0.50073987  1
  Cr  Cr49  1  0.66781057  0.33459722  0.66865425  1
  Ni  Ni50  1  0.83361669  0.50040464  0.83546327  1
  Cr  Cr51  1  0.83427745  0.83388552  0.50152189  1
  Fe  Fe52  1  0.66622166  0.66800146  0.66798618  1
  Cr  Cr53  1  0.83452906  0.83433255  0.83499471  1
" 