1305,Ni78Fe2Cr18_19,-231.876654655589, 160.613761579625,Ni78Fe2Cr18,"# generated using pymatgen
 data_Cr11FeNi42
_symmetry_space_group_name_H-M   'P 1'
_cell_length_a   7.47284531
_cell_length_b   7.47284531
_cell_length_c   10.56819919
_cell_angle_alpha   90.00000000
_cell_angle_beta   90.00000000
_cell_angle_gamma   90.00000000
_symmetry_Int_Tables_number   1
_chemical_formula_structural   Cr11FeNi42
_chemical_formula_sum   'Cr11 Fe1 Ni42'
_cell_volume   590.16435424
_cell_formula_units_Z   1
loop_
 _symmetry_equiv_pos_site_id
 _symmetry_equiv_pos_as_xyz
  1  'x, y, z'
loop_
 _atom_site_type_symbol
 _atom_site_label
 _atom_site_symmetry_multiplicity
 _atom_site_fract_x
 _atom_site_fract_y
 _atom_site_fract_z
 _atom_site_occupancy
  Ni  Ni0  1  -0.00025117  0.00148299  0.00030843  1
  Ni  Ni1  1  0.16642191  0.16472583  0.16566224  1
  Ni  Ni2  1  0.99956899  0.00114188  0.33337427  1
  Cr  Cr3  1  0.99911149  0.33047448  0.99863785  1
  Cr  Cr4  1  0.16807591  0.49975322  0.16782456  1
  Ni  Ni5  1  0.99875043  0.33098853  0.33278498  1
  Cr  Cr6  1  0.99760277  0.66610384  0.99846448  1
  Ni  Ni7  1  0.16793555  0.83451520  0.16630703  1
  Ni  Ni8  1  0.00082948  0.66682755  0.33423455  1
  Ni  Ni9  1  0.33395175  0.00050209  0.00026226  1
  Ni  Ni10  1  0.49986437  0.16621354  0.16605737  1
  Cr  Cr11  1  0.33286572  0.99871230  0.33373440  1
  Ni  Ni12  1  0.33391331  0.33176964  0.99949941  1
  Ni  Ni13  1  0.50029865  0.50020129  0.16706971  1
  Fe  Fe14  1  0.33368640  0.33249692  0.33345708  1
  Ni  Ni15  1  0.33621064  0.66659652  -0.00021370  1
  Ni  Ni16  1  0.49899673  0.83240632  0.16504400  1
  Ni  Ni17  1  0.33393385  0.66647510  0.33382613  1
  Ni  Ni18  1  0.66523307  0.99923628  0.99892228  1
  Ni  Ni19  1  0.83260593  0.16581245  0.16820166  1
  Ni  Ni20  1  0.66641021  0.00092667  0.33390941  1
  Cr  Cr21  1  0.66659928  0.33308237  0.99934835  1
  Ni  Ni22  1  0.83041907  0.49901396  0.16875771  1
  Ni  Ni23  1  0.66619691  0.33188816  0.33215269  1
  Ni  Ni24  1  0.66338738  0.66685057  0.99905874  1
  Cr  Cr25  1  0.83192562  0.83384760  0.16723801  1
  Ni  Ni26  1  0.66405370  0.66602570  0.33241004  1
  Ni  Ni27  1  0.16458250  0.16633436  0.49990876  1
  Ni  Ni28  1  0.99903071  0.00082686  0.66521818  1
  Ni  Ni29  1  0.16661950  0.16629080  0.83331296  1
  Ni  Ni30  1  0.16607113  0.49940009  0.49826030  1
  Ni  Ni31  1  0.99889864  0.33176250  0.66743686  1
  Ni  Ni32  1  0.16668115  0.49802601  0.83252325  1
  Ni  Ni33  1  0.16444950  0.83311645  0.49939977  1
  Ni  Ni34  1  -0.00034391  0.66626543  0.66599940  1
  Cr  Cr35  1  0.16679185  0.83512465  0.83357839  1
  Ni  Ni36  1  0.50156958  0.16627204  0.50004032  1
  Ni  Ni37  1  0.33371214  0.00049345  0.66565519  1
  Ni  Ni38  1  0.49963253  0.16466330  0.83279601  1
  Ni  Ni39  1  0.49888587  0.49840819  0.49654712  1
  Cr  Cr40  1  0.33343324  0.33167957  0.66569960  1
  Ni  Ni41  1  0.49945202  0.49912561  0.83503012  1
  Ni  Ni42  1  0.50074205  0.83415389  0.49895106  1
  Cr  Cr43  1  0.33282597  0.66775953  0.66473228  1
  Ni  Ni44  1  0.50138901  0.83510581  0.83492970  1
  Ni  Ni45  1  0.83276486  0.16471589  0.49954191  1
  Ni  Ni46  1  0.66610604  0.00127412  0.66591586  1
  Ni  Ni47  1  0.83273082  0.16414163  0.83106370  1
  Cr  Cr48  1  0.83325777  0.49833345  0.49870056  1
  Ni  Ni49  1  0.66727257  0.33044522  0.66708864  1
  Ni  Ni50  1  0.83265009  0.49960250  0.83118864  1
  Ni  Ni51  1  0.83369795  0.83538973  0.49892283  1
  Cr  Cr52  1  0.66616138  0.66718843  0.66755113  1
  Ni  Ni53  1  0.83138952  0.83508195  0.83272597  1
" 