1197,Ni78Fe11Cr10_7,-237.386573498968, 184.733763599324,Ni78Fe11Cr10,"# generated using pymatgen
 data_CrFeNi7
_symmetry_space_group_name_H-M   'P 1'
_cell_length_a   7.44818838
_cell_length_b   7.44818838
_cell_length_c   10.53332903
_cell_angle_alpha   90.00000000
_cell_angle_beta   90.00000000
_cell_angle_gamma   90.00000000
_symmetry_Int_Tables_number   1
_chemical_formula_structural   CrFeNi7
_chemical_formula_sum   'Cr6 Fe6 Ni42'
_cell_volume   584.34180197
_cell_formula_units_Z   6
loop_
 _symmetry_equiv_pos_site_id
 _symmetry_equiv_pos_as_xyz
  1  'x, y, z'
loop_
 _atom_site_type_symbol
 _atom_site_label
 _atom_site_symmetry_multiplicity
 _atom_site_fract_x
 _atom_site_fract_y
 _atom_site_fract_z
 _atom_site_occupancy
  Ni  Ni0  1  0.99968153  0.00415360  0.00221455  1
  Ni  Ni1  1  0.16813212  0.16883381  0.16765793  1
  Fe  Fe2  1  0.00231114  0.00189449  0.33576354  1
  Ni  Ni3  1  1.00026108  0.33417553  0.00154794  1
  Ni  Ni4  1  0.16888207  0.49971534  0.16815619  1
  Ni  Ni5  1  0.00225126  0.33485039  0.33347422  1
  Cr  Cr6  1  1.00118541  0.66532699  1.00069232  1
  Fe  Fe7  1  0.17088588  0.83530784  0.16880988  1
  Ni  Ni8  1  0.00218943  0.66657241  0.33497983  1
  Ni  Ni9  1  0.33741634  0.00146513  0.00256396  1
  Ni  Ni10  1  0.50035631  0.16777525  0.16727181  1
  Ni  Ni11  1  0.33612900  0.00149775  0.33480257  1
  Ni  Ni12  1  0.33444732  0.33447500  0.00262436  1
  Ni  Ni13  1  0.50075021  0.50192040  0.16830835  1
  Ni  Ni14  1  0.33359391  0.33458686  0.33492489  1
  Ni  Ni15  1  0.33638676  0.66785874  0.00307148  1
  Ni  Ni16  1  0.49987503  0.83410357  0.16708581  1
  Ni  Ni17  1  0.33453580  0.66771334  0.33453911  1
  Ni  Ni18  1  0.66670307  0.00221381  0.99966785  1
  Ni  Ni19  1  0.83531144  0.16970905  0.16761412  1
  Ni  Ni20  1  0.66681293  0.00143507  0.33555036  1
  Ni  Ni21  1  0.66909002  0.33314974  0.00234253  1
  Ni  Ni22  1  0.83416438  0.49923639  0.16811035  1
  Fe  Fe23  1  0.66688739  0.33394907  0.33295678  1
  Ni  Ni24  1  0.66640444  0.66843430  1.00076096  1
  Cr  Cr25  1  0.83315373  0.83489926  0.16886838  1
  Ni  Ni26  1  0.66707238  0.66910492  0.33470271  1
  Ni  Ni27  1  0.16859422  0.16806086  0.50151798  1
  Ni  Ni28  1  0.99827643  1.00123842  0.66562195  1
  Cr  Cr29  1  0.16826239  0.16950696  0.83463468  1
  Ni  Ni30  1  0.16926296  0.50131571  0.50199334  1
  Ni  Ni31  1  0.00173342  0.33553983  0.66877559  1
  Ni  Ni32  1  0.16667963  0.50045918  0.83364802  1
  Ni  Ni33  1  0.16840028  0.83442094  0.50080804  1
  Ni  Ni34  1  0.00148046  0.66702081  0.66814098  1
  Cr  Cr35  1  0.16894518  0.83425445  0.83443849  1
  Ni  Ni36  1  0.50045014  0.16693917  0.50154500  1
  Ni  Ni37  1  0.33754062  0.00143282  0.66643311  1
  Ni  Ni38  1  0.50290104  0.16597564  0.83498209  1
  Fe  Fe39  1  0.49869366  0.50152667  0.50069563  1
  Ni  Ni40  1  0.33375905  0.33502307  0.66624767  1
  Cr  Cr41  1  0.50070522  0.50147074  0.83468361  1
  Ni  Ni42  1  0.50096401  0.83522378  0.50154245  1
  Ni  Ni43  1  0.33381691  0.66734133  0.66618831  1
  Ni  Ni44  1  0.50335460  0.83603498  0.83516977  1
  Ni  Ni45  1  0.83475289  0.16607391  0.50120869  1
  Ni  Ni46  1  0.66798114  1.00117945  0.66858078  1
  Ni  Ni47  1  0.83323091  0.16784044  0.83497512  1
  Cr  Cr48  1  0.83522162  0.50180170  0.50082807  1
  Fe  Fe49  1  0.66819588  0.33194118  0.66872427  1
  Ni  Ni50  1  0.83569568  0.50090980  0.83459556  1
  Ni  Ni51  1  0.83443543  0.83589472  0.50178319  1
  Fe  Fe52  1  0.66825921  0.67053389  0.66827045  1
  Ni  Ni53  1  0.83190213  0.83504698  0.83326989  1
" 