268,Ni78Fe2Cr18_1,-231.825967307695, 158.150533935639,Ni78Fe2Cr18,"# generated using pymatgen
 data_Cr11FeNi42
_symmetry_space_group_name_H-M   'P 1'
_cell_length_a   7.47406008
_cell_length_b   7.47406008
_cell_length_c   10.56991713
_cell_angle_alpha   90.00000000
_cell_angle_beta   90.00000000
_cell_angle_gamma   90.00000000
_symmetry_Int_Tables_number   1
_chemical_formula_structural   Cr11FeNi42
_chemical_formula_sum   'Cr11 Fe1 Ni42'
_cell_volume   590.45220890
_cell_formula_units_Z   1
loop_
 _symmetry_equiv_pos_site_id
 _symmetry_equiv_pos_as_xyz
  1  'x, y, z'
loop_
 _atom_site_type_symbol
 _atom_site_label
 _atom_site_symmetry_multiplicity
 _atom_site_fract_x
 _atom_site_fract_y
 _atom_site_fract_z
 _atom_site_occupancy
  Ni  Ni0  1  0.00206309  0.99904400  0.00047434  1
  Ni  Ni1  1  0.16608450  0.16610294  0.16506992  1
  Ni  Ni2  1  0.99897336  0.99904698  0.33168406  1
  Ni  Ni3  1  0.00008423  0.33275912  0.00194562  1
  Ni  Ni4  1  0.16640388  0.49982771  0.16700051  1
  Ni  Ni5  1  0.99848434  0.33405122  0.33199777  1
  Ni  Ni6  1  -0.00000198  0.66684890  0.00028159  1
  Ni  Ni7  1  0.16575589  0.83260123  0.16575734  1
  Ni  Ni8  1  0.00050716  0.66545465  0.33351522  1
  Ni  Ni9  1  0.33149971  -0.00019992  0.99878896  1
  Ni  Ni10  1  0.49856471  0.16741225  0.16724277  1
  Ni  Ni11  1  0.33358138  0.99895544  0.33188292  1
  Ni  Ni12  1  0.33362550  0.33176205  -0.00003754  1
  Ni  Ni13  1  0.49673143  0.49722494  0.16562540  1
  Ni  Ni14  1  0.33240394  0.33246598  0.33140775  1
  Ni  Ni15  1  0.33232554  0.66693101  0.00106916  1
  Ni  Ni16  1  0.49616605  0.83404127  0.16729370  1
  Ni  Ni17  1  0.33036129  0.66720139  0.33145908  1
  Cr  Cr18  1  0.66434003  -0.00022881  0.00214348  1
  Ni  Ni19  1  0.83394256  0.16666854  0.16763878  1
  Ni  Ni20  1  0.66597474  0.00100109  0.33330226  1
  Ni  Ni21  1  0.66504955  0.33354029  0.00073990  1
  Ni  Ni22  1  0.83534878  0.49760800  0.16491305  1
  Ni  Ni23  1  0.66758163  0.33096758  0.33156572  1
  Cr  Cr24  1  0.66540527  0.66467127  0.00085308  1
  Ni  Ni25  1  0.83656372  0.83427503  0.16714826  1
  Cr  Cr26  1  0.66734274  0.66622562  0.33006982  1
  Cr  Cr27  1  0.16802127  0.16747887  0.49665686  1
  Cr  Cr28  1  0.00017478  0.99743981  0.66612685  1
  Ni  Ni29  1  0.16839095  0.16627499  0.83649483  1
  Ni  Ni30  1  0.16463957  0.50162756  0.49714655  1
  Cr  Cr31  1  0.00057148  0.33467259  0.66437148  1
  Cr  Cr32  1  0.16702013  0.49957309  0.83424313  1
  Ni  Ni33  1  0.16458350  0.83007851  0.49668428  1
  Ni  Ni34  1  0.99683733  0.66678377  0.66517750  1
  Ni  Ni35  1  0.16435399  0.83207642  0.83590533  1
  Ni  Ni36  1  0.50273931  0.16574012  0.49936209  1
  Cr  Cr37  1  0.33387702  0.00081654  0.66813078  1
  Ni  Ni38  1  0.49927866  0.16863584  0.83238626  1
  Cr  Cr39  1  0.49863371  0.49777868  0.49873586  1
  Ni  Ni40  1  0.33526365  0.33212323  0.66703599  1
  Ni  Ni41  1  0.50036655  0.49808269  0.83320603  1
  Ni  Ni42  1  0.50107032  0.83488266  0.49867633  1
  Cr  Cr43  1  0.33146485  0.66748405  0.66492895  1
  Ni  Ni44  1  0.50023021  0.83216335  0.83275860  1
  Ni  Ni45  1  0.82899260  0.16588302  0.49720602  1
  Ni  Ni46  1  0.66529220  0.99889416  0.66463673  1
  Cr  Cr47  1  0.83236210  0.16558077  0.83422643  1
  Ni  Ni48  1  0.83347411  0.49990379  0.50065200  1
  Ni  Ni49  1  0.66523107  0.33306293  0.66639704  1
  Fe  Fe50  1  0.83197308  0.50039388  0.83340621  1
  Ni  Ni51  1  0.83257943  0.83303017  0.49974703  1
  Ni  Ni52  1  0.66827588  0.66678739  0.66771319  1
  Ni  Ni53  1  0.83380673  0.83115882  0.83182220  1
" 