436,Ni78Fe22_0,-233.294929571643, 188.836140625277,Ni78Fe22,"# generated using pymatgen
 data_Fe7Ni2
_symmetry_space_group_name_H-M   'P 1'
_cell_length_a   7.39976764
_cell_length_b   7.39976764
_cell_length_c   10.46485176
_cell_angle_alpha   90.00000000
_cell_angle_beta   90.00000000
_cell_angle_gamma   90.00000000
_symmetry_Int_Tables_number   1
_chemical_formula_structural   Fe7Ni2
_chemical_formula_sum   'Fe42 Ni12'
_cell_volume   573.01929520
_cell_formula_units_Z   6
loop_
 _symmetry_equiv_pos_site_id
 _symmetry_equiv_pos_as_xyz
  1  'x, y, z'
loop_
 _atom_site_type_symbol
 _atom_site_label
 _atom_site_symmetry_multiplicity
 _atom_site_fract_x
 _atom_site_fract_y
 _atom_site_fract_z
 _atom_site_occupancy
  Fe  Fe0  1  0.00474816  1.00426077  0.00485622  1
  Fe  Fe1  1  0.17169992  0.17166990  0.17129560  1
  Fe  Fe2  1  1.00326834  1.00426523  0.33818695  1
  Fe  Fe3  1  0.00505844  0.33839249  1.00449087  1
  Ni  Ni4  1  0.17206670  0.50474180  0.17121170  1
  Fe  Fe5  1  1.00388466  0.33808105  0.33816222  1
  Fe  Fe6  1  0.00531334  0.67098375  0.00469267  1
  Fe  Fe7  1  0.17189729  0.83727673  0.17090439  1
  Fe  Fe8  1  1.00409216  0.67129185  0.33795960  1
  Fe  Fe9  1  0.33856721  1.00385590  1.00415806  1
  Fe  Fe10  1  0.50441435  0.17180497  0.17070031  1
  Fe  Fe11  1  0.33862074  1.00388725  0.33773209  1
  Fe  Fe12  1  0.33802492  0.33856714  0.00485612  1
  Ni  Ni13  1  0.50273472  0.50599261  0.17045656  1
  Fe  Fe14  1  0.33839214  0.33884876  0.33742372  1
  Ni  Ni15  1  0.33855384  0.67149937  0.00551185  1
  Ni  Ni16  1  0.50436593  0.83674669  0.17142866  1
  Fe  Fe17  1  0.33856014  0.67090365  0.33711632  1
  Fe  Fe18  1  0.67032447  1.00410948  1.00438812  1
  Ni  Ni19  1  0.83845627  0.17089854  0.17110061  1
  Fe  Fe20  1  0.67175095  1.00409530  0.33795820  1
  Fe  Fe21  1  0.67055419  0.33800275  0.00469751  1
  Fe  Fe22  1  0.83713744  0.50474388  0.17135866  1
  Fe  Fe23  1  0.67136091  0.33802369  0.33764782  1
  Fe  Fe24  1  0.67014974  0.67152629  0.00528474  1
  Fe  Fe25  1  0.83727485  0.83708547  0.17203241  1
  Ni  Ni26  1  0.67083396  0.67149013  0.33740092  1
  Fe  Fe27  1  0.16993750  0.17084931  0.50477246  1
  Fe  Fe28  1  0.00460386  1.00448746  0.67059857  1
  Fe  Fe29  1  0.17194830  0.17084924  0.83757014  1
  Fe  Fe30  1  0.17010926  0.50446473  0.50465392  1
  Ni  Ni31  1  1.00385755  0.33662825  0.67110864  1
  Fe  Fe32  1  0.17238620  0.50477680  0.83807949  1
  Fe  Fe33  1  0.17039656  0.83832360  0.50485446  1
  Fe  Fe34  1  0.00485958  0.67089796  0.67098713  1
  Fe  Fe35  1  0.17272154  0.83801110  0.83787977  1
  Fe  Fe36  1  0.50543409  0.17070216  0.50513934  1
  Fe  Fe37  1  0.33782332  0.00468184  0.67174754  1
  Ni  Ni38  1  0.50454634  0.17054935  0.83797586  1
  Fe  Fe39  1  0.50564947  0.50500199  0.50395263  1
  Fe  Fe40  1  0.33756720  0.33811398  0.67135721  1
  Fe  Fe41  1  0.50416805  0.50501086  0.83831090  1
  Fe  Fe42  1  0.50551338  0.83793541  0.50454609  1
  Ni  Ni43  1  0.33866279  0.67190551  0.67072309  1
  Ni  Ni44  1  0.50415958  0.83805964  0.83710952  1
  Ni  Ni45  1  0.83834409  0.17055508  0.50569556  1
  Fe  Fe46  1  0.67121188  0.00462522  0.67129466  1
  Fe  Fe47  1  0.83714256  0.17100934  0.83773401  1
  Fe  Fe48  1  0.83787875  0.50454346  0.50470896  1
  Fe  Fe49  1  0.67115531  0.33785605  0.67129353  1
  Fe  Fe50  1  0.83708380  0.50423756  0.83756947  1
  Ni  Ni51  1  0.83796357  0.83882127  0.50482610  1
  Fe  Fe52  1  0.67134825  0.67115703  0.67061970  1
  Fe  Fe53  1  0.83691013  0.83838901  0.83736699  1
" 