4091,Ni78Fe11Cr9_15,-237.161882515705, 183.790801122189,Ni78Fe11Cr9,"# generated using pymatgen
 data_CrFeNi7
_symmetry_space_group_name_H-M   'P 1'
_cell_length_a   7.45035961
_cell_length_b   7.45035961
_cell_length_c   10.53639961
_cell_angle_alpha   90.00000000
_cell_angle_beta   90.00000000
_cell_angle_gamma   90.00000000
_symmetry_Int_Tables_number   1
_chemical_formula_structural   CrFeNi7
_chemical_formula_sum   'Cr6 Fe6 Ni42'
_cell_volume   584.85297753
_cell_formula_units_Z   6
loop_
 _symmetry_equiv_pos_site_id
 _symmetry_equiv_pos_as_xyz
  1  'x, y, z'
loop_
 _atom_site_type_symbol
 _atom_site_label
 _atom_site_symmetry_multiplicity
 _atom_site_fract_x
 _atom_site_fract_y
 _atom_site_fract_z
 _atom_site_occupancy
  Ni  Ni0  1  0.99667163  1.00103476  0.00258084  1
  Ni  Ni1  1  0.16737195  0.16807015  0.16804364  1
  Ni  Ni2  1  0.00122258  0.00204202  0.33336010  1
  Ni  Ni3  1  0.99972851  0.33559232  1.00074226  1
  Ni  Ni4  1  0.16825790  0.50134578  0.16680276  1
  Ni  Ni5  1  1.00110165  0.33458945  0.33510012  1
  Ni  Ni6  1  1.00103639  0.66673317  0.00125766  1
  Ni  Ni7  1  0.16671565  0.83394450  0.16877444  1
  Ni  Ni8  1  0.00180231  0.66672649  0.33429865  1
  Cr  Cr9  1  0.33540801  0.99982263  0.00359679  1
  Ni  Ni10  1  0.50157584  0.16844979  0.16846784  1
  Ni  Ni11  1  0.33518221  1.00069138  0.33557145  1
  Ni  Ni12  1  0.33483758  0.33884999  0.00187247  1
  Ni  Ni13  1  0.50061567  0.50088984  0.16725934  1
  Ni  Ni14  1  0.33427178  0.33491150  0.33465054  1
  Ni  Ni15  1  0.33482388  0.66475762  0.00180938  1
  Ni  Ni16  1  0.50177840  0.83401864  0.16793465  1
  Ni  Ni17  1  0.33492389  0.66775671  0.33444507  1
  Ni  Ni18  1  0.67076416  1.00104939  1.00109768  1
  Ni  Ni19  1  0.83441127  0.16690818  0.16693242  1
  Ni  Ni20  1  0.66695615  0.00139117  0.33381572  1
  Ni  Ni21  1  0.66879222  0.33448654  0.00189820  1
  Ni  Ni22  1  0.83448675  0.50154595  0.16765105  1
  Fe  Fe23  1  0.66785611  0.33455633  0.33421133  1
  Fe  Fe24  1  0.66835436  0.66715485  0.00168048  1
  Ni  Ni25  1  0.83486842  0.83490523  0.16714129  1
  Ni  Ni26  1  0.66663439  0.66763761  0.33401570  1
  Ni  Ni27  1  0.16832813  0.16776077  0.50188233  1
  Ni  Ni28  1  0.99911478  0.00229471  0.66741512  1
  Cr  Cr29  1  0.16602093  0.17030739  0.83394895  1
  Ni  Ni30  1  0.16826339  0.50081162  0.50203212  1
  Ni  Ni31  1  0.00192026  0.33456764  0.66752057  1
  Ni  Ni32  1  0.16836559  0.50135768  0.83452497  1
  Ni  Ni33  1  0.16957958  0.83478905  0.50104029  1
  Fe  Fe34  1  0.00149819  0.66583380  0.66794094  1
  Cr  Cr35  1  0.16608069  0.83269329  0.83373897  1
  Ni  Ni36  1  0.49981245  0.16706025  0.50040702  1
  Fe  Fe37  1  0.33478432  1.00106723  0.66439404  1
  Cr  Cr38  1  0.50204123  0.16877843  0.83478440  1
  Ni  Ni39  1  0.49987859  0.50151297  0.50055089  1
  Ni  Ni40  1  0.33259086  0.33765546  0.66683684  1
  Ni  Ni41  1  0.50019817  0.50292868  0.83554488  1
  Ni  Ni42  1  0.49926894  0.83478714  0.50219881  1
  Ni  Ni43  1  0.33525854  0.66662865  0.66710514  1
  Fe  Fe44  1  0.50402477  0.83161690  0.83362317  1
  Ni  Ni45  1  0.83521793  0.16836865  0.50107171  1
  Ni  Ni46  1  0.66872431  0.99961913  0.66844447  1
  Ni  Ni47  1  0.83473051  0.16616885  0.83535026  1
  Ni  Ni48  1  0.83521814  0.50025939  0.50058188  1
  Cr  Cr49  1  0.66923607  0.33435368  0.66604334  1
  Ni  Ni50  1  0.83479969  0.50249302  0.83512391  1
  Cr  Cr51  1  0.83489524  0.83425491  0.50063098  1
  Fe  Fe52  1  0.66702009  0.66795138  0.66801948  1
  Ni  Ni53  1  0.83315600  0.83469441  0.83470970  1
" 