4797,Ni78Fe22_13,-233.018366625173, 184.153176767223,Ni78Fe22,"# generated using pymatgen
 data_Fe7Ni2
_symmetry_space_group_name_H-M   'P 1'
_cell_length_a   7.39691765
_cell_length_b   7.39691765
_cell_length_c   10.46082126
_cell_angle_alpha   90.00000000
_cell_angle_beta   90.00000000
_cell_angle_gamma   90.00000000
_symmetry_Int_Tables_number   1
_chemical_formula_structural   Fe7Ni2
_chemical_formula_sum   'Fe42 Ni12'
_cell_volume   572.35746139
_cell_formula_units_Z   6
loop_
 _symmetry_equiv_pos_site_id
 _symmetry_equiv_pos_as_xyz
  1  'x, y, z'
loop_
 _atom_site_type_symbol
 _atom_site_label
 _atom_site_symmetry_multiplicity
 _atom_site_fract_x
 _atom_site_fract_y
 _atom_site_fract_z
 _atom_site_occupancy
  Fe  Fe0  1  1.00458058  1.00457907  0.00557333  1
  Fe  Fe1  1  0.17255442  0.17099953  0.17182246  1
  Ni  Ni2  1  1.00442158  1.00398061  0.33787272  1
  Fe  Fe3  1  1.00389150  0.33750031  1.00447017  1
  Fe  Fe4  1  0.17283115  0.50539124  0.17194956  1
  Fe  Fe5  1  1.00473074  0.33830181  0.33822793  1
  Fe  Fe6  1  1.00451272  0.67214546  1.00462263  1
  Ni  Ni7  1  0.17158138  0.83862183  0.17129344  1
  Fe  Fe8  1  0.00532082  0.67184930  0.33876620  1
  Fe  Fe9  1  0.33849453  1.00405205  0.00515074  1
  Fe  Fe10  1  0.50407165  0.17092033  0.17122581  1
  Fe  Fe11  1  0.33769944  1.00391298  0.33764440  1
  Fe  Fe12  1  0.33890095  0.33775185  0.00480782  1
  Ni  Ni13  1  0.50530138  0.50440790  0.17098519  1
  Ni  Ni14  1  0.33733834  0.33892627  0.33739297  1
  Fe  Fe15  1  0.33880720  0.67241528  0.00540673  1
  Ni  Ni16  1  0.50430345  0.83763589  0.17154678  1
  Fe  Fe17  1  0.33775379  0.67173422  0.33763159  1
  Ni  Ni18  1  0.67192692  1.00377209  0.00586113  1
  Fe  Fe19  1  0.83759297  0.17032820  0.17113643  1
  Fe  Fe20  1  0.67142006  1.00449756  0.33817154  1
  Fe  Fe21  1  0.67143205  0.33780831  0.00490252  1
  Fe  Fe22  1  0.83723777  0.50614568  0.17138297  1
  Fe  Fe23  1  0.67131116  0.33834911  0.33763701  1
  Fe  Fe24  1  0.67090319  0.67172705  0.00582222  1
  Fe  Fe25  1  0.83715891  0.83774829  0.17215324  1
  Ni  Ni26  1  0.67161382  0.67217195  0.33776099  1
  Fe  Fe27  1  0.17109669  0.17127603  0.50448021  1
  Fe  Fe28  1  0.00481839  0.00481634  0.67033109  1
  Fe  Fe29  1  0.17165936  0.17193012  0.83791746  1
  Ni  Ni30  1  0.17187164  0.50471747  0.50460278  1
  Fe  Fe31  1  0.00482182  0.33784309  0.67152006  1
  Fe  Fe32  1  0.17156521  0.50431188  0.83716005  1
  Ni  Ni33  1  0.17046675  0.83764748  0.50539247  1
  Fe  Fe34  1  0.00508014  0.67156652  0.67083409  1
  Fe  Fe35  1  0.17131304  0.83798526  0.83825859  1
  Fe  Fe36  1  0.50380711  0.17118633  0.50536664  1
  Fe  Fe37  1  0.33843071  0.00499917  0.67143334  1
  Fe  Fe38  1  0.50500451  0.17113760  0.83763252  1
  Fe  Fe39  1  0.50388472  0.50553761  0.50390578  1
  Ni  Ni40  1  0.33697945  0.33905494  0.67206245  1
  Fe  Fe41  1  0.50439575  0.50440097  0.83840168  1
  Fe  Fe42  1  0.50494652  0.83750064  0.50443716  1
  Fe  Fe43  1  0.33805932  0.67148366  0.67118138  1
  Fe  Fe44  1  0.50544344  0.83867673  0.83874246  1
  Fe  Fe45  1  0.83931252  0.17022266  0.50482838  1
  Ni  Ni46  1  0.67250609  1.00353702  0.67072267  1
  Fe  Fe47  1  0.83756021  0.17088203  0.83825972  1
  Fe  Fe48  1  0.83899063  0.50626512  0.50457840  1
  Fe  Fe49  1  0.67089013  0.33746814  0.67167694  1
  Fe  Fe50  1  0.83825355  0.50474879  0.83825860  1
  Ni  Ni51  1  0.83858185  0.83904573  0.50471646  1
  Fe  Fe52  1  0.67108131  0.67148969  0.67066366  1
  Fe  Fe53  1  0.83747289  0.83858102  0.83740266  1
" 