3668,Ni78Fe2Cr18_6,-231.837080552723, 157.753826574862,Ni78Fe2Cr18,"# generated using pymatgen
 data_Cr11FeNi42
_symmetry_space_group_name_H-M   'P 1'
_cell_length_a   7.47360217
_cell_length_b   7.47360217
_cell_length_c   10.56926955
_cell_angle_alpha   90.00000000
_cell_angle_beta   90.00000000
_cell_angle_gamma   90.00000000
_symmetry_Int_Tables_number   1
_chemical_formula_structural   Cr11FeNi42
_chemical_formula_sum   'Cr11 Fe1 Ni42'
_cell_volume   590.34369023
_cell_formula_units_Z   1
loop_
 _symmetry_equiv_pos_site_id
 _symmetry_equiv_pos_as_xyz
  1  'x, y, z'
loop_
 _atom_site_type_symbol
 _atom_site_label
 _atom_site_symmetry_multiplicity
 _atom_site_fract_x
 _atom_site_fract_y
 _atom_site_fract_z
 _atom_site_occupancy
  Ni  Ni0  1  0.99873445  0.00002573  0.99949372  1
  Ni  Ni1  1  0.16814772  0.16748921  0.16501162  1
  Cr  Cr2  1  0.00034706  0.99747131  0.33267071  1
  Ni  Ni3  1  0.99908006  0.33377140  0.99805895  1
  Ni  Ni4  1  0.16732272  0.49847443  0.16224489  1
  Cr  Cr5  1  0.99705820  0.33466026  0.33296562  1
  Ni  Ni6  1  0.99890277  0.66443792  0.00076056  1
  Ni  Ni7  1  0.16559675  0.83294974  0.16462988  1
  Cr  Cr8  1  0.99695397  0.66598349  0.33237196  1
  Cr  Cr9  1  0.33424853  0.00101168  0.99804239  1
  Ni  Ni10  1  0.49859416  0.16898884  0.16713484  1
  Ni  Ni11  1  0.33545232  0.00143618  0.33307057  1
  Fe  Fe12  1  0.33271949  0.33361180  0.99917494  1
  Ni  Ni13  1  0.50064378  0.49734386  0.16520885  1
  Ni  Ni14  1  0.33645090  0.33133725  0.32960544  1
  Ni  Ni15  1  0.33230587  0.66465969  -0.00013341  1
  Cr  Cr16  1  0.50357070  0.83325757  0.16490141  1
  Cr  Cr17  1  0.33369787  0.66652115  0.33336312  1
  Ni  Ni18  1  0.66783977  0.00033668  0.99665366  1
  Cr  Cr19  1  0.82984422  0.16474627  0.16542971  1
  Ni  Ni20  1  0.66393354  -0.00020904  0.33479934  1
  Ni  Ni21  1  0.66722124  0.33286153  0.99931155  1
  Ni  Ni22  1  0.83070522  0.50058976  0.16442326  1
  Ni  Ni23  1  0.66270222  0.33381477  0.33432732  1
  Ni  Ni24  1  0.66800160  0.66548685  0.99934754  1
  Ni  Ni25  1  0.83361379  0.83073566  0.16383625  1
  Ni  Ni26  1  0.66633046  0.66497231  0.33356669  1
  Cr  Cr27  1  0.16718957  0.16552582  0.50155696  1
  Ni  Ni28  1  0.99751373  -0.00013841  0.66668745  1
  Ni  Ni29  1  0.16481151  0.16823349  0.83153450  1
  Cr  Cr30  1  0.16732470  0.49917688  0.50519886  1
  Ni  Ni31  1  0.99674758  0.33291439  0.66891134  1
  Ni  Ni32  1  0.16444935  0.49763197  0.83254754  1
  Ni  Ni33  1  0.16680405  0.83384366  0.50274967  1
  Ni  Ni34  1  0.99718149  0.66598120  0.66635758  1
  Cr  Cr35  1  0.16560817  0.83095698  0.83058366  1
  Ni  Ni36  1  0.50124377  0.16643954  0.49906791  1
  Ni  Ni37  1  0.33501808  -0.00020103  0.66590640  1
  Ni  Ni38  1  0.50161627  0.16595831  0.83186468  1
  Ni  Ni39  1  0.50213958  0.49863123  0.50017961  1
  Ni  Ni40  1  0.33446897  0.33166003  0.66894359  1
  Cr  Cr41  1  0.50036772  0.50147633  0.83290701  1
  Ni  Ni42  1  0.50099334  0.83356462  0.50128777  1
  Ni  Ni43  1  0.33442659  0.66726909  0.66564713  1
  Ni  Ni44  1  0.50267884  0.83396253  0.83163087  1
  Ni  Ni45  1  0.82877482  0.16593359  0.50181261  1
  Ni  Ni46  1  0.66575521  -0.00016143  0.66741775  1
  Ni  Ni47  1  0.83291021  0.16617199  0.83266467  1
  Ni  Ni48  1  0.82835182  0.49980296  0.50188171  1
  Ni  Ni49  1  0.66694886  0.33216431  0.66514161  1
  Ni  Ni50  1  0.83427005  0.49942466  0.83276018  1
  Ni  Ni51  1  0.83048061  0.83307968  0.50109152  1
  Ni  Ni52  1  0.66708112  0.66705804  0.66557150  1
  Ni  Ni53  1  0.83114484  0.83319352  0.83414478  1
" 