2997,Ni78Fe2Cr18_17,-231.84981963514, 157.913418273189,Ni78Fe2Cr18,"# generated using pymatgen
 data_Cr11FeNi42
_symmetry_space_group_name_H-M   'P 1'
_cell_length_a   7.47300849
_cell_length_b   7.47300849
_cell_length_c   10.56842996
_cell_angle_alpha   90.00000000
_cell_angle_beta   90.00000000
_cell_angle_gamma   90.00000000
_symmetry_Int_Tables_number   1
_chemical_formula_structural   Cr11FeNi42
_chemical_formula_sum   'Cr11 Fe1 Ni42'
_cell_volume   590.20301678
_cell_formula_units_Z   1
loop_
 _symmetry_equiv_pos_site_id
 _symmetry_equiv_pos_as_xyz
  1  'x, y, z'
loop_
 _atom_site_type_symbol
 _atom_site_label
 _atom_site_symmetry_multiplicity
 _atom_site_fract_x
 _atom_site_fract_y
 _atom_site_fract_z
 _atom_site_occupancy
  Ni  Ni0  1  0.00003160  0.99784440  0.00000368  1
  Ni  Ni1  1  0.16940923  0.16562210  0.16526910  1
  Cr  Cr2  1  0.00177863  0.00064865  0.33122498  1
  Cr  Cr3  1  0.99843648  0.33198320  0.00185761  1
  Ni  Ni4  1  0.16915679  0.50019830  0.16563705  1
  Cr  Cr5  1  -0.00020471  0.33330266  0.33261506  1
  Ni  Ni6  1  0.99835620  0.66871480  0.00030236  1
  Ni  Ni7  1  0.16660627  0.83300323  0.16404966  1
  Cr  Cr8  1  0.99944201  0.66494477  0.33167069  1
  Ni  Ni9  1  0.33115563  0.00159162  -0.00034026  1
  Ni  Ni10  1  0.49974688  0.16774164  0.16609255  1
  Ni  Ni11  1  0.33380807  0.00135771  0.33394425  1
  Ni  Ni12  1  0.33600958  0.33174963  0.00052139  1
  Ni  Ni13  1  0.49953790  0.49768220  0.16579537  1
  Ni  Ni14  1  0.33501787  0.33198402  0.33266061  1
  Ni  Ni15  1  0.33257513  0.66530599  0.00108112  1
  Cr  Cr16  1  0.50038566  0.83390419  0.16703765  1
  Fe  Fe17  1  0.33434962  0.66484073  0.33342477  1
  Ni  Ni18  1  0.66763538  0.00138572  0.99947370  1
  Ni  Ni19  1  0.82958672  0.16513007  0.16596042  1
  Ni  Ni20  1  0.66356581  0.00115307  0.33349705  1
  Ni  Ni21  1  0.66409198  0.33354648  -0.00027490  1
  Ni  Ni22  1  0.83020312  0.50035494  0.16543473  1
  Ni  Ni23  1  0.66364296  0.33391189  0.33285542  1
  Ni  Ni24  1  0.66786598  0.66395064  -0.00012818  1
  Ni  Ni25  1  0.83244834  0.83330601  0.16395812  1
  Ni  Ni26  1  0.66483834  0.66383622  0.33268931  1
  Ni  Ni27  1  0.16829143  0.16893567  0.49970438  1
  Cr  Cr28  1  0.00002560  0.00033925  0.66723542  1
  Ni  Ni29  1  0.16678888  0.16625387  0.83399970  1
  Ni  Ni30  1  0.16809422  0.49892710  0.50133729  1
  Ni  Ni31  1  0.99873035  0.33371436  0.66440404  1
  Cr  Cr32  1  0.16742758  0.49976110  0.83153371  1
  Ni  Ni33  1  0.16990235  0.83064282  0.49963591  1
  Ni  Ni34  1  0.00074415  0.66469430  0.66654345  1
  Ni  Ni35  1  0.16453491  0.83209429  0.83484287  1
  Ni  Ni36  1  0.50068391  0.16745286  0.49883000  1
  Cr  Cr37  1  0.33464314  0.00054711  0.66576072  1
  Ni  Ni38  1  0.50095459  0.16898810  0.83396475  1
  Ni  Ni39  1  0.49838894  0.49815223  0.49875999  1
  Ni  Ni40  1  0.33468032  0.33328640  0.66567385  1
  Ni  Ni41  1  0.49982587  0.49668972  0.83415932  1
  Ni  Ni42  1  0.49785397  0.83314876  0.49750349  1
  Ni  Ni43  1  0.33186309  0.66461266  0.66354387  1
  Cr  Cr44  1  0.49932659  0.83289812  0.83481420  1
  Ni  Ni45  1  0.82983219  0.16940049  0.50032765  1
  Ni  Ni46  1  0.66559289  0.00303460  0.66582117  1
  Ni  Ni47  1  0.83111415  0.16642547  0.83242525  1
  Ni  Ni48  1  0.83227284  0.49668087  0.50075453  1
  Ni  Ni49  1  0.66542240  0.33211379  0.66613412  1
  Ni  Ni50  1  0.83200597  0.49904814  0.83270874  1
  Cr  Cr51  1  0.83051715  0.83384769  0.49951479  1
  Cr  Cr52  1  0.66491448  0.66438704  0.66697249  1
  Ni  Ni53  1  0.83455383  0.83339162  0.83524431  1
" 