4971,Ni78Fe2Cr18_9,-231.858239665205, 158.733517125528,Ni78Fe2Cr18,"# generated using pymatgen
 data_Cr11FeNi42
_symmetry_space_group_name_H-M   'P 1'
_cell_length_a   7.47376683
_cell_length_b   7.47376683
_cell_length_c   10.56950241
_cell_angle_alpha   90.00000000
_cell_angle_beta   90.00000000
_cell_angle_gamma   90.00000000
_symmetry_Int_Tables_number   1
_chemical_formula_structural   Cr11FeNi42
_chemical_formula_sum   'Cr11 Fe1 Ni42'
_cell_volume   590.38271013
_cell_formula_units_Z   1
loop_
 _symmetry_equiv_pos_site_id
 _symmetry_equiv_pos_as_xyz
  1  'x, y, z'
loop_
 _atom_site_type_symbol
 _atom_site_label
 _atom_site_symmetry_multiplicity
 _atom_site_fract_x
 _atom_site_fract_y
 _atom_site_fract_z
 _atom_site_occupancy
  Ni  Ni0  1  0.00142579  0.00004392  -0.00016532  1
  Ni  Ni1  1  0.16568723  0.16629870  0.16489616  1
  Ni  Ni2  1  0.99890545  0.00087555  0.33128569  1
  Ni  Ni3  1  0.99763350  0.33032556  0.99948267  1
  Cr  Cr4  1  0.16601421  0.49894441  0.16306879  1
  Ni  Ni5  1  0.99953293  0.33100149  0.33233509  1
  Ni  Ni6  1  0.99682089  0.66829254  0.99889217  1
  Ni  Ni7  1  0.16523835  0.83447864  0.16379504  1
  Cr  Cr8  1  0.00070252  0.66647933  0.33539159  1
  Ni  Ni9  1  0.33128848  0.00058225  0.99905469  1
  Ni  Ni10  1  0.49905124  0.16789303  0.16656171  1
  Cr  Cr11  1  0.32962790  0.00013110  0.33046082  1
  Ni  Ni12  1  0.33462367  0.32996922  0.99945185  1
  Ni  Ni13  1  0.50036697  0.49800154  0.16525923  1
  Ni  Ni14  1  0.33241677  0.33347850  0.33318664  1
  Ni  Ni15  1  0.33508390  0.66836962  0.00048195  1
  Ni  Ni16  1  0.49954511  0.83290073  0.16526937  1
  Ni  Ni17  1  0.33277985  0.66457385  0.33255795  1
  Cr  Cr18  1  0.66615803  0.00110807  0.99944899  1
  Fe  Fe19  1  0.83358197  0.16710695  0.16578933  1
  Ni  Ni20  1  0.66878768  0.00067704  0.32919659  1
  Ni  Ni21  1  0.66609193  0.33471261  0.99918925  1
  Ni  Ni22  1  0.83203663  0.49848956  0.16376709  1
  Ni  Ni23  1  0.66664988  0.33287189  0.33047208  1
  Ni  Ni24  1  0.66663082  0.66511960  0.99927036  1
  Ni  Ni25  1  0.83401164  0.83317582  0.16569931  1
  Cr  Cr26  1  0.66666240  0.66506333  0.33237866  1
  Ni  Ni27  1  0.16476955  0.16712077  0.50053507  1
  Ni  Ni28  1  0.00062337  -0.00035792  0.66718191  1
  Ni  Ni29  1  0.16579843  0.16530609  0.83304070  1
  Ni  Ni30  1  0.16557101  0.49703411  0.49909440  1
  Ni  Ni31  1  0.99950366  0.33238272  0.66636686  1
  Cr  Cr32  1  0.16460161  0.49898755  0.83650881  1
  Ni  Ni33  1  0.16388000  0.83436081  0.50025530  1
  Ni  Ni34  1  0.99895148  0.66663219  0.66540569  1
  Ni  Ni35  1  0.16486519  0.83492563  0.83460650  1
  Cr  Cr36  1  0.50010597  0.16700797  0.50119731  1
  Ni  Ni37  1  0.33034710  0.00130110  0.66912641  1
  Ni  Ni38  1  0.49912320  0.16704663  0.83138050  1
  Ni  Ni39  1  0.49903154  0.49644325  0.49783693  1
  Ni  Ni40  1  0.33228039  0.33113627  0.66631798  1
  Ni  Ni41  1  0.50038060  0.49740377  0.83553592  1
  Cr  Cr42  1  0.50167114  0.83606947  0.49913802  1
  Cr  Cr43  1  0.33114671  0.66543014  0.66484738  1
  Ni  Ni44  1  0.49887735  0.83408784  0.83419985  1
  Cr  Cr45  1  0.83245104  0.16461736  0.49875473  1
  Ni  Ni46  1  0.66790994  0.00035323  0.66983926  1
  Ni  Ni47  1  0.83388540  0.16707469  0.83275317  1
  Ni  Ni48  1  0.83402104  0.49727487  0.50093276  1
  Ni  Ni49  1  0.66655592  0.33274215  0.66867577  1
  Ni  Ni50  1  0.83287216  0.49849371  0.83426290  1
  Ni  Ni51  1  0.83581067  0.83419337  0.50085570  1
  Cr  Cr52  1  0.66850339  0.66423150  0.66800975  1
  Ni  Ni53  1  0.83483233  0.83346179  0.83258859  1
" 