2428,Ni78Fe22_3,-233.15636499663, 187.966204381668,Ni78Fe22,"# generated using pymatgen
 data_Fe7Ni2
_symmetry_space_group_name_H-M   'P 1'
_cell_length_a   7.39607477
_cell_length_b   7.39607477
_cell_length_c   10.45962925
_cell_angle_alpha   90.00000000
_cell_angle_beta   90.00000000
_cell_angle_gamma   90.00000000
_symmetry_Int_Tables_number   1
_chemical_formula_structural   Fe7Ni2
_chemical_formula_sum   'Fe42 Ni12'
_cell_volume   572.16182399
_cell_formula_units_Z   6
loop_
 _symmetry_equiv_pos_site_id
 _symmetry_equiv_pos_as_xyz
  1  'x, y, z'
loop_
 _atom_site_type_symbol
 _atom_site_label
 _atom_site_symmetry_multiplicity
 _atom_site_fract_x
 _atom_site_fract_y
 _atom_site_fract_z
 _atom_site_occupancy
  Fe  Fe0  1  1.00340255  1.00465354  0.00510665  1
  Fe  Fe1  1  0.17114848  0.17178594  0.17169353  1
  Ni  Ni2  1  0.00557624  1.00470449  0.33891263  1
  Fe  Fe3  1  1.00340642  0.33827959  0.00519846  1
  Ni  Ni4  1  0.17128209  0.50530557  0.17054600  1
  Fe  Fe5  1  0.00527789  0.33806462  0.33787490  1
  Fe  Fe6  1  1.00372511  0.67146371  1.00426317  1
  Fe  Fe7  1  0.17122833  0.83798868  0.17177858  1
  Fe  Fe8  1  0.00558047  0.67176766  0.33889060  1
  Fe  Fe9  1  0.33951379  1.00456738  1.00448299  1
  Fe  Fe10  1  0.50464463  0.17191279  0.17153559  1
  Fe  Fe11  1  0.33767788  0.00480110  0.33860737  1
  Fe  Fe12  1  0.33974303  0.33859343  0.00488573  1
  Fe  Fe13  1  0.50479820  0.50488574  0.17092024  1
  Fe  Fe14  1  0.33758604  0.33807652  0.33859963  1
  Fe  Fe15  1  0.33951190  0.67123324  1.00464597  1
  Fe  Fe16  1  0.50481782  0.83759496  0.17091009  1
  Fe  Fe17  1  0.33704294  0.67151875  0.33850904  1
  Ni  Ni18  1  0.67117643  0.00498788  0.00498389  1
  Fe  Fe19  1  0.83860159  0.17176111  0.17123239  1
  Fe  Fe20  1  0.67179055  0.00511515  0.33782609  1
  Ni  Ni21  1  0.67079097  0.33832382  0.00481432  1
  Fe  Fe22  1  0.83821193  0.50480362  0.17090897  1
  Fe  Fe23  1  0.67154137  0.33742927  0.33822569  1
  Ni  Ni24  1  0.67118609  0.67107705  1.00430538  1
  Fe  Fe25  1  0.83834716  0.83782946  0.17131754  1
  Fe  Fe26  1  0.67176080  0.67184470  0.33774152  1
  Fe  Fe27  1  0.17234262  0.17177511  0.50448321  1
  Fe  Fe28  1  0.00527066  1.00377059  0.67101537  1
  Fe  Fe29  1  0.17199833  0.17145146  0.83822313  1
  Ni  Ni30  1  0.17164317  0.50630417  0.50551681  1
  Fe  Fe31  1  0.00494745  0.33883040  0.67131925  1
  Fe  Fe32  1  0.17162110  0.50542051  0.83790274  1
  Ni  Ni33  1  0.16994469  0.83754337  0.50388599  1
  Ni  Ni34  1  0.00557984  0.67148316  0.67079398  1
  Ni  Ni35  1  0.17025744  0.83833161  0.83934466  1
  Ni  Ni36  1  0.50641514  0.17223511  0.50479746  1
  Fe  Fe37  1  0.33727049  1.00401681  0.67130653  1
  Fe  Fe38  1  0.50464665  0.17130553  0.83805705  1
  Ni  Ni39  1  0.50470744  0.50331457  0.50398711  1
  Fe  Fe40  1  0.33816528  0.33913737  0.67090674  1
  Ni  Ni41  1  0.50570026  0.50398218  0.83903713  1
  Fe  Fe42  1  0.50386807  0.83767404  0.50462655  1
  Fe  Fe43  1  0.33726812  0.67123886  0.67123921  1
  Fe  Fe44  1  0.50478275  0.83773784  0.83885435  1
  Fe  Fe45  1  0.83836428  0.17176818  0.50448018  1
  Fe  Fe46  1  0.67185038  1.00466493  0.67167807  1
  Fe  Fe47  1  0.83774859  0.17146549  0.83868937  1
  Fe  Fe48  1  0.83827486  0.50503143  0.50511567  1
  Fe  Fe49  1  0.67129919  0.33881874  0.67168267  1
  Fe  Fe50  1  0.83797331  0.50556418  0.83836291  1
  Fe  Fe51  1  0.83842248  0.83759434  0.50471235  1
  Fe  Fe52  1  0.67153482  0.67089989  0.67199540  1
  Fe  Fe53  1  0.83782426  0.83736276  0.83836149  1
" 