1451,Ni78Fe11Cr10_19,-236.885788633525, 181.299497944039,Ni78Fe11Cr10,"# generated using pymatgen
 data_CrFeNi7
_symmetry_space_group_name_H-M   'P 1'
_cell_length_a   7.44962478
_cell_length_b   7.44962478
_cell_length_c   10.53536040
_cell_angle_alpha   90.00000000
_cell_angle_beta   90.00000000
_cell_angle_gamma   90.00000000
_symmetry_Int_Tables_number   1
_chemical_formula_structural   CrFeNi7
_chemical_formula_sum   'Cr6 Fe6 Ni42'
_cell_volume   584.67994208
_cell_formula_units_Z   6
loop_
 _symmetry_equiv_pos_site_id
 _symmetry_equiv_pos_as_xyz
  1  'x, y, z'
loop_
 _atom_site_type_symbol
 _atom_site_label
 _atom_site_symmetry_multiplicity
 _atom_site_fract_x
 _atom_site_fract_y
 _atom_site_fract_z
 _atom_site_occupancy
  Ni  Ni0  1  0.00198604  0.00195114  0.00238398  1
  Ni  Ni1  1  0.16769642  0.16716040  0.16831805  1
  Ni  Ni2  1  0.99855071  1.00059222  0.33451070  1
  Ni  Ni3  1  0.00135457  0.33457561  0.00117186  1
  Cr  Cr4  1  0.16803421  0.50028568  0.16902082  1
  Ni  Ni5  1  0.99750865  0.33369311  0.33350716  1
  Ni  Ni6  1  1.00082048  0.66693522  0.99980421  1
  Cr  Cr7  1  0.17038170  0.83555907  0.16780685  1
  Ni  Ni8  1  0.99875354  0.66952556  0.33604744  1
  Ni  Ni9  1  0.33566662  0.00199789  0.99981958  1
  Ni  Ni10  1  0.50191155  0.16706164  0.16783949  1
  Ni  Ni11  1  0.33684576  1.00061736  0.33520951  1
  Ni  Ni12  1  0.33592816  0.33349792  0.00130308  1
  Ni  Ni13  1  0.50369471  0.50182895  0.16787385  1
  Ni  Ni14  1  0.33883383  0.33384837  0.33310262  1
  Ni  Ni15  1  0.33637591  0.66749364  0.99913335  1
  Ni  Ni16  1  0.50210103  0.83451901  0.16723493  1
  Ni  Ni17  1  0.33687681  0.66877742  0.33559398  1
  Ni  Ni18  1  0.66542889  0.00152349  0.00309250  1
  Ni  Ni19  1  0.83375615  0.16933817  0.16704279  1
  Ni  Ni20  1  0.66780346  0.00189997  0.33446404  1
  Ni  Ni21  1  0.66638342  0.33522641  0.00158729  1
  Ni  Ni22  1  0.83289134  0.50053043  0.16757567  1
  Ni  Ni23  1  0.66746295  0.33353151  0.33503275  1
  Ni  Ni24  1  0.66652264  0.66684722  0.00270966  1
  Fe  Fe25  1  0.83312858  0.83506134  0.16700413  1
  Fe  Fe26  1  0.66747379  0.66757212  0.33448552  1
  Cr  Cr27  1  0.16813838  0.16658746  0.49954272  1
  Ni  Ni28  1  0.00120206  1.00014465  0.66675835  1
  Ni  Ni29  1  0.16916906  0.16720132  0.83495906  1
  Cr  Cr30  1  0.16794056  0.50227990  0.49960505  1
  Ni  Ni31  1  1.00099702  0.33505446  0.66852518  1
  Fe  Fe32  1  0.16814484  0.50065012  0.83445614  1
  Ni  Ni33  1  0.16895031  0.83410917  0.50168678  1
  Ni  Ni34  1  0.00165666  0.66834051  0.66788823  1
  Ni  Ni35  1  0.16969257  0.83448984  0.83408808  1
  Ni  Ni36  1  0.50379152  0.16732367  0.50152688  1
  Fe  Fe37  1  0.33528562  1.00069997  0.66848695  1
  Ni  Ni38  1  0.49961901  0.16703018  0.83415643  1
  Ni  Ni39  1  0.50351161  0.50180592  0.50103981  1
  Ni  Ni40  1  0.33682083  0.33528260  0.66892820  1
  Fe  Fe41  1  0.50224290  0.50102193  0.83446197  1
  Ni  Ni42  1  0.50035888  0.83437845  0.50150788  1
  Ni  Ni43  1  0.33543823  0.66796517  0.66866944  1
  Ni  Ni44  1  0.49931710  0.83429286  0.83475686  1
  Ni  Ni45  1  0.83275971  0.16916647  0.50215185  1
  Ni  Ni46  1  0.66619746  1.00114599  0.66623802  1
  Cr  Cr47  1  0.83261603  0.17037523  0.83425112  1
  Ni  Ni48  1  0.83283868  0.50049892  0.50173339  1
  Ni  Ni49  1  0.66612644  0.33503259  0.66686125  1
  Ni  Ni50  1  0.83397347  0.50138816  0.83412989  1
  Fe  Fe51  1  0.83353720  0.83513960  0.50197113  1
  Ni  Ni52  1  0.66640640  0.66738811  0.66638493  1
  Cr  Cr53  1  0.83224183  0.83290220  0.83570490  1
" 