2665,Ni78Fe11Cr10_14,-237.247647803146, 187.160700312172,Ni78Fe11Cr10,"# generated using pymatgen
 data_CrFeNi7
_symmetry_space_group_name_H-M   'P 1'
_cell_length_a   7.44630399
_cell_length_b   7.44630399
_cell_length_c   10.53066410
_cell_angle_alpha   90.00000000
_cell_angle_beta   90.00000000
_cell_angle_gamma   90.00000000
_symmetry_Int_Tables_number   1
_chemical_formula_structural   CrFeNi7
_chemical_formula_sum   'Cr6 Fe6 Ni42'
_cell_volume   583.89839913
_cell_formula_units_Z   6
loop_
 _symmetry_equiv_pos_site_id
 _symmetry_equiv_pos_as_xyz
  1  'x, y, z'
loop_
 _atom_site_type_symbol
 _atom_site_label
 _atom_site_symmetry_multiplicity
 _atom_site_fract_x
 _atom_site_fract_y
 _atom_site_fract_z
 _atom_site_occupancy
  Ni  Ni0  1  1.00086022  0.00270997  1.00070392  1
  Ni  Ni1  1  0.16756222  0.16863115  0.16892074  1
  Ni  Ni2  1  0.00290010  0.00204618  0.33552358  1
  Ni  Ni3  1  1.00055459  0.33494386  0.00161964  1
  Ni  Ni4  1  0.16619636  0.50074601  0.16812455  1
  Fe  Fe5  1  1.00076120  0.33421023  0.33374951  1
  Ni  Ni6  1  1.00080065  0.66652439  1.00026572  1
  Cr  Cr7  1  0.16860661  0.83483807  0.16818039  1
  Ni  Ni8  1  1.00006347  0.66804822  0.33449927  1
  Ni  Ni9  1  0.33603805  0.00186992  1.00100825  1
  Ni  Ni10  1  0.50140596  0.16685957  0.16731492  1
  Ni  Ni11  1  0.33333978  0.00277497  0.33547637  1
  Fe  Fe12  1  0.33293267  0.33298964  0.00144332  1
  Cr  Cr13  1  0.50193335  0.50202225  0.16831386  1
  Ni  Ni14  1  0.33539938  0.33305371  0.33448086  1
  Ni  Ni15  1  0.33403114  0.66943451  1.00056900  1
  Ni  Ni16  1  0.50162522  0.83532744  0.16751148  1
  Ni  Ni17  1  0.33514386  0.66834896  0.33572346  1
  Ni  Ni18  1  0.66727932  0.00211396  1.00096831  1
  Ni  Ni19  1  0.83520775  0.16925416  0.16739627  1
  Cr  Cr20  1  0.66779645  0.00231590  0.33445187  1
  Ni  Ni21  1  0.67018748  0.33293610  0.00172822  1
  Ni  Ni22  1  0.83573302  0.50096184  0.16842741  1
  Ni  Ni23  1  0.66824036  0.33588917  0.33559697  1
  Ni  Ni24  1  0.66934653  0.66912837  0.00179460  1
  Fe  Fe25  1  0.83415826  0.83415647  0.16683459  1
  Ni  Ni26  1  0.66897090  0.66598858  0.33541860  1
  Ni  Ni27  1  0.16803849  0.16512006  0.50099248  1
  Ni  Ni28  1  0.00243345  0.00156700  0.66795128  1
  Ni  Ni29  1  0.16767726  0.16752475  0.83426610  1
  Cr  Cr30  1  0.16845671  0.50223745  0.50140998  1
  Ni  Ni31  1  0.00180978  0.33370266  0.66860999  1
  Ni  Ni32  1  0.16630848  0.50212170  0.83478236  1
  Ni  Ni33  1  0.16822468  0.83651472  0.50130942  1
  Ni  Ni34  1  1.00055754  0.66890752  0.66941242  1
  Ni  Ni35  1  0.16798744  0.83453184  0.83444221  1
  Ni  Ni36  1  0.50042874  0.16840021  0.50107172  1
  Ni  Ni37  1  0.33392724  0.00156904  0.66769314  1
  Ni  Ni38  1  0.50092817  0.16542747  0.83579426  1
  Ni  Ni39  1  0.50307450  0.50228989  0.50009413  1
  Ni  Ni40  1  0.33351750  0.33266818  0.66849411  1
  Cr  Cr41  1  0.50082114  0.50232554  0.83548766  1
  Fe  Fe42  1  0.50010231  0.83377164  0.50195695  1
  Ni  Ni43  1  0.33476908  0.66993960  0.66788386  1
  Ni  Ni44  1  0.50121668  0.83602863  0.83454724  1
  Ni  Ni45  1  0.83571219  0.16820464  0.50137464  1
  Fe  Fe46  1  0.66799694  1.00016686  0.66891877  1
  Ni  Ni47  1  0.83557171  0.16710678  0.83540889  1
  Ni  Ni48  1  0.83268473  0.50210300  0.50039869  1
  Cr  Cr49  1  0.66887502  0.33457057  0.66728442  1
  Ni  Ni50  1  0.83706877  0.50240726  0.83535293  1
  Fe  Fe51  1  0.83612425  0.83390403  0.50241311  1
  Ni  Ni52  1  0.66885303  0.66931769  0.66696417  1
  Ni  Ni53  1  0.83497477  0.83466322  0.83485490  1
" 