1338,Ni78Fe11Cr9_16,-236.948468800623, 182.501315301112,Ni78Fe11Cr9,"# generated using pymatgen
 data_CrFeNi7
_symmetry_space_group_name_H-M   'P 1'
_cell_length_a   7.44635090
_cell_length_b   7.44635090
_cell_length_c   10.53073043
_cell_angle_alpha   90.00000000
_cell_angle_beta   90.00000000
_cell_angle_gamma   90.00000000
_symmetry_Int_Tables_number   1
_chemical_formula_structural   CrFeNi7
_chemical_formula_sum   'Cr6 Fe6 Ni42'
_cell_volume   583.90943269
_cell_formula_units_Z   6
loop_
 _symmetry_equiv_pos_site_id
 _symmetry_equiv_pos_as_xyz
  1  'x, y, z'
loop_
 _atom_site_type_symbol
 _atom_site_label
 _atom_site_symmetry_multiplicity
 _atom_site_fract_x
 _atom_site_fract_y
 _atom_site_fract_z
 _atom_site_occupancy
  Cr  Cr0  1  0.00239695  0.00192860  1.00017244  1
  Ni  Ni1  1  0.17101226  0.16846033  0.16931143  1
  Ni  Ni2  1  0.00523013  0.00175520  0.33690516  1
  Ni  Ni3  1  0.00168912  0.33712265  1.00060387  1
  Ni  Ni4  1  0.16839963  0.50211241  0.16744841  1
  Ni  Ni5  1  1.00079322  0.33449017  0.33467008  1
  Ni  Ni6  1  0.00193564  0.66558345  1.00130817  1
  Ni  Ni7  1  0.17004400  0.83359675  0.16914927  1
  Ni  Ni8  1  0.00365361  0.66792310  0.33446353  1
  Ni  Ni9  1  0.33695595  1.00127041  0.00152953  1
  Ni  Ni10  1  0.49861586  0.16930438  0.16678697  1
  Ni  Ni11  1  0.33254151  1.00077332  0.33496958  1
  Ni  Ni12  1  0.33525637  0.33476344  0.00207112  1
  Ni  Ni13  1  0.50025435  0.50029314  0.16746819  1
  Fe  Fe14  1  0.33506520  0.33374712  0.33379675  1
  Ni  Ni15  1  0.33520263  0.66813446  0.00205558  1
  Fe  Fe16  1  0.49750702  0.83449535  0.16624030  1
  Ni  Ni17  1  0.33351670  0.66950569  0.33365992  1
  Ni  Ni18  1  0.66467068  0.00151957  1.00012762  1
  Cr  Cr19  1  0.83443840  0.17040486  0.16755868  1
  Cr  Cr20  1  0.66673097  0.00335888  0.33590440  1
  Ni  Ni21  1  0.66722394  0.33536790  1.00109685  1
  Ni  Ni22  1  0.83551443  0.50126228  0.16728501  1
  Ni  Ni23  1  0.66797785  0.33546509  0.33568607  1
  Ni  Ni24  1  0.66703045  0.66728130  1.00050174  1
  Cr  Cr25  1  0.83599221  0.83256373  0.16713200  1
  Cr  Cr26  1  0.66702217  0.66529169  0.33628507  1
  Ni  Ni27  1  0.16779230  0.16586658  0.50057524  1
  Ni  Ni28  1  1.00038550  1.00122228  0.66705634  1
  Ni  Ni29  1  0.16868482  0.16892096  0.83428317  1
  Cr  Cr30  1  0.16814468  0.50149114  0.50113864  1
  Ni  Ni31  1  1.00033426  0.33359342  0.66889300  1
  Fe  Fe32  1  0.16805313  0.50093063  0.83497436  1
  Ni  Ni33  1  0.16760514  0.83642867  0.50094695  1
  Ni  Ni34  1  1.00137702  0.66935323  0.66839646  1
  Fe  Fe35  1  0.16866309  0.83398981  0.83410381  1
  Ni  Ni36  1  0.50097371  0.16871463  0.50207860  1
  Fe  Fe37  1  0.33440722  0.00215059  0.66774214  1
  Ni  Ni38  1  0.50084460  0.16794553  0.83530191  1
  Ni  Ni39  1  0.50246836  0.50077156  0.50202273  1
  Ni  Ni40  1  0.33611635  0.33482843  0.66824317  1
  Ni  Ni41  1  0.50137938  0.50168278  0.83468013  1
  Ni  Ni42  1  0.50006070  0.83468327  0.50229688  1
  Ni  Ni43  1  0.33533043  0.66837430  0.66845240  1
  Ni  Ni44  1  0.50182220  0.83454101  0.83581993  1
  Ni  Ni45  1  0.83540238  0.16827351  0.50201092  1
  Ni  Ni46  1  0.66869871  0.00200954  0.66793592  1
  Ni  Ni47  1  0.83463907  0.16847687  0.83427562  1
  Ni  Ni48  1  0.83365648  0.50095833  0.50137371  1
  Ni  Ni49  1  0.66771901  0.33383745  0.66738495  1
  Ni  Ni50  1  0.83489025  0.50193414  0.83551316  1
  Ni  Ni51  1  0.83650267  0.83493599  0.50295150  1
  Fe  Fe52  1  0.66850775  0.66759783  0.66831646  1
  Ni  Ni53  1  0.83391454  0.83375720  0.83408913  1
" 