4652,Ni78Cr22_11,-207.906417611174, 161.475297993356,Ni78Cr22,"# generated using pymatgen
 data_Cr7Ni2
_symmetry_space_group_name_H-M   'P 1'
_cell_length_a   7.57467744
_cell_length_b   7.57467744
_cell_length_c   10.71221156
_cell_angle_alpha   90.00000000
_cell_angle_beta   90.00000000
_cell_angle_gamma   90.00000000
_symmetry_Int_Tables_number   1
_chemical_formula_structural   Cr7Ni2
_chemical_formula_sum   'Cr42 Ni12'
_cell_volume   614.62104647
_cell_formula_units_Z   6
loop_
 _symmetry_equiv_pos_site_id
 _symmetry_equiv_pos_as_xyz
  1  'x, y, z'
loop_
 _atom_site_type_symbol
 _atom_site_label
 _atom_site_symmetry_multiplicity
 _atom_site_fract_x
 _atom_site_fract_y
 _atom_site_fract_z
 _atom_site_occupancy
  Cr  Cr0  1  0.99275885  -0.00422505  0.99205416  1
  Cr  Cr1  1  0.15998457  0.15809737  0.15819760  1
  Ni  Ni2  1  0.99165174  0.99219270  0.32709954  1
  Ni  Ni3  1  0.99131361  0.32585258  0.99273267  1
  Cr  Cr4  1  0.15627230  0.49300284  0.15945587  1
  Cr  Cr5  1  0.99012962  0.32560449  0.32607697  1
  Cr  Cr6  1  0.99278652  0.65709307  -0.00585727  1
  Cr  Cr7  1  0.15812697  0.82758695  0.16044491  1
  Ni  Ni8  1  0.99188609  0.66034136  0.32508043  1
  Ni  Ni9  1  0.32621628  -0.00689324  0.99270363  1
  Cr  Cr10  1  0.49220719  0.15996531  0.15919509  1
  Cr  Cr11  1  0.32560520  0.99138900  0.32699859  1
  Cr  Cr12  1  0.32408788  0.32584758  0.99289417  1
  Cr  Cr13  1  0.49592507  0.49113030  0.16044911  1
  Cr  Cr14  1  0.32740156  0.32746888  0.32673652  1
  Cr  Cr15  1  0.32654639  0.66078877  -0.00623319  1
  Cr  Cr16  1  0.49219376  0.82759386  0.15761847  1
  Cr  Cr17  1  0.32559603  0.65983027  0.32649633  1
  Cr  Cr18  1  0.65937475  -0.00668043  0.99164089  1
  Cr  Cr19  1  0.82649506  0.16180976  0.16070176  1
  Cr  Cr20  1  0.66173799  -0.00552493  0.32799995  1
  Cr  Cr21  1  0.66306210  0.32581584  -0.00669829  1
  Ni  Ni22  1  0.82712758  0.49217878  0.16024791  1
  Ni  Ni23  1  0.66200462  0.32615165  0.32594374  1
  Cr  Cr24  1  0.65935461  0.65954688  -0.00626386  1
  Cr  Cr25  1  0.82836400  0.82387208  0.16133388  1
  Cr  Cr26  1  0.65987248  0.65860626  0.32528964  1
  Cr  Cr27  1  0.15918262  0.15763179  0.49264556  1
  Cr  Cr28  1  0.99172735  -0.00601732  0.65926600  1
  Cr  Cr29  1  0.15992267  0.15866858  0.82784669  1
  Cr  Cr30  1  0.15788186  0.49442003  0.49351685  1
  Cr  Cr31  1  0.99173984  0.32546240  0.66095717  1
  Cr  Cr32  1  0.15738019  0.49249836  0.82572048  1
  Cr  Cr33  1  0.15849715  0.82663599  0.49253199  1
  Ni  Ni34  1  0.99129431  0.65957340  0.65955218  1
  Cr  Cr35  1  0.15989642  0.82752400  0.82570864  1
  Cr  Cr36  1  0.49367995  0.15891412  0.49227687  1
  Ni  Ni37  1  0.32748758  0.99106991  0.65906731  1
  Cr  Cr38  1  0.49191064  0.15804627  0.82721340  1
  Cr  Cr39  1  0.49497678  0.49313478  0.49314645  1
  Cr  Cr40  1  0.32535594  0.32613573  0.65905471  1
  Cr  Cr41  1  0.49445073  0.49311939  0.82508488  1
  Ni  Ni42  1  0.49269890  0.82660273  0.49521503  1
  Cr  Cr43  1  0.32721991  0.66109477  0.65842428  1
  Cr  Cr44  1  0.49255510  0.82752321  0.82566848  1
  Ni  Ni45  1  0.82585880  0.15937606  0.49095336  1
  Cr  Cr46  1  0.65973709  0.99211671  0.65904434  1
  Ni  Ni47  1  0.82730675  0.16082632  0.82730070  1
  Cr  Cr48  1  0.82582542  0.49381371  0.49285329  1
  Cr  Cr49  1  0.66158964  0.32545413  0.65926626  1
  Cr  Cr50  1  0.82685641  0.49314039  0.82550253  1
  Cr  Cr51  1  0.82709839  0.82534723  0.49289420  1
  Ni  Ni52  1  0.65990507  0.66080820  0.65884820  1
  Cr  Cr53  1  0.82623429  0.82498877  0.82445357  1
" 