1927,Ni78Fe2Cr18_3,-231.950157457099, 159.400622431733,Ni78Fe2Cr18,"# generated using pymatgen
 data_Cr11FeNi42
_symmetry_space_group_name_H-M   'P 1'
_cell_length_a   7.47244765
_cell_length_b   7.47244765
_cell_length_c   10.56763681
_cell_angle_alpha   90.00000000
_cell_angle_beta   90.00000000
_cell_angle_gamma   90.00000000
_symmetry_Int_Tables_number   1
_chemical_formula_structural   Cr11FeNi42
_chemical_formula_sum   'Cr11 Fe1 Ni42'
_cell_volume   590.07014427
_cell_formula_units_Z   1
loop_
 _symmetry_equiv_pos_site_id
 _symmetry_equiv_pos_as_xyz
  1  'x, y, z'
loop_
 _atom_site_type_symbol
 _atom_site_label
 _atom_site_symmetry_multiplicity
 _atom_site_fract_x
 _atom_site_fract_y
 _atom_site_fract_z
 _atom_site_occupancy
  Fe  Fe0  1  0.00078511  0.99656580  0.99882712  1
  Ni  Ni1  1  0.17027186  0.16449374  0.16658528  1
  Ni  Ni2  1  0.00102000  0.99630685  0.33219679  1
  Cr  Cr3  1  0.00269920  0.33410553  0.99758339  1
  Ni  Ni4  1  0.16756176  0.50014717  0.16571209  1
  Cr  Cr5  1  0.00027187  0.33472380  0.33401327  1
  Ni  Ni6  1  0.00057205  0.66803374  -0.00002960  1
  Ni  Ni7  1  0.16528785  0.83427401  0.16612241  1
  Ni  Ni8  1  0.99874092  0.66804223  0.33338521  1
  Ni  Ni9  1  0.33400942  0.99935455  0.00061707  1
  Ni  Ni10  1  0.49546562  0.16506692  0.16705688  1
  Ni  Ni11  1  0.33257241  0.00078756  0.33182492  1
  Ni  Ni12  1  0.33140226  0.33189235  -0.00023421  1
  Cr  Cr13  1  0.49872538  0.49933482  0.16638337  1
  Ni  Ni14  1  0.33352226  0.33027103  0.33098720  1
  Ni  Ni15  1  0.33140503  0.66766831  0.99877577  1
  Ni  Ni16  1  0.49953517  0.83461657  0.16468494  1
  Cr  Cr17  1  0.33064632  0.66829974  0.33341822  1
  Ni  Ni18  1  0.66469436  0.99674126  0.99919632  1
  Cr  Cr19  1  0.83318504  0.16325440  0.16653298  1
  Cr  Cr20  1  0.66464562  0.99924697  0.33379604  1
  Cr  Cr21  1  0.66460394  0.33124437  0.99753441  1
  Cr  Cr22  1  0.83261531  0.50396949  0.16788018  1
  Ni  Ni23  1  0.66513570  0.33254982  0.33466868  1
  Ni  Ni24  1  0.66693935  0.67064088  0.99848562  1
  Ni  Ni25  1  0.83409466  0.83190832  0.16570013  1
  Ni  Ni26  1  0.66961779  0.66709532  0.33329584  1
  Cr  Cr27  1  0.16695418  0.16487844  0.50038978  1
  Ni  Ni28  1  0.99854501  0.00109732  0.66738127  1
  Ni  Ni29  1  0.16684872  0.16600392  0.83245994  1
  Ni  Ni30  1  0.16526235  0.50055289  0.49993963  1
  Ni  Ni31  1  0.99854569  0.33225827  0.66701255  1
  Ni  Ni32  1  0.16819382  0.49909153  0.83326394  1
  Ni  Ni33  1  0.16584857  0.83316644  0.49895872  1
  Cr  Cr34  1  0.00047007  0.66540629  0.66540549  1
  Ni  Ni35  1  0.16702107  0.83382027  0.83383479  1
  Ni  Ni36  1  0.50067998  0.16588236  0.49944309  1
  Ni  Ni37  1  0.33440025  0.99888120  0.66647382  1
  Ni  Ni38  1  0.49884899  0.16625825  0.83241687  1
  Cr  Cr39  1  0.50074463  0.49894344  0.50018166  1
  Ni  Ni40  1  0.33270891  0.33278477  0.66816317  1
  Ni  Ni41  1  0.49902945  0.50036247  0.83236738  1
  Ni  Ni42  1  0.49991231  0.83417049  0.50120739  1
  Ni  Ni43  1  0.33347511  0.66725051  0.66727702  1
  Ni  Ni44  1  0.49994686  0.83229531  0.83302501  1
  Ni  Ni45  1  0.83146559  0.16646732  0.50141520  1
  Ni  Ni46  1  0.66597064  0.00033283  0.66612731  1
  Ni  Ni47  1  0.83321843  0.16508479  0.83076693  1
  Ni  Ni48  1  0.83246836  0.49978614  0.49880759  1
  Ni  Ni49  1  0.66766037  0.33133358  0.66668224  1
  Ni  Ni50  1  0.83169277  0.50019052  0.83213762  1
  Ni  Ni51  1  0.83315565  0.83266255  0.49859676  1
  Ni  Ni52  1  0.66544526  0.66725062  0.66713474  1
  Ni  Ni53  1  0.83194886  0.83364010  0.83461791  1
" 