371,Ni78Fe11Cr9_5,-237.015596784192, 184.04450382455,Ni78Fe11Cr9,"# generated using pymatgen
 data_CrFeNi7
_symmetry_space_group_name_H-M   'P 1'
_cell_length_a   7.44719976
_cell_length_b   7.44719976
_cell_length_c   10.53193090
_cell_angle_alpha   90.00000000
_cell_angle_beta   90.00000000
_cell_angle_gamma   90.00000000
_symmetry_Int_Tables_number   1
_chemical_formula_structural   CrFeNi7
_chemical_formula_sum   'Cr6 Fe6 Ni42'
_cell_volume   584.10914674
_cell_formula_units_Z   6
loop_
 _symmetry_equiv_pos_site_id
 _symmetry_equiv_pos_as_xyz
  1  'x, y, z'
loop_
 _atom_site_type_symbol
 _atom_site_label
 _atom_site_symmetry_multiplicity
 _atom_site_fract_x
 _atom_site_fract_y
 _atom_site_fract_z
 _atom_site_occupancy
  Ni  Ni0  1  1.00061810  1.00068350  1.00050667  1
  Cr  Cr1  1  0.16915245  0.16882669  0.16717623  1
  Cr  Cr2  1  0.00171961  0.00327673  0.33422603  1
  Ni  Ni3  1  1.00055372  0.33492118  1.00048738  1
  Ni  Ni4  1  0.16796870  0.50310830  0.16740603  1
  Ni  Ni5  1  1.00040571  0.33507291  0.33590944  1
  Ni  Ni6  1  0.00166444  0.66839299  1.00092524  1
  Ni  Ni7  1  0.17018508  0.83235300  0.16679492  1
  Cr  Cr8  1  0.00270185  0.66602531  0.33410022  1
  Ni  Ni9  1  0.33378726  0.99957624  1.00119167  1
  Ni  Ni10  1  0.50374500  0.16693034  0.16864280  1
  Ni  Ni11  1  0.33673384  1.00031677  0.33615746  1
  Ni  Ni12  1  0.33416974  0.33634698  1.00110701  1
  Fe  Fe13  1  0.50121115  0.50125932  0.16804515  1
  Ni  Ni14  1  0.33533096  0.33550996  0.33576672  1
  Ni  Ni15  1  0.33416531  0.66807367  0.00157678  1
  Ni  Ni16  1  0.50130388  0.83519103  0.16870736  1
  Ni  Ni17  1  0.33605990  0.66817042  0.33468747  1
  Ni  Ni18  1  0.66959276  1.00068737  0.00218460  1
  Ni  Ni19  1  0.83127978  0.16914470  0.16740377  1
  Ni  Ni20  1  0.66580423  0.00247896  0.33407377  1
  Ni  Ni21  1  0.66927324  0.33529901  0.00211891  1
  Ni  Ni22  1  0.83411794  0.50066610  0.16806463  1
  Ni  Ni23  1  0.66825949  0.33440007  0.33494012  1
  Ni  Ni24  1  0.66816707  0.66801087  1.00127743  1
  Fe  Fe25  1  0.83296768  0.83477555  0.16598588  1
  Ni  Ni26  1  0.66536673  0.66711665  0.33387636  1
  Ni  Ni27  1  0.16998990  0.16952314  0.50121112  1
  Cr  Cr28  1  0.00236967  0.00325044  0.66900317  1
  Ni  Ni29  1  0.16750351  0.16832129  0.83532529  1
  Ni  Ni30  1  0.16960393  0.50087744  0.50188732  1
  Ni  Ni31  1  1.00118133  0.33542336  0.66759949  1
  Ni  Ni32  1  0.16809690  0.50204134  0.83470541  1
  Ni  Ni33  1  0.17144660  0.83359585  0.50163996  1
  Fe  Fe34  1  0.00247716  0.66577998  0.66937324  1
  Ni  Ni35  1  0.16790020  0.83363417  0.83556130  1
  Ni  Ni36  1  0.50160920  0.16847485  0.50074643  1
  Ni  Ni37  1  0.33466246  0.99998905  0.66664904  1
  Cr  Cr38  1  0.50130336  0.16863016  0.83482036  1
  Ni  Ni39  1  0.50075450  0.50068411  0.50056434  1
  Ni  Ni40  1  0.33339653  0.33599601  0.66712417  1
  Ni  Ni41  1  0.50151634  0.50257239  0.83541250  1
  Fe  Fe42  1  0.49915666  0.83514938  0.50082363  1
  Ni  Ni43  1  0.33517820  0.66801027  0.66773549  1
  Fe  Fe44  1  0.50144728  0.83287222  0.83504765  1
  Ni  Ni45  1  0.83239815  0.17031456  0.50108940  1
  Ni  Ni46  1  0.66716396  1.00103799  0.66774129  1
  Ni  Ni47  1  0.83491777  0.16812884  0.83550348  1
  Fe  Fe48  1  0.83406305  0.49801886  0.50185949  1
  Ni  Ni49  1  0.66942038  0.33593660  0.66693763  1
  Ni  Ni50  1  0.83438507  0.50217500  0.83360334  1
  Cr  Cr51  1  0.83273598  0.83419458  0.50135489  1
  Ni  Ni52  1  0.66658768  0.66701930  0.66884491  1
  Ni  Ni53  1  0.83438751  0.83369308  0.83645448  1
" 