3920,Ni78Fe11Cr9_14,-237.318461749385, 186.242762028589,Ni78Fe11Cr9,"# generated using pymatgen
 data_CrFeNi7
_symmetry_space_group_name_H-M   'P 1'
_cell_length_a   7.44726816
_cell_length_b   7.44726816
_cell_length_c   10.53202763
_cell_angle_alpha   90.00000000
_cell_angle_beta   90.00000000
_cell_angle_gamma   90.00000000
_symmetry_Int_Tables_number   1
_chemical_formula_structural   CrFeNi7
_chemical_formula_sum   'Cr6 Fe6 Ni42'
_cell_volume   584.12524154
_cell_formula_units_Z   6
loop_
 _symmetry_equiv_pos_site_id
 _symmetry_equiv_pos_as_xyz
  1  'x, y, z'
loop_
 _atom_site_type_symbol
 _atom_site_label
 _atom_site_symmetry_multiplicity
 _atom_site_fract_x
 _atom_site_fract_y
 _atom_site_fract_z
 _atom_site_occupancy
  Ni  Ni0  1  0.00239798  0.00191473  0.00217881  1
  Ni  Ni1  1  0.16964486  0.16702046  0.16574025  1
  Ni  Ni2  1  1.00104429  1.00070013  0.33314430  1
  Ni  Ni3  1  1.00131400  0.33355008  0.00386287  1
  Ni  Ni4  1  0.16960413  0.50006771  0.16904211  1
  Ni  Ni5  1  1.00122265  0.33543957  0.33302439  1
  Cr  Cr6  1  1.00067503  0.66783976  0.00198424  1
  Fe  Fe7  1  0.16929460  0.83415582  0.16890615  1
  Ni  Ni8  1  1.00078946  0.66822021  0.33552423  1
  Ni  Ni9  1  0.33561812  1.00116814  1.00077522  1
  Ni  Ni10  1  0.50077347  0.16751108  0.16820079  1
  Ni  Ni11  1  0.33549966  1.00117826  0.33383040  1
  Ni  Ni12  1  0.33606628  0.33354700  0.00164391  1
  Ni  Ni13  1  0.50129356  0.50022149  0.16723003  1
  Ni  Ni14  1  0.33545164  0.33461479  0.33424751  1
  Ni  Ni15  1  0.33751525  0.66898212  0.00248828  1
  Fe  Fe16  1  0.50168834  0.83366916  0.16921578  1
  Ni  Ni17  1  0.33522533  0.66758795  0.33479002  1
  Ni  Ni18  1  0.66610072  1.00033298  0.00287281  1
  Fe  Fe19  1  0.83364736  0.16956321  0.16859621  1
  Ni  Ni20  1  0.66759502  1.00093989  0.33498602  1
  Ni  Ni21  1  0.66657689  0.33525339  0.00234588  1
  Ni  Ni22  1  0.83309940  0.50340094  0.16807446  1
  Ni  Ni23  1  0.66720730  0.33511661  0.33529922  1
  Ni  Ni24  1  0.66563774  0.66823442  1.00125508  1
  Ni  Ni25  1  0.83383110  0.83613361  0.16769191  1
  Ni  Ni26  1  0.66807750  0.66827738  0.33454968  1
  Cr  Cr27  1  0.17001822  0.16627389  0.50237114  1
  Ni  Ni28  1  1.00122071  0.99809413  0.66872858  1
  Fe  Fe29  1  0.16974793  0.16805787  0.83565341  1
  Ni  Ni30  1  0.16940279  0.50436379  0.50035578  1
  Cr  Cr31  1  0.99914195  0.33621285  0.66639477  1
  Cr  Cr32  1  0.17073826  0.50377170  0.83433141  1
  Ni  Ni33  1  0.16794634  0.83346529  0.50046684  1
  Ni  Ni34  1  0.00194370  0.67072075  0.66683159  1
  Ni  Ni35  1  0.16866553  0.83713347  0.83445661  1
  Ni  Ni36  1  0.50317003  0.16737151  0.50166923  1
  Ni  Ni37  1  0.33581870  1.00011321  0.66926892  1
  Ni  Ni38  1  0.50116503  0.16724594  0.83431257  1
  Ni  Ni39  1  0.50019773  0.50071345  0.50049769  1
  Ni  Ni40  1  0.33889661  0.33480222  0.66802728  1
  Ni  Ni41  1  0.50210805  0.49926337  0.83626439  1
  Ni  Ni42  1  0.50051641  0.83594758  0.50018159  1
  Ni  Ni43  1  0.33443528  0.66924682  0.66649443  1
  Fe  Fe44  1  0.50026271  0.83436234  0.83479256  1
  Ni  Ni45  1  0.83222129  0.16591614  0.49886092  1
  Ni  Ni46  1  0.66684965  0.00209910  0.66640118  1
  Cr  Cr47  1  0.83172535  0.16677496  0.83668311  1
  Ni  Ni48  1  0.83422829  0.50225082  0.49937100  1
  Ni  Ni49  1  0.66559229  0.33383571  0.66648032  1
  Ni  Ni50  1  0.83197066  0.50149285  0.83633292  1
  Ni  Ni51  1  0.83551098  0.83605223  0.50179776  1
  Cr  Cr52  1  0.66781387  0.66688077  0.66796642  1
  Fe  Fe53  1  0.83351020  0.83460657  0.83521725  1
" 