2424,Ni78Fe11Cr9_3,-237.124857631393, 182.388345655928,Ni78Fe11Cr9,"# generated using pymatgen
 data_CrFeNi7
_symmetry_space_group_name_H-M   'P 1'
_cell_length_a   7.44777249
_cell_length_b   7.44777249
_cell_length_c   10.53274087
_cell_angle_alpha   90.00000000
_cell_angle_beta   90.00000000
_cell_angle_gamma   90.00000000
_symmetry_Int_Tables_number   1
_chemical_formula_structural   CrFeNi7
_chemical_formula_sum   'Cr6 Fe6 Ni42'
_cell_volume   584.24392173
_cell_formula_units_Z   6
loop_
 _symmetry_equiv_pos_site_id
 _symmetry_equiv_pos_as_xyz
  1  'x, y, z'
loop_
 _atom_site_type_symbol
 _atom_site_label
 _atom_site_symmetry_multiplicity
 _atom_site_fract_x
 _atom_site_fract_y
 _atom_site_fract_z
 _atom_site_occupancy
  Ni  Ni0  1  1.00115558  0.00205722  1.00101656  1
  Ni  Ni1  1  0.16763402  0.16788017  0.16647958  1
  Cr  Cr2  1  1.00111275  0.00156120  0.33437325  1
  Ni  Ni3  1  1.00085739  0.33398357  1.00128366  1
  Ni  Ni4  1  0.16687339  0.50209786  0.16702162  1
  Ni  Ni5  1  0.99879416  0.33552505  0.33421707  1
  Fe  Fe6  1  0.00155483  0.66824293  0.00155900  1
  Ni  Ni7  1  0.16937775  0.83390286  0.16760851  1
  Ni  Ni8  1  1.00055618  0.66716583  0.33373652  1
  Ni  Ni9  1  0.33458311  1.00013713  1.00091972  1
  Ni  Ni10  1  0.50236809  0.16659806  0.16688521  1
  Ni  Ni11  1  0.33645036  0.99923807  0.33546959  1
  Fe  Fe12  1  0.33435666  0.33389003  0.00150893  1
  Ni  Ni13  1  0.50210467  0.50235657  0.16741607  1
  Cr  Cr14  1  0.33511360  0.33428392  0.33265102  1
  Ni  Ni15  1  0.33484572  0.66813561  1.00114264  1
  Ni  Ni16  1  0.50088485  0.83492681  0.16875298  1
  Ni  Ni17  1  0.33589899  0.67023730  0.33441790  1
  Ni  Ni18  1  0.66814396  0.00179599  0.00164265  1
  Ni  Ni19  1  0.83387901  0.16910278  0.16760504  1
  Ni  Ni20  1  0.66630755  1.00099846  0.33435202  1
  Ni  Ni21  1  0.66844093  0.33424583  1.00074256  1
  Ni  Ni22  1  0.83490345  0.50061189  0.16875898  1
  Ni  Ni23  1  0.66937946  0.33497264  0.33570687  1
  Fe  Fe24  1  0.66758375  0.66824027  0.00174560  1
  Ni  Ni25  1  0.83361888  0.83416719  0.16670010  1
  Ni  Ni26  1  0.66742738  0.66791138  0.33464026  1
  Ni  Ni27  1  0.16677095  0.16496540  0.50248238  1
  Ni  Ni28  1  0.00282603  0.00144497  0.66807640  1
  Ni  Ni29  1  0.16587401  0.16667555  0.83491949  1
  Cr  Cr30  1  0.16582215  0.50320894  0.50140210  1
  Ni  Ni31  1  0.99942020  0.33331583  0.66838074  1
  Ni  Ni32  1  0.16709313  0.50234583  0.83514658  1
  Ni  Ni33  1  0.16946034  0.83570117  0.50273251  1
  Ni  Ni34  1  0.00308324  0.66911989  0.66904290  1
  Ni  Ni35  1  0.16927410  0.83485839  0.83354280  1
  Ni  Ni36  1  0.50283037  0.16661341  0.50104100  1
  Fe  Fe37  1  0.33210909  0.99957761  0.66760331  1
  Fe  Fe38  1  0.50147698  0.16843045  0.83644673  1
  Ni  Ni39  1  0.50441537  0.50238819  0.50086945  1
  Cr  Cr40  1  0.33556106  0.33514181  0.66937911  1
  Ni  Ni41  1  0.50177365  0.50235086  0.83559753  1
  Ni  Ni42  1  0.49931535  0.83487933  0.49921619  1
  Ni  Ni43  1  0.33347748  0.66960357  0.66832124  1
  Ni  Ni44  1  0.49871022  0.83397335  0.83591544  1
  Ni  Ni45  1  0.83427972  0.17006740  0.50144553  1
  Cr  Cr46  1  0.66897515  0.00277989  0.66769427  1
  Ni  Ni47  1  0.83589874  0.16973837  0.83483137  1
  Ni  Ni48  1  0.83345906  0.49970146  0.50066162  1
  Ni  Ni49  1  0.66941412  0.33466555  0.66743459  1
  Ni  Ni50  1  0.83501666  0.49895144  0.83446461  1
  Ni  Ni51  1  0.83510751  0.83411233  0.50109866  1
  Cr  Cr52  1  0.66729521  0.66625586  0.66790361  1
  Fe  Fe53  1  0.83693069  0.83474356  0.83587298  1
" 