3224,Ni78Fe11Cr9_13,-237.021380416751, 186.971028324134,Ni78Fe11Cr9,"# generated using pymatgen
 data_CrFeNi7
_symmetry_space_group_name_H-M   'P 1'
_cell_length_a   7.44523067
_cell_length_b   7.44523067
_cell_length_c   10.52914619
_cell_angle_alpha   90.00000000
_cell_angle_beta   90.00000000
_cell_angle_gamma   90.00000000
_symmetry_Int_Tables_number   1
_chemical_formula_structural   CrFeNi7
_chemical_formula_sum   'Cr6 Fe6 Ni42'
_cell_volume   583.64594363
_cell_formula_units_Z   6
loop_
 _symmetry_equiv_pos_site_id
 _symmetry_equiv_pos_as_xyz
  1  'x, y, z'
loop_
 _atom_site_type_symbol
 _atom_site_label
 _atom_site_symmetry_multiplicity
 _atom_site_fract_x
 _atom_site_fract_y
 _atom_site_fract_z
 _atom_site_occupancy
  Ni  Ni0  1  0.00334141  1.00023324  0.00272374  1
  Ni  Ni1  1  0.16652523  0.16703535  0.16953392  1
  Ni  Ni2  1  0.00166865  1.00119054  0.33481276  1
  Ni  Ni3  1  0.00158604  0.33638363  0.00266401  1
  Ni  Ni4  1  0.16833047  0.50305633  0.16870718  1
  Ni  Ni5  1  1.00069979  0.33428593  0.33317773  1
  Ni  Ni6  1  0.99999211  0.66818195  1.00029863  1
  Ni  Ni7  1  0.16729109  0.83418643  0.16789189  1
  Ni  Ni8  1  0.99988430  0.66903128  0.33499704  1
  Ni  Ni9  1  0.33391181  1.00034753  0.00175695  1
  Ni  Ni10  1  0.50356395  0.16746850  0.16837458  1
  Ni  Ni11  1  0.33475370  0.00160255  0.33467910  1
  Cr  Cr12  1  0.33316927  0.33293614  0.00169916  1
  Ni  Ni13  1  0.50136595  0.50202907  0.16987280  1
  Ni  Ni14  1  0.33435168  0.33209780  0.33339757  1
  Fe  Fe15  1  0.33460939  0.66865041  0.00188740  1
  Ni  Ni16  1  0.50180968  0.83474872  0.16789148  1
  Ni  Ni17  1  0.33460053  0.67064393  0.33201148  1
  Ni  Ni18  1  0.66689367  0.99917614  0.00178246  1
  Ni  Ni19  1  0.83425424  0.16676416  0.16717674  1
  Ni  Ni20  1  0.66793235  1.00076446  0.33538355  1
  Ni  Ni21  1  0.66825755  0.33717164  0.00236522  1
  Fe  Fe22  1  0.83514711  0.50226000  0.16814311  1
  Ni  Ni23  1  0.66945539  0.33422237  0.33357929  1
  Ni  Ni24  1  0.66924462  0.66818808  0.00185018  1
  Ni  Ni25  1  0.83517164  0.83690630  0.16795451  1
  Ni  Ni26  1  0.66988456  0.66959538  0.33412918  1
  Fe  Fe27  1  0.16677371  0.16767808  0.50038579  1
  Ni  Ni28  1  0.00147820  1.00097276  0.66718015  1
  Ni  Ni29  1  0.16662922  0.16755394  0.83436148  1
  Cr  Cr30  1  0.16856190  0.50302481  0.50202618  1
  Ni  Ni31  1  1.00139254  0.33447241  0.66878235  1
  Ni  Ni32  1  0.16839934  0.50263577  0.83366057  1
  Ni  Ni33  1  0.16743262  0.83437625  0.50050466  1
  Fe  Fe34  1  0.00170793  0.66913506  0.66901459  1
  Ni  Ni35  1  0.16682884  0.83426999  0.83611108  1
  Ni  Ni36  1  0.50427923  0.16785052  0.50152291  1
  Cr  Cr37  1  0.33436654  1.00110727  0.66754369  1
  Fe  Fe38  1  0.50171303  0.16818625  0.83505399  1
  Cr  Cr39  1  0.50013542  0.50061191  0.49904032  1
  Ni  Ni40  1  0.33423041  0.33433525  0.66978547  1
  Ni  Ni41  1  0.50109302  0.50131530  0.83448708  1
  Ni  Ni42  1  0.50080553  0.83637125  0.49956721  1
  Ni  Ni43  1  0.33437802  0.66893501  0.67085490  1
  Fe  Fe44  1  0.50172915  0.83397884  0.83657294  1
  Ni  Ni45  1  0.83388607  0.16760446  0.50174529  1
  Ni  Ni46  1  0.66913225  1.00129615  0.66751953  1
  Cr  Cr47  1  0.83450097  0.16620948  0.83667712  1
  Ni  Ni48  1  0.83593717  0.49937806  0.50043260  1
  Ni  Ni49  1  0.66869581  0.33472176  0.66867133  1
  Ni  Ni50  1  0.83489365  0.50146379  0.83569705  1
  Ni  Ni51  1  0.83629564  0.83754020  0.50103117  1
  Cr  Cr52  1  0.66988659  0.66945665  0.66702277  1
  Ni  Ni53  1  0.83625972  0.83547966  0.83512485  1
" 