293,Ni78Fe22_5,-233.25803349792, 187.466291061111,Ni78Fe22,"# generated using pymatgen
 data_Fe7Ni2
_symmetry_space_group_name_H-M   'P 1'
_cell_length_a   7.39867695
_cell_length_b   7.39867695
_cell_length_c   10.46330928
_cell_angle_alpha   90.00000000
_cell_angle_beta   90.00000000
_cell_angle_gamma   90.00000000
_symmetry_Int_Tables_number   1
_chemical_formula_structural   Fe7Ni2
_chemical_formula_sum   'Fe42 Ni12'
_cell_volume   572.76595072
_cell_formula_units_Z   6
loop_
 _symmetry_equiv_pos_site_id
 _symmetry_equiv_pos_as_xyz
  1  'x, y, z'
loop_
 _atom_site_type_symbol
 _atom_site_label
 _atom_site_symmetry_multiplicity
 _atom_site_fract_x
 _atom_site_fract_y
 _atom_site_fract_z
 _atom_site_occupancy
  Fe  Fe0  1  0.00709081  0.00686546  0.00462978  1
  Ni  Ni1  1  0.17164522  0.16973190  0.17134267  1
  Fe  Fe2  1  0.00496548  0.00478168  0.33763758  1
  Ni  Ni3  1  0.00462411  0.33818445  0.00564632  1
  Fe  Fe4  1  0.17145042  0.50339065  0.17116799  1
  Fe  Fe5  1  1.00404937  0.33882788  0.33697921  1
  Fe  Fe6  1  0.00584150  0.67067885  0.00473606  1
  Fe  Fe7  1  0.17180307  0.83664514  0.17119280  1
  Fe  Fe8  1  1.00373146  0.67026258  0.33821968  1
  Ni  Ni9  1  0.33868668  1.00458774  1.00434295  1
  Fe  Fe10  1  0.50442934  0.17285102  0.17086206  1
  Fe  Fe11  1  0.33776275  0.00479786  0.33691592  1
  Ni  Ni12  1  0.33654047  0.33712064  0.00539694  1
  Ni  Ni13  1  0.50494961  0.50561196  0.17145784  1
  Fe  Fe14  1  0.33778803  0.33813666  0.33659996  1
  Fe  Fe15  1  0.33756603  0.67006218  1.00388321  1
  Fe  Fe16  1  0.50429488  0.83792998  0.17091066  1
  Fe  Fe17  1  0.33816029  0.67073894  0.33896926  1
  Fe  Fe18  1  0.67107702  0.00608870  1.00319170  1
  Fe  Fe19  1  0.83799206  0.17307330  0.17128024  1
  Fe  Fe20  1  0.67123363  1.00456830  0.33942591  1
  Fe  Fe21  1  0.67020812  0.33790176  0.00526599  1
  Ni  Ni22  1  0.83722276  0.50565020  0.17074320  1
  Fe  Fe23  1  0.67188741  0.33930736  0.33797889  1
  Fe  Fe24  1  0.67048410  0.67033922  0.00499785  1
  Fe  Fe25  1  0.83798462  0.83795007  0.17114402  1
  Fe  Fe26  1  0.67189928  0.67050464  0.33749997  1
  Fe  Fe27  1  0.17054777  0.17265893  0.50425707  1
  Fe  Fe28  1  0.00528527  1.00397295  0.67124325  1
  Ni  Ni29  1  0.17164629  0.17109199  0.83700508  1
  Ni  Ni30  1  0.17053101  0.50371316  0.50389344  1
  Fe  Fe31  1  0.00536675  0.33895135  0.67194030  1
  Ni  Ni32  1  0.17105514  0.50335187  0.83901658  1
  Fe  Fe33  1  0.17098275  0.83612093  0.50467169  1
  Fe  Fe34  1  0.00507621  0.67083855  0.67115147  1
  Fe  Fe35  1  0.17191418  0.83739155  0.83787281  1
  Fe  Fe36  1  0.50491608  0.17259703  0.50491963  1
  Fe  Fe37  1  0.33874780  1.00392500  0.67182258  1
  Fe  Fe38  1  0.50356760  0.17176410  0.83786922  1
  Fe  Fe39  1  0.50378589  0.50482861  0.50393874  1
  Fe  Fe40  1  0.33773045  0.33850090  0.67195619  1
  Fe  Fe41  1  0.50259291  0.50389352  0.83887851  1
  Fe  Fe42  1  0.50443509  0.83649224  0.50552897  1
  Ni  Ni43  1  0.33677782  0.66972250  0.67127036  1
  Fe  Fe44  1  0.50304910  0.83815159  0.83716005  1
  Fe  Fe45  1  0.83854252  0.17283064  0.50512069  1
  Ni  Ni46  1  0.67207695  0.00500698  0.67086945  1
  Fe  Fe47  1  0.83941614  0.17217430  0.83755532  1
  Ni  Ni48  1  0.83771678  0.50527691  0.50563277  1
  Fe  Fe49  1  0.67060229  0.33867283  0.67083490  1
  Fe  Fe50  1  0.83951594  0.50351783  0.83854415  1
  Fe  Fe51  1  0.83850636  0.83727289  0.50486258  1
  Fe  Fe52  1  0.67055032  0.67175323  0.67154307  1
  Fe  Fe53  1  0.83920119  0.83844361  0.83772759  1
" 