8991,Ni78Fe11Cr9_12,-237.308497141539, 186.71158383495,Ni78Fe11Cr9,"# generated using pymatgen
 data_CrFeNi7
_symmetry_space_group_name_H-M   'P 1'
_cell_length_a   7.45161136
_cell_length_b   7.45161136
_cell_length_c   10.53816985
_cell_angle_alpha   90.00000000
_cell_angle_beta   90.00000000
_cell_angle_gamma   90.00000000
_symmetry_Int_Tables_number   1
_chemical_formula_structural   CrFeNi7
_chemical_formula_sum   'Cr6 Fe6 Ni42'
_cell_volume   585.14781372
_cell_formula_units_Z   6
loop_
 _symmetry_equiv_pos_site_id
 _symmetry_equiv_pos_as_xyz
  1  'x, y, z'
loop_
 _atom_site_type_symbol
 _atom_site_label
 _atom_site_symmetry_multiplicity
 _atom_site_fract_x
 _atom_site_fract_y
 _atom_site_fract_z
 _atom_site_occupancy
  Ni  Ni0  1  1.00102331  0.00234791  0.00254612  1
  Ni  Ni1  1  0.16495966  0.16677902  0.16883686  1
  Ni  Ni2  1  1.00042248  0.00330741  0.33208223  1
  Ni  Ni3  1  0.99999188  0.33305416  1.00082519  1
  Ni  Ni4  1  0.16654529  0.50220204  0.16873863  1
  Ni  Ni5  1  0.00211462  0.33347504  0.33415530  1
  Ni  Ni6  1  0.00127070  0.66770154  0.00162326  1
  Ni  Ni7  1  0.16559748  0.83412264  0.16746409  1
  Ni  Ni8  1  1.00066141  0.66632158  0.33252296  1
  Fe  Fe9  1  0.33169343  0.99883857  0.99972540  1
  Cr  Cr10  1  0.50134827  0.16866355  0.16866364  1
  Ni  Ni11  1  0.33397379  0.00223220  0.33517815  1
  Cr  Cr12  1  0.33300857  0.33591705  1.00027947  1
  Ni  Ni13  1  0.50168975  0.50214179  0.16858999  1
  Ni  Ni14  1  0.33294926  0.33521484  0.33530269  1
  Ni  Ni15  1  0.33490221  0.66797276  1.00052491  1
  Cr  Cr16  1  0.50062541  0.83276974  0.16802615  1
  Ni  Ni17  1  0.33547184  0.66566127  0.33368378  1
  Fe  Fe18  1  0.66931300  0.00112639  1.00018067  1
  Ni  Ni19  1  0.83646748  0.16748780  0.16763458  1
  Ni  Ni20  1  0.66871040  1.00078443  0.33514767  1
  Fe  Fe21  1  0.67069653  0.33619012  0.99973234  1
  Ni  Ni22  1  0.83488074  0.50149954  0.16754038  1
  Fe  Fe23  1  0.66850639  0.33518078  0.33556656  1
  Ni  Ni24  1  0.66693587  0.66693973  0.00105584  1
  Ni  Ni25  1  0.83652334  0.83412401  0.16805361  1
  Ni  Ni26  1  0.66697298  0.66735280  0.33434721  1
  Ni  Ni27  1  0.16799531  0.16944896  0.50070779  1
  Ni  Ni28  1  1.00083924  0.00445548  0.66847937  1
  Ni  Ni29  1  0.16713270  0.16688909  0.83356368  1
  Ni  Ni30  1  0.16793850  0.49923967  0.50089717  1
  Ni  Ni31  1  0.00151672  0.33291827  0.66812751  1
  Ni  Ni32  1  0.16712853  0.50191233  0.83346921  1
  Cr  Cr33  1  0.16882605  0.83420502  0.50086208  1
  Fe  Fe34  1  0.00143182  0.66469475  0.66855018  1
  Ni  Ni35  1  0.16954884  0.83429997  0.83484253  1
  Ni  Ni36  1  0.50109036  0.16767276  0.50098180  1
  Fe  Fe37  1  0.33571639  0.00228447  0.66820894  1
  Ni  Ni38  1  0.50169265  0.16689771  0.83342184  1
  Ni  Ni39  1  0.50102105  0.50089677  0.50064951  1
  Ni  Ni40  1  0.33387058  0.33521940  0.66752784  1
  Ni  Ni41  1  0.50163341  0.50184592  0.83386963  1
  Ni  Ni42  1  0.50133192  0.83454090  0.50106842  1
  Ni  Ni43  1  0.33638716  0.66630702  0.66890152  1
  Ni  Ni44  1  0.49921225  0.83436460  0.83416010  1
  Ni  Ni45  1  0.83402487  0.16913705  0.50101892  1
  Ni  Ni46  1  0.66715233  0.00193092  0.66791645  1
  Ni  Ni47  1  0.83428624  0.16930772  0.83445699  1
  Ni  Ni48  1  0.83414847  0.49947908  0.50118067  1
  Ni  Ni49  1  0.66772222  0.33419003  0.66812017  1
  Ni  Ni50  1  0.83434899  0.49942828  0.83438512  1
  Cr  Cr51  1  0.83309471  0.83417108  0.50087181  1
  Ni  Ni52  1  0.66484889  0.66698523  0.66770348  1
  Cr  Cr53  1  0.83473513  0.83380013  0.83396091  1
" 