4200,Ni78Cr22_14,-207.82325083627, 155.469242514423,Ni78Cr22,"# generated using pymatgen
 data_Cr7Ni2
_symmetry_space_group_name_H-M   'P 1'
_cell_length_a   7.57556083
_cell_length_b   7.57556083
_cell_length_c   10.71346087
_cell_angle_alpha   90.00000000
_cell_angle_beta   90.00000000
_cell_angle_gamma   90.00000000
_symmetry_Int_Tables_number   1
_chemical_formula_structural   Cr7Ni2
_chemical_formula_sum   'Cr42 Ni12'
_cell_volume   614.83611165
_cell_formula_units_Z   6
loop_
 _symmetry_equiv_pos_site_id
 _symmetry_equiv_pos_as_xyz
  1  'x, y, z'
loop_
 _atom_site_type_symbol
 _atom_site_label
 _atom_site_symmetry_multiplicity
 _atom_site_fract_x
 _atom_site_fract_y
 _atom_site_fract_z
 _atom_site_occupancy
  Cr  Cr0  1  0.99225595  0.99192648  0.99156182  1
  Ni  Ni1  1  0.15856332  0.16008594  0.16255232  1
  Cr  Cr2  1  0.99181259  0.99075842  0.32635706  1
  Cr  Cr3  1  0.99236031  0.32767712  -0.00588169  1
  Cr  Cr4  1  0.15595162  0.49310321  0.16206873  1
  Ni  Ni5  1  -0.00685087  0.32783452  0.32371362  1
  Cr  Cr6  1  0.98954144  0.65900399  0.99238368  1
  Cr  Cr7  1  0.15898550  0.82652165  0.16127011  1
  Ni  Ni8  1  0.98951395  0.65724662  0.32621911  1
  Cr  Cr9  1  0.32394925  -0.00552540  -0.00518155  1
  Cr  Cr10  1  0.49305572  0.15781736  0.16006588  1
  Ni  Ni11  1  0.32346047  -0.00557245  0.32472134  1
  Cr  Cr12  1  0.32453074  0.32564459  -0.00681548  1
  Cr  Cr13  1  0.49623990  0.49554779  0.15773972  1
  Cr  Cr14  1  0.32583895  0.32540276  0.32596203  1
  Cr  Cr15  1  0.32476329  0.65837492  0.99163256  1
  Cr  Cr16  1  0.49330348  0.82525840  0.15860763  1
  Cr  Cr17  1  0.32360118  0.65999424  0.32771999  1
  Cr  Cr18  1  0.66289697  0.99090686  0.99191550  1
  Cr  Cr19  1  0.82917837  0.16209809  0.16088536  1
  Cr  Cr20  1  0.66010700  0.99219925  0.32840241  1
  Cr  Cr21  1  0.66220925  0.32874713  -0.00652288  1
  Ni  Ni22  1  0.82789688  0.49466894  0.16057632  1
  Cr  Cr23  1  0.66144440  0.32682684  0.32508955  1
  Ni  Ni24  1  0.66488468  0.65781766  0.99069122  1
  Cr  Cr25  1  0.82578053  0.82321980  0.15917838  1
  Cr  Cr26  1  0.66306620  0.65964861  0.32732802  1
  Cr  Cr27  1  0.15607787  0.16039475  0.49378681  1
  Ni  Ni28  1  0.98962313  0.99183480  0.65971399  1
  Cr  Cr29  1  0.15658431  0.15952410  0.82400150  1
  Cr  Cr30  1  0.15553438  0.49150383  0.49247097  1
  Ni  Ni31  1  0.99004916  0.32641819  0.66084664  1
  Cr  Cr32  1  0.15569748  0.49223956  0.82381887  1
  Cr  Cr33  1  0.15665114  0.82650771  0.49127742  1
  Cr  Cr34  1  0.99024820  0.66138900  0.65966541  1
  Cr  Cr35  1  0.15673517  0.82691725  0.82551257  1
  Cr  Cr36  1  0.49309825  0.15871797  0.49184829  1
  Cr  Cr37  1  0.32497997  0.99229279  0.65880708  1
  Cr  Cr38  1  0.49441657  0.15897521  0.82646193  1
  Cr  Cr39  1  0.49474932  0.49431243  0.49499274  1
  Cr  Cr40  1  0.32557683  0.32677145  0.65995506  1
  Cr  Cr41  1  0.49581869  0.49485032  0.82621287  1
  Cr  Cr42  1  0.49441842  0.82544589  0.49208021  1
  Cr  Cr43  1  0.32700568  0.65936742  0.65913584  1
  Cr  Cr44  1  0.49538078  0.82466605  0.82808680  1
  Cr  Cr45  1  0.82953100  0.15998637  0.49397567  1
  Cr  Cr46  1  0.66289883  0.98943765  0.65811614  1
  Cr  Cr47  1  0.82765066  0.15981949  0.82334957  1
  Cr  Cr48  1  0.82842221  0.49241811  0.49189835  1
  Cr  Cr49  1  0.66063616  0.32868657  0.65958283  1
  Ni  Ni50  1  0.82519798  0.49608466  0.82535011  1
  Ni  Ni51  1  0.82815143  0.82406731  0.49471427  1
  Ni  Ni52  1  0.66475982  0.66090970  0.66115796  1
  Ni  Ni53  1  0.82501429  0.82247689  0.82418817  1
" 