6481,Ni78Fe22_19,-233.142592832481, 185.993883228054,Ni78Fe22,"# generated using pymatgen
 data_Fe7Ni2
_symmetry_space_group_name_H-M   'P 1'
_cell_length_a   7.39737214
_cell_length_b   7.39737214
_cell_length_c   10.46146401
_cell_angle_alpha   90.00000000
_cell_angle_beta   90.00000000
_cell_angle_gamma   90.00000000
_symmetry_Int_Tables_number   1
_chemical_formula_structural   Fe7Ni2
_chemical_formula_sum   'Fe42 Ni12'
_cell_volume   572.46297162
_cell_formula_units_Z   6
loop_
 _symmetry_equiv_pos_site_id
 _symmetry_equiv_pos_as_xyz
  1  'x, y, z'
loop_
 _atom_site_type_symbol
 _atom_site_label
 _atom_site_symmetry_multiplicity
 _atom_site_fract_x
 _atom_site_fract_y
 _atom_site_fract_z
 _atom_site_occupancy
  Fe  Fe0  1  0.00619660  0.00609855  1.00399626  1
  Ni  Ni1  1  0.17128728  0.17107553  0.17197365  1
  Ni  Ni2  1  1.00409376  0.00495118  0.33791138  1
  Fe  Fe3  1  0.00575032  0.33705379  0.00544598  1
  Fe  Fe4  1  0.17162036  0.50361465  0.17240348  1
  Ni  Ni5  1  0.00548993  0.33807289  0.33806700  1
  Fe  Fe6  1  0.00590448  0.67084750  1.00434859  1
  Fe  Fe7  1  0.17098570  0.83895103  0.17066118  1
  Fe  Fe8  1  1.00448466  0.67181324  0.33837036  1
  Fe  Fe9  1  0.33701664  0.00593886  1.00384936  1
  Fe  Fe10  1  0.50401100  0.17129022  0.17152182  1
  Fe  Fe11  1  0.33700176  0.00542385  0.33855339  1
  Ni  Ni12  1  0.33732615  0.33813671  1.00464176  1
  Fe  Fe13  1  0.50367891  0.50367768  0.17102657  1
  Fe  Fe14  1  0.33723987  0.33666800  0.33813765  1
  Fe  Fe15  1  0.33780194  0.67123742  1.00458014  1
  Fe  Fe16  1  0.50422926  0.83908905  0.17191576  1
  Fe  Fe17  1  0.33695253  0.67209677  0.33834026  1
  Fe  Fe18  1  0.67087589  0.00580751  0.00546757  1
  Fe  Fe19  1  0.83875835  0.17097012  0.17162945  1
  Ni  Ni20  1  0.67164934  1.00384033  0.33846913  1
  Fe  Fe21  1  0.67109915  0.33789349  1.00421524  1
  Fe  Fe22  1  0.83904721  0.50386423  0.17150497  1
  Fe  Fe23  1  0.67295800  0.33635617  0.33809245  1
  Fe  Fe24  1  0.67059297  0.67056509  0.00478934  1
  Fe  Fe25  1  0.83876148  0.83912685  0.17159179  1
  Fe  Fe26  1  0.67275067  0.67148652  0.33776708  1
  Fe  Fe27  1  0.17099932  0.17169962  0.50489290  1
  Ni  Ni28  1  1.00417211  1.00391603  0.67142917  1
  Ni  Ni29  1  0.17047372  0.17102996  0.83703189  1
  Ni  Ni30  1  0.17165710  0.50466161  0.50450410  1
  Fe  Fe31  1  0.00602856  0.33636400  0.67056339  1
  Fe  Fe32  1  0.17120908  0.50324768  0.83732554  1
  Fe  Fe33  1  0.17088007  0.83847249  0.50570531  1
  Fe  Fe34  1  0.00676732  0.67156517  0.67144207  1
  Ni  Ni35  1  0.17240942  0.83800894  0.83797266  1
  Fe  Fe36  1  0.50377394  0.17179881  0.50484895  1
  Ni  Ni37  1  0.33714872  0.00573695  0.67143740  1
  Fe  Fe38  1  0.50300095  0.17115635  0.83784480  1
  Fe  Fe39  1  0.50391976  0.50441278  0.50502034  1
  Ni  Ni40  1  0.33823846  0.33862623  0.67142965  1
  Fe  Fe41  1  0.50352417  0.50350469  0.83813329  1
  Fe  Fe42  1  0.50394310  0.83790634  0.50445385  1
  Fe  Fe43  1  0.33693550  0.67236662  0.67121295  1
  Fe  Fe44  1  0.50444707  0.83985514  0.83783021  1
  Fe  Fe45  1  0.83933347  0.17136005  0.50460244  1
  Fe  Fe46  1  0.67078103  0.00589703  0.67059094  1
  Ni  Ni47  1  0.83789524  0.17181114  0.83826934  1
  Fe  Fe48  1  0.83896831  0.50448680  0.50451423  1
  Fe  Fe49  1  0.67135844  0.33635620  0.67188848  1
  Fe  Fe50  1  0.83956840  0.50443837  0.83807156  1
  Fe  Fe51  1  0.83903697  0.83794447  0.50442982  1
  Fe  Fe52  1  0.67058922  0.67204991  0.67157341  1
  Fe  Fe53  1  0.83968794  0.83969099  0.83802130  1
" 