3176,Ni78Fe2Cr18_8,-231.846129645202, 159.405853924472,Ni78Fe2Cr18,"# generated using pymatgen
 data_Cr11FeNi42
_symmetry_space_group_name_H-M   'P 1'
_cell_length_a   7.47288438
_cell_length_b   7.47288438
_cell_length_c   10.56825445
_cell_angle_alpha   90.00000000
_cell_angle_beta   90.00000000
_cell_angle_gamma   90.00000000
_symmetry_Int_Tables_number   1
_chemical_formula_structural   Cr11FeNi42
_chemical_formula_sum   'Cr11 Fe1 Ni42'
_cell_volume   590.17361205
_cell_formula_units_Z   1
loop_
 _symmetry_equiv_pos_site_id
 _symmetry_equiv_pos_as_xyz
  1  'x, y, z'
loop_
 _atom_site_type_symbol
 _atom_site_label
 _atom_site_symmetry_multiplicity
 _atom_site_fract_x
 _atom_site_fract_y
 _atom_site_fract_z
 _atom_site_occupancy
  Ni  Ni0  1  0.99817649  0.99889121  0.99949712  1
  Ni  Ni1  1  0.16869728  0.16655539  0.16703678  1
  Ni  Ni2  1  0.00041392  0.99844658  0.33359996  1
  Cr  Cr3  1  0.00080225  0.33187984  0.99902502  1
  Ni  Ni4  1  0.16977150  0.49904427  0.16656807  1
  Cr  Cr5  1  0.00213819  0.33148177  0.33337730  1
  Ni  Ni6  1  0.99924855  0.66806644  0.99831295  1
  Cr  Cr7  1  0.16451240  0.83263361  0.16688463  1
  Ni  Ni8  1  -0.00034705  0.66831443  0.33459430  1
  Ni  Ni9  1  0.33255366  0.00036752  0.99907922  1
  Ni  Ni10  1  0.49794002  0.16829087  0.16483687  1
  Ni  Ni11  1  0.32946910  0.00099289  0.33292698  1
  Ni  Ni12  1  0.33403090  0.33401010  0.00162935  1
  Ni  Ni13  1  0.49736091  0.49780217  0.16638276  1
  Ni  Ni14  1  0.33192073  0.33410938  0.33135297  1
  Ni  Ni15  1  0.33362184  0.66445094  0.99790322  1
  Cr  Cr16  1  0.50032729  0.83273828  0.16549790  1
  Ni  Ni17  1  0.33227496  0.66372622  0.33383924  1
  Ni  Ni18  1  0.66809743  0.99929952  0.00000783  1
  Ni  Ni19  1  0.83219104  0.16325520  0.16488910  1
  Cr  Cr20  1  0.66904817  0.99851586  0.33186066  1
  Ni  Ni21  1  0.66448358  0.33293837  -0.00005773  1
  Cr  Cr22  1  0.83262489  0.50233696  0.16529340  1
  Cr  Cr23  1  0.66490807  0.33432040  0.33277982  1
  Ni  Ni24  1  0.66595867  0.66659036  0.99862723  1
  Ni  Ni25  1  0.83343226  0.83380986  0.16614092  1
  Ni  Ni26  1  0.66690075  0.66586532  0.33346464  1
  Ni  Ni27  1  0.16587388  0.16580842  0.49983423  1
  Ni  Ni28  1  0.99944666  0.00052489  0.66573179  1
  Ni  Ni29  1  0.16584532  0.16536554  0.83195642  1
  Ni  Ni30  1  0.16606118  0.50067718  0.49996142  1
  Ni  Ni31  1  0.99944744  0.33225533  0.66598415  1
  Ni  Ni32  1  0.16690662  0.50111612  0.83229826  1
  Ni  Ni33  1  0.16480502  0.83234259  0.49927121  1
  Ni  Ni34  1  0.00126587  0.66604841  0.66592036  1
  Ni  Ni35  1  0.16659408  0.83234691  0.83258263  1
  Cr  Cr36  1  0.49816618  0.16694757  0.50143241  1
  Ni  Ni37  1  0.33047374  0.99910983  0.66682264  1
  Cr  Cr38  1  0.49983524  0.16585110  0.83275756  1
  Fe  Fe39  1  0.49793599  0.49955915  0.49945855  1
  Ni  Ni40  1  0.33109811  0.33429424  0.66584711  1
  Ni  Ni41  1  0.49895512  0.50062309  0.83361113  1
  Cr  Cr42  1  0.49776326  0.83267447  0.49954418  1
  Ni  Ni43  1  0.33069291  0.66542454  0.66708711  1
  Ni  Ni44  1  0.49860597  0.83217771  0.83384536  1
  Ni  Ni45  1  0.83477615  0.16615563  0.50222027  1
  Ni  Ni46  1  0.66890874  0.00093056  0.66702583  1
  Ni  Ni47  1  0.83313522  0.16571429  0.83171821  1
  Ni  Ni48  1  0.83440806  0.50050906  0.50028176  1
  Ni  Ni49  1  0.66828317  0.33247394  0.66605069  1
  Ni  Ni50  1  0.83296573  0.49987489  0.83281230  1
  Ni  Ni51  1  0.83601348  0.83216289  0.49848510  1
  Cr  Cr52  1  0.66646237  0.66596988  0.66681771  1
  Ni  Ni53  1  0.83362807  0.83323935  0.83420246  1
" 