626,Ni78Cr22_18,-207.948130992096, 159.655702067767,Ni78Cr22,"# generated using pymatgen
 data_Cr7Ni2
_symmetry_space_group_name_H-M   'P 1'
_cell_length_a   7.57662682
_cell_length_b   7.57662682
_cell_length_c   10.71496840
_cell_angle_alpha   90.00000000
_cell_angle_beta   90.00000000
_cell_angle_gamma   90.00000000
_symmetry_Int_Tables_number   1
_chemical_formula_structural   Cr7Ni2
_chemical_formula_sum   'Cr42 Ni12'
_cell_volume   615.09569635
_cell_formula_units_Z   6
loop_
 _symmetry_equiv_pos_site_id
 _symmetry_equiv_pos_as_xyz
  1  'x, y, z'
loop_
 _atom_site_type_symbol
 _atom_site_label
 _atom_site_symmetry_multiplicity
 _atom_site_fract_x
 _atom_site_fract_y
 _atom_site_fract_z
 _atom_site_occupancy
  Cr  Cr0  1  0.99204388  0.99152627  -0.00661757  1
  Cr  Cr1  1  0.16077569  0.16263865  0.15838736  1
  Cr  Cr2  1  -0.00696440  0.99210719  0.32654551  1
  Cr  Cr3  1  0.99185606  0.32824781  -0.00463381  1
  Ni  Ni4  1  0.16279783  0.49281095  0.15949710  1
  Cr  Cr5  1  0.99081042  0.32885862  0.32658582  1
  Cr  Cr6  1  -0.00707456  0.65855781  -0.00457718  1
  Cr  Cr7  1  0.16105144  0.82348278  0.16172222  1
  Cr  Cr8  1  -0.00653554  0.65729024  0.32496146  1
  Cr  Cr9  1  0.32748482  -0.00722151  0.99270313  1
  Cr  Cr10  1  0.49437744  0.16183818  0.16015049  1
  Cr  Cr11  1  0.32684920  0.99056984  0.32738721  1
  Ni  Ni12  1  0.32781500  0.32802709  -0.00557079  1
  Cr  Cr13  1  0.49250049  0.49284778  0.16043559  1
  Cr  Cr14  1  0.32682882  0.32843920  0.32706738  1
  Cr  Cr15  1  0.32550435  0.65911441  -0.00528874  1
  Cr  Cr16  1  0.49462464  0.82345790  0.16349704  1
  Ni  Ni17  1  0.32804514  0.65715421  0.32755722  1
  Cr  Cr18  1  0.65869170  -0.00652204  -0.00662205  1
  Cr  Cr19  1  0.82314264  0.16044238  0.16180318  1
  Ni  Ni20  1  0.65923014  0.99254827  0.32597506  1
  Ni  Ni21  1  0.65679768  0.32692521  -0.00694021  1
  Cr  Cr22  1  0.82278704  0.49259075  0.16060828  1
  Ni  Ni23  1  0.65870920  0.32952941  0.32819117  1
  Cr  Cr24  1  0.65995992  0.65929979  0.99087452  1
  Cr  Cr25  1  0.82312057  0.82535118  0.16152360  1
  Ni  Ni26  1  0.65758259  0.65654810  0.32896270  1
  Cr  Cr27  1  0.15807511  0.15692328  0.49553417  1
  Ni  Ni28  1  -0.00703797  0.99040970  0.65772033  1
  Cr  Cr29  1  0.15905641  0.16062546  0.82436303  1
  Cr  Cr30  1  0.16136311  0.49474716  0.49149009  1
  Cr  Cr31  1  0.99039083  0.32746438  0.65641488  1
  Cr  Cr32  1  0.16116158  0.49131221  0.82918741  1
  Ni  Ni33  1  0.15920053  0.82418542  0.49274919  1
  Cr  Cr34  1  0.99085955  0.65792617  0.65809709  1
  Cr  Cr35  1  0.15818118  0.82585608  0.82335407  1
  Cr  Cr36  1  0.49432281  0.16177217  0.48972245  1
  Cr  Cr37  1  0.32685910  0.99170893  0.65823950  1
  Cr  Cr38  1  0.49189541  0.16275172  0.82911695  1
  Ni  Ni39  1  0.49753669  0.49587176  0.49008294  1
  Cr  Cr40  1  0.32903105  0.32731955  0.65791084  1
  Cr  Cr41  1  0.49296961  0.49264511  0.82623189  1
  Cr  Cr42  1  0.49355500  0.82284576  0.49003116  1
  Cr  Cr43  1  0.32917360  0.65871791  0.65665345  1
  Cr  Cr44  1  0.49362150  0.82312899  0.82510373  1
  Cr  Cr45  1  0.82535864  0.15984111  0.49087384  1
  Cr  Cr46  1  0.65862993  0.99226069  0.66061147  1
  Cr  Cr47  1  0.82709011  0.16020088  0.82603632  1
  Ni  Ni48  1  0.82021697  0.49512949  0.49086556  1
  Cr  Cr49  1  0.65904866  0.32922197  0.65670963  1
  Cr  Cr50  1  0.82423016  0.49313636  0.82530307  1
  Cr  Cr51  1  0.82580723  0.82486488  0.49259600  1
  Ni  Ni52  1  0.65957505  0.65702356  0.65630013  1
  Cr  Cr53  1  0.82652048  0.82515335  0.82401969  1
" 