7216,Ni78Fe22_7,-233.515684699957, 188.879493559169,Ni78Fe22,"# generated using pymatgen
 data_Fe7Ni2
_symmetry_space_group_name_H-M   'P 1'
_cell_length_a   7.40095530
_cell_length_b   7.40095530
_cell_length_c   10.46653136
_cell_angle_alpha   90.00000000
_cell_angle_beta   90.00000000
_cell_angle_gamma   90.00000000
_symmetry_Int_Tables_number   1
_chemical_formula_structural   Fe7Ni2
_chemical_formula_sum   'Fe42 Ni12'
_cell_volume   573.29524677
_cell_formula_units_Z   6
loop_
 _symmetry_equiv_pos_site_id
 _symmetry_equiv_pos_as_xyz
  1  'x, y, z'
loop_
 _atom_site_type_symbol
 _atom_site_label
 _atom_site_symmetry_multiplicity
 _atom_site_fract_x
 _atom_site_fract_y
 _atom_site_fract_z
 _atom_site_occupancy
  Fe  Fe0  1  0.00469878  0.00453792  1.00423026  1
  Fe  Fe1  1  0.17136489  0.17136758  0.17084250  1
  Fe  Fe2  1  0.00451722  0.00546179  0.33763517  1
  Fe  Fe3  1  0.00484949  0.33675387  1.00391753  1
  Fe  Fe4  1  0.17113035  0.50407932  0.17167852  1
  Ni  Ni5  1  0.00601364  0.33878538  0.33776836  1
  Fe  Fe6  1  0.00469848  0.67210351  1.00439532  1
  Fe  Fe7  1  0.17128495  0.83795154  0.17073393  1
  Fe  Fe8  1  0.00454617  0.67019647  0.33801998  1
  Ni  Ni9  1  0.33875190  1.00438252  0.00474727  1
  Fe  Fe10  1  0.50454975  0.17066012  0.17105316  1
  Fe  Fe11  1  0.33797848  0.00522444  0.33751127  1
  Fe  Fe12  1  0.33801478  0.33680656  0.00452117  1
  Fe  Fe13  1  0.50423020  0.50423058  0.17120324  1
  Ni  Ni14  1  0.33585818  0.33840263  0.33809464  1
  Fe  Fe15  1  0.33808622  0.67196912  1.00431282  1
  Fe  Fe16  1  0.50478377  0.83850157  0.17134021  1
  Fe  Fe17  1  0.33771770  0.67066630  0.33818869  1
  Ni  Ni18  1  0.67007867  1.00361194  1.00348451  1
  Fe  Fe19  1  0.83747987  0.17081280  0.17136810  1
  Ni  Ni20  1  0.67074701  1.00297405  0.33820934  1
  Fe  Fe21  1  0.67052991  0.33680503  0.00454682  1
  Fe  Fe22  1  0.83803412  0.50431107  0.17180668  1
  Fe  Fe23  1  0.67136856  0.33747600  0.33778739  1
  Fe  Fe24  1  0.67061008  0.67212025  1.00393931  1
  Fe  Fe25  1  0.83732611  0.83826889  0.17096738  1
  Fe  Fe26  1  0.67113101  0.67055183  0.33879188  1
  Fe  Fe27  1  0.17089544  0.17230357  0.50475595  1
  Fe  Fe28  1  1.00417931  0.00465001  0.67153155  1
  Ni  Ni29  1  0.17113528  0.17189425  0.83837953  1
  Ni  Ni30  1  0.16975202  0.50365829  0.50406210  1
  Ni  Ni31  1  0.00555753  0.33835326  0.67126505  1
  Ni  Ni32  1  0.17074528  0.50341064  0.83838659  1
  Fe  Fe33  1  0.17116357  0.83680613  0.50438324  1
  Fe  Fe34  1  1.00415155  0.66995468  0.67097998  1
  Fe  Fe35  1  0.17136749  0.83811508  0.83827940  1
  Fe  Fe36  1  0.50446428  0.17154686  0.50383072  1
  Fe  Fe37  1  0.33779816  1.00438489  0.67173515  1
  Fe  Fe38  1  0.50339074  0.17118568  0.83851155  1
  Fe  Fe39  1  0.50446282  0.50510285  0.50446546  1
  Fe  Fe40  1  0.33714596  0.33855634  0.67100745  1
  Fe  Fe41  1  0.50370720  0.50417712  0.83772758  1
  Ni  Ni42  1  0.50513672  0.83879738  0.50379827  1
  Fe  Fe43  1  0.33758886  0.67045536  0.67089301  1
  Fe  Fe44  1  0.50365154  0.83803353  0.83750673  1
  Fe  Fe45  1  0.83803744  0.17175620  0.50414588  1
  Fe  Fe46  1  0.67141913  1.00420743  0.67081466  1
  Fe  Fe47  1  0.83887202  0.17165447  0.83787941  1
  Ni  Ni48  1  0.83889360  0.50404459  0.50418430  1
  Fe  Fe49  1  0.67192131  0.33858512  0.67106025  1
  Fe  Fe50  1  0.83878983  0.50394250  0.83680691  1
  Fe  Fe51  1  0.83722062  0.83680557  0.50446469  1
  Ni  Ni52  1  0.67091314  0.67192329  0.67120392  1
  Fe  Fe53  1  0.83837534  0.83779833  0.83796174  1
" 