6362,Ni78Fe22_18,-233.34272429231, 180.885976354834,Ni78Fe22,"# generated using pymatgen
 data_Fe7Ni2
_symmetry_space_group_name_H-M   'P 1'
_cell_length_a   7.40407432
_cell_length_b   7.40407432
_cell_length_c   10.47094232
_cell_angle_alpha   90.00000000
_cell_angle_beta   90.00000000
_cell_angle_gamma   90.00000000
_symmetry_Int_Tables_number   1
_chemical_formula_structural   Fe7Ni2
_chemical_formula_sum   'Fe42 Ni12'
_cell_volume   574.02037252
_cell_formula_units_Z   6
loop_
 _symmetry_equiv_pos_site_id
 _symmetry_equiv_pos_as_xyz
  1  'x, y, z'
loop_
 _atom_site_type_symbol
 _atom_site_label
 _atom_site_symmetry_multiplicity
 _atom_site_fract_x
 _atom_site_fract_y
 _atom_site_fract_z
 _atom_site_occupancy
  Ni  Ni0  1  0.00542953  0.00454018  1.00359964  1
  Fe  Fe1  1  0.17076890  0.16935272  0.17085144  1
  Ni  Ni2  1  0.00460238  0.00442486  0.33814353  1
  Fe  Fe3  1  0.00425411  0.33670887  1.00381524  1
  Fe  Fe4  1  0.17091941  0.50523093  0.17122049  1
  Fe  Fe5  1  0.00454671  0.33699503  0.33795246  1
  Fe  Fe6  1  0.00429805  0.67214488  0.00440311  1
  Fe  Fe7  1  0.17061704  0.83817863  0.17036138  1
  Fe  Fe8  1  1.00403204  0.67143805  0.33751401  1
  Ni  Ni9  1  0.33641082  0.00452874  1.00406104  1
  Fe  Fe10  1  0.50451956  0.16991539  0.17099934  1
  Fe  Fe11  1  0.33721558  0.00432690  0.33724772  1
  Fe  Fe12  1  0.33750934  0.33722239  1.00395850  1
  Fe  Fe13  1  0.50503533  0.50532146  0.17035880  1
  Fe  Fe14  1  0.33680047  0.33695106  0.33795404  1
  Fe  Fe15  1  0.33805712  0.67221994  1.00381198  1
  Ni  Ni16  1  0.50514211  0.83687850  0.17128529  1
  Fe  Fe17  1  0.33731722  0.67148053  0.33751791  1
  Fe  Fe18  1  0.67091694  1.00335777  0.00439649  1
  Fe  Fe19  1  0.83747041  0.16961549  0.17057909  1
  Fe  Fe20  1  0.67136626  1.00381195  0.33729708  1
  Fe  Fe21  1  0.67099384  0.33711691  1.00380575  1
  Fe  Fe22  1  0.83680305  0.50547589  0.17084630  1
  Fe  Fe23  1  0.67140941  0.33709591  0.33773620  1
  Ni  Ni24  1  0.67055653  0.66999115  1.00381712  1
  Ni  Ni25  1  0.83670639  0.83759822  0.17073008  1
  Fe  Fe26  1  0.67140799  0.67184664  0.33666119  1
  Ni  Ni27  1  0.17020915  0.17127123  0.50386718  1
  Fe  Fe28  1  0.00462212  0.00476945  0.67121033  1
  Ni  Ni29  1  0.16927368  0.17055414  0.83770437  1
  Fe  Fe30  1  0.17091974  0.50381263  0.50410163  1
  Fe  Fe31  1  0.00440326  0.33699904  0.67098866  1
  Fe  Fe32  1  0.17136498  0.50425302  0.83743585  1
  Fe  Fe33  1  0.17062407  0.83818064  0.50452420  1
  Fe  Fe34  1  0.00447467  0.67099407  0.67084050  1
  Ni  Ni35  1  0.17164150  0.83848989  0.83794859  1
  Fe  Fe36  1  0.50380441  0.17106700  0.50410195  1
  Fe  Fe37  1  0.33721485  1.00418364  0.67170208  1
  Fe  Fe38  1  0.50353934  0.17035676  0.83765678  1
  Fe  Fe39  1  0.50376516  0.50361469  0.50474141  1
  Fe  Fe40  1  0.33736039  0.33751037  0.67084453  1
  Ni  Ni41  1  0.50472324  0.50560963  0.83784963  1
  Fe  Fe42  1  0.50376300  0.83807591  0.50425346  1
  Fe  Fe43  1  0.33787955  0.67106517  0.67143198  1
  Ni  Ni44  1  0.50389052  0.83576030  0.83774808  1
  Fe  Fe45  1  0.83817303  0.17077075  0.50452341  1
  Fe  Fe46  1  0.67091899  1.00424977  0.67106482  1
  Ni  Ni47  1  0.83912208  0.17138462  0.83759136  1
  Fe  Fe48  1  0.83807278  0.50376633  0.50425316  1
  Fe  Fe49  1  0.67099289  0.33766009  0.67121662  1
  Fe  Fe50  1  0.83734209  0.50444829  0.83765663  1
  Fe  Fe51  1  0.83837036  0.83822005  0.50339201  1
  Fe  Fe52  1  0.67040680  0.67084767  0.67169696  1
  Fe  Fe53  1  0.83766179  0.83795686  0.83836957  1
" 