7907,Ni78Cr22_10,-208.114300322362, 161.881852220544,Ni78Cr22,"# generated using pymatgen
 data_Cr7Ni2
_symmetry_space_group_name_H-M   'P 1'
_cell_length_a   7.57046600
_cell_length_b   7.57046600
_cell_length_c   10.70625568
_cell_angle_alpha   90.00000000
_cell_angle_beta   90.00000000
_cell_angle_gamma   90.00000000
_symmetry_Int_Tables_number   1
_chemical_formula_structural   Cr7Ni2
_chemical_formula_sum   'Cr42 Ni12'
_cell_volume   613.59644811
_cell_formula_units_Z   6
loop_
 _symmetry_equiv_pos_site_id
 _symmetry_equiv_pos_as_xyz
  1  'x, y, z'
loop_
 _atom_site_type_symbol
 _atom_site_label
 _atom_site_symmetry_multiplicity
 _atom_site_fract_x
 _atom_site_fract_y
 _atom_site_fract_z
 _atom_site_occupancy
  Cr  Cr0  1  0.99213554  0.99158082  0.99089849  1
  Cr  Cr1  1  0.15854231  0.15756968  0.15996324  1
  Ni  Ni2  1  0.99307789  0.98880220  0.32845336  1
  Cr  Cr3  1  0.99183895  0.32769614  -0.00555254  1
  Cr  Cr4  1  0.15919630  0.49625424  0.16176951  1
  Cr  Cr5  1  0.99246597  0.32797369  0.32618359  1
  Cr  Cr6  1  0.99100820  0.66026222  0.99250486  1
  Cr  Cr7  1  0.16016854  0.82625462  0.16255323  1
  Ni  Ni8  1  -0.00514927  0.66380522  0.32646959  1
  Cr  Cr9  1  0.32804450  0.99141705  -0.00578495  1
  Cr  Cr10  1  0.49448119  0.15723265  0.16049657  1
  Cr  Cr11  1  0.32822985  0.99085871  0.32773296  1
  Cr  Cr12  1  0.32587144  0.32564151  -0.00665430  1
  Cr  Cr13  1  0.49299120  0.49563642  0.16038868  1
  Cr  Cr14  1  0.32616050  0.32787466  0.32762733  1
  Cr  Cr15  1  0.32720720  0.66198432  -0.00434506  1
  Ni  Ni16  1  0.49443548  0.82579264  0.16332685  1
  Ni  Ni17  1  0.32556931  0.66543378  0.32796108  1
  Cr  Cr18  1  0.65968139  0.99032876  -0.00512645  1
  Cr  Cr19  1  0.82689494  0.15724118  0.16393444  1
  Ni  Ni20  1  0.66039928  0.98835370  0.32677880  1
  Cr  Cr21  1  0.66169061  0.32681202  -0.00494590  1
  Ni  Ni22  1  0.82739185  0.49589481  0.16219981  1
  Cr  Cr23  1  0.66053842  0.32506502  0.32656824  1
  Cr  Cr24  1  0.66084731  0.66158081  0.99261009  1
  Cr  Cr25  1  0.82720118  0.82602294  0.16188644  1
  Cr  Cr26  1  0.65884627  0.66134027  0.32697089  1
  Cr  Cr27  1  0.15822127  0.15553704  0.49425496  1
  Ni  Ni28  1  -0.00492580  0.98874891  0.65931435  1
  Cr  Cr29  1  0.16017234  0.15766093  0.82506067  1
  Cr  Cr30  1  0.15967845  0.49845754  0.49010346  1
  Cr  Cr31  1  -0.00665390  0.32522846  0.65894911  1
  Cr  Cr32  1  0.16129819  0.49409177  0.82757622  1
  Ni  Ni33  1  0.16097121  0.82798908  0.49168922  1
  Cr  Cr34  1  0.99225054  0.66139337  0.65984681  1
  Cr  Cr35  1  0.15813394  0.82739573  0.82524134  1
  Cr  Cr36  1  0.49400823  0.15701317  0.49318564  1
  Ni  Ni37  1  0.32444936  0.98927032  0.65751780  1
  Cr  Cr38  1  0.49246128  0.15941967  0.82578302  1
  Cr  Cr39  1  0.49289984  0.49708537  0.49458879  1
  Cr  Cr40  1  0.32553287  0.32428794  0.65829625  1
  Cr  Cr41  1  0.49327431  0.49418773  0.82431189  1
  Ni  Ni42  1  0.49145987  0.82698576  0.49260966  1
  Cr  Cr43  1  0.32677446  0.66292988  0.65676662  1
  Cr  Cr44  1  0.49380543  0.82617489  0.82562917  1
  Cr  Cr45  1  0.82747723  0.15594907  0.49093152  1
  Cr  Cr46  1  0.65881819  0.99092182  0.65870440  1
  Cr  Cr47  1  0.82691282  0.15599890  0.82464827  1
  Cr  Cr48  1  0.82601821  0.49655700  0.49274687  1
  Cr  Cr49  1  0.66074379  0.32852314  0.65784629  1
  Cr  Cr50  1  0.82468862  0.49616371  0.82475886  1
  Cr  Cr51  1  0.82809842  0.82705241  0.49307905  1
  Ni  Ni52  1  0.65912092  0.66488438  0.65956601  1
  Ni  Ni53  1  0.82570282  0.82654117  0.82328416  1
" 