5164,Ni78Fe11Cr9_11,-237.297932128831, 184.609609077589,Ni78Fe11Cr9,"# generated using pymatgen
 data_CrFeNi7
_symmetry_space_group_name_H-M   'P 1'
_cell_length_a   7.45018542
_cell_length_b   7.45018542
_cell_length_c   10.53615326
_cell_angle_alpha   90.00000000
_cell_angle_beta   90.00000000
_cell_angle_gamma   90.00000000
_symmetry_Int_Tables_number   1
_chemical_formula_structural   CrFeNi7
_chemical_formula_sum   'Cr6 Fe6 Ni42'
_cell_volume   584.81195524
_cell_formula_units_Z   6
loop_
 _symmetry_equiv_pos_site_id
 _symmetry_equiv_pos_as_xyz
  1  'x, y, z'
loop_
 _atom_site_type_symbol
 _atom_site_label
 _atom_site_symmetry_multiplicity
 _atom_site_fract_x
 _atom_site_fract_y
 _atom_site_fract_z
 _atom_site_occupancy
  Ni  Ni0  1  0.99955281  0.00190743  0.00173820  1
  Ni  Ni1  1  0.16638046  0.16761883  0.16693554  1
  Ni  Ni2  1  0.00122920  0.00134940  0.33432586  1
  Fe  Fe3  1  0.99986592  0.33449352  0.00130847  1
  Ni  Ni4  1  0.16581392  0.50028559  0.16557036  1
  Ni  Ni5  1  1.00037717  0.33382928  0.33346268  1
  Ni  Ni6  1  0.00196013  0.66829040  0.00157554  1
  Fe  Fe7  1  0.16604534  0.83555188  0.16680830  1
  Ni  Ni8  1  0.99964113  0.66825755  0.33463793  1
  Fe  Fe9  1  0.33574185  0.00225176  0.00164790  1
  Ni  Ni10  1  0.50189313  0.16625477  0.16822484  1
  Ni  Ni11  1  0.33373330  0.00132980  0.33370526  1
  Ni  Ni12  1  0.33371348  0.33321389  0.00190072  1
  Ni  Ni13  1  0.50159847  0.50079326  0.16741056  1
  Cr  Cr14  1  0.33400989  0.33239880  0.33478492  1
  Ni  Ni15  1  0.33236231  0.66637577  0.00286023  1
  Ni  Ni16  1  0.50225550  0.83614969  0.16735029  1
  Cr  Cr17  1  0.33368698  0.66856752  0.33367576  1
  Ni  Ni18  1  0.66932623  0.00361270  1.00032007  1
  Ni  Ni19  1  0.83501388  0.16679466  0.16831647  1
  Ni  Ni20  1  0.66830491  0.00118889  0.33414314  1
  Ni  Ni21  1  0.66734787  0.33124022  0.00236417  1
  Ni  Ni22  1  0.83574351  0.50073668  0.17008190  1
  Ni  Ni23  1  0.66936043  0.33393486  0.33422920  1
  Cr  Cr24  1  0.67006537  0.66904934  0.00118639  1
  Ni  Ni25  1  0.83441822  0.83592994  0.16901574  1
  Ni  Ni26  1  0.66923558  0.66814777  0.33385750  1
  Ni  Ni27  1  0.16521542  0.16792060  0.50204706  1
  Ni  Ni28  1  1.00015599  0.00241612  0.66723530  1
  Ni  Ni29  1  0.16725083  0.16956481  0.83451051  1
  Ni  Ni30  1  0.16653767  0.49978675  0.50371500  1
  Ni  Ni31  1  0.00168551  0.33347165  0.66922566  1
  Ni  Ni32  1  0.16621153  0.49936247  0.83430196  1
  Fe  Fe33  1  0.16673647  0.83584035  0.50215474  1
  Ni  Ni34  1  0.00197898  0.66731619  0.66711050  1
  Cr  Cr35  1  0.16823153  0.83422696  0.83335402  1
  Fe  Fe36  1  0.50247792  0.16660582  0.50169892  1
  Ni  Ni37  1  0.33489851  0.00304103  0.66727570  1
  Ni  Ni38  1  0.50119053  0.16633127  0.83332961  1
  Ni  Ni39  1  0.50104582  0.50186339  0.50164374  1
  Ni  Ni40  1  0.33332245  0.33314844  0.66699066  1
  Cr  Cr41  1  0.49817436  0.49986153  0.83431062  1
  Ni  Ni42  1  0.50231379  0.83538008  0.50149385  1
  Ni  Ni43  1  0.33293634  0.66760771  0.66650943  1
  Ni  Ni44  1  0.50103505  0.83788680  0.83454715  1
  Ni  Ni45  1  0.83615481  0.16644978  0.50063581  1
  Ni  Ni46  1  0.66855327  0.00297580  0.66890577  1
  Ni  Ni47  1  0.83491501  0.16730418  0.83452640  1
  Fe  Fe48  1  0.83537126  0.49972786  0.50033478  1
  Ni  Ni49  1  0.66869790  0.33138245  0.66690462  1
  Ni  Ni50  1  0.83815877  0.49887585  0.83369063  1
  Ni  Ni51  1  0.83401604  0.83678382  0.50037963  1
  Cr  Cr52  1  0.66983970  0.66932420  0.66880664  1
  Ni  Ni53  1  0.83532732  0.83709966  0.83403315  1
" 