8205,Ni78Cr22_0,-207.780624609729, 154.247837483861,Ni78Cr22,"# generated using pymatgen
 data_Cr7Ni2
_symmetry_space_group_name_H-M   'P 1'
_cell_length_a   7.58044307
_cell_length_b   7.58044307
_cell_length_c   10.72036539
_cell_angle_alpha   90.00000000
_cell_angle_beta   90.00000000
_cell_angle_gamma   90.00000000
_symmetry_Int_Tables_number   1
_chemical_formula_structural   Cr7Ni2
_chemical_formula_sum   'Cr42 Ni12'
_cell_volume   616.02561151
_cell_formula_units_Z   6
loop_
 _symmetry_equiv_pos_site_id
 _symmetry_equiv_pos_as_xyz
  1  'x, y, z'
loop_
 _atom_site_type_symbol
 _atom_site_label
 _atom_site_symmetry_multiplicity
 _atom_site_fract_x
 _atom_site_fract_y
 _atom_site_fract_z
 _atom_site_occupancy
  Ni  Ni0  1  0.99129679  -0.00625132  0.99140577  1
  Cr  Cr1  1  0.15998875  0.15811144  0.15900389  1
  Cr  Cr2  1  0.99165220  0.99119325  0.32561814  1
  Cr  Cr3  1  -0.00741567  0.32425781  0.99009318  1
  Cr  Cr4  1  0.15944435  0.49251405  0.15957133  1
  Cr  Cr5  1  -0.00624728  0.32812554  0.32763632  1
  Cr  Cr6  1  0.99192002  0.66063331  -0.00508605  1
  Cr  Cr7  1  0.15693523  0.82705053  0.15793450  1
  Cr  Cr8  1  -0.00698424  0.65836350  0.32476562  1
  Cr  Cr9  1  0.32531123  -0.00605047  -0.00682310  1
  Ni  Ni10  1  0.49282942  0.15904558  0.15924735  1
  Cr  Cr11  1  0.32858459  0.99211664  0.32506442  1
  Cr  Cr12  1  0.32549693  0.32402520  0.99251699  1
  Cr  Cr13  1  0.49278544  0.49061532  0.15787859  1
  Cr  Cr14  1  0.32609649  0.32647430  0.32640556  1
  Cr  Cr15  1  0.32520941  0.65963160  0.99245510  1
  Cr  Cr16  1  0.49314110  0.82674752  0.15887895  1
  Cr  Cr17  1  0.32557952  0.65890929  0.32850910  1
  Cr  Cr18  1  0.66017724  -0.00665680  -0.00636469  1
  Cr  Cr19  1  0.82552002  0.15785285  0.15975796  1
  Cr  Cr20  1  0.65734389  0.99157414  0.32495478  1
  Cr  Cr21  1  0.65953385  0.32377104  -0.00740428  1
  Cr  Cr22  1  0.82535824  0.49368672  0.15910703  1
  Cr  Cr23  1  0.65779269  0.32520141  0.32511822  1
  Cr  Cr24  1  0.66031582  0.66044519  -0.00700754  1
  Ni  Ni25  1  0.82662004  0.82749574  0.15804311  1
  Cr  Cr26  1  0.65887013  0.66073317  0.32668020  1
  Cr  Cr27  1  0.15871208  0.15986654  0.49371505  1
  Ni  Ni28  1  -0.00726832  -0.00557774  0.66193122  1
  Ni  Ni29  1  0.15593692  0.15809694  0.82496265  1
  Ni  Ni30  1  0.16385839  0.49281983  0.49433011  1
  Cr  Cr31  1  -0.00544546  0.32426371  0.66016772  1
  Cr  Cr32  1  0.16181583  0.49168019  0.82496037  1
  Cr  Cr33  1  0.16035376  0.82560971  0.49368588  1
  Cr  Cr34  1  -0.00643260  0.65892803  0.65797720  1
  Cr  Cr35  1  0.15873122  0.82829211  0.82612704  1
  Cr  Cr36  1  0.49193808  0.16030893  0.49131543  1
  Cr  Cr37  1  0.32521707  0.99230855  0.65911262  1
  Cr  Cr38  1  0.49153838  0.16072705  0.82634795  1
  Ni  Ni39  1  0.48935563  0.49551134  0.49557606  1
  Ni  Ni40  1  0.32483353  0.32894098  0.65813542  1
  Cr  Cr41  1  0.49218494  0.49372786  0.82380671  1
  Ni  Ni42  1  0.49229986  0.82117316  0.49446961  1
  Ni  Ni43  1  0.32875104  0.65623735  0.65589766  1
  Cr  Cr44  1  0.49217205  0.82299226  0.82350309  1
  Cr  Cr45  1  0.82704753  0.15829297  0.49318640  1
  Cr  Cr46  1  0.66008580  0.99123888  0.65884332  1
  Ni  Ni47  1  0.83026120  0.15678295  0.82608251  1
  Cr  Cr48  1  0.82425289  0.49267963  0.49240762  1
  Cr  Cr49  1  0.65876010  0.32636921  0.65982581  1
  Cr  Cr50  1  0.82359106  0.49215743  0.82595883  1
  Cr  Cr51  1  0.82483904  0.82644723  0.49359304  1
  Ni  Ni52  1  0.65494019  0.65909062  0.65685293  1
  Cr  Cr53  1  0.82662201  0.82752611  0.82537572  1
" 