7431,Ni78Fe11Cr9_17,-237.15616390603, 185.2568754658,Ni78Fe11Cr9,"# generated using pymatgen
 data_CrFeNi7
_symmetry_space_group_name_H-M   'P 1'
_cell_length_a   7.44550694
_cell_length_b   7.44550694
_cell_length_c   10.52953690
_cell_angle_alpha   90.00000000
_cell_angle_beta   90.00000000
_cell_angle_gamma   90.00000000
_symmetry_Int_Tables_number   1
_chemical_formula_structural   CrFeNi7
_chemical_formula_sum   'Cr6 Fe6 Ni42'
_cell_volume   583.71091793
_cell_formula_units_Z   6
loop_
 _symmetry_equiv_pos_site_id
 _symmetry_equiv_pos_as_xyz
  1  'x, y, z'
loop_
 _atom_site_type_symbol
 _atom_site_label
 _atom_site_symmetry_multiplicity
 _atom_site_fract_x
 _atom_site_fract_y
 _atom_site_fract_z
 _atom_site_occupancy
  Ni  Ni0  1  1.00055502  0.00316657  1.00065687  1
  Ni  Ni1  1  0.16726148  0.16708218  0.16938075  1
  Ni  Ni2  1  1.00113235  0.00331606  0.33451517  1
  Ni  Ni3  1  0.99955110  0.33312578  1.00073091  1
  Cr  Cr4  1  0.16580839  0.49997740  0.16773763  1
  Ni  Ni5  1  1.00078116  0.33388420  0.33530781  1
  Fe  Fe6  1  0.99831075  0.66833374  0.99988819  1
  Cr  Cr7  1  0.16743284  0.83697962  0.16774827  1
  Ni  Ni8  1  0.99869648  0.66727558  0.33521655  1
  Ni  Ni9  1  0.33524404  1.00130419  1.00056919  1
  Ni  Ni10  1  0.50294907  0.16706275  0.16844754  1
  Ni  Ni11  1  0.33566299  0.00401421  0.33561797  1
  Cr  Cr12  1  0.33562866  0.33366007  1.00120852  1
  Ni  Ni13  1  0.50529816  0.50056514  0.16845775  1
  Ni  Ni14  1  0.33554599  0.33274458  0.33506793  1
  Fe  Fe15  1  0.33785726  0.66926740  0.99949477  1
  Ni  Ni16  1  0.50372984  0.83678771  0.16808425  1
  Cr  Cr17  1  0.33828981  0.66725621  0.33619560  1
  Ni  Ni18  1  0.66851702  1.00053624  1.00140090  1
  Ni  Ni19  1  0.83420658  0.16840347  0.16849750  1
  Ni  Ni20  1  0.66752673  0.00161175  0.33329000  1
  Ni  Ni21  1  0.66989012  0.33573694  1.00106235  1
  Ni  Ni22  1  0.83338563  0.50083988  0.16869677  1
  Ni  Ni23  1  0.66807124  0.33542856  0.33459278  1
  Ni  Ni24  1  0.66784033  0.66805967  0.00213127  1
  Ni  Ni25  1  0.83353838  0.83516173  0.16789045  1
  Ni  Ni26  1  0.66893935  0.66745079  0.33382959  1
  Fe  Fe27  1  0.17000439  0.16947260  0.50094139  1
  Cr  Cr28  1  0.00171850  0.00283706  0.66909478  1
  Ni  Ni29  1  0.16802002  0.16789506  0.83453360  1
  Ni  Ni30  1  0.16656625  0.50120534  0.50266565  1
  Ni  Ni31  1  0.00225342  0.33635060  0.66844224  1
  Ni  Ni32  1  0.16656148  0.50242245  0.83370487  1
  Ni  Ni33  1  0.16917571  0.83438968  0.50162973  1
  Ni  Ni34  1  0.00161510  0.66577277  0.66930745  1
  Ni  Ni35  1  0.16943208  0.83412620  0.83507526  1
  Ni  Ni36  1  0.50186136  0.16785608  0.50171536  1
  Ni  Ni37  1  0.33617561  0.00168888  0.66815644  1
  Ni  Ni38  1  0.50288703  0.16688501  0.83404244  1
  Ni  Ni39  1  0.50251187  0.49949844  0.50237740  1
  Ni  Ni40  1  0.33388359  0.33522763  0.66838345  1
  Ni  Ni41  1  0.50279804  0.50198729  0.83351415  1
  Ni  Ni42  1  0.50071581  0.83697093  0.50217588  1
  Ni  Ni43  1  0.33553900  0.66755383  0.66858143  1
  Ni  Ni44  1  0.50057443  0.83562817  0.83416379  1
  Fe  Fe45  1  0.83285227  0.16987106  0.50074961  1
  Ni  Ni46  1  0.66590113  1.00093998  0.66967363  1
  Ni  Ni47  1  0.83333105  0.16987679  0.83500029  1
  Ni  Ni48  1  0.83532431  0.49982752  0.50122209  1
  Fe  Fe49  1  0.66773883  0.33514041  0.66838111  1
  Ni  Ni50  1  0.83496417  0.50039096  0.83444642  1
  Cr  Cr51  1  0.83380601  0.83356880  0.50055964  1
  Ni  Ni52  1  0.66701166  0.66774937  0.66819918  1
  Fe  Fe53  1  0.83324004  0.83394862  0.83565942  1
" 