8565,Ni78Fe22_1,-233.198562015238, 188.84422873878,Ni78Fe22,"# generated using pymatgen
 data_Fe7Ni2
_symmetry_space_group_name_H-M   'P 1'
_cell_length_a   7.39846089
_cell_length_b   7.39846089
_cell_length_c   10.46300374
_cell_angle_alpha   90.00000000
_cell_angle_beta   90.00000000
_cell_angle_gamma   90.00000000
_symmetry_Int_Tables_number   1
_chemical_formula_structural   Fe7Ni2
_chemical_formula_sum   'Fe42 Ni12'
_cell_volume   572.71577484
_cell_formula_units_Z   6
loop_
 _symmetry_equiv_pos_site_id
 _symmetry_equiv_pos_as_xyz
  1  'x, y, z'
loop_
 _atom_site_type_symbol
 _atom_site_label
 _atom_site_symmetry_multiplicity
 _atom_site_fract_x
 _atom_site_fract_y
 _atom_site_fract_z
 _atom_site_occupancy
  Fe  Fe0  1  1.00433053  0.00481490  0.00487855  1
  Fe  Fe1  1  0.17063745  0.17130463  0.17112653  1
  Fe  Fe2  1  0.00510153  1.00448469  0.33796781  1
  Ni  Ni3  1  1.00412030  0.33777378  1.00369045  1
  Fe  Fe4  1  0.17041405  0.50374968  0.17172530  1
  Ni  Ni5  1  1.00366533  0.33755610  0.33901899  1
  Fe  Fe6  1  1.00454025  0.67120590  1.00366411  1
  Fe  Fe7  1  0.17174881  0.83885341  0.17154556  1
  Fe  Fe8  1  0.00569568  0.67169091  0.33893876  1
  Ni  Ni9  1  0.33826781  0.00493491  1.00462137  1
  Fe  Fe10  1  0.50462872  0.17063579  0.17185383  1
  Ni  Ni11  1  0.33860549  1.00400503  0.33860880  1
  Fe  Fe12  1  0.33811632  0.33803095  1.00437193  1
  Fe  Fe13  1  0.50527383  0.50483720  0.17130333  1
  Fe  Fe14  1  0.33780501  0.33790378  0.33847571  1
  Fe  Fe15  1  0.33790512  0.67124028  0.00536446  1
  Fe  Fe16  1  0.50461167  0.83843524  0.17112332  1
  Ni  Ni17  1  0.33901620  0.67316544  0.33849089  1
  Fe  Fe18  1  0.67160698  0.00502655  0.00496533  1
  Ni  Ni19  1  0.83797383  0.17130833  0.17129226  1
  Fe  Fe20  1  0.67114731  0.00505318  0.33830223  1
  Fe  Fe21  1  0.67164094  0.33782109  1.00463315  1
  Fe  Fe22  1  0.83821836  0.50372580  0.17033034  1
  Fe  Fe23  1  0.67051154  0.33730839  0.33796811  1
  Ni  Ni24  1  0.67151266  0.67119074  1.00456215  1
  Fe  Fe25  1  0.83754936  0.83820647  0.17161037  1
  Fe  Fe26  1  0.67097837  0.67154352  0.33812352  1
  Fe  Fe27  1  0.17132325  0.17075026  0.50423828  1
  Fe  Fe28  1  1.00375306  1.00308923  0.67105802  1
  Fe  Fe29  1  0.17083897  0.17185061  0.83854358  1
  Fe  Fe30  1  0.17105634  0.50479265  0.50430376  1
  Fe  Fe31  1  1.00392642  0.33933546  0.67172185  1
  Fe  Fe32  1  0.17023587  0.50446100  0.83787968  1
  Fe  Fe33  1  0.17169555  0.83836195  0.50439655  1
  Ni  Ni34  1  1.00299764  0.67048055  0.67131220  1
  Fe  Fe35  1  0.17092799  0.83759283  0.83796794  1
  Ni  Ni36  1  0.50380400  0.17153456  0.50400876  1
  Fe  Fe37  1  0.33821334  1.00395266  0.67123518  1
  Fe  Fe38  1  0.50467932  0.17151832  0.83748305  1
  Fe  Fe39  1  0.50518782  0.50518812  0.50463450  1
  Fe  Fe40  1  0.33838697  0.33882759  0.67105628  1
  Fe  Fe41  1  0.50570588  0.50521677  0.83796748  1
  Fe  Fe42  1  0.50488719  0.83830359  0.50430690  1
  Fe  Fe43  1  0.33779090  0.67112669  0.67075014  1
  Fe  Fe44  1  0.50534428  0.83717139  0.83847711  1
  Fe  Fe45  1  0.83772050  0.17105544  0.50366604  1
  Fe  Fe46  1  0.67193951  1.00368654  0.67063454  1
  Fe  Fe47  1  0.83838688  0.17221071  0.83893779  1
  Fe  Fe48  1  0.83766008  0.50481237  0.50560405  1
  Fe  Fe49  1  0.67159081  0.33891892  0.67130229  1
  Ni  Ni50  1  0.83826100  0.50515859  0.83826273  1
  Ni  Ni51  1  0.83861158  0.83722719  0.50452869  1
  Ni  Ni52  1  0.67212020  0.67130111  0.67055633  1
  Fe  Fe53  1  0.83763209  0.83656909  0.83691000  1
" 