2683,Ni78Fe22_14,-233.427296657206, 187.218200130833,Ni78Fe22,"# generated using pymatgen
 data_Fe7Ni2
_symmetry_space_group_name_H-M   'P 1'
_cell_length_a   7.40079895
_cell_length_b   7.40079895
_cell_length_c   10.46631024
_cell_angle_alpha   90.00000000
_cell_angle_beta   90.00000000
_cell_angle_gamma   90.00000000
_symmetry_Int_Tables_number   1
_chemical_formula_structural   Fe7Ni2
_chemical_formula_sum   'Fe42 Ni12'
_cell_volume   573.25891315
_cell_formula_units_Z   6
loop_
 _symmetry_equiv_pos_site_id
 _symmetry_equiv_pos_as_xyz
  1  'x, y, z'
loop_
 _atom_site_type_symbol
 _atom_site_label
 _atom_site_symmetry_multiplicity
 _atom_site_fract_x
 _atom_site_fract_y
 _atom_site_fract_z
 _atom_site_occupancy
  Fe  Fe0  1  1.00377699  0.00458494  0.00517578  1
  Fe  Fe1  1  0.17090565  0.17082184  0.17199336  1
  Ni  Ni2  1  0.00574598  0.00495925  0.33821879  1
  Ni  Ni3  1  0.00508937  0.33739675  1.00438281  1
  Fe  Fe4  1  0.17098590  0.50423871  0.17012031  1
  Fe  Fe5  1  0.00509059  0.33672421  0.33758693  1
  Fe  Fe6  1  1.00431591  0.67025884  1.00378975  1
  Fe  Fe7  1  0.17114223  0.83836785  0.17170189  1
  Fe  Fe8  1  0.00461532  0.67214807  0.33873367  1
  Fe  Fe9  1  0.33821281  1.00423814  0.00477138  1
  Fe  Fe10  1  0.50423680  0.17107038  0.17138129  1
  Ni  Ni11  1  0.33701878  0.00496490  0.33810744  1
  Fe  Fe12  1  0.33754365  0.33866038  1.00423862  1
  Fe  Fe13  1  0.50479878  0.50463163  0.17090696  1
  Fe  Fe14  1  0.33703930  0.33648506  0.33796516  1
  Fe  Fe15  1  0.33775269  0.67052836  1.00408272  1
  Fe  Fe16  1  0.50439170  0.83772639  0.17097500  1
  Fe  Fe17  1  0.33751463  0.67238820  0.33771161  1
  Fe  Fe18  1  0.67143894  1.00437582  1.00415410  1
  Fe  Fe19  1  0.83828650  0.17122586  0.17089057  1
  Fe  Fe20  1  0.67105966  1.00408438  0.33811481  1
  Fe  Fe21  1  0.67170676  0.33812023  0.00472704  1
  Fe  Fe22  1  0.83764314  0.50439403  0.17111496  1
  Fe  Fe23  1  0.67129911  0.33690116  0.33788087  1
  Ni  Ni24  1  0.67062547  0.67107067  1.00410767  1
  Fe  Fe25  1  0.83789249  0.83780609  0.17159114  1
  Fe  Fe26  1  0.67129716  0.67244080  0.33843613  1
  Ni  Ni27  1  0.17126931  0.17183922  0.50417274  1
  Fe  Fe28  1  1.00386057  1.00355527  0.67013018  1
  Fe  Fe29  1  0.17151954  0.17131701  0.83759695  1
  Fe  Fe30  1  0.17043069  0.50521920  0.50532954  1
  Fe  Fe31  1  1.00426408  0.33913247  0.67160153  1
  Ni  Ni32  1  0.17032287  0.50347760  0.83819531  1
  Fe  Fe33  1  0.17028987  0.83816269  0.50398717  1
  Ni  Ni34  1  1.00328829  0.67094870  0.67132892  1
  Fe  Fe35  1  0.17146729  0.83717951  0.83773956  1
  Fe  Fe36  1  0.50474113  0.17059587  0.50415546  1
  Fe  Fe37  1  0.33821649  1.00325432  0.67045325  1
  Fe  Fe38  1  0.50385971  0.17119905  0.83789050  1
  Fe  Fe39  1  0.50535726  0.50502382  0.50454399  1
  Fe  Fe40  1  0.33725029  0.33887279  0.67122394  1
  Fe  Fe41  1  0.50439346  0.50534902  0.83797552  1
  Ni  Ni42  1  0.50554631  0.83810463  0.50366723  1
  Fe  Fe43  1  0.33805300  0.67130214  0.67163345  1
  Ni  Ni44  1  0.50530118  0.83801028  0.83870008  1
  Fe  Fe45  1  0.83799443  0.17045639  0.50415472  1
  Fe  Fe46  1  0.67135057  1.00275107  0.67115749  1
  Fe  Fe47  1  0.83804882  0.17137974  0.83838279  1
  Ni  Ni48  1  0.83830055  0.50517544  0.50439486  1
  Fe  Fe49  1  0.67191292  0.33896928  0.67081888  1
  Fe  Fe50  1  0.83774796  0.50539771  0.83736645  1
  Ni  Ni51  1  0.83622283  0.83680008  0.50428608  1
  Ni  Ni52  1  0.67163158  0.67095886  0.67081951  1
  Fe  Fe53  1  0.83762469  0.83664688  0.83712513  1
" 