6755,Ni78Fe11Cr9_18,-237.113094273115, 185.029161127011,Ni78Fe11Cr9,"# generated using pymatgen
 data_CrFeNi7
_symmetry_space_group_name_H-M   'P 1'
_cell_length_a   7.44839788
_cell_length_b   7.44839788
_cell_length_c   10.53362530
_cell_angle_alpha   90.00000000
_cell_angle_beta   90.00000000
_cell_angle_gamma   90.00000000
_symmetry_Int_Tables_number   1
_chemical_formula_structural   CrFeNi7
_chemical_formula_sum   'Cr6 Fe6 Ni42'
_cell_volume   584.39111077
_cell_formula_units_Z   6
loop_
 _symmetry_equiv_pos_site_id
 _symmetry_equiv_pos_as_xyz
  1  'x, y, z'
loop_
 _atom_site_type_symbol
 _atom_site_label
 _atom_site_symmetry_multiplicity
 _atom_site_fract_x
 _atom_site_fract_y
 _atom_site_fract_z
 _atom_site_occupancy
  Ni  Ni0  1  0.99914261  0.00343002  0.99965729  1
  Cr  Cr1  1  0.16689175  0.16879599  0.16855369  1
  Ni  Ni2  1  0.99957372  1.00119964  0.33564430  1
  Ni  Ni3  1  1.00002967  0.33399515  1.00094704  1
  Fe  Fe4  1  0.16712418  0.50010874  0.16778622  1
  Ni  Ni5  1  1.00114571  0.33487276  0.33404390  1
  Cr  Cr6  1  0.00166323  0.66704811  1.00064764  1
  Cr  Cr7  1  0.16780014  0.83573029  0.16839099  1
  Ni  Ni8  1  0.99813071  0.66768533  0.33413342  1
  Ni  Ni9  1  0.33726200  1.00044437  0.99975609  1
  Fe  Fe10  1  0.50293011  0.16629358  0.16755613  1
  Ni  Ni11  1  0.33621406  0.00271139  0.33615958  1
  Fe  Fe12  1  0.33478218  0.33482468  0.99996017  1
  Ni  Ni13  1  0.50176582  0.50222480  0.16657182  1
  Ni  Ni14  1  0.33437593  0.33309282  0.33381244  1
  Ni  Ni15  1  0.33685143  0.66734892  1.00050021  1
  Ni  Ni16  1  0.50386873  0.83376442  0.16707770  1
  Cr  Cr17  1  0.33583630  0.66810249  0.33484721  1
  Ni  Ni18  1  0.66735606  0.00193350  0.00200798  1
  Ni  Ni19  1  0.83503521  0.16755408  0.16709102  1
  Ni  Ni20  1  0.66797193  0.99969938  0.33395792  1
  Fe  Fe21  1  0.66814766  0.33372954  1.00105535  1
  Ni  Ni22  1  0.83367251  0.50108470  0.16820094  1
  Cr  Cr23  1  0.66810998  0.33419605  0.33532659  1
  Fe  Fe24  1  0.66620675  0.66915478  0.00180991  1
  Ni  Ni25  1  0.83177780  0.83511674  0.16946119  1
  Ni  Ni26  1  0.66974722  0.66951324  0.33375792  1
  Ni  Ni27  1  0.16791006  0.16634612  0.50091830  1
  Ni  Ni28  1  0.00130921  1.00122583  0.66845807  1
  Ni  Ni29  1  0.16709187  0.16819816  0.83451371  1
  Cr  Cr30  1  0.16745796  0.50001558  0.50082918  1
  Ni  Ni31  1  1.00010051  0.33418314  0.66876142  1
  Ni  Ni32  1  0.16952341  0.50028823  0.83490118  1
  Ni  Ni33  1  0.16707771  0.83747278  0.50199682  1
  Ni  Ni34  1  1.00075700  0.66834744  0.66863835  1
  Ni  Ni35  1  0.16850054  0.83526611  0.83375324  1
  Ni  Ni36  1  0.49999784  0.16736047  0.50107717  1
  Ni  Ni37  1  0.33478937  1.00097209  0.66784303  1
  Ni  Ni38  1  0.50108943  0.16839185  0.83528494  1
  Ni  Ni39  1  0.50292189  0.50128216  0.50284228  1
  Ni  Ni40  1  0.33580208  0.33424111  0.66890490  1
  Ni  Ni41  1  0.50019611  0.50163787  0.83433906  1
  Ni  Ni42  1  0.50217707  0.83511323  0.50156260  1
  Ni  Ni43  1  0.33539891  0.66854335  0.66920656  1
  Ni  Ni44  1  0.50102829  0.83372677  0.83511725  1
  Ni  Ni45  1  0.83584760  0.16709380  0.50155006  1
  Ni  Ni46  1  0.66765756  0.00162840  0.66779059  1
  Ni  Ni47  1  0.83557341  0.16737185  0.83511682  1
  Ni  Ni48  1  0.83348661  0.50211417  0.50198000  1
  Ni  Ni49  1  0.66785368  0.33479410  0.66808625  1
  Fe  Fe50  1  0.83431718  0.50029222  0.83316592  1
  Ni  Ni51  1  0.83450035  0.83454744  0.49995728  1
  Ni  Ni52  1  0.66759827  0.66733243  0.66796200  1
  Ni  Ni53  1  0.83422681  0.83616191  0.83433249  1
" 