3419,Ni78Fe11Cr10_10,-237.180078460419, 186.998859320395,Ni78Fe11Cr10,"# generated using pymatgen
 data_CrFeNi7
_symmetry_space_group_name_H-M   'P 1'
_cell_length_a   7.44614545
_cell_length_b   7.44614545
_cell_length_c   10.53043989
_cell_angle_alpha   90.00000000
_cell_angle_beta   90.00000000
_cell_angle_gamma   90.00000000
_symmetry_Int_Tables_number   1
_chemical_formula_structural   CrFeNi7
_chemical_formula_sum   'Cr6 Fe6 Ni42'
_cell_volume   583.86110420
_cell_formula_units_Z   6
loop_
 _symmetry_equiv_pos_site_id
 _symmetry_equiv_pos_as_xyz
  1  'x, y, z'
loop_
 _atom_site_type_symbol
 _atom_site_label
 _atom_site_symmetry_multiplicity
 _atom_site_fract_x
 _atom_site_fract_y
 _atom_site_fract_z
 _atom_site_occupancy
  Ni  Ni0  1  0.00158290  1.00041941  1.00066889  1
  Ni  Ni1  1  0.17039927  0.16806226  0.16852080  1
  Cr  Cr2  1  0.00164846  0.00243153  0.33547519  1
  Cr  Cr3  1  0.00173674  0.33525745  0.00196756  1
  Ni  Ni4  1  0.16709144  0.50164228  0.16889533  1
  Ni  Ni5  1  1.00082293  0.33609175  0.33396416  1
  Ni  Ni6  1  0.00219859  0.66898591  1.00098024  1
  Ni  Ni7  1  0.16990393  0.83450727  0.16702472  1
  Ni  Ni8  1  0.00177971  0.66576220  0.33452721  1
  Ni  Ni9  1  0.33542627  1.00092275  0.00193562  1
  Ni  Ni10  1  0.50051715  0.16653671  0.16755044  1
  Ni  Ni11  1  0.33731670  1.00127782  0.33505067  1
  Ni  Ni12  1  0.33569448  0.33422735  1.00089677  1
  Cr  Cr13  1  0.50117811  0.50100331  0.16773387  1
  Ni  Ni14  1  0.33445825  0.33373751  0.33451818  1
  Ni  Ni15  1  0.33423099  0.66906031  1.00111516  1
  Ni  Ni16  1  0.49999880  0.83704488  0.16868397  1
  Ni  Ni17  1  0.33458830  0.66919605  0.33437846  1
  Ni  Ni18  1  0.66720076  0.00187978  1.00119269  1
  Fe  Fe19  1  0.83346546  0.16923400  0.16781832  1
  Ni  Ni20  1  0.66549006  0.00223200  0.33507271  1
  Ni  Ni21  1  0.66727782  0.33361200  1.00085717  1
  Ni  Ni22  1  0.83583520  0.50112072  0.16914218  1
  Fe  Fe23  1  0.66846217  0.33391890  0.33587767  1
  Ni  Ni24  1  0.66778166  0.66871903  0.99984210  1
  Cr  Cr25  1  0.83436057  0.83372754  0.16619422  1
  Fe  Fe26  1  0.66807730  0.66804166  0.33627005  1
  Ni  Ni27  1  0.16917270  0.16660964  0.50225512  1
  Ni  Ni28  1  0.00226059  0.00164024  0.66776991  1
  Ni  Ni29  1  0.16839917  0.16717224  0.83343621  1
  Cr  Cr30  1  0.16827198  0.50119241  0.50137462  1
  Ni  Ni31  1  1.00098359  0.33367310  0.66826778  1
  Ni  Ni32  1  0.16941553  0.50181345  0.83440077  1
  Ni  Ni33  1  0.16797160  0.83615326  0.50206925  1
  Ni  Ni34  1  1.00098866  0.66889710  0.66870330  1
  Ni  Ni35  1  0.16772878  0.83522556  0.83511815  1
  Ni  Ni36  1  0.50073305  0.16927444  0.50059040  1
  Fe  Fe37  1  0.33243127  1.00139712  0.66794420  1
  Fe  Fe38  1  0.50085042  0.16924385  0.83595794  1
  Ni  Ni39  1  0.50339541  0.50067737  0.50160970  1
  Ni  Ni40  1  0.33516510  0.33493479  0.66879579  1
  Ni  Ni41  1  0.50169885  0.50157171  0.83470260  1
  Fe  Fe42  1  0.50094948  0.83421225  0.50036763  1
  Ni  Ni43  1  0.33534872  0.66782452  0.66872155  1
  Ni  Ni44  1  0.50111636  0.83319425  0.83581949  1
  Ni  Ni45  1  0.83430177  0.16884220  0.50075751  1
  Cr  Cr46  1  0.66908492  1.00125588  0.66814854  1
  Ni  Ni47  1  0.83512565  0.16775565  0.83521422  1
  Ni  Ni48  1  0.83240976  0.50187743  0.50135295  1
  Ni  Ni49  1  0.66806139  0.33620713  0.66757846  1
  Ni  Ni50  1  0.83309639  0.50224265  0.83371469  1
  Ni  Ni51  1  0.83507169  0.83349060  0.50180387  1
  Ni  Ni52  1  0.66787165  0.66654770  0.66750486  1
  Ni  Ni53  1  0.83536345  0.83421306  0.83565812  1
" 