7644,Ni78Fe22_11,-232.99731169416, 179.93653745422,Ni78Fe22,"# generated using pymatgen
 data_Fe7Ni2
_symmetry_space_group_name_H-M   'P 1'
_cell_length_a   7.39989670
_cell_length_b   7.39989670
_cell_length_c   10.46503427
_cell_angle_alpha   90.00000000
_cell_angle_beta   90.00000000
_cell_angle_gamma   90.00000000
_symmetry_Int_Tables_number   1
_chemical_formula_structural   Fe7Ni2
_chemical_formula_sum   'Fe42 Ni12'
_cell_volume   573.04927776
_cell_formula_units_Z   6
loop_
 _symmetry_equiv_pos_site_id
 _symmetry_equiv_pos_as_xyz
  1  'x, y, z'
loop_
 _atom_site_type_symbol
 _atom_site_label
 _atom_site_symmetry_multiplicity
 _atom_site_fract_x
 _atom_site_fract_y
 _atom_site_fract_z
 _atom_site_occupancy
  Ni  Ni0  1  0.00490839  0.00485994  0.00455079  1
  Fe  Fe1  1  0.17075000  0.17165942  0.17089869  1
  Fe  Fe2  1  1.00369419  1.00421183  0.33751621  1
  Ni  Ni3  1  1.00410378  0.33705775  0.00454944  1
  Ni  Ni4  1  0.16996552  0.50626760  0.17128821  1
  Fe  Fe5  1  1.00351306  0.33897669  0.33710577  1
  Ni  Ni6  1  0.00584013  0.67169525  0.00484143  1
  Ni  Ni7  1  0.17129348  0.83656485  0.17118095  1
  Fe  Fe8  1  1.00366728  0.67042442  0.33686713  1
  Fe  Fe9  1  0.33639420  1.00397154  0.00502097  1
  Ni  Ni10  1  0.50526664  0.17078198  0.17100517  1
  Fe  Fe11  1  0.33912366  0.00462190  0.33764467  1
  Fe  Fe12  1  0.33622144  0.33835434  0.00493539  1
  Fe  Fe13  1  0.50423723  0.50483330  0.17161301  1
  Fe  Fe14  1  0.33897710  0.33824098  0.33764429  1
  Ni  Ni15  1  0.33751396  0.67169606  0.00506453  1
  Fe  Fe16  1  0.50397249  0.83678608  0.17128820  1
  Fe  Fe17  1  0.33840819  0.67074836  0.33710708  1
  Fe  Fe18  1  0.67214154  1.00447500  1.00427894  1
  Fe  Fe19  1  0.83871201  0.17192620  0.17042354  1
  Fe  Fe20  1  0.67079524  0.00477977  0.33780044  1
  Fe  Fe21  1  0.67246403  0.33800160  0.00460629  1
  Ni  Ni22  1  0.83878143  0.50454138  0.17089059  1
  Ni  Ni23  1  0.67100840  0.33848117  0.33782927  1
  Fe  Fe24  1  0.67253085  0.67113431  0.00514819  1
  Fe  Fe25  1  0.83859323  0.83715005  0.17113467  1
  Ni  Ni26  1  0.67060967  0.67018969  0.33794761  1
  Fe  Fe27  1  0.17120122  0.17103285  0.50470670  1
  Fe  Fe28  1  1.00375497  0.00531786  0.67181511  1
  Fe  Fe29  1  0.17015523  0.17111822  0.83800637  1
  Fe  Fe30  1  0.17128865  0.50453775  0.50425220  1
  Fe  Fe31  1  1.00389750  0.33763328  0.67190160  1
  Fe  Fe32  1  0.17059420  0.50423745  0.83896469  1
  Fe  Fe33  1  0.17120285  0.83804132  0.50416579  1
  Fe  Fe34  1  1.00408178  0.67066047  0.67148917  1
  Fe  Fe35  1  0.17050929  0.83825701  0.83896068  1
  Fe  Fe36  1  0.50485016  0.17168818  0.50399433  1
  Fe  Fe37  1  0.33849835  0.00507872  0.67094600  1
  Fe  Fe38  1  0.50534436  0.17144766  0.83791730  1
  Fe  Fe39  1  0.50525868  0.50437904  0.50455716  1
  Fe  Fe40  1  0.33835261  0.33787097  0.67103239  1
  Fe  Fe41  1  0.50508088  0.50408102  0.83744301  1
  Fe  Fe42  1  0.50469019  0.83754401  0.50446976  1
  Fe  Fe43  1  0.33840930  0.67066202  0.67174947  1
  Fe  Fe44  1  0.50483878  0.83808433  0.83785558  1
  Fe  Fe45  1  0.83755982  0.17160299  0.50533655  1
  Fe  Fe46  1  0.67135792  0.00526130  0.67153084  1
  Ni  Ni47  1  0.83737872  0.17140883  0.83767714  1
  Fe  Fe48  1  0.83706301  0.50437757  0.50375631  1
  Ni  Ni49  1  0.67111430  0.33757250  0.67093992  1
  Fe  Fe50  1  0.83793768  0.50372933  0.83839625  1
  Fe  Fe51  1  0.83771762  0.83763048  0.50438239  1
  Fe  Fe52  1  0.67112096  0.67080525  0.67049020  1
  Fe  Fe53  1  0.83826734  0.83852161  0.83809508  1
" 