1148,Ni78Cr22_9,-207.813089717391, 156.52974520277,Ni78Cr22,"# generated using pymatgen
 data_Cr7Ni2
_symmetry_space_group_name_H-M   'P 1'
_cell_length_a   7.57866788
_cell_length_b   7.57866788
_cell_length_c   10.71785490
_cell_angle_alpha   90.00000000
_cell_angle_beta   90.00000000
_cell_angle_gamma   90.00000000
_symmetry_Int_Tables_number   1
_chemical_formula_structural   Cr7Ni2
_chemical_formula_sum   'Cr42 Ni12'
_cell_volume   615.59293137
_cell_formula_units_Z   6
loop_
 _symmetry_equiv_pos_site_id
 _symmetry_equiv_pos_as_xyz
  1  'x, y, z'
loop_
 _atom_site_type_symbol
 _atom_site_label
 _atom_site_symmetry_multiplicity
 _atom_site_fract_x
 _atom_site_fract_y
 _atom_site_fract_z
 _atom_site_occupancy
  Cr  Cr0  1  0.98954834  0.99070688  0.99163907  1
  Cr  Cr1  1  0.15796541  0.15790316  0.16007074  1
  Ni  Ni2  1  0.99063071  -0.00571344  0.32737917  1
  Cr  Cr3  1  0.99202961  0.32582391  0.99102013  1
  Cr  Cr4  1  0.15691501  0.49342930  0.15841128  1
  Cr  Cr5  1  0.98980737  0.32328016  0.32836963  1
  Ni  Ni6  1  0.98819840  0.66143688  0.99122488  1
  Cr  Cr7  1  0.15705696  0.82658499  0.16091723  1
  Cr  Cr8  1  0.99167171  0.66154284  0.32655975  1
  Cr  Cr9  1  0.32714557  -0.00732329  0.99094312  1
  Cr  Cr10  1  0.49376655  0.15754827  0.15727394  1
  Cr  Cr11  1  0.32589725  0.99237519  0.32661364  1
  Cr  Cr12  1  0.32750604  0.32703831  -0.00565561  1
  Ni  Ni13  1  0.49454313  0.49489083  0.15771506  1
  Cr  Cr14  1  0.32885692  0.32795705  0.32264199  1
  Cr  Cr15  1  0.32699449  0.65825219  -0.00648272  1
  Cr  Cr16  1  0.49527458  0.82587145  0.15808320  1
  Cr  Cr17  1  0.32803339  0.65773199  0.32599901  1
  Ni  Ni18  1  0.66120924  0.98829050  0.99101510  1
  Cr  Cr19  1  0.82631558  0.15729737  0.16019644  1
  Cr  Cr20  1  0.66274092  -0.00599059  0.32688552  1
  Cr  Cr21  1  0.65818492  0.32578620  -0.00505215  1
  Cr  Cr22  1  0.82530398  0.49506552  0.15722758  1
  Cr  Cr23  1  0.65896920  0.32586321  0.32579650  1
  Ni  Ni24  1  0.66155577  0.66167290  0.99228396  1
  Cr  Cr25  1  0.82578571  0.82551986  0.15725983  1
  Cr  Cr26  1  0.65800600  0.65802690  0.32543121  1
  Cr  Cr27  1  0.15796164  0.15893035  0.49294546  1
  Cr  Cr28  1  0.99048218  0.99260576  0.65908265  1
  Cr  Cr29  1  0.15979643  0.15975900  0.82436476  1
  Cr  Cr30  1  0.15710659  0.49148004  0.49386353  1
  Ni  Ni31  1  0.98797094  0.32375489  0.65794797  1
  Cr  Cr32  1  0.15567819  0.49207493  0.82589370  1
  Cr  Cr33  1  0.16019002  0.82774880  0.49058650  1
  Cr  Cr34  1  0.99074642  0.66066623  0.66098317  1
  Cr  Cr35  1  0.15854998  0.82597397  0.82642784  1
  Cr  Cr36  1  0.49515709  0.15796308  0.49614175  1
  Ni  Ni37  1  0.32817339  -0.00702241  0.65915810  1
  Cr  Cr38  1  0.49474944  0.15690222  0.82429407  1
  Cr  Cr39  1  0.49548464  0.49279135  0.49443830  1
  Cr  Cr40  1  0.32605302  0.32596200  0.66065608  1
  Cr  Cr41  1  0.49682886  0.49339347  0.82509471  1
  Cr  Cr42  1  0.49407092  0.82738481  0.49593698  1
  Cr  Cr43  1  0.32675333  0.66098358  0.65818989  1
  Cr  Cr44  1  0.49690180  0.82750205  0.82376714  1
  Ni  Ni45  1  0.82569566  0.15854591  0.49513913  1
  Ni  Ni46  1  0.66077080  0.99255419  0.65970957  1
  Cr  Cr47  1  0.82303132  0.15900843  0.82447483  1
  Cr  Cr48  1  0.82509548  0.49047098  0.49598143  1
  Ni  Ni49  1  0.66305898  0.32413333  0.65776223  1
  Cr  Cr50  1  0.82500700  0.49492757  0.82513103  1
  Cr  Cr51  1  0.82410807  0.82692528  0.49240530  1
  Ni  Ni52  1  0.66118914  0.66103467  0.66072280  1
  Ni  Ni53  1  0.82181404  0.82501508  0.82747173  1
" 