4839,Ni78Cr22_6,-207.921682329569, 160.471203227789,Ni78Cr22,"# generated using pymatgen
 data_Cr7Ni2
_symmetry_space_group_name_H-M   'P 1'
_cell_length_a   7.57599478
_cell_length_b   7.57599478
_cell_length_c   10.71407457
_cell_angle_alpha   90.00000000
_cell_angle_beta   90.00000000
_cell_angle_gamma   90.00000000
_symmetry_Int_Tables_number   1
_chemical_formula_structural   Cr7Ni2
_chemical_formula_sum   'Cr42 Ni12'
_cell_volume   614.94177755
_cell_formula_units_Z   6
loop_
 _symmetry_equiv_pos_site_id
 _symmetry_equiv_pos_as_xyz
  1  'x, y, z'
loop_
 _atom_site_type_symbol
 _atom_site_label
 _atom_site_symmetry_multiplicity
 _atom_site_fract_x
 _atom_site_fract_y
 _atom_site_fract_z
 _atom_site_occupancy
  Ni  Ni0  1  0.99228778  0.99278330  -0.00661339  1
  Cr  Cr1  1  0.15778271  0.15796101  0.16107628  1
  Ni  Ni2  1  0.98924257  -0.00596488  0.32561307  1
  Cr  Cr3  1  -0.00682033  0.32731330  0.99104482  1
  Cr  Cr4  1  0.15789527  0.49093144  0.16227849  1
  Ni  Ni5  1  0.98929100  0.32423304  0.32600739  1
  Cr  Cr6  1  0.99136494  0.65890567  -0.00587457  1
  Cr  Cr7  1  0.15542346  0.82970045  0.16062023  1
  Cr  Cr8  1  0.99035209  0.65890894  0.32393660  1
  Cr  Cr9  1  0.32392795  -0.00693017  0.99053915  1
  Cr  Cr10  1  0.49195295  0.16024189  0.15840471  1
  Cr  Cr11  1  0.32790100  0.99033916  0.32816030  1
  Cr  Cr12  1  0.32323217  0.32698673  0.98937445  1
  Cr  Cr13  1  0.49527703  0.49262706  0.15785102  1
  Cr  Cr14  1  0.32534556  0.32734698  0.32587051  1
  Cr  Cr15  1  0.32413375  0.65851818  -0.00664940  1
  Cr  Cr16  1  0.49402325  0.82571804  0.15768435  1
  Cr  Cr17  1  0.32694922  0.66105748  0.32700562  1
  Cr  Cr18  1  0.66272134  0.99065284  -0.00577818  1
  Cr  Cr19  1  0.82902448  0.15823081  0.16098627  1
  Cr  Cr20  1  0.66143415  0.99097828  0.32849107  1
  Cr  Cr21  1  0.66277127  0.32779922  -0.00554492  1
  Ni  Ni22  1  0.82688327  0.49493616  0.15947534  1
  Cr  Cr23  1  0.66354678  0.32630155  0.32583687  1
  Ni  Ni24  1  0.66316640  0.65980923  -0.00426465  1
  Ni  Ni25  1  0.82755684  0.82561194  0.15787501  1
  Cr  Cr26  1  0.66072211  0.66113750  0.32413899  1
  Cr  Cr27  1  0.15605345  0.15935080  0.48924579  1
  Cr  Cr28  1  0.99246088  -0.00580194  0.66021852  1
  Ni  Ni29  1  0.15696426  0.16006655  0.82801980  1
  Cr  Cr30  1  0.15704424  0.49269070  0.49212158  1
  Cr  Cr31  1  -0.00656833  0.32672767  0.66080399  1
  Ni  Ni32  1  0.15761971  0.49281760  0.82437528  1
  Cr  Cr33  1  0.15741049  0.82636834  0.49179804  1
  Ni  Ni34  1  0.99136851  0.65833929  0.66117403  1
  Cr  Cr35  1  0.15584787  0.82657720  0.82620721  1
  Cr  Cr36  1  0.49377129  0.16030959  0.49206646  1
  Cr  Cr37  1  0.32650155  -0.00703429  0.65942708  1
  Cr  Cr38  1  0.49308211  0.15960303  0.82782438  1
  Cr  Cr39  1  0.49434386  0.49462032  0.49406138  1
  Cr  Cr40  1  0.32347582  0.32575826  0.66334296  1
  Cr  Cr41  1  0.49527958  0.49480640  0.82631128  1
  Ni  Ni42  1  0.49511057  0.82439494  0.49452698  1
  Cr  Cr43  1  0.32369282  0.66004658  0.65806865  1
  Cr  Cr44  1  0.49594121  0.82380043  0.82558661  1
  Ni  Ni45  1  0.82943488  0.15894335  0.48997262  1
  Cr  Cr46  1  0.65963283  0.99256321  0.65576721  1
  Cr  Cr47  1  0.82744334  0.15737104  0.82634666  1
  Cr  Cr48  1  0.82717592  0.49215725  0.49458065  1
  Cr  Cr49  1  0.66182396  0.32390453  0.65783927  1
  Cr  Cr50  1  0.82471705  0.49627504  0.82429737  1
  Cr  Cr51  1  0.82806898  0.82548364  0.49533687  1
  Ni  Ni52  1  0.66063720  0.66096477  0.65824478  1
  Cr  Cr53  1  0.82600135  0.82448495  0.82661353  1
" 