6544,Ni78Cr22_7,-207.957477545116, 161.092086901123,Ni78Cr22,"# generated using pymatgen
 data_Cr7Ni2
_symmetry_space_group_name_H-M   'P 1'
_cell_length_a   7.57544226
_cell_length_b   7.57544226
_cell_length_c   10.71329319
_cell_angle_alpha   90.00000000
_cell_angle_beta   90.00000000
_cell_angle_gamma   90.00000000
_symmetry_Int_Tables_number   1
_chemical_formula_structural   Cr7Ni2
_chemical_formula_sum   'Cr42 Ni12'
_cell_volume   614.80724343
_cell_formula_units_Z   6
loop_
 _symmetry_equiv_pos_site_id
 _symmetry_equiv_pos_as_xyz
  1  'x, y, z'
loop_
 _atom_site_type_symbol
 _atom_site_label
 _atom_site_symmetry_multiplicity
 _atom_site_fract_x
 _atom_site_fract_y
 _atom_site_fract_z
 _atom_site_occupancy
  Cr  Cr0  1  -0.00589917  -0.00667265  0.99261770  1
  Cr  Cr1  1  0.16136470  0.16195410  0.15693372  1
  Cr  Cr2  1  -0.00603764  -0.00677474  0.32788026  1
  Cr  Cr3  1  -0.00578792  0.32741835  -0.00700244  1
  Ni  Ni4  1  0.16203641  0.49248354  0.15946418  1
  Cr  Cr5  1  -0.00592132  0.32619779  0.32618362  1
  Cr  Cr6  1  0.99217213  0.65770943  -0.00679547  1
  Cr  Cr7  1  0.15975753  0.82335593  0.16019348  1
  Cr  Cr8  1  -0.00537170  0.65909558  0.32560953  1
  Cr  Cr9  1  0.32706178  -0.00574388  0.99087950  1
  Ni  Ni10  1  0.49262521  0.15978295  0.15941912  1
  Cr  Cr11  1  0.32614647  0.99206245  0.32797543  1
  Ni  Ni12  1  0.32508717  0.32494752  -0.00599429  1
  Cr  Cr13  1  0.48934553  0.49204605  0.16111030  1
  Cr  Cr14  1  0.32510858  0.32640492  0.32526386  1
  Cr  Cr15  1  0.32667105  0.65908218  -0.00635581  1
  Cr  Cr16  1  0.49384939  0.82675144  0.16176682  1
  Ni  Ni17  1  0.32646960  0.65992166  0.32621462  1
  Cr  Cr18  1  0.65730139  0.99212412  -0.00671939  1
  Cr  Cr19  1  0.82376669  0.15725765  0.16088341  1
  Ni  Ni20  1  0.65796356  0.99152141  0.32477753  1
  Cr  Cr21  1  0.65862773  0.32699547  0.99256274  1
  Cr  Cr22  1  0.82706054  0.49384374  0.16007076  1
  Cr  Cr23  1  0.65926328  0.32588678  0.32594128  1
  Cr  Cr24  1  0.65968335  0.65934112  0.99005519  1
  Cr  Cr25  1  0.82504906  0.82736369  0.16135119  1
  Ni  Ni26  1  0.65748694  0.66171207  0.32623755  1
  Ni  Ni27  1  0.15947502  0.15740440  0.49337811  1
  Cr  Cr28  1  -0.00360801  0.99259568  0.65787374  1
  Ni  Ni29  1  0.16054212  0.16073224  0.82696130  1
  Cr  Cr30  1  0.16056965  0.49472679  0.49240036  1
  Cr  Cr31  1  -0.00705253  0.32674706  0.65934300  1
  Cr  Cr32  1  0.15896142  0.49145460  0.82719470  1
  Ni  Ni33  1  0.15935866  0.82602904  0.49292681  1
  Ni  Ni34  1  0.99271228  0.65947433  0.65969515  1
  Cr  Cr35  1  0.15964384  0.82658138  0.82523269  1
  Cr  Cr36  1  0.49307532  0.15945707  0.49189151  1
  Cr  Cr37  1  0.32460684  0.99251466  0.65950806  1
  Cr  Cr38  1  0.49058900  0.15955527  0.82739451  1
  Cr  Cr39  1  0.49213248  0.49409194  0.49134321  1
  Cr  Cr40  1  0.32485886  0.32368423  0.65879693  1
  Cr  Cr41  1  0.49211619  0.49284561  0.82601546  1
  Cr  Cr42  1  0.49254245  0.82498740  0.49068094  1
  Cr  Cr43  1  0.32568877  0.66239919  0.65872057  1
  Ni  Ni44  1  0.49298477  0.82621098  0.82618921  1
  Cr  Cr45  1  0.82619160  0.15801043  0.49156143  1
  Cr  Cr46  1  0.65752864  0.99181206  0.66067557  1
  Cr  Cr47  1  0.82781426  0.16019557  0.82615813  1
  Cr  Cr48  1  0.82588446  0.49432482  0.49423791  1
  Cr  Cr49  1  0.66067988  0.32791900  0.66015695  1
  Ni  Ni50  1  0.82746365  0.49400121  0.82481162  1
  Cr  Cr51  1  0.82692134  0.82613767  0.49134875  1
  Cr  Cr52  1  0.66066546  0.65875034  0.66269491  1
  Cr  Cr53  1  0.82643860  0.82495371  0.82594948  1
" 