3260,Ni78Fe11Cr9_8,-237.068510574959, 184.951773982633,Ni78Fe11Cr9,"# generated using pymatgen
 data_CrFeNi7
_symmetry_space_group_name_H-M   'P 1'
_cell_length_a   7.44642142
_cell_length_b   7.44642142
_cell_length_c   10.53083016
_cell_angle_alpha   90.00000000
_cell_angle_beta   90.00000000
_cell_angle_gamma   90.00000000
_symmetry_Int_Tables_number   1
_chemical_formula_structural   CrFeNi7
_chemical_formula_sum   'Cr6 Fe6 Ni42'
_cell_volume   583.92602327
_cell_formula_units_Z   6
loop_
 _symmetry_equiv_pos_site_id
 _symmetry_equiv_pos_as_xyz
  1  'x, y, z'
loop_
 _atom_site_type_symbol
 _atom_site_label
 _atom_site_symmetry_multiplicity
 _atom_site_fract_x
 _atom_site_fract_y
 _atom_site_fract_z
 _atom_site_occupancy
  Ni  Ni0  1  1.00049961  0.00272498  1.00122089  1
  Ni  Ni1  1  0.16785051  0.16947003  0.16624743  1
  Cr  Cr2  1  0.99814552  0.00222732  0.33343076  1
  Ni  Ni3  1  1.00076079  0.33349691  0.00160888  1
  Ni  Ni4  1  0.16943825  0.50043100  0.16994930  1
  Ni  Ni5  1  1.00073019  0.33677114  0.33438582  1
  Cr  Cr6  1  0.00212204  0.66755670  1.00126828  1
  Ni  Ni7  1  0.16924158  0.83425310  0.16713862  1
  Fe  Fe8  1  1.00039784  0.66530348  0.33379935  1
  Ni  Ni9  1  0.33576350  1.00085375  1.00122837  1
  Ni  Ni10  1  0.50187654  0.16905020  0.16795034  1
  Cr  Cr11  1  0.33767874  0.00168218  0.33384076  1
  Ni  Ni12  1  0.33442940  0.33429742  0.00293844  1
  Ni  Ni13  1  0.50093286  0.50149715  0.16813052  1
  Ni  Ni14  1  0.33478924  0.33770725  0.33452836  1
  Ni  Ni15  1  0.33523053  0.66900428  0.00216897  1
  Ni  Ni16  1  0.50155154  0.83360628  0.16737898  1
  Ni  Ni17  1  0.33571870  0.66526603  0.33382412  1
  Ni  Ni18  1  0.66789134  0.00192589  0.00198938  1
  Ni  Ni19  1  0.83442828  0.16885077  0.16738406  1
  Ni  Ni20  1  0.66863881  1.00118761  0.33469959  1
  Ni  Ni21  1  0.66896502  0.33296181  0.00180990  1
  Ni  Ni22  1  0.83378179  0.50010516  0.16902268  1
  Ni  Ni23  1  0.66863598  0.33460469  0.33526729  1
  Fe  Fe24  1  0.66721064  0.66896387  0.00174541  1
  Ni  Ni25  1  0.83335998  0.83519530  0.16884768  1
  Fe  Fe26  1  0.66754092  0.66747483  0.33540724  1
  Ni  Ni27  1  0.16750389  0.17059412  0.50333343  1
  Ni  Ni28  1  0.00163709  0.00195919  0.66911011  1
  Ni  Ni29  1  0.16763733  0.16735217  0.83457304  1
  Fe  Fe30  1  0.16790636  0.49979146  0.50157862  1
  Ni  Ni31  1  0.00190847  0.33539283  0.66816097  1
  Ni  Ni32  1  0.16734785  0.50059075  0.83297598  1
  Cr  Cr33  1  0.16833410  0.83474095  0.50351500  1
  Ni  Ni34  1  1.00027362  0.66680344  0.66834117  1
  Ni  Ni35  1  0.16896418  0.83621151  0.83354356  1
  Fe  Fe36  1  0.50195232  0.16943059  0.50107429  1
  Ni  Ni37  1  0.33434756  0.00183853  0.66896220  1
  Ni  Ni38  1  0.50015870  0.16720120  0.83488163  1
  Ni  Ni39  1  0.50196011  0.50185036  0.50129421  1
  Ni  Ni40  1  0.33300355  0.33444164  0.66668882  1
  Cr  Cr41  1  0.50161873  0.50164802  0.83531598  1
  Ni  Ni42  1  0.50257522  0.83212136  0.50148546  1
  Ni  Ni43  1  0.33475950  0.66787512  0.66816438  1
  Ni  Ni44  1  0.49996526  0.83523049  0.83528964  1
  Ni  Ni45  1  0.83570327  0.16997711  0.50116614  1
  Cr  Cr46  1  0.66802998  1.00076232  0.66748963  1
  Ni  Ni47  1  0.83635860  0.16881951  0.83560562  1
  Ni  Ni48  1  0.83335639  0.50071929  0.50173169  1
  Fe  Fe49  1  0.66921106  0.33602960  0.66736417  1
  Ni  Ni50  1  0.83537774  0.50039497  0.83340018  1
  Ni  Ni51  1  0.83294221  0.83345571  0.50134405  1
  Ni  Ni52  1  0.66912020  0.66814714  0.66722694  1
  Ni  Ni53  1  0.83522510  0.83494001  0.83396017  1
" 