5777,Ni78Cr22_13,-207.836894203261, 157.755710832229,Ni78Cr22,"# generated using pymatgen
 data_Cr7Ni2
_symmetry_space_group_name_H-M   'P 1'
_cell_length_a   7.57684323
_cell_length_b   7.57684323
_cell_length_c   10.71527445
_cell_angle_alpha   90.00000000
_cell_angle_beta   90.00000000
_cell_angle_gamma   90.00000000
_symmetry_Int_Tables_number   1
_chemical_formula_structural   Cr7Ni2
_chemical_formula_sum   'Cr42 Ni12'
_cell_volume   615.14840408
_cell_formula_units_Z   6
loop_
 _symmetry_equiv_pos_site_id
 _symmetry_equiv_pos_as_xyz
  1  'x, y, z'
loop_
 _atom_site_type_symbol
 _atom_site_label
 _atom_site_symmetry_multiplicity
 _atom_site_fract_x
 _atom_site_fract_y
 _atom_site_fract_z
 _atom_site_occupancy
  Ni  Ni0  1  -0.00579088  0.99073771  0.99136812  1
  Cr  Cr1  1  0.15963415  0.15725341  0.15806397  1
  Cr  Cr2  1  -0.00694014  -0.00469683  0.32814010  1
  Cr  Cr3  1  -0.00643821  0.32405963  0.99143827  1
  Cr  Cr4  1  0.15837232  0.49377002  0.15901688  1
  Cr  Cr5  1  -0.00683550  0.32397048  0.32909752  1
  Ni  Ni6  1  0.99175767  0.66074518  0.99148297  1
  Cr  Cr7  1  0.15860657  0.82741129  0.15918227  1
  Cr  Cr8  1  -0.00715270  0.65967248  0.32665144  1
  Cr  Cr9  1  0.32594900  0.99175434  0.99140991  1
  Cr  Cr10  1  0.49326820  0.15777297  0.16147743  1
  Ni  Ni11  1  0.32888644  -0.00601499  0.32775957  1
  Cr  Cr12  1  0.32502813  0.32451107  0.99227366  1
  Cr  Cr13  1  0.49257916  0.49120386  0.16008170  1
  Cr  Cr14  1  0.32452989  0.32326316  0.32679460  1
  Cr  Cr15  1  0.32789547  0.66178214  -0.00576863  1
  Ni  Ni16  1  0.49273145  0.82999833  0.16210891  1
  Cr  Cr17  1  0.32718921  0.66250383  0.32384318  1
  Cr  Cr18  1  0.65800171  0.99019939  -0.00638085  1
  Cr  Cr19  1  0.82520155  0.15703686  0.15902536  1
  Ni  Ni20  1  0.65621743  -0.00562097  0.32757360  1
  Cr  Cr21  1  0.65967524  0.32633141  0.99164860  1
  Cr  Cr22  1  0.82715283  0.49302100  0.15787816  1
  Cr  Cr23  1  0.66048242  0.32346026  0.32781878  1
  Cr  Cr24  1  0.65795798  0.66096363  0.99144752  1
  Cr  Cr25  1  0.82681154  0.82805202  0.15931758  1
  Cr  Cr26  1  0.65828896  0.66275414  0.32476677  1
  Ni  Ni27  1  0.16242495  0.15630013  0.49294379  1
  Cr  Cr28  1  -0.00516407  -0.00371978  0.65793965  1
  Ni  Ni29  1  0.15893936  0.15660664  0.82556702  1
  Cr  Cr30  1  0.16088018  0.49328142  0.49199511  1
  Cr  Cr31  1  -0.00712790  0.32382902  0.65785385  1
  Cr  Cr32  1  0.15854640  0.49284998  0.82682575  1
  Cr  Cr33  1  0.16109386  0.82788268  0.49318184  1
  Cr  Cr34  1  0.99181848  0.65937355  0.65907577  1
  Cr  Cr35  1  0.15919731  0.82832709  0.82533266  1
  Ni  Ni36  1  0.49155375  0.15546241  0.49170841  1
  Ni  Ni37  1  0.32617984  -0.00424865  0.65907160  1
  Cr  Cr38  1  0.49065952  0.15801687  0.82482995  1
  Cr  Cr39  1  0.49226932  0.48973070  0.49325071  1
  Cr  Cr40  1  0.32373630  0.32219189  0.65842691  1
  Cr  Cr41  1  0.49360041  0.49167093  0.82491961  1
  Cr  Cr42  1  0.49202363  0.82815631  0.49301005  1
  Cr  Cr43  1  0.32750949  0.66343302  0.66045738  1
  Ni  Ni44  1  0.49109965  0.82835555  0.82497515  1
  Ni  Ni45  1  0.82445211  0.15790534  0.49143299  1
  Cr  Cr46  1  0.65775356  -0.00720366  0.65845463  1
  Cr  Cr47  1  0.82695532  0.15862130  0.82821029  1
  Cr  Cr48  1  0.82513346  0.49307532  0.49368501  1
  Cr  Cr49  1  0.66151738  0.32450659  0.65892721  1
  Ni  Ni50  1  0.82828837  0.49353510  0.82754222  1
  Cr  Cr51  1  0.82538898  0.82834197  0.49174525  1
  Cr  Cr52  1  0.65949107  0.66038400  0.66281421  1
  Cr  Cr53  1  0.82746385  0.82618293  0.82705003  1
" 