5898,Ni78Fe11Cr9_10,-237.057306401471, 184.62972949945,Ni78Fe11Cr9,"# generated using pymatgen
 data_CrFeNi7
_symmetry_space_group_name_H-M   'P 1'
_cell_length_a   7.44631976
_cell_length_b   7.44631976
_cell_length_c   10.53068640
_cell_angle_alpha   90.00000000
_cell_angle_beta   90.00000000
_cell_angle_gamma   90.00000000
_symmetry_Int_Tables_number   1
_chemical_formula_structural   CrFeNi7
_chemical_formula_sum   'Cr6 Fe6 Ni42'
_cell_volume   583.90210850
_cell_formula_units_Z   6
loop_
 _symmetry_equiv_pos_site_id
 _symmetry_equiv_pos_as_xyz
  1  'x, y, z'
loop_
 _atom_site_type_symbol
 _atom_site_label
 _atom_site_symmetry_multiplicity
 _atom_site_fract_x
 _atom_site_fract_y
 _atom_site_fract_z
 _atom_site_occupancy
  Ni  Ni0  1  0.00321522  0.00221257  1.00027877  1
  Ni  Ni1  1  0.16873729  0.16974039  0.16613305  1
  Cr  Cr2  1  1.00060325  1.00018624  0.33500169  1
  Ni  Ni3  1  0.00142039  0.33299133  0.00141849  1
  Ni  Ni4  1  0.16941868  0.50009989  0.16982830  1
  Ni  Ni5  1  0.00230285  0.33743177  0.33529422  1
  Cr  Cr6  1  1.00015792  0.66865017  0.00242227  1
  Ni  Ni7  1  0.16948398  0.83433519  0.16691081  1
  Ni  Ni8  1  1.00127961  0.66640537  0.33459426  1
  Ni  Ni9  1  0.33443417  0.00157602  1.00084875  1
  Fe  Fe10  1  0.50074078  0.16860495  0.16791303  1
  Cr  Cr11  1  0.33641517  0.00157163  0.33550699  1
  Fe  Fe12  1  0.33537567  0.33341091  0.00232785  1
  Ni  Ni13  1  0.50100743  0.50238993  0.16799828  1
  Ni  Ni14  1  0.33485359  0.33627278  0.33406332  1
  Fe  Fe15  1  0.33739448  0.66952264  0.00226219  1
  Ni  Ni16  1  0.50190919  0.83301179  0.16759060  1
  Ni  Ni17  1  0.33472076  0.66641057  0.33405579  1
  Ni  Ni18  1  0.66652511  1.00055339  1.00124053  1
  Cr  Cr19  1  0.83498309  0.16847289  0.16798234  1
  Ni  Ni20  1  0.66701534  1.00046926  0.33497353  1
  Ni  Ni21  1  0.66730127  0.33567060  1.00002048  1
  Ni  Ni22  1  0.83375012  0.50164146  0.16866588  1
  Ni  Ni23  1  0.66701928  0.33562680  0.33578496  1
  Ni  Ni24  1  0.66666194  0.66795085  1.00104086  1
  Ni  Ni25  1  0.83278321  0.83369525  0.16827320  1
  Ni  Ni26  1  0.66817530  0.66807853  0.33451797  1
  Ni  Ni27  1  0.16766551  0.16911482  0.50311019  1
  Ni  Ni28  1  0.00331797  1.00112427  0.66884674  1
  Ni  Ni29  1  0.16673294  0.16612058  0.83493137  1
  Fe  Fe30  1  0.16811422  0.50139587  0.50103050  1
  Ni  Ni31  1  1.00128334  0.33374565  0.66746502  1
  Cr  Cr32  1  0.16888723  0.50032810  0.83355563  1
  Ni  Ni33  1  0.16834524  0.83414370  0.50329907  1
  Ni  Ni34  1  1.00128218  0.66930660  0.66714140  1
  Ni  Ni35  1  0.16921443  0.83812880  0.83396517  1
  Ni  Ni36  1  0.50125133  0.16995107  0.50087537  1
  Fe  Fe37  1  0.33259742  1.00114620  0.66814198  1
  Fe  Fe38  1  0.50133395  0.16863177  0.83524573  1
  Ni  Ni39  1  0.50183716  0.50141121  0.50154565  1
  Ni  Ni40  1  0.33529123  0.33439362  0.66742852  1
  Ni  Ni41  1  0.50358915  0.50221972  0.83462915  1
  Ni  Ni42  1  0.50106320  0.83281392  0.50106391  1
  Ni  Ni43  1  0.33516143  0.66852697  0.66767400  1
  Ni  Ni44  1  0.50078011  0.83302565  0.83552057  1
  Ni  Ni45  1  0.83525789  0.16988848  0.50129533  1
  Cr  Cr46  1  0.66840858  1.00137398  0.66766160  1
  Ni  Ni47  1  0.83647409  0.16892757  0.83538395  1
  Ni  Ni48  1  0.83392945  0.50073142  0.50139548  1
  Ni  Ni49  1  0.66760005  0.33642745  0.66837107  1
  Ni  Ni50  1  0.83137541  0.49973789  0.83411422  1
  Ni  Ni51  1  0.83476653  0.83355520  0.50093370  1
  Ni  Ni52  1  0.66773131  0.66649446  0.66861679  1
  Ni  Ni53  1  0.83418173  0.83551003  0.83496767  1
" 