963,Ni78Fe11Cr10_12,-237.10218991696, 183.541068374967,Ni78Fe11Cr10,"# generated using pymatgen
 data_CrFeNi7
_symmetry_space_group_name_H-M   'P 1'
_cell_length_a   7.44945637
_cell_length_b   7.44945637
_cell_length_c   10.53512223
_cell_angle_alpha   90.00000000
_cell_angle_beta   90.00000000
_cell_angle_gamma   90.00000000
_symmetry_Int_Tables_number   1
_chemical_formula_structural   CrFeNi7
_chemical_formula_sum   'Cr6 Fe6 Ni42'
_cell_volume   584.64028948
_cell_formula_units_Z   6
loop_
 _symmetry_equiv_pos_site_id
 _symmetry_equiv_pos_as_xyz
  1  'x, y, z'
loop_
 _atom_site_type_symbol
 _atom_site_label
 _atom_site_symmetry_multiplicity
 _atom_site_fract_x
 _atom_site_fract_y
 _atom_site_fract_z
 _atom_site_occupancy
  Ni  Ni0  1  1.00044408  1.00007485  0.99974387  1
  Ni  Ni1  1  0.16663873  0.16666287  0.17067845  1
  Ni  Ni2  1  1.00046474  0.00121449  0.33491109  1
  Cr  Cr3  1  1.00030239  0.33506417  0.00216028  1
  Ni  Ni4  1  0.16773382  0.50358935  0.16892536  1
  Ni  Ni5  1  0.99974303  0.33571165  0.33318619  1
  Ni  Ni6  1  0.00230070  0.66864000  1.00065930  1
  Ni  Ni7  1  0.16658095  0.83333861  0.16957657  1
  Ni  Ni8  1  0.00192431  0.66656972  0.33527101  1
  Cr  Cr9  1  0.33333278  1.00110527  0.00152390  1
  Ni  Ni10  1  0.50350167  0.16938330  0.17005219  1
  Ni  Ni11  1  0.33502716  1.00077712  0.33420941  1
  Cr  Cr12  1  0.33586354  0.33622183  0.00159347  1
  Ni  Ni13  1  0.50262756  0.50076104  0.16887513  1
  Ni  Ni14  1  0.33519473  0.33539226  0.33320278  1
  Ni  Ni15  1  0.33298361  0.66733023  0.99985028  1
  Cr  Cr16  1  0.50188649  0.83307255  0.16740996  1
  Ni  Ni17  1  0.33337957  0.66725080  0.33560448  1
  Ni  Ni18  1  0.66955650  0.00348105  0.99878372  1
  Ni  Ni19  1  0.83336434  0.16806779  0.16829547  1
  Ni  Ni20  1  0.66794640  0.00305781  0.33641657  1
  Ni  Ni21  1  0.66811036  0.33449650  0.00148179  1
  Ni  Ni22  1  0.83322785  0.50103872  0.16871418  1
  Ni  Ni23  1  0.66873713  0.33402403  0.33436457  1
  Ni  Ni24  1  0.66813136  0.66556875  0.99862735  1
  Cr  Cr25  1  0.83528057  0.83344252  0.16736761  1
  Ni  Ni26  1  0.66811419  0.66615632  0.33700426  1
  Cr  Cr27  1  0.16895873  0.17055310  0.50200367  1
  Fe  Fe28  1  0.99967427  1.00009642  0.66817203  1
  Ni  Ni29  1  0.16801174  0.16613433  0.83122363  1
  Ni  Ni30  1  0.16704730  0.50222829  0.50220297  1
  Ni  Ni31  1  0.99976466  0.33671596  0.66910441  1
  Ni  Ni32  1  0.16724605  0.50338603  0.83267884  1
  Fe  Fe33  1  0.16750481  0.83359020  0.50097804  1
  Ni  Ni34  1  1.00088208  0.66683396  0.66765360  1
  Ni  Ni35  1  0.16612329  0.83373998  0.83305396  1
  Ni  Ni36  1  0.50214756  0.16624759  0.50104289  1
  Ni  Ni37  1  0.33655268  0.99994134  0.66863560  1
  Ni  Ni38  1  0.50286750  0.16777474  0.83260278  1
  Fe  Fe39  1  0.50181096  0.50013648  0.50168550  1
  Ni  Ni40  1  0.33514450  0.33493795  0.66934804  1
  Ni  Ni41  1  0.50311977  0.50126537  0.83281091  1
  Ni  Ni42  1  0.50199762  0.83512900  0.50210514  1
  Ni  Ni43  1  0.33383134  0.66837960  0.66781811  1
  Fe  Fe44  1  0.50071829  0.83238319  0.83290769  1
  Ni  Ni45  1  0.83268189  0.16799382  0.50192127  1
  Ni  Ni46  1  0.66699276  1.00115895  0.66810776  1
  Fe  Fe47  1  0.83429850  0.16923975  0.83352280  1
  Ni  Ni48  1  0.83585582  0.50169959  0.50109109  1
  Ni  Ni49  1  0.66875866  0.33397588  0.66762677  1
  Ni  Ni50  1  0.83325501  0.50337381  0.83383290  1
  Ni  Ni51  1  0.83279039  0.83362152  0.50163153  1
  Ni  Ni52  1  0.66869991  0.66824280  0.66753750  1
  Fe  Fe53  1  0.83462346  0.83348487  0.83396947  1
" 