1657,Ni78Fe22_16,-233.451439641909, 190.005474699165,Ni78Fe22,"# generated using pymatgen
 data_Fe7Ni2
_symmetry_space_group_name_H-M   'P 1'
_cell_length_a   7.39986051
_cell_length_b   7.39986051
_cell_length_c   10.46498309
_cell_angle_alpha   90.00000000
_cell_angle_beta   90.00000000
_cell_angle_gamma   90.00000000
_symmetry_Int_Tables_number   1
_chemical_formula_structural   Fe7Ni2
_chemical_formula_sum   'Fe42 Ni12'
_cell_volume   573.04087008
_cell_formula_units_Z   6
loop_
 _symmetry_equiv_pos_site_id
 _symmetry_equiv_pos_as_xyz
  1  'x, y, z'
loop_
 _atom_site_type_symbol
 _atom_site_label
 _atom_site_symmetry_multiplicity
 _atom_site_fract_x
 _atom_site_fract_y
 _atom_site_fract_z
 _atom_site_occupancy
  Fe  Fe0  1  0.00534282  0.00486362  0.00494941  1
  Ni  Ni1  1  0.17151642  0.17189473  0.17198983  1
  Fe  Fe2  1  0.00467212  1.00424302  0.33763449  1
  Fe  Fe3  1  0.00523106  0.33749311  1.00424126  1
  Ni  Ni4  1  0.17112009  0.50354820  0.17159504  1
  Fe  Fe5  1  0.00495470  0.33832557  0.33784858  1
  Fe  Fe6  1  0.00490638  0.67126123  1.00400393  1
  Fe  Fe7  1  0.17151513  0.83787034  0.17103756  1
  Fe  Fe8  1  0.00461056  0.67104966  0.33808518  1
  Ni  Ni9  1  0.33816670  0.00473265  0.00514436  1
  Fe  Fe10  1  0.50328968  0.17158815  0.17136450  1
  Fe  Fe11  1  0.33873557  1.00432554  0.33709852  1
  Fe  Fe12  1  0.33739416  0.33714441  0.00580711  1
  Fe  Fe13  1  0.50320613  0.50416010  0.17209285  1
  Ni  Ni14  1  0.33682567  0.33837123  0.33747414  1
  Fe  Fe15  1  0.33795869  0.67185281  1.00445422  1
  Fe  Fe16  1  0.50355557  0.83787138  0.17106494  1
  Ni  Ni17  1  0.33813535  0.67018355  0.33685353  1
  Fe  Fe18  1  0.67040511  1.00429774  0.00475275  1
  Fe  Fe19  1  0.83873220  0.17142070  0.17144604  1
  Ni  Ni20  1  0.67184658  1.00414791  0.33679690  1
  Fe  Fe21  1  0.67099539  0.33758005  1.00404608  1
  Fe  Fe22  1  0.83872878  0.50424563  0.17065532  1
  Fe  Fe23  1  0.67010692  0.33841130  0.33795736  1
  Fe  Fe24  1  0.67075487  0.67174163  1.00451099  1
  Fe  Fe25  1  0.83855249  0.83795490  0.17185298  1
  Ni  Ni26  1  0.67092735  0.67241548  0.33798073  1
  Fe  Fe27  1  0.17112075  0.17168574  0.50408884  1
  Fe  Fe28  1  0.00515998  1.00408943  0.67103731  1
  Fe  Fe29  1  0.17120646  0.17112457  0.83849293  1
  Fe  Fe30  1  0.17152934  0.50478023  0.50432981  1
  Ni  Ni31  1  1.00401482  0.33825258  0.67178891  1
  Fe  Fe32  1  0.17094078  0.50539421  0.83752424  1
  Fe  Fe33  1  0.17136566  0.83715162  0.50503117  1
  Ni  Ni34  1  0.00493218  0.67011610  0.67150369  1
  Fe  Fe35  1  0.17147356  0.83710064  0.83755270  1
  Fe  Fe36  1  0.50470813  0.17120486  0.50405896  1
  Fe  Fe37  1  0.33695662  1.00382657  0.67223593  1
  Fe  Fe38  1  0.50500310  0.17094093  0.83819493  1
  Fe  Fe39  1  0.50397346  0.50493704  0.50389070  1
  Fe  Fe40  1  0.33677195  0.33880135  0.67050097  1
  Fe  Fe41  1  0.50494840  0.50525951  0.83763555  1
  Fe  Fe42  1  0.50462136  0.83747877  0.50459535  1
  Ni  Ni43  1  0.33751216  0.67143535  0.67212454  1
  Ni  Ni44  1  0.50440233  0.83829484  0.83719513  1
  Fe  Fe45  1  0.83778864  0.17103844  0.50462387  1
  Fe  Fe46  1  0.67150186  1.00384872  0.67082449  1
  Fe  Fe47  1  0.83740853  0.17147061  0.83754758  1
  Fe  Fe48  1  0.83811226  0.50469462  0.50556757  1
  Fe  Fe49  1  0.67208967  0.33918286  0.67161472  1
  Ni  Ni50  1  0.83840984  0.50441410  0.83736461  1
  Fe  Fe51  1  0.83763577  0.83788652  0.50404634  1
  Fe  Fe52  1  0.67182502  0.67058806  0.67131924  1
  Fe  Fe53  1  0.83754761  0.83715382  0.83771810  1
" 