4196,Ni78Cr22_12,-207.874571438134, 156.582259127168,Ni78Cr22,"# generated using pymatgen
 data_Cr7Ni2
_symmetry_space_group_name_H-M   'P 1'
_cell_length_a   7.57522137
_cell_length_b   7.57522137
_cell_length_c   10.71298079
_cell_angle_alpha   90.00000000
_cell_angle_beta   90.00000000
_cell_angle_gamma   90.00000000
_symmetry_Int_Tables_number   1
_chemical_formula_structural   Cr7Ni2
_chemical_formula_sum   'Cr42 Ni12'
_cell_volume   614.75346213
_cell_formula_units_Z   6
loop_
 _symmetry_equiv_pos_site_id
 _symmetry_equiv_pos_as_xyz
  1  'x, y, z'
loop_
 _atom_site_type_symbol
 _atom_site_label
 _atom_site_symmetry_multiplicity
 _atom_site_fract_x
 _atom_site_fract_y
 _atom_site_fract_z
 _atom_site_occupancy
  Cr  Cr0  1  0.99157913  0.99090890  0.99241715  1
  Cr  Cr1  1  0.16211242  0.15668591  0.15911595  1
  Cr  Cr2  1  0.99186260  -0.00668847  0.32540313  1
  Cr  Cr3  1  0.99075216  0.32635730  -0.00686070  1
  Cr  Cr4  1  0.15853989  0.49546522  0.15863706  1
  Cr  Cr5  1  0.99278877  0.32555273  0.32643743  1
  Ni  Ni6  1  0.98823357  0.65964054  0.99037804  1
  Cr  Cr7  1  0.16021746  0.82641237  0.15822344  1
  Cr  Cr8  1  0.99199167  0.65965365  0.32576219  1
  Ni  Ni9  1  0.32841674  0.99096152  0.99190897  1
  Cr  Cr10  1  0.49359503  0.15753801  0.15850807  1
  Ni  Ni11  1  0.32990426  0.99159685  0.32706406  1
  Cr  Cr12  1  0.32782970  0.32532749  -0.00646815  1
  Cr  Cr13  1  0.49634506  0.49453937  0.15833547  1
  Cr  Cr14  1  0.32626785  0.32587920  0.32609955  1
  Cr  Cr15  1  0.32872826  0.66176956  0.99182335  1
  Cr  Cr16  1  0.49412067  0.82659583  0.16071854  1
  Cr  Cr17  1  0.32877301  0.66090471  0.32815776  1
  Cr  Cr18  1  0.65931683  0.99087836  0.99109690  1
  Cr  Cr19  1  0.82278854  0.15869907  0.16044116  1
  Ni  Ni20  1  0.65571851  0.98959365  0.32793575  1
  Ni  Ni21  1  0.66113999  0.32904170  0.99167659  1
  Cr  Cr22  1  0.82402297  0.49586558  0.15774916  1
  Cr  Cr23  1  0.65945911  0.32613105  0.32508613  1
  Ni  Ni24  1  0.66232157  0.65954652  0.99009204  1
  Cr  Cr25  1  0.82412666  0.82391410  0.15988196  1
  Ni  Ni26  1  0.65806228  0.66327654  0.32711880  1
  Cr  Cr27  1  0.16056870  0.15785111  0.49345932  1
  Cr  Cr28  1  0.98900306  0.99116853  0.66079528  1
  Cr  Cr29  1  0.16100610  0.15854461  0.82628749  1
  Cr  Cr30  1  0.15921290  0.49397562  0.49397446  1
  Cr  Cr31  1  0.99148120  0.32668855  0.65911216  1
  Cr  Cr32  1  0.15787936  0.49397253  0.82576289  1
  Cr  Cr33  1  0.16085130  0.82695862  0.49201775  1
  Cr  Cr34  1  0.99044692  0.66050256  0.66154091  1
  Cr  Cr35  1  0.15903904  0.82598838  0.82835598  1
  Cr  Cr36  1  0.49445729  0.15648743  0.49311300  1
  Cr  Cr37  1  0.32984682  0.98995255  0.66050315  1
  Cr  Cr38  1  0.49337850  0.15831214  0.82711409  1
  Cr  Cr39  1  0.49470558  0.49507719  0.49184983  1
  Cr  Cr40  1  0.32709564  0.32700197  0.65887647  1
  Cr  Cr41  1  0.49541165  0.49339694  0.82795821  1
  Ni  Ni42  1  0.49543443  0.82876136  0.49104944  1
  Cr  Cr43  1  0.32963078  0.66151411  0.65857357  1
  Ni  Ni44  1  0.49640063  0.82688040  0.82697988  1
  Cr  Cr45  1  0.82346706  0.15716217  0.49296931  1
  Ni  Ni46  1  0.65798463  0.98889434  0.66019593  1
  Cr  Cr47  1  0.82412180  0.15949171  0.82498415  1
  Cr  Cr48  1  0.82484538  0.49470544  0.49220712  1
  Cr  Cr49  1  0.66002870  0.32622605  0.66109381  1
  Ni  Ni50  1  0.82492136  0.49607907  0.82935683  1
  Cr  Cr51  1  0.82293904  0.82692723  0.49172248  1
  Cr  Cr52  1  0.65853332  0.66280034  0.66076643  1
  Ni  Ni53  1  0.82273552  0.82307321  0.82708171  1
" 