798,Ni78Fe22_15,-233.131451048761, 185.26126499183,Ni78Fe22,"# generated using pymatgen
 data_Fe7Ni2
_symmetry_space_group_name_H-M   'P 1'
_cell_length_a   7.39899121
_cell_length_b   7.39899121
_cell_length_c   10.46375371
_cell_angle_alpha   90.00000000
_cell_angle_beta   90.00000000
_cell_angle_gamma   90.00000000
_symmetry_Int_Tables_number   1
_chemical_formula_structural   Fe7Ni2
_chemical_formula_sum   'Fe42 Ni12'
_cell_volume   572.83893835
_cell_formula_units_Z   6
loop_
 _symmetry_equiv_pos_site_id
 _symmetry_equiv_pos_as_xyz
  1  'x, y, z'
loop_
 _atom_site_type_symbol
 _atom_site_label
 _atom_site_symmetry_multiplicity
 _atom_site_fract_x
 _atom_site_fract_y
 _atom_site_fract_z
 _atom_site_occupancy
  Fe  Fe0  1  1.00395490  0.00637003  0.00480754  1
  Fe  Fe1  1  0.17055319  0.17150604  0.17098275  1
  Fe  Fe2  1  1.00291110  1.00373265  0.33788961  1
  Ni  Ni3  1  0.00507531  0.33858809  0.00480781  1
  Fe  Fe4  1  0.17064475  0.50480405  0.17107191  1
  Fe  Fe5  1  1.00264411  0.33783636  0.33828160  1
  Fe  Fe6  1  1.00355917  0.67062675  1.00422700  1
  Fe  Fe7  1  0.17075105  0.83782840  0.17023258  1
  Fe  Fe8  1  1.00283248  0.67221854  0.33762414  1
  Fe  Fe9  1  0.33831179  0.00699914  1.00414250  1
  Fe  Fe10  1  0.50594761  0.17027319  0.17019453  1
  Fe  Fe11  1  0.33885457  1.00380253  0.33836417  1
  Ni  Ni12  1  0.33680991  0.33895431  1.00378471  1
  Fe  Fe13  1  0.50530289  0.50496885  0.17088748  1
  Fe  Fe14  1  0.33974308  0.33782290  0.33663052  1
  Fe  Fe15  1  0.33852260  0.67055820  1.00432176  1
  Fe  Fe16  1  0.50629840  0.83838163  0.17161565  1
  Fe  Fe17  1  0.33896936  0.67217783  0.33823348  1
  Ni  Ni18  1  0.67128887  1.00275962  1.00404126  1
  Fe  Fe19  1  0.83715044  0.17006833  0.17145037  1
  Ni  Ni20  1  0.67125409  1.00392112  0.33860577  1
  Ni  Ni21  1  0.67158508  0.33627789  0.00498156  1
  Fe  Fe22  1  0.83775652  0.50489864  0.17111991  1
  Fe  Fe23  1  0.67139362  0.33797897  0.33737019  1
  Fe  Fe24  1  0.67180132  0.66901901  0.00565857  1
  Ni  Ni25  1  0.83793275  0.83795775  0.17060974  1
  Ni  Ni26  1  0.67123225  0.67224359  0.33765415  1
  Fe  Fe27  1  0.16957543  0.17261544  0.50454044  1
  Fe  Fe28  1  0.00475029  0.00502838  0.67121251  1
  Fe  Fe29  1  0.16998587  0.17245094  0.83796058  1
  Fe  Fe30  1  0.16972299  0.50340339  0.50438083  1
  Ni  Ni31  1  0.00498371  0.33869087  0.67142328  1
  Fe  Fe32  1  0.16985964  0.50517750  0.83802481  1
  Fe  Fe33  1  0.16969926  0.83782836  0.50577267  1
  Fe  Fe34  1  1.00386108  0.67038581  0.67211462  1
  Ni  Ni35  1  0.17218501  0.83900060  0.83944296  1
  Fe  Fe36  1  0.50600939  0.17178685  0.50442177  1
  Fe  Fe37  1  0.33666510  0.00504775  0.67159637  1
  Fe  Fe38  1  0.50504603  0.17139595  0.83905398  1
  Fe  Fe39  1  0.50589633  0.50419683  0.50411167  1
  Fe  Fe40  1  0.33802090  0.33781737  0.67193862  1
  Fe  Fe41  1  0.50437792  0.50497322  0.83858584  1
  Fe  Fe42  1  0.50649121  0.83782980  0.50482607  1
  Fe  Fe43  1  0.33662816  0.67113149  0.67155133  1
  Fe  Fe44  1  0.50556145  0.83716980  0.83759686  1
  Ni  Ni45  1  0.83753358  0.17208651  0.50439585  1
  Fe  Fe46  1  0.67246581  0.00582747  0.67087767  1
  Fe  Fe47  1  0.83892147  0.17149810  0.83777145  1
  Ni  Ni48  1  0.83752689  0.50416138  0.50333424  1
  Fe  Fe49  1  0.67326898  0.33852032  0.67185983  1
  Ni  Ni50  1  0.83700753  0.50328928  0.83908928  1
  Fe  Fe51  1  0.83755522  0.83797584  0.50336640  1
  Fe  Fe52  1  0.67316179  0.66931873  0.67028762  1
  Fe  Fe53  1  0.83850551  0.83716538  0.83921894  1
" 