3619,Ni78Fe2Cr18_15,-231.839855579329, 156.887976319461,Ni78Fe2Cr18,"# generated using pymatgen
 data_Cr11FeNi42
_symmetry_space_group_name_H-M   'P 1'
_cell_length_a   7.47291360
_cell_length_b   7.47291360
_cell_length_c   10.56829576
_cell_angle_alpha   90.00000000
_cell_angle_beta   90.00000000
_cell_angle_gamma   90.00000000
_symmetry_Int_Tables_number   1
_chemical_formula_structural   Cr11FeNi42
_chemical_formula_sum   'Cr11 Fe1 Ni42'
_cell_volume   590.18053349
_cell_formula_units_Z   1
loop_
 _symmetry_equiv_pos_site_id
 _symmetry_equiv_pos_as_xyz
  1  'x, y, z'
loop_
 _atom_site_type_symbol
 _atom_site_label
 _atom_site_symmetry_multiplicity
 _atom_site_fract_x
 _atom_site_fract_y
 _atom_site_fract_z
 _atom_site_occupancy
  Ni  Ni0  1  0.00106396  0.00009231  -0.00008565  1
  Ni  Ni1  1  0.16564409  0.16489704  0.16579217  1
  Ni  Ni2  1  0.00161672  0.99843487  0.33256234  1
  Ni  Ni3  1  -0.00038924  0.33279219  -0.00038055  1
  Ni  Ni4  1  0.16432060  0.49978094  0.16648843  1
  Ni  Ni5  1  0.99924138  0.33297118  0.33153887  1
  Ni  Ni6  1  0.99931495  0.66593835  0.99954106  1
  Ni  Ni7  1  0.16583142  0.83414447  0.16712274  1
  Ni  Ni8  1  -0.00014580  0.66741624  0.33230947  1
  Ni  Ni9  1  0.33140306  0.00203154  0.00010110  1
  Ni  Ni10  1  0.49880752  0.16674122  0.16507108  1
  Ni  Ni11  1  0.32970680  0.99763300  0.33097704  1
  Ni  Ni12  1  0.33304401  0.33104181  0.99921679  1
  Ni  Ni13  1  0.50108482  0.49888927  0.16775543  1
  Cr  Cr14  1  0.33199017  0.33385753  0.33296832  1
  Cr  Cr15  1  0.33162266  0.66587088  -0.00020774  1
  Ni  Ni16  1  0.49772869  0.83319238  0.16854592  1
  Ni  Ni17  1  0.33280001  0.66688695  0.33271182  1
  Cr  Cr18  1  0.66643993  0.00098764  0.99916705  1
  Ni  Ni19  1  0.83437034  0.16825148  0.16646296  1
  Cr  Cr20  1  0.66757294  0.99868860  0.33091902  1
  Ni  Ni21  1  0.66616788  0.33278946  0.00000699  1
  Ni  Ni22  1  0.83341678  0.49870367  0.16716470  1
  Ni  Ni23  1  0.66696668  0.33606639  0.33005602  1
  Cr  Cr24  1  0.66785252  0.66486792  0.99960332  1
  Ni  Ni25  1  0.83526208  0.83186759  0.16774309  1
  Ni  Ni26  1  0.66616793  0.66451314  0.33142138  1
  Ni  Ni27  1  0.16538751  0.16540221  0.50048024  1
  Ni  Ni28  1  -0.00002288  0.99877265  0.66634665  1
  Ni  Ni29  1  0.16652811  0.16698499  0.83255047  1
  Ni  Ni30  1  0.16715117  0.50062776  0.50098809  1
  Ni  Ni31  1  0.00355295  0.33253983  0.66766338  1
  Ni  Ni32  1  0.16520471  0.49819968  0.83134677  1
  Ni  Ni33  1  0.16476877  0.83279202  0.49984489  1
  Ni  Ni34  1  0.00210847  0.66751042  0.66697280  1
  Fe  Fe35  1  0.16538821  0.83382910  0.83200595  1
  Cr  Cr36  1  0.49741030  0.16665149  0.50089948  1
  Ni  Ni37  1  0.33156220  -0.00008900  0.66774443  1
  Ni  Ni38  1  0.49792115  0.16559162  0.83277222  1
  Ni  Ni39  1  0.49667598  0.50088436  0.49869567  1
  Ni  Ni40  1  0.33045806  0.33386945  0.66685806  1
  Ni  Ni41  1  0.49791431  0.49826262  0.83237106  1
  Cr  Cr42  1  0.49809216  0.83153525  0.49939958  1
  Ni  Ni43  1  0.33076293  0.66504209  0.66638304  1
  Ni  Ni44  1  0.49893334  0.83496825  0.83067864  1
  Cr  Cr45  1  0.83602521  0.16492760  0.49977090  1
  Ni  Ni46  1  0.66728312  0.99846654  0.66892970  1
  Ni  Ni47  1  0.83437371  0.16596470  0.83251826  1
  Cr  Cr48  1  0.83458928  0.50093278  0.49750616  1
  Cr  Cr49  1  0.66509080  0.33200554  0.66851597  1
  Ni  Ni50  1  0.83570334  0.49921362  0.83409843  1
  Ni  Ni51  1  0.83650637  0.83278737  0.49985184  1
  Cr  Cr52  1  0.66622268  0.66814100  0.66781207  1
  Ni  Ni53  1  0.83431106  0.83364389  0.83122798  1
" 