7097,Ni78Fe11Cr10_11,-237.153369282347, 184.075802372712,Ni78Fe11Cr10,"# generated using pymatgen
 data_CrFeNi7
_symmetry_space_group_name_H-M   'P 1'
_cell_length_a   7.44625940
_cell_length_b   7.44625940
_cell_length_c   10.53060104
_cell_angle_alpha   90.00000000
_cell_angle_beta   90.00000000
_cell_angle_gamma   90.00000000
_symmetry_Int_Tables_number   1
_chemical_formula_structural   CrFeNi7
_chemical_formula_sum   'Cr6 Fe6 Ni42'
_cell_volume   583.88790962
_cell_formula_units_Z   6
loop_
 _symmetry_equiv_pos_site_id
 _symmetry_equiv_pos_as_xyz
  1  'x, y, z'
loop_
 _atom_site_type_symbol
 _atom_site_label
 _atom_site_symmetry_multiplicity
 _atom_site_fract_x
 _atom_site_fract_y
 _atom_site_fract_z
 _atom_site_occupancy
  Ni  Ni0  1  0.00166617  0.00271864  1.00136859  1
  Fe  Fe1  1  0.16906367  0.16768633  0.16771032  1
  Ni  Ni2  1  0.00233197  0.00285551  0.33439143  1
  Ni  Ni3  1  0.00152561  0.33332630  0.00151065  1
  Ni  Ni4  1  0.16861108  0.50207393  0.16764511  1
  Ni  Ni5  1  0.00263099  0.33292815  0.33385070  1
  Fe  Fe6  1  0.00326396  0.66818933  0.00142055  1
  Ni  Ni7  1  0.16809110  0.83325400  0.16823807  1
  Ni  Ni8  1  0.00474749  0.66823455  0.33253070  1
  Ni  Ni9  1  0.33396699  1.00109986  0.00159105  1
  Ni  Ni10  1  0.50257391  0.16835590  0.16777491  1
  Ni  Ni11  1  0.33321078  0.00239420  0.33372710  1
  Ni  Ni12  1  0.33391201  0.33478964  1.00108833  1
  Ni  Ni13  1  0.49797065  0.49876163  0.16763899  1
  Ni  Ni14  1  0.33436694  0.33487711  0.33512747  1
  Ni  Ni15  1  0.33412290  0.66810917  0.00184943  1
  Ni  Ni16  1  0.49928894  0.83697938  0.16752863  1
  Ni  Ni17  1  0.33262446  0.66690980  0.33407301  1
  Ni  Ni18  1  0.66881550  0.00240109  0.00161746  1
  Ni  Ni19  1  0.83379238  0.16772033  0.16792466  1
  Ni  Ni20  1  0.66864100  0.00447936  0.33276110  1
  Ni  Ni21  1  0.66876133  0.33369063  0.00168637  1
  Fe  Fe22  1  0.83590435  0.49957098  0.16767205  1
  Ni  Ni23  1  0.66727344  0.33225517  0.33378889  1
  Cr  Cr24  1  0.66734579  0.66818843  0.00155143  1
  Ni  Ni25  1  0.83711835  0.83788218  0.16734080  1
  Cr  Cr26  1  0.66620532  0.66723873  0.33206194  1
  Ni  Ni27  1  0.16840225  0.16822656  0.50154995  1
  Ni  Ni28  1  0.00293603  0.00330187  0.66860929  1
  Ni  Ni29  1  0.16856161  0.16808742  0.83549825  1
  Ni  Ni30  1  0.16834092  0.50090624  0.50097691  1
  Ni  Ni31  1  0.00254762  0.33315802  0.66874388  1
  Ni  Ni32  1  0.16638734  0.50129811  0.83535349  1
  Ni  Ni33  1  0.16722259  0.83498941  0.50029895  1
  Ni  Ni34  1  0.00169678  0.66802301  0.67015232  1
  Ni  Ni35  1  0.16780338  0.83484488  0.83548504  1
  Ni  Ni36  1  0.50181153  0.16960609  0.50128362  1
  Ni  Ni37  1  0.33302569  0.00375973  0.66880807  1
  Ni  Ni38  1  0.50197124  0.16758190  0.83515848  1
  Ni  Ni39  1  0.49979285  0.49749102  0.50198030  1
  Ni  Ni40  1  0.33383268  0.33280681  0.66824209  1
  Fe  Fe41  1  0.50022644  0.49748482  0.83513928  1
  Cr  Cr42  1  0.49984372  0.83770099  0.50062920  1
  Cr  Cr43  1  0.33402900  0.66677342  0.66772999  1
  Fe  Fe44  1  0.50025393  0.83743566  0.83526666  1
  Ni  Ni45  1  0.83395218  0.16830195  0.50179128  1
  Ni  Ni46  1  0.66837679  0.00321011  0.66984171  1
  Ni  Ni47  1  0.83372486  0.16920990  0.83438009  1
  Cr  Cr48  1  0.83634279  0.49891940  0.50129742  1
  Ni  Ni49  1  0.66764515  0.33413587  0.66873358  1
  Ni  Ni50  1  0.83605735  0.50006777  0.83478468  1
  Cr  Cr51  1  0.83741166  0.83713539  0.50280933  1
  Ni  Ni52  1  0.66851221  0.66689863  0.67100366  1
  Fe  Fe53  1  0.83684194  0.83705234  0.83436036  1
" 