6176,Ni78Fe2Cr18_11,-231.723285681888, 156.05094800445,Ni78Fe2Cr18,"# generated using pymatgen
 data_Cr11FeNi42
_symmetry_space_group_name_H-M   'P 1'
_cell_length_a   7.47496959
_cell_length_b   7.47496959
_cell_length_c   10.57120337
_cell_angle_alpha   90.00000000
_cell_angle_beta   90.00000000
_cell_angle_gamma   90.00000000
_symmetry_Int_Tables_number   1
_chemical_formula_structural   Cr11FeNi42
_chemical_formula_sum   'Cr11 Fe1 Ni42'
_cell_volume   590.66778876
_cell_formula_units_Z   1
loop_
 _symmetry_equiv_pos_site_id
 _symmetry_equiv_pos_as_xyz
  1  'x, y, z'
loop_
 _atom_site_type_symbol
 _atom_site_label
 _atom_site_symmetry_multiplicity
 _atom_site_fract_x
 _atom_site_fract_y
 _atom_site_fract_z
 _atom_site_occupancy
  Ni  Ni0  1  0.00023153  -0.00009674  0.99870649  1
  Cr  Cr1  1  0.16605849  0.16562826  0.16746342  1
  Ni  Ni2  1  0.99847461  0.99818062  0.33338883  1
  Ni  Ni3  1  0.99935949  0.33254235  0.99643793  1
  Ni  Ni4  1  0.16642042  0.50102132  0.16839197  1
  Ni  Ni5  1  0.00022838  0.33366485  0.33556132  1
  Cr  Cr6  1  0.00089251  0.66631478  0.00057830  1
  Ni  Ni7  1  0.16735556  0.83307086  0.16587940  1
  Ni  Ni8  1  0.00092612  0.66667313  0.33276995  1
  Ni  Ni9  1  0.33387540  0.99754638  0.99843482  1
  Ni  Ni10  1  0.49987541  0.16322084  0.16693942  1
  Ni  Ni11  1  0.33453896  0.99936560  0.33285583  1
  Cr  Cr12  1  0.33223428  0.33215907  0.99772683  1
  Cr  Cr13  1  0.49827334  0.49843806  0.16582027  1
  Ni  Ni14  1  0.33192755  0.33135419  0.33375816  1
  Ni  Ni15  1  0.33329866  0.66845516  0.99871328  1
  Ni  Ni16  1  0.49821864  0.83479197  0.16526787  1
  Ni  Ni17  1  0.33036212  0.66768525  0.33146939  1
  Ni  Ni18  1  0.66446701  0.99918024  0.00006142  1
  Cr  Cr19  1  0.83180942  0.16523578  0.16460192  1
  Ni  Ni20  1  0.66544022  0.00035684  0.33340906  1
  Ni  Ni21  1  0.66618796  0.33128327  0.99612288  1
  Cr  Cr22  1  0.83339637  0.49749491  0.16545761  1
  Ni  Ni23  1  0.66632559  0.32921932  0.33475145  1
  Ni  Ni24  1  0.66444434  0.66772593  0.99856815  1
  Ni  Ni25  1  0.83295800  0.83490314  0.16646830  1
  Cr  Cr26  1  0.66849552  0.67045981  0.33352903  1
  Ni  Ni27  1  0.16508022  0.16610401  0.49880470  1
  Ni  Ni28  1  0.99905345  0.00154304  0.66623300  1
  Ni  Ni29  1  0.16422395  0.16430780  0.83254530  1
  Ni  Ni30  1  0.16398288  0.49908410  0.49805695  1
  Ni  Ni31  1  0.99837958  0.33268811  0.66634497  1
  Ni  Ni32  1  0.16545428  0.49998319  0.83192826  1
  Cr  Cr33  1  0.16713734  0.83319962  0.50130711  1
  Ni  Ni34  1  0.99896644  0.66422590  0.66539495  1
  Fe  Fe35  1  0.16729575  0.83377452  0.83204701  1
  Ni  Ni36  1  0.50000298  0.16358596  0.49829065  1
  Ni  Ni37  1  0.33415648  0.99946195  0.66734719  1
  Ni  Ni38  1  0.50106997  0.16361688  0.83307572  1
  Cr  Cr39  1  0.49864225  0.50053072  0.49989573  1
  Cr  Cr40  1  0.33187322  0.33054898  0.66659298  1
  Ni  Ni41  1  0.50084537  0.50182814  0.83300063  1
  Ni  Ni42  1  0.49976729  0.83508996  0.50062386  1
  Ni  Ni43  1  0.33269966  0.66718376  0.66842183  1
  Ni  Ni44  1  0.49838305  0.83281705  0.83252676  1
  Ni  Ni45  1  0.83335682  0.16573899  0.49993290  1
  Ni  Ni46  1  0.66543823  0.00039779  0.66468037  1
  Ni  Ni47  1  0.83340105  0.16682533  0.83308653  1
  Ni  Ni48  1  0.83491607  0.49861054  0.50097663  1
  Ni  Ni49  1  0.66826792  0.33133036  0.66742684  1
  Ni  Ni50  1  0.83218637  0.49790654  0.83190303  1
  Ni  Ni51  1  0.83278360  0.83405702  0.49998624  1
  Ni  Ni52  1  0.66668581  0.66659352  0.66622065  1
  Cr  Cr53  1  0.83125945  0.83447640  0.83160129  1
" 