7079,Ni78Fe11Cr10_1,-236.855662092655, 182.681575654017,Ni78Fe11Cr10,"# generated using pymatgen
 data_CrFeNi7
_symmetry_space_group_name_H-M   'P 1'
_cell_length_a   7.44730942
_cell_length_b   7.44730942
_cell_length_c   10.53208598
_cell_angle_alpha   90.00000000
_cell_angle_beta   90.00000000
_cell_angle_gamma   90.00000000
_symmetry_Int_Tables_number   1
_chemical_formula_structural   CrFeNi7
_chemical_formula_sum   'Cr6 Fe6 Ni42'
_cell_volume   584.13495103
_cell_formula_units_Z   6
loop_
 _symmetry_equiv_pos_site_id
 _symmetry_equiv_pos_as_xyz
  1  'x, y, z'
loop_
 _atom_site_type_symbol
 _atom_site_label
 _atom_site_symmetry_multiplicity
 _atom_site_fract_x
 _atom_site_fract_y
 _atom_site_fract_z
 _atom_site_occupancy
  Ni  Ni0  1  0.00332730  1.00123426  0.00178438  1
  Fe  Fe1  1  0.16805073  0.16671488  0.16798709  1
  Ni  Ni2  1  0.00249320  1.00015179  0.33390651  1
  Ni  Ni3  1  1.00074506  0.33426115  1.00074813  1
  Cr  Cr4  1  0.16637842  0.50066887  0.16801552  1
  Ni  Ni5  1  0.00165375  0.33493161  0.33488912  1
  Ni  Ni6  1  0.99894446  0.66848097  1.00050594  1
  Fe  Fe7  1  0.16683922  0.83704598  0.16859557  1
  Ni  Ni8  1  0.99984294  0.66889136  0.33566987  1
  Ni  Ni9  1  0.33292799  0.00303801  0.00142089  1
  Ni  Ni10  1  0.50127488  0.16756703  0.16889343  1
  Ni  Ni11  1  0.33325644  0.00196104  0.33274293  1
  Ni  Ni12  1  0.33545168  0.33240118  1.00040667  1
  Ni  Ni13  1  0.50396753  0.50060892  0.16876947  1
  Ni  Ni14  1  0.33506876  0.33409493  0.33497630  1
  Cr  Cr15  1  0.33588758  0.66846582  1.00060388  1
  Ni  Ni16  1  0.50192267  0.83579895  0.16943253  1
  Fe  Fe17  1  0.33491782  0.66778218  0.33526578  1
  Cr  Cr18  1  0.66745516  1.00112032  0.00139352  1
  Ni  Ni19  1  0.83484632  0.16824897  0.16852340  1
  Ni  Ni20  1  0.66822651  1.00015124  0.33233194  1
  Ni  Ni21  1  0.66777906  0.33677931  0.00187693  1
  Ni  Ni22  1  0.83348712  0.50126266  0.16785260  1
  Ni  Ni23  1  0.66725431  0.33674105  0.33278001  1
  Ni  Ni24  1  0.66958452  0.66595983  0.00163279  1
  Ni  Ni25  1  0.83484861  0.83446434  0.16906794  1
  Ni  Ni26  1  0.66906255  0.66708165  0.33356424  1
  Ni  Ni27  1  0.16723187  0.16775070  0.50090653  1
  Ni  Ni28  1  0.00241905  1.00035850  0.66828632  1
  Ni  Ni29  1  0.16825404  0.16733861  0.83502726  1
  Ni  Ni30  1  0.16692686  0.50178343  0.50203039  1
  Ni  Ni31  1  0.00248496  0.33551073  0.66833609  1
  Ni  Ni32  1  0.16619455  0.50070246  0.83331799  1
  Ni  Ni33  1  0.16665143  0.83444077  0.50096284  1
  Ni  Ni34  1  0.00145443  0.66810374  0.66779911  1
  Ni  Ni35  1  0.16766365  0.83593493  0.83443365  1
  Cr  Cr36  1  0.50062957  0.16857445  0.50169143  1
  Ni  Ni37  1  0.33330735  0.00138761  0.66981276  1
  Ni  Ni38  1  0.50033155  0.16774202  0.83377406  1
  Ni  Ni39  1  0.50147604  0.50178776  0.50117415  1
  Ni  Ni40  1  0.33415143  0.33539607  0.66859270  1
  Ni  Ni41  1  0.50279608  0.50070089  0.83403130  1
  Cr  Cr42  1  0.50103532  0.83403073  0.50164688  1
  Ni  Ni43  1  0.33415423  0.66719166  0.66804616  1
  Ni  Ni44  1  0.50092175  0.83553206  0.83317860  1
  Cr  Cr45  1  0.83572463  0.16850479  0.50157427  1
  Ni  Ni46  1  0.66825402  1.00035623  0.66998994  1
  Fe  Fe47  1  0.83550936  0.16931993  0.83402313  1
  Ni  Ni48  1  0.83557273  0.50236717  0.50062578  1
  Ni  Ni49  1  0.66733985  0.33635963  0.66932051  1
  Ni  Ni50  1  0.83498597  0.50129201  0.83549712  1
  Fe  Fe51  1  0.83671682  0.83264406  0.50082736  1
  Ni  Ni52  1  0.66836865  0.66725762  0.66878087  1
  Fe  Fe53  1  0.83550945  0.83328336  0.83423564  1
" 