968,Ni78Fe2Cr18_4,-231.776896493957, 157.365639712223,Ni78Fe2Cr18,"# generated using pymatgen
 data_Cr11FeNi42
_symmetry_space_group_name_H-M   'P 1'
_cell_length_a   7.47475943
_cell_length_b   7.47475943
_cell_length_c   10.57090617
_cell_angle_alpha   90.00000000
_cell_angle_beta   90.00000000
_cell_angle_gamma   90.00000000
_symmetry_Int_Tables_number   1
_chemical_formula_structural   Cr11FeNi42
_chemical_formula_sum   'Cr11 Fe1 Ni42'
_cell_volume   590.61797166
_cell_formula_units_Z   1
loop_
 _symmetry_equiv_pos_site_id
 _symmetry_equiv_pos_as_xyz
  1  'x, y, z'
loop_
 _atom_site_type_symbol
 _atom_site_label
 _atom_site_symmetry_multiplicity
 _atom_site_fract_x
 _atom_site_fract_y
 _atom_site_fract_z
 _atom_site_occupancy
  Ni  Ni0  1  0.99736095  0.99684291  0.00162076  1
  Ni  Ni1  1  0.16251166  0.16579148  0.16715196  1
  Ni  Ni2  1  0.00124922  0.99913928  0.33304775  1
  Ni  Ni3  1  -0.00034423  0.33536987  0.00188171  1
  Ni  Ni4  1  0.16417834  0.50075682  0.16547731  1
  Ni  Ni5  1  0.99773387  0.33323332  0.33255230  1
  Ni  Ni6  1  0.00112023  0.66612342  0.99896070  1
  Fe  Fe7  1  0.16474745  0.83177628  0.16717864  1
  Ni  Ni8  1  0.99924379  0.66602798  0.33312315  1
  Cr  Cr9  1  0.33442303  0.99742064  0.00040783  1
  Ni  Ni10  1  0.50019876  0.16437949  0.16711634  1
  Ni  Ni11  1  0.33002561  0.99878116  0.33226284  1
  Cr  Cr12  1  0.33189660  0.33619705  0.00001139  1
  Ni  Ni13  1  0.49895948  0.50266223  0.16830573  1
  Cr  Cr14  1  0.33125781  0.33148863  0.33178356  1
  Ni  Ni15  1  0.33043500  0.66616923  -0.00048701  1
  Ni  Ni16  1  0.49906294  0.83140632  0.16697816  1
  Ni  Ni17  1  0.33021296  0.66782226  0.32991057  1
  Ni  Ni18  1  0.66729190  0.99827628  0.00023817  1
  Ni  Ni19  1  0.83570036  0.16569492  0.16571731  1
  Cr  Cr20  1  0.66750907  0.00050567  0.33199323  1
  Cr  Cr21  1  0.66618090  0.33216649  0.00081089  1
  Ni  Ni22  1  0.83526696  0.49965070  0.16839987  1
  Ni  Ni23  1  0.66891149  0.33375072  0.33178283  1
  Cr  Cr24  1  0.66667839  0.66793559  0.99855422  1
  Ni  Ni25  1  0.83369925  0.83304820  0.16569560  1
  Ni  Ni26  1  0.66890512  0.66440473  0.33085396  1
  Ni  Ni27  1  0.16441900  0.16489649  0.50057326  1
  Ni  Ni28  1  0.00163530  0.99689630  0.66395216  1
  Cr  Cr29  1  0.16459263  0.16643998  0.83109676  1
  Ni  Ni30  1  0.16312443  0.50033100  0.50077615  1
  Ni  Ni31  1  -0.00018000  0.33545844  0.66412734  1
  Ni  Ni32  1  0.16538252  0.50268370  0.83223864  1
  Ni  Ni33  1  0.16427169  0.83326038  0.49883955  1
  Ni  Ni34  1  -0.00039802  0.66613110  0.66639036  1
  Ni  Ni35  1  0.16551618  0.82979009  0.83248995  1
  Ni  Ni36  1  0.49817427  0.16695006  0.50075827  1
  Ni  Ni37  1  0.33095596  -0.00029290  0.66569322  1
  Ni  Ni38  1  0.49946731  0.16583005  0.83066045  1
  Cr  Cr39  1  0.50076294  0.50015854  0.49956566  1
  Ni  Ni40  1  0.33277307  0.33284309  0.66658753  1
  Ni  Ni41  1  0.49814595  0.50150333  0.82985237  1
  Cr  Cr42  1  0.49716526  0.83105648  0.49884040  1
  Ni  Ni43  1  0.33014796  0.66596893  0.66889617  1
  Ni  Ni44  1  0.49829999  0.83113525  0.83214479  1
  Ni  Ni45  1  0.83588631  0.16827212  0.49902994  1
  Cr  Cr46  1  0.66690140  0.99872520  0.66691398  1
  Cr  Cr47  1  0.83447479  0.16614423  0.83456944  1
  Ni  Ni48  1  0.83491967  0.49930525  0.49916088  1
  Ni  Ni49  1  0.66591269  0.33462435  0.66593353  1
  Ni  Ni50  1  0.83487811  0.50153771  0.83075444  1
  Ni  Ni51  1  0.83705201  0.83079746  0.49978461  1
  Ni  Ni52  1  0.66876194  0.66399667  0.66820961  1
  Ni  Ni53  1  0.83468345  0.83087869  0.83297447  1
" 