8379,Ni78Cr22_17,-207.766554728325, 154.68253333278,Ni78Cr22,"# generated using pymatgen
 data_Cr7Ni2
_symmetry_space_group_name_H-M   'P 1'
_cell_length_a   7.57911439
_cell_length_b   7.57911439
_cell_length_c   10.71848636
_cell_angle_alpha   90.00000000
_cell_angle_beta   90.00000000
_cell_angle_gamma   90.00000000
_symmetry_Int_Tables_number   1
_chemical_formula_structural   Cr7Ni2
_chemical_formula_sum   'Cr42 Ni12'
_cell_volume   615.70174273
_cell_formula_units_Z   6
loop_
 _symmetry_equiv_pos_site_id
 _symmetry_equiv_pos_as_xyz
  1  'x, y, z'
loop_
 _atom_site_type_symbol
 _atom_site_label
 _atom_site_symmetry_multiplicity
 _atom_site_fract_x
 _atom_site_fract_y
 _atom_site_fract_z
 _atom_site_occupancy
  Cr  Cr0  1  0.99239365  0.99117960  -0.00638527  1
  Ni  Ni1  1  0.16428562  0.15633216  0.15935983  1
  Cr  Cr2  1  -0.00714422  0.99255394  0.32432592  1
  Cr  Cr3  1  -0.00526700  0.32634708  -0.00246216  1
  Cr  Cr4  1  0.16059078  0.49301403  0.15973536  1
  Cr  Cr5  1  -0.00586791  0.32606624  0.32239677  1
  Cr  Cr6  1  0.99022673  0.66044474  0.99240236  1
  Cr  Cr7  1  0.16218283  0.82798528  0.16028878  1
  Cr  Cr8  1  0.99141741  0.65963975  0.32471250  1
  Ni  Ni9  1  0.32761523  -0.00376831  -0.00577545  1
  Ni  Ni10  1  0.48900424  0.15685335  0.15942458  1
  Ni  Ni11  1  0.32745141  -0.00532092  0.32460894  1
  Cr  Cr12  1  0.32669639  0.32279908  0.99210767  1
  Cr  Cr13  1  0.49307138  0.49309540  0.15978357  1
  Cr  Cr14  1  0.32639534  0.32437748  0.32624171  1
  Cr  Cr15  1  0.32607473  0.65922397  0.99136733  1
  Cr  Cr16  1  0.49080120  0.82736729  0.16046792  1
  Ni  Ni17  1  0.32545624  0.66133809  0.32596774  1
  Cr  Cr18  1  0.65855983  0.99179381  0.99205699  1
  Cr  Cr19  1  0.82546580  0.15976618  0.15965478  1
  Cr  Cr20  1  0.65801271  -0.00683573  0.32606994  1
  Cr  Cr21  1  0.65706572  0.32538808  -0.00574563  1
  Ni  Ni22  1  0.82604898  0.49464055  0.15929087  1
  Cr  Cr23  1  0.65751334  0.32533067  0.32548503  1
  Cr  Cr24  1  0.66214360  0.66135149  -0.00544258  1
  Ni  Ni25  1  0.82650527  0.82521749  0.15886075  1
  Cr  Cr26  1  0.66052201  0.66046420  0.32241635  1
  Cr  Cr27  1  0.15883425  0.15684336  0.48999166  1
  Cr  Cr28  1  0.99189443  0.98954653  0.65986210  1
  Cr  Cr29  1  0.15931771  0.15752878  0.82934450  1
  Cr  Cr30  1  0.15941299  0.49492948  0.49303766  1
  Cr  Cr31  1  -0.00472216  0.32608080  0.65825747  1
  Cr  Cr32  1  0.15862122  0.49303289  0.82472274  1
  Cr  Cr33  1  0.16093569  0.82560921  0.49124818  1
  Ni  Ni34  1  0.99052670  0.65995405  0.66079458  1
  Cr  Cr35  1  0.15977493  0.82649650  0.82595243  1
  Ni  Ni36  1  0.49167715  0.15913968  0.49259343  1
  Cr  Cr37  1  0.32729834  -0.00525580  0.65908512  1
  Ni  Ni38  1  0.49271375  0.15838824  0.82616407  1
  Cr  Cr39  1  0.49363783  0.49316534  0.49224421  1
  Cr  Cr40  1  0.32843149  0.32377197  0.65960163  1
  Cr  Cr41  1  0.49435790  0.49103149  0.82561548  1
  Cr  Cr42  1  0.48987008  0.82695446  0.48794021  1
  Cr  Cr43  1  0.32480527  0.65883680  0.65890730  1
  Cr  Cr44  1  0.49168222  0.82783529  0.82886049  1
  Cr  Cr45  1  0.82340013  0.16096179  0.49490022  1
  Cr  Cr46  1  0.65717300  -0.00701945  0.65954623  1
  Cr  Cr47  1  0.82400585  0.15953244  0.82367333  1
  Cr  Cr48  1  0.82530577  0.49060231  0.49443855  1
  Ni  Ni49  1  0.65606378  0.32367183  0.65905385  1
  Cr  Cr50  1  0.82554259  0.49026675  0.82466341  1
  Cr  Cr51  1  0.82639348  0.82642983  0.49362412  1
  Cr  Cr52  1  0.65991603  0.66108488  0.66060404  1
  Ni  Ni53  1  0.82667915  0.82470645  0.82482929  1
" 