5862,Ni78Fe2Cr18_10,-231.837283102177, 157.292671452083,Ni78Fe2Cr18,"# generated using pymatgen
 data_Cr11FeNi42
_symmetry_space_group_name_H-M   'P 1'
_cell_length_a   7.47408307
_cell_length_b   7.47408307
_cell_length_c   10.56994964
_cell_angle_alpha   90.00000000
_cell_angle_beta   90.00000000
_cell_angle_gamma   90.00000000
_symmetry_Int_Tables_number   1
_chemical_formula_structural   Cr11FeNi42
_chemical_formula_sum   'Cr11 Fe1 Ni42'
_cell_volume   590.45765695
_cell_formula_units_Z   1
loop_
 _symmetry_equiv_pos_site_id
 _symmetry_equiv_pos_as_xyz
  1  'x, y, z'
loop_
 _atom_site_type_symbol
 _atom_site_label
 _atom_site_symmetry_multiplicity
 _atom_site_fract_x
 _atom_site_fract_y
 _atom_site_fract_z
 _atom_site_occupancy
  Ni  Ni0  1  0.00107012  0.00083323  0.99833485  1
  Ni  Ni1  1  0.16628929  0.16792335  0.16418455  1
  Cr  Cr2  1  0.00046692  0.99891963  0.33237678  1
  Ni  Ni3  1  0.99927671  0.33233820  0.00084482  1
  Ni  Ni4  1  0.16607931  0.49912513  0.16532112  1
  Ni  Ni5  1  0.99951749  0.33489885  0.33101482  1
  Ni  Ni6  1  0.00024554  0.66530142  0.99952138  1
  Ni  Ni7  1  0.16815080  0.83157436  0.16305794  1
  Cr  Cr8  1  0.00210901  0.66440684  0.33368350  1
  Ni  Ni9  1  0.33293918  0.99896298  0.99921039  1
  Ni  Ni10  1  0.49941767  0.16527228  0.16640556  1
  Cr  Cr11  1  0.33255161  0.99622501  0.33219968  1
  Fe  Fe12  1  0.33232101  0.33173536  0.99909435  1
  Cr  Cr13  1  0.49923922  0.50219208  0.16597020  1
  Ni  Ni14  1  0.33203531  0.33509496  0.33112996  1
  Ni  Ni15  1  0.33277354  0.66913130  -0.00013274  1
  Ni  Ni16  1  0.49874620  0.83326900  0.16561821  1
  Ni  Ni17  1  0.33360074  0.66502656  0.33368938  1
  Ni  Ni18  1  0.66439263  0.00001185  0.99909035  1
  Ni  Ni19  1  0.83268636  0.16703658  0.16657257  1
  Ni  Ni20  1  0.66467128  0.99858248  0.33116297  1
  Cr  Cr21  1  0.66751989  0.33261995  0.99655176  1
  Ni  Ni22  1  0.83389615  0.49849883  0.16597958  1
  Ni  Ni23  1  0.66681372  0.33461596  0.33217788  1
  Ni  Ni24  1  0.66544917  0.66665452  0.99690299  1
  Cr  Cr25  1  0.83007271  0.83171090  0.16335151  1
  Ni  Ni26  1  0.66498424  0.66540232  0.33452932  1
  Cr  Cr27  1  0.16640588  0.16848953  0.50326707  1
  Ni  Ni28  1  0.00108304  0.99741965  0.66840863  1
  Ni  Ni29  1  0.16596482  0.16523035  0.83257959  1
  Ni  Ni30  1  0.16752064  0.49990237  0.49992753  1
  Ni  Ni31  1  0.99831613  0.33465266  0.66715059  1
  Cr  Cr32  1  0.16671419  0.50071225  0.83359814  1
  Ni  Ni33  1  0.16713473  0.82995354  0.50325871  1
  Ni  Ni34  1  0.99905257  0.66633404  0.66562112  1
  Ni  Ni35  1  0.16615129  0.83375176  0.83275043  1
  Cr  Cr36  1  0.49920977  0.16861254  0.49918889  1
  Ni  Ni37  1  0.33181601  0.99709183  0.66822199  1
  Ni  Ni38  1  0.49739397  0.16592657  0.83265469  1
  Ni  Ni39  1  0.49907369  0.50115817  0.50000920  1
  Ni  Ni40  1  0.33402104  0.33436791  0.66826529  1
  Ni  Ni41  1  0.49966713  0.50150605  0.83127235  1
  Ni  Ni42  1  0.49999985  0.82940460  0.49898951  1
  Ni  Ni43  1  0.33368720  0.66698004  0.66493947  1
  Ni  Ni44  1  0.49873690  0.83144641  0.83430884  1
  Cr  Cr45  1  0.83287682  0.16663341  0.49897244  1
  Cr  Cr46  1  0.66507381  0.99782203  0.66856680  1
  Ni  Ni47  1  0.83482802  0.16575342  0.83266675  1
  Ni  Ni48  1  0.83205883  0.50040181  0.50025494  1
  Ni  Ni49  1  0.66629011  0.33609731  0.66803292  1
  Ni  Ni50  1  0.83295801  0.50117317  0.83214215  1
  Ni  Ni51  1  0.83159522  0.83034555  0.50078772  1
  Ni  Ni52  1  0.66591182  0.66414564  0.66680251  1
  Ni  Ni53  1  0.83372724  0.83190799  0.83410258  1
" 