6314,Ni78Fe11Cr9_4,-237.159569751127, 185.751399268217,Ni78Fe11Cr9,"# generated using pymatgen
 data_CrFeNi7
_symmetry_space_group_name_H-M   'P 1'
_cell_length_a   7.44709225
_cell_length_b   7.44709225
_cell_length_c   10.53177885
_cell_angle_alpha   90.00000000
_cell_angle_beta   90.00000000
_cell_angle_gamma   90.00000000
_symmetry_Int_Tables_number   1
_chemical_formula_structural   CrFeNi7
_chemical_formula_sum   'Cr6 Fe6 Ni42'
_cell_volume   584.08384987
_cell_formula_units_Z   6
loop_
 _symmetry_equiv_pos_site_id
 _symmetry_equiv_pos_as_xyz
  1  'x, y, z'
loop_
 _atom_site_type_symbol
 _atom_site_label
 _atom_site_symmetry_multiplicity
 _atom_site_fract_x
 _atom_site_fract_y
 _atom_site_fract_z
 _atom_site_occupancy
  Ni  Ni0  1  1.00123066  1.00062758  1.00038120  1
  Cr  Cr1  1  0.16723361  0.16831525  0.16712216  1
  Ni  Ni2  1  1.00110997  0.99988776  0.33517177  1
  Ni  Ni3  1  0.00212678  0.33520722  1.00069723  1
  Ni  Ni4  1  0.16756060  0.50272911  0.16800496  1
  Ni  Ni5  1  0.99849594  0.33597735  0.33446779  1
  Ni  Ni6  1  0.00171620  0.66818578  0.00172445  1
  Ni  Ni7  1  0.16864241  0.83337113  0.16821312  1
  Ni  Ni8  1  0.00171610  0.66815395  0.33523549  1
  Ni  Ni9  1  0.33528577  1.00024051  1.00058373  1
  Ni  Ni10  1  0.50263875  0.16672129  0.16844478  1
  Ni  Ni11  1  0.33496712  0.99989412  0.33371806  1
  Ni  Ni12  1  0.33393501  0.33513649  1.00101578  1
  Ni  Ni13  1  0.50128413  0.50283292  0.16929059  1
  Fe  Fe14  1  0.33612759  0.33682492  0.33477859  1
  Ni  Ni15  1  0.33473276  0.66864276  1.00131364  1
  Ni  Ni16  1  0.50141175  0.83446490  0.16758448  1
  Ni  Ni17  1  0.33408918  0.66842122  0.33433842  1
  Ni  Ni18  1  0.66750307  0.99982950  0.00178619  1
  Ni  Ni19  1  0.83407629  0.16779701  0.16950886  1
  Fe  Fe20  1  0.66878824  0.00190004  0.33383633  1
  Cr  Cr21  1  0.66817210  0.33505262  1.00118539  1
  Ni  Ni22  1  0.83517418  0.50149668  0.16816332  1
  Ni  Ni23  1  0.66820584  0.33509706  0.33529577  1
  Ni  Ni24  1  0.66757292  0.66954033  0.00163993  1
  Fe  Fe25  1  0.83450678  0.83410515  0.16774184  1
  Ni  Ni26  1  0.66821519  0.66580888  0.33358489  1
  Cr  Cr27  1  0.16716526  0.16885334  0.50062466  1
  Ni  Ni28  1  0.99922696  1.00054208  0.66846490  1
  Ni  Ni29  1  0.16597570  0.16924958  0.83594851  1
  Ni  Ni30  1  0.16762641  0.50261137  0.50164338  1
  Ni  Ni31  1  1.00020192  0.33530859  0.66885426  1
  Ni  Ni32  1  0.16893974  0.50045207  0.83437068  1
  Ni  Ni33  1  0.16499478  0.83250844  0.50106374  1
  Ni  Ni34  1  0.00327852  0.66817187  0.66705971  1
  Ni  Ni35  1  0.16724115  0.83431606  0.83474347  1
  Ni  Ni36  1  0.50372248  0.17058268  0.50114081  1
  Cr  Cr37  1  0.33415858  1.00051981  0.67001925  1
  Fe  Fe38  1  0.50085820  0.16747677  0.83449770  1
  Ni  Ni39  1  0.50103477  0.49875580  0.50055250  1
  Ni  Ni40  1  0.33599115  0.33698411  0.66807020  1
  Ni  Ni41  1  0.49915367  0.50211123  0.83417436  1
  Cr  Cr42  1  0.50171571  0.83425721  0.50037594  1
  Ni  Ni43  1  0.33209282  0.66566515  0.66836842  1
  Ni  Ni44  1  0.50211865  0.83392642  0.83644179  1
  Fe  Fe45  1  0.83339411  0.16855808  0.50166657  1
  Ni  Ni46  1  0.67032859  0.00444215  0.66813166  1
  Ni  Ni47  1  0.83631654  0.16628710  0.83282594  1
  Ni  Ni48  1  0.83535612  0.50087808  0.50123607  1
  Ni  Ni49  1  0.66782705  0.33293719  0.66735670  1
  Fe  Fe50  1  0.83694444  0.50181584  0.83468025  1
  Ni  Ni51  1  0.83703854  0.83519397  0.50055246  1
  Cr  Cr52  1  0.66847030  0.66679300  0.66893805  1
  Ni  Ni53  1  0.83465857  0.83689016  0.83571895  1
" 