5453,Ni78Cr22_5,-207.926816758014, 160.042263756143,Ni78Cr22,"# generated using pymatgen
 data_Cr7Ni2
_symmetry_space_group_name_H-M   'P 1'
_cell_length_a   7.57641087
_cell_length_b   7.57641087
_cell_length_c   10.71466301
_cell_angle_alpha   90.00000000
_cell_angle_beta   90.00000000
_cell_angle_gamma   90.00000000
_symmetry_Int_Tables_number   1
_chemical_formula_structural   Cr7Ni2
_chemical_formula_sum   'Cr42 Ni12'
_cell_volume   615.04310389
_cell_formula_units_Z   6
loop_
 _symmetry_equiv_pos_site_id
 _symmetry_equiv_pos_as_xyz
  1  'x, y, z'
loop_
 _atom_site_type_symbol
 _atom_site_label
 _atom_site_symmetry_multiplicity
 _atom_site_fract_x
 _atom_site_fract_y
 _atom_site_fract_z
 _atom_site_occupancy
  Cr  Cr0  1  -0.00625221  -0.00569707  0.99166992  1
  Ni  Ni1  1  0.15559350  0.16061749  0.16080242  1
  Cr  Cr2  1  0.99206535  -0.00576658  0.32415438  1
  Cr  Cr3  1  -0.00585495  0.32520891  -0.00682205  1
  Cr  Cr4  1  0.16020637  0.49131904  0.16066907  1
  Ni  Ni5  1  0.99081018  0.32404465  0.32470072  1
  Cr  Cr6  1  -0.00508253  0.65874606  0.98980778  1
  Cr  Cr7  1  0.16036157  0.82598646  0.15983239  1
  Cr  Cr8  1  0.99029932  0.65609118  0.32827730  1
  Cr  Cr9  1  0.32359719  -0.00612095  0.99123533  1
  Cr  Cr10  1  0.49179253  0.16072035  0.15937832  1
  Cr  Cr11  1  0.32745527  -0.00491136  0.32756462  1
  Cr  Cr12  1  0.32252541  0.32556193  0.99028297  1
  Cr  Cr13  1  0.49029919  0.49392123  0.15603489  1
  Cr  Cr14  1  0.32552230  0.32371917  0.32710359  1
  Ni  Ni15  1  0.32222408  0.65973379  0.98979249  1
  Cr  Cr16  1  0.49065185  0.82408012  0.15763653  1
  Cr  Cr17  1  0.32650685  0.65937079  0.32653053  1
  Cr  Cr18  1  0.66119190  -0.00530300  -0.00344465  1
  Ni  Ni19  1  0.83081648  0.16142924  0.16093780  1
  Cr  Cr20  1  0.65897493  -0.00576569  0.32413103  1
  Cr  Cr21  1  0.66178791  0.32431772  -0.00604510  1
  Cr  Cr22  1  0.82758330  0.49045045  0.16083441  1
  Cr  Cr23  1  0.66110467  0.32560436  0.32711012  1
  Cr  Cr24  1  0.66071857  0.65945301  -0.00664939  1
  Cr  Cr25  1  0.82746593  0.82762538  0.15894079  1
  Cr  Cr26  1  0.66110282  0.65875379  0.32788527  1
  Cr  Cr27  1  0.15779106  0.15932542  0.49209477  1
  Ni  Ni28  1  -0.00460264  -0.00664434  0.66290515  1
  Ni  Ni29  1  0.15789582  0.15825003  0.82494509  1
  Cr  Cr30  1  0.15661711  0.49073098  0.48964005  1
  Cr  Cr31  1  -0.00566993  0.32764163  0.66096463  1
  Ni  Ni32  1  0.16039389  0.49356322  0.82772014  1
  Cr  Cr33  1  0.15769294  0.82797758  0.49296296  1
  Cr  Cr34  1  -0.00698260  0.65940537  0.66016284  1
  Ni  Ni35  1  0.15962528  0.82678122  0.82584767  1
  Ni  Ni36  1  0.49510166  0.16147216  0.49421229  1
  Cr  Cr37  1  0.32420336  -0.00596281  0.65917969  1
  Cr  Cr38  1  0.49438058  0.16112449  0.82376987  1
  Cr  Cr39  1  0.49385765  0.49145327  0.49487560  1
  Cr  Cr40  1  0.32631469  0.32516685  0.66047503  1
  Cr  Cr41  1  0.49294596  0.49286896  0.82710361  1
  Cr  Cr42  1  0.49272855  0.82637380  0.49290617  1
  Cr  Cr43  1  0.32411145  0.65899065  0.66130225  1
  Cr  Cr44  1  0.49256320  0.82453017  0.82806349  1
  Cr  Cr45  1  0.82805222  0.16111610  0.49452094  1
  Cr  Cr46  1  0.65850480  -0.00632363  0.65799227  1
  Cr  Cr47  1  0.82696171  0.15972442  0.82454129  1
  Ni  Ni48  1  0.82501575  0.49011023  0.49417861  1
  Ni  Ni49  1  0.66023527  0.32850629  0.65642544  1
  Cr  Cr50  1  0.82448812  0.49150070  0.82366983  1
  Cr  Cr51  1  0.82727601  0.82629849  0.49590619  1
  Ni  Ni52  1  0.66055721  0.65570147  0.65783022  1
  Cr  Cr53  1  0.82673605  0.82738975  0.82371534  1
" 