2982,Ni78Fe22_12,-232.704568771397, 184.823709428889,Ni78Fe22,"# generated using pymatgen
 data_Fe7Ni2
_symmetry_space_group_name_H-M   'P 1'
_cell_length_a   7.39559513
_cell_length_b   7.39559513
_cell_length_c   10.45895093
_cell_angle_alpha   90.00000000
_cell_angle_beta   90.00000000
_cell_angle_gamma   90.00000000
_symmetry_Int_Tables_number   1
_chemical_formula_structural   Fe7Ni2
_chemical_formula_sum   'Fe42 Ni12'
_cell_volume   572.05051434
_cell_formula_units_Z   6
loop_
 _symmetry_equiv_pos_site_id
 _symmetry_equiv_pos_as_xyz
  1  'x, y, z'
loop_
 _atom_site_type_symbol
 _atom_site_label
 _atom_site_symmetry_multiplicity
 _atom_site_fract_x
 _atom_site_fract_y
 _atom_site_fract_z
 _atom_site_occupancy
  Fe  Fe0  1  1.00416535  1.00435477  0.00509451  1
  Fe  Fe1  1  0.17182267  0.17077443  0.17183470  1
  Ni  Ni2  1  0.00484048  0.00484171  0.33849800  1
  Fe  Fe3  1  1.00383110  0.33858149  1.00410957  1
  Fe  Fe4  1  0.17206639  0.50521000  0.17149775  1
  Fe  Fe5  1  1.00482825  0.33767223  0.33835668  1
  Fe  Fe6  1  1.00467690  0.67155798  1.00467994  1
  Fe  Fe7  1  0.17174180  0.83850838  0.17126717  1
  Fe  Fe8  1  1.00468212  0.67232879  0.33841352  1
  Fe  Fe9  1  0.33908087  1.00333419  1.00411081  1
  Fe  Fe10  1  0.50464075  0.17109656  0.17216258  1
  Fe  Fe11  1  0.33807012  1.00483040  0.33845825  1
  Fe  Fe12  1  0.33873611  0.33891887  1.00463461  1
  Fe  Fe13  1  0.50507802  0.50556839  0.17182559  1
  Fe  Fe14  1  0.33808021  0.33768885  0.33912831  1
  Fe  Fe15  1  0.33891179  0.67223565  1.00477556  1
  Ni  Ni16  1  0.50462762  0.83784984  0.17261311  1
  Fe  Fe17  1  0.33789615  0.67197187  0.33788774  1
  Fe  Fe18  1  0.67124365  1.00417896  1.00467316  1
  Fe  Fe19  1  0.83802984  0.17077395  0.17107873  1
  Fe  Fe20  1  0.67193405  1.00468083  0.33832437  1
  Fe  Fe21  1  0.67192592  0.33840932  1.00477009  1
  Fe  Fe22  1  0.83734935  0.50564566  0.17106431  1
  Fe  Fe23  1  0.67157918  0.33750060  0.33855938  1
  Ni  Ni24  1  0.67138535  0.67184355  0.00523488  1
  Fe  Fe25  1  0.83766957  0.83807133  0.17235116  1
  Fe  Fe26  1  0.67191488  0.67231069  0.33775644  1
  Fe  Fe27  1  0.17208003  0.17158693  0.50513133  1
  Fe  Fe28  1  0.00564996  0.00564525  0.67117655  1
  Fe  Fe29  1  0.17172596  0.17067497  0.83752247  1
  Fe  Fe30  1  0.17198760  0.50424842  0.50522675  1
  Ni  Ni31  1  0.00534137  0.33817557  0.67092657  1
  Fe  Fe32  1  0.17131078  0.50473096  0.83776623  1
  Fe  Fe33  1  0.17196543  0.83865671  0.50521266  1
  Fe  Fe34  1  0.00615848  0.67140688  0.67140317  1
  Ni  Ni35  1  0.17237745  0.83760224  0.83857437  1
  Ni  Ni36  1  0.50449283  0.17298642  0.50484568  1
  Ni  Ni37  1  0.33849981  0.00534575  0.67104940  1
  Fe  Fe38  1  0.50417101  0.17033882  0.83710367  1
  Ni  Ni39  1  0.50404373  0.50343260  0.50454560  1
  Ni  Ni40  1  0.33752482  0.33719189  0.67164035  1
  Fe  Fe41  1  0.50492797  0.50541358  0.83778173  1
  Fe  Fe42  1  0.50527385  0.83831321  0.50498418  1
  Fe  Fe43  1  0.33765398  0.67107253  0.67183125  1
  Ni  Ni44  1  0.50343100  0.83760788  0.83714909  1
  Fe  Fe45  1  0.83759492  0.17157234  0.50521212  1
  Fe  Fe46  1  0.67100892  0.00615505  0.67149555  1
  Ni  Ni47  1  0.83867497  0.17260153  0.83770360  1
  Fe  Fe48  1  0.83724674  0.50470084  0.50498354  1
  Fe  Fe49  1  0.67067941  0.33726011  0.67115884  1
  Fe  Fe50  1  0.83825412  0.50548760  0.83844206  1
  Ni  Ni51  1  0.83938435  0.83851210  0.50518176  1
  Fe  Fe52  1  0.67068114  0.67107882  0.67172153  1
  Fe  Fe53  1  0.83791118  0.83832198  0.83792935  1
" 