3164,Ni78Fe11Cr10_5,-236.903334486547, 183.207570774405,Ni78Fe11Cr10,"# generated using pymatgen
 data_CrFeNi7
_symmetry_space_group_name_H-M   'P 1'
_cell_length_a   7.44586033
_cell_length_b   7.44586033
_cell_length_c   10.53003666
_cell_angle_alpha   90.00000000
_cell_angle_beta   90.00000000
_cell_angle_gamma   90.00000000
_symmetry_Int_Tables_number   1
_chemical_formula_structural   CrFeNi7
_chemical_formula_sum   'Cr6 Fe6 Ni42'
_cell_volume   583.79403666
_cell_formula_units_Z   6
loop_
 _symmetry_equiv_pos_site_id
 _symmetry_equiv_pos_as_xyz
  1  'x, y, z'
loop_
 _atom_site_type_symbol
 _atom_site_label
 _atom_site_symmetry_multiplicity
 _atom_site_fract_x
 _atom_site_fract_y
 _atom_site_fract_z
 _atom_site_occupancy
  Fe  Fe0  1  0.99988034  1.00107279  1.00077014  1
  Cr  Cr1  1  0.16533508  0.16876073  0.16936148  1
  Ni  Ni2  1  1.00039494  1.00132861  0.33502569  1
  Ni  Ni3  1  1.00089605  0.33656018  1.00100845  1
  Ni  Ni4  1  0.16739886  0.50310905  0.16568206  1
  Ni  Ni5  1  0.99918942  0.33422809  0.33595027  1
  Ni  Ni6  1  1.00087927  0.66760446  1.00047994  1
  Ni  Ni7  1  0.16798511  0.83291893  0.16796284  1
  Cr  Cr8  1  1.00030919  0.66734078  0.33513766  1
  Cr  Cr9  1  0.33534773  0.00287698  0.00259552  1
  Ni  Ni10  1  0.50527642  0.16799144  0.16783059  1
  Ni  Ni11  1  0.33550100  0.99930359  0.33598785  1
  Ni  Ni12  1  0.33479906  0.33640078  0.99980168  1
  Ni  Ni13  1  0.50277034  0.50240199  0.16637625  1
  Cr  Cr14  1  0.33539918  0.33554965  0.33485288  1
  Ni  Ni15  1  0.33356263  0.66638270  0.00189285  1
  Ni  Ni16  1  0.50231544  0.83394554  0.16964952  1
  Ni  Ni17  1  0.33573052  0.66935031  0.33481091  1
  Ni  Ni18  1  0.66992250  0.00202267  1.00139891  1
  Ni  Ni19  1  0.83297682  0.16860357  0.16778376  1
  Ni  Ni20  1  0.66836107  1.00101688  0.33515879  1
  Ni  Ni21  1  0.66861233  0.33474376  1.00081717  1
  Ni  Ni22  1  0.83407469  0.49998433  0.16797641  1
  Ni  Ni23  1  0.66946160  0.33485948  0.33506838  1
  Ni  Ni24  1  0.66977057  0.66748004  0.00283320  1
  Ni  Ni25  1  0.83392918  0.83572004  0.16660671  1
  Ni  Ni26  1  0.66726561  0.66838443  0.33458287  1
  Fe  Fe27  1  0.16708744  0.16758382  0.50239721  1
  Ni  Ni28  1  0.00182184  1.00135759  0.66893629  1
  Ni  Ni29  1  0.16710700  0.16870066  0.83342881  1
  Ni  Ni30  1  0.16773817  0.50196967  0.50353602  1
  Ni  Ni31  1  0.00186156  0.33480639  0.66735001  1
  Ni  Ni32  1  0.16694913  0.50121117  0.83488807  1
  Ni  Ni33  1  0.16869123  0.83540794  0.50244575  1
  Fe  Fe34  1  0.00240770  0.66764999  0.66816275  1
  Ni  Ni35  1  0.16596061  0.83424153  0.83419641  1
  Ni  Ni36  1  0.50352963  0.16712878  0.50285177  1
  Ni  Ni37  1  0.33372154  0.00289992  0.66669677  1
  Ni  Ni38  1  0.50239578  0.16969741  0.83373621  1
  Ni  Ni39  1  0.50139167  0.50082332  0.50183318  1
  Ni  Ni40  1  0.33426048  0.33407354  0.66926662  1
  Ni  Ni41  1  0.50168734  0.49900738  0.83582763  1
  Ni  Ni42  1  0.50056101  0.83619630  0.50029773  1
  Fe  Fe43  1  0.33317061  0.66713564  0.66760009  1
  Cr  Cr44  1  0.50094597  0.83465388  0.83418547  1
  Ni  Ni45  1  0.83441548  0.16810401  0.50184208  1
  Ni  Ni46  1  0.66876486  0.00280573  0.66747834  1
  Fe  Fe47  1  0.83519049  0.16957237  0.83413488  1
  Ni  Ni48  1  0.83481708  0.49876958  0.50106876  1
  Ni  Ni49  1  0.66819804  0.33417793  0.66830477  1
  Ni  Ni50  1  0.83563694  0.49987719  0.83509717  1
  Ni  Ni51  1  0.83510346  0.83733019  0.50216449  1
  Cr  Cr52  1  0.67007950  0.66687930  0.66623327  1
  Fe  Fe53  1  0.83598927  0.83482579  0.83546549  1
" 