7857,Ni78Fe2Cr18_18,-231.945692837756, 159.2334072852,Ni78Fe2Cr18,"# generated using pymatgen
 data_Cr11FeNi42
_symmetry_space_group_name_H-M   'P 1'
_cell_length_a   7.47243308
_cell_length_b   7.47243308
_cell_length_c   10.56761621
_cell_angle_alpha   90.00000000
_cell_angle_beta   90.00000000
_cell_angle_gamma   90.00000000
_symmetry_Int_Tables_number   1
_chemical_formula_structural   Cr11FeNi42
_chemical_formula_sum   'Cr11 Fe1 Ni42'
_cell_volume   590.06669341
_cell_formula_units_Z   1
loop_
 _symmetry_equiv_pos_site_id
 _symmetry_equiv_pos_as_xyz
  1  'x, y, z'
loop_
 _atom_site_type_symbol
 _atom_site_label
 _atom_site_symmetry_multiplicity
 _atom_site_fract_x
 _atom_site_fract_y
 _atom_site_fract_z
 _atom_site_occupancy
  Ni  Ni0  1  0.00044390  -0.00011148  0.00011619  1
  Ni  Ni1  1  0.16609400  0.16604883  0.16647068  1
  Ni  Ni2  1  0.99949515  0.00187790  0.33358994  1
  Ni  Ni3  1  0.00158558  0.33221889  0.00191433  1
  Ni  Ni4  1  0.16439557  0.49800529  0.16607334  1
  Ni  Ni5  1  -0.00024015  0.33085044  0.33298204  1
  Ni  Ni6  1  0.00045089  0.66688836  0.00038371  1
  Ni  Ni7  1  0.16419473  0.83481938  0.16642602  1
  Cr  Cr8  1  -0.00005949  0.66549906  0.33202598  1
  Ni  Ni9  1  0.33192142  0.00288497  0.99829979  1
  Ni  Ni10  1  0.49964818  0.16650633  0.16592191  1
  Ni  Ni11  1  0.33077443  0.00077810  0.33315005  1
  Ni  Ni12  1  0.33161590  0.32993916  0.99807611  1
  Cr  Cr13  1  0.49796749  0.49557259  0.16797030  1
  Ni  Ni14  1  0.33072172  0.33227850  0.33310869  1
  Cr  Cr15  1  0.33040147  0.66606604  0.99746835  1
  Cr  Cr16  1  0.49709072  0.83764008  0.16884848  1
  Ni  Ni17  1  0.33106422  0.66591151  0.33568098  1
  Ni  Ni18  1  0.66665523  0.00182742  0.99962770  1
  Ni  Ni19  1  0.83327420  0.16634659  0.16671579  1
  Ni  Ni20  1  0.66848100  0.00159754  0.33267065  1
  Ni  Ni21  1  0.66585960  0.33001327  0.00018041  1
  Ni  Ni22  1  0.83583735  0.49610557  0.16488273  1
  Ni  Ni23  1  0.66828551  0.33095386  0.33327788  1
  Cr  Cr24  1  0.66901782  0.66717683  0.99958379  1
  Ni  Ni25  1  0.83606505  0.83640315  0.16456505  1
  Cr  Cr26  1  0.66808655  0.66614919  0.33418986  1
  Ni  Ni27  1  0.16368753  0.16717581  0.49900868  1
  Ni  Ni28  1  0.99833998  -0.00017005  0.66500318  1
  Ni  Ni29  1  0.16669356  0.16731846  0.83362988  1
  Ni  Ni30  1  0.16590740  0.49809974  0.49952614  1
  Ni  Ni31  1  0.00266673  0.33262784  0.66381500  1
  Ni  Ni32  1  0.16612260  0.49793378  0.83319452  1
  Ni  Ni33  1  0.16496844  0.83385191  0.49846691  1
  Ni  Ni34  1  0.99828419  0.66657073  0.66591062  1
  Ni  Ni35  1  0.16320770  0.83404855  0.83400337  1
  Cr  Cr36  1  0.49975946  0.16632817  0.49811347  1
  Cr  Cr37  1  0.33143489  0.00217474  0.66823890  1
  Ni  Ni38  1  0.49903631  0.16699843  0.83465662  1
  Ni  Ni39  1  0.49946796  0.49924099  0.49971638  1
  Ni  Ni40  1  0.33112055  0.33373204  0.66775605  1
  Ni  Ni41  1  0.49915747  0.49675896  0.83149136  1
  Ni  Ni42  1  0.50032168  0.83243324  0.49814461  1
  Cr  Cr43  1  0.33312656  0.66530719  0.66613909  1
  Ni  Ni44  1  0.50123845  0.83493259  0.83291771  1
  Ni  Ni45  1  0.83479104  0.16610354  0.49967230  1
  Ni  Ni46  1  0.66776016  0.99720672  0.66637248  1
  Cr  Cr47  1  0.83440665  0.16496338  0.83177318  1
  Ni  Ni48  1  0.83343929  0.49780433  0.50161654  1
  Fe  Fe49  1  0.66613396  0.33293280  0.66531506  1
  Cr  Cr50  1  0.83531194  0.49974732  0.83230964  1
  Ni  Ni51  1  0.83345247  0.83469219  0.50192018  1
  Ni  Ni52  1  0.66724266  0.66763581  0.66541425  1
  Ni  Ni53  1  0.83433311  0.83384419  0.83221391  1
" 