3321,Ni78Fe22_2,-232.87617571204, 179.469386599,Ni78Fe22,"# generated using pymatgen
 data_Fe7Ni2
_symmetry_space_group_name_H-M   'P 1'
_cell_length_a   7.39631141
_cell_length_b   7.39631141
_cell_length_c   10.45996391
_cell_angle_alpha   90.00000000
_cell_angle_beta   90.00000000
_cell_angle_gamma   90.00000000
_symmetry_Int_Tables_number   1
_chemical_formula_structural   Fe7Ni2
_chemical_formula_sum   'Fe42 Ni12'
_cell_volume   572.21674531
_cell_formula_units_Z   6
loop_
 _symmetry_equiv_pos_site_id
 _symmetry_equiv_pos_as_xyz
  1  'x, y, z'
loop_
 _atom_site_type_symbol
 _atom_site_label
 _atom_site_symmetry_multiplicity
 _atom_site_fract_x
 _atom_site_fract_y
 _atom_site_fract_z
 _atom_site_occupancy
  Fe  Fe0  1  1.00454880  1.00438543  0.00585414  1
  Ni  Ni1  1  0.17109172  0.17146609  0.17157588  1
  Ni  Ni2  1  1.00465464  0.00546657  0.33819560  1
  Fe  Fe3  1  1.00478082  0.33772887  0.00553467  1
  Fe  Fe4  1  0.17051642  0.50399056  0.17133655  1
  Ni  Ni5  1  0.00505451  0.33763482  0.33871305  1
  Fe  Fe6  1  1.00448413  0.67222803  1.00467082  1
  Fe  Fe7  1  0.17068288  0.83926888  0.17213923  1
  Fe  Fe8  1  0.00576685  0.67200785  0.33828674  1
  Fe  Fe9  1  0.33844208  1.00445455  0.00521593  1
  Fe  Fe10  1  0.50517618  0.17059094  0.17205228  1
  Ni  Ni11  1  0.33794536  0.00505803  0.33790549  1
  Fe  Fe12  1  0.33851817  0.33797367  0.00530908  1
  Fe  Fe13  1  0.50484795  0.50441541  0.17182727  1
  Ni  Ni14  1  0.33754047  0.33803982  0.33839989  1
  Ni  Ni15  1  0.33806966  0.67103178  1.00461753  1
  Fe  Fe16  1  0.50518741  0.83934051  0.17077395  1
  Fe  Fe17  1  0.33704435  0.67135859  0.33813324  1
  Ni  Ni18  1  0.67217608  0.00482677  1.00470765  1
  Ni  Ni19  1  0.83891689  0.17056089  0.17128431  1
  Fe  Fe20  1  0.67176570  0.00609399  0.33725005  1
  Fe  Fe21  1  0.67105339  0.33803018  1.00467740  1
  Fe  Fe22  1  0.83897726  0.50399829  0.17161047  1
  Fe  Fe23  1  0.67113258  0.33697598  0.33860466  1
  Fe  Fe24  1  0.67111912  0.67215139  0.00494125  1
  Ni  Ni25  1  0.83839505  0.83858055  0.17107144  1
  Fe  Fe26  1  0.67152649  0.67127387  0.33819940  1
  Fe  Fe27  1  0.17255252  0.17150214  0.50338253  1
  Fe  Fe28  1  0.00501525  1.00438076  0.67083461  1
  Fe  Fe29  1  0.17136394  0.17161872  0.83857498  1
  Fe  Fe30  1  0.17246520  0.50433864  0.50457599  1
  Fe  Fe31  1  1.00461502  0.33818997  0.67133641  1
  Fe  Fe32  1  0.17159618  0.50500639  0.83844517  1
  Ni  Ni33  1  0.17059241  0.83813384  0.50444812  1
  Fe  Fe34  1  0.00492862  0.67177471  0.67137900  1
  Fe  Fe35  1  0.17177608  0.83771500  0.83754854  1
  Ni  Ni36  1  0.50480621  0.17303601  0.50444676  1
  Fe  Fe37  1  0.33802545  0.00478810  0.67050459  1
  Fe  Fe38  1  0.50509800  0.17112006  0.83763586  1
  Ni  Ni39  1  0.50480275  0.50358276  0.50535535  1
  Fe  Fe40  1  0.33874742  0.33810555  0.67061482  1
  Fe  Fe41  1  0.50445591  0.50510279  0.83780930  1
  Fe  Fe42  1  0.50405798  0.83827301  0.50479547  1
  Fe  Fe43  1  0.33802641  0.67145309  0.67176812  1
  Fe  Fe44  1  0.50477804  0.83812074  0.83876897  1
  Fe  Fe45  1  0.83802667  0.17152537  0.50412166  1
  Fe  Fe46  1  0.67129672  0.00510967  0.67209589  1
  Fe  Fe47  1  0.83789069  0.17130108  0.83881126  1
  Fe  Fe48  1  0.83779855  0.50463588  0.50488904  1
  Fe  Fe49  1  0.67098750  0.33819298  0.67106709  1
  Fe  Fe50  1  0.83829012  0.50469208  0.83785506  1
  Fe  Fe51  1  0.83763209  0.83818680  0.50425345  1
  Fe  Fe52  1  0.67138396  0.67104707  0.67120865  1
  Fe  Fe53  1  0.83779562  0.83835468  0.83880557  1
" 