1261,Ni78Fe11Cr10_8,-237.142106967824, 184.931027110456,Ni78Fe11Cr10,"# generated using pymatgen
 data_CrFeNi7
_symmetry_space_group_name_H-M   'P 1'
_cell_length_a   7.44467519
_cell_length_b   7.44467519
_cell_length_c   10.52836063
_cell_angle_alpha   90.00000000
_cell_angle_beta   90.00000000
_cell_angle_gamma   90.00000000
_symmetry_Int_Tables_number   1
_chemical_formula_structural   CrFeNi7
_chemical_formula_sum   'Cr6 Fe6 Ni42'
_cell_volume   583.51531797
_cell_formula_units_Z   6
loop_
 _symmetry_equiv_pos_site_id
 _symmetry_equiv_pos_as_xyz
  1  'x, y, z'
loop_
 _atom_site_type_symbol
 _atom_site_label
 _atom_site_symmetry_multiplicity
 _atom_site_fract_x
 _atom_site_fract_y
 _atom_site_fract_z
 _atom_site_occupancy
  Ni  Ni0  1  1.00148783  1.00044483  0.00244092  1
  Ni  Ni1  1  0.16852662  0.16581576  0.17016119  1
  Ni  Ni2  1  1.00039643  1.00086539  0.33436880  1
  Cr  Cr3  1  0.00153920  0.33385298  0.00249136  1
  Ni  Ni4  1  0.16835560  0.50319788  0.17001723  1
  Fe  Fe5  1  0.00257201  0.33432469  0.33442785  1
  Ni  Ni6  1  0.00373310  0.66938857  0.00257892  1
  Ni  Ni7  1  0.16843048  0.83544220  0.16819613  1
  Ni  Ni8  1  0.00191811  0.66930484  0.33474073  1
  Ni  Ni9  1  0.33527557  0.99981874  0.00151710  1
  Ni  Ni10  1  0.50187772  0.16707380  0.16918579  1
  Ni  Ni11  1  0.33515123  1.00134149  0.33445903  1
  Cr  Cr12  1  0.33517037  0.33406134  1.00143179  1
  Ni  Ni13  1  0.50190607  0.50193100  0.16909391  1
  Ni  Ni14  1  0.33474061  0.33568006  0.33490917  1
  Ni  Ni15  1  0.33325916  0.66998218  0.00269159  1
  Ni  Ni16  1  0.50075154  0.83556684  0.16810179  1
  Ni  Ni17  1  0.33499299  0.66748613  0.33469720  1
  Ni  Ni18  1  0.66768908  0.00294213  0.00191601  1
  Ni  Ni19  1  0.83404923  0.16708010  0.16866502  1
  Ni  Ni20  1  0.66894239  1.00071241  0.33534712  1
  Ni  Ni21  1  0.66831268  0.33229484  0.00324860  1
  Ni  Ni22  1  0.83415052  0.50202158  0.16894790  1
  Fe  Fe23  1  0.66696069  0.33415977  0.33403438  1
  Fe  Fe24  1  0.66741243  0.66973552  0.00381607  1
  Ni  Ni25  1  0.83524718  0.83542025  0.16869153  1
  Ni  Ni26  1  0.66767231  0.66967207  0.33374451  1
  Fe  Fe27  1  0.16840139  0.16722073  0.50140066  1
  Ni  Ni28  1  0.00165045  0.00304257  0.66765256  1
  Ni  Ni29  1  0.16829370  0.16576154  0.83295594  1
  Ni  Ni30  1  0.17026074  0.50146157  0.50201198  1
  Ni  Ni31  1  0.00313872  0.33259097  0.66819193  1
  Ni  Ni32  1  0.16835610  0.50330450  0.83255874  1
  Ni  Ni33  1  0.16898274  0.83534555  0.50132807  1
  Fe  Fe34  1  0.00407420  0.66980983  0.66689205  1
  Ni  Ni35  1  0.17002513  0.83560071  0.83493488  1
  Fe  Fe36  1  0.50093737  0.16752843  0.50157062  1
  Ni  Ni37  1  0.33485444  1.00081958  0.66847793  1
  Ni  Ni38  1  0.50224294  0.16582558  0.83338112  1
  Ni  Ni39  1  0.49985244  0.50148265  0.50145928  1
  Ni  Ni40  1  0.33375748  0.33482943  0.66776181  1
  Cr  Cr41  1  0.50123203  0.50241862  0.83429498  1
  Ni  Ni42  1  0.50075114  0.83474078  0.50157361  1
  Ni  Ni43  1  0.33483890  0.66872403  0.66734911  1
  Ni  Ni44  1  0.49929866  0.83700790  0.83474077  1
  Ni  Ni45  1  0.83498408  0.16666165  0.50198089  1
  Ni  Ni46  1  0.66802611  0.00174227  0.66728449  1
  Ni  Ni47  1  0.83403076  0.16750369  0.83418374  1
  Cr  Cr48  1  0.83453843  0.50112490  0.50206709  1
  Ni  Ni49  1  0.66760169  0.33241288  0.66730108  1
  Cr  Cr50  1  0.83514416  0.50045123  0.83342726  1
  Ni  Ni51  1  0.83491434  0.83717300  0.50151416  1
  Ni  Ni52  1  0.66557064  0.67029596  0.66670861  1
  Cr  Cr53  1  0.83485933  0.83664128  0.83421420  1
" 