3756,Ni78Fe2Cr18_7,-231.750158533374, 157.043706055,Ni78Fe2Cr18,"# generated using pymatgen
 data_Cr11FeNi42
_symmetry_space_group_name_H-M   'P 1'
_cell_length_a   7.47532512
_cell_length_b   7.47532512
_cell_length_c   10.57170617
_cell_angle_alpha   90.00000000
_cell_angle_beta   90.00000000
_cell_angle_gamma   90.00000000
_symmetry_Int_Tables_number   1
_chemical_formula_structural   Cr11FeNi42
_chemical_formula_sum   'Cr11 Fe1 Ni42'
_cell_volume   590.75207540
_cell_formula_units_Z   1
loop_
 _symmetry_equiv_pos_site_id
 _symmetry_equiv_pos_as_xyz
  1  'x, y, z'
loop_
 _atom_site_type_symbol
 _atom_site_label
 _atom_site_symmetry_multiplicity
 _atom_site_fract_x
 _atom_site_fract_y
 _atom_site_fract_z
 _atom_site_occupancy
  Ni  Ni0  1  0.99875570  -0.00029095  0.99902977  1
  Ni  Ni1  1  0.16709518  0.16291114  0.16502166  1
  Ni  Ni2  1  0.99863565  0.99727337  0.33321642  1
  Cr  Cr3  1  0.00041101  0.33207285  0.99815947  1
  Ni  Ni4  1  0.16733097  0.50120336  0.16591408  1
  Cr  Cr5  1  0.99753060  0.33216396  0.33386640  1
  Ni  Ni6  1  0.99891712  0.66685852  0.99789033  1
  Ni  Ni7  1  0.16669286  0.83416059  0.16739203  1
  Ni  Ni8  1  0.00135814  0.66768341  0.33461126  1
  Ni  Ni9  1  0.33351342  0.00254201  0.00109679  1
  Ni  Ni10  1  0.50016352  0.16532813  0.16474115  1
  Ni  Ni11  1  0.33343268  0.99536978  0.33094187  1
  Ni  Ni12  1  0.33383873  0.33066887  -0.00018993  1
  Ni  Ni13  1  0.50004209  0.49933361  0.16628484  1
  Cr  Cr14  1  0.33353449  0.33492392  0.33039200  1
  Cr  Cr15  1  0.33220849  0.66595648  0.00274779  1
  Ni  Ni16  1  0.49931381  0.83367257  0.16713950  1
  Ni  Ni17  1  0.33325740  0.66810216  0.33308989  1
  Ni  Ni18  1  0.66628487  0.00105864  0.99891449  1
  Ni  Ni19  1  0.83109230  0.16432946  0.16710495  1
  Ni  Ni20  1  0.66621227  0.99894853  0.33304499  1
  Ni  Ni21  1  0.66506498  0.33057473  -0.00023827  1
  Cr  Cr22  1  0.83050099  0.50055675  0.16598323  1
  Ni  Ni23  1  0.66602490  0.33246004  0.33283217  1
  Ni  Ni24  1  0.66732735  0.66662322  0.99798928  1
  Cr  Cr25  1  0.83342593  0.83317041  0.16486865  1
  Ni  Ni26  1  0.66422546  0.66676808  0.33559085  1
  Cr  Cr27  1  0.16490859  0.16356774  0.50261567  1
  Ni  Ni28  1  0.99649300  0.99891338  0.66617540  1
  Ni  Ni29  1  0.16697708  0.16662100  0.83122366  1
  Ni  Ni30  1  0.16601375  0.50263193  0.50162664  1
  Ni  Ni31  1  0.99756004  0.33409192  0.66693386  1
  Ni  Ni32  1  0.16447673  0.49791508  0.83070171  1
  Ni  Ni33  1  0.16585074  0.83126447  0.49890063  1
  Ni  Ni34  1  0.99909326  0.66541549  0.66563635  1
  Cr  Cr35  1  0.16416416  0.83408583  0.83219037  1
  Cr  Cr36  1  0.50031148  0.16589783  0.50074380  1
  Ni  Ni37  1  0.33373255  0.99833286  0.66641065  1
  Ni  Ni38  1  0.49940601  0.16640034  0.83272181  1
  Ni  Ni39  1  0.50071747  0.50169363  0.50015146  1
  Ni  Ni40  1  0.33228539  0.33454742  0.66793057  1
  Cr  Cr41  1  0.50049599  0.49710948  0.83187703  1
  Ni  Ni42  1  0.49954874  0.83145963  0.49960991  1
  Ni  Ni43  1  0.33113642  0.66551910  0.66229255  1
  Cr  Cr44  1  0.50160136  0.83526929  0.83166351  1
  Ni  Ni45  1  0.83152627  0.16521222  0.49949984  1
  Ni  Ni46  1  0.66796959  0.00007746  0.66615655  1
  Ni  Ni47  1  0.83198041  0.16541880  0.83178309  1
  Ni  Ni48  1  0.83178739  0.50058675  0.50029720  1
  Ni  Ni49  1  0.66817579  0.33163520  0.66576844  1
  Ni  Ni50  1  0.83346650  0.50021984  0.83218992  1
  Ni  Ni51  1  0.83309465  0.83248197  0.49972198  1
  Fe  Fe52  1  0.66784241  0.66651279  0.66457443  1
  Ni  Ni53  1  0.83329594  0.83279748  0.83326990  1
" 