1212,Ni78Fe11Cr9_19,-237.180791797174, 183.831950483866,Ni78Fe11Cr9,"# generated using pymatgen
 data_CrFeNi7
_symmetry_space_group_name_H-M   'P 1'
_cell_length_a   7.44735681
_cell_length_b   7.44735681
_cell_length_c   10.53215301
_cell_angle_alpha   90.00000000
_cell_angle_beta   90.00000000
_cell_angle_gamma   90.00000000
_symmetry_Int_Tables_number   1
_chemical_formula_structural   CrFeNi7
_chemical_formula_sum   'Cr6 Fe6 Ni42'
_cell_volume   584.14610285
_cell_formula_units_Z   6
loop_
 _symmetry_equiv_pos_site_id
 _symmetry_equiv_pos_as_xyz
  1  'x, y, z'
loop_
 _atom_site_type_symbol
 _atom_site_label
 _atom_site_symmetry_multiplicity
 _atom_site_fract_x
 _atom_site_fract_y
 _atom_site_fract_z
 _atom_site_occupancy
  Fe  Fe0  1  0.00158750  1.00051765  1.00095425  1
  Ni  Ni1  1  0.16980739  0.16883159  0.16850027  1
  Ni  Ni2  1  0.00226820  0.00175334  0.33526138  1
  Ni  Ni3  1  0.00364571  0.33703798  0.00144834  1
  Ni  Ni4  1  0.16893084  0.49994789  0.16680596  1
  Ni  Ni5  1  0.00262354  0.33335286  0.33446463  1
  Ni  Ni6  1  1.00032390  0.66743516  0.00168849  1
  Ni  Ni7  1  0.16899172  0.83518822  0.16724106  1
  Cr  Cr8  1  1.00085529  0.66873097  0.33420188  1
  Ni  Ni9  1  0.33561002  0.00185763  0.00212970  1
  Ni  Ni10  1  0.49744735  0.16641657  0.16753042  1
  Ni  Ni11  1  0.33409977  1.00039010  0.33384442  1
  Ni  Ni12  1  0.33310733  0.33359385  0.00232719  1
  Ni  Ni13  1  0.49888020  0.50291953  0.16832263  1
  Ni  Ni14  1  0.33348691  0.33445706  0.33230924  1
  Fe  Fe15  1  0.33529363  0.66782319  0.00191203  1
  Ni  Ni16  1  0.50123435  0.83463091  0.16816745  1
  Ni  Ni17  1  0.33654329  0.66911997  0.33335725  1
  Ni  Ni18  1  0.66612871  0.99853278  1.00082659  1
  Cr  Cr19  1  0.83634549  0.16630567  0.16806565  1
  Ni  Ni20  1  0.66759697  0.99869478  0.33421616  1
  Cr  Cr21  1  0.66697847  0.33512503  1.00057237  1
  Ni  Ni22  1  0.83615320  0.50373063  0.16702685  1
  Cr  Cr23  1  0.66803133  0.33591877  0.33448344  1
  Ni  Ni24  1  0.66957199  0.66993004  0.00258313  1
  Ni  Ni25  1  0.83373937  0.83375285  0.16689064  1
  Fe  Fe26  1  0.66613709  0.66966914  0.33460309  1
  Ni  Ni27  1  0.16572986  0.16648279  0.50093933  1
  Ni  Ni28  1  1.00124175  1.00097881  0.66745373  1
  Fe  Fe29  1  0.16830425  0.16838365  0.83444183  1
  Cr  Cr30  1  0.16904759  0.50017010  0.50217950  1
  Ni  Ni31  1  0.99976961  0.33430885  0.66805106  1
  Fe  Fe32  1  0.16767143  0.50099805  0.83480823  1
  Ni  Ni33  1  0.16863506  0.83718864  0.50250644  1
  Ni  Ni34  1  1.00016423  0.66867803  0.66868042  1
  Fe  Fe35  1  0.16798685  0.83458627  0.83406275  1
  Cr  Cr36  1  0.50029523  0.16718093  0.50231255  1
  Ni  Ni37  1  0.33411640  1.00036017  0.66799165  1
  Ni  Ni38  1  0.50048689  0.16724628  0.83408933  1
  Ni  Ni39  1  0.50179344  0.50401489  0.50235413  1
  Ni  Ni40  1  0.33532854  0.33466894  0.66932776  1
  Ni  Ni41  1  0.50016070  0.50175381  0.83328982  1
  Ni  Ni42  1  0.50124767  0.83292140  0.50127528  1
  Ni  Ni43  1  0.33555279  0.66893816  0.66878760  1
  Ni  Ni44  1  0.50143468  0.83496367  0.83452325  1
  Ni  Ni45  1  0.83780248  0.16702717  0.50247901  1
  Ni  Ni46  1  0.66860736  1.00075504  0.66892113  1
  Ni  Ni47  1  0.83542959  0.16731107  0.83330751  1
  Ni  Ni48  1  0.83353652  0.50110959  0.50323490  1
  Ni  Ni49  1  0.66886634  0.33574661  0.66892984  1
  Ni  Ni50  1  0.83588187  0.50181889  0.83370906  1
  Ni  Ni51  1  0.83408213  0.83583070  0.50215424  1
  Ni  Ni52  1  0.66824795  0.66746477  0.66691950  1
  Ni  Ni53  1  0.83454717  0.83483654  0.83492361  1
" 