5301,Ni78Fe2Cr18_16,-231.825841279549, 158.609661636128,Ni78Fe2Cr18,"# generated using pymatgen
 data_Cr11FeNi42
_symmetry_space_group_name_H-M   'P 1'
_cell_length_a   7.47311681
_cell_length_b   7.47311681
_cell_length_c   10.56858315
_cell_angle_alpha   90.00000000
_cell_angle_beta   90.00000000
_cell_angle_gamma   90.00000000
_symmetry_Int_Tables_number   1
_chemical_formula_structural   Cr11FeNi42
_chemical_formula_sum   'Cr11 Fe1 Ni42'
_cell_volume   590.22868168
_cell_formula_units_Z   1
loop_
 _symmetry_equiv_pos_site_id
 _symmetry_equiv_pos_as_xyz
  1  'x, y, z'
loop_
 _atom_site_type_symbol
 _atom_site_label
 _atom_site_symmetry_multiplicity
 _atom_site_fract_x
 _atom_site_fract_y
 _atom_site_fract_z
 _atom_site_occupancy
  Cr  Cr0  1  0.99934163  0.99948722  0.99926138  1
  Ni  Ni1  1  0.16732570  0.16708948  0.16566863  1
  Cr  Cr2  1  0.00058428  0.99842789  0.33184063  1
  Ni  Ni3  1  0.00070289  0.33344849  0.99851164  1
  Ni  Ni4  1  0.16576670  0.49932833  0.16460272  1
  Ni  Ni5  1  0.99931685  0.33432210  0.33324081  1
  Ni  Ni6  1  0.00064490  0.66565809  0.99901631  1
  Ni  Ni7  1  0.16568048  0.83236394  0.16566628  1
  Ni  Ni8  1  0.99818492  0.66585499  0.33404600  1
  Ni  Ni9  1  0.33257378  -0.00026654  -0.00004720  1
  Ni  Ni10  1  0.50028358  0.16659982  0.16604867  1
  Ni  Ni11  1  0.33340875  0.00080204  0.33411102  1
  Ni  Ni12  1  0.33234978  0.33422941  0.00052997  1
  Ni  Ni13  1  0.49953638  0.49750852  0.16442650  1
  Cr  Cr14  1  0.33348547  0.33176041  0.33295956  1
  Ni  Ni15  1  0.33234894  0.66481889  0.99827784  1
  Cr  Cr16  1  0.50004358  0.83423491  0.16525166  1
  Cr  Cr17  1  0.33243127  0.66653037  0.33343395  1
  Ni  Ni18  1  0.66656815  -0.00032479  0.99943610  1
  Ni  Ni19  1  0.83117243  0.16651454  0.16611933  1
  Ni  Ni20  1  0.66530667  -0.00033019  0.33320696  1
  Ni  Ni21  1  0.66572931  0.33322325  -0.00018434  1
  Cr  Cr22  1  0.83353658  0.49957464  0.16712285  1
  Ni  Ni23  1  0.66628915  0.33302706  0.33300252  1
  Ni  Ni24  1  0.66578825  0.66588278  0.99771224  1
  Ni  Ni25  1  0.83299069  0.83311378  0.16667171  1
  Ni  Ni26  1  0.66848582  0.66608468  0.33511205  1
  Ni  Ni27  1  0.17018338  0.16649802  0.49968861  1
  Cr  Cr28  1  0.00031001  0.99743595  0.66768084  1
  Ni  Ni29  1  0.16672315  0.16732428  0.83342473  1
  Ni  Ni30  1  0.16486946  0.50020963  0.50030541  1
  Cr  Cr31  1  0.00205293  0.33447197  0.66727359  1
  Ni  Ni32  1  0.16612342  0.50020967  0.83387192  1
  Ni  Ni33  1  0.16735082  0.83207492  0.50006922  1
  Ni  Ni34  1  0.99912477  0.66681430  0.66572016  1
  Ni  Ni35  1  0.16753772  0.83124792  0.83304514  1
  Ni  Ni36  1  0.49763234  0.16418828  0.49913834  1
  Ni  Ni37  1  0.33340876  0.99939704  0.66471780  1
  Cr  Cr38  1  0.49900716  0.16479229  0.83354956  1
  Ni  Ni39  1  0.50063485  0.50021005  0.50030571  1
  Ni  Ni40  1  0.33211223  0.33309820  0.66509505  1
  Ni  Ni41  1  0.49917807  0.50202643  0.83404755  1
  Ni  Ni42  1  0.50046274  0.83438404  0.50062112  1
  Fe  Fe43  1  0.33331899  0.66653296  0.66659607  1
  Ni  Ni44  1  0.50007290  0.83173865  0.83266509  1
  Cr  Cr45  1  0.83121492  0.16688951  0.49788062  1
  Ni  Ni46  1  0.66421888  0.99554478  0.66613899  1
  Ni  Ni47  1  0.83298640  0.16642954  0.83503454  1
  Ni  Ni48  1  0.83327760  0.50304100  0.49758272  1
  Cr  Cr49  1  0.66429532  0.33501096  0.66621747  1
  Ni  Ni50  1  0.83347969  0.50121269  0.83428758  1
  Ni  Ni51  1  0.83096848  0.82907339  0.49940592  1
  Ni  Ni52  1  0.66647924  0.66811214  0.66595834  1
  Ni  Ni53  1  0.83117114  0.83113957  0.83270438  1
" 