7577,Ni78Fe11Cr10_2,-237.045865937809, 184.294059050989,Ni78Fe11Cr10,"# generated using pymatgen
 data_CrFeNi7
_symmetry_space_group_name_H-M   'P 1'
_cell_length_a   7.44762859
_cell_length_b   7.44762859
_cell_length_c   10.53253736
_cell_angle_alpha   90.00000000
_cell_angle_beta   90.00000000
_cell_angle_gamma   90.00000000
_symmetry_Int_Tables_number   1
_chemical_formula_structural   CrFeNi7
_chemical_formula_sum   'Cr6 Fe6 Ni42'
_cell_volume   584.21005752
_cell_formula_units_Z   6
loop_
 _symmetry_equiv_pos_site_id
 _symmetry_equiv_pos_as_xyz
  1  'x, y, z'
loop_
 _atom_site_type_symbol
 _atom_site_label
 _atom_site_symmetry_multiplicity
 _atom_site_fract_x
 _atom_site_fract_y
 _atom_site_fract_z
 _atom_site_occupancy
  Cr  Cr0  1  0.00168524  1.00051007  0.00161667  1
  Ni  Ni1  1  0.16905463  0.17001258  0.16863173  1
  Cr  Cr2  1  0.00143675  0.00246893  0.33407160  1
  Ni  Ni3  1  1.00114631  0.33679220  0.00170615  1
  Ni  Ni4  1  0.16608620  0.50018587  0.16781274  1
  Ni  Ni5  1  0.00315224  0.33495468  0.33463889  1
  Ni  Ni6  1  0.00134874  0.66629841  0.00198656  1
  Ni  Ni7  1  0.17014276  0.83371232  0.16778142  1
  Cr  Cr8  1  0.00147537  0.66664607  0.33325975  1
  Ni  Ni9  1  0.33611604  0.00147222  0.00162777  1
  Ni  Ni10  1  0.50066148  0.16461861  0.16730455  1
  Ni  Ni11  1  0.33618137  0.00156986  0.33421872  1
  Ni  Ni12  1  0.33407211  0.33396145  1.00084633  1
  Cr  Cr13  1  0.50039556  0.50253023  0.16832046  1
  Ni  Ni14  1  0.33217488  0.33374077  0.33527445  1
  Ni  Ni15  1  0.33321491  0.66847679  1.00039037  1
  Ni  Ni16  1  0.50200190  0.83668059  0.16837572  1
  Ni  Ni17  1  0.33503844  0.66859977  0.33567713  1
  Ni  Ni18  1  0.66651815  0.00167434  0.00186751  1
  Ni  Ni19  1  0.83419506  0.16867161  0.16828746  1
  Ni  Ni20  1  0.66619797  0.99987477  0.33416026  1
  Ni  Ni21  1  0.66869154  0.33389315  1.00052510  1
  Ni  Ni22  1  0.83716020  0.50152553  0.16599698  1
  Cr  Cr23  1  0.66814123  0.33378651  0.33469662  1
  Ni  Ni24  1  0.66934703  0.66834284  1.00064971  1
  Ni  Ni25  1  0.83176747  0.83371385  0.16803132  1
  Ni  Ni26  1  0.66741065  0.67022528  0.33564012  1
  Ni  Ni27  1  0.16885685  0.16986243  0.50195671  1
  Ni  Ni28  1  0.00138019  0.00231670  0.66790361  1
  Ni  Ni29  1  0.16828571  0.16923214  0.83332422  1
  Ni  Ni30  1  0.16822311  0.49886102  0.50042296  1
  Fe  Fe31  1  0.00177209  0.33282314  0.66768376  1
  Ni  Ni32  1  0.16905088  0.50053732  0.83567851  1
  Fe  Fe33  1  0.17117604  0.83554707  0.50226811  1
  Cr  Cr34  1  0.00186578  0.66927862  0.66870749  1
  Ni  Ni35  1  0.16930047  0.83414258  0.83386010  1
  Ni  Ni36  1  0.50006008  0.16579653  0.50182004  1
  Ni  Ni37  1  0.33388899  0.00197059  0.66806503  1
  Ni  Ni38  1  0.50171230  0.16789673  0.83478663  1
  Fe  Fe39  1  0.49996837  0.50181043  0.50262042  1
  Ni  Ni40  1  0.33544075  0.33435722  0.66779061  1
  Ni  Ni41  1  0.50088564  0.50181062  0.83316793  1
  Ni  Ni42  1  0.50222701  0.83499626  0.50078171  1
  Ni  Ni43  1  0.33564428  0.66758106  0.66784481  1
  Ni  Ni44  1  0.50197270  0.83420403  0.83475511  1
  Fe  Fe45  1  0.83450093  0.16828146  0.50290863  1
  Ni  Ni46  1  0.66864343  0.00210539  0.66788477  1
  Ni  Ni47  1  0.83391434  0.16814642  0.83284500  1
  Ni  Ni48  1  0.83479989  0.50102271  0.50198241  1
  Ni  Ni49  1  0.66722564  0.33435506  0.66816806  1
  Fe  Fe50  1  0.83341213  0.50066608  0.83578252  1
  Fe  Fe51  1  0.83185134  0.83544306  0.50225403  1
  Ni  Ni52  1  0.66688805  0.66744886  0.66762301  1
  Ni  Ni53  1  0.83263885  0.83496725  0.83411777  1
" 