2238,Ni78Fe22_17,-233.358234042231, 188.322583043222,Ni78Fe22,"# generated using pymatgen
 data_Fe7Ni2
_symmetry_space_group_name_H-M   'P 1'
_cell_length_a   7.39973621
_cell_length_b   7.39973621
_cell_length_c   10.46480731
_cell_angle_alpha   90.00000000
_cell_angle_beta   90.00000000
_cell_angle_gamma   90.00000000
_symmetry_Int_Tables_number   1
_chemical_formula_structural   Fe7Ni2
_chemical_formula_sum   'Fe42 Ni12'
_cell_volume   573.01199351
_cell_formula_units_Z   6
loop_
 _symmetry_equiv_pos_site_id
 _symmetry_equiv_pos_as_xyz
  1  'x, y, z'
loop_
 _atom_site_type_symbol
 _atom_site_label
 _atom_site_symmetry_multiplicity
 _atom_site_fract_x
 _atom_site_fract_y
 _atom_site_fract_z
 _atom_site_occupancy
  Fe  Fe0  1  0.00610970  0.00595079  1.00404429  1
  Ni  Ni1  1  0.17141234  0.17076214  0.17075926  1
  Fe  Fe2  1  0.00493372  0.00477437  0.33832228  1
  Ni  Ni3  1  0.00519288  0.33834402  0.00472335  1
  Fe  Fe4  1  0.17118903  0.50423247  0.17076828  1
  Fe  Fe5  1  1.00424304  0.33810699  0.33707321  1
  Fe  Fe6  1  0.00516992  0.67038723  0.00477023  1
  Fe  Fe7  1  0.17138447  0.83797274  0.17122844  1
  Fe  Fe8  1  1.00401845  0.67076463  0.33796188  1
  Ni  Ni9  1  0.33836113  0.00500845  1.00435177  1
  Fe  Fe10  1  0.50423496  0.17110993  0.17034322  1
  Fe  Fe11  1  0.33780178  1.00447114  0.33677068  1
  Ni  Ni12  1  0.33712092  0.33747826  0.00519671  1
  Fe  Fe13  1  0.50426929  0.50442779  0.17165477  1
  Fe  Fe14  1  0.33788184  0.33779949  0.33761774  1
  Fe  Fe15  1  0.33768359  0.67101781  0.00477218  1
  Ni  Ni16  1  0.50435169  0.83797536  0.17102878  1
  Fe  Fe17  1  0.33840974  0.67137435  0.33812104  1
  Fe  Fe18  1  0.67016305  0.00539382  1.00404614  1
  Fe  Fe19  1  0.83805289  0.17130611  0.17122870  1
  Fe  Fe20  1  0.67090938  1.00424568  0.33816051  1
  Fe  Fe21  1  0.67079303  0.33761874  0.00454853  1
  Ni  Ni22  1  0.83788239  0.50490801  0.17118941  1
  Fe  Fe23  1  0.67152097  0.33871372  0.33834418  1
  Fe  Fe24  1  0.67079080  0.67063150  0.00515511  1
  Fe  Fe25  1  0.83785698  0.83794002  0.17129202  1
  Fe  Fe26  1  0.67121731  0.67068717  0.33779826  1
  Fe  Fe27  1  0.17091213  0.17207715  0.50461284  1
  Ni  Ni28  1  1.00362117  0.00455677  0.67123126  1
  Ni  Ni29  1  0.17195953  0.17056806  0.83749640  1
  Fe  Fe30  1  0.17137593  0.50470457  0.50455037  1
  Fe  Fe31  1  1.00396695  0.33693207  0.67163946  1
  Fe  Fe32  1  0.17179770  0.50322745  0.83832774  1
  Fe  Fe33  1  0.17091233  0.83686296  0.50477278  1
  Fe  Fe34  1  1.00374295  0.67209778  0.67091492  1
  Fe  Fe35  1  0.17163796  0.83911858  0.83764258  1
  Fe  Fe36  1  0.50543071  0.17210161  0.50527500  1
  Fe  Fe37  1  0.33780005  0.00491394  0.67216065  1
  Ni  Ni38  1  0.50305217  0.17056563  0.83807649  1
  Ni  Ni39  1  0.50604250  0.50510508  0.50454147  1
  Fe  Fe40  1  0.33818490  0.33665420  0.67185793  1
  Fe  Fe41  1  0.50366141  0.50337369  0.83744149  1
  Fe  Fe42  1  0.50527274  0.83699957  0.50410759  1
  Fe  Fe43  1  0.33810719  0.67207628  0.67075118  1
  Fe  Fe44  1  0.50412692  0.83927480  0.83846601  1
  Fe  Fe45  1  0.83730102  0.17164179  0.50499399  1
  Ni  Ni46  1  0.67176807  1.00419054  0.67075791  1
  Fe  Fe47  1  0.83802660  0.17083415  0.83742072  1
  Ni  Ni48  1  0.83713534  0.50510517  0.50522896  1
  Fe  Fe49  1  0.67149260  0.33723404  0.67075437  1
  Fe  Fe50  1  0.83818426  0.50339799  0.83826635  1
  Fe  Fe51  1  0.83745939  0.83745860  0.50515307  1
  Fe  Fe52  1  0.67179558  0.67171636  0.67069311  1
  Fe  Fe53  1  0.83788101  0.83941283  0.83719879  1
" 