3632,Ni78Fe11Cr10_3,-237.073750873628, 184.685490406733,Ni78Fe11Cr10,"# generated using pymatgen
 data_CrFeNi7
_symmetry_space_group_name_H-M   'P 1'
_cell_length_a   7.44556205
_cell_length_b   7.44556205
_cell_length_c   10.52961484
_cell_angle_alpha   90.00000000
_cell_angle_beta   90.00000000
_cell_angle_gamma   90.00000000
_symmetry_Int_Tables_number   1
_chemical_formula_structural   CrFeNi7
_chemical_formula_sum   'Cr6 Fe6 Ni42'
_cell_volume   583.72388009
_cell_formula_units_Z   6
loop_
 _symmetry_equiv_pos_site_id
 _symmetry_equiv_pos_as_xyz
  1  'x, y, z'
loop_
 _atom_site_type_symbol
 _atom_site_label
 _atom_site_symmetry_multiplicity
 _atom_site_fract_x
 _atom_site_fract_y
 _atom_site_fract_z
 _atom_site_occupancy
  Ni  Ni0  1  0.00172672  0.00188714  0.00153438  1
  Ni  Ni1  1  0.16790143  0.16753531  0.16772620  1
  Cr  Cr2  1  0.00211712  0.00298781  0.33392713  1
  Ni  Ni3  1  0.00174159  0.33521905  0.00189574  1
  Fe  Fe4  1  0.16587331  0.50190718  0.16780313  1
  Ni  Ni5  1  1.00108199  0.33649078  0.33437917  1
  Ni  Ni6  1  1.00055548  0.66721922  1.00068069  1
  Ni  Ni7  1  0.16821071  0.83466371  0.16727856  1
  Ni  Ni8  1  0.00167929  0.66583227  0.33584528  1
  Ni  Ni9  1  0.33415214  1.00106727  1.00024249  1
  Cr  Cr10  1  0.50063226  0.16849827  0.16720597  1
  Ni  Ni11  1  0.33408051  0.99964865  0.33666237  1
  Ni  Ni12  1  0.33232777  0.33451948  0.99974758  1
  Cr  Cr13  1  0.50258111  0.50194780  0.16777346  1
  Fe  Fe14  1  0.33229744  0.33383062  0.33547597  1
  Fe  Fe15  1  0.33402490  0.66912358  1.00026607  1
  Ni  Ni16  1  0.49977642  0.83353728  0.16812832  1
  Ni  Ni17  1  0.33312208  0.67029623  0.33388183  1
  Ni  Ni18  1  0.66850486  0.99982688  1.00110525  1
  Ni  Ni19  1  0.83641982  0.17043851  0.16596267  1
  Cr  Cr20  1  0.66822708  1.00053552  0.33469793  1
  Ni  Ni21  1  0.67001389  0.33559572  0.99885140  1
  Ni  Ni22  1  0.83511184  0.50204643  0.16894478  1
  Ni  Ni23  1  0.67228546  0.33558359  0.33631684  1
  Ni  Ni24  1  0.66891697  0.66891542  1.00105520  1
  Ni  Ni25  1  0.83610996  0.83192136  0.16646072  1
  Ni  Ni26  1  0.66920259  0.66807627  0.33483288  1
  Ni  Ni27  1  0.16900808  0.16805125  0.50188692  1
  Ni  Ni28  1  1.00116693  0.00339612  0.66828398  1
  Ni  Ni29  1  0.16815989  0.16741708  0.83455412  1
  Ni  Ni30  1  0.16628756  0.50134082  0.49973885  1
  Ni  Ni31  1  0.00222012  0.33484944  0.66793588  1
  Ni  Ni32  1  0.16701779  0.50040786  0.83624497  1
  Ni  Ni33  1  0.16694760  0.83510195  0.50169395  1
  Fe  Fe34  1  1.00130589  0.66843449  0.66850774  1
  Ni  Ni35  1  0.16647014  0.83670195  0.83552878  1
  Ni  Ni36  1  0.50028699  0.16806547  0.50206455  1
  Ni  Ni37  1  0.33491865  0.00291003  0.66774151  1
  Ni  Ni38  1  0.50086542  0.16820877  0.83448796  1
  Cr  Cr39  1  0.50258949  0.49992366  0.50036856  1
  Ni  Ni40  1  0.33202964  0.33351388  0.66845410  1
  Ni  Ni41  1  0.50250981  0.50019415  0.83599111  1
  Fe  Fe42  1  0.50132192  0.83548865  0.50194114  1
  Cr  Cr43  1  0.33484880  0.66779570  0.67081566  1
  Ni  Ni44  1  0.50233048  0.83583874  0.83572573  1
  Ni  Ni45  1  0.83479070  0.16941522  0.50267721  1
  Ni  Ni46  1  0.66821779  1.00025561  0.66811683  1
  Ni  Ni47  1  0.83523238  0.16752734  0.83542154  1
  Ni  Ni48  1  0.83586272  0.50229568  0.50167582  1
  Fe  Fe49  1  0.66851961  0.33291126  0.66904351  1
  Ni  Ni50  1  0.83461816  0.50196108  0.83391761  1
  Ni  Ni51  1  0.83646742  0.83279997  0.50279026  1
  Ni  Ni52  1  0.66972994  0.66914188  0.66862553  1
  Ni  Ni53  1  0.83551483  0.83481415  0.83499771  1
" 