5837,Ni78Fe11Cr10_16,-237.200250495081, 186.094970717338,Ni78Fe11Cr10,"# generated using pymatgen
 data_CrFeNi7
_symmetry_space_group_name_H-M   'P 1'
_cell_length_a   7.44716243
_cell_length_b   7.44716243
_cell_length_c   10.53187811
_cell_angle_alpha   90.00000000
_cell_angle_beta   90.00000000
_cell_angle_gamma   90.00000000
_symmetry_Int_Tables_number   1
_chemical_formula_structural   CrFeNi7
_chemical_formula_sum   'Cr6 Fe6 Ni42'
_cell_volume   584.10036473
_cell_formula_units_Z   6
loop_
 _symmetry_equiv_pos_site_id
 _symmetry_equiv_pos_as_xyz
  1  'x, y, z'
loop_
 _atom_site_type_symbol
 _atom_site_label
 _atom_site_symmetry_multiplicity
 _atom_site_fract_x
 _atom_site_fract_y
 _atom_site_fract_z
 _atom_site_occupancy
  Ni  Ni0  1  0.00185290  1.00099694  1.00133323  1
  Ni  Ni1  1  0.16711325  0.16742777  0.16708517  1
  Ni  Ni2  1  0.00196760  1.00114715  0.33450941  1
  Ni  Ni3  1  0.00201104  0.33332054  0.00229718  1
  Fe  Fe4  1  0.16674149  0.50187887  0.16738746  1
  Ni  Ni5  1  0.99882725  0.33367640  0.33481342  1
  Ni  Ni6  1  1.00039826  0.66968959  0.00167390  1
  Ni  Ni7  1  0.16611277  0.83506911  0.16846538  1
  Ni  Ni8  1  1.00077669  0.66918246  0.33524645  1
  Ni  Ni9  1  0.33320787  0.00180572  1.00000710  1
  Ni  Ni10  1  0.50094074  0.16890737  0.16791532  1
  Ni  Ni11  1  0.33221480  0.99913509  0.33506175  1
  Ni  Ni12  1  0.33431585  0.33377499  0.00171281  1
  Ni  Ni13  1  0.50187611  0.50076487  0.16815568  1
  Cr  Cr14  1  0.33467258  0.33526738  0.33369041  1
  Ni  Ni15  1  0.33511626  0.66842447  0.00165634  1
  Cr  Cr16  1  0.50139039  0.83459258  0.16852485  1
  Ni  Ni17  1  0.33493846  0.66966468  0.33581359  1
  Ni  Ni18  1  0.66894592  1.00019569  1.00029578  1
  Ni  Ni19  1  0.83595263  0.16810490  0.16958602  1
  Fe  Fe20  1  0.66990185  1.00083739  0.33391529  1
  Cr  Cr21  1  0.66793349  0.33510195  1.00131074  1
  Ni  Ni22  1  0.83521937  0.50176630  0.16924853  1
  Ni  Ni23  1  0.67029977  0.33639811  0.33381303  1
  Ni  Ni24  1  0.66848869  0.66858014  1.00006608  1
  Ni  Ni25  1  0.83669849  0.83413320  0.16759451  1
  Ni  Ni26  1  0.66828871  0.66652248  0.33557599  1
  Ni  Ni27  1  0.16596286  0.16784634  0.50260154  1
  Ni  Ni28  1  0.00224988  0.00234900  0.66816351  1
  Ni  Ni29  1  0.16839729  0.16667335  0.83431621  1
  Ni  Ni30  1  0.16657098  0.50098077  0.50061628  1
  Ni  Ni31  1  0.99991491  0.33217032  0.66689586  1
  Cr  Cr32  1  0.16706220  0.49994948  0.83620599  1
  Ni  Ni33  1  0.16676258  0.83517803  0.50020362  1
  Fe  Fe34  1  0.99932387  0.66870710  0.66731438  1
  Ni  Ni35  1  0.16712871  0.83738867  0.83533841  1
  Cr  Cr36  1  0.50120249  0.16757500  0.50184777  1
  Ni  Ni37  1  0.33253730  0.00208710  0.66893727  1
  Ni  Ni38  1  0.50026489  0.16734159  0.83410026  1
  Ni  Ni39  1  0.50250136  0.50285591  0.50133220  1
  Ni  Ni40  1  0.33513753  0.33270325  0.66822698  1
  Ni  Ni41  1  0.50327058  0.50107701  0.83451599  1
  Ni  Ni42  1  0.50232878  0.83331535  0.50018420  1
  Cr  Cr43  1  0.33666721  0.66945442  0.66664349  1
  Ni  Ni44  1  0.50266367  0.83558727  0.83526671  1
  Fe  Fe45  1  0.83703883  0.16805337  0.50131544  1
  Fe  Fe46  1  0.66852695  1.00099823  0.66965388  1
  Ni  Ni47  1  0.83534285  0.16728085  0.83359239  1
  Fe  Fe48  1  0.83472419  0.50190042  0.50109222  1
  Ni  Ni49  1  0.66895167  0.33672074  0.66891792  1
  Ni  Ni50  1  0.83354269  0.50234593  0.83328312  1
  Ni  Ni51  1  0.83491506  0.83392685  0.50107099  1
  Ni  Ni52  1  0.66869048  0.66688324  0.66836229  1
  Ni  Ni53  1  0.83421150  0.83437878  0.83534022  1
" 