8921,Ni78Fe11Cr9_1,-236.970763852073, 182.660034173545,Ni78Fe11Cr9,"# generated using pymatgen
 data_CrFeNi7
_symmetry_space_group_name_H-M   'P 1'
_cell_length_a   7.44682456
_cell_length_b   7.44682456
_cell_length_c   10.53140029
_cell_angle_alpha   90.00000000
_cell_angle_beta   90.00000000
_cell_angle_gamma   90.00000000
_symmetry_Int_Tables_number   1
_chemical_formula_structural   CrFeNi7
_chemical_formula_sum   'Cr6 Fe6 Ni42'
_cell_volume   584.02086775
_cell_formula_units_Z   6
loop_
 _symmetry_equiv_pos_site_id
 _symmetry_equiv_pos_as_xyz
  1  'x, y, z'
loop_
 _atom_site_type_symbol
 _atom_site_label
 _atom_site_symmetry_multiplicity
 _atom_site_fract_x
 _atom_site_fract_y
 _atom_site_fract_z
 _atom_site_occupancy
  Ni  Ni0  1  0.00262113  0.00207152  1.00020159  1
  Ni  Ni1  1  0.16840840  0.16848400  0.16846861  1
  Ni  Ni2  1  1.00118709  0.00253061  0.33424799  1
  Ni  Ni3  1  0.00237936  0.33418819  0.00234518  1
  Ni  Ni4  1  0.16723344  0.50142130  0.16804485  1
  Ni  Ni5  1  1.00026159  0.33535524  0.33379071  1
  Ni  Ni6  1  0.00411300  0.66781416  1.00115417  1
  Ni  Ni7  1  0.16971620  0.83416836  0.16816653  1
  Ni  Ni8  1  0.00181968  0.66618719  0.33504452  1
  Ni  Ni9  1  0.33436760  0.00159694  1.00134942  1
  Ni  Ni10  1  0.50155953  0.16767771  0.16805676  1
  Ni  Ni11  1  0.33529807  0.99956152  0.33237485  1
  Ni  Ni12  1  0.33407189  0.33412450  1.00103844  1
  Fe  Fe13  1  0.50084253  0.50018154  0.16890325  1
  Fe  Fe14  1  0.33438960  0.33620811  0.33333044  1
  Fe  Fe15  1  0.33274142  0.66822210  1.00111416  1
  Ni  Ni16  1  0.49907645  0.83615102  0.16950863  1
  Ni  Ni17  1  0.33541956  0.66839905  0.33375525  1
  Ni  Ni18  1  0.66708385  0.00332975  1.00036729  1
  Ni  Ni19  1  0.83410615  0.17016041  0.16800658  1
  Ni  Ni20  1  0.66758723  1.00112363  0.33489163  1
  Ni  Ni21  1  0.66762038  0.33263243  0.00181860  1
  Ni  Ni22  1  0.83608690  0.49893931  0.16945759  1
  Ni  Ni23  1  0.66980099  0.33547784  0.33390759  1
  Cr  Cr24  1  0.66705725  0.66818679  0.00139748  1
  Cr  Cr25  1  0.83541280  0.83514620  0.16851188  1
  Ni  Ni26  1  0.66683310  0.66747189  0.33623489  1
  Cr  Cr27  1  0.16716722  0.16968611  0.50100027  1
  Fe  Fe28  1  0.99958915  0.00190521  0.66963946  1
  Ni  Ni29  1  0.16841471  0.16812525  0.83448390  1
  Ni  Ni30  1  0.16821553  0.50153418  0.50153946  1
  Ni  Ni31  1  0.00179953  0.33462708  0.66793864  1
  Ni  Ni32  1  0.16966681  0.50141172  0.83448986  1
  Cr  Cr33  1  0.16805663  0.83321501  0.50075179  1
  Fe  Fe34  1  0.00164894  0.66778450  0.66831799  1
  Ni  Ni35  1  0.16804791  0.83453678  0.83507674  1
  Cr  Cr36  1  0.50269298  0.16806677  0.50151862  1
  Ni  Ni37  1  0.33567756  1.00014214  0.67034943  1
  Ni  Ni38  1  0.50146928  0.16801386  0.83456900  1
  Ni  Ni39  1  0.50136911  0.50307849  0.50119074  1
  Ni  Ni40  1  0.33370152  0.33643070  0.66918511  1
  Ni  Ni41  1  0.49898997  0.50029491  0.83402897  1
  Ni  Ni42  1  0.50380090  0.83253409  0.50117454  1
  Ni  Ni43  1  0.33585879  0.66750141  0.66925223  1
  Ni  Ni44  1  0.50072164  0.83576446  0.83339129  1
  Ni  Ni45  1  0.83424622  0.16781551  0.50106625  1
  Ni  Ni46  1  0.66839751  0.99996274  0.66881448  1
  Ni  Ni47  1  0.83418853  0.16639319  0.83499954  1
  Fe  Fe48  1  0.83417428  0.50140451  0.50073119  1
  Ni  Ni49  1  0.66857135  0.33480915  0.66834803  1
  Cr  Cr50  1  0.83516373  0.50055099  0.83425488  1
  Ni  Ni51  1  0.83269984  0.83460418  0.50132611  1
  Ni  Ni52  1  0.66659449  0.66930157  0.66653698  1
  Ni  Ni53  1  0.83530349  0.83701706  0.83385844  1
" 