2002,Ni78Fe22_9,-233.799070381509, 185.427589462611,Ni78Fe22,"# generated using pymatgen
 data_Fe7Ni2
_symmetry_space_group_name_H-M   'P 1'
_cell_length_a   7.40520320
_cell_length_b   7.40520320
_cell_length_c   10.47253880
_cell_angle_alpha   90.00000000
_cell_angle_beta   90.00000000
_cell_angle_gamma   90.00000000
_symmetry_Int_Tables_number   1
_chemical_formula_structural   Fe7Ni2
_chemical_formula_sum   'Fe42 Ni12'
_cell_volume   574.28297126
_cell_formula_units_Z   6
loop_
 _symmetry_equiv_pos_site_id
 _symmetry_equiv_pos_as_xyz
  1  'x, y, z'
loop_
 _atom_site_type_symbol
 _atom_site_label
 _atom_site_symmetry_multiplicity
 _atom_site_fract_x
 _atom_site_fract_y
 _atom_site_fract_z
 _atom_site_occupancy
  Fe  Fe0  1  1.00334710  1.00326317  0.00418690  1
  Fe  Fe1  1  0.17226117  0.17223786  0.17144085  1
  Fe  Fe2  1  0.00498809  1.00303305  0.33770588  1
  Fe  Fe3  1  0.00425505  0.33825286  1.00406745  1
  Ni  Ni4  1  0.16917310  0.50598466  0.17122986  1
  Fe  Fe5  1  0.00531335  0.34062081  0.33757851  1
  Ni  Ni6  1  0.00440168  0.67063086  1.00353878  1
  Fe  Fe7  1  0.17108727  0.83705403  0.17120449  1
  Ni  Ni8  1  1.00360818  0.67183190  0.33839168  1
  Fe  Fe9  1  0.33818557  0.00420048  1.00411132  1
  Ni  Ni10  1  0.50557464  0.16939288  0.17116712  1
  Fe  Fe11  1  0.33840552  1.00272741  0.33758128  1
  Fe  Fe12  1  0.33754067  0.33754481  0.00510562  1
  Fe  Fe13  1  0.50268439  0.50320538  0.17218370  1
  Ni  Ni14  1  0.33732537  0.33622311  0.33812184  1
  Fe  Fe15  1  0.33687829  0.67078688  0.00484926  1
  Fe  Fe16  1  0.50370343  0.83638767  0.17089185  1
  Ni  Ni17  1  0.33706460  0.66920625  0.33761692  1
  Ni  Ni18  1  0.67054549  0.00469750  1.00356198  1
  Fe  Fe19  1  0.83808475  0.17133054  0.17044464  1
  Fe  Fe20  1  0.66979297  1.00314029  0.33653088  1
  Fe  Fe21  1  0.67073790  0.33710176  1.00410252  1
  Fe  Fe22  1  0.83729716  0.50466895  0.17108021  1
  Fe  Fe23  1  0.66956262  0.33907790  0.33758186  1
  Fe  Fe24  1  0.67167296  0.67185292  0.00503350  1
  Fe  Fe25  1  0.83773887  0.83695054  0.17037934  1
  Ni  Ni26  1  0.67130528  0.67163734  0.33715816  1
  Fe  Fe27  1  0.17209039  0.17205595  0.50400522  1
  Fe  Fe28  1  1.00414912  1.00408860  0.67062534  1
  Fe  Fe29  1  0.17209046  0.17209737  0.83729880  1
  Ni  Ni30  1  0.16931775  0.50575519  0.50411783  1
  Fe  Fe31  1  0.00500355  0.33854218  0.67090007  1
  Ni  Ni32  1  0.17003559  0.50533214  0.83761958  1
  Fe  Fe33  1  0.17192643  0.83797282  0.50388151  1
  Fe  Fe34  1  0.00447957  0.67052931  0.67103524  1
  Fe  Fe35  1  0.17158334  0.83806836  0.83761134  1
  Ni  Ni36  1  0.50604757  0.16892538  0.50367249  1
  Fe  Fe37  1  0.33851636  0.00496491  0.67083381  1
  Ni  Ni38  1  0.50499006  0.17002189  0.83764066  1
  Fe  Fe39  1  0.50303815  0.50344030  0.50318322  1
  Fe  Fe40  1  0.33755584  0.33752417  0.66994908  1
  Fe  Fe41  1  0.50291650  0.50315787  0.83729757  1
  Fe  Fe42  1  0.50343004  0.83594881  0.50361791  1
  Fe  Fe43  1  0.33656495  0.67002214  0.67013464  1
  Fe  Fe44  1  0.50351048  0.83656287  0.83768499  1
  Fe  Fe45  1  0.83839166  0.17168428  0.50422185  1
  Fe  Fe46  1  0.67047704  0.00447026  0.67175102  1
  Fe  Fe47  1  0.83832330  0.17159662  0.83759360  1
  Fe  Fe48  1  0.83633457  0.50386908  0.50383866  1
  Fe  Fe49  1  0.66997550  0.33658552  0.67083135  1
  Fe  Fe50  1  0.83672303  0.50367393  0.83760955  1
  Fe  Fe51  1  0.83718007  0.83732065  0.50375636  1
  Fe  Fe52  1  0.67087107  0.67088302  0.66980227  1
  Fe  Fe53  1  0.83743211  0.83735451  0.83812960  1
" 