899,Ni78Fe22_4,-233.220818120595, 183.509908333,Ni78Fe22,"# generated using pymatgen
 data_Fe7Ni2
_symmetry_space_group_name_H-M   'P 1'
_cell_length_a   7.40056917
_cell_length_b   7.40056917
_cell_length_c   10.46598528
_cell_angle_alpha   90.00000000
_cell_angle_beta   90.00000000
_cell_angle_gamma   90.00000000
_symmetry_Int_Tables_number   1
_chemical_formula_structural   Fe7Ni2
_chemical_formula_sum   'Fe42 Ni12'
_cell_volume   573.20551951
_cell_formula_units_Z   6
loop_
 _symmetry_equiv_pos_site_id
 _symmetry_equiv_pos_as_xyz
  1  'x, y, z'
loop_
 _atom_site_type_symbol
 _atom_site_label
 _atom_site_symmetry_multiplicity
 _atom_site_fract_x
 _atom_site_fract_y
 _atom_site_fract_z
 _atom_site_occupancy
  Fe  Fe0  1  1.00433037  1.00424704  0.00464996  1
  Fe  Fe1  1  0.17115919  0.17075260  0.17089647  1
  Fe  Fe2  1  1.00361926  0.00455233  0.33765083  1
  Fe  Fe3  1  1.00393516  0.33727188  0.00449149  1
  Fe  Fe4  1  0.17100091  0.50531480  0.17122951  1
  Fe  Fe5  1  1.00286410  0.33785346  0.33814235  1
  Fe  Fe6  1  1.00418257  0.67195480  0.00528899  1
  Ni  Ni7  1  0.17115774  0.83732251  0.17075268  1
  Ni  Ni8  1  0.00576001  0.67156790  0.33772132  1
  Fe  Fe9  1  0.33823475  1.00440479  1.00449111  1
  Fe  Fe10  1  0.50459153  0.17044317  0.17122756  1
  Fe  Fe11  1  0.33847230  1.00407300  0.33798167  1
  Fe  Fe12  1  0.33853832  0.33702418  1.00360420  1
  Fe  Fe13  1  0.50392427  0.50479534  0.17114231  1
  Fe  Fe14  1  0.33847601  0.33757636  0.33836440  1
  Fe  Fe15  1  0.33813402  0.67204511  0.00482433  1
  Fe  Fe16  1  0.50441002  0.83823497  0.17153706  1
  Fe  Fe17  1  0.33835355  0.67182370  0.33756191  1
  Ni  Ni18  1  0.67105495  0.00469998  1.00395280  1
  Fe  Fe19  1  0.83772141  0.17026841  0.17178140  1
  Ni  Ni20  1  0.67093257  0.00564520  0.33848593  1
  Fe  Fe21  1  0.67100015  0.33717095  1.00424746  1
  Fe  Fe22  1  0.83855014  0.50513069  0.17212059  1
  Ni  Ni23  1  0.67052493  0.33626426  0.33772353  1
  Fe  Fe24  1  0.67115791  0.67165082  1.00431640  1
  Fe  Fe25  1  0.83824223  0.83807487  0.17105722  1
  Fe  Fe26  1  0.67165834  0.67106722  0.33823322  1
  Fe  Fe27  1  0.17140703  0.17140494  0.50491210  1
  Fe  Fe28  1  0.00450591  0.00584337  0.67117333  1
  Fe  Fe29  1  0.17189989  0.17149219  0.83766506  1
  Fe  Fe30  1  0.17122304  0.50402580  0.50457630  1
  Fe  Fe31  1  1.00408404  0.33791234  0.67084149  1
  Fe  Fe32  1  0.17204371  0.50369335  0.83766756  1
  Fe  Fe33  1  0.17075737  0.83804574  0.50369241  1
  Fe  Fe34  1  1.00433260  0.66972037  0.67053275  1
  Fe  Fe35  1  0.17153594  0.83828966  0.83846365  1
  Ni  Ni36  1  0.50529501  0.17033262  0.50426824  1
  Fe  Fe37  1  0.33894273  0.00570002  0.67100035  1
  Ni  Ni38  1  0.50469274  0.17115763  0.83804760  1
  Fe  Fe39  1  0.50570402  0.50319166  0.50482306  1
  Ni  Ni40  1  0.33877117  0.33790872  0.67104185  1
  Fe  Fe41  1  0.50431695  0.50350433  0.83750940  1
  Ni  Ni42  1  0.50352571  0.83874901  0.50438558  1
  Fe  Fe43  1  0.33853502  0.67044869  0.67108645  1
  Fe  Fe44  1  0.50482633  0.83847960  0.83769099  1
  Ni  Ni45  1  0.83690711  0.17303683  0.50479508  1
  Fe  Fe46  1  0.67002331  0.00594537  0.67084014  1
  Fe  Fe47  1  0.83692302  0.17098241  0.83753339  1
  Ni  Ni48  1  0.83867512  0.50345788  0.50438145  1
  Ni  Ni49  1  0.66992476  0.33709177  0.67167949  1
  Fe  Fe50  1  0.83711321  0.50386706  0.83711203  1
  Fe  Fe51  1  0.83686550  0.83837849  0.50408613  1
  Fe  Fe52  1  0.67060727  0.67002332  0.67092499  1
  Fe  Fe53  1  0.83711260  0.83862430  0.83833027  1
" 