6374,Ni78Cr22_1,-208.047644996964, 160.599182614983,Ni78Cr22,"# generated using pymatgen
 data_Cr7Ni2
_symmetry_space_group_name_H-M   'P 1'
_cell_length_a   7.57293107
_cell_length_b   7.57293107
_cell_length_c   10.70974183
_cell_angle_alpha   90.00000000
_cell_angle_beta   90.00000000
_cell_angle_gamma   90.00000000
_symmetry_Int_Tables_number   1
_chemical_formula_structural   Cr7Ni2
_chemical_formula_sum   'Cr42 Ni12'
_cell_volume   614.19603628
_cell_formula_units_Z   6
loop_
 _symmetry_equiv_pos_site_id
 _symmetry_equiv_pos_as_xyz
  1  'x, y, z'
loop_
 _atom_site_type_symbol
 _atom_site_label
 _atom_site_symmetry_multiplicity
 _atom_site_fract_x
 _atom_site_fract_y
 _atom_site_fract_z
 _atom_site_occupancy
  Cr  Cr0  1  0.99152183  -0.00389340  0.99243380  1
  Cr  Cr1  1  0.15932811  0.15931982  0.16497081  1
  Ni  Ni2  1  -0.00619746  -0.00268078  0.32778472  1
  Cr  Cr3  1  0.99154237  0.32466992  -0.00681199  1
  Cr  Cr4  1  0.15964940  0.49026636  0.16268805  1
  Ni  Ni5  1  -0.00442026  0.32075380  0.32645131  1
  Cr  Cr6  1  -0.00570907  0.65876732  -0.00685667  1
  Cr  Cr7  1  0.15904973  0.82996046  0.16097093  1
  Cr  Cr8  1  0.99249097  0.66096796  0.32735784  1
  Cr  Cr9  1  0.32729866  -0.00655191  -0.00669180  1
  Cr  Cr10  1  0.49299525  0.15840082  0.16059056  1
  Ni  Ni11  1  0.32470198  -0.00308642  0.32973399  1
  Cr  Cr12  1  0.32563894  0.32660658  0.99267447  1
  Cr  Cr13  1  0.49209461  0.49061816  0.16112354  1
  Ni  Ni14  1  0.32407308  0.32139635  0.32976762  1
  Cr  Cr15  1  0.32530687  0.65946304  -0.00585602  1
  Cr  Cr16  1  0.49331948  0.82920562  0.15869696  1
  Cr  Cr17  1  0.32748121  0.66175610  0.32568384  1
  Ni  Ni18  1  0.66310229  -0.00395521  -0.00661401  1
  Ni  Ni19  1  0.82815234  0.15789322  0.16065470  1
  Cr  Cr20  1  0.65860788  -0.00645672  0.32815828  1
  Cr  Cr21  1  0.66224886  0.32275585  -0.00585843  1
  Cr  Cr22  1  0.82744276  0.49029872  0.16312512  1
  Cr  Cr23  1  0.65966463  0.32358812  0.32579093  1
  Cr  Cr24  1  0.65939547  0.65932474  -0.00487460  1
  Cr  Cr25  1  0.82660548  0.82988239  0.16059167  1
  Cr  Cr26  1  0.65865391  0.66112346  0.32966038  1
  Ni  Ni27  1  0.16261998  0.15986072  0.49016237  1
  Cr  Cr28  1  0.99245174  -0.00580100  0.65893409  1
  Cr  Cr29  1  0.16050501  0.16002363  0.82344180  1
  Cr  Cr30  1  0.15971020  0.48841475  0.49263389  1
  Cr  Cr31  1  -0.00609006  0.32361669  0.66054342  1
  Cr  Cr32  1  0.16071046  0.49225050  0.82401602  1
  Cr  Cr33  1  0.15782913  0.83091473  0.49084915  1
  Cr  Cr34  1  0.99256015  0.66175822  0.65845191  1
  Cr  Cr35  1  0.15936505  0.82712022  0.82762444  1
  Ni  Ni36  1  0.48861832  0.15779154  0.49185270  1
  Cr  Cr37  1  0.32695345  -0.00566417  0.65606040  1
  Cr  Cr38  1  0.49442858  0.15914442  0.82608714  1
  Cr  Cr39  1  0.49151328  0.48946000  0.49322525  1
  Ni  Ni40  1  0.32633682  0.32304611  0.65625474  1
  Cr  Cr41  1  0.49263668  0.49150420  0.82464776  1
  Ni  Ni42  1  0.49248321  0.83045114  0.49099546  1
  Cr  Cr43  1  0.32691375  0.66083056  0.65933954  1
  Cr  Cr44  1  0.49463346  0.82769052  0.82860316  1
  Cr  Cr45  1  0.82895899  0.15935358  0.49136294  1
  Cr  Cr46  1  0.65929720  -0.00650011  0.65725530  1
  Ni  Ni47  1  0.82534784  0.15803790  0.82815539  1
  Cr  Cr48  1  0.82776416  0.49346123  0.49187774  1
  Cr  Cr49  1  0.65859239  0.32281528  0.65951142  1
  Cr  Cr50  1  0.82533878  0.49228622  0.82424404  1
  Ni  Ni51  1  0.82500343  0.82998444  0.49116125  1
  Cr  Cr52  1  0.65897129  0.66199981  0.65375956  1
  Cr  Cr53  1  0.82499792  0.82824495  0.82609364  1
" 