7603,Ni78Fe11Cr10_9,-237.250787969606, 185.097371640144,Ni78Fe11Cr10,"# generated using pymatgen
 data_CrFeNi7
_symmetry_space_group_name_H-M   'P 1'
_cell_length_a   7.44559078
_cell_length_b   7.44559078
_cell_length_c   10.52965545
_cell_angle_alpha   90.00000000
_cell_angle_beta   90.00000000
_cell_angle_gamma   90.00000000
_symmetry_Int_Tables_number   1
_chemical_formula_structural   CrFeNi7
_chemical_formula_sum   'Cr6 Fe6 Ni42'
_cell_volume   583.73063517
_cell_formula_units_Z   6
loop_
 _symmetry_equiv_pos_site_id
 _symmetry_equiv_pos_as_xyz
  1  'x, y, z'
loop_
 _atom_site_type_symbol
 _atom_site_label
 _atom_site_symmetry_multiplicity
 _atom_site_fract_x
 _atom_site_fract_y
 _atom_site_fract_z
 _atom_site_occupancy
  Ni  Ni0  1  1.00112480  1.00044133  0.00207119  1
  Ni  Ni1  1  0.16778986  0.16794200  0.16966825  1
  Cr  Cr2  1  0.00196295  1.00128423  0.33599624  1
  Ni  Ni3  1  1.00028840  0.33546575  0.00207579  1
  Ni  Ni4  1  0.16634392  0.50251593  0.16929597  1
  Ni  Ni5  1  1.00105833  0.33551933  0.33386413  1
  Fe  Fe6  1  0.00152028  0.66815893  0.00151099  1
  Ni  Ni7  1  0.16891529  0.83399690  0.16733189  1
  Ni  Ni8  1  1.00033293  0.66804187  0.33328049  1
  Ni  Ni9  1  0.33498638  0.99963224  0.00248790  1
  Ni  Ni10  1  0.50323041  0.16646621  0.16871257  1
  Ni  Ni11  1  0.33551579  0.00145950  0.33453830  1
  Cr  Cr12  1  0.33678809  0.33615525  0.00293663  1
  Ni  Ni13  1  0.50209903  0.50120765  0.17150286  1
  Ni  Ni14  1  0.33584086  0.33424263  0.33383062  1
  Fe  Fe15  1  0.33469887  0.66871398  0.00216577  1
  Ni  Ni16  1  0.50078237  0.83667070  0.16975046  1
  Ni  Ni17  1  0.33601331  0.66876936  0.33361744  1
  Ni  Ni18  1  0.66821977  1.00108429  1.00097753  1
  Ni  Ni19  1  0.83337990  0.16900309  0.16718600  1
  Ni  Ni20  1  0.66654366  1.00062733  0.33422540  1
  Ni  Ni21  1  0.66917019  0.33503305  1.00097365  1
  Ni  Ni22  1  0.83584266  0.49999861  0.16950232  1
  Ni  Ni23  1  0.66751344  0.33565863  0.33391147  1
  Cr  Cr24  1  0.66736972  0.66688802  0.00191507  1
  Ni  Ni25  1  0.83446945  0.83522384  0.16919318  1
  Ni  Ni26  1  0.66778758  0.66782563  0.33520896  1
  Fe  Fe27  1  0.17195805  0.16959354  0.50112097  1
  Cr  Cr28  1  1.00090648  1.00010867  0.66601197  1
  Cr  Cr29  1  0.16803657  0.16799704  0.83391773  1
  Cr  Cr30  1  0.16712411  0.50277876  0.50128324  1
  Ni  Ni31  1  1.00033553  0.33672681  0.66835683  1
  Ni  Ni32  1  0.16673390  0.50431513  0.83354194  1
  Ni  Ni33  1  0.17017870  0.83399020  0.50143855  1
  Ni  Ni34  1  0.99947164  0.66795519  0.66974931  1
  Ni  Ni35  1  0.16923958  0.83218100  0.83543094  1
  Ni  Ni36  1  0.50273698  0.16738410  0.50154857  1
  Ni  Ni37  1  0.33634110  1.00115756  0.66745305  1
  Ni  Ni38  1  0.50447333  0.16659319  0.83414471  1
  Ni  Ni39  1  0.50368538  0.50083774  0.50115209  1
  Ni  Ni40  1  0.33673798  0.33457177  0.66813015  1
  Ni  Ni41  1  0.50174105  0.50153397  0.83159561  1
  Ni  Ni42  1  0.50069667  0.83611853  0.50114799  1
  Fe  Fe43  1  0.33617384  0.66873603  0.66779023  1
  Ni  Ni44  1  0.50047092  0.83632179  0.83332372  1
  Fe  Fe45  1  0.83106002  0.17071697  0.50153116  1
  Ni  Ni46  1  0.66621174  1.00034179  0.66911419  1
  Ni  Ni47  1  0.83196265  0.16904090  0.83523195  1
  Ni  Ni48  1  0.83411871  0.50055205  0.50132060  1
  Ni  Ni49  1  0.66732224  0.33599890  0.66932832  1
  Ni  Ni50  1  0.83586687  0.50017252  0.83363135  1
  Fe  Fe51  1  0.83162095  0.83116759  0.50129045  1
  Ni  Ni52  1  0.66847393  0.66782501  0.66755260  1
  Ni  Ni53  1  0.83454187  0.83506610  0.83393979  1
" 