6836,Ni78Fe11Cr10_17,-237.246924756101, 185.416207578956,Ni78Fe11Cr10,"# generated using pymatgen
 data_CrFeNi7
_symmetry_space_group_name_H-M   'P 1'
_cell_length_a   7.44639250
_cell_length_b   7.44639250
_cell_length_c   10.53078927
_cell_angle_alpha   90.00000000
_cell_angle_beta   90.00000000
_cell_angle_gamma   90.00000000
_symmetry_Int_Tables_number   1
_chemical_formula_structural   CrFeNi7
_chemical_formula_sum   'Cr6 Fe6 Ni42'
_cell_volume   583.91922027
_cell_formula_units_Z   6
loop_
 _symmetry_equiv_pos_site_id
 _symmetry_equiv_pos_as_xyz
  1  'x, y, z'
loop_
 _atom_site_type_symbol
 _atom_site_label
 _atom_site_symmetry_multiplicity
 _atom_site_fract_x
 _atom_site_fract_y
 _atom_site_fract_z
 _atom_site_occupancy
  Ni  Ni0  1  1.00077204  0.99978793  1.00017237  1
  Ni  Ni1  1  0.16974824  0.16788142  0.16789522  1
  Ni  Ni2  1  0.00224369  0.99988733  0.33571335  1
  Ni  Ni3  1  0.00213345  0.33555065  1.00086998  1
  Ni  Ni4  1  0.16871088  0.50182014  0.16839642  1
  Ni  Ni5  1  0.00356253  0.33572179  0.33490773  1
  Ni  Ni6  1  0.00309738  0.66866017  0.00155027  1
  Ni  Ni7  1  0.16723287  0.83458006  0.16801656  1
  Ni  Ni8  1  0.00175870  0.66842442  0.33416866  1
  Fe  Fe9  1  0.33296744  1.00110477  0.00200711  1
  Fe  Fe10  1  0.50047998  0.16827841  0.16729471  1
  Ni  Ni11  1  0.33403302  0.99988181  0.33253006  1
  Ni  Ni12  1  0.33456939  0.33731417  0.00253570  1
  Ni  Ni13  1  0.49981541  0.50311343  0.16713292  1
  Ni  Ni14  1  0.33293601  0.33607864  0.33345350  1
  Ni  Ni15  1  0.33461906  0.66766941  1.00135025  1
  Fe  Fe16  1  0.50053346  0.83362181  0.16802416  1
  Ni  Ni17  1  0.33495812  0.66794977  0.33478473  1
  Ni  Ni18  1  0.66828328  0.99976894  0.00169556  1
  Cr  Cr19  1  0.83757923  0.16672080  0.16808573  1
  Ni  Ni20  1  0.66796750  0.99808760  0.33489764  1
  Ni  Ni21  1  0.66747669  0.33534240  1.00053168  1
  Ni  Ni22  1  0.83562075  0.50452278  0.16686522  1
  Cr  Cr23  1  0.66759076  0.33750881  0.33574765  1
  Fe  Fe24  1  0.66847383  0.66696732  0.00148495  1
  Ni  Ni25  1  0.83485322  0.83348606  0.16819705  1
  Ni  Ni26  1  0.66730719  0.66963513  0.33329491  1
  Ni  Ni27  1  0.16891221  0.16824202  0.49910319  1
  Cr  Cr28  1  0.00147185  0.99909466  0.66846031  1
  Ni  Ni29  1  0.16841879  0.16872623  0.83699306  1
  Ni  Ni30  1  0.16913855  0.50190517  0.49978102  1
  Cr  Cr31  1  1.00081782  0.33591680  0.66834221  1
  Ni  Ni32  1  0.16919711  0.50176572  0.83591353  1
  Fe  Fe33  1  0.16892934  0.83326968  0.49984467  1
  Ni  Ni34  1  0.00196067  0.66834583  0.66841102  1
  Fe  Fe35  1  0.16848039  0.83256072  0.83623763  1
  Cr  Cr36  1  0.49930267  0.16646762  0.50294185  1
  Ni  Ni37  1  0.33421243  0.99821112  0.66927657  1
  Cr  Cr38  1  0.50061373  0.16810190  0.83371167  1
  Ni  Ni39  1  0.49975135  0.50503293  0.50321545  1
  Ni  Ni40  1  0.33409038  0.33684781  0.66806410  1
  Ni  Ni41  1  0.50030879  0.50376988  0.83374470  1
  Ni  Ni42  1  0.50194963  0.83300279  0.50089930  1
  Ni  Ni43  1  0.33470926  0.66855902  0.66806034  1
  Ni  Ni44  1  0.50207575  0.83314834  0.83535475  1
  Ni  Ni45  1  0.83591495  0.16612736  0.50080133  1
  Ni  Ni46  1  0.66826970  0.99894246  0.66775041  1
  Ni  Ni47  1  0.83475046  0.16693744  0.83592998  1
  Ni  Ni48  1  0.83541074  0.50517004  0.50099637  1
  Ni  Ni49  1  0.66835275  0.33690865  0.66834746  1
  Ni  Ni50  1  0.83481267  0.50356304  0.83630280  1
  Ni  Ni51  1  0.83298598  0.83295364  0.49991469  1
  Ni  Ni52  1  0.66765417  0.66851199  0.66891956  1
  Ni  Ni53  1  0.83307745  0.83344487  0.83597161  1
" 