7198,Ni78Fe2Cr18_13,-231.784972824863, 155.201162541146,Ni78Fe2Cr18,"# generated using pymatgen
 data_Cr11FeNi42
_symmetry_space_group_name_H-M   'P 1'
_cell_length_a   7.47301290
_cell_length_b   7.47301290
_cell_length_c   10.56843620
_cell_angle_alpha   90.00000000
_cell_angle_beta   90.00000000
_cell_angle_gamma   90.00000000
_symmetry_Int_Tables_number   1
_chemical_formula_structural   Cr11FeNi42
_chemical_formula_sum   'Cr11 Fe1 Ni42'
_cell_volume   590.20406244
_cell_formula_units_Z   1
loop_
 _symmetry_equiv_pos_site_id
 _symmetry_equiv_pos_as_xyz
  1  'x, y, z'
loop_
 _atom_site_type_symbol
 _atom_site_label
 _atom_site_symmetry_multiplicity
 _atom_site_fract_x
 _atom_site_fract_y
 _atom_site_fract_z
 _atom_site_occupancy
  Ni  Ni0  1  0.00333402  0.99775325  -0.00026240  1
  Ni  Ni1  1  0.16784046  0.16582495  0.16650500  1
  Ni  Ni2  1  0.00379239  0.99753506  0.33316505  1
  Ni  Ni3  1  0.00186404  0.33534673  -0.00013027  1
  Ni  Ni4  1  0.16455077  0.49975634  0.16656812  1
  Ni  Ni5  1  0.00426763  0.33494944  0.33270316  1
  Ni  Ni6  1  0.99929433  0.66569598  0.99942949  1
  Ni  Ni7  1  0.16647650  0.83321489  0.16671265  1
  Ni  Ni8  1  0.00173702  0.66629694  0.33341940  1
  Ni  Ni9  1  0.33158492  0.00011371  0.99934227  1
  Ni  Ni10  1  0.49516271  0.16531734  0.16551888  1
  Ni  Ni11  1  0.32997139  0.00111796  0.33208441  1
  Ni  Ni12  1  0.33076862  0.33063763  -0.00028272  1
  Cr  Cr13  1  0.49739864  0.50032792  0.16448636  1
  Ni  Ni14  1  0.32953446  0.33144680  0.33435324  1
  Ni  Ni15  1  0.33095029  0.66808496  -0.00007037  1
  Ni  Ni16  1  0.49656157  0.83361122  0.16507527  1
  Ni  Ni17  1  0.32853446  0.66625459  0.33291219  1
  Cr  Cr18  1  0.66371557  0.99728691  0.00068752  1
  Cr  Cr19  1  0.83646750  0.16739281  0.16548672  1
  Cr  Cr20  1  0.66489634  0.99828742  0.33110846  1
  Ni  Ni21  1  0.66616823  0.33467868  0.99942444  1
  Ni  Ni22  1  0.83623661  0.50127845  0.16407625  1
  Cr  Cr23  1  0.66498868  0.33357164  0.33436811  1
  Ni  Ni24  1  0.66855031  0.66649682  -0.00036909  1
  Ni  Ni25  1  0.83578117  0.83042886  0.16572450  1
  Cr  Cr26  1  0.66838277  0.66689410  0.33258772  1
  Ni  Ni27  1  0.16865538  0.16556788  0.49803024  1
  Ni  Ni28  1  0.00036244  0.99539364  0.66591118  1
  Ni  Ni29  1  0.16864167  0.16497170  0.83427392  1
  Ni  Ni30  1  0.16767621  0.50057783  0.49811279  1
  Cr  Cr31  1  0.00267910  0.33528021  0.66651509  1
  Ni  Ni32  1  0.16564903  0.50077849  0.83415146  1
  Ni  Ni33  1  0.16400683  0.83263154  0.49923129  1
  Ni  Ni34  1  0.99939248  0.66886739  0.66595111  1
  Ni  Ni35  1  0.16611327  0.83302673  0.83283476  1
  Ni  Ni36  1  0.49632207  0.16900472  0.50147727  1
  Fe  Fe37  1  0.33220297  0.00028014  0.66738717  1
  Ni  Ni38  1  0.49715123  0.16559485  0.83179940  1
  Ni  Ni39  1  0.49770628  0.49750427  0.50152635  1
  Ni  Ni40  1  0.33451071  0.33217277  0.66474096  1
  Cr  Cr41  1  0.49954835  0.50012729  0.83297409  1
  Cr  Cr42  1  0.49738514  0.83176214  0.50112785  1
  Ni  Ni43  1  0.33134849  0.66560552  0.66598129  1
  Ni  Ni44  1  0.49862574  0.83350178  0.83254233  1
  Cr  Cr45  1  0.83433209  0.16484647  0.50010947  1
  Ni  Ni46  1  0.66557661  0.99841819  0.66697734  1
  Cr  Cr47  1  0.83345036  0.16652372  0.83323203  1
  Ni  Ni48  1  0.83343218  0.50201304  0.50040772  1
  Ni  Ni49  1  0.66252726  0.33320568  0.66495737  1
  Ni  Ni50  1  0.83342624  0.50226255  0.83432320  1
  Ni  Ni51  1  0.83684064  0.83121280  0.50151651  1
  Ni  Ni52  1  0.66802148  0.66720394  0.66620184  1
  Ni  Ni53  1  0.83405171  0.83051071  0.83152898  1
" 