8867,Ni78Cr22_8,-207.886781277045, 159.676734082247,Ni78Cr22,"# generated using pymatgen
 data_Cr7Ni2
_symmetry_space_group_name_H-M   'P 1'
_cell_length_a   7.57742838
_cell_length_b   7.57742838
_cell_length_c   10.71610198
_cell_angle_alpha   90.00000000
_cell_angle_beta   90.00000000
_cell_angle_gamma   90.00000000
_symmetry_Int_Tables_number   1
_chemical_formula_structural   Cr7Ni2
_chemical_formula_sum   'Cr42 Ni12'
_cell_volume   615.29093727
_cell_formula_units_Z   6
loop_
 _symmetry_equiv_pos_site_id
 _symmetry_equiv_pos_as_xyz
  1  'x, y, z'
loop_
 _atom_site_type_symbol
 _atom_site_label
 _atom_site_symmetry_multiplicity
 _atom_site_fract_x
 _atom_site_fract_y
 _atom_site_fract_z
 _atom_site_occupancy
  Cr  Cr0  1  0.99251885  -0.00565817  -0.00627964  1
  Ni  Ni1  1  0.15844397  0.16094169  0.16079376  1
  Ni  Ni2  1  -0.00299725  -0.00468026  0.32597093  1
  Cr  Cr3  1  -0.00475208  0.32621511  -0.00669365  1
  Ni  Ni4  1  0.15592609  0.48976305  0.16255182  1
  Ni  Ni5  1  -0.00381130  0.32597573  0.32605614  1
  Cr  Cr6  1  -0.00641945  0.65800905  -0.00654172  1
  Cr  Cr7  1  0.15899779  0.82857587  0.15898807  1
  Ni  Ni8  1  -0.00485006  0.65669209  0.32601037  1
  Ni  Ni9  1  0.32522464  -0.00370630  0.99264342  1
  Cr  Cr10  1  0.49095584  0.16004741  0.15916220  1
  Cr  Cr11  1  0.32495058  -0.00528354  0.32663351  1
  Cr  Cr12  1  0.32423097  0.32539117  -0.00586736  1
  Cr  Cr13  1  0.49320006  0.49072571  0.16109424  1
  Cr  Cr14  1  0.32372890  0.32644077  0.32674836  1
  Cr  Cr15  1  0.32427584  0.65735451  -0.00330887  1
  Cr  Cr16  1  0.48954850  0.82742283  0.15853816  1
  Cr  Cr17  1  0.32281673  0.65688254  0.32565006  1
  Cr  Cr18  1  0.65890595  -0.00695382  0.99247913  1
  Cr  Cr19  1  0.82890935  0.16165625  0.16339175  1
  Cr  Cr20  1  0.66088891  -0.00639732  0.32566936  1
  Cr  Cr21  1  0.65880045  0.32420095  0.99146455  1
  Cr  Cr22  1  0.82710934  0.49071098  0.16143190  1
  Ni  Ni23  1  0.66206817  0.32646409  0.32596832  1
  Cr  Cr24  1  0.66004091  0.66094444  0.99260614  1
  Cr  Cr25  1  0.82918182  0.82600613  0.16216874  1
  Cr  Cr26  1  0.65917702  0.66081515  0.32608322  1
  Ni  Ni27  1  0.15832548  0.16085341  0.49108778  1
  Cr  Cr28  1  -0.00652422  -0.00503359  0.65775223  1
  Cr  Cr29  1  0.16206785  0.15709183  0.82601922  1
  Ni  Ni30  1  0.15599433  0.49030624  0.48945098  1
  Cr  Cr31  1  -0.00431048  0.32576377  0.65821935  1
  Cr  Cr32  1  0.15981800  0.49290615  0.82637097  1
  Cr  Cr33  1  0.15900066  0.82844263  0.49272618  1
  Cr  Cr34  1  -0.00706180  0.65817816  0.65904037  1
  Cr  Cr35  1  0.16154699  0.82791972  0.82660211  1
  Cr  Cr36  1  0.49133845  0.15982965  0.49278234  1
  Ni  Ni37  1  0.32564252  -0.00425331  0.65943837  1
  Ni  Ni38  1  0.48916393  0.15657045  0.82617121  1
  Cr  Cr39  1  0.49408474  0.49175584  0.49209627  1
  Cr  Cr40  1  0.32372035  0.32469627  0.65726298  1
  Cr  Cr41  1  0.49270713  0.49112208  0.82508832  1
  Cr  Cr42  1  0.49067988  0.82627273  0.49469282  1
  Cr  Cr43  1  0.32442274  0.65724244  0.65603086  1
  Cr  Cr44  1  0.48878069  0.82651266  0.82522691  1
  Cr  Cr45  1  0.82903999  0.16166043  0.48790954  1
  Cr  Cr46  1  0.65933208  0.99221612  0.65988751  1
  Cr  Cr47  1  0.82656129  0.16065947  0.82637816  1
  Cr  Cr48  1  0.82634161  0.49144995  0.49174707  1
  Cr  Cr49  1  0.65888572  0.32406464  0.66076660  1
  Cr  Cr50  1  0.82562524  0.49241021  0.82496237  1
  Cr  Cr51  1  0.82803021  0.82507922  0.49110027  1
  Ni  Ni52  1  0.65885990  0.65948607  0.65963683  1
  Cr  Cr53  1  0.82754586  0.82493029  0.82482915  1
" 