1940,Ni78Cr22_2,-207.811907369661, 157.298490280572,Ni78Cr22,"# generated using pymatgen
 data_Cr7Ni2
_symmetry_space_group_name_H-M   'P 1'
_cell_length_a   7.57813894
_cell_length_b   7.57813894
_cell_length_c   10.71710686
_cell_angle_alpha   90.00000000
_cell_angle_beta   90.00000000
_cell_angle_gamma   90.00000000
_symmetry_Int_Tables_number   1
_chemical_formula_structural   Cr7Ni2
_chemical_formula_sum   'Cr42 Ni12'
_cell_volume   615.46404656
_cell_formula_units_Z   6
loop_
 _symmetry_equiv_pos_site_id
 _symmetry_equiv_pos_as_xyz
  1  'x, y, z'
loop_
 _atom_site_type_symbol
 _atom_site_label
 _atom_site_symmetry_multiplicity
 _atom_site_fract_x
 _atom_site_fract_y
 _atom_site_fract_z
 _atom_site_occupancy
  Cr  Cr0  1  0.99253830  -0.00618856  -0.00686480  1
  Cr  Cr1  1  0.15933695  0.15933747  0.15773383  1
  Cr  Cr2  1  0.99046303  0.99172800  0.32838830  1
  Ni  Ni3  1  0.99036515  0.32492503  -0.00644210  1
  Cr  Cr4  1  0.15820382  0.49224686  0.15852636  1
  Cr  Cr5  1  0.99158330  0.32499695  0.32573220  1
  Cr  Cr6  1  -0.00517929  0.65852833  -0.00732847  1
  Cr  Cr7  1  0.16161450  0.82642749  0.15743351  1
  Cr  Cr8  1  0.99219913  0.66128434  0.32748330  1
  Ni  Ni9  1  0.32653906  0.99197174  -0.00644318  1
  Ni  Ni10  1  0.49446065  0.15920131  0.15753626  1
  Cr  Cr11  1  0.32627125  -0.00714217  0.32573288  1
  Cr  Cr12  1  0.32807013  0.32680787  0.99233601  1
  Cr  Cr13  1  0.49408323  0.49287243  0.15986326  1
  Cr  Cr14  1  0.32741943  0.32614183  0.32644223  1
  Ni  Ni15  1  0.32640413  0.66006402  0.99162348  1
  Cr  Cr16  1  0.49180943  0.82694747  0.15876399  1
  Cr  Cr17  1  0.32567120  0.65901138  0.32630496  1
  Cr  Cr18  1  0.65853232  -0.00391762  -0.00539094  1
  Ni  Ni19  1  0.82421349  0.16143374  0.15757551  1
  Cr  Cr20  1  0.66127695  -0.00653051  0.32554102  1
  Ni  Ni21  1  0.66006508  0.32479637  -0.00644567  1
  Cr  Cr22  1  0.82572545  0.49059021  0.15876659  1
  Cr  Cr23  1  0.65900866  0.32440217  0.32436564  1
  Cr  Cr24  1  0.65739311  0.65739537  0.99119843  1
  Cr  Cr25  1  0.82458716  0.82580910  0.16062784  1
  Ni  Ni26  1  0.66022279  0.66022264  0.32758617  1
  Cr  Cr27  1  0.15837903  0.15837721  0.49357572  1
  Cr  Cr28  1  0.99126038  0.99125986  0.65648682  1
  Cr  Cr29  1  0.15914727  0.15914697  0.82670470  1
  Cr  Cr30  1  0.15891317  0.49268491  0.49187092  1
  Cr  Cr31  1  0.99238515  0.32513700  0.65880258  1
  Cr  Cr32  1  0.15967339  0.49186811  0.82761150  1
  Ni  Ni33  1  0.15711737  0.82640830  0.49276632  1
  Cr  Cr34  1  0.99186953  0.66161411  0.65785600  1
  Cr  Cr35  1  0.16142649  0.82699719  0.82813804  1
  Cr  Cr36  1  0.49281609  0.15891326  0.49262719  1
  Cr  Cr37  1  0.32513436  0.99238223  0.65880435  1
  Cr  Cr38  1  0.49199583  0.15967160  0.82685329  1
  Cr  Cr39  1  0.49455507  0.49442674  0.49281643  1
  Cr  Cr40  1  0.32741695  0.32742080  0.65923433  1
  Ni  Ni41  1  0.49352975  0.49388557  0.82658701  1
  Cr  Cr42  1  0.49453764  0.82467074  0.49243767  1
  Cr  Cr43  1  0.32680396  0.65820590  0.66017500  1
  Cr  Cr44  1  0.49199802  0.82419147  0.82680821  1
  Ni  Ni45  1  0.82675904  0.15711551  0.49256360  1
  Cr  Cr46  1  0.66161676  0.99186689  0.65785288  1
  Cr  Cr47  1  0.82686897  0.16142208  0.82737936  1
  Cr  Cr48  1  0.82454198  0.49440685  0.49243749  1
  Cr  Cr49  1  0.65820737  0.32680626  0.66017407  1
  Cr  Cr50  1  0.82406215  0.49187155  0.82680573  1
  Ni  Ni51  1  0.82637895  0.82602873  0.49283268  1
  Ni  Ni52  1  0.65933387  0.65933350  0.65897062  1
  Cr  Cr53  1  0.82458797  0.82471831  0.82437580  1
" 