6822,Ni78Fe11Cr9_6,-237.107867778415, 185.32379846874,Ni78Fe11Cr9,"# generated using pymatgen
 data_CrFeNi7
_symmetry_space_group_name_H-M   'P 1'
_cell_length_a   7.44710922
_cell_length_b   7.44710922
_cell_length_c   10.53180286
_cell_angle_alpha   90.00000000
_cell_angle_beta   90.00000000
_cell_angle_gamma   90.00000000
_symmetry_Int_Tables_number   1
_chemical_formula_structural   CrFeNi7
_chemical_formula_sum   'Cr6 Fe6 Ni42'
_cell_volume   584.08784374
_cell_formula_units_Z   6
loop_
 _symmetry_equiv_pos_site_id
 _symmetry_equiv_pos_as_xyz
  1  'x, y, z'
loop_
 _atom_site_type_symbol
 _atom_site_label
 _atom_site_symmetry_multiplicity
 _atom_site_fract_x
 _atom_site_fract_y
 _atom_site_fract_z
 _atom_site_occupancy
  Ni  Ni0  1  1.00071895  0.00317083  0.00156218  1
  Ni  Ni1  1  0.16853946  0.17006174  0.16679079  1
  Cr  Cr2  1  0.00329603  1.00107966  0.33467712  1
  Ni  Ni3  1  1.00046767  0.33442578  0.00134675  1
  Ni  Ni4  1  0.16809672  0.50102951  0.16900340  1
  Ni  Ni5  1  0.00158522  0.33589257  0.33518425  1
  Ni  Ni6  1  0.00259773  0.66634011  0.00321951  1
  Ni  Ni7  1  0.16878836  0.83296378  0.16719238  1
  Ni  Ni8  1  0.00136204  0.66655455  0.33326212  1
  Ni  Ni9  1  0.33557374  0.00163048  0.00360577  1
  Ni  Ni10  1  0.50202000  0.16862062  0.16849711  1
  Ni  Ni11  1  0.33587138  0.00164347  0.33371106  1
  Fe  Fe12  1  0.33436487  0.33465732  0.00233547  1
  Ni  Ni13  1  0.49980466  0.50016354  0.16931123  1
  Ni  Ni14  1  0.33462674  0.33424750  0.33396560  1
  Ni  Ni15  1  0.33415853  0.66753544  0.00206326  1
  Ni  Ni16  1  0.50113560  0.83506021  0.16953814  1
  Ni  Ni17  1  0.33481527  0.66860939  0.33465942  1
  Ni  Ni18  1  0.66760691  0.00330133  1.00117410  1
  Ni  Ni19  1  0.83352914  0.16891051  0.16840179  1
  Ni  Ni20  1  0.66623868  1.00121498  0.33446648  1
  Ni  Ni21  1  0.66877259  0.33261957  0.00203093  1
  Fe  Fe22  1  0.83500749  0.49998650  0.16902309  1
  Ni  Ni23  1  0.66779517  0.33479742  0.33388434  1
  Cr  Cr24  1  0.66748147  0.66704501  0.00134566  1
  Ni  Ni25  1  0.83427108  0.83499160  0.16767972  1
  Ni  Ni26  1  0.66783000  0.66761627  0.33421710  1
  Ni  Ni27  1  0.16965026  0.17139860  0.50176416  1
  Ni  Ni28  1  0.99952126  0.00420946  0.66740826  1
  Ni  Ni29  1  0.16763525  0.17206752  0.83565483  1
  Fe  Fe30  1  0.16936702  0.50162550  0.50016642  1
  Ni  Ni31  1  0.00231994  0.33343936  0.66697228  1
  Ni  Ni32  1  0.16813870  0.49856028  0.83456561  1
  Ni  Ni33  1  0.16885649  0.83415679  0.50010481  1
  Cr  Cr34  1  1.00055436  0.66702192  0.66774994  1
  Cr  Cr35  1  0.16781328  0.83463478  0.83684523  1
  Ni  Ni36  1  0.50031431  0.16865715  0.49869375  1
  Cr  Cr37  1  0.33498721  0.00236113  0.66676304  1
  Ni  Ni38  1  0.50126598  0.16791604  0.83716341  1
  Fe  Fe39  1  0.50083000  0.50224275  0.49922378  1
  Ni  Ni40  1  0.33389672  0.33624233  0.66899528  1
  Fe  Fe41  1  0.50009985  0.50088131  0.83586796  1
  Ni  Ni42  1  0.50288767  0.83450590  0.50020075  1
  Ni  Ni43  1  0.33776583  0.66553896  0.66719602  1
  Ni  Ni44  1  0.50296519  0.83545892  0.83406152  1
  Fe  Fe45  1  0.83397103  0.16636230  0.50061862  1
  Ni  Ni46  1  0.66854886  1.00046068  0.66809099  1
  Ni  Ni47  1  0.83484151  0.16831549  0.83384862  1
  Ni  Ni48  1  0.83471958  0.50132714  0.49840567  1
  Cr  Cr49  1  0.66773187  0.33525313  0.66827597  1
  Ni  Ni50  1  0.83665071  0.50015002  0.83644973  1
  Ni  Ni51  1  0.83230633  0.83174596  0.50218337  1
  Ni  Ni52  1  0.66609764  0.66800821  0.66865663  1
  Ni  Ni53  1  0.83219560  0.83557672  0.83421256  1
" 