3038,Ni78Fe11Cr10_0,-237.056384755784, 185.286727685655,Ni78Fe11Cr10,"# generated using pymatgen
 data_CrFeNi7
_symmetry_space_group_name_H-M   'P 1'
_cell_length_a   7.44607105
_cell_length_b   7.44607105
_cell_length_c   10.53033466
_cell_angle_alpha   90.00000000
_cell_angle_beta   90.00000000
_cell_angle_gamma   90.00000000
_symmetry_Int_Tables_number   1
_chemical_formula_structural   CrFeNi7
_chemical_formula_sum   'Cr6 Fe6 Ni42'
_cell_volume   583.84360150
_cell_formula_units_Z   6
loop_
 _symmetry_equiv_pos_site_id
 _symmetry_equiv_pos_as_xyz
  1  'x, y, z'
loop_
 _atom_site_type_symbol
 _atom_site_label
 _atom_site_symmetry_multiplicity
 _atom_site_fract_x
 _atom_site_fract_y
 _atom_site_fract_z
 _atom_site_occupancy
  Ni  Ni0  1  0.00145008  0.00328753  0.99888799  1
  Ni  Ni1  1  0.16618307  0.16717323  0.16723779  1
  Ni  Ni2  1  1.00015328  0.00349268  0.33745970  1
  Ni  Ni3  1  0.99984769  0.33405494  0.00223099  1
  Ni  Ni4  1  0.16570123  0.50213893  0.16801725  1
  Ni  Ni5  1  0.00172571  0.33268696  0.33316243  1
  Ni  Ni6  1  1.00121835  0.66696931  0.99912583  1
  Cr  Cr7  1  0.16943297  0.83458356  0.16819259  1
  Ni  Ni8  1  0.00265181  0.66797127  0.33634181  1
  Ni  Ni9  1  0.33485366  1.00071797  1.00052887  1
  Ni  Ni10  1  0.50343793  0.16636628  0.16787142  1
  Fe  Fe11  1  0.33552877  0.00146621  0.33494545  1
  Cr  Cr12  1  0.33436336  0.33611247  0.00164967  1
  Ni  Ni13  1  0.50383551  0.50290074  0.16804132  1
  Cr  Cr14  1  0.33385816  0.33632560  0.33427028  1
  Ni  Ni15  1  0.33598256  0.66902527  1.00084531  1
  Ni  Ni16  1  0.50087714  0.83501665  0.16761860  1
  Ni  Ni17  1  0.33589516  0.66828704  0.33525415  1
  Fe  Fe18  1  0.66770507  0.00208696  1.00067093  1
  Ni  Ni19  1  0.83463230  0.17000825  0.16835542  1
  Ni  Ni20  1  0.66852459  0.00160248  0.33489256  1
  Ni  Ni21  1  0.66952713  0.33512588  1.00100624  1
  Ni  Ni22  1  0.83467523  0.49947822  0.16789088  1
  Ni  Ni23  1  0.66826059  0.33306313  0.33464187  1
  Ni  Ni24  1  0.66696570  0.66751457  0.99993343  1
  Cr  Cr25  1  0.83412465  0.83441191  0.16772587  1
  Ni  Ni26  1  0.66574510  0.66946608  0.33542564  1
  Ni  Ni27  1  0.16763337  0.16713257  0.50282910  1
  Fe  Fe28  1  0.00230546  1.00119847  0.66805448  1
  Fe  Fe29  1  0.16758803  0.16790997  0.83440056  1
  Ni  Ni30  1  0.16868805  0.50210286  0.50182318  1
  Ni  Ni31  1  0.00304453  0.33241421  0.66896530  1
  Ni  Ni32  1  0.16718596  0.50305829  0.83438682  1
  Ni  Ni33  1  0.16871732  0.83481430  0.50148121  1
  Fe  Fe34  1  0.00147568  0.66735024  0.66887138  1
  Ni  Ni35  1  0.16851553  0.83419654  0.83463428  1
  Ni  Ni36  1  0.50142521  0.16823525  0.50140398  1
  Fe  Fe37  1  0.33505097  0.00150004  0.66873332  1
  Ni  Ni38  1  0.50202846  0.16855950  0.83479007  1
  Ni  Ni39  1  0.50053659  0.50171521  0.50295528  1
  Ni  Ni40  1  0.33366606  0.33576588  0.66824297  1
  Ni  Ni41  1  0.50211263  0.50150584  0.83324786  1
  Ni  Ni42  1  0.49990709  0.83426924  0.49989043  1
  Ni  Ni43  1  0.33488868  0.66799633  0.66819110  1
  Ni  Ni44  1  0.49969464  0.83422592  0.83664021  1
  Ni  Ni45  1  0.83532643  0.16792628  0.50004415  1
  Cr  Cr46  1  0.67014826  0.99960461  0.66832694  1
  Ni  Ni47  1  0.83478433  0.16975322  0.83592707  1
  Cr  Cr48  1  0.83387963  0.50020891  0.50119457  1
  Ni  Ni49  1  0.66750348  0.33441492  0.66854644  1
  Ni  Ni50  1  0.83483953  0.50034343  0.83505043  1
  Ni  Ni51  1  0.83576539  0.83537660  0.50078371  1
  Ni  Ni52  1  0.66607697  0.66920663  0.66884869  1
  Ni  Ni53  1  0.83611748  0.83394320  0.83557472  1
" 