686,Ni78Cr22_19,-207.825601188776, 156.722022287746,Ni78Cr22,"# generated using pymatgen
 data_Cr7Ni2
_symmetry_space_group_name_H-M   'P 1'
_cell_length_a   7.57921773
_cell_length_b   7.57921773
_cell_length_c   10.71863251
_cell_angle_alpha   90.00000000
_cell_angle_beta   90.00000000
_cell_angle_gamma   90.00000000
_symmetry_Int_Tables_number   1
_chemical_formula_structural   Cr7Ni2
_chemical_formula_sum   'Cr42 Ni12'
_cell_volume   615.72692905
_cell_formula_units_Z   6
loop_
 _symmetry_equiv_pos_site_id
 _symmetry_equiv_pos_as_xyz
  1  'x, y, z'
loop_
 _atom_site_type_symbol
 _atom_site_label
 _atom_site_symmetry_multiplicity
 _atom_site_fract_x
 _atom_site_fract_y
 _atom_site_fract_z
 _atom_site_occupancy
  Cr  Cr0  1  0.99186673  -0.00694386  0.99232431  1
  Cr  Cr1  1  0.15984690  0.16034490  0.15984663  1
  Cr  Cr2  1  0.99021287  0.99017273  0.32790859  1
  Ni  Ni3  1  0.99121972  0.32732730  -0.00616804  1
  Cr  Cr4  1  0.15771440  0.49263461  0.16089716  1
  Cr  Cr5  1  0.99089880  0.32753082  0.32396933  1
  Cr  Cr6  1  0.99145597  0.65704290  -0.00508094  1
  Cr  Cr7  1  0.15761170  0.82490066  0.15937894  1
  Ni  Ni8  1  0.98714498  0.65942678  0.32610520  1
  Cr  Cr9  1  0.32632805  0.99086732  0.99230208  1
  Cr  Cr10  1  0.49402946  0.15769469  0.16034984  1
  Cr  Cr11  1  0.32697288  0.99136512  0.32705163  1
  Cr  Cr12  1  0.32526974  0.32697452  0.99236363  1
  Cr  Cr13  1  0.49412459  0.49325128  0.16132852  1
  Ni  Ni14  1  0.32624831  0.32641361  0.32591205  1
  Cr  Cr15  1  0.32578982  0.66000360  0.99185567  1
  Cr  Cr16  1  0.49610558  0.82711125  0.15910254  1
  Cr  Cr17  1  0.32661344  0.66068772  0.32582485  1
  Ni  Ni18  1  0.66008263  0.99247428  -0.00706455  1
  Cr  Cr19  1  0.82440270  0.15784805  0.15731049  1
  Ni  Ni20  1  0.65960458  0.98739627  0.32795471  1
  Cr  Cr21  1  0.66293584  0.32707744  0.99227353  1
  Ni  Ni22  1  0.82674106  0.49406797  0.16039794  1
  Cr  Cr23  1  0.66107920  0.32723648  0.32575990  1
  Cr  Cr24  1  0.66032851  0.65861743  -0.00666726  1
  Cr  Cr25  1  0.82400346  0.82513473  0.16143329  1
  Ni  Ni26  1  0.66284043  0.66253130  0.32742511  1
  Cr  Cr27  1  0.15893889  0.16010985  0.49245585  1
  Ni  Ni28  1  0.99062591  0.98808805  0.65810238  1
  Cr  Cr29  1  0.15733461  0.15883081  0.82518192  1
  Cr  Cr30  1  0.15822100  0.49358825  0.49156442  1
  Cr  Cr31  1  0.99084172  0.32510991  0.65976725  1
  Cr  Cr32  1  0.15722065  0.49355526  0.82513353  1
  Cr  Cr33  1  0.15457001  0.82390427  0.49393495  1
  Ni  Ni34  1  0.98882731  0.66292695  0.65775370  1
  Cr  Cr35  1  0.15585306  0.82512833  0.82491078  1
  Cr  Cr36  1  0.49308795  0.15879084  0.48955130  1
  Cr  Cr37  1  0.32566004  0.99105849  0.65846790  1
  Cr  Cr38  1  0.49435229  0.15830017  0.82767317  1
  Cr  Cr39  1  0.49367039  0.49493046  0.49225050  1
  Cr  Cr40  1  0.32695842  0.32556233  0.65820655  1
  Cr  Cr41  1  0.49403721  0.49399558  0.82377365  1
  Ni  Ni42  1  0.49820839  0.82419870  0.49143291  1
  Cr  Cr43  1  0.32797872  0.66134027  0.66020567  1
  Cr  Cr44  1  0.49619447  0.82588905  0.82725769  1
  Cr  Cr45  1  0.82597304  0.15467282  0.49345863  1
  Cr  Cr46  1  0.65958552  0.99110730  0.65727483  1
  Cr  Cr47  1  0.82636517  0.15691039  0.82713388  1
  Cr  Cr48  1  0.82627131  0.49808582  0.49304571  1
  Cr  Cr49  1  0.65999733  0.32788457  0.65978477  1
  Cr  Cr50  1  0.82687827  0.49506174  0.82479199  1
  Ni  Ni51  1  0.82349230  0.82340203  0.49271581  1
  Ni  Ni52  1  0.66211509  0.66288171  0.65662394  1
  Cr  Cr53  1  0.82567678  0.82590436  0.82385934  1
" 