2274,Ni78Fe11Cr10_4,-237.124174739526, 185.987591237105,Ni78Fe11Cr10,"# generated using pymatgen
 data_CrFeNi7
_symmetry_space_group_name_H-M   'P 1'
_cell_length_a   7.44656884
_cell_length_b   7.44656884
_cell_length_c   10.53103864
_cell_angle_alpha   90.00000000
_cell_angle_beta   90.00000000
_cell_angle_gamma   90.00000000
_symmetry_Int_Tables_number   1
_chemical_formula_structural   CrFeNi7
_chemical_formula_sum   'Cr6 Fe6 Ni42'
_cell_volume   583.96070366
_cell_formula_units_Z   6
loop_
 _symmetry_equiv_pos_site_id
 _symmetry_equiv_pos_as_xyz
  1  'x, y, z'
loop_
 _atom_site_type_symbol
 _atom_site_label
 _atom_site_symmetry_multiplicity
 _atom_site_fract_x
 _atom_site_fract_y
 _atom_site_fract_z
 _atom_site_occupancy
  Ni  Ni0  1  0.00276487  0.99986589  0.00180493  1
  Ni  Ni1  1  0.16832029  0.16576297  0.16761157  1
  Fe  Fe2  1  1.00018257  1.00019772  0.33333830  1
  Cr  Cr3  1  0.00149344  0.33551887  0.00154037  1
  Ni  Ni4  1  0.16820043  0.50312416  0.16787972  1
  Ni  Ni5  1  0.99883904  0.33652503  0.33399576  1
  Ni  Ni6  1  1.00011108  0.66884701  0.00231088  1
  Ni  Ni7  1  0.16800631  0.83523763  0.16816705  1
  Ni  Ni8  1  0.00149710  0.66733102  0.33464188  1
  Ni  Ni9  1  0.33424982  0.00270876  0.00237437  1
  Ni  Ni10  1  0.50089035  0.16852102  0.16773603  1
  Ni  Ni11  1  0.33650346  0.99879616  0.33359614  1
  Ni  Ni12  1  0.33592561  0.33365082  1.00062358  1
  Ni  Ni13  1  0.50246171  0.50181492  0.16683525  1
  Cr  Cr14  1  0.33470563  0.33502318  0.33436040  1
  Fe  Fe15  1  0.33590841  0.66741075  0.00247273  1
  Ni  Ni16  1  0.49989788  0.83378860  0.16917458  1
  Ni  Ni17  1  0.33367667  0.67057059  0.33475763  1
  Cr  Cr18  1  0.66734286  1.00101453  1.00103111  1
  Ni  Ni19  1  0.83491403  0.16832614  0.17000594  1
  Ni  Ni20  1  0.66718862  0.00145313  0.33489845  1
  Ni  Ni21  1  0.66602819  0.33630637  0.00163483  1
  Ni  Ni22  1  0.83346411  0.50213036  0.16910465  1
  Ni  Ni23  1  0.67042675  0.33369687  0.33444667  1
  Ni  Ni24  1  0.66887564  0.66716883  1.00072566  1
  Ni  Ni25  1  0.83622199  0.83366806  0.16809819  1
  Ni  Ni26  1  0.66895280  0.66897565  0.33505899  1
  Cr  Cr27  1  0.16698318  0.16770297  0.50136171  1
  Fe  Fe28  1  0.99826789  0.00184653  0.66863998  1
  Ni  Ni29  1  0.16831650  0.16877216  0.83491768  1
  Ni  Ni30  1  0.16797398  0.50456393  0.50308248  1
  Ni  Ni31  1  1.00056689  0.33681853  0.66893527  1
  Fe  Fe32  1  0.16868149  0.50021991  0.83333133  1
  Ni  Ni33  1  0.16703338  0.83204640  0.50012256  1
  Ni  Ni34  1  1.00118297  0.66626155  0.66717447  1
  Cr  Cr35  1  0.16679034  0.83516419  0.83617144  1
  Ni  Ni36  1  0.50442636  0.16890453  0.50161149  1
  Cr  Cr37  1  0.33793042  0.00153976  0.66784142  1
  Ni  Ni38  1  0.50082501  0.17053978  0.83477704  1
  Ni  Ni39  1  0.50195529  0.50164514  0.50235666  1
  Ni  Ni40  1  0.33492092  0.33685225  0.66921938  1
  Ni  Ni41  1  0.50206969  0.50072188  0.83493375  1
  Fe  Fe42  1  0.50217732  0.83388016  0.50022233  1
  Ni  Ni43  1  0.33398530  0.66590826  0.66705894  1
  Ni  Ni44  1  0.50261342  0.83285759  0.83426064  1
  Ni  Ni45  1  0.83266332  0.16796017  0.50161665  1
  Ni  Ni46  1  0.66899349  0.00197908  0.66826642  1
  Ni  Ni47  1  0.83498434  0.16822747  0.83250350  1
  Ni  Ni48  1  0.83419485  0.50164359  0.50105436  1
  Ni  Ni49  1  0.66863581  0.33324335  0.66804389  1
  Ni  Ni50  1  0.83279364  0.50209590  0.83396670  1
  Ni  Ni51  1  0.83558599  0.83452008  0.50199857  1
  Fe  Fe52  1  0.66808563  0.66710260  0.66853057  1
  Ni  Ni53  1  0.83456552  0.83379976  0.83402771  1
" 