204,Ni79Fe19Cr1_8,-241.376126033645, 203.722027386745,Ni79Fe19Cr1,"# generated using pymatgen
 data_CrFe5Ni21
_symmetry_space_group_name_H-M   'P 1'
_cell_length_a   7.43137166
_cell_length_b   7.43137166
_cell_length_c   10.50954659
_cell_angle_alpha   90.00000000
_cell_angle_beta   90.00000000
_cell_angle_gamma   90.00000000
_symmetry_Int_Tables_number   1
_chemical_formula_structural   CrFe5Ni21
_chemical_formula_sum   'Cr2 Fe10 Ni42'
_cell_volume   580.39270300
_cell_formula_units_Z   2
loop_
 _symmetry_equiv_pos_site_id
 _symmetry_equiv_pos_as_xyz
  1  'x, y, z'
loop_
 _atom_site_type_symbol
 _atom_site_label
 _atom_site_symmetry_multiplicity
 _atom_site_fract_x
 _atom_site_fract_y
 _atom_site_fract_z
 _atom_site_occupancy
  Ni  Ni0  1  0.00284256  1.00183024  0.00300550  1
  Fe  Fe1  1  0.17033282  0.16718998  0.16913982  1
  Ni  Ni2  1  0.00303390  0.00361998  0.33573807  1
  Ni  Ni3  1  1.00117047  0.33507063  1.00194023  1
  Cr  Cr4  1  0.16950333  0.50202459  0.16786058  1
  Ni  Ni5  1  1.00062599  0.33303476  0.33708894  1
  Ni  Ni6  1  1.00148240  0.67029815  1.00132413  1
  Ni  Ni7  1  0.16970523  0.83766993  0.16774328  1
  Cr  Cr8  1  1.00216633  0.67036604  0.33758717  1
  Ni  Ni9  1  0.33559996  1.00204287  0.00289817  1
  Ni  Ni10  1  0.50342504  0.16875418  0.16880073  1
  Ni  Ni11  1  0.33543980  1.00200866  0.33560647  1
  Ni  Ni12  1  0.33718354  0.33477485  1.00180169  1
  Ni  Ni13  1  0.50425880  0.50214299  0.16830834  1
  Ni  Ni14  1  0.33785296  0.33465230  0.33696012  1
  Ni  Ni15  1  0.33665749  0.67038257  1.00177901  1
  Ni  Ni16  1  0.50233053  0.83630411  0.16901729  1
  Ni  Ni17  1  0.33837217  0.67053830  0.33691985  1
  Ni  Ni18  1  0.66876236  1.00235508  1.00235706  1
  Fe  Fe19  1  0.83523466  0.16896944  0.16935597  1
  Fe  Fe20  1  0.66836829  0.00321225  0.33564386  1
  Ni  Ni21  1  0.66884525  0.33613126  0.00260799  1
  Fe  Fe22  1  0.83267089  0.50170847  0.16780578  1
  Ni  Ni23  1  0.66872026  0.33597002  0.33569921  1
  Ni  Ni24  1  0.66905630  0.66871468  0.00335318  1
  Fe  Fe25  1  0.83455635  0.83652454  0.16807847  1
  Fe  Fe26  1  0.66682915  0.66857010  0.33613251  1
  Ni  Ni27  1  0.16846018  0.16941507  0.50144696  1
  Ni  Ni28  1  0.00303232  1.00192346  0.66845784  1
  Ni  Ni29  1  0.16929606  0.16936915  0.83687534  1
  Ni  Ni30  1  0.16899310  0.50157706  0.50344267  1
  Ni  Ni31  1  1.00165837  0.33560362  0.66817269  1
  Ni  Ni32  1  0.16717778  0.50245071  0.83596062  1
  Ni  Ni33  1  0.16953984  0.83620820  0.50306164  1
  Ni  Ni34  1  1.00192787  0.66967350  0.66882597  1
  Ni  Ni35  1  0.16929468  0.83538080  0.83639680  1
  Ni  Ni36  1  0.50275694  0.16901470  0.50217355  1
  Ni  Ni37  1  0.33518436  1.00213478  0.66869733  1
  Ni  Ni38  1  0.50252054  0.16814297  0.83622666  1
  Ni  Ni39  1  0.50258920  0.50234503  0.50222475  1
  Ni  Ni40  1  0.33646832  0.33530398  0.66843820  1
  Fe  Fe41  1  0.50152542  0.50240346  0.83580958  1
  Ni  Ni42  1  0.50244159  0.83584186  0.50168538  1
  Ni  Ni43  1  0.33598754  0.66976292  0.66849936  1
  Ni  Ni44  1  0.50224995  0.83687822  0.83649908  1
  Ni  Ni45  1  0.83598312  0.16956061  0.50246397  1
  Fe  Fe46  1  0.66852913  1.00235006  0.66904854  1
  Fe  Fe47  1  0.83648041  0.16932177  0.83568130  1
  Ni  Ni48  1  0.83561734  0.50126514  0.50234815  1
  Ni  Ni49  1  0.66907353  0.33640723  0.66889117  1
  Ni  Ni50  1  0.83688246  0.50218103  0.83660247  1
  Ni  Ni51  1  0.83521717  0.83637643  0.50330959  1
  Ni  Ni52  1  0.66928422  0.66838927  0.66820034  1
  Fe  Fe53  1  0.83642127  0.83547747  0.83562612  1
" 