2607,Ni79Fe9Cr10_19,-236.971046518761, 180.803961227217,Ni79Fe9Cr10,"# generated using pymatgen
 data_Cr6Fe5Ni43
_symmetry_space_group_name_H-M   'P 1'
_cell_length_a   7.45189414
_cell_length_b   7.45189414
_cell_length_c   10.53856975
_cell_angle_alpha   90.00000000
_cell_angle_beta   90.00000000
_cell_angle_gamma   90.00000000
_symmetry_Int_Tables_number   1
_chemical_formula_structural   Cr6Fe5Ni43
_chemical_formula_sum   'Cr6 Fe5 Ni43'
_cell_volume   585.21443157
_cell_formula_units_Z   1
loop_
 _symmetry_equiv_pos_site_id
 _symmetry_equiv_pos_as_xyz
  1  'x, y, z'
loop_
 _atom_site_type_symbol
 _atom_site_label
 _atom_site_symmetry_multiplicity
 _atom_site_fract_x
 _atom_site_fract_y
 _atom_site_fract_z
 _atom_site_occupancy
  Cr  Cr0  1  1.00035849  0.00146681  0.00102057  1
  Cr  Cr1  1  0.16887670  0.16910526  0.16748238  1
  Cr  Cr2  1  0.00121682  1.00081794  0.33521127  1
  Ni  Ni3  1  0.99965217  0.33635929  1.00011238  1
  Ni  Ni4  1  0.16776395  0.50238365  0.16697410  1
  Ni  Ni5  1  0.99948340  0.33645250  0.33507551  1
  Ni  Ni6  1  1.00089656  0.66484409  0.00131983  1
  Ni  Ni7  1  0.17146745  0.83146669  0.16827936  1
  Ni  Ni8  1  0.00170604  0.66545684  0.33485399  1
  Ni  Ni9  1  0.33740549  1.00072830  0.00160069  1
  Ni  Ni10  1  0.50212475  0.16727460  0.16762967  1
  Ni  Ni11  1  0.33666531  1.00001826  0.33451008  1
  Ni  Ni12  1  0.33545532  0.33501798  0.99974544  1
  Ni  Ni13  1  0.50077798  0.50134691  0.16787677  1
  Ni  Ni14  1  0.33562417  0.33511532  0.33543954  1
  Ni  Ni15  1  0.33532898  0.66730416  0.00221617  1
  Ni  Ni16  1  0.49899884  0.83442846  0.16719299  1
  Ni  Ni17  1  0.33451913  0.66791447  0.33395792  1
  Ni  Ni18  1  0.66548359  0.00197501  0.99986037  1
  Ni  Ni19  1  0.83154783  0.17097595  0.16763082  1
  Ni  Ni20  1  0.66548894  0.00224206  0.33522827  1
  Ni  Ni21  1  0.66794263  0.33428304  0.00183804  1
  Ni  Ni22  1  0.83450865  0.49925665  0.16787637  1
  Ni  Ni23  1  0.66794375  0.33431110  0.33356255  1
  Ni  Ni24  1  0.66682489  0.66679227  0.99986503  1
  Cr  Cr25  1  0.83255194  0.83289081  0.16710976  1
  Ni  Ni26  1  0.66682563  0.66649936  0.33525906  1
  Ni  Ni27  1  0.16778496  0.16905986  0.50229848  1
  Ni  Ni28  1  1.00084157  0.00173430  0.66694312  1
  Ni  Ni29  1  0.16778691  0.16983436  0.83330980  1
  Ni  Ni30  1  0.16804002  0.49954180  0.50162582  1
  Ni  Ni31  1  0.00241003  0.33339159  0.66786212  1
  Fe  Fe32  1  0.16715919  0.49965439  0.83435471  1
  Fe  Fe33  1  0.16804083  0.83305983  0.50157244  1
  Ni  Ni34  1  0.99970828  0.66792167  0.66687695  1
  Cr  Cr35  1  0.16873567  0.83460503  0.83372455  1
  Fe  Fe36  1  0.50027504  0.16748724  0.49928310  1
  Ni  Ni37  1  0.33385306  0.00160099  0.66694038  1
  Fe  Fe38  1  0.50057316  0.16685069  0.83607842  1
  Ni  Ni39  1  0.49972680  0.50296929  0.50007198  1
  Ni  Ni40  1  0.33265761  0.33390388  0.66786515  1
  Ni  Ni41  1  0.50071853  0.50256652  0.83510094  1
  Ni  Ni42  1  0.50151773  0.83367751  0.50105899  1
  Ni  Ni43  1  0.33549577  0.66754462  0.66687804  1
  Ni  Ni44  1  0.50266503  0.83345705  0.83479728  1
  Ni  Ni45  1  0.83605228  0.16727087  0.50068203  1
  Fe  Fe46  1  0.66833631  0.99863016  0.66769807  1
  Ni  Ni47  1  0.83586805  0.16788646  0.83473597  1
  Ni  Ni48  1  0.83528291  0.50184525  0.49988685  1
  Cr  Cr49  1  0.66770341  0.33547355  0.66746224  1
  Ni  Ni50  1  0.83428468  0.50144665  0.83528668  1
  Ni  Ni51  1  0.83262344  0.83393328  0.50272798  1
  Ni  Ni52  1  0.66784266  0.66911537  0.66792671  1
  Ni  Ni53  1  0.83148131  0.83371467  0.83312692  1
" 