929,Ni79Cr21_4,-207.8555929999, 159.564300710011,Ni79Cr21,"# generated using pymatgen
 data_Cr7Ni2
_symmetry_space_group_name_H-M   'P 1'
_cell_length_a   7.57694689
_cell_length_b   7.57694689
_cell_length_c   10.71542106
_cell_angle_alpha   90.00000000
_cell_angle_beta   90.00000000
_cell_angle_gamma   90.00000000
_symmetry_Int_Tables_number   1
_chemical_formula_structural   Cr7Ni2
_chemical_formula_sum   'Cr42 Ni12'
_cell_volume   615.17365364
_cell_formula_units_Z   6
loop_
 _symmetry_equiv_pos_site_id
 _symmetry_equiv_pos_as_xyz
  1  'x, y, z'
loop_
 _atom_site_type_symbol
 _atom_site_label
 _atom_site_symmetry_multiplicity
 _atom_site_fract_x
 _atom_site_fract_y
 _atom_site_fract_z
 _atom_site_occupancy
  Cr  Cr0  1  -0.00722005  -0.00652294  -0.00711331  1
  Ni  Ni1  1  0.16279799  0.15969382  0.15939997  1
  Cr  Cr2  1  -0.00703591  0.99164160  0.32647854  1
  Cr  Cr3  1  -0.00615305  0.32531493  0.99256697  1
  Cr  Cr4  1  0.15991645  0.49374491  0.16013038  1
  Cr  Cr5  1  -0.00593548  0.32632919  0.32469942  1
  Cr  Cr6  1  0.99265764  0.65944582  0.99250456  1
  Cr  Cr7  1  0.15991711  0.82612857  0.15870355  1
  Ni  Ni8  1  0.99168258  0.65961459  0.32722262  1
  Ni  Ni9  1  0.32864248  0.99185672  -0.00662779  1
  Ni  Ni10  1  0.49096976  0.15978772  0.15955997  1
  Cr  Cr11  1  0.32653158  -0.00498653  0.32562585  1
  Cr  Cr12  1  0.32530472  0.32485107  -0.00559020  1
  Cr  Cr13  1  0.49246982  0.49066309  0.16043645  1
  Ni  Ni14  1  0.32747563  0.32470506  0.32470084  1
  Ni  Ni15  1  0.32711547  0.66218112  0.99142033  1
  Cr  Cr16  1  0.49145279  0.82812093  0.15636756  1
  Cr  Cr17  1  0.32614884  0.65881260  0.32712566  1
  Ni  Ni18  1  0.65668519  0.99153738  0.99149148  1
  Cr  Cr19  1  0.82378724  0.15950173  0.15911741  1
  Cr  Cr20  1  0.65871012  0.99245059  0.32711466  1
  Cr  Cr21  1  0.65908216  0.32489854  -0.00626636  1
  Cr  Cr22  1  0.82588166  0.49258214  0.16119142  1
  Ni  Ni23  1  0.65712853  0.32563937  0.32541607  1
  Cr  Cr24  1  0.65818796  0.66192436  0.99063385  1
  Cr  Cr25  1  0.82689135  0.82614272  0.15971661  1
  Cr  Cr26  1  0.66068032  0.65982578  0.32818480  1
  Cr  Cr27  1  0.16012144  0.15937296  0.49331521  1
  Cr  Cr28  1  0.99148376  0.99229697  0.65887584  1
  Cr  Cr29  1  0.15965451  0.15836887  0.82550881  1
  Cr  Cr30  1  0.15962171  0.49358954  0.49214546  1
  Cr  Cr31  1  -0.00646728  0.32561801  0.66098950  1
  Cr  Cr32  1  0.16010254  0.49411970  0.82599691  1
  Cr  Cr33  1  0.15863883  0.82527615  0.49179152  1
  Cr  Cr34  1  0.99095639  0.66030319  0.65907118  1
  Cr  Cr35  1  0.16109093  0.82576682  0.82774239  1
  Cr  Cr36  1  0.49331377  0.15990889  0.49148945  1
  Cr  Cr37  1  0.32731894  0.99182017  0.65871625  1
  Cr  Cr38  1  0.49354480  0.15700705  0.82702578  1
  Cr  Cr39  1  0.49279553  0.49199842  0.49160396  1
  Cr  Cr40  1  0.32525902  0.32607889  0.65906679  1
  Cr  Cr41  1  0.49204250  0.49446605  0.82623029  1
  Ni  Ni42  1  0.49445579  0.82600718  0.49341564  1
  Cr  Cr43  1  0.32832137  0.66034163  0.65974337  1
  Ni  Ni44  1  0.49365099  0.82672915  0.82823977  1
  Cr  Cr45  1  0.82480995  0.15892374  0.49316036  1
  Cr  Cr46  1  0.65944714  0.98934593  0.65922551  1
  Cr  Cr47  1  0.82501971  0.15795468  0.82598316  1
  Cr  Cr48  1  0.82585086  0.49343988  0.49109974  1
  Cr  Cr49  1  0.65945652  0.32663989  0.65959628  1
  Cr  Cr50  1  0.82608075  0.49298728  0.82601684  1
  Ni  Ni51  1  0.82538901  0.82510140  0.49226351  1
  Cr  Cr52  1  0.65897910  0.66225493  0.65941969  1
  Ni  Ni53  1  0.82366896  0.82677815  0.82643593  1
" 