7334,Ni79Fe5Cr15_18,-233.023083019235, 165.59082590349,Ni79Fe5Cr15,"# generated using pymatgen
 data_Cr5FeNi21
_symmetry_space_group_name_H-M   'P 1'
_cell_length_a   7.46680650
_cell_length_b   7.46680650
_cell_length_c   10.55965902
_cell_angle_alpha   90.00000000
_cell_angle_beta   90.00000000
_cell_angle_gamma   90.00000000
_symmetry_Int_Tables_number   1
_chemical_formula_structural   Cr5FeNi21
_chemical_formula_sum   'Cr10 Fe2 Ni42'
_cell_volume   588.73477428
_cell_formula_units_Z   2
loop_
 _symmetry_equiv_pos_site_id
 _symmetry_equiv_pos_as_xyz
  1  'x, y, z'
loop_
 _atom_site_type_symbol
 _atom_site_label
 _atom_site_symmetry_multiplicity
 _atom_site_fract_x
 _atom_site_fract_y
 _atom_site_fract_z
 _atom_site_occupancy
  Ni  Ni0  1  0.99909603  0.99940899  0.99991194  1
  Ni  Ni1  1  0.16632318  0.16689320  0.16738863  1
  Ni  Ni2  1  0.00081470  0.99996537  0.33320954  1
  Cr  Cr3  1  0.99966864  0.33275778  0.00167033  1
  Ni  Ni4  1  0.16906468  0.49908496  0.16622959  1
  Cr  Cr5  1  0.00203843  0.33201881  0.33166966  1
  Ni  Ni6  1  0.99882491  0.66742903  0.99918024  1
  Cr  Cr7  1  0.16757213  0.83375992  0.16535887  1
  Cr  Cr8  1  0.99872140  0.66734199  0.33478068  1
  Ni  Ni9  1  0.33356404  0.99980215  0.99833720  1
  Cr  Cr10  1  0.49901526  0.16602235  0.16594880  1
  Ni  Ni11  1  0.33196850  0.00068282  0.33460409  1
  Ni  Ni12  1  0.33422804  0.33419142  0.99990674  1
  Ni  Ni13  1  0.49912039  0.50251501  0.16613003  1
  Ni  Ni14  1  0.33299903  0.33359212  0.33442324  1
  Ni  Ni15  1  0.33485347  0.66604836  0.99996723  1
  Ni  Ni16  1  0.50188754  0.83139060  0.16696669  1
  Ni  Ni17  1  0.33583964  0.66574394  0.33315728  1
  Ni  Ni18  1  0.66738423  0.99883311  0.99997028  1
  Ni  Ni19  1  0.83451261  0.16413124  0.16565962  1
  Fe  Fe20  1  0.66694499  0.99752462  0.33246999  1
  Ni  Ni21  1  0.66600096  0.33444351  0.99900245  1
  Ni  Ni22  1  0.83187955  0.50175342  0.16504000  1
  Cr  Cr23  1  0.66567413  0.33569370  0.33335786  1
  Ni  Ni24  1  0.66637960  0.66676147  0.00087507  1
  Ni  Ni25  1  0.83107881  0.83413211  0.16650260  1
  Ni  Ni26  1  0.66550932  0.66724715  0.33234875  1
  Ni  Ni27  1  0.16921445  0.16604613  0.50013176  1
  Ni  Ni28  1  0.00073739  0.99960191  0.66691948  1
  Ni  Ni29  1  0.16770374  0.16632885  0.83252241  1
  Ni  Ni30  1  0.16755814  0.49933557  0.50051358  1
  Ni  Ni31  1  0.00044552  0.33386852  0.66680216  1
  Ni  Ni32  1  0.16669957  0.49971269  0.83332082  1
  Ni  Ni33  1  0.16495482  0.83466847  0.50061899  1
  Ni  Ni34  1  0.99945234  0.66659684  0.66601848  1
  Fe  Fe35  1  0.16578421  0.83413450  0.83386509  1
  Ni  Ni36  1  0.49712574  0.16766322  0.50147675  1
  Ni  Ni37  1  0.33241446  0.00304372  0.66709450  1
  Ni  Ni38  1  0.49976060  0.16621399  0.83257422  1
  Ni  Ni39  1  0.49878807  0.49765550  0.49872404  1
  Ni  Ni40  1  0.33340333  0.33116897  0.66571995  1
  Ni  Ni41  1  0.49954097  0.49858205  0.83521204  1
  Cr  Cr42  1  0.50009995  0.83490735  0.49750863  1
  Cr  Cr43  1  0.33162068  0.66649169  0.66718128  1
  Ni  Ni44  1  0.50054100  0.83526113  0.83555661  1
  Cr  Cr45  1  0.83323782  0.16520917  0.50194277  1
  Ni  Ni46  1  0.66689108  0.00204236  0.66754105  1
  Ni  Ni47  1  0.83258502  0.16534206  0.83270648  1
  Ni  Ni48  1  0.83370241  0.50196808  0.50201986  1
  Ni  Ni49  1  0.66619046  0.33240912  0.66743845  1
  Ni  Ni50  1  0.83379851  0.50049324  0.83295405  1
  Ni  Ni51  1  0.83530200  0.83303621  0.49958469  1
  Cr  Cr52  1  0.66866411  0.66570284  0.66688605  1
  Ni  Ni53  1  0.83369126  0.83421848  0.83397027  1
" 