6339,Ni79Cr21_0,-207.830238130155, 158.574624874461,Ni79Cr21,"# generated using pymatgen
 data_Cr7Ni2
_symmetry_space_group_name_H-M   'P 1'
_cell_length_a   7.57950106
_cell_length_b   7.57950106
_cell_length_c   10.71903319
_cell_angle_alpha   90.00000000
_cell_angle_beta   90.00000000
_cell_angle_gamma   90.00000000
_symmetry_Int_Tables_number   1
_chemical_formula_structural   Cr7Ni2
_chemical_formula_sum   'Cr42 Ni12'
_cell_volume   615.79598345
_cell_formula_units_Z   6
loop_
 _symmetry_equiv_pos_site_id
 _symmetry_equiv_pos_as_xyz
  1  'x, y, z'
loop_
 _atom_site_type_symbol
 _atom_site_label
 _atom_site_symmetry_multiplicity
 _atom_site_fract_x
 _atom_site_fract_y
 _atom_site_fract_z
 _atom_site_occupancy
  Cr  Cr0  1  0.98996566  -0.00717009  -0.00505343  1
  Cr  Cr1  1  0.15639064  0.15940019  0.15901651  1
  Ni  Ni2  1  0.98937822  -0.00741259  0.32280162  1
  Ni  Ni3  1  0.99022228  0.32732946  -0.00650671  1
  Cr  Cr4  1  0.15914627  0.49241493  0.15891602  1
  Cr  Cr5  1  0.99008227  0.32512556  0.32271700  1
  Cr  Cr6  1  0.99101301  0.65646137  0.99142395  1
  Cr  Cr7  1  0.16168492  0.82605739  0.16335914  1
  Cr  Cr8  1  0.99027407  0.65987555  0.32429043  1
  Cr  Cr9  1  0.32720560  -0.00720340  0.99163054  1
  Cr  Cr10  1  0.49303926  0.15879658  0.15800922  1
  Cr  Cr11  1  0.32747476  -0.00529637  0.32692498  1
  Cr  Cr12  1  0.32200364  0.32670269  0.99086930  1
  Cr  Cr13  1  0.49260537  0.49525658  0.16082257  1
  Cr  Cr14  1  0.32830687  0.32730810  0.32930184  1
  Cr  Cr15  1  0.32489056  0.65858324  0.99141559  1
  Ni  Ni16  1  0.49455570  0.82470249  0.16047004  1
  Ni  Ni17  1  0.32926477  0.65953556  0.32620501  1
  Cr  Cr18  1  0.66077552  0.99130246  -0.00409756  1
  Ni  Ni19  1  0.82839127  0.15925635  0.15898800  1
  Cr  Cr20  1  0.66158604  -0.00606390  0.32357125  1
  Cr  Cr21  1  0.66242966  0.32576001  -0.00389125  1
  Ni  Ni22  1  0.82731486  0.49129914  0.15743532  1
  Cr  Cr23  1  0.65898173  0.32560647  0.32665682  1
  Cr  Cr24  1  0.66216121  0.66100077  -0.00347019  1
  Ni  Ni25  1  0.82530446  0.82720394  0.16072805  1
  Cr  Cr26  1  0.66035490  0.65806142  0.32365052  1
  Cr  Cr27  1  0.15645398  0.15841054  0.49070647  1
  Cr  Cr28  1  -0.00657087  -0.00721036  0.65817342  1
  Cr  Cr29  1  0.15599367  0.16187851  0.82752327  1
  Cr  Cr30  1  0.15953130  0.49357526  0.49127873  1
  Ni  Ni31  1  0.99181366  0.32702019  0.66141923  1
  Ni  Ni32  1  0.15596387  0.48857230  0.82571767  1
  Cr  Cr33  1  0.15886576  0.82613124  0.48859797  1
  Cr  Cr34  1  -0.00613434  0.65668863  0.66125628  1
  Cr  Cr35  1  0.15956946  0.82485573  0.82494500  1
  Ni  Ni36  1  0.49456802  0.16306847  0.49480358  1
  Cr  Cr37  1  0.32672058  -0.00492736  0.65947663  1
  Cr  Cr38  1  0.49547166  0.16083704  0.82545042  1
  Ni  Ni39  1  0.49272601  0.49014804  0.49288241  1
  Cr  Cr40  1  0.32597438  0.32588598  0.65749767  1
  Cr  Cr41  1  0.49419387  0.49162990  0.82543158  1
  Cr  Cr42  1  0.49193844  0.82353895  0.49128900  1
  Cr  Cr43  1  0.32459082  0.65681861  0.65959570  1
  Cr  Cr44  1  0.49350220  0.82533557  0.82801197  1
  Cr  Cr45  1  0.82610107  0.16037537  0.49433354  1
  Cr  Cr46  1  0.65753903  -0.00505795  0.65877232  1
  Cr  Cr47  1  0.82586250  0.16218696  0.82453966  1
  Cr  Cr48  1  0.82375310  0.49037214  0.49577544  1
  Ni  Ni49  1  0.65889096  0.32598491  0.65614659  1
  Cr  Cr50  1  0.82616427  0.48890209  0.82459900  1
  Cr  Cr51  1  0.82728171  0.82691890  0.49267945  1
  Cr  Cr52  1  0.65911836  0.65733837  0.65838256  1
  Cr  Cr53  1  0.82472688  0.82624191  0.82394372  1
" 