8790,Ni79Fe19Cr1_14,-241.403001330566, 202.53290390401,Ni79Fe19Cr1,"# generated using pymatgen
 data_CrFe5Ni21
_symmetry_space_group_name_H-M   'P 1'
_cell_length_a   7.43271000
_cell_length_b   7.43271000
_cell_length_c   10.51143929
_cell_angle_alpha   90.00000000
_cell_angle_beta   90.00000000
_cell_angle_gamma   90.00000000
_symmetry_Int_Tables_number   1
_chemical_formula_structural   CrFe5Ni21
_chemical_formula_sum   'Cr2 Fe10 Ni42'
_cell_volume   580.70633427
_cell_formula_units_Z   2
loop_
 _symmetry_equiv_pos_site_id
 _symmetry_equiv_pos_as_xyz
  1  'x, y, z'
loop_
 _atom_site_type_symbol
 _atom_site_label
 _atom_site_symmetry_multiplicity
 _atom_site_fract_x
 _atom_site_fract_y
 _atom_site_fract_z
 _atom_site_occupancy
  Ni  Ni0  1  0.00380724  1.00167674  0.00240371  1
  Ni  Ni1  1  0.16852198  0.16779070  0.16924809  1
  Ni  Ni2  1  0.00267310  0.00285718  0.33539170  1
  Fe  Fe3  1  0.00411421  0.33455112  0.00326334  1
  Ni  Ni4  1  0.16876352  0.50292201  0.16894827  1
  Ni  Ni5  1  1.00008730  0.33592225  0.33429191  1
  Ni  Ni6  1  0.00520857  0.67030961  0.00287535  1
  Ni  Ni7  1  0.17012210  0.83593143  0.17019034  1
  Ni  Ni8  1  0.00423715  0.66793259  0.33593362  1
  Ni  Ni9  1  0.33496429  1.00115028  0.00260354  1
  Ni  Ni10  1  0.50228709  0.16817959  0.16998808  1
  Ni  Ni11  1  0.33591337  1.00083931  0.33533608  1
  Fe  Fe12  1  0.33502221  0.33495579  0.00274276  1
  Ni  Ni13  1  0.50263925  0.50336248  0.16932252  1
  Fe  Fe14  1  0.33396788  0.33512281  0.33506112  1
  Ni  Ni15  1  0.33452390  0.66989089  1.00173271  1
  Ni  Ni16  1  0.50159944  0.83552919  0.16891063  1
  Ni  Ni17  1  0.33507385  0.66932507  0.33532791  1
  Fe  Fe18  1  0.66856877  1.00229830  0.00239319  1
  Ni  Ni19  1  0.83596857  0.16928176  0.16871226  1
  Ni  Ni20  1  0.66845571  0.00509218  0.33479143  1
  Ni  Ni21  1  0.66799889  0.33438086  0.00268798  1
  Ni  Ni22  1  0.83546087  0.50207067  0.16970885  1
  Ni  Ni23  1  0.66948071  0.33550620  0.33643068  1
  Fe  Fe24  1  0.66822590  0.67028585  0.00272176  1
  Fe  Fe25  1  0.83703711  0.83595828  0.16950948  1
  Fe  Fe26  1  0.66950463  0.66999361  0.33623828  1
  Ni  Ni27  1  0.16780501  0.16902329  0.50165345  1
  Ni  Ni28  1  0.00296006  0.00276969  0.66905031  1
  Ni  Ni29  1  0.16880338  0.16819799  0.83600592  1
  Ni  Ni30  1  0.16894833  0.50088468  0.50256672  1
  Ni  Ni31  1  1.00168822  0.33463007  0.66923887  1
  Ni  Ni32  1  0.17068869  0.50239820  0.83541686  1
  Fe  Fe33  1  0.16849825  0.83528417  0.50196854  1
  Ni  Ni34  1  0.00579185  0.66949582  0.66801035  1
  Ni  Ni35  1  0.16916908  0.83615007  0.83415298  1
  Fe  Fe36  1  0.50296593  0.16887309  0.50204042  1
  Ni  Ni37  1  0.33557862  1.00119121  0.66879736  1
  Ni  Ni38  1  0.50190322  0.16835917  0.83481483  1
  Ni  Ni39  1  0.50065232  0.50311221  0.50121248  1
  Fe  Fe40  1  0.33459919  0.33527843  0.66909306  1
  Ni  Ni41  1  0.49955782  0.50165123  0.83651628  1
  Ni  Ni42  1  0.50176107  0.83663926  0.50174591  1
  Ni  Ni43  1  0.33394367  0.66959423  0.66976551  1
  Ni  Ni44  1  0.50096282  0.83680903  0.83653912  1
  Ni  Ni45  1  0.83728758  0.16829332  0.50290912  1
  Ni  Ni46  1  0.66845657  0.00517138  0.67019446  1
  Ni  Ni47  1  0.83607769  0.16701306  0.83538659  1
  Ni  Ni48  1  0.83702799  0.50115582  0.50138066  1
  Ni  Ni49  1  0.66841407  0.33309730  0.66771843  1
  Cr  Cr50  1  0.83733924  0.50153655  0.83540440  1
  Ni  Ni51  1  0.83517746  0.83772002  0.50130559  1
  Cr  Cr52  1  0.66764479  0.66871391  0.66859586  1
  Ni  Ni53  1  0.83680397  0.83857453  0.83648485  1
" 