5098,Ni79Cr21_14,-207.983208373561, 161.529001661661,Ni79Cr21,"# generated using pymatgen
 data_Cr7Ni2
_symmetry_space_group_name_H-M   'P 1'
_cell_length_a   7.57414593
_cell_length_b   7.57414593
_cell_length_c   10.71145990
_cell_angle_alpha   90.00000000
_cell_angle_beta   90.00000000
_cell_angle_gamma   90.00000000
_symmetry_Int_Tables_number   1
_chemical_formula_structural   Cr7Ni2
_chemical_formula_sum   'Cr42 Ni12'
_cell_volume   614.49167473
_cell_formula_units_Z   6
loop_
 _symmetry_equiv_pos_site_id
 _symmetry_equiv_pos_as_xyz
  1  'x, y, z'
loop_
 _atom_site_type_symbol
 _atom_site_label
 _atom_site_symmetry_multiplicity
 _atom_site_fract_x
 _atom_site_fract_y
 _atom_site_fract_z
 _atom_site_occupancy
  Cr  Cr0  1  -0.00650558  -0.00609329  0.99054949  1
  Cr  Cr1  1  0.16127246  0.16129381  0.15747770  1
  Cr  Cr2  1  -0.00549829  0.99022796  0.32677335  1
  Cr  Cr3  1  -0.00694094  0.32722883  0.99200589  1
  Cr  Cr4  1  0.15991941  0.49371392  0.15912524  1
  Cr  Cr5  1  0.99282443  0.33102343  0.32575264  1
  Cr  Cr6  1  0.99262805  0.65766593  -0.00570283  1
  Cr  Cr7  1  0.15947693  0.82389736  0.15996802  1
  Ni  Ni8  1  -0.00641682  0.65898146  0.32809375  1
  Cr  Cr9  1  0.32487421  0.99184938  0.99131750  1
  Cr  Cr10  1  0.49126254  0.16060192  0.16133706  1
  Cr  Cr11  1  0.32628506  0.99012566  0.32890750  1
  Ni  Ni12  1  0.32324522  0.32852897  0.98961005  1
  Cr  Cr13  1  0.48983319  0.49239679  0.15681014  1
  Cr  Cr14  1  0.32419609  0.32829862  0.32960325  1
  Ni  Ni15  1  0.32384823  0.65536066  0.99138061  1
  Cr  Cr16  1  0.49130448  0.82538146  0.15856612  1
  Cr  Cr17  1  0.32273817  0.66035939  0.32933917  1
  Cr  Cr18  1  0.66043315  0.99220920  -0.00637384  1
  Cr  Cr19  1  0.82709545  0.15931552  0.16182904  1
  Ni  Ni20  1  0.66041721  0.99146322  0.32607030  1
  Cr  Cr21  1  0.66216690  0.32738448  -0.00598875  1
  Ni  Ni22  1  0.82799985  0.49480996  0.16131177  1
  Cr  Cr23  1  0.66159725  0.32734292  0.32554326  1
  Cr  Cr24  1  0.66019419  0.65912803  -0.00665212  1
  Cr  Cr25  1  0.82826945  0.82544376  0.16117216  1
  Cr  Cr26  1  0.66145469  0.65932843  0.32476228  1
  Cr  Cr27  1  0.15744312  0.15926486  0.49346768  1
  Ni  Ni28  1  -0.00375494  0.99008354  0.65982210  1
  Ni  Ni29  1  0.15967613  0.16204541  0.82599716  1
  Ni  Ni30  1  0.15593297  0.49820968  0.49366508  1
  Cr  Cr31  1  -0.00444891  0.32751919  0.66072396  1
  Ni  Ni32  1  0.16009592  0.49236962  0.82694515  1
  Ni  Ni33  1  0.15521705  0.82242670  0.49412034  1
  Ni  Ni34  1  -0.00443985  0.66024981  0.65815450  1
  Cr  Cr35  1  0.15773480  0.82388535  0.82598877  1
  Cr  Cr36  1  0.49414803  0.15982773  0.49069514  1
  Cr  Cr37  1  0.32327779  0.99201573  0.65869813  1
  Cr  Cr38  1  0.49047946  0.16189372  0.82731683  1
  Cr  Cr39  1  0.49231019  0.49354810  0.49499944  1
  Cr  Cr40  1  0.32360899  0.32726662  0.65916567  1
  Cr  Cr41  1  0.49049608  0.49390534  0.82659951  1
  Cr  Cr42  1  0.49440089  0.82553874  0.49326783  1
  Cr  Cr43  1  0.32441209  0.65952320  0.65804604  1
  Cr  Cr44  1  0.49294370  0.82296875  0.82697509  1
  Cr  Cr45  1  0.82689503  0.15756535  0.49317666  1
  Cr  Cr46  1  0.65882357  0.99214494  0.66009934  1
  Cr  Cr47  1  0.82926785  0.15778593  0.82350418  1
  Cr  Cr48  1  0.82823254  0.49573748  0.49429905  1
  Cr  Cr49  1  0.66004334  0.32806081  0.65934215  1
  Cr  Cr50  1  0.82801615  0.49599031  0.82355631  1
  Cr  Cr51  1  0.82892196  0.82574393  0.49533650  1
  Ni  Ni52  1  0.66235801  0.66016684  0.65970158  1
  Cr  Cr53  1  0.82815338  0.82521494  0.82196738  1
" 