350,Ni79Fe9Cr10_10,-236.876631322845, 182.066018211317,Ni79Fe9Cr10,"# generated using pymatgen
 data_Cr6Fe5Ni43
_symmetry_space_group_name_H-M   'P 1'
_cell_length_a   7.45029886
_cell_length_b   7.45029886
_cell_length_c   10.53631369
_cell_angle_alpha   90.00000000
_cell_angle_beta   90.00000000
_cell_angle_gamma   90.00000000
_symmetry_Int_Tables_number   1
_chemical_formula_structural   Cr6Fe5Ni43
_chemical_formula_sum   'Cr6 Fe5 Ni43'
_cell_volume   584.83866916
_cell_formula_units_Z   1
loop_
 _symmetry_equiv_pos_site_id
 _symmetry_equiv_pos_as_xyz
  1  'x, y, z'
loop_
 _atom_site_type_symbol
 _atom_site_label
 _atom_site_symmetry_multiplicity
 _atom_site_fract_x
 _atom_site_fract_y
 _atom_site_fract_z
 _atom_site_occupancy
  Ni  Ni0  1  0.00174301  0.00130787  0.99925383  1
  Ni  Ni1  1  0.16732299  0.16859474  0.16952482  1
  Ni  Ni2  1  0.00423082  0.00188128  0.33628230  1
  Ni  Ni3  1  0.00183457  0.33512948  1.00065288  1
  Ni  Ni4  1  0.16638179  0.50087463  0.16715194  1
  Ni  Ni5  1  1.00023574  0.33424456  0.33506861  1
  Ni  Ni6  1  0.00219968  0.66715875  0.00123827  1
  Ni  Ni7  1  0.16738190  0.83459812  0.16857241  1
  Ni  Ni8  1  1.00064780  0.66717371  0.33563958  1
  Cr  Cr9  1  0.33305940  0.99990614  1.00000338  1
  Cr  Cr10  1  0.50127527  0.16851751  0.16970004  1
  Fe  Fe11  1  0.33400017  0.00136998  0.33606981  1
  Ni  Ni12  1  0.33296471  0.33551568  0.00245652  1
  Ni  Ni13  1  0.50162900  0.50202888  0.16752649  1
  Fe  Fe14  1  0.33246650  0.33586290  0.33612439  1
  Ni  Ni15  1  0.33355266  0.66727746  0.00229425  1
  Ni  Ni16  1  0.50121983  0.83293588  0.16747120  1
  Cr  Cr17  1  0.33464261  0.66827100  0.33382530  1
  Ni  Ni18  1  0.66791227  1.00053181  0.99862241  1
  Cr  Cr19  1  0.83648233  0.16877185  0.16697099  1
  Fe  Fe20  1  0.66961063  0.99970980  0.33721377  1
  Ni  Ni21  1  0.66848611  0.33547153  1.00005707  1
  Ni  Ni22  1  0.83467606  0.50153586  0.16833810  1
  Ni  Ni23  1  0.66799664  0.33604969  0.33671607  1
  Ni  Ni24  1  0.66745714  0.66723899  0.00196747  1
  Cr  Cr25  1  0.83491246  0.83328938  0.16814583  1
  Ni  Ni26  1  0.66747544  0.66565990  0.33535680  1
  Ni  Ni27  1  0.16694698  0.16810085  0.50083778  1
  Ni  Ni28  1  0.00149746  0.00184557  0.66811458  1
  Ni  Ni29  1  0.16695133  0.16904394  0.83322973  1
  Ni  Ni30  1  0.16606515  0.50037558  0.50275228  1
  Ni  Ni31  1  1.00053028  0.33415267  0.66762126  1
  Ni  Ni32  1  0.16602507  0.50123210  0.83376108  1
  Fe  Fe33  1  0.16737278  0.83475572  0.50248004  1
  Ni  Ni34  1  0.00112823  0.66743515  0.66674625  1
  Ni  Ni35  1  0.16657994  0.83320689  0.83257373  1
  Ni  Ni36  1  0.50122195  0.16703337  0.50109141  1
  Ni  Ni37  1  0.33442065  1.00106100  0.66710786  1
  Ni  Ni38  1  0.50160017  0.16703454  0.83234024  1
  Ni  Ni39  1  0.50159222  0.50136212  0.50242734  1
  Ni  Ni40  1  0.33350520  0.33335391  0.66540030  1
  Cr  Cr41  1  0.49934850  0.50111157  0.83282103  1
  Ni  Ni42  1  0.50241516  0.83489737  0.50215189  1
  Ni  Ni43  1  0.33379574  0.66912607  0.66699992  1
  Ni  Ni44  1  0.50218900  0.83479281  0.83356528  1
  Ni  Ni45  1  0.83513080  0.16776558  0.50113446  1
  Ni  Ni46  1  0.66760199  0.00157202  0.66746832  1
  Ni  Ni47  1  0.83479217  0.16729024  0.83450921  1
  Ni  Ni48  1  0.83500895  0.50106048  0.50087548  1
  Ni  Ni49  1  0.66907330  0.33358060  0.66641370  1
  Ni  Ni50  1  0.83614927  0.50176010  0.83435258  1
  Fe  Fe51  1  0.83489195  0.83434718  0.50173868  1
  Ni  Ni52  1  0.66837455  0.66816865  0.66614959  1
  Ni  Ni53  1  0.83469142  0.83432428  0.83378921  1
" 