4152,Ni79Fe5Cr15_8,-233.043084036195, 165.252549491528,Ni79Fe5Cr15,"# generated using pymatgen
 data_Cr5FeNi21
_symmetry_space_group_name_H-M   'P 1'
_cell_length_a   7.46770905
_cell_length_b   7.46770905
_cell_length_c   10.56093542
_cell_angle_alpha   90.00000000
_cell_angle_beta   90.00000000
_cell_angle_gamma   90.00000000
_symmetry_Int_Tables_number   1
_chemical_formula_structural   Cr5FeNi21
_chemical_formula_sum   'Cr10 Fe2 Ni42'
_cell_volume   588.94829036
_cell_formula_units_Z   2
loop_
 _symmetry_equiv_pos_site_id
 _symmetry_equiv_pos_as_xyz
  1  'x, y, z'
loop_
 _atom_site_type_symbol
 _atom_site_label
 _atom_site_symmetry_multiplicity
 _atom_site_fract_x
 _atom_site_fract_y
 _atom_site_fract_z
 _atom_site_occupancy
  Cr  Cr0  1  0.00258318  0.00169541  0.00378802  1
  Ni  Ni1  1  0.16826711  0.16788679  0.16732189  1
  Ni  Ni2  1  0.99972181  0.00102781  0.33371415  1
  Ni  Ni3  1  0.00121232  0.33496833  0.00095821  1
  Ni  Ni4  1  0.16692838  0.50059466  0.16670635  1
  Ni  Ni5  1  0.00037166  0.33069817  0.33068614  1
  Ni  Ni6  1  0.00097509  0.66448684  0.00080747  1
  Ni  Ni7  1  0.16747800  0.83139918  0.16771585  1
  Ni  Ni8  1  0.99909497  0.66833716  0.33122105  1
  Ni  Ni9  1  0.33371883  0.99907482  0.00074537  1
  Ni  Ni10  1  0.49953748  0.16654957  0.16571760  1
  Ni  Ni11  1  0.33283409  0.99952248  0.33211218  1
  Ni  Ni12  1  0.33234697  0.33421809  0.00061782  1
  Ni  Ni13  1  0.49915515  0.50006541  0.16732932  1
  Ni  Ni14  1  0.33260203  0.33278674  0.33163597  1
  Ni  Ni15  1  0.33404229  0.66632182  0.00047271  1
  Ni  Ni16  1  0.49974633  0.83312900  0.16577639  1
  Ni  Ni17  1  0.33563332  0.66766778  0.33238996  1
  Ni  Ni18  1  0.66447062  0.99874053  0.00332132  1
  Ni  Ni19  1  0.83200208  0.16724738  0.16781638  1
  Ni  Ni20  1  0.66723827  0.99800080  0.33222086  1
  Ni  Ni21  1  0.66628949  0.33536505  0.00232822  1
  Ni  Ni22  1  0.83376670  0.50073028  0.16544761  1
  Fe  Fe23  1  0.66649672  0.33301019  0.33113469  1
  Ni  Ni24  1  0.66476812  0.66568052  0.00085124  1
  Ni  Ni25  1  0.83266523  0.83195562  0.16767221  1
  Ni  Ni26  1  0.66530921  0.66807218  0.33251999  1
  Ni  Ni27  1  0.16643173  0.16473832  0.49959523  1
  Ni  Ni28  1  0.00176694  0.99924920  0.66409476  1
  Ni  Ni29  1  0.16818967  0.16672788  0.83319556  1
  Cr  Cr30  1  0.16850167  0.50091554  0.49640352  1
  Cr  Cr31  1  0.00158653  0.33246633  0.66807640  1
  Ni  Ni32  1  0.16777323  0.50073923  0.83533881  1
  Ni  Ni33  1  0.16559333  0.83508332  0.49903609  1
  Ni  Ni34  1  0.00064919  0.66899878  0.66758541  1
  Ni  Ni35  1  0.16745878  0.83252410  0.83323566  1
  Cr  Cr36  1  0.49905317  0.16729816  0.50014378  1
  Ni  Ni37  1  0.33160144  0.99951259  0.66701102  1
  Cr  Cr38  1  0.49943331  0.16559623  0.83420081  1
  Ni  Ni39  1  0.49992555  0.49938555  0.49776215  1
  Ni  Ni40  1  0.33388347  0.33298779  0.66735938  1
  Ni  Ni41  1  0.49873948  0.49877085  0.83456739  1
  Ni  Ni42  1  0.49975718  0.83430561  0.49844577  1
  Cr  Cr43  1  0.33376584  0.66703167  0.66622086  1
  Ni  Ni44  1  0.49851996  0.83301819  0.83527897  1
  Ni  Ni45  1  0.83341265  0.16423267  0.49914950  1
  Ni  Ni46  1  0.66631028  0.99906222  0.66463962  1
  Cr  Cr47  1  0.83128708  0.16614596  0.83366048  1
  Cr  Cr48  1  0.83339985  0.50057835  0.49813018  1
  Ni  Ni49  1  0.66527279  0.33375823  0.66581574  1
  Fe  Fe50  1  0.83315172  0.50020317  0.83578940  1
  Ni  Ni51  1  0.83438907  0.83523874  0.49917105  1
  Cr  Cr52  1  0.66494395  0.66649865  0.66644364  1
  Cr  Cr53  1  0.83355519  0.83330856  0.83422833  1
" 