7981,Ni79Fe19Cr1_0,-241.525752094886, 204.352665148066,Ni79Fe19Cr1,"# generated using pymatgen
 data_CrFe5Ni21
_symmetry_space_group_name_H-M   'P 1'
_cell_length_a   7.43225779
_cell_length_b   7.43225779
_cell_length_c   10.51079976
_cell_angle_alpha   90.00000000
_cell_angle_beta   90.00000000
_cell_angle_gamma   90.00000000
_symmetry_Int_Tables_number   1
_chemical_formula_structural   CrFe5Ni21
_chemical_formula_sum   'Cr2 Fe10 Ni42'
_cell_volume   580.60034772
_cell_formula_units_Z   2
loop_
 _symmetry_equiv_pos_site_id
 _symmetry_equiv_pos_as_xyz
  1  'x, y, z'
loop_
 _atom_site_type_symbol
 _atom_site_label
 _atom_site_symmetry_multiplicity
 _atom_site_fract_x
 _atom_site_fract_y
 _atom_site_fract_z
 _atom_site_occupancy
  Ni  Ni0  1  1.00166831  0.00297282  1.00213455  1
  Ni  Ni1  1  0.16667744  0.16843253  0.16898003  1
  Ni  Ni2  1  1.00195829  1.00201811  0.33592855  1
  Ni  Ni3  1  0.00325993  0.33466609  1.00204813  1
  Ni  Ni4  1  0.16936176  0.50321175  0.16816481  1
  Ni  Ni5  1  1.00083404  0.33552487  0.33592431  1
  Fe  Fe6  1  1.00228655  0.66852248  0.00277655  1
  Ni  Ni7  1  0.16903802  0.83537366  0.16966437  1
  Ni  Ni8  1  0.00267972  0.66948063  0.33530953  1
  Fe  Fe9  1  0.33591409  0.00267274  1.00202961  1
  Fe  Fe10  1  0.50302874  0.16771898  0.16839450  1
  Ni  Ni11  1  0.33532967  0.99991394  0.33563861  1
  Ni  Ni12  1  0.33510852  0.33734700  1.00169282  1
  Ni  Ni13  1  0.50255725  0.50380201  0.16812153  1
  Cr  Cr14  1  0.33523015  0.33638631  0.33591989  1
  Ni  Ni15  1  0.33630575  0.66778903  0.00238996  1
  Ni  Ni16  1  0.50257418  0.83447605  0.17044377  1
  Ni  Ni17  1  0.33563317  0.67055116  0.33585916  1
  Ni  Ni18  1  0.67024578  1.00177673  1.00209805  1
  Ni  Ni19  1  0.83599513  0.16841824  0.16958461  1
  Ni  Ni20  1  0.66973036  1.00176434  0.33566758  1
  Ni  Ni21  1  0.66865243  0.33586404  1.00201610  1
  Fe  Fe22  1  0.83591082  0.50256255  0.16878346  1
  Ni  Ni23  1  0.67080723  0.33582523  0.33563658  1
  Ni  Ni24  1  0.66756337  0.66938109  1.00186601  1
  Ni  Ni25  1  0.83541013  0.83715914  0.16883365  1
  Ni  Ni26  1  0.66871121  0.66943410  0.33591660  1
  Fe  Fe27  1  0.16703163  0.16702403  0.50234484  1
  Ni  Ni28  1  1.00178852  0.00257317  0.66895846  1
  Ni  Ni29  1  0.16735918  0.16799151  0.83569497  1
  Ni  Ni30  1  0.16851008  0.50512510  0.50224168  1
  Ni  Ni31  1  1.00056842  0.33516166  0.66904453  1
  Ni  Ni32  1  0.16838071  0.50351332  0.83661294  1
  Ni  Ni33  1  0.16856608  0.83468228  0.50164744  1
  Fe  Fe34  1  0.00312452  0.66937882  0.66839967  1
  Ni  Ni35  1  0.16975958  0.83551618  0.83570769  1
  Ni  Ni36  1  0.50570493  0.16836097  0.50182739  1
  Ni  Ni37  1  0.33543264  0.99962586  0.66956580  1
  Ni  Ni38  1  0.50428337  0.16828958  0.83709263  1
  Ni  Ni39  1  0.50308073  0.50313265  0.50254221  1
  Cr  Cr40  1  0.33542929  0.33664256  0.66959922  1
  Ni  Ni41  1  0.50329939  0.50325676  0.83635759  1
  Fe  Fe42  1  0.50198938  0.83593480  0.50214526  1
  Ni  Ni43  1  0.33568319  0.67045624  0.66877199  1
  Ni  Ni44  1  0.50162333  0.83547549  0.83462924  1
  Ni  Ni45  1  0.83458854  0.16842036  0.50228549  1
  Ni  Ni46  1  0.66979946  0.00237043  0.66925974  1
  Ni  Ni47  1  0.83538016  0.16966561  0.83515141  1
  Fe  Fe48  1  0.83567580  0.50173282  0.50237874  1
  Ni  Ni49  1  0.67097156  0.33541047  0.66936688  1
  Ni  Ni50  1  0.83533828  0.50084774  0.83525341  1
  Ni  Ni51  1  0.83657736  0.83730690  0.50242285  1
  Fe  Fe52  1  0.66860545  0.66905924  0.66932725  1
  Fe  Fe53  1  0.83536128  0.83638476  0.83593228  1
" 