9004,Ni79Fe5Cr15_11,-232.89312843444, 164.67748512125,Ni79Fe5Cr15,"# generated using pymatgen
 data_Cr5FeNi21
_symmetry_space_group_name_H-M   'P 1'
_cell_length_a   7.46760611
_cell_length_b   7.46760611
_cell_length_c   10.56078983
_cell_angle_alpha   90.00000000
_cell_angle_beta   90.00000000
_cell_angle_gamma   90.00000000
_symmetry_Int_Tables_number   1
_chemical_formula_structural   Cr5FeNi21
_chemical_formula_sum   'Cr10 Fe2 Ni42'
_cell_volume   588.92393384
_cell_formula_units_Z   2
loop_
 _symmetry_equiv_pos_site_id
 _symmetry_equiv_pos_as_xyz
  1  'x, y, z'
loop_
 _atom_site_type_symbol
 _atom_site_label
 _atom_site_symmetry_multiplicity
 _atom_site_fract_x
 _atom_site_fract_y
 _atom_site_fract_z
 _atom_site_occupancy
  Fe  Fe0  1  0.00040021  0.00081124  0.00162038  1
  Ni  Ni1  1  0.16905152  0.16658666  0.16656986  1
  Cr  Cr2  1  0.99954558  0.00003684  0.33230686  1
  Cr  Cr3  1  0.00013357  0.33340424  0.00028084  1
  Ni  Ni4  1  0.16742857  0.50119064  0.16721121  1
  Ni  Ni5  1  0.00020624  0.33495951  0.33163876  1
  Ni  Ni6  1  0.00150646  0.66566961  0.00183817  1
  Ni  Ni7  1  0.16740916  0.83213749  0.16559578  1
  Ni  Ni8  1  0.00099200  0.66556487  0.33256814  1
  Ni  Ni9  1  0.33503456  0.00078182  0.00095574  1
  Ni  Ni10  1  0.49977593  0.16705999  0.16622202  1
  Ni  Ni11  1  0.33526380  0.99784594  0.33141201  1
  Ni  Ni12  1  0.33423656  0.33254601  0.99969120  1
  Ni  Ni13  1  0.49917975  0.49853238  0.16764960  1
  Ni  Ni14  1  0.33266893  0.33543403  0.33121098  1
  Ni  Ni15  1  0.33247158  0.66648895  0.00057167  1
  Ni  Ni16  1  0.49871451  0.83430397  0.16735328  1
  Ni  Ni17  1  0.33353261  0.66666268  0.33363703  1
  Ni  Ni18  1  0.66480680  0.00226316  0.00054134  1
  Ni  Ni19  1  0.83113515  0.16700998  0.16669840  1
  Ni  Ni20  1  0.66588444  0.99866184  0.33282523  1
  Ni  Ni21  1  0.66565564  0.33103595  0.99939903  1
  Ni  Ni22  1  0.83333812  0.50016445  0.16831388  1
  Ni  Ni23  1  0.66695502  0.33318381  0.33117419  1
  Cr  Cr24  1  0.66504211  0.66616946  0.00112432  1
  Ni  Ni25  1  0.83384082  0.83275502  0.16641508  1
  Ni  Ni26  1  0.66538837  0.66800598  0.33223609  1
  Cr  Cr27  1  0.16784320  0.16660495  0.49956264  1
  Ni  Ni28  1  0.99909858  0.99970665  0.66631774  1
  Ni  Ni29  1  0.16906773  0.16590042  0.83314565  1
  Ni  Ni30  1  0.16923944  0.50327300  0.49985822  1
  Cr  Cr31  1  0.00026538  0.33290977  0.66775335  1
  Fe  Fe32  1  0.16888166  0.49989599  0.83353634  1
  Ni  Ni33  1  0.16723741  0.83047865  0.50129088  1
  Ni  Ni34  1  0.00258745  0.66739005  0.66566366  1
  Cr  Cr35  1  0.16776017  0.83364965  0.83361507  1
  Cr  Cr36  1  0.50134283  0.16786255  0.49970710  1
  Ni  Ni37  1  0.33424869  0.99887334  0.66746763  1
  Ni  Ni38  1  0.49954403  0.16764931  0.83322320  1
  Ni  Ni39  1  0.49730169  0.50057704  0.49921735  1
  Ni  Ni40  1  0.33444787  0.33494998  0.66889373  1
  Ni  Ni41  1  0.49884036  0.49726056  0.83300739  1
  Ni  Ni42  1  0.49865429  0.83251428  0.49950530  1
  Ni  Ni43  1  0.33258588  0.66610885  0.66584794  1
  Ni  Ni44  1  0.49753495  0.83494418  0.83301395  1
  Ni  Ni45  1  0.83137824  0.16482372  0.50067183  1
  Ni  Ni46  1  0.66653541  0.00142208  0.66654111  1
  Ni  Ni47  1  0.83127999  0.16735795  0.83252606  1
  Cr  Cr48  1  0.83257970  0.49957118  0.49741441  1
  Ni  Ni49  1  0.66529720  0.33121658  0.66909999  1
  Ni  Ni50  1  0.83245599  0.49817836  0.83346228  1
  Ni  Ni51  1  0.83400535  0.83447204  0.50046406  1
  Cr  Cr52  1  0.66392661  0.66712899  0.66651582  1
  Cr  Cr53  1  0.83444255  0.83399403  0.83359691  1
" 