6412,Ni79Cr21_9,-207.952915997497, 161.740695932776,Ni79Cr21,"# generated using pymatgen
 data_Cr7Ni2
_symmetry_space_group_name_H-M   'P 1'
_cell_length_a   7.57715794
_cell_length_b   7.57715794
_cell_length_c   10.71571953
_cell_angle_alpha   90.00000000
_cell_angle_beta   90.00000000
_cell_angle_gamma   90.00000000
_symmetry_Int_Tables_number   1
_chemical_formula_structural   Cr7Ni2
_chemical_formula_sum   'Cr42 Ni12'
_cell_volume   615.22506064
_cell_formula_units_Z   6
loop_
 _symmetry_equiv_pos_site_id
 _symmetry_equiv_pos_as_xyz
  1  'x, y, z'
loop_
 _atom_site_type_symbol
 _atom_site_label
 _atom_site_symmetry_multiplicity
 _atom_site_fract_x
 _atom_site_fract_y
 _atom_site_fract_z
 _atom_site_occupancy
  Cr  Cr0  1  -0.00687437  0.99021383  0.99150519  1
  Cr  Cr1  1  0.15918733  0.16002715  0.16276663  1
  Cr  Cr2  1  -0.00652795  0.98932590  0.32575129  1
  Cr  Cr3  1  0.99033506  0.32695123  0.99059391  1
  Cr  Cr4  1  0.16005442  0.48805051  0.16100659  1
  Ni  Ni5  1  -0.00656949  0.32695226  0.32609331  1
  Cr  Cr6  1  -0.00555709  0.66087181  -0.00617219  1
  Ni  Ni7  1  0.15956940  0.82637071  0.15890314  1
  Cr  Cr8  1  -0.00709976  0.65950268  0.32412456  1
  Cr  Cr9  1  0.32652698  0.99135964  0.99244898  1
  Cr  Cr10  1  0.49210520  0.15862001  0.15865469  1
  Cr  Cr11  1  0.32726879  0.99186103  0.32630312  1
  Cr  Cr12  1  0.32880293  0.32569190  0.99162130  1
  Cr  Cr13  1  0.49354907  0.49425969  0.15904415  1
  Ni  Ni14  1  0.32667932  0.32606089  0.32764039  1
  Cr  Cr15  1  0.32333858  0.66104269  -0.00655546  1
  Cr  Cr16  1  0.49546123  0.82550955  0.15751074  1
  Cr  Cr17  1  0.32513091  0.66009573  0.32426258  1
  Ni  Ni18  1  0.65935952  0.99232248  0.98997144  1
  Cr  Cr19  1  0.82722362  0.15840111  0.15813263  1
  Cr  Cr20  1  0.65802676  -0.00617424  0.32817465  1
  Cr  Cr21  1  0.65883501  0.32442520  0.98923128  1
  Cr  Cr22  1  0.82429601  0.49330592  0.15991386  1
  Cr  Cr23  1  0.65792101  0.32627772  0.32797823  1
  Ni  Ni24  1  0.65938867  0.66141015  -0.00714754  1
  Cr  Cr25  1  0.82215052  0.82629306  0.15867238  1
  Ni  Ni26  1  0.65852481  0.65913491  0.32595828  1
  Cr  Cr27  1  0.16026164  0.16129650  0.48976723  1
  Cr  Cr28  1  0.99209998  0.99183013  0.66141593  1
  Cr  Cr29  1  0.15905293  0.15870335  0.82611862  1
  Cr  Cr30  1  0.16042653  0.49039488  0.49378613  1
  Cr  Cr31  1  0.98904773  0.32575417  0.66127695  1
  Cr  Cr32  1  0.16138341  0.49256323  0.82378294  1
  Cr  Cr33  1  0.16085026  0.82612676  0.49592778  1
  Cr  Cr34  1  -0.00552364  0.66062464  0.66053833  1
  Ni  Ni35  1  0.16108480  0.82517581  0.82464459  1
  Ni  Ni36  1  0.49160887  0.16115016  0.49155118  1
  Cr  Cr37  1  0.32764583  0.99266529  0.65964380  1
  Ni  Ni38  1  0.49541635  0.15702644  0.82721562  1
  Cr  Cr39  1  0.49198420  0.49573052  0.49333347  1
  Cr  Cr40  1  0.33059485  0.32494614  0.65973968  1
  Cr  Cr41  1  0.49310308  0.49608846  0.82616706  1
  Cr  Cr42  1  0.49437297  0.82473292  0.49448725  1
  Ni  Ni43  1  0.32808923  0.66049218  0.66119135  1
  Cr  Cr44  1  0.49366747  0.82556386  0.82596467  1
  Cr  Cr45  1  0.82937195  0.15942296  0.49151478  1
  Cr  Cr46  1  0.65820740  -0.00279219  0.65820211  1
  Ni  Ni47  1  0.82245723  0.15698001  0.82760736  1
  Cr  Cr48  1  0.82541194  0.49459750  0.49204396  1
  Cr  Cr49  1  0.65856532  0.32516521  0.66070052  1
  Cr  Cr50  1  0.82422835  0.49504774  0.82609658  1
  Cr  Cr51  1  0.82279598  0.82417168  0.49341368  1
  Ni  Ni52  1  0.65730103  0.65952771  0.65928396  1
  Cr  Cr53  1  0.82302710  0.82648972  0.82583562  1
" 