2485,Ni79Fe5Cr15_0,-232.762777812894, 162.564590397961,Ni79Fe5Cr15,"# generated using pymatgen
 data_Cr5FeNi21
_symmetry_space_group_name_H-M   'P 1'
_cell_length_a   7.46816458
_cell_length_b   7.46816458
_cell_length_c   10.56157964
_cell_angle_alpha   90.00000000
_cell_angle_beta   90.00000000
_cell_angle_gamma   90.00000000
_symmetry_Int_Tables_number   1
_chemical_formula_structural   Cr5FeNi21
_chemical_formula_sum   'Cr10 Fe2 Ni42'
_cell_volume   589.05607378
_cell_formula_units_Z   2
loop_
 _symmetry_equiv_pos_site_id
 _symmetry_equiv_pos_as_xyz
  1  'x, y, z'
loop_
 _atom_site_type_symbol
 _atom_site_label
 _atom_site_symmetry_multiplicity
 _atom_site_fract_x
 _atom_site_fract_y
 _atom_site_fract_z
 _atom_site_occupancy
  Ni  Ni0  1  0.00084469  0.00028338  0.99896202  1
  Ni  Ni1  1  0.16820974  0.16635375  0.16600103  1
  Ni  Ni2  1  0.00056734  0.99847531  0.33454663  1
  Ni  Ni3  1  0.99969407  0.33194692  0.99946874  1
  Fe  Fe4  1  0.16744225  0.49900862  0.16775406  1
  Ni  Ni5  1  0.00148781  0.33357291  0.33380814  1
  Cr  Cr6  1  0.99852166  0.66759459  0.00098911  1
  Ni  Ni7  1  0.16614257  0.83430470  0.16752232  1
  Ni  Ni8  1  0.00041729  0.66771809  0.33254012  1
  Ni  Ni9  1  0.33266027  0.00096285  0.99891627  1
  Ni  Ni10  1  0.49779134  0.16905301  0.16670161  1
  Ni  Ni11  1  0.33089533  0.00091270  0.33245955  1
  Ni  Ni12  1  0.33381268  0.33130820  0.00195336  1
  Ni  Ni13  1  0.50021984  0.49839304  0.16660376  1
  Ni  Ni14  1  0.33203974  0.33322641  0.33172658  1
  Ni  Ni15  1  0.33407579  0.66751029  0.00043681  1
  Cr  Cr16  1  0.49953563  0.83319792  0.16645991  1
  Ni  Ni17  1  0.33067769  0.66564168  0.33298233  1
  Ni  Ni18  1  0.66627882  0.00001265  0.99807277  1
  Cr  Cr19  1  0.83372546  0.16659376  0.16702008  1
  Ni  Ni20  1  0.66832875  0.99984156  0.33367968  1
  Ni  Ni21  1  0.66626104  0.33337148  0.99986979  1
  Ni  Ni22  1  0.83183140  0.50042277  0.16691076  1
  Ni  Ni23  1  0.66625140  0.33334927  0.33163507  1
  Ni  Ni24  1  0.66692179  0.66638987  0.99964665  1
  Ni  Ni25  1  0.83454027  0.83183239  0.16764201  1
  Ni  Ni26  1  0.66868030  0.66659091  0.33163011  1
  Ni  Ni27  1  0.16439043  0.16663709  0.50063719  1
  Ni  Ni28  1  0.99981188  0.00133301  0.66627618  1
  Fe  Fe29  1  0.16615277  0.16459998  0.83333289  1
  Ni  Ni30  1  0.16733698  0.49911143  0.49861743  1
  Ni  Ni31  1  0.99983662  0.33041749  0.66650230  1
  Cr  Cr32  1  0.16658482  0.49888866  0.83310381  1
  Ni  Ni33  1  0.16578732  0.83402171  0.49911192  1
  Cr  Cr34  1  0.99971739  0.66807324  0.66618936  1
  Ni  Ni35  1  0.16852673  0.83614142  0.83314613  1
  Cr  Cr36  1  0.50041915  0.16657027  0.49913404  1
  Ni  Ni37  1  0.33203740  -0.00005039  0.66840334  1
  Ni  Ni38  1  0.50075276  0.16479588  0.83357798  1
  Cr  Cr39  1  0.49830510  0.50038190  0.50073172  1
  Ni  Ni40  1  0.33201601  0.33178216  0.66607992  1
  Cr  Cr41  1  0.50110653  0.50047346  0.83240119  1
  Cr  Cr42  1  0.49964534  0.83283596  0.50033443  1
  Ni  Ni43  1  0.33329993  0.66804018  0.66633699  1
  Ni  Ni44  1  0.49947364  0.83492636  0.83302027  1
  Ni  Ni45  1  0.83566178  0.16511332  0.50010314  1
  Ni  Ni46  1  0.66792478  0.00001141  0.66801959  1
  Ni  Ni47  1  0.83293517  0.16669656  0.83282633  1
  Cr  Cr48  1  0.83377822  0.49850994  0.49987554  1
  Ni  Ni49  1  0.66791357  0.33168165  0.66827868  1
  Ni  Ni50  1  0.83170630  0.49763323  0.83334106  1
  Ni  Ni51  1  0.83465614  0.83594086  0.49874891  1
  Ni  Ni52  1  0.66655763  0.66808797  0.66850961  1
  Ni  Ni53  1  0.83177245  0.83543798  0.83338255  1
" 