5982,Ni79Fe9Cr10_7,-236.947605648838, 181.395402950161,Ni79Fe9Cr10,"# generated using pymatgen
 data_Cr6Fe5Ni43
_symmetry_space_group_name_H-M   'P 1'
_cell_length_a   7.44907175
_cell_length_b   7.44907175
_cell_length_c   10.53457830
_cell_angle_alpha   90.00000000
_cell_angle_beta   90.00000000
_cell_angle_gamma   90.00000000
_symmetry_Int_Tables_number   1
_chemical_formula_structural   Cr6Fe5Ni43
_chemical_formula_sum   'Cr6 Fe5 Ni43'
_cell_volume   584.54973879
_cell_formula_units_Z   1
loop_
 _symmetry_equiv_pos_site_id
 _symmetry_equiv_pos_as_xyz
  1  'x, y, z'
loop_
 _atom_site_type_symbol
 _atom_site_label
 _atom_site_symmetry_multiplicity
 _atom_site_fract_x
 _atom_site_fract_y
 _atom_site_fract_z
 _atom_site_occupancy
  Fe  Fe0  1  1.00004352  0.00178307  0.00165756  1
  Ni  Ni1  1  0.16662237  0.16768807  0.16680402  1
  Ni  Ni2  1  1.00080678  1.00044127  0.33281307  1
  Ni  Ni3  1  0.99917875  0.33405311  1.00101761  1
  Cr  Cr4  1  0.16928311  0.50190639  0.16701696  1
  Ni  Ni5  1  0.00202710  0.33449644  0.33350237  1
  Ni  Ni6  1  0.99702461  0.66762465  0.00230988  1
  Ni  Ni7  1  0.16680263  0.83527207  0.16769053  1
  Ni  Ni8  1  0.99730862  0.66931190  0.33497173  1
  Ni  Ni9  1  0.33646003  0.00295422  0.00222851  1
  Ni  Ni10  1  0.50311098  0.16857958  0.16849281  1
  Cr  Cr11  1  0.33484063  0.00222424  0.33514158  1
  Ni  Ni12  1  0.33635807  0.33123165  1.00106313  1
  Ni  Ni13  1  0.50288310  0.50122068  0.16790998  1
  Ni  Ni14  1  0.33558042  0.33318607  0.33437865  1
  Ni  Ni15  1  0.33769601  0.66971667  0.00351203  1
  Ni  Ni16  1  0.50277843  0.83373407  0.16707842  1
  Fe  Fe17  1  0.33575121  0.66893882  0.33466321  1
  Ni  Ni18  1  0.66615753  1.00098132  0.00146786  1
  Ni  Ni19  1  0.83397514  0.16712121  0.16796155  1
  Ni  Ni20  1  0.66775275  0.99816965  0.33349441  1
  Ni  Ni21  1  0.66824075  0.33474162  0.00216960  1
  Ni  Ni22  1  0.83296069  0.50084127  0.16922850  1
  Fe  Fe23  1  0.66812858  0.33473240  0.33339077  1
  Ni  Ni24  1  0.66916034  0.66796993  1.00079354  1
  Ni  Ni25  1  0.83367722  0.83555532  0.16791171  1
  Ni  Ni26  1  0.66881761  0.66830978  0.33433942  1
  Ni  Ni27  1  0.16627796  0.16784821  0.50251521  1
  Ni  Ni28  1  0.00126783  0.00129051  0.66816566  1
  Ni  Ni29  1  0.16746560  0.16809507  0.83407528  1
  Cr  Cr30  1  0.16923543  0.50097557  0.50200432  1
  Ni  Ni31  1  1.00018237  0.33396843  0.66902370  1
  Cr  Cr32  1  0.16982363  0.50085307  0.83479062  1
  Ni  Ni33  1  0.16654644  0.83535362  0.50183751  1
  Ni  Ni34  1  0.99767088  0.66889089  0.66654246  1
  Cr  Cr35  1  0.16895399  0.83499752  0.83444556  1
  Fe  Fe36  1  0.50052782  0.16703339  0.50213649  1
  Ni  Ni37  1  0.33531698  0.00228127  0.66656594  1
  Ni  Ni38  1  0.50263388  0.16792883  0.83324395  1
  Ni  Ni39  1  0.50236587  0.50124850  0.50057908  1
  Ni  Ni40  1  0.33619682  0.33221227  0.66815089  1
  Ni  Ni41  1  0.50276353  0.50127398  0.83523294  1
  Ni  Ni42  1  0.50329689  0.83218014  0.50248374  1
  Ni  Ni43  1  0.33760611  0.66892151  0.66622798  1
  Ni  Ni44  1  0.50299154  0.83442883  0.83437506  1
  Cr  Cr45  1  0.83366188  0.16631078  0.50042080  1
  Ni  Ni46  1  0.66654827  1.00001121  0.66854384  1
  Ni  Ni47  1  0.83322633  0.16767301  0.83473829  1
  Fe  Fe48  1  0.83368047  0.50308603  0.50129328  1
  Ni  Ni49  1  0.66684469  0.33597955  0.66766272  1
  Ni  Ni50  1  0.83263383  0.50049197  0.83320679  1
  Ni  Ni51  1  0.83352141  0.83555617  0.50142651  1
  Ni  Ni52  1  0.66824670  0.66787062  0.66849227  1
  Ni  Ni53  1  0.83224136  0.83560911  0.83396524  1
" 