6045,Ni79Cr21_19,-207.981904248344, 160.669022587799,Ni79Cr21,"# generated using pymatgen
 data_Cr7Ni2
_symmetry_space_group_name_H-M   'P 1'
_cell_length_a   7.57224407
_cell_length_b   7.57224407
_cell_length_c   10.70877027
_cell_angle_alpha   90.00000000
_cell_angle_beta   90.00000000
_cell_angle_gamma   90.00000000
_symmetry_Int_Tables_number   1
_chemical_formula_structural   Cr7Ni2
_chemical_formula_sum   'Cr42 Ni12'
_cell_volume   614.02889674
_cell_formula_units_Z   6
loop_
 _symmetry_equiv_pos_site_id
 _symmetry_equiv_pos_as_xyz
  1  'x, y, z'
loop_
 _atom_site_type_symbol
 _atom_site_label
 _atom_site_symmetry_multiplicity
 _atom_site_fract_x
 _atom_site_fract_y
 _atom_site_fract_z
 _atom_site_occupancy
  Ni  Ni0  1  0.99240253  0.99154030  -0.00542730  1
  Cr  Cr1  1  0.15783764  0.15827710  0.16067111  1
  Ni  Ni2  1  0.99178562  -0.00558066  0.32506051  1
  Cr  Cr3  1  -0.00663652  0.32526839  0.99177919  1
  Cr  Cr4  1  0.16210228  0.49341858  0.15873569  1
  Ni  Ni5  1  0.99102842  0.32437033  0.32689015  1
  Cr  Cr6  1  0.99259530  0.66171967  -0.00680420  1
  Cr  Cr7  1  0.15809197  0.82758631  0.15856045  1
  Cr  Cr8  1  0.99149668  0.66085044  0.32689236  1
  Cr  Cr9  1  0.32738285  -0.00647430  0.99178104  1
  Ni  Ni10  1  0.49442803  0.16292089  0.16069971  1
  Cr  Cr11  1  0.32552582  -0.00563516  0.32682112  1
  Cr  Cr12  1  0.32840139  0.32621623  -0.00670460  1
  Ni  Ni13  1  0.49320871  0.49114219  0.15988430  1
  Cr  Cr14  1  0.32774925  0.32572655  0.32524472  1
  Ni  Ni15  1  0.32819170  0.65982555  0.99287297  1
  Cr  Cr16  1  0.49292048  0.82459892  0.15877228  1
  Cr  Cr17  1  0.32715751  0.65903908  0.32577677  1
  Cr  Cr18  1  0.65968267  0.99273743  0.99202683  1
  Cr  Cr19  1  0.82694287  0.15827041  0.16145006  1
  Cr  Cr20  1  0.66078174  -0.00645598  0.32533543  1
  Cr  Cr21  1  0.65738244  0.32569083  -0.00606615  1
  Cr  Cr22  1  0.82407875  0.49191817  0.16124801  1
  Ni  Ni23  1  0.65985377  0.32618190  0.32440042  1
  Cr  Cr24  1  0.65871908  0.66064376  -0.00506735  1
  Ni  Ni25  1  0.82827756  0.82857486  0.15982616  1
  Cr  Cr26  1  0.66043310  0.65849949  0.32426885  1
  Cr  Cr27  1  0.15779045  0.15946637  0.49059044  1
  Cr  Cr28  1  0.99196318  0.99163152  0.65939041  1
  Cr  Cr29  1  0.15963896  0.15896652  0.82783728  1
  Cr  Cr30  1  0.15855829  0.49334116  0.49411865  1
  Cr  Cr31  1  -0.00629146  0.32872037  0.65998329  1
  Cr  Cr32  1  0.15990399  0.49495172  0.82626097  1
  Cr  Cr33  1  0.15914421  0.82643625  0.49271106  1
  Ni  Ni34  1  0.99281464  0.65988926  0.65966204  1
  Cr  Cr35  1  0.16105894  0.82527605  0.82785653  1
  Cr  Cr36  1  0.49533846  0.15948499  0.49347823  1
  Cr  Cr37  1  0.32981596  -0.00599906  0.66059361  1
  Ni  Ni38  1  0.49414933  0.15660077  0.82499319  1
  Cr  Cr39  1  0.49402396  0.49270754  0.49105583  1
  Cr  Cr40  1  0.32638112  0.32451896  0.66064900  1
  Cr  Cr41  1  0.49218431  0.49440005  0.82794640  1
  Cr  Cr42  1  0.49337007  0.82692591  0.49511322  1
  Cr  Cr43  1  0.32527641  0.66062693  0.65974361  1
  Ni  Ni44  1  0.49290832  0.82852897  0.82584994  1
  Cr  Cr45  1  0.82605447  0.16003697  0.49130418  1
  Ni  Ni46  1  0.65769680  0.99274702  0.66196491  1
  Cr  Cr47  1  0.82489026  0.15847383  0.82633188  1
  Cr  Cr48  1  0.82662517  0.49143647  0.49320057  1
  Cr  Cr49  1  0.65902698  0.32403274  0.66088761  1
  Cr  Cr50  1  0.82708483  0.49306793  0.82469634  1
  Cr  Cr51  1  0.82666747  0.82771068  0.49394552  1
  Cr  Cr52  1  0.66152665  0.66242955  0.66001450  1
  Cr  Cr53  1  0.82548243  0.82762509  0.82579811  1
" 