6622,Ni79Fe9Cr10_16,-236.931024497816, 182.114060083662,Ni79Fe9Cr10,"# generated using pymatgen
 data_Cr6Fe5Ni43
_symmetry_space_group_name_H-M   'P 1'
_cell_length_a   7.44909375
_cell_length_b   7.44909375
_cell_length_c   10.53460940
_cell_angle_alpha   90.00000000
_cell_angle_beta   90.00000000
_cell_angle_gamma   90.00000000
_symmetry_Int_Tables_number   1
_chemical_formula_structural   Cr6Fe5Ni43
_chemical_formula_sum   'Cr6 Fe5 Ni43'
_cell_volume   584.55491645
_cell_formula_units_Z   1
loop_
 _symmetry_equiv_pos_site_id
 _symmetry_equiv_pos_as_xyz
  1  'x, y, z'
loop_
 _atom_site_type_symbol
 _atom_site_label
 _atom_site_symmetry_multiplicity
 _atom_site_fract_x
 _atom_site_fract_y
 _atom_site_fract_z
 _atom_site_occupancy
  Ni  Ni0  1  1.00083034  0.00295702  1.00000132  1
  Ni  Ni1  1  0.16926564  0.16787526  0.16669539  1
  Cr  Cr2  1  1.00087695  0.00207855  0.33584563  1
  Ni  Ni3  1  0.00167786  0.33450521  1.00070859  1
  Fe  Fe4  1  0.16829112  0.50107361  0.16868023  1
  Ni  Ni5  1  0.00137678  0.33557057  0.33474519  1
  Ni  Ni6  1  0.00150051  0.66598108  0.00123362  1
  Ni  Ni7  1  0.17006166  0.83467924  0.16697383  1
  Ni  Ni8  1  0.00247243  0.66545810  0.33609659  1
  Ni  Ni9  1  0.33485635  1.00090799  0.00269858  1
  Ni  Ni10  1  0.50018411  0.16913734  0.16805827  1
  Ni  Ni11  1  0.33637733  1.00080584  0.33518869  1
  Ni  Ni12  1  0.33322661  0.33578325  0.00163311  1
  Ni  Ni13  1  0.50268447  0.50044112  0.16738920  1
  Ni  Ni14  1  0.33440343  0.33457980  0.33504901  1
  Ni  Ni15  1  0.33579887  0.66700774  0.00152605  1
  Ni  Ni16  1  0.49870607  0.83407928  0.16697604  1
  Ni  Ni17  1  0.33495575  0.66814936  0.33495225  1
  Ni  Ni18  1  0.66769148  1.00049658  0.00162831  1
  Ni  Ni19  1  0.83409394  0.17167359  0.16571214  1
  Ni  Ni20  1  0.66521501  0.00191248  0.33495895  1
  Ni  Ni21  1  0.66867306  0.33535530  0.00134778  1
  Ni  Ni22  1  0.83372170  0.49948115  0.16830616  1
  Ni  Ni23  1  0.66791026  0.33393756  0.33551370  1
  Ni  Ni24  1  0.66662993  0.66773952  0.99959655  1
  Cr  Cr25  1  0.83452846  0.83170962  0.16701486  1
  Ni  Ni26  1  0.66627069  0.66779273  0.33614783  1
  Ni  Ni27  1  0.16916788  0.16684234  0.50068282  1
  Fe  Fe28  1  0.99930047  1.00002945  0.66696414  1
  Ni  Ni29  1  0.16662994  0.16733832  0.83633455  1
  Ni  Ni30  1  0.16760924  0.50290122  0.49952824  1
  Cr  Cr31  1  1.00022604  0.33507356  0.66792832  1
  Fe  Fe32  1  0.16835672  0.50271625  0.83545766  1
  Ni  Ni33  1  0.16854490  0.83355462  0.50223491  1
  Ni  Ni34  1  1.00040457  0.66845300  0.66637908  1
  Cr  Cr35  1  0.16773481  0.83612415  0.83438613  1
  Ni  Ni36  1  0.50171825  0.16770481  0.49996442  1
  Fe  Fe37  1  0.33619264  0.99964319  0.66623269  1
  Cr  Cr38  1  0.49994561  0.16810776  0.83583141  1
  Ni  Ni39  1  0.50275034  0.50157821  0.50117957  1
  Cr  Cr40  1  0.33501322  0.33700010  0.66667161  1
  Ni  Ni41  1  0.50408004  0.50271541  0.83500418  1
  Ni  Ni42  1  0.50086980  0.83423064  0.50157390  1
  Ni  Ni43  1  0.33576187  0.66878792  0.66708004  1
  Ni  Ni44  1  0.50264483  0.83261300  0.83515348  1
  Ni  Ni45  1  0.83278009  0.16867486  0.50193687  1
  Ni  Ni46  1  0.66885108  0.99944746  0.66694218  1
  Fe  Fe47  1  0.83336637  0.16670552  0.83552029  1
  Ni  Ni48  1  0.83334530  0.50221810  0.50019168  1
  Ni  Ni49  1  0.66872605  0.33468983  0.66679572  1
  Ni  Ni50  1  0.83292131  0.50268826  0.83525658  1
  Ni  Ni51  1  0.83416774  0.83252950  0.50245556  1
  Ni  Ni52  1  0.66758762  0.66919826  0.66810539  1
  Ni  Ni53  1  0.83409807  0.83234098  0.83460635  1
" 