1809,Ni79Fe5Cr15_10,-232.936821726771, 163.823797328969,Ni79Fe5Cr15,"# generated using pymatgen
 data_Cr5FeNi21
_symmetry_space_group_name_H-M   'P 1'
_cell_length_a   7.46730126
_cell_length_b   7.46730126
_cell_length_c   10.56035872
_cell_angle_alpha   90.00000000
_cell_angle_beta   90.00000000
_cell_angle_gamma   90.00000000
_symmetry_Int_Tables_number   1
_chemical_formula_structural   Cr5FeNi21
_chemical_formula_sum   'Cr10 Fe2 Ni42'
_cell_volume   588.85181267
_cell_formula_units_Z   2
loop_
 _symmetry_equiv_pos_site_id
 _symmetry_equiv_pos_as_xyz
  1  'x, y, z'
loop_
 _atom_site_type_symbol
 _atom_site_label
 _atom_site_symmetry_multiplicity
 _atom_site_fract_x
 _atom_site_fract_y
 _atom_site_fract_z
 _atom_site_occupancy
  Ni  Ni0  1  0.99956301  0.99837582  0.00205437  1
  Ni  Ni1  1  0.16556011  0.16543971  0.16725058  1
  Ni  Ni2  1  0.99832263  0.00137041  0.33242174  1
  Cr  Cr3  1  0.00186683  0.33476437  0.00075396  1
  Ni  Ni4  1  0.16756528  0.50100836  0.16819737  1
  Ni  Ni5  1  0.00187626  0.33259602  0.33306227  1
  Ni  Ni6  1  0.99869528  0.66728253  0.00125161  1
  Ni  Ni7  1  0.16484526  0.83347700  0.16683449  1
  Ni  Ni8  1  0.99943469  0.66593031  0.33130755  1
  Ni  Ni9  1  0.33300430  0.00126717  0.99885498  1
  Cr  Cr10  1  0.50025182  0.16833490  0.16634956  1
  Ni  Ni11  1  0.33319530  0.00137576  0.33457802  1
  Ni  Ni12  1  0.33409546  0.33406789  0.99884040  1
  Ni  Ni13  1  0.50009383  0.49997782  0.16637344  1
  Ni  Ni14  1  0.33042891  0.33346031  0.33319768  1
  Ni  Ni15  1  0.33357724  0.66458840  0.00018267  1
  Cr  Cr16  1  0.49883945  0.83161620  0.16634338  1
  Ni  Ni17  1  0.33294308  0.66507556  0.33257629  1
  Ni  Ni18  1  0.66733964  0.99870739  0.99900000  1
  Ni  Ni19  1  0.83443925  0.16602902  0.16782625  1
  Ni  Ni20  1  0.66841053  0.99900329  0.33542209  1
  Ni  Ni21  1  0.66478023  0.33497026  0.00052871  1
  Ni  Ni22  1  0.83230299  0.50054840  0.16752130  1
  Fe  Fe23  1  0.66783599  0.33275014  0.33202159  1
  Ni  Ni24  1  0.66761244  0.66629137  0.99843997  1
  Ni  Ni25  1  0.83532346  0.83339912  0.16667045  1
  Ni  Ni26  1  0.66757138  0.66879375  0.33277650  1
  Ni  Ni27  1  0.16573876  0.16763284  0.50063427  1
  Ni  Ni28  1  0.00032744  0.00303121  0.66557448  1
  Ni  Ni29  1  0.16924497  0.16711103  0.83207718  1
  Ni  Ni30  1  0.16804112  0.49694565  0.49933262  1
  Ni  Ni31  1  0.00231809  0.33185499  0.66634505  1
  Ni  Ni32  1  0.16880818  0.49847783  0.83241501  1
  Cr  Cr33  1  0.16794665  0.83395657  0.49892639  1
  Cr  Cr34  1  0.99866565  0.66539347  0.66756474  1
  Cr  Cr35  1  0.16734594  0.83501997  0.83456168  1
  Fe  Fe36  1  0.49873093  0.16585181  0.49969041  1
  Ni  Ni37  1  0.33385374  0.00219875  0.66649684  1
  Ni  Ni38  1  0.49765612  0.16792163  0.83363282  1
  Cr  Cr39  1  0.49871142  0.50102344  0.49952063  1
  Ni  Ni40  1  0.33183610  0.33256397  0.66781184  1
  Ni  Ni41  1  0.50037206  0.49992998  0.83352166  1
  Ni  Ni42  1  0.50041807  0.83352821  0.49952997  1
  Ni  Ni43  1  0.33611583  0.66519038  0.66712371  1
  Ni  Ni44  1  0.50030697  0.83206091  0.83358131  1
  Ni  Ni45  1  0.83502099  0.16582792  0.49900663  1
  Cr  Cr46  1  0.66569196  0.99793288  0.66552168  1
  Cr  Cr47  1  0.83395519  0.16710404  0.83366603  1
  Cr  Cr48  1  0.83370602  0.49845670  0.49988768  1
  Ni  Ni49  1  0.66578461  0.33395523  0.66727512  1
  Ni  Ni50  1  0.83078762  0.50121520  0.83281799  1
  Ni  Ni51  1  0.83139182  0.83568967  0.49844377  1
  Ni  Ni52  1  0.66492890  0.66701676  0.66863710  1
  Ni  Ni53  1  0.83160303  0.83169049  0.83484903  1
" 