430,Ni79Cr21_3,-207.796460089745, 155.642817518345,Ni79Cr21,"# generated using pymatgen
 data_Cr7Ni2
_symmetry_space_group_name_H-M   'P 1'
_cell_length_a   7.57863987
_cell_length_b   7.57863987
_cell_length_c   10.71781529
_cell_angle_alpha   90.00000000
_cell_angle_beta   90.00000000
_cell_angle_gamma   90.00000000
_symmetry_Int_Tables_number   1
_chemical_formula_structural   Cr7Ni2
_chemical_formula_sum   'Cr42 Ni12'
_cell_volume   615.58610572
_cell_formula_units_Z   6
loop_
 _symmetry_equiv_pos_site_id
 _symmetry_equiv_pos_as_xyz
  1  'x, y, z'
loop_
 _atom_site_type_symbol
 _atom_site_label
 _atom_site_symmetry_multiplicity
 _atom_site_fract_x
 _atom_site_fract_y
 _atom_site_fract_z
 _atom_site_occupancy
  Cr  Cr0  1  -0.00680088  0.99172285  0.99252556  1
  Cr  Cr1  1  0.16047451  0.15856706  0.15914353  1
  Cr  Cr2  1  -0.00598814  0.99022582  0.32488243  1
  Cr  Cr3  1  0.99105671  0.32500555  0.99125338  1
  Cr  Cr4  1  0.15925810  0.49298608  0.15850376  1
  Cr  Cr5  1  0.99258833  0.32816328  0.32658207  1
  Cr  Cr6  1  -0.00619141  0.66099739  -0.00608669  1
  Ni  Ni7  1  0.15949735  0.82555778  0.15939679  1
  Cr  Cr8  1  -0.00434044  0.65947211  0.32608491  1
  Cr  Cr9  1  0.32514139  0.98989796  0.99242901  1
  Cr  Cr10  1  0.49299410  0.16064987  0.16053006  1
  Cr  Cr11  1  0.32461760  0.98927800  0.32449051  1
  Cr  Cr12  1  0.32655641  0.32671645  -0.00717536  1
  Cr  Cr13  1  0.49486181  0.49209774  0.15777613  1
  Cr  Cr14  1  0.32663985  0.32981518  0.32783160  1
  Cr  Cr15  1  0.32615104  0.66132006  0.99239015  1
  Cr  Cr16  1  0.49340154  0.82522542  0.15778626  1
  Cr  Cr17  1  0.32486407  0.65894315  0.32709474  1
  Cr  Cr18  1  0.65944945  0.99161102  0.98960414  1
  Cr  Cr19  1  0.82451337  0.16060678  0.16000798  1
  Cr  Cr20  1  0.65942611  -0.00730265  0.32731165  1
  Ni  Ni21  1  0.66043561  0.32661579  0.99203299  1
  Cr  Cr22  1  0.82378530  0.49309142  0.15724288  1
  Ni  Ni23  1  0.65813449  0.32807583  0.32701732  1
  Ni  Ni24  1  0.65812846  0.65836400  0.99138296  1
  Cr  Cr25  1  0.82546336  0.82393456  0.15993857  1
  Cr  Cr26  1  0.65743376  0.65711694  0.32627294  1
  Cr  Cr27  1  0.16008007  0.15812917  0.49252468  1
  Cr  Cr28  1  0.99222529  0.99161960  0.66074605  1
  Cr  Cr29  1  0.15904232  0.15858367  0.82613911  1
  Ni  Ni30  1  0.16147379  0.49763972  0.49504783  1
  Cr  Cr31  1  0.99190165  0.32770775  0.66007221  1
  Cr  Cr32  1  0.15925520  0.49549591  0.82368373  1
  Ni  Ni33  1  0.15981555  0.82136781  0.49468596  1
  Ni  Ni34  1  -0.00203987  0.66067137  0.65795165  1
  Ni  Ni35  1  0.16124986  0.82355665  0.82396197  1
  Cr  Cr36  1  0.49216632  0.16008702  0.49050328  1
  Cr  Cr37  1  0.32649432  0.98906643  0.66095984  1
  Cr  Cr38  1  0.49230916  0.15922093  0.82690190  1
  Ni  Ni39  1  0.49014300  0.49358470  0.49239170  1
  Cr  Cr40  1  0.32669904  0.33069333  0.65679251  1
  Cr  Cr41  1  0.49232172  0.49482664  0.82734489  1
  Cr  Cr42  1  0.49095469  0.82491556  0.49429950  1
  Ni  Ni43  1  0.32324907  0.66062125  0.65818717  1
  Ni  Ni44  1  0.49007579  0.82301705  0.82611059  1
  Cr  Cr45  1  0.82579109  0.15883403  0.49184552  1
  Cr  Cr46  1  0.65937008  -0.00696099  0.66153457  1
  Ni  Ni47  1  0.82451917  0.16007334  0.82756044  1
  Cr  Cr48  1  0.82686385  0.49432981  0.49255586  1
  Cr  Cr49  1  0.65934249  0.32596901  0.65904665  1
  Cr  Cr50  1  0.82618709  0.49380187  0.82800940  1
  Cr  Cr51  1  0.82866351  0.82462652  0.49305487  1
  Cr  Cr52  1  0.65619806  0.65891580  0.65930800  1
  Cr  Cr53  1  0.82653228  0.82328707  0.82496628  1
" 