272,Ni79Fe9Cr10_9,-236.944604584498, 182.779188861739,Ni79Fe9Cr10,"# generated using pymatgen
 data_Cr6Fe5Ni43
_symmetry_space_group_name_H-M   'P 1'
_cell_length_a   7.45038476
_cell_length_b   7.45038476
_cell_length_c   10.53643517
_cell_angle_alpha   90.00000000
_cell_angle_beta   90.00000000
_cell_angle_gamma   90.00000000
_symmetry_Int_Tables_number   1
_chemical_formula_structural   Cr6Fe5Ni43
_chemical_formula_sum   'Cr6 Fe5 Ni43'
_cell_volume   584.85889938
_cell_formula_units_Z   1
loop_
 _symmetry_equiv_pos_site_id
 _symmetry_equiv_pos_as_xyz
  1  'x, y, z'
loop_
 _atom_site_type_symbol
 _atom_site_label
 _atom_site_symmetry_multiplicity
 _atom_site_fract_x
 _atom_site_fract_y
 _atom_site_fract_z
 _atom_site_occupancy
  Cr  Cr0  1  1.00037114  0.99996528  0.00234458  1
  Ni  Ni1  1  0.16731255  0.16889208  0.16862846  1
  Ni  Ni2  1  1.00092731  0.00127543  0.33447017  1
  Ni  Ni3  1  0.99947328  0.33530931  0.00220674  1
  Ni  Ni4  1  0.16733532  0.50088123  0.16751841  1
  Ni  Ni5  1  0.00153103  0.33422910  0.33486215  1
  Ni  Ni6  1  1.00024250  0.66760330  1.00105278  1
  Ni  Ni7  1  0.16918790  0.83356978  0.16860563  1
  Ni  Ni8  1  0.00236322  0.66786791  0.33463923  1
  Ni  Ni9  1  0.33453245  1.00066423  1.00069890  1
  Cr  Cr10  1  0.50156702  0.16708095  0.16767560  1
  Ni  Ni11  1  0.33333739  1.00094313  0.33625989  1
  Ni  Ni12  1  0.33562884  0.33553380  0.00200742  1
  Ni  Ni13  1  0.50036439  0.50195860  0.16695486  1
  Ni  Ni14  1  0.33389575  0.33541037  0.33500072  1
  Ni  Ni15  1  0.33444724  0.66733432  0.00259711  1
  Ni  Ni16  1  0.50032259  0.83416259  0.16710750  1
  Ni  Ni17  1  0.33306845  0.66693182  0.33479898  1
  Ni  Ni18  1  0.66864399  0.00148384  1.00107694  1
  Ni  Ni19  1  0.83509443  0.16902174  0.16902101  1
  Ni  Ni20  1  0.66897167  0.00184631  0.33521747  1
  Ni  Ni21  1  0.66828260  0.33541337  0.99933472  1
  Ni  Ni22  1  0.83563521  0.50001738  0.16666686  1
  Ni  Ni23  1  0.66792977  0.33388225  0.33643493  1
  Ni  Ni24  1  0.66865227  0.66661792  0.00144185  1
  Ni  Ni25  1  0.83384998  0.83430653  0.16746832  1
  Cr  Cr26  1  0.66740754  0.66719185  0.33443064  1
  Ni  Ni27  1  0.16747909  0.16857312  0.50100602  1
  Ni  Ni28  1  0.99942358  1.00056225  0.66701332  1
  Cr  Cr29  1  0.16803579  0.16785818  0.83429819  1
  Ni  Ni30  1  0.16749238  0.50031825  0.50100816  1
  Fe  Fe31  1  0.99978536  0.33496382  0.66638082  1
  Cr  Cr32  1  0.16741460  0.50262032  0.83538582  1
  Fe  Fe33  1  0.16692595  0.83395852  0.50097268  1
  Ni  Ni34  1  1.00018199  0.66974343  0.66748333  1
  Ni  Ni35  1  0.16750781  0.83381231  0.83287507  1
  Ni  Ni36  1  0.50088065  0.16698787  0.50217116  1
  Fe  Fe37  1  0.33417829  0.99936173  0.66593481  1
  Fe  Fe38  1  0.50319504  0.16907424  0.83421589  1
  Ni  Ni39  1  0.49990053  0.50111819  0.50170778  1
  Ni  Ni40  1  0.33649531  0.33472721  0.66655741  1
  Ni  Ni41  1  0.50225700  0.50080572  0.83427743  1
  Ni  Ni42  1  0.50130616  0.83513551  0.50132801  1
  Ni  Ni43  1  0.33459619  0.66551505  0.66594070  1
  Cr  Cr44  1  0.50127117  0.83333658  0.83537313  1
  Ni  Ni45  1  0.83503609  0.16707142  0.50059243  1
  Ni  Ni46  1  0.66997421  0.00206353  0.66720293  1
  Ni  Ni47  1  0.83309109  0.16841819  0.83359750  1
  Ni  Ni48  1  0.83600863  0.50115816  0.50217540  1
  Fe  Fe49  1  0.66821774  0.33553452  0.66699091  1
  Ni  Ni50  1  0.83293424  0.50144198  0.83418783  1
  Ni  Ni51  1  0.83400490  0.83523247  0.50194905  1
  Ni  Ni52  1  0.66829031  0.66771339  0.66727129  1
  Ni  Ni53  1  0.83412580  0.83388532  0.83396675  1
" 