873,Ni79Fe19Cr1_15,-241.038183541755, 202.869873151639,Ni79Fe19Cr1,"# generated using pymatgen
 data_CrFe5Ni21
_symmetry_space_group_name_H-M   'P 1'
_cell_length_a   7.42607135
_cell_length_b   7.42607135
_cell_length_c   10.50205082
_cell_angle_alpha   90.00000000
_cell_angle_beta   90.00000000
_cell_angle_gamma   90.00000000
_symmetry_Int_Tables_number   1
_chemical_formula_structural   CrFe5Ni21
_chemical_formula_sum   'Cr2 Fe10 Ni42'
_cell_volume   579.15171996
_cell_formula_units_Z   2
loop_
 _symmetry_equiv_pos_site_id
 _symmetry_equiv_pos_as_xyz
  1  'x, y, z'
loop_
 _atom_site_type_symbol
 _atom_site_label
 _atom_site_symmetry_multiplicity
 _atom_site_fract_x
 _atom_site_fract_y
 _atom_site_fract_z
 _atom_site_occupancy
  Ni  Ni0  1  1.00192783  1.00264944  0.00303766  1
  Ni  Ni1  1  0.17000509  0.16963436  0.16949169  1
  Ni  Ni2  1  1.00269277  0.00445117  0.33602904  1
  Ni  Ni3  1  1.00272193  0.33629387  0.00276925  1
  Ni  Ni4  1  0.16895570  0.50176832  0.16887958  1
  Ni  Ni5  1  1.00187196  0.33418002  0.33689211  1
  Ni  Ni6  1  1.00142580  0.66933152  1.00208581  1
  Ni  Ni7  1  0.17031999  0.83687454  0.16847135  1
  Cr  Cr8  1  0.00290969  0.66981974  0.33652589  1
  Ni  Ni9  1  0.33668654  0.00319794  1.00251001  1
  Ni  Ni10  1  0.50218676  0.16856108  0.16965664  1
  Ni  Ni11  1  0.33617291  0.00310269  0.33637022  1
  Ni  Ni12  1  0.33614306  0.33599942  0.00304049  1
  Fe  Fe13  1  0.50187976  0.50329855  0.16956186  1
  Ni  Ni14  1  0.33720884  0.33573553  0.33646633  1
  Ni  Ni15  1  0.33689080  0.66908110  1.00221865  1
  Ni  Ni16  1  0.50268215  0.83713356  0.16928137  1
  Ni  Ni17  1  0.33828723  0.66943928  0.33684438  1
  Ni  Ni18  1  0.66966389  1.00189917  1.00222225  1
  Fe  Fe19  1  0.83709918  0.16890587  0.16955898  1
  Fe  Fe20  1  0.66861461  0.00354825  0.33565140  1
  Fe  Fe21  1  0.66947361  0.33604443  1.00261713  1
  Ni  Ni22  1  0.83634291  0.50226504  0.16825577  1
  Ni  Ni23  1  0.66919469  0.33628915  0.33636859  1
  Ni  Ni24  1  0.66995805  0.66987216  0.00325605  1
  Ni  Ni25  1  0.83527126  0.83608582  0.16867278  1
  Fe  Fe26  1  0.66763497  0.66889634  0.33580908  1
  Ni  Ni27  1  0.16910226  0.16918291  0.50260876  1
  Ni  Ni28  1  1.00266902  1.00242614  0.66921080  1
  Fe  Fe29  1  0.16960371  0.16924888  0.83633196  1
  Ni  Ni30  1  0.16963641  0.50252883  0.50354186  1
  Fe  Fe31  1  0.00362532  0.33657866  0.66911591  1
  Ni  Ni32  1  0.16900217  0.50385369  0.83585778  1
  Ni  Ni33  1  0.17094914  0.83656720  0.50335694  1
  Ni  Ni34  1  0.00328645  0.66998138  0.66963340  1
  Ni  Ni35  1  0.16952800  0.83513847  0.83644887  1
  Ni  Ni36  1  0.50314733  0.16897331  0.50298309  1
  Ni  Ni37  1  0.33577585  0.00366886  0.66939786  1
  Ni  Ni38  1  0.50357614  0.16900436  0.83563438  1
  Ni  Ni39  1  0.50208160  0.50220623  0.50116302  1
  Ni  Ni40  1  0.33686480  0.33567152  0.66876903  1
  Ni  Ni41  1  0.50172517  0.50171481  0.83747430  1
  Ni  Ni42  1  0.50097417  0.83709851  0.50175014  1
  Ni  Ni43  1  0.33496239  0.66893787  0.66921292  1
  Ni  Ni44  1  0.50147708  0.83755404  0.83724325  1
  Ni  Ni45  1  0.83602684  0.17028398  0.50192051  1
  Fe  Fe46  1  0.66872626  0.00398321  0.67018183  1
  Ni  Ni47  1  0.83513439  0.16953100  0.83672051  1
  Ni  Ni48  1  0.83656132  0.50035911  0.50300384  1
  Fe  Fe49  1  0.66900938  0.33463557  0.66885165  1
  Ni  Ni50  1  0.83755294  0.50175564  0.83701804  1
  Fe  Fe51  1  0.83679488  0.83779038  0.50305041  1
  Cr  Cr52  1  0.66969879  0.66896077  0.66914502  1
  Ni  Ni53  1  0.83726929  0.83698938  0.83681267  1
" 