3538,Ni79Cr21_17,-207.712564655742, 158.362027635563,Ni79Cr21,"# generated using pymatgen
 data_Cr7Ni2
_symmetry_space_group_name_H-M   'P 1'
_cell_length_a   7.57902187
_cell_length_b   7.57902187
_cell_length_c   10.71835552
_cell_angle_alpha   90.00000000
_cell_angle_beta   90.00000000
_cell_angle_gamma   90.00000000
_symmetry_Int_Tables_number   1
_chemical_formula_structural   Cr7Ni2
_chemical_formula_sum   'Cr42 Ni12'
_cell_volume   615.67919681
_cell_formula_units_Z   6
loop_
 _symmetry_equiv_pos_site_id
 _symmetry_equiv_pos_as_xyz
  1  'x, y, z'
loop_
 _atom_site_type_symbol
 _atom_site_label
 _atom_site_symmetry_multiplicity
 _atom_site_fract_x
 _atom_site_fract_y
 _atom_site_fract_z
 _atom_site_occupancy
  Ni  Ni0  1  0.99117356  0.99170953  -0.00654013  1
  Cr  Cr1  1  0.15770129  0.16074291  0.15950478  1
  Cr  Cr2  1  -0.00703934  -0.00687655  0.32633766  1
  Cr  Cr3  1  0.99127833  0.32586046  -0.00633885  1
  Cr  Cr4  1  0.15833201  0.49128884  0.15989771  1
  Ni  Ni5  1  0.99100046  0.32471116  0.32495186  1
  Ni  Ni6  1  0.99260809  0.66192136  0.99254406  1
  Cr  Cr7  1  0.15760934  0.82588324  0.15559843  1
  Cr  Cr8  1  0.99247324  0.65910270  0.32645620  1
  Cr  Cr9  1  0.32484302  -0.00684254  -0.00614074  1
  Cr  Cr10  1  0.49322535  0.16093877  0.16193247  1
  Cr  Cr11  1  0.32429569  -0.00734627  0.32698456  1
  Cr  Cr12  1  0.32739645  0.32704824  0.99118406  1
  Cr  Cr13  1  0.49317065  0.49202887  0.16257076  1
  Ni  Ni14  1  0.32620976  0.32639512  0.32570125  1
  Cr  Cr15  1  0.32477925  0.65769411  0.99077834  1
  Cr  Cr16  1  0.49408365  0.82487360  0.16031567  1
  Cr  Cr17  1  0.32466482  0.65974141  0.32774984  1
  Cr  Cr18  1  0.66139580  -0.00517820  -0.00627773  1
  Ni  Ni19  1  0.82722731  0.16045593  0.16034041  1
  Cr  Cr20  1  0.66054999  -0.00646278  0.32490660  1
  Cr  Cr21  1  0.65914150  0.32575253  0.99105654  1
  Cr  Cr22  1  0.82625302  0.49217689  0.16205876  1
  Ni  Ni23  1  0.66066967  0.32698140  0.32445533  1
  Cr  Cr24  1  0.66002898  0.65732917  0.99126264  1
  Cr  Cr25  1  0.82611544  0.82569773  0.15658220  1
  Ni  Ni26  1  0.65911090  0.65612723  0.32589403  1
  Cr  Cr27  1  0.15771995  0.16039187  0.49344377  1
  Ni  Ni28  1  -0.00562101  -0.00668248  0.65858830  1
  Cr  Cr29  1  0.15675980  0.15827731  0.82503022  1
  Cr  Cr30  1  0.15896707  0.49093092  0.49226577  1
  Ni  Ni31  1  -0.00706405  0.32361569  0.65913338  1
  Cr  Cr32  1  0.15931408  0.49300381  0.82567174  1
  Ni  Ni33  1  0.15930121  0.82595888  0.49561575  1
  Cr  Cr34  1  -0.00471424  0.65966648  0.65753822  1
  Cr  Cr35  1  0.15736941  0.82661599  0.82666267  1
  Cr  Cr36  1  0.49241832  0.16116954  0.49012542  1
  Cr  Cr37  1  0.32392159  0.99002164  0.65695312  1
  Cr  Cr38  1  0.49186277  0.15989054  0.82588227  1
  Cr  Cr39  1  0.49306719  0.49264364  0.49046175  1
  Cr  Cr40  1  0.32593599  0.32870449  0.66184090  1
  Ni  Ni41  1  0.49125209  0.49421938  0.82461553  1
  Cr  Cr42  1  0.49201922  0.82407653  0.49219139  1
  Ni  Ni43  1  0.32533108  0.65931635  0.65952879  1
  Cr  Cr44  1  0.49219790  0.82408548  0.82532488  1
  Cr  Cr45  1  0.82783097  0.16149537  0.49389283  1
  Cr  Cr46  1  0.66083238  -0.00672607  0.65928344  1
  Cr  Cr47  1  0.82924836  0.15767706  0.82424153  1
  Cr  Cr48  1  0.82584337  0.49062036  0.49007248  1
  Cr  Cr49  1  0.66020332  0.32674525  0.66223246  1
  Cr  Cr50  1  0.82700641  0.49324567  0.82543263  1
  Cr  Cr51  1  0.82628101  0.82557598  0.49346234  1
  Cr  Cr52  1  0.65724906  0.65779579  0.66021578  1
  Cr  Cr53  1  0.82826415  0.82700528  0.82762150  1
" 