6479,Ni79Fe5Cr15_14,-232.992052149669, 165.225962631684,Ni79Fe5Cr15,"# generated using pymatgen
 data_Cr5FeNi21
_symmetry_space_group_name_H-M   'P 1'
_cell_length_a   7.46618089
_cell_length_b   7.46618089
_cell_length_c   10.55877427
_cell_angle_alpha   90.00000000
_cell_angle_beta   90.00000000
_cell_angle_gamma   90.00000000
_symmetry_Int_Tables_number   1
_chemical_formula_structural   Cr5FeNi21
_chemical_formula_sum   'Cr10 Fe2 Ni42'
_cell_volume   588.58680318
_cell_formula_units_Z   2
loop_
 _symmetry_equiv_pos_site_id
 _symmetry_equiv_pos_as_xyz
  1  'x, y, z'
loop_
 _atom_site_type_symbol
 _atom_site_label
 _atom_site_symmetry_multiplicity
 _atom_site_fract_x
 _atom_site_fract_y
 _atom_site_fract_z
 _atom_site_occupancy
  Ni  Ni0  1  0.99776769  0.00021697  0.00053038  1
  Ni  Ni1  1  0.16771063  0.16721528  0.16780880  1
  Cr  Cr2  1  0.00126777  0.00024134  0.33291700  1
  Cr  Cr3  1  0.00086969  0.33130785  0.99891838  1
  Ni  Ni4  1  0.16947151  0.49948892  0.16752440  1
  Ni  Ni5  1  0.00148190  0.33499253  0.33443794  1
  Cr  Cr6  1  0.00223462  0.66856318  0.99979659  1
  Ni  Ni7  1  0.16668573  0.83346996  0.16611573  1
  Ni  Ni8  1  0.99867258  0.66484564  0.33389949  1
  Cr  Cr9  1  0.33384708  0.00030173  0.00117450  1
  Ni  Ni10  1  0.49961346  0.16810519  0.16664472  1
  Ni  Ni11  1  0.33394338  0.00208916  0.33363799  1
  Ni  Ni12  1  0.33504081  0.33523803  0.00058308  1
  Ni  Ni13  1  0.49803015  0.49877622  0.16581860  1
  Ni  Ni14  1  0.33168070  0.33132439  0.33183841  1
  Ni  Ni15  1  0.33360832  0.66472323  0.00035536  1
  Ni  Ni16  1  0.49992744  0.83329283  0.16695498  1
  Cr  Cr17  1  0.33280139  0.66750026  0.33212001  1
  Ni  Ni18  1  0.66862672  0.00164923  0.00039368  1
  Ni  Ni19  1  0.83284925  0.16531890  0.16497903  1
  Cr  Cr20  1  0.66470962  0.99935727  0.33313314  1
  Ni  Ni21  1  0.66427096  0.33070587  0.99998603  1
  Cr  Cr22  1  0.83268521  0.49977337  0.16967895  1
  Fe  Fe23  1  0.66676857  0.33342625  0.33329247  1
  Cr  Cr24  1  0.66447425  0.66758036  0.99929909  1
  Ni  Ni25  1  0.83356160  0.83505242  0.16655364  1
  Ni  Ni26  1  0.66876056  0.66710629  0.33340949  1
  Ni  Ni27  1  0.16733231  0.16721892  0.50056433  1
  Ni  Ni28  1  0.99974402  0.00195760  0.66700929  1
  Ni  Ni29  1  0.16626511  0.16745959  0.83180062  1
  Ni  Ni30  1  0.16455498  0.49846396  0.49959519  1
  Ni  Ni31  1  0.00006058  0.33192068  0.66635908  1
  Ni  Ni32  1  0.16935358  0.49886794  0.83305229  1
  Ni  Ni33  1  0.16732966  0.83449145  0.50100273  1
  Cr  Cr34  1  0.99974560  0.66586157  0.66622407  1
  Fe  Fe35  1  0.16753598  0.83421265  0.83263628  1
  Ni  Ni36  1  0.49877325  0.16532851  0.50064460  1
  Ni  Ni37  1  0.33401063  0.00021413  0.66552350  1
  Ni  Ni38  1  0.50070483  0.16760211  0.83288807  1
  Cr  Cr39  1  0.50096612  0.49977920  0.50096603  1
  Ni  Ni40  1  0.33249220  0.33246494  0.66775123  1
  Ni  Ni41  1  0.49882278  0.49992762  0.83342340  1
  Ni  Ni42  1  0.50011941  0.83503909  0.50159400  1
  Ni  Ni43  1  0.33455271  0.66749658  0.66798049  1
  Ni  Ni44  1  0.50073713  0.83264358  0.83162597  1
  Ni  Ni45  1  0.83406758  0.16810571  0.50196225  1
  Ni  Ni46  1  0.66642033  0.99989805  0.66691314  1
  Ni  Ni47  1  0.83320354  0.16554523  0.83323354  1
  Ni  Ni48  1  0.83461464  0.49980687  0.49900916  1
  Ni  Ni49  1  0.66762144  0.33246424  0.66731666  1
  Ni  Ni50  1  0.83199771  0.49889789  0.83142423  1
  Ni  Ni51  1  0.83272585  0.83226122  0.50039220  1
  Ni  Ni52  1  0.66587685  0.66781223  0.66721239  1
  Ni  Ni53  1  0.83214392  0.83573011  0.83322772  1
" 