3729,Ni79Fe19Cr1_6,-241.368808522118, 203.224161786978,Ni79Fe19Cr1,"# generated using pymatgen
 data_CrFe5Ni21
_symmetry_space_group_name_H-M   'P 1'
_cell_length_a   7.42826755
_cell_length_b   7.42826755
_cell_length_c   10.50515672
_cell_angle_alpha   90.00000000
_cell_angle_beta   90.00000000
_cell_angle_gamma   90.00000000
_symmetry_Int_Tables_number   1
_chemical_formula_structural   CrFe5Ni21
_chemical_formula_sum   'Cr2 Fe10 Ni42'
_cell_volume   579.66571102
_cell_formula_units_Z   2
loop_
 _symmetry_equiv_pos_site_id
 _symmetry_equiv_pos_as_xyz
  1  'x, y, z'
loop_
 _atom_site_type_symbol
 _atom_site_label
 _atom_site_symmetry_multiplicity
 _atom_site_fract_x
 _atom_site_fract_y
 _atom_site_fract_z
 _atom_site_occupancy
  Ni  Ni0  1  0.00344863  1.00203317  1.00159263  1
  Ni  Ni1  1  0.16966019  0.16817221  0.16997178  1
  Ni  Ni2  1  0.00350632  0.00276718  0.33576431  1
  Cr  Cr3  1  1.00129009  0.33588380  0.00300808  1
  Ni  Ni4  1  0.17078163  0.50360837  0.17156253  1
  Ni  Ni5  1  1.00225362  0.33471761  0.33705559  1
  Ni  Ni6  1  0.00315493  0.67001366  0.00312864  1
  Ni  Ni7  1  0.16960301  0.83609841  0.16867500  1
  Ni  Ni8  1  0.00262147  0.67024561  0.33566340  1
  Ni  Ni9  1  0.33630868  1.00168152  0.00349219  1
  Fe  Fe10  1  0.50300200  0.16907152  0.16890282  1
  Fe  Fe11  1  0.33512600  1.00235809  0.33615526  1
  Fe  Fe12  1  0.33590693  0.33616354  0.00316067  1
  Ni  Ni13  1  0.50238882  0.50319052  0.16810779  1
  Ni  Ni14  1  0.33599098  0.33511305  0.33506146  1
  Ni  Ni15  1  0.33651623  0.67077059  1.00187380  1
  Ni  Ni16  1  0.50238000  0.83484969  0.17055331  1
  Ni  Ni17  1  0.33601282  0.67044751  0.33653248  1
  Ni  Ni18  1  0.66817654  1.00258683  1.00203137  1
  Ni  Ni19  1  0.83595392  0.16827803  0.17009151  1
  Fe  Fe20  1  0.67074905  1.00231564  0.33555410  1
  Ni  Ni21  1  0.66830258  0.33600809  0.00266682  1
  Ni  Ni22  1  0.83461963  0.50338819  0.17083290  1
  Ni  Ni23  1  0.66936606  0.33558424  0.33491627  1
  Ni  Ni24  1  0.66831306  0.66925761  0.00261984  1
  Ni  Ni25  1  0.83592892  0.83613405  0.16832691  1
  Ni  Ni26  1  0.66897615  0.66949900  0.33510135  1
  Ni  Ni27  1  0.16953993  0.16821689  0.50274543  1
  Ni  Ni28  1  0.00489280  0.00261733  0.67049736  1
  Ni  Ni29  1  0.17076876  0.16865443  0.83522711  1
  Fe  Fe30  1  0.16693726  0.50202284  0.50169817  1
  Ni  Ni31  1  1.00147877  0.33551929  0.66804877  1
  Ni  Ni32  1  0.16958960  0.50328559  0.83431606  1
  Ni  Ni33  1  0.16868241  0.83637216  0.50257930  1
  Ni  Ni34  1  1.00173284  0.66960288  0.66904335  1
  Ni  Ni35  1  0.16961016  0.83596446  0.83673922  1
  Ni  Ni36  1  0.50259694  0.16923315  0.50183398  1
  Ni  Ni37  1  0.33611340  1.00243376  0.66850483  1
  Ni  Ni38  1  0.50198805  0.16922583  0.83634315  1
  Cr  Cr39  1  0.50299687  0.50235813  0.50350408  1
  Fe  Fe40  1  0.33475283  0.33424645  0.66925305  1
  Fe  Fe41  1  0.50309765  0.50274902  0.83645059  1
  Fe  Fe42  1  0.50390448  0.83770280  0.50272708  1
  Fe  Fe43  1  0.33416674  0.67067498  0.66998915  1
  Ni  Ni44  1  0.50235067  0.83655744  0.83460042  1
  Ni  Ni45  1  0.83575874  0.16909044  0.50309502  1
  Fe  Fe46  1  0.67084225  0.00271079  0.66979225  1
  Ni  Ni47  1  0.83518629  0.16882507  0.83464064  1
  Ni  Ni48  1  0.83545977  0.50306319  0.50181025  1
  Ni  Ni49  1  0.66985567  0.33585311  0.67018153  1
  Ni  Ni50  1  0.83559886  0.50355074  0.83531667  1
  Ni  Ni51  1  0.83708181  0.83565682  0.50275656  1
  Ni  Ni52  1  0.66965764  0.66916150  0.67019500  1
  Ni  Ni53  1  0.83597694  0.83536951  0.83666453  1
" 