6142,Ni79Fe9Cr10_8,-236.829943437683, 180.51367040055,Ni79Fe9Cr10,"# generated using pymatgen
 data_Cr6Fe5Ni43
_symmetry_space_group_name_H-M   'P 1'
_cell_length_a   7.45270526
_cell_length_b   7.45270526
_cell_length_c   10.53971686
_cell_angle_alpha   90.00000000
_cell_angle_beta   90.00000000
_cell_angle_gamma   90.00000000
_symmetry_Int_Tables_number   1
_chemical_formula_structural   Cr6Fe5Ni43
_chemical_formula_sum   'Cr6 Fe5 Ni43'
_cell_volume   585.40555158
_cell_formula_units_Z   1
loop_
 _symmetry_equiv_pos_site_id
 _symmetry_equiv_pos_as_xyz
  1  'x, y, z'
loop_
 _atom_site_type_symbol
 _atom_site_label
 _atom_site_symmetry_multiplicity
 _atom_site_fract_x
 _atom_site_fract_y
 _atom_site_fract_z
 _atom_site_occupancy
  Cr  Cr0  1  0.00245278  0.00099190  0.00148882  1
  Ni  Ni1  1  0.16895613  0.16857935  0.16824381  1
  Ni  Ni2  1  1.00048571  1.00083833  0.33405155  1
  Ni  Ni3  1  1.00021656  0.33601509  0.99994231  1
  Ni  Ni4  1  0.16701894  0.50097896  0.16723049  1
  Ni  Ni5  1  1.00042446  0.33438973  0.33504017  1
  Fe  Fe6  1  1.00074044  0.66588756  1.00089720  1
  Ni  Ni7  1  0.16930672  0.83332584  0.16801183  1
  Ni  Ni8  1  0.00179671  0.66765850  0.33341379  1
  Ni  Ni9  1  0.33327463  0.00099551  0.00121098  1
  Ni  Ni10  1  0.50019087  0.16746079  0.16777232  1
  Ni  Ni11  1  0.33432402  1.00077883  0.33415821  1
  Fe  Fe12  1  0.33365142  0.33323122  0.00174450  1
  Fe  Fe13  1  0.50101943  0.50107527  0.16777011  1
  Ni  Ni14  1  0.33470303  0.33476706  0.33369033  1
  Ni  Ni15  1  0.33295016  0.66758205  0.00198192  1
  Ni  Ni16  1  0.50004436  0.83424183  0.16805975  1
  Ni  Ni17  1  0.33339209  0.66734074  0.33488185  1
  Cr  Cr18  1  0.66745727  0.00225017  1.00095742  1
  Ni  Ni19  1  0.83374007  0.16974714  0.16923348  1
  Ni  Ni20  1  0.66807691  0.00215396  0.33428882  1
  Ni  Ni21  1  0.66901637  0.33569801  0.00133543  1
  Ni  Ni22  1  0.83465398  0.50083269  0.16684516  1
  Ni  Ni23  1  0.66775921  0.33345962  0.33397863  1
  Ni  Ni24  1  0.66834538  0.66481865  0.00247002  1
  Ni  Ni25  1  0.83353403  0.83230301  0.16900288  1
  Fe  Fe26  1  0.66796343  0.66791338  0.33452558  1
  Ni  Ni27  1  0.16721930  0.16716216  0.50014861  1
  Ni  Ni28  1  1.00071197  0.99982007  0.66797181  1
  Ni  Ni29  1  0.16760922  0.16765261  0.83449381  1
  Ni  Ni30  1  0.16714844  0.50168198  0.50064093  1
  Fe  Fe31  1  0.00101771  0.33434791  0.66784845  1
  Ni  Ni32  1  0.16466641  0.50151845  0.83501396  1
  Ni  Ni33  1  0.16843119  0.83404335  0.50129682  1
  Ni  Ni34  1  0.00116740  0.66862891  0.66915683  1
  Ni  Ni35  1  0.16711971  0.83371350  0.83358605  1
  Ni  Ni36  1  0.50093112  0.16587587  0.49980830  1
  Ni  Ni37  1  0.33310910  0.99984869  0.66751575  1
  Ni  Ni38  1  0.50021506  0.16637262  0.83530220  1
  Ni  Ni39  1  0.50086107  0.50282825  0.49900197  1
  Cr  Cr40  1  0.33295044  0.33411200  0.66691449  1
  Cr  Cr41  1  0.50135168  0.50148497  0.83632126  1
  Ni  Ni42  1  0.50086124  0.83418573  0.50172432  1
  Ni  Ni43  1  0.33201502  0.66924207  0.66602260  1
  Cr  Cr44  1  0.50032327  0.83546714  0.83255561  1
  Ni  Ni45  1  0.83473657  0.16716070  0.50018902  1
  Ni  Ni46  1  0.66906535  1.00036394  0.66764188  1
  Ni  Ni47  1  0.83506235  0.16882260  0.83346414  1
  Ni  Ni48  1  0.83487893  0.50161122  0.50071325  1
  Cr  Cr49  1  0.66919505  0.33334188  0.66719070  1
  Ni  Ni50  1  0.83690170  0.50145106  0.83532849  1
  Ni  Ni51  1  0.83359425  0.83411724  0.50136795  1
  Ni  Ni52  1  0.66970513  0.66917859  0.66598964  1
  Ni  Ni53  1  0.83561631  0.83261143  0.83252393  1
" 