598,Ni79Cr21_6,-208.024073440948, 160.821179210562,Ni79Cr21,"# generated using pymatgen
 data_Cr7Ni2
_symmetry_space_group_name_H-M   'P 1'
_cell_length_a   7.57450137
_cell_length_b   7.57450137
_cell_length_c   10.71196256
_cell_angle_alpha   90.00000000
_cell_angle_beta   90.00000000
_cell_angle_gamma   90.00000000
_symmetry_Int_Tables_number   1
_chemical_formula_structural   Cr7Ni2
_chemical_formula_sum   'Cr42 Ni12'
_cell_volume   614.57818827
_cell_formula_units_Z   6
loop_
 _symmetry_equiv_pos_site_id
 _symmetry_equiv_pos_as_xyz
  1  'x, y, z'
loop_
 _atom_site_type_symbol
 _atom_site_label
 _atom_site_symmetry_multiplicity
 _atom_site_fract_x
 _atom_site_fract_y
 _atom_site_fract_z
 _atom_site_occupancy
  Cr  Cr0  1  -0.00689205  0.99083180  0.99094860  1
  Cr  Cr1  1  0.16165329  0.15962410  0.16041878  1
  Cr  Cr2  1  -0.00474705  0.99268929  0.32586851  1
  Cr  Cr3  1  0.99172326  0.32772963  -0.00539891  1
  Cr  Cr4  1  0.16143687  0.49377845  0.15771608  1
  Cr  Cr5  1  0.99180562  0.32782958  0.32519590  1
  Ni  Ni6  1  -0.00498602  0.65916909  0.99269190  1
  Cr  Cr7  1  0.16170670  0.82525522  0.15968345  1
  Cr  Cr8  1  0.99276836  0.65813595  0.32535870  1
  Cr  Cr9  1  0.32675756  0.98971102  -0.00658292  1
  Cr  Cr10  1  0.49055934  0.15895035  0.15909139  1
  Ni  Ni11  1  0.32973496  0.98993873  0.32641703  1
  Ni  Ni12  1  0.32762088  0.33018432  -0.00554331  1
  Ni  Ni13  1  0.49218102  0.49684567  0.15944087  1
  Cr  Cr14  1  0.32823884  0.32740436  0.32646770  1
  Ni  Ni15  1  0.32518153  0.65863289  -0.00568441  1
  Ni  Ni16  1  0.49028839  0.82152024  0.16184171  1
  Ni  Ni17  1  0.33047370  0.66130261  0.32398981  1
  Cr  Cr18  1  0.65918433  0.99219428  0.99236720  1
  Cr  Cr19  1  0.82651981  0.15978755  0.15868733  1
  Cr  Cr20  1  0.65694880  0.99180447  0.32486289  1
  Cr  Cr21  1  0.65874264  0.32763168  -0.00566712  1
  Ni  Ni22  1  0.82385940  0.49625810  0.15971987  1
  Cr  Cr23  1  0.65891316  0.32924690  0.32468589  1
  Cr  Cr24  1  0.65778809  0.65907447  -0.00345040  1
  Cr  Cr25  1  0.82429088  0.82431727  0.16048342  1
  Ni  Ni26  1  0.65550769  0.65836000  0.32284270  1
  Cr  Cr27  1  0.16185220  0.15903611  0.48965007  1
  Cr  Cr28  1  -0.00540067  0.99207321  0.66186115  1
  Cr  Cr29  1  0.16058192  0.16099777  0.82863542  1
  Cr  Cr30  1  0.16092609  0.49401875  0.49271702  1
  Cr  Cr31  1  -0.00701696  0.32620727  0.65852239  1
  Cr  Cr32  1  0.16110406  0.49394834  0.82850951  1
  Cr  Cr33  1  0.16109965  0.82562472  0.49082963  1
  Cr  Cr34  1  -0.00501221  0.66068283  0.66083626  1
  Ni  Ni35  1  0.15985506  0.82390184  0.82912226  1
  Ni  Ni36  1  0.49212998  0.15820941  0.49169064  1
  Cr  Cr37  1  0.32594609  0.99189052  0.65870817  1
  Cr  Cr38  1  0.49308309  0.16120287  0.82679360  1
  Cr  Cr39  1  0.49274213  0.49425676  0.49264226  1
  Cr  Cr40  1  0.32714997  0.32578914  0.65810504  1
  Cr  Cr41  1  0.49101426  0.49304383  0.82778988  1
  Cr  Cr42  1  0.49347587  0.82606544  0.49013469  1
  Cr  Cr43  1  0.32497010  0.66115499  0.66112402  1
  Cr  Cr44  1  0.49147946  0.82423646  0.82753250  1
  Cr  Cr45  1  0.82474215  0.15854914  0.49337032  1
  Cr  Cr46  1  0.65843112  -0.00593191  0.66105786  1
  Ni  Ni47  1  0.82691668  0.16004185  0.82600529  1
  Cr  Cr48  1  0.82492851  0.49492406  0.49212343  1
  Cr  Cr49  1  0.65889569  0.32533521  0.65952869  1
  Cr  Cr50  1  0.82629476  0.49306629  0.82633797  1
  Cr  Cr51  1  0.82417027  0.82520962  0.49178831  1
  Cr  Cr52  1  0.65849027  0.65949134  0.65885704  1
  Cr  Cr53  1  0.82686173  0.82573741  0.82624524  1
" 