1706,Ni79Fe9Cr10_6,-236.972936112269, 180.377259367544,Ni79Fe9Cr10,"# generated using pymatgen
 data_Cr6Fe5Ni43
_symmetry_space_group_name_H-M   'P 1'
_cell_length_a   7.45069468
_cell_length_b   7.45069468
_cell_length_c   10.53687347
_cell_angle_alpha   90.00000000
_cell_angle_beta   90.00000000
_cell_angle_gamma   90.00000000
_symmetry_Int_Tables_number   1
_chemical_formula_structural   Cr6Fe5Ni43
_chemical_formula_sum   'Cr6 Fe5 Ni43'
_cell_volume   584.93188910
_cell_formula_units_Z   1
loop_
 _symmetry_equiv_pos_site_id
 _symmetry_equiv_pos_as_xyz
  1  'x, y, z'
loop_
 _atom_site_type_symbol
 _atom_site_label
 _atom_site_symmetry_multiplicity
 _atom_site_fract_x
 _atom_site_fract_y
 _atom_site_fract_z
 _atom_site_occupancy
  Cr  Cr0  1  0.99966491  1.00073595  1.00082893  1
  Ni  Ni1  1  0.16956019  0.16868488  0.16855993  1
  Ni  Ni2  1  1.00072842  0.99971576  0.33503587  1
  Ni  Ni3  1  0.00178566  0.33592902  1.00008066  1
  Ni  Ni4  1  0.16699301  0.50069221  0.16782469  1
  Cr  Cr5  1  1.00078219  0.33479897  0.33647211  1
  Ni  Ni6  1  0.99940897  0.66602725  1.00090916  1
  Ni  Ni7  1  0.16610661  0.83391864  0.17066630  1
  Ni  Ni8  1  1.00086215  0.66885312  0.33430304  1
  Cr  Cr9  1  0.33594182  1.00036522  0.00147471  1
  Ni  Ni10  1  0.50120326  0.16860247  0.16862256  1
  Ni  Ni11  1  0.33516111  1.00077942  0.33484190  1
  Ni  Ni12  1  0.33316666  0.33567700  0.00168632  1
  Ni  Ni13  1  0.50252526  0.49994067  0.16851698  1
  Ni  Ni14  1  0.33584617  0.33487412  0.33462143  1
  Cr  Cr15  1  0.33540795  0.66694867  0.00157665  1
  Ni  Ni16  1  0.50357203  0.83480849  0.16944812  1
  Ni  Ni17  1  0.33527190  0.66763327  0.33436411  1
  Ni  Ni18  1  0.66848740  0.99917893  0.00187217  1
  Fe  Fe19  1  0.83336822  0.16789638  0.16836545  1
  Ni  Ni20  1  0.66737834  1.00058476  0.33432889  1
  Fe  Fe21  1  0.66857027  0.33582580  0.00181201  1
  Ni  Ni22  1  0.83371749  0.50314682  0.16690911  1
  Ni  Ni23  1  0.66600565  0.33469836  0.33477369  1
  Ni  Ni24  1  0.66855334  0.66878859  1.00004162  1
  Ni  Ni25  1  0.83362746  0.83250750  0.16864187  1
  Ni  Ni26  1  0.66715794  0.66801705  0.33531772  1
  Ni  Ni27  1  0.16969435  0.16595989  0.50129591  1
  Ni  Ni28  1  0.99957185  0.99935521  0.66787649  1
  Ni  Ni29  1  0.16725663  0.16870751  0.83334974  1
  Ni  Ni30  1  0.16920223  0.50304060  0.50049653  1
  Cr  Cr31  1  1.00049439  0.33465756  0.66671428  1
  Ni  Ni32  1  0.16752215  0.50117755  0.83488638  1
  Ni  Ni33  1  0.16691071  0.83448506  0.50040264  1
  Ni  Ni34  1  0.00157503  0.66912806  0.66805068  1
  Ni  Ni35  1  0.16642326  0.83346078  0.83211992  1
  Ni  Ni36  1  0.50119402  0.16799953  0.50074451  1
  Fe  Fe37  1  0.33351377  1.00106651  0.66649395  1
  Cr  Cr38  1  0.50146842  0.16858043  0.83408865  1
  Ni  Ni39  1  0.50143818  0.50037587  0.50076023  1
  Ni  Ni40  1  0.33529185  0.33654144  0.66694088  1
  Ni  Ni41  1  0.50198916  0.50148283  0.83388008  1
  Ni  Ni42  1  0.50151998  0.83486822  0.50092340  1
  Fe  Fe43  1  0.33460912  0.66766507  0.66709688  1
  Ni  Ni44  1  0.50323910  0.83330811  0.83263195  1
  Ni  Ni45  1  0.83212882  0.16573714  0.50070633  1
  Ni  Ni46  1  0.66861928  1.00000516  0.66729677  1
  Ni  Ni47  1  0.83400562  0.16769330  0.83508784  1
  Ni  Ni48  1  0.83273690  0.50322258  0.50106187  1
  Ni  Ni49  1  0.66650112  0.33434527  0.66720797  1
  Ni  Ni50  1  0.83396578  0.50215988  0.83520829  1
  Ni  Ni51  1  0.83485321  0.83423944  0.50086781  1
  Fe  Fe52  1  0.66879851  0.66698848  0.66739928  1
  Ni  Ni53  1  0.83388228  0.83337930  0.83377483  1
" 