2406,Ni79Fe19Cr1_1,-241.329386472889, 202.110967026067,Ni79Fe19Cr1,"# generated using pymatgen
 data_CrFe5Ni21
_symmetry_space_group_name_H-M   'P 1'
_cell_length_a   7.42997135
_cell_length_b   7.42997135
_cell_length_c   10.50756626
_cell_angle_alpha   90.00000000
_cell_angle_beta   90.00000000
_cell_angle_gamma   90.00000000
_symmetry_Int_Tables_number   1
_chemical_formula_structural   CrFe5Ni21
_chemical_formula_sum   'Cr2 Fe10 Ni42'
_cell_volume   580.06467172
_cell_formula_units_Z   2
loop_
 _symmetry_equiv_pos_site_id
 _symmetry_equiv_pos_as_xyz
  1  'x, y, z'
loop_
 _atom_site_type_symbol
 _atom_site_label
 _atom_site_symmetry_multiplicity
 _atom_site_fract_x
 _atom_site_fract_y
 _atom_site_fract_z
 _atom_site_occupancy
  Ni  Ni0  1  0.00275268  1.00227739  0.00295450  1
  Ni  Ni1  1  0.16880203  0.16824917  0.16874981  1
  Ni  Ni2  1  1.00185105  1.00162214  0.33558895  1
  Ni  Ni3  1  1.00226873  0.33498500  0.00260451  1
  Cr  Cr4  1  0.16903442  0.50128623  0.16843474  1
  Fe  Fe5  1  1.00133836  0.33452582  0.33694171  1
  Ni  Ni6  1  1.00166649  0.67018893  1.00160200  1
  Fe  Fe7  1  0.16959106  0.83753185  0.16874832  1
  Ni  Ni8  1  1.00065332  0.67105058  0.33685483  1
  Ni  Ni9  1  0.33480218  0.00406185  0.00479312  1
  Ni  Ni10  1  0.50180707  0.16883366  0.16820970  1
  Fe  Fe11  1  0.33610473  1.00244520  0.33597258  1
  Ni  Ni12  1  0.33682522  0.33504153  1.00079132  1
  Ni  Ni13  1  0.50384039  0.50302173  0.16850320  1
  Ni  Ni14  1  0.33700107  0.33476408  0.33688378  1
  Ni  Ni15  1  0.33589804  0.66854183  0.00360011  1
  Ni  Ni16  1  0.50440639  0.83572266  0.16953362  1
  Fe  Fe17  1  0.33737088  0.67050917  0.33662390  1
  Ni  Ni18  1  0.66996389  0.00334045  0.00355797  1
  Fe  Fe19  1  0.83484352  0.16813446  0.16867020  1
  Ni  Ni20  1  0.66981174  1.00173990  0.33619811  1
  Ni  Ni21  1  0.66812955  0.33610015  0.00358652  1
  Fe  Fe22  1  0.83359110  0.50313783  0.16882513  1
  Fe  Fe23  1  0.66893318  0.33580311  0.33631310  1
  Ni  Ni24  1  0.66999619  0.66810719  0.00399873  1
  Ni  Ni25  1  0.83491233  0.83595046  0.16802223  1
  Ni  Ni26  1  0.66993202  0.66981292  0.33573216  1
  Ni  Ni27  1  0.16852995  0.16869643  0.50251617  1
  Ni  Ni28  1  0.00256759  1.00221295  0.66899719  1
  Ni  Ni29  1  0.16744498  0.16921561  0.83629044  1
  Fe  Fe30  1  0.16910571  0.50242886  0.50292191  1
  Ni  Ni31  1  0.00288118  0.33581535  0.66796488  1
  Ni  Ni32  1  0.16874566  0.50209227  0.83526372  1
  Ni  Ni33  1  0.16893520  0.83664782  0.50176918  1
  Ni  Ni34  1  0.00250690  0.66942445  0.66910622  1
  Ni  Ni35  1  0.16841292  0.83623890  0.83728083  1
  Ni  Ni36  1  0.50226879  0.16913090  0.50335780  1
  Ni  Ni37  1  0.33468567  0.00391020  0.66711857  1
  Fe  Fe38  1  0.50214492  0.17128986  0.83578815  1
  Ni  Ni39  1  0.50328718  0.50309467  0.50244550  1
  Ni  Ni40  1  0.33604980  0.33588183  0.66976322  1
  Ni  Ni41  1  0.50288134  0.50210934  0.83663826  1
  Ni  Ni42  1  0.50282037  0.83530815  0.50194293  1
  Ni  Ni43  1  0.33485498  0.66778654  0.66708354  1
  Cr  Cr44  1  0.50238296  0.83513761  0.83545945  1
  Ni  Ni45  1  0.83666466  0.16913317  0.50183561  1
  Ni  Ni46  1  0.67032071  0.00352417  0.66762312  1
  Ni  Ni47  1  0.83714241  0.17004626  0.83630845  1
  Ni  Ni48  1  0.83538283  0.50268119  0.50189523  1
  Ni  Ni49  1  0.66853929  0.33595034  0.66831607  1
  Ni  Ni50  1  0.83585817  0.50116921  0.83692306  1
  Ni  Ni51  1  0.83582093  0.83562096  0.50407699  1
  Ni  Ni52  1  0.67024106  0.66807187  0.66779975  1
  Fe  Fe53  1  0.83812873  0.83532833  0.83595144  1
" 