8219,Ni79Fe5Cr15_16,-233.023075133681, 167.066489136161,Ni79Fe5Cr15,"# generated using pymatgen
 data_Cr5FeNi21
_symmetry_space_group_name_H-M   'P 1'
_cell_length_a   7.46654642
_cell_length_b   7.46654642
_cell_length_c   10.55929121
_cell_angle_alpha   90.00000000
_cell_angle_beta   90.00000000
_cell_angle_gamma   90.00000000
_symmetry_Int_Tables_number   1
_chemical_formula_structural   Cr5FeNi21
_chemical_formula_sum   'Cr10 Fe2 Ni42'
_cell_volume   588.67325555
_cell_formula_units_Z   2
loop_
 _symmetry_equiv_pos_site_id
 _symmetry_equiv_pos_as_xyz
  1  'x, y, z'
loop_
 _atom_site_type_symbol
 _atom_site_label
 _atom_site_symmetry_multiplicity
 _atom_site_fract_x
 _atom_site_fract_y
 _atom_site_fract_z
 _atom_site_occupancy
  Ni  Ni0  1  0.00194535  0.99948247  0.99981171  1
  Ni  Ni1  1  0.16506566  0.16474003  0.16608502  1
  Ni  Ni2  1  0.00075390  0.00058167  0.33438486  1
  Ni  Ni3  1  0.00040825  0.33352775  0.00227587  1
  Ni  Ni4  1  0.16390956  0.50121114  0.16585322  1
  Ni  Ni5  1  0.99951545  0.33226672  0.33142041  1
  Ni  Ni6  1  0.99909720  0.66727200  0.99972528  1
  Ni  Ni7  1  0.16742946  0.83437423  0.16580127  1
  Ni  Ni8  1  1.00002552  0.66731649  0.33390331  1
  Ni  Ni9  1  0.33329678  0.99889063  0.00017496  1
  Ni  Ni10  1  0.50083581  0.16363984  0.16741492  1
  Ni  Ni11  1  0.33325151  0.00009886  0.33324014  1
  Cr  Cr12  1  0.33347944  0.33148970  0.00035358  1
  Ni  Ni13  1  0.50195430  0.50210960  0.16651363  1
  Cr  Cr14  1  0.33337831  0.33192645  0.33402959  1
  Fe  Fe15  1  0.33392488  0.66891971  0.00082160  1
  Ni  Ni16  1  0.49922408  0.83454972  0.16581338  1
  Cr  Cr17  1  0.33334727  0.66875485  0.33279222  1
  Ni  Ni18  1  0.66490532  0.99799722  0.00015773  1
  Ni  Ni19  1  0.83422145  0.16717735  0.16775614  1
  Ni  Ni20  1  0.66607804  0.00056916  0.33394447  1
  Cr  Cr21  1  0.66733848  0.33361533  0.00131561  1
  Ni  Ni22  1  0.83431762  0.49974763  0.16720528  1
  Ni  Ni23  1  0.66716024  0.33241018  0.33217566  1
  Ni  Ni24  1  0.66665736  0.66753635  0.99900699  1
  Cr  Cr25  1  0.83297925  0.83406734  0.16706441  1
  Ni  Ni26  1  0.66668482  0.66712562  0.33349316  1
  Ni  Ni27  1  0.16682455  0.16454028  0.50068704  1
  Ni  Ni28  1  0.00079928  0.99725624  0.66620796  1
  Ni  Ni29  1  0.16819621  0.16294454  0.83332192  1
  Ni  Ni30  1  0.16623986  0.50011735  0.50006402  1
  Cr  Cr31  1  0.00078104  0.33180833  0.66607845  1
  Cr  Cr32  1  0.16579055  0.50067584  0.83372918  1
  Ni  Ni33  1  0.16530226  0.83541649  0.49984082  1
  Ni  Ni34  1  0.99825010  0.67038875  0.66673682  1
  Ni  Ni35  1  0.16671081  0.83579125  0.83419985  1
  Ni  Ni36  1  0.50101369  0.16529981  0.50147379  1
  Ni  Ni37  1  0.33328386  0.00120017  0.66674976  1
  Ni  Ni38  1  0.49882508  0.16420812  0.83132340  1
  Ni  Ni39  1  0.50131338  0.49933743  0.50145047  1
  Ni  Ni40  1  0.33596112  0.33089768  0.66602019  1
  Ni  Ni41  1  0.50287115  0.50126710  0.83193619  1
  Ni  Ni42  1  0.50159224  0.83543034  0.49949959  1
  Cr  Cr43  1  0.33381529  0.66812141  0.66516679  1
  Ni  Ni44  1  0.50001183  0.83452091  0.83457614  1
  Ni  Ni45  1  0.83228748  0.16429413  0.49854616  1
  Ni  Ni46  1  0.66594330  0.99879505  0.66616167  1
  Cr  Cr47  1  0.83335315  0.16569282  0.83375580  1
  Cr  Cr48  1  0.83242004  0.50055814  0.49890821  1
  Ni  Ni49  1  0.66354202  0.33327365  0.66691665  1
  Ni  Ni50  1  0.83192401  0.50281732  0.83376200  1
  Ni  Ni51  1  0.83314360  0.83496450  0.50118688  1
  Ni  Ni52  1  0.66739294  0.66803202  0.66783058  1
  Fe  Fe53  1  0.83303824  0.83276467  0.83314762  1
" 