1036,Ni79Fe5Cr15_2,-233.100577645794, 164.733229906261,Ni79Fe5Cr15,"# generated using pymatgen
 data_Cr5FeNi21
_symmetry_space_group_name_H-M   'P 1'
_cell_length_a   7.46552003
_cell_length_b   7.46552003
_cell_length_c   10.55783968
_cell_angle_alpha   90.00000000
_cell_angle_beta   90.00000000
_cell_angle_gamma   90.00000000
_symmetry_Int_Tables_number   1
_chemical_formula_structural   Cr5FeNi21
_chemical_formula_sum   'Cr10 Fe2 Ni42'
_cell_volume   588.43052403
_cell_formula_units_Z   2
loop_
 _symmetry_equiv_pos_site_id
 _symmetry_equiv_pos_as_xyz
  1  'x, y, z'
loop_
 _atom_site_type_symbol
 _atom_site_label
 _atom_site_symmetry_multiplicity
 _atom_site_fract_x
 _atom_site_fract_y
 _atom_site_fract_z
 _atom_site_occupancy
  Ni  Ni0  1  0.99842121  0.00010560  0.00030220  1
  Ni  Ni1  1  0.16524640  0.16616743  0.16738724  1
  Ni  Ni2  1  0.00145034  0.00028590  0.33306703  1
  Ni  Ni3  1  0.99866075  0.33313132  0.99883746  1
  Cr  Cr4  1  0.16464849  0.49985709  0.16755257  1
  Ni  Ni5  1  0.99894445  0.33281597  0.33447719  1
  Ni  Ni6  1  0.99723267  0.66708216  0.99974369  1
  Ni  Ni7  1  0.16264760  0.83502976  0.16890311  1
  Ni  Ni8  1  0.99881778  0.66726791  0.33394251  1
  Cr  Cr9  1  0.33116920  0.00107033  0.00068496  1
  Ni  Ni10  1  0.50047568  0.16848678  0.16723943  1
  Ni  Ni11  1  0.33139206  0.00102461  0.33446594  1
  Ni  Ni12  1  0.33243442  0.33236010  0.99936407  1
  Cr  Cr13  1  0.50171517  0.49804202  0.16743711  1
  Ni  Ni14  1  0.33224352  0.33057745  0.33376779  1
  Cr  Cr15  1  0.33170520  0.66622785  0.99642702  1
  Cr  Cr16  1  0.50119553  0.83323214  0.16744232  1
  Ni  Ni17  1  0.33160253  0.66880443  0.33572412  1
  Ni  Ni18  1  0.67025631  0.00029191  1.00007935  1
  Ni  Ni19  1  0.83456799  0.16715660  0.16528580  1
  Cr  Cr20  1  0.66854653  0.00085829  0.33403468  1
  Ni  Ni21  1  0.66921662  0.33369436  0.00052854  1
  Ni  Ni22  1  0.83347381  0.50023540  0.16740345  1
  Ni  Ni23  1  0.66926843  0.33319257  0.33325670  1
  Ni  Ni24  1  0.67068468  0.66630816  0.99864528  1
  Ni  Ni25  1  0.83637661  0.83294019  0.16563063  1
  Ni  Ni26  1  0.66998842  0.66623470  0.33405014  1
  Ni  Ni27  1  0.16403613  0.16684947  0.49854060  1
  Ni  Ni28  1  0.99849366  1.00003615  0.66687846  1
  Ni  Ni29  1  0.16242833  0.16712935  0.83442488  1
  Ni  Ni30  1  0.16529997  0.50119773  0.49983828  1
  Ni  Ni31  1  0.99812213  0.33374893  0.66701419  1
  Ni  Ni32  1  0.16505446  0.50061151  0.83322809  1
  Ni  Ni33  1  0.16488488  0.83229197  0.49899643  1
  Ni  Ni34  1  0.99997620  0.66652137  0.66673387  1
  Ni  Ni35  1  0.16215579  0.83247373  0.83234220  1
  Ni  Ni36  1  0.50166288  0.16660519  0.49867102  1
  Cr  Cr37  1  0.33215760  0.99831206  0.66521066  1
  Cr  Cr38  1  0.50407806  0.16830965  0.83405443  1
  Cr  Cr39  1  0.50037979  0.50045931  0.49872105  1
  Cr  Cr40  1  0.33070691  0.33463763  0.66749365  1
  Ni  Ni41  1  0.50198990  0.50102923  0.83378093  1
  Ni  Ni42  1  0.50082141  0.83267479  0.50107757  1
  Ni  Ni43  1  0.33255613  0.66751731  0.66788522  1
  Fe  Fe44  1  0.50300231  0.83208942  0.83212441  1
  Ni  Ni45  1  0.83456331  0.16630185  0.50179652  1
  Ni  Ni46  1  0.66949771  0.99919447  0.66602283  1
  Ni  Ni47  1  0.83498201  0.16590076  0.83316455  1
  Fe  Fe48  1  0.83528160  0.50029754  0.50018153  1
  Ni  Ni49  1  0.67025736  0.33359923  0.66637404  1
  Ni  Ni50  1  0.83327022  0.50051916  0.83293746  1
  Ni  Ni51  1  0.83486246  0.83354046  0.50081891  1
  Ni  Ni52  1  0.66807945  0.66745639  0.66776817  1
  Ni  Ni53  1  0.83454160  0.83373896  0.83376437  1
" 