7412,Ni79Fe5Cr15_15,-232.875412305099, 163.250039585889,Ni79Fe5Cr15,"# generated using pymatgen
 data_Cr5FeNi21
_symmetry_space_group_name_H-M   'P 1'
_cell_length_a   7.46115442
_cell_length_b   7.46115442
_cell_length_c   10.55166577
_cell_angle_alpha   90.00000000
_cell_angle_beta   90.00000000
_cell_angle_gamma   90.00000000
_symmetry_Int_Tables_number   1
_chemical_formula_structural   Cr5FeNi21
_chemical_formula_sum   'Cr10 Fe2 Ni42'
_cell_volume   587.39883874
_cell_formula_units_Z   2
loop_
 _symmetry_equiv_pos_site_id
 _symmetry_equiv_pos_as_xyz
  1  'x, y, z'
loop_
 _atom_site_type_symbol
 _atom_site_label
 _atom_site_symmetry_multiplicity
 _atom_site_fract_x
 _atom_site_fract_y
 _atom_site_fract_z
 _atom_site_occupancy
  Ni  Ni0  1  0.99911044  0.99827211  0.00094691  1
  Ni  Ni1  1  0.16714566  0.16532771  0.16837740  1
  Ni  Ni2  1  0.00120697  0.99974257  0.33161368  1
  Cr  Cr3  1  0.99953103  0.33253365  0.99985456  1
  Cr  Cr4  1  0.16808999  0.50061909  0.16715425  1
  Ni  Ni5  1  0.99885304  0.33418584  0.33435037  1
  Ni  Ni6  1  0.99942898  0.66952901  0.99933683  1
  Ni  Ni7  1  0.16427563  0.83481117  0.16823495  1
  Ni  Ni8  1  0.99995711  0.66725244  0.33416237  1
  Cr  Cr9  1  0.33203932  0.00146559  0.99994937  1
  Ni  Ni10  1  0.50119689  0.16935035  0.16811931  1
  Ni  Ni11  1  0.33273844  0.00146431  0.33334696  1
  Ni  Ni12  1  0.33661780  0.33476167  0.99932927  1
  Ni  Ni13  1  0.50196353  0.49856638  0.16684858  1
  Ni  Ni14  1  0.33573457  0.33308255  0.33377752  1
  Ni  Ni15  1  0.33394820  0.66548265  0.99924456  1
  Cr  Cr16  1  0.50178372  0.83280830  0.16747079  1
  Fe  Fe17  1  0.33287285  0.66631023  0.33430078  1
  Ni  Ni18  1  0.66920968  0.00096966  0.99941825  1
  Ni  Ni19  1  0.83283607  0.16560876  0.16796072  1
  Ni  Ni20  1  0.66722127  0.00258769  0.33335888  1
  Ni  Ni21  1  0.66513721  0.33446741  0.00095697  1
  Ni  Ni22  1  0.83121973  0.50148711  0.16792271  1
  Ni  Ni23  1  0.66657567  0.33435377  0.33379846  1
  Ni  Ni24  1  0.66781130  0.66575089  0.99959430  1
  Ni  Ni25  1  0.83527496  0.83408013  0.16674696  1
  Ni  Ni26  1  0.66832481  0.66424952  0.33292248  1
  Cr  Cr27  1  0.16695952  0.16740916  0.50115378  1
  Ni  Ni28  1  0.00096475  1.00030290  0.66865659  1
  Ni  Ni29  1  0.16770604  0.16694384  0.83204050  1
  Ni  Ni30  1  0.16641636  0.50109821  0.50043208  1
  Ni  Ni31  1  0.00126134  0.33447149  0.66738107  1
  Ni  Ni32  1  0.16774521  0.50073020  0.83311499  1
  Ni  Ni33  1  0.16633008  0.83257507  0.49942079  1
  Ni  Ni34  1  0.00155904  0.66642824  0.66768126  1
  Ni  Ni35  1  0.16477791  0.83351065  0.83350755  1
  Ni  Ni36  1  0.50106105  0.16795238  0.49978442  1
  Ni  Ni37  1  0.33331207  0.00197215  0.66826946  1
  Ni  Ni38  1  0.50024028  0.16753817  0.83327998  1
  Ni  Ni39  1  0.49941010  0.49800670  0.49757524  1
  Ni  Ni40  1  0.33279758  0.33253628  0.66809231  1
  Ni  Ni41  1  0.49917090  0.49910877  0.83670768  1
  Cr  Cr42  1  0.49969971  0.83580623  0.49953685  1
  Cr  Cr43  1  0.33162170  0.66664302  0.66705352  1
  Fe  Fe44  1  0.50131663  0.83458350  0.83452140  1
  Ni  Ni45  1  0.83260265  0.16782814  0.49989713  1
  Ni  Ni46  1  0.66689681  0.00229020  0.66843422  1
  Ni  Ni47  1  0.83326408  0.16460493  0.83332905  1
  Ni  Ni48  1  0.83535192  0.49919184  0.49896853  1
  Cr  Cr49  1  0.66745602  0.33276435  0.66607963  1
  Ni  Ni50  1  0.83430030  0.50202473  0.83428013  1
  Cr  Cr51  1  0.83546213  0.83485234  0.49998957  1
  Cr  Cr52  1  0.66868868  0.66646403  0.66837647  1
  Ni  Ni53  1  0.83484821  0.83456781  0.83466355  1
" 