5001,Ni79Fe9Cr10_2,-236.85087331247, 182.567908588611,Ni79Fe9Cr10,"# generated using pymatgen
 data_Cr6Fe5Ni43
_symmetry_space_group_name_H-M   'P 1'
_cell_length_a   7.44886466
_cell_length_b   7.44886466
_cell_length_c   10.53428543
_cell_angle_alpha   90.00000000
_cell_angle_beta   90.00000000
_cell_angle_gamma   90.00000000
_symmetry_Int_Tables_number   1
_chemical_formula_structural   Cr6Fe5Ni43
_chemical_formula_sum   'Cr6 Fe5 Ni43'
_cell_volume   584.50098749
_cell_formula_units_Z   1
loop_
 _symmetry_equiv_pos_site_id
 _symmetry_equiv_pos_as_xyz
  1  'x, y, z'
loop_
 _atom_site_type_symbol
 _atom_site_label
 _atom_site_symmetry_multiplicity
 _atom_site_fract_x
 _atom_site_fract_y
 _atom_site_fract_z
 _atom_site_occupancy
  Ni  Ni0  1  1.00049154  0.00124706  0.00151730  1
  Ni  Ni1  1  0.16812602  0.16780098  0.16811944  1
  Ni  Ni2  1  1.00073422  1.00085361  0.33475407  1
  Ni  Ni3  1  0.00231313  0.33426730  0.99988179  1
  Ni  Ni4  1  0.16947965  0.50117255  0.16755992  1
  Ni  Ni5  1  1.00073461  0.33327024  0.33526281  1
  Ni  Ni6  1  0.00175814  0.66814886  0.99986975  1
  Ni  Ni7  1  0.16792933  0.83468832  0.16835032  1
  Ni  Ni8  1  0.00168572  0.66953644  0.33463768  1
  Ni  Ni9  1  0.33537555  1.00117402  1.00096143  1
  Ni  Ni10  1  0.50110476  0.16773222  0.16736300  1
  Ni  Ni11  1  0.33406727  0.99985432  0.33399410  1
  Ni  Ni12  1  0.33348688  0.33427162  0.00198294  1
  Ni  Ni13  1  0.49948487  0.50097599  0.16851400  1
  Ni  Ni14  1  0.33513709  0.33534324  0.33318382  1
  Ni  Ni15  1  0.33411303  0.66821503  0.00195222  1
  Ni  Ni16  1  0.50110231  0.83495282  0.16813337  1
  Ni  Ni17  1  0.33519159  0.66846433  0.33385611  1
  Ni  Ni18  1  0.66779380  1.00062113  1.00073472  1
  Ni  Ni19  1  0.83443208  0.16618402  0.16867244  1
  Ni  Ni20  1  0.66886026  1.00080106  0.33397499  1
  Fe  Fe21  1  0.66794476  0.33274005  1.00118150  1
  Cr  Cr22  1  0.83507078  0.50138236  0.16772068  1
  Ni  Ni23  1  0.66778875  0.33439536  0.33433726  1
  Ni  Ni24  1  0.66778906  0.67003804  0.00129445  1
  Ni  Ni25  1  0.83462992  0.83630891  0.16740018  1
  Fe  Fe26  1  0.66698286  0.66872915  0.33575101  1
  Ni  Ni27  1  0.16655385  0.16604005  0.50190029  1
  Ni  Ni28  1  0.00171599  0.00335056  0.66738931  1
  Ni  Ni29  1  0.16754752  0.16761151  0.83364277  1
  Cr  Cr30  1  0.16749681  0.49915822  0.49992075  1
  Ni  Ni31  1  0.99975829  0.33172482  0.66851365  1
  Ni  Ni32  1  0.16527912  0.49975892  0.83626978  1
  Ni  Ni33  1  0.16735019  0.83816895  0.49953883  1
  Cr  Cr34  1  0.99918907  0.66846170  0.66937521  1
  Ni  Ni35  1  0.16817151  0.83628998  0.83577559  1
  Cr  Cr36  1  0.49989709  0.16798012  0.50199602  1
  Ni  Ni37  1  0.33367023  0.00228151  0.66870930  1
  Ni  Ni38  1  0.50118923  0.16580050  0.83446612  1
  Ni  Ni39  1  0.50459222  0.50206659  0.50054562  1
  Ni  Ni40  1  0.33449263  0.33165497  0.66849943  1
  Cr  Cr41  1  0.50210871  0.50065171  0.83487303  1
  Ni  Ni42  1  0.50244545  0.83366583  0.50080828  1
  Cr  Cr43  1  0.33633489  0.66946409  0.66784676  1
  Ni  Ni44  1  0.50151294  0.83714551  0.83471401  1
  Fe  Fe45  1  0.83631086  0.16786018  0.50094816  1
  Fe  Fe46  1  0.66819718  1.00092284  0.66885273  1
  Ni  Ni47  1  0.83492598  0.16869238  0.83380712  1
  Ni  Ni48  1  0.83198489  0.50127602  0.50105390  1
  Ni  Ni49  1  0.66940950  0.33523677  0.66817410  1
  Ni  Ni50  1  0.83578858  0.50008891  0.83466985  1
  Ni  Ni51  1  0.83387019  0.83419626  0.50089571  1
  Ni  Ni52  1  0.66834312  0.66776735  0.66603453  1
  Fe  Fe53  1  0.83416395  0.83542269  0.83572584  1
" 