3629,Ni79Fe19Cr1_12,-241.156998490982, 202.334076354227,Ni79Fe19Cr1,"# generated using pymatgen
 data_CrFe5Ni21
_symmetry_space_group_name_H-M   'P 1'
_cell_length_a   7.42687444
_cell_length_b   7.42687444
_cell_length_c   10.50318657
_cell_angle_alpha   90.00000000
_cell_angle_beta   90.00000000
_cell_angle_gamma   90.00000000
_symmetry_Int_Tables_number   1
_chemical_formula_structural   CrFe5Ni21
_chemical_formula_sum   'Cr2 Fe10 Ni42'
_cell_volume   579.33963817
_cell_formula_units_Z   2
loop_
 _symmetry_equiv_pos_site_id
 _symmetry_equiv_pos_as_xyz
  1  'x, y, z'
loop_
 _atom_site_type_symbol
 _atom_site_label
 _atom_site_symmetry_multiplicity
 _atom_site_fract_x
 _atom_site_fract_y
 _atom_site_fract_z
 _atom_site_occupancy
  Ni  Ni0  1  0.00331348  1.00198099  0.00304194  1
  Ni  Ni1  1  0.16934597  0.16983981  0.16969463  1
  Fe  Fe2  1  0.00342888  0.00341744  0.33582495  1
  Ni  Ni3  1  0.00335857  0.33671767  0.00294599  1
  Ni  Ni4  1  0.17009435  0.50329028  0.16874301  1
  Fe  Fe5  1  1.00241675  0.33445400  0.33545827  1
  Ni  Ni6  1  0.00392298  0.66941468  0.00300859  1
  Ni  Ni7  1  0.16930719  0.83498277  0.16941200  1
  Fe  Fe8  1  0.00275384  0.67024282  0.33508473  1
  Ni  Ni9  1  0.33564256  0.00338025  0.00349433  1
  Ni  Ni10  1  0.50358916  0.16961915  0.16928868  1
  Ni  Ni11  1  0.33598013  1.00237794  0.33614143  1
  Ni  Ni12  1  0.33568856  0.33540716  0.00339858  1
  Ni  Ni13  1  0.50118751  0.50186264  0.17110084  1
  Ni  Ni14  1  0.33703538  0.33542737  0.33512612  1
  Fe  Fe15  1  0.33394823  0.66907323  0.00357790  1
  Ni  Ni16  1  0.50219487  0.83663202  0.16961723  1
  Ni  Ni17  1  0.33617656  0.67030578  0.33484861  1
  Ni  Ni18  1  0.66915612  0.00394254  0.00286833  1
  Ni  Ni19  1  0.83517888  0.16883297  0.16881073  1
  Ni  Ni20  1  0.66904882  0.00270810  0.33568890  1
  Ni  Ni21  1  0.66906561  0.33480133  0.00279963  1
  Fe  Fe22  1  0.83682057  0.50164064  0.16979664  1
  Ni  Ni23  1  0.66909949  0.33620636  0.33598374  1
  Cr  Cr24  1  0.67046483  0.66937175  0.00334450  1
  Ni  Ni25  1  0.83660762  0.83738154  0.17072127  1
  Fe  Fe26  1  0.66760978  0.66953497  0.33616558  1
  Ni  Ni27  1  0.16955203  0.16760347  0.50287346  1
  Ni  Ni28  1  0.00345224  1.00190807  0.66884335  1
  Ni  Ni29  1  0.16946867  0.16942774  0.83554506  1
  Cr  Cr30  1  0.16920598  0.50273873  0.50379378  1
  Ni  Ni31  1  1.00229947  0.33608873  0.67003334  1
  Ni  Ni32  1  0.16939802  0.50345989  0.83619483  1
  Ni  Ni33  1  0.17030748  0.83727119  0.50261085  1
  Ni  Ni34  1  1.00105026  0.67011819  0.67022472  1
  Ni  Ni35  1  0.16860930  0.83522675  0.83608903  1
  Ni  Ni36  1  0.50350001  0.16845196  0.50251772  1
  Ni  Ni37  1  0.33550435  0.00326073  0.66847722  1
  Ni  Ni38  1  0.50348158  0.17000008  0.83630746  1
  Fe  Fe39  1  0.50415359  0.50181776  0.50258483  1
  Ni  Ni40  1  0.33661005  0.33468484  0.66959118  1
  Ni  Ni41  1  0.50195368  0.50128769  0.83420794  1
  Ni  Ni42  1  0.50241926  0.83674224  0.50300978  1
  Fe  Fe43  1  0.33657907  0.67037241  0.66974731  1
  Fe  Fe44  1  0.50230213  0.83739455  0.83498717  1
  Ni  Ni45  1  0.83506333  0.17004141  0.50327875  1
  Ni  Ni46  1  0.66915877  1.00201212  0.66955724  1
  Ni  Ni47  1  0.83516315  0.16920942  0.83602479  1
  Ni  Ni48  1  0.83453580  0.50216094  0.50275213  1
  Ni  Ni49  1  0.66920501  0.33708974  0.66932832  1
  Ni  Ni50  1  0.83676170  0.50214839  0.83547439  1
  Fe  Fe51  1  0.83598473  0.83691553  0.50341119  1
  Ni  Ni52  1  0.67055817  0.66901242  0.66816398  1
  Ni  Ni53  1  0.83733286  0.83675617  0.83443041  1
" 