4820,Ni79Cr21_2,-207.779551782935, 153.8633137,Ni79Cr21,"# generated using pymatgen
 data_Cr7Ni2
_symmetry_space_group_name_H-M   'P 1'
_cell_length_a   7.58106093
_cell_length_b   7.58106093
_cell_length_c   10.72123919
_cell_angle_alpha   90.00000000
_cell_angle_beta   90.00000000
_cell_angle_gamma   90.00000000
_symmetry_Int_Tables_number   1
_chemical_formula_structural   Cr7Ni2
_chemical_formula_sum   'Cr42 Ni12'
_cell_volume   616.17625715
_cell_formula_units_Z   6
loop_
 _symmetry_equiv_pos_site_id
 _symmetry_equiv_pos_as_xyz
  1  'x, y, z'
loop_
 _atom_site_type_symbol
 _atom_site_label
 _atom_site_symmetry_multiplicity
 _atom_site_fract_x
 _atom_site_fract_y
 _atom_site_fract_z
 _atom_site_occupancy
  Ni  Ni0  1  -0.00649430  -0.00630643  -0.00634623  1
  Cr  Cr1  1  0.15783716  0.15629019  0.15763056  1
  Cr  Cr2  1  0.99047143  -0.00686243  0.32502487  1
  Cr  Cr3  1  0.99142652  0.32497442  -0.00656934  1
  Cr  Cr4  1  0.15854735  0.49281067  0.16069789  1
  Cr  Cr5  1  0.99185933  0.32635196  0.32420562  1
  Cr  Cr6  1  -0.00749346  0.65836148  0.99144178  1
  Cr  Cr7  1  0.16050614  0.82833456  0.15693459  1
  Cr  Cr8  1  0.99187737  0.65793766  0.32745187  1
  Ni  Ni9  1  0.32496143  0.99148070  -0.00624136  1
  Cr  Cr10  1  0.49224697  0.15826072  0.15864038  1
  Cr  Cr11  1  0.32863699  0.99119460  0.32658497  1
  Cr  Cr12  1  0.32446817  0.32565613  0.99001441  1
  Cr  Cr13  1  0.49472648  0.49378695  0.15905989  1
  Cr  Cr14  1  0.32486985  0.32576290  0.32898267  1
  Cr  Cr15  1  0.32634990  0.66083640  0.99227718  1
  Ni  Ni16  1  0.49195175  0.82695931  0.15817930  1
  Cr  Cr17  1  0.32677893  0.66050307  0.32634416  1
  Cr  Cr18  1  0.65919928  0.99219398  -0.00656377  1
  Ni  Ni19  1  0.82657476  0.16006557  0.15784438  1
  Cr  Cr20  1  0.65829208  0.99135483  0.32805507  1
  Cr  Cr21  1  0.66152722  0.32592794  -0.00570033  1
  Ni  Ni22  1  0.82557207  0.49047787  0.15895865  1
  Cr  Cr23  1  0.66072876  0.32441594  0.32353250  1
  Cr  Cr24  1  0.65868647  0.65934930  -0.00499118  1
  Cr  Cr25  1  0.82642544  0.82606763  0.15862818  1
  Cr  Cr26  1  0.65884796  0.66166665  0.32409121  1
  Cr  Cr27  1  0.16078109  0.16010227  0.49122769  1
  Cr  Cr28  1  0.98962903  0.99055387  0.65856702  1
  Cr  Cr29  1  0.15941335  0.15772109  0.82862417  1
  Ni  Ni30  1  0.15838101  0.49377244  0.49409275  1
  Cr  Cr31  1  -0.00519562  0.32888350  0.65981875  1
  Ni  Ni32  1  0.15803420  0.49350526  0.82415382  1
  Cr  Cr33  1  0.15726816  0.82398683  0.49244124  1
  Ni  Ni34  1  -0.00673246  0.65808607  0.65800799  1
  Cr  Cr35  1  0.15769355  0.82594102  0.82803337  1
  Ni  Ni36  1  0.49349690  0.15597798  0.49383508  1
  Cr  Cr37  1  0.32953308  -0.00742643  0.65744326  1
  Cr  Cr38  1  0.49243298  0.15858459  0.82477667  1
  Cr  Cr39  1  0.49164347  0.49155600  0.49187880  1
  Cr  Cr40  1  0.32425875  0.32659986  0.65856407  1
  Cr  Cr41  1  0.49202174  0.49192738  0.82653753  1
  Ni  Ni42  1  0.49531530  0.82875550  0.49322666  1
  Cr  Cr43  1  0.32326708  0.65816662  0.65899578  1
  Cr  Cr44  1  0.49240327  0.82696188  0.82681464  1
  Cr  Cr45  1  0.82365079  0.15709212  0.49332675  1
  Ni  Ni46  1  0.65831179  0.99121719  0.65584239  1
  Cr  Cr47  1  0.82558584  0.15741709  0.82592407  1
  Cr  Cr48  1  0.82718501  0.49505009  0.49269331  1
  Cr  Cr49  1  0.65839398  0.32253441  0.65949420  1
  Cr  Cr50  1  0.82646115  0.49373083  0.82501516  1
  Ni  Ni51  1  0.82362777  0.82580924  0.49487939  1
  Cr  Cr52  1  0.66037234  0.66326761  0.65832085  1
  Cr  Cr53  1  0.82732518  0.82631390  0.82323746  1
" 