8817,Ni79Fe9Cr10_13,-237.265383743463, 182.205257341839,Ni79Fe9Cr10,"# generated using pymatgen
 data_Cr6Fe5Ni43
_symmetry_space_group_name_H-M   'P 1'
_cell_length_a   7.44907648
_cell_length_b   7.44907648
_cell_length_c   10.53458499
_cell_angle_alpha   90.00000000
_cell_angle_beta   90.00000000
_cell_angle_gamma   90.00000000
_symmetry_Int_Tables_number   1
_chemical_formula_structural   Cr6Fe5Ni43
_chemical_formula_sum   'Cr6 Fe5 Ni43'
_cell_volume   584.55085199
_cell_formula_units_Z   1
loop_
 _symmetry_equiv_pos_site_id
 _symmetry_equiv_pos_as_xyz
  1  'x, y, z'
loop_
 _atom_site_type_symbol
 _atom_site_label
 _atom_site_symmetry_multiplicity
 _atom_site_fract_x
 _atom_site_fract_y
 _atom_site_fract_z
 _atom_site_occupancy
  Ni  Ni0  1  0.00160190  1.00049420  1.00055189  1
  Ni  Ni1  1  0.16662591  0.16675702  0.16775339  1
  Ni  Ni2  1  0.00137261  0.00129601  0.33519664  1
  Ni  Ni3  1  0.00303645  0.33461823  0.00167333  1
  Ni  Ni4  1  0.16512485  0.50236221  0.16693602  1
  Ni  Ni5  1  0.99902904  0.33382651  0.33291713  1
  Ni  Ni6  1  1.00044889  0.66851694  1.00118202  1
  Ni  Ni7  1  0.16766534  0.83454865  0.16906730  1
  Ni  Ni8  1  1.00028978  0.66887193  0.33356933  1
  Ni  Ni9  1  0.33405490  0.00178587  0.00142246  1
  Ni  Ni10  1  0.50123357  0.16407820  0.16827947  1
  Ni  Ni11  1  0.33347340  0.99879337  0.33388432  1
  Ni  Ni12  1  0.33227119  0.33263039  0.99958780  1
  Cr  Cr13  1  0.50157515  0.50377320  0.16921107  1
  Cr  Cr14  1  0.33323840  0.33267579  0.33367251  1
  Fe  Fe15  1  0.33355171  0.66917899  1.00065951  1
  Ni  Ni16  1  0.50151016  0.83630452  0.16790296  1
  Ni  Ni17  1  0.33417231  0.67164262  0.33419271  1
  Ni  Ni18  1  0.66795097  0.99916222  0.00141795  1
  Ni  Ni19  1  0.83573904  0.16647984  0.16931263  1
  Ni  Ni20  1  0.66870229  1.00024303  0.33273960  1
  Cr  Cr21  1  0.66923894  0.33320476  1.00051299  1
  Ni  Ni22  1  0.83730325  0.50262033  0.16928388  1
  Ni  Ni23  1  0.67169599  0.33429703  0.33484283  1
  Ni  Ni24  1  0.66993388  0.67026911  0.99980377  1
  Ni  Ni25  1  0.83440418  0.83445520  0.16846339  1
  Ni  Ni26  1  0.66917857  0.66915771  0.33610200  1
  Ni  Ni27  1  0.16528457  0.16624647  0.50229662  1
  Fe  Fe28  1  1.00052643  0.00176116  0.66851350  1
  Ni  Ni29  1  0.16779996  0.16792052  0.83358874  1
  Cr  Cr30  1  0.16494898  0.50085813  0.50062508  1
  Ni  Ni31  1  1.00044799  0.33467104  0.66906927  1
  Ni  Ni32  1  0.16638985  0.50062546  0.83580068  1
  Fe  Fe33  1  0.16661203  0.83675370  0.50058591  1
  Ni  Ni34  1  0.99891386  0.66817074  0.66876481  1
  Ni  Ni35  1  0.16700686  0.83531071  0.83427891  1
  Cr  Cr36  1  0.50240439  0.16521943  0.50170572  1
  Ni  Ni37  1  0.33409481  0.00168222  0.66830109  1
  Ni  Ni38  1  0.50047881  0.16623062  0.83346886  1
  Fe  Fe39  1  0.50395411  0.50122004  0.50168838  1
  Ni  Ni40  1  0.33376999  0.33239224  0.67004897  1
  Ni  Ni41  1  0.50141305  0.50152306  0.83260333  1
  Ni  Ni42  1  0.50223500  0.83442049  0.49995036  1
  Cr  Cr43  1  0.33476519  0.66939880  0.66883306  1
  Ni  Ni44  1  0.50215541  0.83579878  0.83572693  1
  Ni  Ni45  1  0.83594631  0.16868856  0.50102198  1
  Ni  Ni46  1  0.66780507  1.00020352  0.66935143  1
  Ni  Ni47  1  0.83532013  0.16698528  0.83348282  1
  Ni  Ni48  1  0.83456855  0.50137759  0.50092751  1
  Ni  Ni49  1  0.66956164  0.33486655  0.66847233  1
  Ni  Ni50  1  0.83595615  0.50229686  0.83351861  1
  Fe  Fe51  1  0.83415754  0.83553083  0.50113849  1
  Ni  Ni52  1  0.66999683  0.66862011  0.66752157  1
  Ni  Ni53  1  0.83420216  0.83432156  0.83371447  1
" 