21,Ni79Fe19Cr1_10,-241.219163657365, 203.750873842056,Ni79Fe19Cr1,"# generated using pymatgen
 data_CrFe5Ni21
_symmetry_space_group_name_H-M   'P 1'
_cell_length_a   7.43243750
_cell_length_b   7.43243750
_cell_length_c   10.51105391
_cell_angle_alpha   90.00000000
_cell_angle_beta   90.00000000
_cell_angle_gamma   90.00000000
_symmetry_Int_Tables_number   1
_chemical_formula_structural   CrFe5Ni21
_chemical_formula_sum   'Cr2 Fe10 Ni42'
_cell_volume   580.64246554
_cell_formula_units_Z   2
loop_
 _symmetry_equiv_pos_site_id
 _symmetry_equiv_pos_as_xyz
  1  'x, y, z'
loop_
 _atom_site_type_symbol
 _atom_site_label
 _atom_site_symmetry_multiplicity
 _atom_site_fract_x
 _atom_site_fract_y
 _atom_site_fract_z
 _atom_site_occupancy
  Ni  Ni0  1  1.00219803  1.00038236  0.00324999  1
  Fe  Fe1  1  0.16949569  0.16750537  0.16958324  1
  Fe  Fe2  1  1.00200423  1.00213795  0.33576731  1
  Cr  Cr3  1  0.00366067  0.33544338  1.00137584  1
  Ni  Ni4  1  0.17180633  0.50363591  0.16914121  1
  Ni  Ni5  1  0.00309194  0.33554866  0.33686295  1
  Ni  Ni6  1  0.00337701  0.67161764  1.00160275  1
  Ni  Ni7  1  0.16958050  0.83527361  0.16797559  1
  Ni  Ni8  1  0.00314079  0.66893416  0.33629555  1
  Ni  Ni9  1  0.33561295  1.00201727  0.00233329  1
  Fe  Fe10  1  0.50257841  0.16808555  0.16941124  1
  Ni  Ni11  1  0.33614050  1.00227410  0.33575652  1
  Ni  Ni12  1  0.33701356  0.33586805  0.00280115  1
  Fe  Fe13  1  0.50098564  0.50332294  0.16882002  1
  Ni  Ni14  1  0.33480439  0.33556597  0.33535587  1
  Ni  Ni15  1  0.33532852  0.66909535  0.00287719  1
  Ni  Ni16  1  0.50216318  0.83615428  0.16856355  1
  Ni  Ni17  1  0.33497261  0.66914271  0.33544126  1
  Ni  Ni18  1  0.66916094  1.00206440  0.00275371  1
  Ni  Ni19  1  0.83381990  0.16639493  0.16944658  1
  Ni  Ni20  1  0.66887969  1.00232418  0.33544758  1
  Ni  Ni21  1  0.66664306  0.33468770  1.00184040  1
  Cr  Cr22  1  0.83472425  0.50284403  0.16965894  1
  Ni  Ni23  1  0.66908291  0.33438287  0.33644935  1
  Ni  Ni24  1  0.66828219  0.67023088  1.00193660  1
  Ni  Ni25  1  0.83524157  0.83807191  0.16803902  1
  Ni  Ni26  1  0.66887015  0.67028102  0.33651345  1
  Ni  Ni27  1  0.16945126  0.16868167  0.50234217  1
  Ni  Ni28  1  0.00256432  0.00264164  0.66851646  1
  Ni  Ni29  1  0.16976927  0.16771097  0.83526130  1
  Ni  Ni30  1  0.16946815  0.50259338  0.50287029  1
  Ni  Ni31  1  0.00257281  0.33574915  0.66862092  1
  Ni  Ni32  1  0.17071120  0.50324520  0.83496893  1
  Ni  Ni33  1  0.16861062  0.83570692  0.50256822  1
  Ni  Ni34  1  0.00256889  0.66859452  0.66907585  1
  Ni  Ni35  1  0.16864272  0.83602963  0.83644966  1
  Ni  Ni36  1  0.50283793  0.16975504  0.50280389  1
  Ni  Ni37  1  0.33537754  0.00246148  0.66889743  1
  Fe  Fe38  1  0.50077704  0.16957038  0.83529574  1
  Ni  Ni39  1  0.50277228  0.50146973  0.50172932  1
  Ni  Ni40  1  0.33498064  0.33552852  0.66883990  1
  Ni  Ni41  1  0.50262000  0.50182829  0.83688930  1
  Fe  Fe42  1  0.50236964  0.83578343  0.50179291  1
  Ni  Ni43  1  0.33516592  0.66899386  0.66866671  1
  Fe  Fe44  1  0.50082891  0.83514438  0.83625005  1
  Ni  Ni45  1  0.83469422  0.16889754  0.50256702  1
  Ni  Ni46  1  0.66903338  0.00246050  0.66877011  1
  Fe  Fe47  1  0.83570500  0.16858531  0.83489487  1
  Ni  Ni48  1  0.83474380  0.50231005  0.50292157  1
  Ni  Ni49  1  0.66943619  0.33552973  0.66871110  1
  Fe  Fe50  1  0.83562624  0.50329089  0.83446100  1
  Ni  Ni51  1  0.83581358  0.83577585  0.50199983  1
  Ni  Ni52  1  0.66925466  0.66899375  0.66852302  1
  Fe  Fe53  1  0.83667319  0.83510999  0.83574127  1
" 