8384,Ni79Fe9Cr10_18,-236.720147931129, 180.009544297592,Ni79Fe9Cr10,"# generated using pymatgen
 data_Cr6Fe5Ni43
_symmetry_space_group_name_H-M   'P 1'
_cell_length_a   7.45266249
_cell_length_b   7.45266249
_cell_length_c   10.53965637
_cell_angle_alpha   90.00000000
_cell_angle_beta   90.00000000
_cell_angle_gamma   90.00000000
_symmetry_Int_Tables_number   1
_chemical_formula_structural   Cr6Fe5Ni43
_chemical_formula_sum   'Cr6 Fe5 Ni43'
_cell_volume   585.39547303
_cell_formula_units_Z   1
loop_
 _symmetry_equiv_pos_site_id
 _symmetry_equiv_pos_as_xyz
  1  'x, y, z'
loop_
 _atom_site_type_symbol
 _atom_site_label
 _atom_site_symmetry_multiplicity
 _atom_site_fract_x
 _atom_site_fract_y
 _atom_site_fract_z
 _atom_site_occupancy
  Ni  Ni0  1  0.00100317  0.00391197  0.99913513  1
  Ni  Ni1  1  0.16830437  0.16753833  0.16691013  1
  Ni  Ni2  1  0.00174802  0.00278725  0.33541792  1
  Ni  Ni3  1  0.00123317  0.33265199  0.00148939  1
  Ni  Ni4  1  0.16811752  0.49868466  0.16989449  1
  Ni  Ni5  1  1.00057006  0.33419065  0.33366939  1
  Cr  Cr6  1  1.00043026  0.66464744  0.00166446  1
  Ni  Ni7  1  0.16806539  0.83668859  0.16839872  1
  Ni  Ni8  1  0.00195694  0.66590298  0.33497851  1
  Ni  Ni9  1  0.33505503  0.00301526  0.00105199  1
  Ni  Ni10  1  0.50036263  0.16815161  0.16750019  1
  Ni  Ni11  1  0.33431731  0.00135672  0.33408427  1
  Ni  Ni12  1  0.33346764  0.33295221  0.00110003  1
  Ni  Ni13  1  0.50155842  0.49834040  0.16771510  1
  Ni  Ni14  1  0.33447871  0.33460212  0.33438239  1
  Cr  Cr15  1  0.33642675  0.66550369  0.00254474  1
  Fe  Fe16  1  0.50082991  0.83522121  0.16876588  1
  Ni  Ni17  1  0.33435884  0.66690477  0.33369023  1
  Ni  Ni18  1  0.66699588  0.00171971  1.00017726  1
  Ni  Ni19  1  0.83396710  0.16824320  0.16660120  1
  Ni  Ni20  1  0.66683284  0.00274091  0.33610925  1
  Fe  Fe21  1  0.66703324  0.33449456  0.00126036  1
  Ni  Ni22  1  0.83302495  0.49907147  0.16809491  1
  Ni  Ni23  1  0.66785424  0.33435980  0.33376111  1
  Ni  Ni24  1  0.66704679  0.66714015  1.00028587  1
  Cr  Cr25  1  0.83427003  0.83521312  0.16973160  1
  Ni  Ni26  1  0.66646574  0.66556978  0.33507259  1
  Ni  Ni27  1  0.16809110  0.16962353  0.49970044  1
  Cr  Cr28  1  1.00020361  0.00194483  0.66750554  1
  Fe  Fe29  1  0.16823963  0.17030438  0.83525689  1
  Ni  Ni30  1  0.16788752  0.50074807  0.50123874  1
  Ni  Ni31  1  1.00060301  0.33651383  0.66718165  1
  Ni  Ni32  1  0.16748440  0.49804122  0.83238329  1
  Ni  Ni33  1  0.16731885  0.83265905  0.50011298  1
  Ni  Ni34  1  1.00073585  0.66571003  0.66781275  1
  Fe  Fe35  1  0.16899053  0.83214539  0.83466460  1
  Ni  Ni36  1  0.50045626  0.17034963  0.49934817  1
  Cr  Cr37  1  0.33547746  0.00129063  0.66681036  1
  Ni  Ni38  1  0.49975860  0.16918141  0.83571368  1
  Ni  Ni39  1  0.50075760  0.50033755  0.50239263  1
  Ni  Ni40  1  0.33440961  0.33602642  0.66732595  1
  Ni  Ni41  1  0.50105504  0.49950105  0.83334934  1
  Ni  Ni42  1  0.50080114  0.83238102  0.49850523  1
  Ni  Ni43  1  0.33507391  0.66576044  0.66804874  1
  Ni  Ni44  1  0.50330920  0.83458613  0.83592282  1
  Ni  Ni45  1  0.83435436  0.16977428  0.49948312  1
  Cr  Cr46  1  0.66722639  0.00163638  0.66492044  1
  Fe  Fe47  1  0.83220658  0.17063779  0.83534836  1
  Ni  Ni48  1  0.83425981  0.50111560  0.50133010  1
  Ni  Ni49  1  0.66757724  0.33631109  0.66805858  1
  Ni  Ni50  1  0.83420494  0.50161484  0.83395145  1
  Ni  Ni51  1  0.83475177  0.83227127  0.49942140  1
  Ni  Ni52  1  0.66744474  0.66627875  0.66807039  1
  Ni  Ni53  1  0.83366127  0.83376619  0.83477056  1
" 