6798,Ni79Fe9Cr10_1,-236.957090844456, 181.217987635694,Ni79Fe9Cr10,"# generated using pymatgen
 data_Cr6Fe5Ni43
_symmetry_space_group_name_H-M   'P 1'
_cell_length_a   7.45123630
_cell_length_b   7.45123630
_cell_length_c   10.53763943
_cell_angle_alpha   90.00000000
_cell_angle_beta   90.00000000
_cell_angle_gamma   90.00000000
_symmetry_Int_Tables_number   1
_chemical_formula_structural   Cr6Fe5Ni43
_chemical_formula_sum   'Cr6 Fe5 Ni43'
_cell_volume   585.05946167
_cell_formula_units_Z   1
loop_
 _symmetry_equiv_pos_site_id
 _symmetry_equiv_pos_as_xyz
  1  'x, y, z'
loop_
 _atom_site_type_symbol
 _atom_site_label
 _atom_site_symmetry_multiplicity
 _atom_site_fract_x
 _atom_site_fract_y
 _atom_site_fract_z
 _atom_site_occupancy
  Ni  Ni0  1  0.00115577  0.99866250  0.00127406  1
  Ni  Ni1  1  0.16913113  0.16818284  0.16805006  1
  Cr  Cr2  1  0.00148966  0.00209531  0.33180463  1
  Cr  Cr3  1  1.00105019  0.33437318  0.00144785  1
  Ni  Ni4  1  0.16954349  0.50049108  0.16829710  1
  Ni  Ni5  1  1.00105605  0.33459319  0.33464920  1
  Ni  Ni6  1  0.00145322  0.66898960  1.00065235  1
  Ni  Ni7  1  0.16991338  0.83450553  0.16687992  1
  Cr  Cr8  1  0.00170703  0.66700777  0.33448450  1
  Ni  Ni9  1  0.33402343  0.00200974  0.00181737  1
  Ni  Ni10  1  0.50120029  0.16756725  0.16883102  1
  Ni  Ni11  1  0.33641116  0.00147114  0.33465320  1
  Ni  Ni12  1  0.33614126  0.33326849  0.00188924  1
  Ni  Ni13  1  0.50056406  0.50133720  0.16781858  1
  Ni  Ni14  1  0.33473310  0.33455008  0.33343091  1
  Ni  Ni15  1  0.33055510  0.66778835  0.00288570  1
  Ni  Ni16  1  0.50111010  0.83439336  0.16829361  1
  Ni  Ni17  1  0.33600802  0.66742779  0.33496922  1
  Ni  Ni18  1  0.66831779  0.00379844  0.00156359  1
  Ni  Ni19  1  0.83312406  0.16767670  0.16848008  1
  Ni  Ni20  1  0.66645200  0.00134953  0.33499494  1
  Ni  Ni21  1  0.66706614  0.33265017  0.00146498  1
  Ni  Ni22  1  0.83294817  0.50061636  0.16919110  1
  Ni  Ni23  1  0.66720764  0.33425818  0.33477989  1
  Fe  Fe24  1  0.66895275  0.66763984  0.00304500  1
  Ni  Ni25  1  0.83226552  0.83486650  0.16562881  1
  Ni  Ni26  1  0.66634633  0.66766995  0.33379091  1
  Ni  Ni27  1  0.16713973  0.16970688  0.50121942  1
  Ni  Ni28  1  1.00104357  0.99991824  0.66849049  1
  Ni  Ni29  1  0.16820363  0.16694029  0.83375937  1
  Ni  Ni30  1  0.16999366  0.49862398  0.50209372  1
  Fe  Fe31  1  0.00191172  0.33330917  0.66742969  1
  Ni  Ni32  1  0.16718979  0.50130426  0.83308380  1
  Fe  Fe33  1  0.16874399  0.83527813  0.50220674  1
  Ni  Ni34  1  0.00264768  0.66826536  0.66761426  1
  Ni  Ni35  1  0.16633237  0.83446876  0.83311390  1
  Fe  Fe36  1  0.50072401  0.16813308  0.50092553  1
  Ni  Ni37  1  0.33327415  0.00257018  0.66651378  1
  Ni  Ni38  1  0.50122819  0.16777678  0.83304405  1
  Ni  Ni39  1  0.49890174  0.50153958  0.49980517  1
  Ni  Ni40  1  0.33488728  0.33358222  0.66799043  1
  Cr  Cr41  1  0.49922090  0.49952054  0.83660373  1
  Ni  Ni42  1  0.50127033  0.83399701  0.50006541  1
  Ni  Ni43  1  0.33081615  0.66743934  0.66572841  1
  Cr  Cr44  1  0.50008476  0.83672437  0.83582364  1
  Ni  Ni45  1  0.83525427  0.16702866  0.50152088  1
  Ni  Ni46  1  0.66861465  0.00385437  0.66693511  1
  Ni  Ni47  1  0.83424635  0.16645140  0.83305511  1
  Fe  Fe48  1  0.83408712  0.49953581  0.50062411  1
  Ni  Ni49  1  0.66764688  0.33194701  0.66695085  1
  Ni  Ni50  1  0.83630810  0.50036506  0.83302364  1
  Ni  Ni51  1  0.83199667  0.83679377  0.50191852  1
  Cr  Cr52  1  0.66889081  0.66718927  0.66717669  1
  Ni  Ni53  1  0.83670784  0.83578963  0.83550894  1
" 