7054,Ni79Fe9Cr10_11,-237.045414496009, 179.852522944523,Ni79Fe9Cr10,"# generated using pymatgen
 data_Cr6Fe5Ni43
_symmetry_space_group_name_H-M   'P 1'
_cell_length_a   7.45398441
_cell_length_b   7.45398441
_cell_length_c   10.54152584
_cell_angle_alpha   90.00000000
_cell_angle_beta   90.00000000
_cell_angle_gamma   90.00000000
_symmetry_Int_Tables_number   1
_chemical_formula_structural   Cr6Fe5Ni43
_chemical_formula_sum   'Cr6 Fe5 Ni43'
_cell_volume   585.70703127
_cell_formula_units_Z   1
loop_
 _symmetry_equiv_pos_site_id
 _symmetry_equiv_pos_as_xyz
  1  'x, y, z'
loop_
 _atom_site_type_symbol
 _atom_site_label
 _atom_site_symmetry_multiplicity
 _atom_site_fract_x
 _atom_site_fract_y
 _atom_site_fract_z
 _atom_site_occupancy
  Ni  Ni0  1  1.00042066  0.00227093  0.00222531  1
  Ni  Ni1  1  0.16742295  0.16746856  0.16674408  1
  Ni  Ni2  1  0.00161403  0.00240367  0.33479689  1
  Ni  Ni3  1  1.00067084  0.33367782  0.00120427  1
  Cr  Cr4  1  0.16666129  0.49926816  0.16804670  1
  Ni  Ni5  1  0.99892526  0.33279239  0.33476181  1
  Ni  Ni6  1  0.99635281  0.66659604  0.99977498  1
  Cr  Cr7  1  0.16520501  0.83615419  0.16836553  1
  Ni  Ni8  1  0.99934564  0.66742927  0.33633118  1
  Ni  Ni9  1  0.33475574  0.00513991  0.99980699  1
  Ni  Ni10  1  0.50092088  0.16953165  0.16671031  1
  Ni  Ni11  1  0.33324551  0.00173744  0.33570530  1
  Ni  Ni12  1  0.33501941  0.33130835  1.00012441  1
  Ni  Ni13  1  0.50372123  0.49811655  0.16826055  1
  Fe  Fe14  1  0.33448506  0.33373840  0.33456601  1
  Cr  Cr15  1  0.33682279  0.66642907  0.99962461  1
  Cr  Cr16  1  0.50271725  0.83456105  0.16791902  1
  Ni  Ni17  1  0.33568810  0.66786811  0.33699456  1
  Ni  Ni18  1  0.66744646  0.00088719  0.00106473  1
  Ni  Ni19  1  0.83431532  0.16800463  0.16732593  1
  Fe  Fe20  1  0.66915973  0.00122901  0.33515045  1
  Ni  Ni21  1  0.66694509  0.33540768  0.00190236  1
  Ni  Ni22  1  0.83255138  0.50070716  0.16701472  1
  Ni  Ni23  1  0.66831371  0.33516435  0.33400522  1
  Ni  Ni24  1  0.66988114  0.66632433  1.00009427  1
  Ni  Ni25  1  0.83461383  0.83388085  0.16657310  1
  Ni  Ni26  1  0.66762442  0.66521382  0.33461134  1
  Ni  Ni27  1  0.16734997  0.16728030  0.50080854  1
  Ni  Ni28  1  0.00168364  0.00234338  0.66557308  1
  Ni  Ni29  1  0.16926941  0.16864935  0.83503107  1
  Ni  Ni30  1  0.16745526  0.50122998  0.50154483  1
  Ni  Ni31  1  0.00102217  0.33416501  0.66664564  1
  Fe  Fe32  1  0.16691689  0.49857114  0.83336395  1
  Ni  Ni33  1  0.16777489  0.83412795  0.50037552  1
  Fe  Fe34  1  0.99898249  0.66765129  0.66640565  1
  Cr  Cr35  1  0.16645273  0.83599404  0.83419615  1
  Ni  Ni36  1  0.50095654  0.16756319  0.50114541  1
  Ni  Ni37  1  0.33452180  1.00043096  0.66719480  1
  Ni  Ni38  1  0.49890025  0.16785303  0.83471064  1
  Ni  Ni39  1  0.50089341  0.50107516  0.50036175  1
  Fe  Fe40  1  0.33514373  0.33332800  0.66785503  1
  Ni  Ni41  1  0.50238468  0.50009103  0.83397380  1
  Ni  Ni42  1  0.50034090  0.83393504  0.50129308  1
  Ni  Ni43  1  0.33604899  0.66766214  0.66623033  1
  Ni  Ni44  1  0.50277514  0.83459212  0.83350570  1
  Ni  Ni45  1  0.83441595  0.16788120  0.50095666  1
  Ni  Ni46  1  0.66641129  0.99998018  0.66620114  1
  Cr  Cr47  1  0.83392744  0.16768822  0.83399773  1
  Ni  Ni48  1  0.83421123  0.50064482  0.50081354  1
  Ni  Ni49  1  0.66793089  0.33566521  0.66669001  1
  Ni  Ni50  1  0.83348314  0.50243872  0.83478254  1
  Ni  Ni51  1  0.83452245  0.83413255  0.50108790  1
  Ni  Ni52  1  0.66602516  0.66695960  0.66794625  1
  Ni  Ni53  1  0.83267189  0.83207365  0.83492250  1
" 