6868,Ni79Fe5Cr15_5,-232.630601662094, 161.1238350576,Ni79Fe5Cr15,"# generated using pymatgen
 data_Cr5FeNi21
_symmetry_space_group_name_H-M   'P 1'
_cell_length_a   7.47032551
_cell_length_b   7.47032551
_cell_length_c   10.56463566
_cell_angle_alpha   90.00000000
_cell_angle_beta   90.00000000
_cell_angle_gamma   90.00000000
_symmetry_Int_Tables_number   1
_chemical_formula_structural   Cr5FeNi21
_chemical_formula_sum   'Cr10 Fe2 Ni42'
_cell_volume   589.56755684
_cell_formula_units_Z   2
loop_
 _symmetry_equiv_pos_site_id
 _symmetry_equiv_pos_as_xyz
  1  'x, y, z'
loop_
 _atom_site_type_symbol
 _atom_site_label
 _atom_site_symmetry_multiplicity
 _atom_site_fract_x
 _atom_site_fract_y
 _atom_site_fract_z
 _atom_site_occupancy
  Ni  Ni0  1  -0.00011764  0.00001207  0.99802844  1
  Ni  Ni1  1  0.16820969  0.16656390  0.16619151  1
  Cr  Cr2  1  0.00182050  0.99897198  0.33167424  1
  Ni  Ni3  1  0.99963262  0.33280735  0.99839205  1
  Cr  Cr4  1  0.16659319  0.49973466  0.16634092  1
  Ni  Ni5  1  0.99971893  0.33585459  0.33294091  1
  Ni  Ni6  1  0.99963325  0.66652249  0.99862349  1
  Ni  Ni7  1  0.16803843  0.83329031  0.16672922  1
  Ni  Ni8  1  0.00075408  0.66451182  0.33397901  1
  Cr  Cr9  1  0.33209251  0.99897374  0.00149931  1
  Ni  Ni10  1  0.49880769  0.16750791  0.16801800  1
  Fe  Fe11  1  0.33560911  0.99891675  0.33256244  1
  Ni  Ni12  1  0.33224536  0.33376166  0.00086796  1
  Ni  Ni13  1  0.50108502  0.49948931  0.16627406  1
  Ni  Ni14  1  0.33496022  0.33308796  0.33276992  1
  Ni  Ni15  1  0.33328124  0.66660339  -0.00016850  1
  Ni  Ni16  1  0.49897940  0.83234433  0.16748021  1
  Ni  Ni17  1  0.33392530  0.66727705  0.33380520  1
  Ni  Ni18  1  0.66738160  0.99897723  0.99896575  1
  Cr  Cr19  1  0.83265048  0.16828855  0.16578913  1
  Ni  Ni20  1  0.66189413  0.00001081  0.33311486  1
  Ni  Ni21  1  0.66746344  0.33401042  0.00132245  1
  Ni  Ni22  1  0.83138017  0.49965967  0.16690412  1
  Ni  Ni23  1  0.66466401  0.33434172  0.33303921  1
  Ni  Ni24  1  0.66642739  0.66635392  0.00028634  1
  Cr  Cr25  1  0.83264958  0.83092684  0.16578848  1
  Ni  Ni26  1  0.66466436  0.66498892  0.33280868  1
  Cr  Cr27  1  0.16833843  0.16698290  0.50053796  1
  Ni  Ni28  1  0.00079371  0.99920622  0.66948318  1
  Ni  Ni29  1  0.16320342  0.16721173  0.83269019  1
  Fe  Fe30  1  0.16713683  0.50150334  0.50006072  1
  Ni  Ni31  1  0.99971363  0.33411110  0.66800908  1
  Ni  Ni32  1  0.16458134  0.49968319  0.83253485  1
  Ni  Ni33  1  0.16883879  0.83080879  0.50028908  1
  Ni  Ni34  1  0.00074821  0.66602489  0.66673895  1
  Ni  Ni35  1  0.16479660  0.83244750  0.83232431  1
  Ni  Ni36  1  0.49953710  0.16713041  0.49939793  1
  Ni  Ni37  1  0.33312491  0.99817347  0.66541629  1
  Cr  Cr38  1  0.50048106  0.16630608  0.83176918  1
  Ni  Ni39  1  0.50018930  0.49968301  0.49953851  1
  Ni  Ni40  1  0.33235958  0.33330263  0.66570290  1
  Cr  Cr41  1  0.49902350  0.50122266  0.83391467  1
  Ni  Ni42  1  0.49794836  0.83252838  0.49976421  1
  Ni  Ni43  1  0.33236076  0.66786646  0.66570466  1
  Ni  Ni44  1  0.50083117  0.83221804  0.83209784  1
  Cr  Cr45  1  0.83107025  0.16841646  0.50076001  1
  Ni  Ni46  1  0.66542370  0.99920618  0.66726084  1
  Ni  Ni47  1  0.83547834  0.16589227  0.83296038  1
  Ni  Ni48  1  0.83250995  0.49985737  0.49914025  1
  Ni  Ni49  1  0.66726755  0.33334609  0.66498129  1
  Ni  Ni50  1  0.83524703  0.49985466  0.83329774  1
  Cr  Cr51  1  0.83275680  0.83099528  0.50037076  1
  Ni  Ni52  1  0.66623353  0.66678936  0.66624750  1
  Ni  Ni53  1  0.83371476  0.83359485  0.83313192  1
" 