6867,Ni79Fe19Cr1_2,-241.061959020432, 201.754841306383,Ni79Fe19Cr1,"# generated using pymatgen
 data_CrFe5Ni21
_symmetry_space_group_name_H-M   'P 1'
_cell_length_a   7.42740249
_cell_length_b   7.42740249
_cell_length_c   10.50393333
_cell_angle_alpha   90.00000000
_cell_angle_beta   90.00000000
_cell_angle_gamma   90.00000000
_symmetry_Int_Tables_number   1
_chemical_formula_structural   CrFe5Ni21
_chemical_formula_sum   'Cr2 Fe10 Ni42'
_cell_volume   579.46321859
_cell_formula_units_Z   2
loop_
 _symmetry_equiv_pos_site_id
 _symmetry_equiv_pos_as_xyz
  1  'x, y, z'
loop_
 _atom_site_type_symbol
 _atom_site_label
 _atom_site_symmetry_multiplicity
 _atom_site_fract_x
 _atom_site_fract_y
 _atom_site_fract_z
 _atom_site_occupancy
  Fe  Fe0  1  0.00301459  0.00306606  1.00215666  1
  Ni  Ni1  1  0.17006400  0.16890899  0.16914665  1
  Fe  Fe2  1  0.00346679  0.00305485  0.33666405  1
  Ni  Ni3  1  1.00155912  0.33694533  0.00289859  1
  Ni  Ni4  1  0.17032656  0.50281549  0.16942135  1
  Ni  Ni5  1  1.00218721  0.33591228  0.33516822  1
  Ni  Ni6  1  0.00289363  0.66900918  1.00256053  1
  Ni  Ni7  1  0.16949186  0.83628547  0.16963982  1
  Ni  Ni8  1  0.00351531  0.67035024  0.33582206  1
  Ni  Ni9  1  0.33698084  1.00210009  0.00293595  1
  Ni  Ni10  1  0.50253077  0.16998777  0.16960360  1
  Ni  Ni11  1  0.33566856  0.00284338  0.33495228  1
  Ni  Ni12  1  0.33627286  0.33563871  0.00321455  1
  Ni  Ni13  1  0.50270377  0.50217820  0.16985785  1
  Ni  Ni14  1  0.33678198  0.33569100  0.33625790  1
  Ni  Ni15  1  0.33489080  0.67026892  0.00289717  1
  Fe  Fe16  1  0.50196710  0.83646298  0.16927652  1
  Ni  Ni17  1  0.33435608  0.66947320  0.33551959  1
  Ni  Ni18  1  0.66891526  0.00343398  1.00265841  1
  Ni  Ni19  1  0.83541558  0.16915344  0.16932566  1
  Fe  Fe20  1  0.67038758  0.00399715  0.33458552  1
  Ni  Ni21  1  0.67017490  0.33485383  0.00293623  1
  Ni  Ni22  1  0.83497175  0.50274590  0.16898192  1
  Ni  Ni23  1  0.66903807  0.33460054  0.33517226  1
  Fe  Fe24  1  0.66928769  0.66851994  1.00215638  1
  Ni  Ni25  1  0.83605269  0.83610726  0.16982236  1
  Fe  Fe26  1  0.66905602  0.66822654  0.33496348  1
  Ni  Ni27  1  0.16919624  0.16906824  0.50270145  1
  Ni  Ni28  1  1.00263794  1.00190931  0.66881431  1
  Ni  Ni29  1  0.16939669  0.16881934  0.83615715  1
  Ni  Ni30  1  0.17211178  0.50229310  0.50299892  1
  Ni  Ni31  1  1.00239068  0.33517290  0.66994051  1
  Ni  Ni32  1  0.17048049  0.50266199  0.83558566  1
  Ni  Ni33  1  0.16835533  0.83664948  0.50303578  1
  Ni  Ni34  1  0.00294748  0.67092468  0.66962381  1
  Ni  Ni35  1  0.16960975  0.83652640  0.83532887  1
  Fe  Fe36  1  0.50198115  0.17118115  0.50209826  1
  Ni  Ni37  1  0.33479569  0.00295981  0.67011989  1
  Fe  Fe38  1  0.50248674  0.16985091  0.83679151  1
  Ni  Ni39  1  0.50074456  0.50141375  0.50269857  1
  Ni  Ni40  1  0.33669606  0.33577616  0.66853545  1
  Ni  Ni41  1  0.50278850  0.50284187  0.83545013  1
  Cr  Cr42  1  0.50218782  0.83456995  0.50285181  1
  Ni  Ni43  1  0.33508792  0.66927172  0.66958852  1
  Fe  Fe44  1  0.50219476  0.83564928  0.83582781  1
  Ni  Ni45  1  0.83648541  0.16751989  0.50275821  1
  Fe  Fe46  1  0.67114132  0.00324759  0.67040359  1
  Ni  Ni47  1  0.83603306  0.16906605  0.83591922  1
  Cr  Cr48  1  0.83555311  0.50245248  0.50326765  1
  Ni  Ni49  1  0.66892061  0.33546445  0.66989936  1
  Ni  Ni50  1  0.83473540  0.50262619  0.83599101  1
  Ni  Ni51  1  0.83736274  0.83823098  0.50306699  1
  Ni  Ni52  1  0.66997158  0.66902542  0.67095220  1
  Ni  Ni53  1  0.83585325  0.83631367  0.83511522  1
" 