6325,Ni79Fe19Cr1_7,-241.020248282802, 202.914933186411,Ni79Fe19Cr1,"# generated using pymatgen
 data_CrFe5Ni21
_symmetry_space_group_name_H-M   'P 1'
_cell_length_a   7.42803578
_cell_length_b   7.42803578
_cell_length_c   10.50482895
_cell_angle_alpha   90.00000000
_cell_angle_beta   90.00000000
_cell_angle_gamma   90.00000000
_symmetry_Int_Tables_number   1
_chemical_formula_structural   CrFe5Ni21
_chemical_formula_sum   'Cr2 Fe10 Ni42'
_cell_volume   579.61145412
_cell_formula_units_Z   2
loop_
 _symmetry_equiv_pos_site_id
 _symmetry_equiv_pos_as_xyz
  1  'x, y, z'
loop_
 _atom_site_type_symbol
 _atom_site_label
 _atom_site_symmetry_multiplicity
 _atom_site_fract_x
 _atom_site_fract_y
 _atom_site_fract_z
 _atom_site_occupancy
  Fe  Fe0  1  0.00297025  1.00156994  1.00252408  1
  Ni  Ni1  1  0.17152931  0.16876576  0.16838514  1
  Ni  Ni2  1  0.00277915  0.99992724  0.33685557  1
  Fe  Fe3  1  0.00280077  0.33703152  1.00158670  1
  Ni  Ni4  1  0.17063678  0.50320774  0.16862645  1
  Cr  Cr5  1  0.00437435  0.33703788  0.33631729  1
  Ni  Ni6  1  1.00191177  0.66920956  0.00303053  1
  Ni  Ni7  1  0.16977711  0.83590367  0.16997188  1
  Ni  Ni8  1  0.00274469  0.67148951  0.33619612  1
  Ni  Ni9  1  0.33639476  0.00405509  0.00275439  1
  Fe  Fe10  1  0.50089318  0.16966169  0.16896064  1
  Fe  Fe11  1  0.33595257  1.00212310  0.33565665  1
  Ni  Ni12  1  0.33561792  0.33468564  0.00297163  1
  Ni  Ni13  1  0.50241773  0.50285030  0.16984523  1
  Ni  Ni14  1  0.33708616  0.33586775  0.33569410  1
  Fe  Fe15  1  0.33689103  0.66940764  1.00261912  1
  Ni  Ni16  1  0.50244958  0.83543376  0.16906034  1
  Ni  Ni17  1  0.33548909  0.66881593  0.33543048  1
  Ni  Ni18  1  0.66800492  1.00164063  1.00189660  1
  Cr  Cr19  1  0.83502313  0.16883820  0.16896668  1
  Ni  Ni20  1  0.66904748  1.00151850  0.33627291  1
  Ni  Ni21  1  0.66793022  0.33625542  1.00134503  1
  Ni  Ni22  1  0.83482392  0.50460394  0.16837289  1
  Ni  Ni23  1  0.66637835  0.33590868  0.33728328  1
  Ni  Ni24  1  0.67092723  0.66998249  0.00269416  1
  Ni  Ni25  1  0.83565342  0.83454051  0.16969511  1
  Ni  Ni26  1  0.66964303  0.67045250  0.33565915  1
  Ni  Ni27  1  0.17015779  0.16910469  0.50354692  1
  Fe  Fe28  1  1.00242616  1.00205133  0.66851608  1
  Fe  Fe29  1  0.16980441  0.16982411  0.83609684  1
  Ni  Ni30  1  0.16963017  0.50329255  0.50303534  1
  Ni  Ni31  1  0.00406448  0.33625174  0.66976918  1
  Ni  Ni32  1  0.16946934  0.50303570  0.83621643  1
  Ni  Ni33  1  0.16956318  0.83547411  0.50195401  1
  Ni  Ni34  1  0.00275160  0.66867023  0.66865026  1
  Ni  Ni35  1  0.16975019  0.83519252  0.83595397  1
  Ni  Ni36  1  0.50302587  0.16905346  0.50147660  1
  Fe  Fe37  1  0.33622380  1.00186574  0.66958010  1
  Ni  Ni38  1  0.50357147  0.16928816  0.83678156  1
  Fe  Fe39  1  0.50226378  0.50274478  0.50226220  1
  Ni  Ni40  1  0.33445680  0.33592447  0.66920864  1
  Ni  Ni41  1  0.50228724  0.50224789  0.83551816  1
  Ni  Ni42  1  0.50256646  0.83658701  0.50275396  1
  Ni  Ni43  1  0.33541517  0.66864368  0.67023134  1
  Ni  Ni44  1  0.50236658  0.83634272  0.83606493  1
  Ni  Ni45  1  0.83469479  0.16898716  0.50341332  1
  Ni  Ni46  1  0.66938499  1.00199626  0.66970649  1
  Ni  Ni47  1  0.83497382  0.16956781  0.83561188  1
  Ni  Ni48  1  0.83580164  0.50283291  0.50306064  1
  Fe  Fe49  1  0.66965848  0.33658974  0.66957000  1
  Ni  Ni50  1  0.83612301  0.50183292  0.83644497  1
  Ni  Ni51  1  0.83574820  0.83605949  0.50195950  1
  Ni  Ni52  1  0.66971136  0.67107832  0.66952408  1
  Ni  Ni53  1  0.83576453  0.83647914  0.83622371  1
" 