710,Ni79Fe19Cr1_11,-241.105942627704, 204.059032395539,Ni79Fe19Cr1,"# generated using pymatgen
 data_CrFe5Ni21
_symmetry_space_group_name_H-M   'P 1'
_cell_length_a   7.42554810
_cell_length_b   7.42554810
_cell_length_c   10.50131083
_cell_angle_alpha   90.00000000
_cell_angle_beta   90.00000000
_cell_angle_gamma   90.00000000
_symmetry_Int_Tables_number   1
_chemical_formula_structural   CrFe5Ni21
_chemical_formula_sum   'Cr2 Fe10 Ni42'
_cell_volume   579.02930531
_cell_formula_units_Z   2
loop_
 _symmetry_equiv_pos_site_id
 _symmetry_equiv_pos_as_xyz
  1  'x, y, z'
loop_
 _atom_site_type_symbol
 _atom_site_label
 _atom_site_symmetry_multiplicity
 _atom_site_fract_x
 _atom_site_fract_y
 _atom_site_fract_z
 _atom_site_occupancy
  Ni  Ni0  1  1.00209210  1.00230154  1.00264073  1
  Ni  Ni1  1  0.16992690  0.16950293  0.16967159  1
  Ni  Ni2  1  1.00260411  1.00155723  0.33656234  1
  Ni  Ni3  1  0.00451114  0.33523184  1.00277715  1
  Ni  Ni4  1  0.17077750  0.50195871  0.16932909  1
  Fe  Fe5  1  0.00302680  0.33493419  0.33687174  1
  Ni  Ni6  1  0.00416128  0.67084577  1.00194733  1
  Ni  Ni7  1  0.16879437  0.83691933  0.16861648  1
  Ni  Ni8  1  0.00310310  0.67120968  0.33663553  1
  Fe  Fe9  1  0.33590958  1.00262159  0.00294435  1
  Ni  Ni10  1  0.50217489  0.16983031  0.16900383  1
  Ni  Ni11  1  0.33615372  0.00372830  0.33581090  1
  Ni  Ni12  1  0.33589946  0.33683149  0.00281457  1
  Ni  Ni13  1  0.50162334  0.50192395  0.16942686  1
  Ni  Ni14  1  0.33674311  0.33559338  0.33607366  1
  Ni  Ni15  1  0.33565953  0.66865165  0.00355410  1
  Ni  Ni16  1  0.50328157  0.83663106  0.16952095  1
  Fe  Fe17  1  0.33675680  0.67013882  0.33580825  1
  Ni  Ni18  1  0.67016711  1.00253295  0.00382794  1
  Fe  Fe19  1  0.83589555  0.16739437  0.16957667  1
  Ni  Ni20  1  0.66962765  1.00266832  0.33578899  1
  Ni  Ni21  1  0.66797150  0.33477279  1.00181278  1
  Cr  Cr22  1  0.83569459  0.50335105  0.16875425  1
  Ni  Ni23  1  0.66747786  0.33509210  0.33719965  1
  Ni  Ni24  1  0.66856629  0.67107006  1.00178809  1
  Ni  Ni25  1  0.83631002  0.83747453  0.16974099  1
  Ni  Ni26  1  0.66965466  0.67061864  0.33723465  1
  Fe  Fe27  1  0.16993794  0.16891279  0.50287332  1
  Fe  Fe28  1  0.00467525  1.00244704  0.66951282  1
  Ni  Ni29  1  0.16902832  0.16980180  0.83547604  1
  Fe  Fe30  1  0.16927377  0.50327039  0.50328954  1
  Ni  Ni31  1  0.00336780  0.33693135  0.66896959  1
  Ni  Ni32  1  0.16961893  0.50176284  0.83623163  1
  Ni  Ni33  1  0.16901902  0.83681254  0.50352642  1
  Ni  Ni34  1  0.00309596  0.66916494  0.66980536  1
  Ni  Ni35  1  0.16877148  0.83682128  0.83624313  1
  Ni  Ni36  1  0.50237590  0.17098712  0.50264105  1
  Ni  Ni37  1  0.33483542  0.00284760  0.66972975  1
  Fe  Fe38  1  0.50116195  0.17008262  0.83675629  1
  Ni  Ni39  1  0.50400487  0.50192520  0.50284053  1
  Ni  Ni40  1  0.33572049  0.33591479  0.66949535  1
  Ni  Ni41  1  0.50321015  0.50254037  0.83611492  1
  Ni  Ni42  1  0.50190688  0.83547172  0.50211910  1
  Ni  Ni43  1  0.33543635  0.66961958  0.66879126  1
  Ni  Ni44  1  0.50271623  0.83469842  0.83674030  1
  Ni  Ni45  1  0.83663998  0.17092967  0.50159191  1
  Cr  Cr46  1  0.66874077  1.00219017  0.66848543  1
  Fe  Fe47  1  0.83734058  0.17017272  0.83689792  1
  Ni  Ni48  1  0.83530327  0.50228124  0.50392947  1
  Ni  Ni49  1  0.66930209  0.33752361  0.66936959  1
  Fe  Fe50  1  0.83663569  0.50365988  0.83572278  1
  Ni  Ni51  1  0.83745999  0.83517134  0.50190370  1
  Ni  Ni52  1  0.66985803  0.66828280  0.66936352  1
  Ni  Ni53  1  0.83689455  0.83528577  0.83674198  1
" 