8370,Ni79Fe5Cr15_7,-232.915657747449, 164.987731306017,Ni79Fe5Cr15,"# generated using pymatgen
 data_Cr5FeNi21
_symmetry_space_group_name_H-M   'P 1'
_cell_length_a   7.46745532
_cell_length_b   7.46745532
_cell_length_c   10.56057658
_cell_angle_alpha   90.00000000
_cell_angle_beta   90.00000000
_cell_angle_gamma   90.00000000
_symmetry_Int_Tables_number   1
_chemical_formula_structural   Cr5FeNi21
_chemical_formula_sum   'Cr10 Fe2 Ni42'
_cell_volume   588.88825882
_cell_formula_units_Z   2
loop_
 _symmetry_equiv_pos_site_id
 _symmetry_equiv_pos_as_xyz
  1  'x, y, z'
loop_
 _atom_site_type_symbol
 _atom_site_label
 _atom_site_symmetry_multiplicity
 _atom_site_fract_x
 _atom_site_fract_y
 _atom_site_fract_z
 _atom_site_occupancy
  Ni  Ni0  1  0.99965635  0.99728872  0.00012782  1
  Cr  Cr1  1  0.16854798  0.16442711  0.16598151  1
  Ni  Ni2  1  0.99765375  0.99738612  0.33317031  1
  Cr  Cr3  1  0.00001598  0.33490535  0.99900422  1
  Ni  Ni4  1  0.16439592  0.50199070  0.16676151  1
  Cr  Cr5  1  0.99875537  0.33501430  0.33381767  1
  Ni  Ni6  1  0.99825931  0.66775454  0.00082277  1
  Ni  Ni7  1  0.16494525  0.83366849  0.16688238  1
  Ni  Ni8  1  0.99830217  0.66747467  0.33273796  1
  Ni  Ni9  1  0.33389475  0.00005601  0.00039755  1
  Ni  Ni10  1  0.50178329  0.16468580  0.16672794  1
  Ni  Ni11  1  0.33586524  0.00015546  0.33289175  1
  Ni  Ni12  1  0.33416716  0.33246786  0.99914711  1
  Cr  Cr13  1  0.50180937  0.49865528  0.16627644  1
  Ni  Ni14  1  0.33528672  0.33261272  0.33391903  1
  Cr  Cr15  1  0.33243222  0.66769851  0.99901275  1
  Ni  Ni16  1  0.50120037  0.83680658  0.16636812  1
  Cr  Cr17  1  0.33230196  0.66756219  0.33446534  1
  Ni  Ni18  1  0.66635116  0.99862459  0.00187168  1
  Ni  Ni19  1  0.83007864  0.16532446  0.16670481  1
  Ni  Ni20  1  0.66630677  0.99997250  0.33335132  1
  Ni  Ni21  1  0.66613240  0.33380522  0.00197508  1
  Ni  Ni22  1  0.83325276  0.50153603  0.16632162  1
  Fe  Fe23  1  0.66630814  0.33204555  0.33385769  1
  Ni  Ni24  1  0.66882193  0.66746338  0.99859919  1
  Fe  Fe25  1  0.83318274  0.83318962  0.16667425  1
  Ni  Ni26  1  0.66879579  0.66811755  0.33423868  1
  Cr  Cr27  1  0.16733567  0.16520078  0.50162598  1
  Ni  Ni28  1  0.99983177  0.99871144  0.66661707  1
  Ni  Ni29  1  0.16757346  0.16561658  0.83269626  1
  Ni  Ni30  1  0.16657627  0.50156562  0.50132625  1
  Ni  Ni31  1  0.00180852  0.33496232  0.66687241  1
  Ni  Ni32  1  0.16659161  0.50003077  0.83180170  1
  Ni  Ni33  1  0.16552980  0.83258888  0.50034124  1
  Ni  Ni34  1  0.00024679  0.66622806  0.66637501  1
  Ni  Ni35  1  0.16552521  0.83427134  0.83268617  1
  Ni  Ni36  1  0.50071467  0.16583462  0.49808754  1
  Ni  Ni37  1  0.33344851  0.99810601  0.66662603  1
  Cr  Cr38  1  0.49752022  0.16595984  0.83497299  1
  Ni  Ni39  1  0.50028233  0.50004379  0.49998658  1
  Ni  Ni40  1  0.33121939  0.33525354  0.66688406  1
  Ni  Ni41  1  0.50010629  0.50181070  0.83361112  1
  Ni  Ni42  1  0.50116996  0.83402700  0.50111788  1
  Ni  Ni43  1  0.33333789  0.66656350  0.66637003  1
  Ni  Ni44  1  0.50086371  0.83212824  0.83242208  1
  Ni  Ni45  1  0.83165919  0.16474533  0.49990598  1
  Ni  Ni46  1  0.66664140  0.99654399  0.66469641  1
  Cr  Cr47  1  0.83514407  0.16471527  0.83279846  1
  Ni  Ni48  1  0.83307857  0.50205919  0.49988332  1
  Cr  Cr49  1  0.66745762  0.33441348  0.66432555  1
  Ni  Ni50  1  0.83324656  0.50381301  0.83373077  1
  Ni  Ni51  1  0.83322078  0.83306329  0.49946505  1
  Ni  Ni52  1  0.66633740  0.66845293  0.66711132  1
  Ni  Ni53  1  0.83355474  0.83112701  0.83408209  1
" 