7301,Ni79Cr21_7,-208.017247793834, 160.114880716107,Ni79Cr21,"# generated using pymatgen
 data_Cr7Ni2
_symmetry_space_group_name_H-M   'P 1'
_cell_length_a   7.57074062
_cell_length_b   7.57074062
_cell_length_c   10.70664406
_cell_angle_alpha   90.00000000
_cell_angle_beta   90.00000000
_cell_angle_gamma   90.00000000
_symmetry_Int_Tables_number   1
_chemical_formula_structural   Cr7Ni2
_chemical_formula_sum   'Cr42 Ni12'
_cell_volume   613.66322629
_cell_formula_units_Z   6
loop_
 _symmetry_equiv_pos_site_id
 _symmetry_equiv_pos_as_xyz
  1  'x, y, z'
loop_
 _atom_site_type_symbol
 _atom_site_label
 _atom_site_symmetry_multiplicity
 _atom_site_fract_x
 _atom_site_fract_y
 _atom_site_fract_z
 _atom_site_occupancy
  Cr  Cr0  1  0.99210967  0.99271617  -0.00657313  1
  Cr  Cr1  1  0.16056080  0.16250434  0.15995362  1
  Cr  Cr2  1  0.99210784  0.99073220  0.32709588  1
  Cr  Cr3  1  -0.00637592  0.32751146  0.99308461  1
  Ni  Ni4  1  0.16096439  0.49477421  0.16044537  1
  Cr  Cr5  1  -0.00672418  0.32928476  0.32663296  1
  Cr  Cr6  1  -0.00510367  0.65925479  -0.00477811  1
  Cr  Cr7  1  0.15908367  0.82428380  0.16056934  1
  Ni  Ni8  1  -0.00655760  0.65947194  0.32673936  1
  Cr  Cr9  1  0.32736089  0.98985652  0.99268553  1
  Cr  Cr10  1  0.49211475  0.15971025  0.16139469  1
  Cr  Cr11  1  0.32780157  0.99275276  0.32884970  1
  Cr  Cr12  1  0.32508676  0.32961900  -0.00652658  1
  Cr  Cr13  1  0.48998135  0.49401714  0.15940890  1
  Ni  Ni14  1  0.32623225  0.32656151  0.32620990  1
  Ni  Ni15  1  0.32642014  0.65992589  -0.00489241  1
  Ni  Ni16  1  0.49400984  0.82526133  0.15792935  1
  Cr  Cr17  1  0.32417981  0.65963006  0.32443357  1
  Cr  Cr18  1  0.65996555  0.99126650  -0.00425489  1
  Cr  Cr19  1  0.82685827  0.15779547  0.15878736  1
  Cr  Cr20  1  0.65960868  0.99294892  0.32538654  1
  Cr  Cr21  1  0.66074013  0.32677483  0.99210828  1
  Cr  Cr22  1  0.82846210  0.49531657  0.16109840  1
  Cr  Cr23  1  0.65974152  0.32574194  0.33000408  1
  Cr  Cr24  1  0.65781138  0.66142104  -0.00503766  1
  Ni  Ni25  1  0.82557068  0.82508354  0.16048678  1
  Cr  Cr26  1  0.66180252  0.66063723  0.32495512  1
  Cr  Cr27  1  0.16114390  0.15881903  0.49190320  1
  Cr  Cr28  1  -0.00605418  0.99221023  0.65896275  1
  Cr  Cr29  1  0.15964526  0.15945044  0.82755844  1
  Cr  Cr30  1  0.15784394  0.49544410  0.49124955  1
  Cr  Cr31  1  0.99128829  0.32799794  0.65977097  1
  Cr  Cr32  1  0.15999896  0.49453016  0.82752803  1
  Ni  Ni33  1  0.15723447  0.82456912  0.49368109  1
  Ni  Ni34  1  0.99102668  0.65977156  0.65742068  1
  Cr  Cr35  1  0.15920993  0.82549551  0.82471724  1
  Ni  Ni36  1  0.49424924  0.16099402  0.49218271  1
  Cr  Cr37  1  0.32627564  0.99258151  0.65792311  1
  Cr  Cr38  1  0.49289080  0.16009231  0.82642304  1
  Cr  Cr39  1  0.49487239  0.49174792  0.49354021  1
  Cr  Cr40  1  0.32720547  0.32573193  0.65917744  1
  Cr  Cr41  1  0.49359384  0.49504673  0.82648417  1
  Cr  Cr42  1  0.49287429  0.82667155  0.49437241  1
  Cr  Cr43  1  0.32544023  0.66112316  0.66030258  1
  Cr  Cr44  1  0.49376074  0.82437880  0.82690326  1
  Ni  Ni45  1  0.82448120  0.16162285  0.49349864  1
  Cr  Cr46  1  0.65934429  -0.00613373  0.65843240  1
  Cr  Cr47  1  0.82694602  0.15929148  0.82781488  1
  Ni  Ni48  1  0.82766233  0.49417081  0.49479274  1
  Cr  Cr49  1  0.66103837  0.32730389  0.65752067  1
  Cr  Cr50  1  0.82580579  0.49522525  0.82354784  1
  Cr  Cr51  1  0.82899394  0.82352396  0.49397171  1
  Ni  Ni52  1  0.66313005  0.65875635  0.65923443  1
  Cr  Cr53  1  0.82647812  0.82492218  0.82508248  1
" 