2261,Ni79Cr21_16,-207.803549081179, 157.381063441718,Ni79Cr21,"# generated using pymatgen
 data_Cr7Ni2
_symmetry_space_group_name_H-M   'P 1'
_cell_length_a   7.57590594
_cell_length_b   7.57590594
_cell_length_c   10.71394892
_cell_angle_alpha   90.00000000
_cell_angle_beta   90.00000000
_cell_angle_gamma   90.00000000
_symmetry_Int_Tables_number   1
_chemical_formula_structural   Cr7Ni2
_chemical_formula_sum   'Cr42 Ni12'
_cell_volume   614.92014239
_cell_formula_units_Z   6
loop_
 _symmetry_equiv_pos_site_id
 _symmetry_equiv_pos_as_xyz
  1  'x, y, z'
loop_
 _atom_site_type_symbol
 _atom_site_label
 _atom_site_symmetry_multiplicity
 _atom_site_fract_x
 _atom_site_fract_y
 _atom_site_fract_z
 _atom_site_occupancy
  Ni  Ni0  1  -0.00671100  0.99228523  -0.00702724  1
  Cr  Cr1  1  0.15763751  0.15901698  0.15685475  1
  Cr  Cr2  1  0.99217868  0.99212009  0.32613486  1
  Ni  Ni3  1  0.99264672  0.32971928  0.99278755  1
  Cr  Cr4  1  0.15706960  0.49500706  0.15767695  1
  Cr  Cr5  1  -0.00633696  0.32845638  0.32617824  1
  Ni  Ni6  1  -0.00575376  0.65649513  -0.00718373  1
  Cr  Cr7  1  0.15796509  0.82444213  0.15802941  1
  Ni  Ni8  1  -0.00712472  0.65588269  0.32640854  1
  Cr  Cr9  1  0.32680191  0.99265972  -0.00696855  1
  Cr  Cr10  1  0.49306046  0.16193030  0.16177502  1
  Cr  Cr11  1  0.32556763  0.99277323  0.32645135  1
  Cr  Cr12  1  0.32271209  0.32903924  0.99180809  1
  Cr  Cr13  1  0.49418046  0.49242501  0.15956291  1
  Cr  Cr14  1  0.32356143  0.32761946  0.32705264  1
  Ni  Ni15  1  0.32103193  0.65793421  0.99146657  1
  Cr  Cr16  1  0.48937806  0.82409982  0.15821534  1
  Cr  Cr17  1  0.32389003  0.65767053  0.32669290  1
  Cr  Cr18  1  0.66164203  0.99149705  -0.00709304  1
  Cr  Cr19  1  0.82775358  0.16308431  0.15831865  1
  Cr  Cr20  1  0.66069024  0.99188948  0.32489368  1
  Cr  Cr21  1  0.66137332  0.32727573  -0.00654777  1
  Ni  Ni22  1  0.82944979  0.49312355  0.15955761  1
  Ni  Ni23  1  0.66212353  0.32851633  0.32488031  1
  Cr  Cr24  1  0.65950024  0.65955333  -0.00635489  1
  Cr  Cr25  1  0.83105894  0.82285765  0.15837471  1
  Cr  Cr26  1  0.66189999  0.65927503  0.32404048  1
  Cr  Cr27  1  0.16000139  0.15918485  0.49304546  1
  Cr  Cr28  1  -0.00641111  0.99228850  0.65909167  1
  Cr  Cr29  1  0.15802404  0.15928719  0.82867360  1
  Ni  Ni30  1  0.15661483  0.49563304  0.49317658  1
  Cr  Cr31  1  -0.00535930  0.32909643  0.66004461  1
  Ni  Ni32  1  0.15620387  0.49531862  0.82843644  1
  Cr  Cr33  1  0.15807964  0.82376151  0.49277656  1
  Ni  Ni34  1  -0.00374178  0.65652102  0.65926822  1
  Cr  Cr35  1  0.15820140  0.82418238  0.82745140  1
  Cr  Cr36  1  0.49378703  0.16123081  0.49372789  1
  Ni  Ni37  1  0.32513640  0.99274089  0.65931162  1
  Cr  Cr38  1  0.49300514  0.16096970  0.82291216  1
  Cr  Cr39  1  0.49434379  0.49096459  0.49223336  1
  Cr  Cr40  1  0.32246223  0.32780146  0.65988446  1
  Cr  Cr41  1  0.49164149  0.49250211  0.82634243  1
  Cr  Cr42  1  0.49117260  0.82610806  0.49399773  1
  Cr  Cr43  1  0.32367387  0.65749278  0.66008188  1
  Cr  Cr44  1  0.48943699  0.82528068  0.82643540  1
  Cr  Cr45  1  0.82426537  0.16257984  0.49326900  1
  Cr  Cr46  1  0.66009226  0.99151392  0.66078586  1
  Cr  Cr47  1  0.82728408  0.16171042  0.82682093  1
  Cr  Cr48  1  0.82675047  0.49307337  0.49257504  1
  Ni  Ni49  1  0.65977236  0.32689474  0.65902340  1
  Cr  Cr50  1  0.82845835  0.49288479  0.82586478  1
  Cr  Cr51  1  0.82911777  0.82310525  0.49329627  1
  Cr  Cr52  1  0.66185828  0.65908921  0.66070657  1
  Cr  Cr53  1  0.83091824  0.82417144  0.82681786  1
" 