1519,Ni79Cr21_18,-207.83795344022, 155.080873469446,Ni79Cr21,"# generated using pymatgen
 data_Cr7Ni2
_symmetry_space_group_name_H-M   'P 1'
_cell_length_a   7.58364277
_cell_length_b   7.58364277
_cell_length_c   10.72489046
_cell_angle_alpha   90.00000000
_cell_angle_beta   90.00000000
_cell_angle_gamma   90.00000000
_symmetry_Int_Tables_number   1
_chemical_formula_structural   Cr7Ni2
_chemical_formula_sum   'Cr42 Ni12'
_cell_volume   616.80601499
_cell_formula_units_Z   6
loop_
 _symmetry_equiv_pos_site_id
 _symmetry_equiv_pos_as_xyz
  1  'x, y, z'
loop_
 _atom_site_type_symbol
 _atom_site_label
 _atom_site_symmetry_multiplicity
 _atom_site_fract_x
 _atom_site_fract_y
 _atom_site_fract_z
 _atom_site_occupancy
  Ni  Ni0  1  -0.00642086  0.99161885  0.98975314  1
  Cr  Cr1  1  0.16100626  0.15735613  0.15872283  1
  Cr  Cr2  1  0.99213607  -0.00759021  0.32530140  1
  Cr  Cr3  1  0.99054045  0.32374021  -0.00693561  1
  Cr  Cr4  1  0.16019494  0.48936321  0.16082354  1
  Cr  Cr5  1  -0.00654482  0.32662936  0.32558574  1
  Cr  Cr6  1  -0.00561506  0.66020591  -0.00751729  1
  Cr  Cr7  1  0.15988206  0.83011065  0.15715482  1
  Cr  Cr8  1  -0.00567052  0.65817082  0.32717232  1
  Ni  Ni9  1  0.32319030  0.99134578  0.99131791  1
  Cr  Cr10  1  0.48881753  0.15716101  0.16139989  1
  Ni  Ni11  1  0.32896932  -0.00508001  0.32640885  1
  Cr  Cr12  1  0.32668361  0.32541597  -0.00655712  1
  Cr  Cr13  1  0.49364890  0.49369143  0.15805261  1
  Ni  Ni14  1  0.32673102  0.32380870  0.32847277  1
  Cr  Cr15  1  0.32546515  0.66118566  0.99121279  1
  Cr  Cr16  1  0.49330414  0.82641333  0.15965338  1
  Cr  Cr17  1  0.32480543  0.65870021  0.32606281  1
  Cr  Cr18  1  0.65870969  -0.00587706  0.99136341  1
  Cr  Cr19  1  0.82719345  0.15641740  0.15821840  1
  Ni  Ni20  1  0.65514668  0.99182760  0.32695099  1
  Cr  Cr21  1  0.65950074  0.32448969  0.99115932  1
  Cr  Cr22  1  0.82340182  0.49526786  0.15867262  1
  Cr  Cr23  1  0.65766615  0.32323464  0.32522030  1
  Ni  Ni24  1  0.65935993  0.66043154  -0.00736526  1
  Cr  Cr25  1  0.82369912  0.82514558  0.16063383  1
  Ni  Ni26  1  0.65777871  0.66048465  0.32528044  1
  Cr  Cr27  1  0.16249460  0.16056168  0.49118061  1
  Cr  Cr28  1  0.99183382  0.99188311  0.66168712  1
  Cr  Cr29  1  0.15878297  0.15772257  0.82729922  1
  Ni  Ni30  1  0.16202076  0.48958848  0.49235460  1
  Cr  Cr31  1  0.99194327  0.32517471  0.65836585  1
  Cr  Cr32  1  0.15996731  0.49048532  0.82352629  1
  Cr  Cr33  1  0.15957385  0.82759429  0.49246855  1
  Cr  Cr34  1  -0.00459869  0.65984463  0.65718343  1
  Ni  Ni35  1  0.15855285  0.82796504  0.82801712  1
  Ni  Ni36  1  0.49012051  0.15948302  0.49015057  1
  Cr  Cr37  1  0.32670503  0.99165049  0.65912328  1
  Cr  Cr38  1  0.48936433  0.15954479  0.82454143  1
  Cr  Cr39  1  0.49142079  0.49058463  0.49319738  1
  Ni  Ni40  1  0.32575304  0.32499892  0.65590694  1
  Cr  Cr41  1  0.49248558  0.49261319  0.82607533  1
  Cr  Cr42  1  0.49366679  0.82764322  0.48970819  1
  Cr  Cr43  1  0.32369941  0.65921722  0.65973342  1
  Cr  Cr44  1  0.49169493  0.82527301  0.82748622  1
  Cr  Cr45  1  0.82482745  0.15745862  0.49214742  1
  Cr  Cr46  1  0.65842251  -0.00520797  0.65764910  1
  Ni  Ni47  1  0.82711362  0.15730802  0.82694461  1
  Cr  Cr48  1  0.82553655  0.49391859  0.49186391  1
  Cr  Cr49  1  0.65775630  0.32220157  0.66049934  1
  Cr  Cr50  1  0.82461232  0.49276669  0.82642186  1
  Cr  Cr51  1  0.82339672  0.82525674  0.48997982  1
  Cr  Cr52  1  0.65778228  0.66005755  0.65919987  1
  Cr  Cr53  1  0.82637779  0.82562990  0.82595659  1
" 