7094,Ni79Fe5Cr15_12,-232.843628930949, 161.945005643528,Ni79Fe5Cr15,"# generated using pymatgen
 data_Cr5FeNi21
_symmetry_space_group_name_H-M   'P 1'
_cell_length_a   7.46657263
_cell_length_b   7.46657263
_cell_length_c   10.55932828
_cell_angle_alpha   90.00000000
_cell_angle_beta   90.00000000
_cell_angle_gamma   90.00000000
_symmetry_Int_Tables_number   1
_chemical_formula_structural   Cr5FeNi21
_chemical_formula_sum   'Cr10 Fe2 Ni42'
_cell_volume   588.67945583
_cell_formula_units_Z   2
loop_
 _symmetry_equiv_pos_site_id
 _symmetry_equiv_pos_as_xyz
  1  'x, y, z'
loop_
 _atom_site_type_symbol
 _atom_site_label
 _atom_site_symmetry_multiplicity
 _atom_site_fract_x
 _atom_site_fract_y
 _atom_site_fract_z
 _atom_site_occupancy
  Ni  Ni0  1  0.00023923  0.00005916  0.99925570  1
  Ni  Ni1  1  0.16655281  0.16659022  0.16733689  1
  Ni  Ni2  1  0.00306824  0.00132020  0.33409930  1
  Ni  Ni3  1  0.99925576  0.33444209  0.00085454  1
  Ni  Ni4  1  0.16584710  0.49789098  0.16350232  1
  Ni  Ni5  1  0.00125991  0.33297531  0.33210038  1
  Ni  Ni6  1  0.00130310  0.66552813  0.99936295  1
  Ni  Ni7  1  0.16774193  0.83583524  0.16441454  1
  Cr  Cr8  1  0.00157955  0.66469054  0.33295731  1
  Ni  Ni9  1  0.33343950  0.99836578  0.00241530  1
  Ni  Ni10  1  0.49831489  0.16720271  0.16557202  1
  Ni  Ni11  1  0.33165309  0.00159234  0.33308290  1
  Ni  Ni12  1  0.33205823  0.33442861  0.00051302  1
  Cr  Cr13  1  0.50170655  0.50076795  0.16616546  1
  Ni  Ni14  1  0.33174578  0.33146032  0.33472227  1
  Ni  Ni15  1  0.33161942  0.66785024  0.99859457  1
  Ni  Ni16  1  0.49812461  0.83443360  0.16422104  1
  Cr  Cr17  1  0.33216606  0.66824920  0.33336996  1
  Ni  Ni18  1  0.66670264  0.00019639  0.99929683  1
  Ni  Ni19  1  0.83505682  0.16865070  0.16501467  1
  Cr  Cr20  1  0.66378968  0.99991619  0.33326067  1
  Ni  Ni21  1  0.66859114  0.33310087  0.99968214  1
  Ni  Ni22  1  0.83393777  0.49752546  0.16652693  1
  Ni  Ni23  1  0.66713599  0.33381785  0.33358294  1
  Ni  Ni24  1  0.66697231  0.66695304  0.99767324  1
  Cr  Cr25  1  0.83353018  0.83179459  0.16571389  1
  Ni  Ni26  1  0.66702789  0.66528610  0.33652491  1
  Ni  Ni27  1  0.16874500  0.16674347  0.50025906  1
  Fe  Fe28  1  0.00166829  0.99782578  0.66721867  1
  Cr  Cr29  1  0.16592017  0.16613036  0.83182762  1
  Ni  Ni30  1  0.16678993  0.49840828  0.50263684  1
  Ni  Ni31  1  0.00147576  0.33658928  0.66701894  1
  Fe  Fe32  1  0.16648777  0.50160552  0.83336931  1
  Ni  Ni33  1  0.16664186  0.83512940  0.50194880  1
  Ni  Ni34  1  0.00068949  0.66564893  0.66690405  1
  Ni  Ni35  1  0.16674146  0.83253553  0.83346384  1
  Ni  Ni36  1  0.49559719  0.16801566  0.49913989  1
  Ni  Ni37  1  0.33260533  0.99802474  0.66420448  1
  Cr  Cr38  1  0.49790214  0.16796773  0.83556323  1
  Ni  Ni39  1  0.49959673  0.50039332  0.50042970  1
  Ni  Ni40  1  0.33092487  0.33500984  0.66460151  1
  Ni  Ni41  1  0.49968528  0.50292066  0.83356428  1
  Ni  Ni42  1  0.49874479  0.83153186  0.50104340  1
  Ni  Ni43  1  0.33212172  0.66730825  0.66729365  1
  Ni  Ni44  1  0.49878197  0.82996775  0.83473509  1
  Cr  Cr45  1  0.83760210  0.16717621  0.49999862  1
  Cr  Cr46  1  0.66557104  0.99778029  0.66857640  1
  Ni  Ni47  1  0.83614064  0.16738670  0.83581614  1
  Ni  Ni48  1  0.83336971  0.50167305  0.49914079  1
  Cr  Cr49  1  0.66694805  0.33510019  0.66734984  1
  Ni  Ni50  1  0.83328262  0.50142530  0.83446172  1
  Ni  Ni51  1  0.83493348  0.83013337  0.50146762  1
  Ni  Ni52  1  0.66725708  0.66712801  0.66609831  1
  Ni  Ni53  1  0.83507293  0.83123429  0.83376908  1
" 