1227,Ni79Fe9Cr10_14,-236.891720008949, 181.657429595905,Ni79Fe9Cr10,"# generated using pymatgen
 data_Cr6Fe5Ni43
_symmetry_space_group_name_H-M   'P 1'
_cell_length_a   7.44973299
_cell_length_b   7.44973299
_cell_length_c   10.53551344
_cell_angle_alpha   90.00000000
_cell_angle_beta   90.00000000
_cell_angle_gamma   90.00000000
_symmetry_Int_Tables_number   1
_chemical_formula_structural   Cr6Fe5Ni43
_chemical_formula_sum   'Cr6 Fe5 Ni43'
_cell_volume   584.70542109
_cell_formula_units_Z   1
loop_
 _symmetry_equiv_pos_site_id
 _symmetry_equiv_pos_as_xyz
  1  'x, y, z'
loop_
 _atom_site_type_symbol
 _atom_site_label
 _atom_site_symmetry_multiplicity
 _atom_site_fract_x
 _atom_site_fract_y
 _atom_site_fract_z
 _atom_site_occupancy
  Cr  Cr0  1  0.99881105  0.00276255  0.00148336  1
  Ni  Ni1  1  0.16667600  0.17023815  0.16808779  1
  Ni  Ni2  1  0.99816867  0.00144969  0.33441545  1
  Ni  Ni3  1  1.00054807  0.33665860  1.00098189  1
  Ni  Ni4  1  0.16788110  0.50011201  0.16605768  1
  Ni  Ni5  1  0.99923836  0.33609025  0.33306601  1
  Ni  Ni6  1  0.00144094  0.66418380  0.00168229  1
  Cr  Cr7  1  0.16769411  0.83310880  0.17104511  1
  Ni  Ni8  1  0.99957678  0.66598916  0.33523698  1
  Cr  Cr9  1  0.33700964  0.00187165  1.00089339  1
  Fe  Fe10  1  0.50321071  0.16833212  0.16778934  1
  Ni  Ni11  1  0.33760433  0.99984957  0.33426285  1
  Ni  Ni12  1  0.33495777  0.33666444  1.00113524  1
  Ni  Ni13  1  0.50204838  0.50259586  0.16710153  1
  Cr  Cr14  1  0.33511457  0.33659149  0.33344344  1
  Ni  Ni15  1  0.33495868  0.66523737  1.00029736  1
  Ni  Ni16  1  0.50339510  0.83239040  0.16733381  1
  Ni  Ni17  1  0.33608717  0.66782387  0.33553905  1
  Ni  Ni18  1  0.66720619  0.00267389  0.00187957  1
  Ni  Ni19  1  0.83421384  0.16888678  0.16822564  1
  Ni  Ni20  1  0.66798427  1.00027203  0.33419914  1
  Ni  Ni21  1  0.66798464  0.33376658  0.00188675  1
  Ni  Ni22  1  0.83361453  0.50079096  0.16747488  1
  Fe  Fe23  1  0.66963784  0.33537430  0.33502327  1
  Fe  Fe24  1  0.66747820  0.66577776  0.00206197  1
  Ni  Ni25  1  0.83159410  0.83364997  0.16823072  1
  Ni  Ni26  1  0.66788112  0.66879617  0.33386629  1
  Cr  Cr27  1  0.16716053  0.16638599  0.50222656  1
  Ni  Ni28  1  1.00040710  1.00087785  0.66767928  1
  Ni  Ni29  1  0.16843331  0.16854839  0.83327738  1
  Ni  Ni30  1  0.16753381  0.50336377  0.50251609  1
  Ni  Ni31  1  0.99968815  0.33582589  0.66926215  1
  Fe  Fe32  1  0.16731185  0.50034620  0.83427220  1
  Ni  Ni33  1  0.16802591  0.83337639  0.50068914  1
  Ni  Ni34  1  0.00137522  0.66673647  0.66653601  1
  Ni  Ni35  1  0.16916572  0.83318023  0.83246655  1
  Ni  Ni36  1  0.50324920  0.16731041  0.50157950  1
  Ni  Ni37  1  0.33606367  1.00035356  0.66852667  1
  Ni  Ni38  1  0.50175919  0.17053979  0.83419630  1
  Ni  Ni39  1  0.50235343  0.50220784  0.50202170  1
  Ni  Ni40  1  0.33586538  0.33560529  0.66915990  1
  Ni  Ni41  1  0.50176914  0.50034632  0.83449110  1
  Ni  Ni42  1  0.50116253  0.83403805  0.50198449  1
  Ni  Ni43  1  0.33470192  0.66753331  0.66757102  1
  Fe  Fe44  1  0.50129351  0.83428138  0.83332519  1
  Ni  Ni45  1  0.83304397  0.16788670  0.50184531  1
  Ni  Ni46  1  0.66710326  0.00219838  0.66735541  1
  Ni  Ni47  1  0.83323774  0.17041476  0.83345926  1
  Ni  Ni48  1  0.83371822  0.50131853  0.50126148  1
  Ni  Ni49  1  0.66780875  0.33461037  0.66675955  1
  Ni  Ni50  1  0.83242530  0.49950774  0.83483911  1
  Ni  Ni51  1  0.83431182  0.83437127  0.50082736  1
  Ni  Ni52  1  0.66731830  0.66679392  0.66756222  1
  Cr  Cr53  1  0.83445009  0.83285618  0.83436145  1
" 