3652,Ni79Fe5Cr15_3,-232.94910034156, 166.014414561253,Ni79Fe5Cr15,"# generated using pymatgen
 data_Cr5FeNi21
_symmetry_space_group_name_H-M   'P 1'
_cell_length_a   7.46625971
_cell_length_b   7.46625971
_cell_length_c   10.55888575
_cell_angle_alpha   90.00000000
_cell_angle_beta   90.00000000
_cell_angle_gamma   90.00000000
_symmetry_Int_Tables_number   1
_chemical_formula_structural   Cr5FeNi21
_chemical_formula_sum   'Cr10 Fe2 Ni42'
_cell_volume   588.60544596
_cell_formula_units_Z   2
loop_
 _symmetry_equiv_pos_site_id
 _symmetry_equiv_pos_as_xyz
  1  'x, y, z'
loop_
 _atom_site_type_symbol
 _atom_site_label
 _atom_site_symmetry_multiplicity
 _atom_site_fract_x
 _atom_site_fract_y
 _atom_site_fract_z
 _atom_site_occupancy
  Cr  Cr0  1  0.00054739  0.99872654  0.00075102  1
  Ni  Ni1  1  0.16672752  0.16885314  0.16664854  1
  Cr  Cr2  1  0.99975981  0.99994487  0.33366468  1
  Fe  Fe3  1  0.00062990  0.33560097  0.00104034  1
  Ni  Ni4  1  0.16301226  0.49791208  0.16698765  1
  Ni  Ni5  1  0.99996470  0.33521550  0.33268301  1
  Ni  Ni6  1  0.99827340  0.66578828  0.00077537  1
  Fe  Fe7  1  0.16436332  0.83339278  0.16667696  1
  Ni  Ni8  1  0.99849632  0.66496581  0.33267924  1
  Ni  Ni9  1  0.33310241  0.00221192  0.99878661  1
  Cr  Cr10  1  0.49959106  0.16606813  0.16691259  1
  Ni  Ni11  1  0.33354645  0.00176631  0.33444269  1
  Ni  Ni12  1  0.33269021  0.33182861  0.99869489  1
  Cr  Cr13  1  0.50122316  0.49906673  0.16710236  1
  Ni  Ni14  1  0.33130293  0.33126579  0.33374928  1
  Cr  Cr15  1  0.33183762  0.66617368  0.99817234  1
  Cr  Cr16  1  0.50208617  0.83502327  0.16708994  1
  Cr  Cr17  1  0.33114641  0.66706812  0.33433249  1
  Ni  Ni18  1  0.66638714  0.99973485  0.99970517  1
  Ni  Ni19  1  0.83403858  0.16781098  0.16700714  1
  Ni  Ni20  1  0.66672588  0.00029643  0.33453516  1
  Ni  Ni21  1  0.66671830  0.33422326  0.99955492  1
  Ni  Ni22  1  0.83589550  0.50081268  0.16681792  1
  Ni  Ni23  1  0.66888995  0.33265370  0.33389976  1
  Ni  Ni24  1  0.67033628  0.66620090  0.99851854  1
  Ni  Ni25  1  0.83308828  0.83153623  0.16656642  1
  Ni  Ni26  1  0.67067829  0.66720828  0.33369976  1
  Ni  Ni27  1  0.16748433  0.16739152  0.50073370  1
  Ni  Ni28  1  0.00095248  0.00081211  0.66592040  1
  Ni  Ni29  1  0.16968341  0.16747580  0.83277507  1
  Ni  Ni30  1  0.16508722  0.49840693  0.49955681  1
  Ni  Ni31  1  0.00094976  0.33238070  0.66614023  1
  Ni  Ni32  1  0.16728417  0.49869801  0.83361216  1
  Ni  Ni33  1  0.16765262  0.83435936  0.50011907  1
  Cr  Cr34  1  0.00026055  0.66712257  0.66652770  1
  Ni  Ni35  1  0.16804101  0.83398488  0.83330316  1
  Ni  Ni36  1  0.49984166  0.16460138  0.49928445  1
  Ni  Ni37  1  0.33307835  0.00016113  0.66692956  1
  Ni  Ni38  1  0.49793780  0.16649358  0.83413772  1
  Cr  Cr39  1  0.50053507  0.49977909  0.50029987  1
  Ni  Ni40  1  0.33263859  0.33258801  0.66771561  1
  Ni  Ni41  1  0.50050009  0.49984841  0.83302404  1
  Ni  Ni42  1  0.50091360  0.83591078  0.50058241  1
  Ni  Ni43  1  0.33395566  0.66740943  0.66771293  1
  Ni  Ni44  1  0.50072619  0.83381628  0.83269017  1
  Ni  Ni45  1  0.83283222  0.16716543  0.50037935  1
  Ni  Ni46  1  0.66612787  0.99949439  0.66591760  1
  Cr  Cr47  1  0.83307613  0.16703378  0.83241538  1
  Ni  Ni48  1  0.83438364  0.49947925  0.49848801  1
  Ni  Ni49  1  0.66657073  0.33325708  0.66670427  1
  Ni  Ni50  1  0.83237423  0.50148899  0.83485092  1
  Ni  Ni51  1  0.83159217  0.83351352  0.49972414  1
  Ni  Ni52  1  0.66591997  0.66740682  0.66794135  1
  Ni  Ni53  1  0.83139050  0.83142020  0.83386840  1
" 