1320,Ni79Cr21_1,-207.937441728094, 158.147009669444,Ni79Cr21,"# generated using pymatgen
 data_Cr7Ni2
_symmetry_space_group_name_H-M   'P 1'
_cell_length_a   7.57476031
_cell_length_b   7.57476031
_cell_length_c   10.71232877
_cell_angle_alpha   90.00000000
_cell_angle_beta   90.00000000
_cell_angle_gamma   90.00000000
_symmetry_Int_Tables_number   1
_chemical_formula_structural   Cr7Ni2
_chemical_formula_sum   'Cr42 Ni12'
_cell_volume   614.64122140
_cell_formula_units_Z   6
loop_
 _symmetry_equiv_pos_site_id
 _symmetry_equiv_pos_as_xyz
  1  'x, y, z'
loop_
 _atom_site_type_symbol
 _atom_site_label
 _atom_site_symmetry_multiplicity
 _atom_site_fract_x
 _atom_site_fract_y
 _atom_site_fract_z
 _atom_site_occupancy
  Cr  Cr0  1  -0.00463015  0.99218454  -0.00407008  1
  Ni  Ni1  1  0.16050946  0.15680151  0.15859566  1
  Cr  Cr2  1  0.99127637  -0.00684579  0.32407900  1
  Cr  Cr3  1  0.99160771  0.32561875  0.99211951  1
  Cr  Cr4  1  0.16082932  0.49349540  0.16076283  1
  Cr  Cr5  1  -0.00661036  0.32401382  0.32732597  1
  Cr  Cr6  1  0.99158361  0.66088794  -0.00606793  1
  Ni  Ni7  1  0.15863567  0.82873689  0.15851903  1
  Cr  Cr8  1  0.99284514  0.66150478  0.32380908  1
  Ni  Ni9  1  0.32532823  0.99220298  -0.00659315  1
  Cr  Cr10  1  0.49254254  0.16061153  0.15819102  1
  Cr  Cr11  1  0.32616525  0.99259870  0.32572483  1
  Cr  Cr12  1  0.32779286  0.32459665  -0.00461556  1
  Ni  Ni13  1  0.49340639  0.49202238  0.15873072  1
  Cr  Cr14  1  0.32625089  0.32674261  0.32460816  1
  Cr  Cr15  1  0.32733042  0.66139591  -0.00664051  1
  Cr  Cr16  1  0.49306680  0.82676324  0.15987336  1
  Cr  Cr17  1  0.32736288  0.65934100  0.32640048  1
  Cr  Cr18  1  0.65875475  0.99260620  0.99205311  1
  Cr  Cr19  1  0.82519685  0.15801105  0.16023728  1
  Ni  Ni20  1  0.66063079  0.99178391  0.32780432  1
  Ni  Ni21  1  0.65927238  0.32811344  0.99274673  1
  Cr  Cr22  1  0.82424186  0.49395712  0.15807658  1
  Cr  Cr23  1  0.65903249  0.32521246  0.32592935  1
  Cr  Cr24  1  0.65974555  0.65765168  0.99200380  1
  Ni  Ni25  1  0.82764598  0.82697994  0.16074132  1
  Cr  Cr26  1  0.65847223  0.66141120  0.32573905  1
  Cr  Cr27  1  0.15772531  0.16089024  0.49429083  1
  Cr  Cr28  1  0.99212786  -0.00434851  0.65867401  1
  Cr  Cr29  1  0.16012254  0.15932301  0.82620348  1
  Cr  Cr30  1  0.15870816  0.49262674  0.49434736  1
  Ni  Ni31  1  0.99120553  0.32636241  0.65939737  1
  Cr  Cr32  1  0.15684243  0.49268812  0.82356478  1
  Cr  Cr33  1  0.16089300  0.82516290  0.49316604  1
  Cr  Cr34  1  0.99209021  0.65737709  0.66091872  1
  Cr  Cr35  1  0.16171066  0.82666760  0.82708060  1
  Cr  Cr36  1  0.49535147  0.15711784  0.49184645  1
  Cr  Cr37  1  0.32772388  0.99129068  0.66049396  1
  Cr  Cr38  1  0.49291594  0.15770051  0.82863708  1
  Cr  Cr39  1  0.49212497  0.49417393  0.49147828  1
  Cr  Cr40  1  0.32451464  0.32627022  0.65866479  1
  Cr  Cr41  1  0.49502298  0.49311687  0.82786996  1
  Ni  Ni42  1  0.49395614  0.82744998  0.49264808  1
  Cr  Cr43  1  0.32833786  0.66109126  0.65890602  1
  Ni  Ni44  1  0.49202124  0.82692455  0.82630807  1
  Ni  Ni45  1  0.82598233  0.15947054  0.49312831  1
  Cr  Cr46  1  0.65881983  0.99180865  0.65775634  1
  Cr  Cr47  1  0.82563813  0.16253783  0.82544430  1
  Cr  Cr48  1  0.82783490  0.49101307  0.49445093  1
  Cr  Cr49  1  0.66252677  0.32630246  0.66015343  1
  Ni  Ni50  1  0.82610321  0.49118445  0.82598948  1
  Cr  Cr51  1  0.82407282  0.82839553  0.49090430  1
  Cr  Cr52  1  0.65823538  0.66053931  0.66090289  1
  Cr  Cr53  1  0.82516726  0.82452428  0.82675156  1
" 