1791,Ni79Cr21_5,-208.074274800209, 163.328710213329,Ni79Cr21,"# generated using pymatgen
 data_Cr7Ni2
_symmetry_space_group_name_H-M   'P 1'
_cell_length_a   7.57025728
_cell_length_b   7.57025728
_cell_length_c   10.70596052
_cell_angle_alpha   90.00000000
_cell_angle_beta   90.00000000
_cell_angle_gamma   90.00000000
_symmetry_Int_Tables_number   1
_chemical_formula_structural   Cr7Ni2
_chemical_formula_sum   'Cr42 Ni12'
_cell_volume   613.54569941
_cell_formula_units_Z   6
loop_
 _symmetry_equiv_pos_site_id
 _symmetry_equiv_pos_as_xyz
  1  'x, y, z'
loop_
 _atom_site_type_symbol
 _atom_site_label
 _atom_site_symmetry_multiplicity
 _atom_site_fract_x
 _atom_site_fract_y
 _atom_site_fract_z
 _atom_site_occupancy
  Ni  Ni0  1  0.99228136  -0.00590461  -0.00660574  1
  Cr  Cr1  1  0.15814006  0.16163763  0.15987840  1
  Cr  Cr2  1  0.99176775  -0.00573920  0.32590440  1
  Cr  Cr3  1  -0.00563036  0.32452370  -0.00498867  1
  Ni  Ni4  1  0.16168233  0.49118527  0.15930705  1
  Ni  Ni5  1  0.99227586  0.32707062  0.32560806  1
  Cr  Cr6  1  -0.00561219  0.66132038  -0.00653129  1
  Cr  Cr7  1  0.16042199  0.82642324  0.15987921  1
  Cr  Cr8  1  0.99292609  0.65802192  0.32778852  1
  Cr  Cr9  1  0.32475131  -0.00572399  0.99210834  1
  Cr  Cr10  1  0.49396613  0.15990749  0.16084848  1
  Ni  Ni11  1  0.32925184  -0.00590065  0.32795160  1
  Ni  Ni12  1  0.32641751  0.32859584  -0.00562026  1
  Ni  Ni13  1  0.49017469  0.49234249  0.15814676  1
  Cr  Cr14  1  0.32679776  0.32671625  0.32624304  1
  Cr  Cr15  1  0.32647660  0.65670857  -0.00502399  1
  Cr  Cr16  1  0.49341875  0.82641496  0.16140574  1
  Cr  Cr17  1  0.32677563  0.65911621  0.32477416  1
  Cr  Cr18  1  0.66273703  -0.00571029  -0.00638695  1
  Ni  Ni19  1  0.82769678  0.15919787  0.16013401  1
  Ni  Ni20  1  0.65902743  -0.00582768  0.32752221  1
  Cr  Cr21  1  0.65812184  0.32624474  -0.00593619  1
  Cr  Cr22  1  0.82744258  0.49093495  0.16061727  1
  Cr  Cr23  1  0.66039441  0.32555816  0.32744348  1
  Cr  Cr24  1  0.65868488  0.65901628  -0.00652788  1
  Cr  Cr25  1  0.82571068  0.82927696  0.15934158  1
  Cr  Cr26  1  0.65984662  0.65970717  0.32803892  1
  Cr  Cr27  1  0.16156918  0.16012137  0.49230288  1
  Cr  Cr28  1  0.99291961  0.99191617  0.66098623  1
  Cr  Cr29  1  0.15984545  0.15998888  0.82737012  1
  Cr  Cr30  1  0.15811801  0.49211640  0.49275361  1
  Cr  Cr31  1  0.99234819  0.32720888  0.65884422  1
  Cr  Cr32  1  0.16044054  0.49211419  0.82715336  1
  Cr  Cr33  1  0.15986907  0.82730962  0.49289514  1
  Cr  Cr34  1  0.99176132  0.66042482  0.65828963  1
  Cr  Cr35  1  0.15925795  0.82744559  0.82677556  1
  Ni  Ni36  1  0.49345924  0.15960438  0.49198707  1
  Cr  Cr37  1  0.32677715  -0.00575377  0.65907858  1
  Cr  Cr38  1  0.49225209  0.16057628  0.82639510  1
  Ni  Ni39  1  0.49544260  0.49162334  0.49379968  1
  Cr  Cr40  1  0.32851482  0.32605164  0.65924356  1
  Cr  Cr41  1  0.49282279  0.49269246  0.82768865  1
  Cr  Cr42  1  0.49440356  0.82846398  0.49139435  1
  Cr  Cr43  1  0.32677813  0.65925256  0.65979701  1
  Cr  Cr44  1  0.49342047  0.82628001  0.82675264  1
  Cr  Cr45  1  0.82530141  0.16069280  0.49135756  1
  Cr  Cr46  1  0.65985426  -0.00634373  0.65882676  1
  Cr  Cr47  1  0.82745206  0.15939260  0.82830349  1
  Ni  Ni48  1  0.82540742  0.49428244  0.49297167  1
  Cr  Cr49  1  0.65868673  0.32720817  0.65803863  1
  Cr  Cr50  1  0.82628465  0.49328274  0.82522445  1
  Ni  Ni51  1  0.82508042  0.82526462  0.49299387  1
  Cr  Cr52  1  0.66100826  0.65868788  0.65803771  1
  Cr  Cr53  1  0.82687270  0.82687494  0.82731170  1
" 