3685,Ni79Fe5Cr15_13,-233.118020804754, 165.811374834366,Ni79Fe5Cr15,"# generated using pymatgen
 data_Cr5FeNi21
_symmetry_space_group_name_H-M   'P 1'
_cell_length_a   7.46586846
_cell_length_b   7.46586846
_cell_length_c   10.55833243
_cell_angle_alpha   90.00000000
_cell_angle_beta   90.00000000
_cell_angle_gamma   90.00000000
_symmetry_Int_Tables_number   1
_chemical_formula_structural   Cr5FeNi21
_chemical_formula_sum   'Cr10 Fe2 Ni42'
_cell_volume   588.51291761
_cell_formula_units_Z   2
loop_
 _symmetry_equiv_pos_site_id
 _symmetry_equiv_pos_as_xyz
  1  'x, y, z'
loop_
 _atom_site_type_symbol
 _atom_site_label
 _atom_site_symmetry_multiplicity
 _atom_site_fract_x
 _atom_site_fract_y
 _atom_site_fract_z
 _atom_site_occupancy
  Ni  Ni0  1  0.00070812  0.00032426  0.00056533  1
  Ni  Ni1  1  0.16748687  0.16608945  0.16559467  1
  Ni  Ni2  1  0.00083944  0.00011344  0.33260024  1
  Ni  Ni3  1  0.99982269  0.33343690  1.00002968  1
  Ni  Ni4  1  0.16579550  0.50125529  0.16481569  1
  Cr  Cr5  1  1.00007517  0.33228536  0.33087126  1
  Ni  Ni6  1  0.99975429  0.66644566  0.00100990  1
  Ni  Ni7  1  0.16587667  0.83284289  0.16806383  1
  Ni  Ni8  1  0.99967024  0.66793123  0.33097026  1
  Ni  Ni9  1  0.33212547  0.99877697  0.00210003  1
  Ni  Ni10  1  0.50009538  0.16503457  0.16668913  1
  Ni  Ni11  1  0.33170155  0.00035187  0.33122409  1
  Ni  Ni12  1  0.33078112  0.33298633  1.00007254  1
  Cr  Cr13  1  0.49828858  0.49997526  0.16556972  1
  Ni  Ni14  1  0.33306749  0.33249815  0.33230134  1
  Ni  Ni15  1  0.33245513  0.66838805  0.99876334  1
  Ni  Ni16  1  0.50055129  0.83466460  0.16653901  1
  Ni  Ni17  1  0.33324490  0.66756793  0.33246388  1
  Ni  Ni18  1  0.66762104  0.99854633  0.00072810  1
  Ni  Ni19  1  0.83285338  0.16495120  0.16507934  1
  Ni  Ni20  1  0.66775586  0.99966461  0.33031570  1
  Ni  Ni21  1  0.66924533  0.33382193  0.00132505  1
  Ni  Ni22  1  0.83429500  0.50161427  0.16626579  1
  Fe  Fe23  1  0.66698293  0.33295221  0.33153755  1
  Ni  Ni24  1  0.66783546  0.66735886  0.99887894  1
  Ni  Ni25  1  0.83384565  0.83350457  0.16643296  1
  Ni  Ni26  1  0.66736373  0.66619443  0.33230665  1
  Ni  Ni27  1  0.16440601  0.16649011  0.50038806  1
  Ni  Ni28  1  0.99988982  0.00143084  0.66710316  1
  Ni  Ni29  1  0.16374452  0.16788040  0.83408734  1
  Cr  Cr30  1  0.16817792  0.50232107  0.50090736  1
  Ni  Ni31  1  0.00102230  0.33235906  0.66800116  1
  Ni  Ni32  1  0.16641317  0.50024605  0.83399881  1
  Ni  Ni33  1  0.16507043  0.83383610  0.49873059  1
  Ni  Ni34  1  0.00148560  0.66677252  0.66847800  1
  Ni  Ni35  1  0.16474400  0.83190192  0.83368188  1
  Cr  Cr36  1  0.50025311  0.16775766  0.49753973  1
  Cr  Cr37  1  0.33115457  0.99843554  0.66819023  1
  Cr  Cr38  1  0.50046911  0.16697933  0.83701678  1
  Ni  Ni39  1  0.49911247  0.49964548  0.49819117  1
  Ni  Ni40  1  0.33104121  0.33542233  0.66772297  1
  Ni  Ni41  1  0.49780704  0.50105817  0.83526453  1
  Cr  Cr42  1  0.49917432  0.83176351  0.49868348  1
  Ni  Ni43  1  0.33187058  0.66492270  0.66863099  1
  Ni  Ni44  1  0.50020324  0.83169177  0.83594643  1
  Ni  Ni45  1  0.83504757  0.16581848  0.50013624  1
  Ni  Ni46  1  0.67035042  0.00052768  0.66953455  1
  Ni  Ni47  1  0.83610412  0.16566655  0.83429153  1
  Fe  Fe48  1  0.83420180  0.50024934  0.49904261  1
  Cr  Cr49  1  0.66883340  0.33441415  0.66591977  1
  Ni  Ni50  1  0.83578676  0.50011819  0.83499976  1
  Cr  Cr51  1  0.83671664  0.83509838  0.49972201  1
  Cr  Cr52  1  0.66573041  0.66730806  0.67020117  1
  Ni  Ni53  1  0.83531552  0.83457230  0.83474005  1
" 