3534,Ni79Cr21_10,-208.009131097811, 160.012966621666,Ni79Cr21,"# generated using pymatgen
 data_Cr7Ni2
_symmetry_space_group_name_H-M   'P 1'
_cell_length_a   7.57491178
_cell_length_b   7.57491178
_cell_length_c   10.71254298
_cell_angle_alpha   90.00000000
_cell_angle_beta   90.00000000
_cell_angle_gamma   90.00000000
_symmetry_Int_Tables_number   1
_chemical_formula_structural   Cr7Ni2
_chemical_formula_sum   'Cr42 Ni12'
_cell_volume   614.67809441
_cell_formula_units_Z   6
loop_
 _symmetry_equiv_pos_site_id
 _symmetry_equiv_pos_as_xyz
  1  'x, y, z'
loop_
 _atom_site_type_symbol
 _atom_site_label
 _atom_site_symmetry_multiplicity
 _atom_site_fract_x
 _atom_site_fract_y
 _atom_site_fract_z
 _atom_site_occupancy
  Cr  Cr0  1  -0.00559427  -0.00619568  0.99231009  1
  Ni  Ni1  1  0.16121724  0.15886651  0.16229165  1
  Cr  Cr2  1  -0.00524644  -0.00597044  0.32727708  1
  Cr  Cr3  1  0.99233864  0.32377858  -0.00669505  1
  Cr  Cr4  1  0.15900001  0.49056719  0.15876815  1
  Cr  Cr5  1  0.99105245  0.32377991  0.32657821  1
  Ni  Ni6  1  -0.00561751  0.66160047  0.99157511  1
  Cr  Cr7  1  0.15793704  0.82658383  0.16030133  1
  Cr  Cr8  1  0.99221219  0.66030711  0.32813256  1
  Cr  Cr9  1  0.32547388  0.99249183  -0.00634648  1
  Cr  Cr10  1  0.49088993  0.15855454  0.16098042  1
  Ni  Ni11  1  0.32385351  -0.00459281  0.32607780  1
  Cr  Cr12  1  0.32578305  0.32414470  -0.00702922  1
  Cr  Cr13  1  0.49102482  0.49136376  0.16091110  1
  Ni  Ni14  1  0.32463004  0.32298205  0.32459418  1
  Cr  Cr15  1  0.32482519  0.66224556  0.98969797  1
  Cr  Cr16  1  0.49477895  0.82912822  0.16035532  1
  Cr  Cr17  1  0.32583568  0.66314008  0.32808294  1
  Ni  Ni18  1  0.66100434  -0.00563499  0.99120317  1
  Cr  Cr19  1  0.82669025  0.15711137  0.15789843  1
  Cr  Cr20  1  0.66066877  -0.00604823  0.32606104  1
  Cr  Cr21  1  0.66070712  0.32377296  0.99151205  1
  Cr  Cr22  1  0.82865083  0.49545505  0.15834205  1
  Cr  Cr23  1  0.66154154  0.32631211  0.32839717  1
  Cr  Cr24  1  0.65867209  0.65975077  -0.00553017  1
  Cr  Cr25  1  0.82642995  0.82616803  0.15617748  1
  Cr  Cr26  1  0.66038385  0.65816359  0.32770791  1
  Cr  Cr27  1  0.15968554  0.15884158  0.49162078  1
  Ni  Ni28  1  0.99051614  0.99250236  0.65943325  1
  Cr  Cr29  1  0.15703197  0.15872177  0.82479544  1
  Cr  Cr30  1  0.15902572  0.49176969  0.49240665  1
  Cr  Cr31  1  0.98989145  0.32277293  0.65874455  1
  Cr  Cr32  1  0.15776916  0.49398393  0.82725878  1
  Ni  Ni33  1  0.15894693  0.82950160  0.49352210  1
  Cr  Cr34  1  -0.00563304  0.66210928  0.65798335  1
  Ni  Ni35  1  0.15610513  0.82784047  0.82563358  1
  Cr  Cr36  1  0.49244976  0.15841567  0.49252385  1
  Cr  Cr37  1  0.32275080  0.99039420  0.66015450  1
  Cr  Cr38  1  0.49563869  0.15727105  0.82496135  1
  Cr  Cr39  1  0.49089469  0.49059468  0.49239136  1
  Cr  Cr40  1  0.32642422  0.32608611  0.66132502  1
  Cr  Cr41  1  0.49232135  0.49192761  0.82574180  1
  Cr  Cr42  1  0.49310161  0.82980544  0.49273973  1
  Cr  Cr43  1  0.32498895  0.66247637  0.66123885  1
  Cr  Cr44  1  0.49608513  0.82862990  0.82562897  1
  Ni  Ni45  1  0.82664374  0.15841931  0.49604108  1
  Ni  Ni46  1  0.66396759  -0.00484248  0.65982321  1
  Ni  Ni47  1  0.82601900  0.15554166  0.82459674  1
  Ni  Ni48  1  0.82708821  0.49062820  0.49280273  1
  Cr  Cr49  1  0.66238951  0.32494697  0.65894224  1
  Cr  Cr50  1  0.82809290  0.49366541  0.82756163  1
  Cr  Cr51  1  0.82755327  0.82848384  0.49393954  1
  Cr  Cr52  1  0.65950983  0.65883483  0.65641699  1
  Cr  Cr53  1  0.82712775  0.82838071  0.82766880  1
" 