8061,Ni79Fe9Cr10_0,-237.008632116923, 182.930534396083,Ni79Fe9Cr10,"# generated using pymatgen
 data_Cr6Fe5Ni43
_symmetry_space_group_name_H-M   'P 1'
_cell_length_a   7.44850380
_cell_length_b   7.44850380
_cell_length_c   10.53377510
_cell_angle_alpha   90.00000000
_cell_angle_beta   90.00000000
_cell_angle_gamma   90.00000000
_symmetry_Int_Tables_number   1
_chemical_formula_structural   Cr6Fe5Ni43
_chemical_formula_sum   'Cr6 Fe5 Ni43'
_cell_volume   584.41604253
_cell_formula_units_Z   1
loop_
 _symmetry_equiv_pos_site_id
 _symmetry_equiv_pos_as_xyz
  1  'x, y, z'
loop_
 _atom_site_type_symbol
 _atom_site_label
 _atom_site_symmetry_multiplicity
 _atom_site_fract_x
 _atom_site_fract_y
 _atom_site_fract_z
 _atom_site_occupancy
  Ni  Ni0  1  0.00258015  1.00046426  1.00021709  1
  Ni  Ni1  1  0.16776685  0.16668258  0.16762020  1
  Ni  Ni2  1  0.00143035  1.00088459  0.33616504  1
  Ni  Ni3  1  1.00070853  0.33597628  1.00006574  1
  Ni  Ni4  1  0.16652313  0.50384808  0.16888709  1
  Ni  Ni5  1  0.00198657  0.33595488  0.33478572  1
  Ni  Ni6  1  1.00122078  0.66745515  0.00134459  1
  Ni  Ni7  1  0.16605853  0.83345263  0.16700723  1
  Ni  Ni8  1  0.00291930  0.66705608  0.33499355  1
  Ni  Ni9  1  0.33456361  0.99936112  1.00082494  1
  Ni  Ni10  1  0.50192654  0.16687288  0.16808441  1
  Cr  Cr11  1  0.33401534  1.00040380  0.33452520  1
  Cr  Cr12  1  0.33116915  0.33339627  1.00104838  1
  Cr  Cr13  1  0.50140107  0.49977390  0.16838208  1
  Fe  Fe14  1  0.33305006  0.33472403  0.33566856  1
  Ni  Ni15  1  0.33388865  0.67032100  1.00010012  1
  Fe  Fe16  1  0.50098940  0.83507292  0.16705936  1
  Ni  Ni17  1  0.33202348  0.66768792  0.33609817  1
  Ni  Ni18  1  0.66661735  0.99946833  1.00068833  1
  Cr  Cr19  1  0.83380509  0.16735811  0.16727146  1
  Ni  Ni20  1  0.66821795  0.00211553  0.33621432  1
  Ni  Ni21  1  0.66901366  0.33514660  0.99847791  1
  Ni  Ni22  1  0.83630593  0.50260590  0.16632961  1
  Ni  Ni23  1  0.66944559  0.33409898  0.33736169  1
  Ni  Ni24  1  0.66878409  0.66903395  1.00041694  1
  Ni  Ni25  1  0.83709496  0.83452477  0.16752961  1
  Cr  Cr26  1  0.66970248  0.66911091  0.33573078  1
  Ni  Ni27  1  0.16696170  0.16805929  0.50209374  1
  Ni  Ni28  1  0.00355586  0.00189144  0.66730824  1
  Ni  Ni29  1  0.16750639  0.16618658  0.83396490  1
  Ni  Ni30  1  0.16812808  0.50181710  0.50090026  1
  Ni  Ni31  1  0.00198533  0.33486122  0.66894118  1
  Ni  Ni32  1  0.16804666  0.50298583  0.83405166  1
  Ni  Ni33  1  0.16665635  0.83370257  0.50266631  1
  Fe  Fe34  1  1.00030265  0.66744613  0.66814050  1
  Ni  Ni35  1  0.16712934  0.83470306  0.83422906  1
  Ni  Ni36  1  0.50135058  0.16972700  0.50093493  1
  Ni  Ni37  1  0.33259574  0.00168700  0.66829689  1
  Ni  Ni38  1  0.50128205  0.16904623  0.83453953  1
  Ni  Ni39  1  0.50033060  0.50045928  0.50225901  1
  Ni  Ni40  1  0.33335591  0.33407052  0.66690440  1
  Ni  Ni41  1  0.50150372  0.50147375  0.83313728  1
  Ni  Ni42  1  0.49993087  0.83354550  0.50222383  1
  Fe  Fe43  1  0.33413915  0.66719140  0.66760945  1
  Fe  Fe44  1  0.50096383  0.83403715  0.83417620  1
  Ni  Ni45  1  0.83548657  0.16844786  0.50059993  1
  Cr  Cr46  1  0.66876612  1.00059183  0.66637941  1
  Ni  Ni47  1  0.83491396  0.16756342  0.83550600  1
  Ni  Ni48  1  0.83519323  0.50064799  0.50222610  1
  Ni  Ni49  1  0.66837635  0.33704988  0.66801495  1
  Ni  Ni50  1  0.83373545  0.50200249  0.83545252  1
  Ni  Ni51  1  0.83693612  0.83477887  0.50075858  1
  Ni  Ni52  1  0.66822101  0.66622051  0.66750904  1
  Ni  Ni53  1  0.83665703  0.83417387  0.83549724  1
" 