1107,Ni79Fe19Cr1_13,-241.296502568347, 203.05213921027,Ni79Fe19Cr1,"# generated using pymatgen
 data_CrFe5Ni21
_symmetry_space_group_name_H-M   'P 1'
_cell_length_a   7.43007341
_cell_length_b   7.43007341
_cell_length_c   10.50771059
_cell_angle_alpha   90.00000000
_cell_angle_beta   90.00000000
_cell_angle_gamma   90.00000000
_symmetry_Int_Tables_number   1
_chemical_formula_structural   CrFe5Ni21
_chemical_formula_sum   'Cr2 Fe10 Ni42'
_cell_volume   580.08857541
_cell_formula_units_Z   2
loop_
 _symmetry_equiv_pos_site_id
 _symmetry_equiv_pos_as_xyz
  1  'x, y, z'
loop_
 _atom_site_type_symbol
 _atom_site_label
 _atom_site_symmetry_multiplicity
 _atom_site_fract_x
 _atom_site_fract_y
 _atom_site_fract_z
 _atom_site_occupancy
  Ni  Ni0  1  0.00259642  0.00280990  1.00230905  1
  Ni  Ni1  1  0.16917467  0.16858209  0.16887385  1
  Ni  Ni2  1  0.00307896  0.00306634  0.33624260  1
  Ni  Ni3  1  1.00221029  0.33540012  0.00262331  1
  Ni  Ni4  1  0.16871696  0.50324799  0.16987776  1
  Fe  Fe5  1  0.00310936  0.33468574  0.33417956  1
  Ni  Ni6  1  0.00253414  0.66925502  0.00286336  1
  Ni  Ni7  1  0.17001612  0.83563493  0.16863461  1
  Fe  Fe8  1  0.00342850  0.67057442  0.33453281  1
  Ni  Ni9  1  0.33506855  1.00248157  1.00212700  1
  Ni  Ni10  1  0.50274412  0.16894357  0.16920919  1
  Ni  Ni11  1  0.33406343  1.00198272  0.33646292  1
  Ni  Ni12  1  0.33564485  0.33591812  0.00321036  1
  Ni  Ni13  1  0.50328382  0.50296556  0.16864050  1
  Fe  Fe14  1  0.33654535  0.33566012  0.33576780  1
  Ni  Ni15  1  0.33564889  0.66906463  0.00266359  1
  Ni  Ni16  1  0.50162051  0.83555416  0.16973860  1
  Ni  Ni17  1  0.33632959  0.66929561  0.33619091  1
  Ni  Ni18  1  0.66979966  0.00280618  0.00324616  1
  Ni  Ni19  1  0.83554549  0.17024612  0.16937304  1
  Fe  Fe20  1  0.66876283  0.00250646  0.33561232  1
  Ni  Ni21  1  0.66960901  0.33598051  1.00216654  1
  Ni  Ni22  1  0.83546540  0.50212596  0.16898182  1
  Ni  Ni23  1  0.66893291  0.33597904  0.33537755  1
  Ni  Ni24  1  0.66928118  0.66867795  1.00240667  1
  Fe  Fe25  1  0.83582636  0.83574465  0.16886488  1
  Ni  Ni26  1  0.66785111  0.66837689  0.33537787  1
  Ni  Ni27  1  0.16990077  0.16746935  0.50289230  1
  Ni  Ni28  1  0.00423115  0.00276399  0.66891202  1
  Ni  Ni29  1  0.16968417  0.16878148  0.83569782  1
  Fe  Fe30  1  0.17133081  0.50226446  0.50278415  1
  Fe  Fe31  1  0.00352645  0.33456024  0.67073619  1
  Ni  Ni32  1  0.16842464  0.50294486  0.83529187  1
  Ni  Ni33  1  0.16914832  0.83674475  0.50313265  1
  Fe  Fe34  1  0.00347022  0.67047442  0.67073733  1
  Ni  Ni35  1  0.16968080  0.83573866  0.83569854  1
  Ni  Ni36  1  0.50131227  0.17057145  0.50154489  1
  Ni  Ni37  1  0.33256769  0.00252741  0.66887497  1
  Ni  Ni38  1  0.50169147  0.16940374  0.83670815  1
  Ni  Ni39  1  0.50188695  0.50216958  0.50310104  1
  Ni  Ni40  1  0.33589631  0.33646830  0.66808348  1
  Fe  Fe41  1  0.50258014  0.50254278  0.83544245  1
  Fe  Fe42  1  0.50148457  0.83522391  0.50173647  1
  Ni  Ni43  1  0.33585410  0.66846801  0.66861032  1
  Ni  Ni44  1  0.50141413  0.83539606  0.83593892  1
  Ni  Ni45  1  0.83625270  0.16836887  0.50206251  1
  Cr  Cr46  1  0.67050497  0.00285307  0.66808544  1
  Ni  Ni47  1  0.83608958  0.17065972  0.83602767  1
  Cr  Cr48  1  0.83436730  0.50276100  0.50316012  1
  Ni  Ni49  1  0.66848140  0.33733612  0.66992073  1
  Ni  Ni50  1  0.83574477  0.50266696  0.83563081  1
  Ni  Ni51  1  0.83733128  0.83617336  0.50151751  1
  Ni  Ni52  1  0.66824489  0.66732282  0.66967989  1
  Ni  Ni53  1  0.83636953  0.83413809  0.83679695  1
" 