3286,Ni79Cr21_15,-207.893952338015, 158.718575546109,Ni79Cr21,"# generated using pymatgen
 data_Cr7Ni2
_symmetry_space_group_name_H-M   'P 1'
_cell_length_a   7.57629544
_cell_length_b   7.57629544
_cell_length_c   10.71449976
_cell_angle_alpha   90.00000000
_cell_angle_beta   90.00000000
_cell_angle_gamma   90.00000000
_symmetry_Int_Tables_number   1
_chemical_formula_structural   Cr7Ni2
_chemical_formula_sum   'Cr42 Ni12'
_cell_volume   615.01499198
_cell_formula_units_Z   6
loop_
 _symmetry_equiv_pos_site_id
 _symmetry_equiv_pos_as_xyz
  1  'x, y, z'
loop_
 _atom_site_type_symbol
 _atom_site_label
 _atom_site_symmetry_multiplicity
 _atom_site_fract_x
 _atom_site_fract_y
 _atom_site_fract_z
 _atom_site_occupancy
  Cr  Cr0  1  0.99261917  0.99229213  0.99077313  1
  Cr  Cr1  1  0.16160346  0.16042690  0.15596831  1
  Cr  Cr2  1  0.99090719  -0.00542718  0.32737335  1
  Cr  Cr3  1  0.99070998  0.32783624  -0.00612576  1
  Cr  Cr4  1  0.15982702  0.49186331  0.16057694  1
  Cr  Cr5  1  0.98921253  0.32830221  0.32575761  1
  Cr  Cr6  1  0.99123350  0.65827000  -0.00537718  1
  Cr  Cr7  1  0.15821191  0.82674844  0.16266505  1
  Ni  Ni8  1  0.98989916  0.65775892  0.32448550  1
  Cr  Cr9  1  0.32757807  0.98983727  0.99228978  1
  Cr  Cr10  1  0.49245808  0.15833949  0.15981490  1
  Cr  Cr11  1  0.33024715  0.99204309  0.32644593  1
  Ni  Ni12  1  0.32670899  0.32724322  0.99235190  1
  Cr  Cr13  1  0.49375628  0.49284044  0.15710248  1
  Cr  Cr14  1  0.32844990  0.32588279  0.32754678  1
  Cr  Cr15  1  0.32829564  0.66118006  0.99268744  1
  Ni  Ni16  1  0.49634127  0.82609183  0.15908795  1
  Cr  Cr17  1  0.32532558  0.66021876  0.32547080  1
  Cr  Cr18  1  0.65758694  0.99086170  0.99202313  1
  Cr  Cr19  1  0.82493015  0.15737367  0.16003390  1
  Ni  Ni20  1  0.65841591  -0.00671167  0.32767052  1
  Cr  Cr21  1  0.66095787  0.32918803  -0.00467481  1
  Ni  Ni22  1  0.82532642  0.49634055  0.15942779  1
  Cr  Cr23  1  0.66092350  0.32338948  0.32749006  1
  Ni  Ni24  1  0.65778964  0.66092663  -0.00622670  1
  Cr  Cr25  1  0.82371744  0.82535476  0.16080727  1
  Cr  Cr26  1  0.65842277  0.65725050  0.32407163  1
  Cr  Cr27  1  0.16086116  0.16100365  0.49480115  1
  Cr  Cr28  1  0.99165118  -0.00482649  0.66004568  1
  Cr  Cr29  1  0.16097248  0.16250199  0.82722949  1
  Cr  Cr30  1  0.15981881  0.49247116  0.49350295  1
  Ni  Ni31  1  -0.00642907  0.32506883  0.65790077  1
  Cr  Cr32  1  0.16158707  0.48924380  0.82402618  1
  Cr  Cr33  1  0.15676980  0.82507922  0.49013446  1
  Cr  Cr34  1  0.99256284  0.65829385  0.65904827  1
  Cr  Cr35  1  0.15881922  0.82655588  0.82541055  1
  Ni  Ni36  1  0.49541714  0.15875463  0.49270575  1
  Cr  Cr37  1  0.32818517  0.99164446  0.65977836  1
  Cr  Cr38  1  0.49108831  0.16178723  0.82694514  1
  Cr  Cr39  1  0.49215425  0.49113762  0.49625027  1
  Ni  Ni40  1  0.32598096  0.32411981  0.65834097  1
  Cr  Cr41  1  0.49348873  0.49289270  0.82549124  1
  Cr  Cr42  1  0.49622352  0.82595594  0.49210123  1
  Cr  Cr43  1  0.32835213  0.66101990  0.66000826  1
  Ni  Ni44  1  0.49603619  0.82349437  0.82664508  1
  Ni  Ni45  1  0.82397750  0.15935525  0.49274600  1
  Cr  Cr46  1  0.65812352  -0.00653273  0.65836013  1
  Cr  Cr47  1  0.82665928  0.15977853  0.82525182  1
  Cr  Cr48  1  0.82622860  0.49540869  0.49373568  1
  Cr  Cr49  1  0.66143621  0.32518558  0.65610906  1
  Cr  Cr50  1  0.82406146  0.49436513  0.82541673  1
  Cr  Cr51  1  0.82499349  0.82657768  0.49172804  1
  Ni  Ni52  1  0.65810587  0.66046017  0.66166073  1
  Cr  Cr53  1  0.82208708  0.82414998  0.82577670  1
" 