3934,Ni79Fe9Cr10_4,-236.999763155018, 184.132319968961,Ni79Fe9Cr10,"# generated using pymatgen
 data_Cr6Fe5Ni43
_symmetry_space_group_name_H-M   'P 1'
_cell_length_a   7.44693579
_cell_length_b   7.44693579
_cell_length_c   10.53155759
_cell_angle_alpha   90.00000000
_cell_angle_beta   90.00000000
_cell_angle_gamma   90.00000000
_symmetry_Int_Tables_number   1
_chemical_formula_structural   Cr6Fe5Ni43
_chemical_formula_sum   'Cr6 Fe5 Ni43'
_cell_volume   584.04703707
_cell_formula_units_Z   1
loop_
 _symmetry_equiv_pos_site_id
 _symmetry_equiv_pos_as_xyz
  1  'x, y, z'
loop_
 _atom_site_type_symbol
 _atom_site_label
 _atom_site_symmetry_multiplicity
 _atom_site_fract_x
 _atom_site_fract_y
 _atom_site_fract_z
 _atom_site_occupancy
  Ni  Ni0  1  1.00038919  1.00117491  0.00221074  1
  Ni  Ni1  1  0.16664339  0.16862961  0.16909233  1
  Fe  Fe2  1  0.00274288  1.00113662  0.33484770  1
  Ni  Ni3  1  0.00219086  0.33493335  0.00157366  1
  Ni  Ni4  1  0.16827014  0.50121808  0.16751737  1
  Fe  Fe5  1  1.00084768  0.33547635  0.33404754  1
  Ni  Ni6  1  0.00348174  0.66788033  1.00082811  1
  Ni  Ni7  1  0.16690871  0.83432173  0.16921272  1
  Ni  Ni8  1  1.00052594  0.66865262  0.33415839  1
  Cr  Cr9  1  0.33475841  0.00156840  1.00024307  1
  Ni  Ni10  1  0.50163265  0.16990446  0.16778743  1
  Ni  Ni11  1  0.33305903  0.00189479  0.33596062  1
  Ni  Ni12  1  0.33321355  0.33473863  0.00264638  1
  Ni  Ni13  1  0.50071285  0.50042022  0.16949689  1
  Ni  Ni14  1  0.33518896  0.33326768  0.33338423  1
  Ni  Ni15  1  0.33117924  0.66718251  0.00314863  1
  Ni  Ni16  1  0.50062478  0.83375620  0.16861514  1
  Ni  Ni17  1  0.33420931  0.66883377  0.33301000  1
  Ni  Ni18  1  0.66961295  0.00321181  0.00158748  1
  Ni  Ni19  1  0.83563373  0.16876447  0.16683830  1
  Cr  Cr20  1  0.66792088  0.00147599  0.33367436  1
  Ni  Ni21  1  0.66882719  0.33165419  0.00241587  1
  Ni  Ni22  1  0.83522821  0.50015007  0.16859949  1
  Ni  Ni23  1  0.66816962  0.33580219  0.33516265  1
  Cr  Cr24  1  0.66943721  0.66941332  0.00300982  1
  Ni  Ni25  1  0.83662283  0.83511564  0.16808450  1
  Ni  Ni26  1  0.66932699  0.66652162  0.33554173  1
  Ni  Ni27  1  0.16679981  0.16668047  0.50165431  1
  Ni  Ni28  1  0.00208736  0.00142117  0.66705819  1
  Ni  Ni29  1  0.16574502  0.16914844  0.83346643  1
  Cr  Cr30  1  0.16897117  0.50135294  0.50109244  1
  Ni  Ni31  1  1.00115603  0.33380573  0.66852458  1
  Ni  Ni32  1  0.16761894  0.50091771  0.83502428  1
  Ni  Ni33  1  0.16801840  0.83639895  0.50166669  1
  Ni  Ni34  1  1.00101675  0.66882279  0.66911467  1
  Ni  Ni35  1  0.16626699  0.83380819  0.83326856  1
  Fe  Fe36  1  0.50017513  0.16959437  0.50080354  1
  Fe  Fe37  1  0.33285239  1.00121441  0.66813217  1
  Ni  Ni38  1  0.50221094  0.16911155  0.83420231  1
  Ni  Ni39  1  0.50242414  0.50191909  0.50066686  1
  Ni  Ni40  1  0.33419399  0.33314565  0.66768600  1
  Cr  Cr41  1  0.49988896  0.50094522  0.83441514  1
  Ni  Ni42  1  0.49972423  0.83120324  0.50160978  1
  Ni  Ni43  1  0.33385517  0.66877080  0.66791579  1
  Ni  Ni44  1  0.50121694  0.83435472  0.83389781  1
  Ni  Ni45  1  0.83733532  0.16956742  0.50091829  1
  Cr  Cr46  1  0.66855018  0.00151994  0.66809589  1
  Ni  Ni47  1  0.83595310  0.16792813  0.83608370  1
  Ni  Ni48  1  0.83269416  0.50089752  0.50268844  1
  Ni  Ni49  1  0.66874124  0.33450014  0.66658261  1
  Fe  Fe50  1  0.83637568  0.50050764  0.83384941  1
  Ni  Ni51  1  0.83608600  0.83388479  0.50112108  1
  Ni  Ni52  1  0.66923667  0.66790067  0.66597111  1
  Ni  Ni53  1  0.83636485  0.83649723  0.83471327  1
" 