6009,Ni79Fe5Cr15_4,-232.916225034579, 165.047628071726,Ni79Fe5Cr15,"# generated using pymatgen
 data_Cr5FeNi21
_symmetry_space_group_name_H-M   'P 1'
_cell_length_a   7.46745818
_cell_length_b   7.46745818
_cell_length_c   10.56058063
_cell_angle_alpha   90.00000000
_cell_angle_beta   90.00000000
_cell_angle_gamma   90.00000000
_symmetry_Int_Tables_number   1
_chemical_formula_structural   Cr5FeNi21
_chemical_formula_sum   'Cr10 Fe2 Ni42'
_cell_volume   588.88893637
_cell_formula_units_Z   2
loop_
 _symmetry_equiv_pos_site_id
 _symmetry_equiv_pos_as_xyz
  1  'x, y, z'
loop_
 _atom_site_type_symbol
 _atom_site_label
 _atom_site_symmetry_multiplicity
 _atom_site_fract_x
 _atom_site_fract_y
 _atom_site_fract_z
 _atom_site_occupancy
  Cr  Cr0  1  0.00112477  0.00134545  0.99883238  1
  Ni  Ni1  1  0.16641152  0.16877563  0.16569484  1
  Ni  Ni2  1  0.99736579  0.00121566  0.33396075  1
  Ni  Ni3  1  0.00028303  0.33579973  0.99965279  1
  Ni  Ni4  1  0.16541660  0.49924161  0.16715252  1
  Ni  Ni5  1  0.99915111  0.33427334  0.33382347  1
  Ni  Ni6  1  0.99852141  0.66229216  0.00018476  1
  Cr  Cr7  1  0.16421764  0.83275762  0.16757171  1
  Ni  Ni8  1  0.99802778  0.66441007  0.33267394  1
  Ni  Ni9  1  0.33503041  0.00144517  0.99809714  1
  Cr  Cr10  1  0.50062496  0.16793865  0.16469067  1
  Cr  Cr11  1  0.33420953  0.99951525  0.33423743  1
  Fe  Fe12  1  0.33267662  0.33306920  0.99867593  1
  Ni  Ni13  1  0.50176532  0.50111223  0.16681194  1
  Cr  Cr14  1  0.33107569  0.33480965  0.33311437  1
  Cr  Cr15  1  0.33418350  0.66654668  0.99931061  1
  Fe  Fe16  1  0.50304054  0.83134820  0.16660645  1
  Ni  Ni17  1  0.33438305  0.66568778  0.33246056  1
  Ni  Ni18  1  0.66344758  0.99943860  0.99940336  1
  Cr  Cr19  1  0.83339606  0.16689403  0.16747831  1
  Ni  Ni20  1  0.66851749  0.99787476  0.33487221  1
  Ni  Ni21  1  0.66751632  0.33522517  0.99809965  1
  Ni  Ni22  1  0.83283232  0.50234247  0.16643033  1
  Ni  Ni23  1  0.66963939  0.33443059  0.33424576  1
  Ni  Ni24  1  0.66697682  0.66513902  0.00145036  1
  Ni  Ni25  1  0.83147343  0.83043559  0.16781171  1
  Ni  Ni26  1  0.66756727  0.66753823  0.33154008  1
  Ni  Ni27  1  0.16487831  0.16786604  0.50094079  1
  Ni  Ni28  1  0.00030684  0.00226697  0.66651480  1
  Ni  Ni29  1  0.16801791  0.16711491  0.83323882  1
  Ni  Ni30  1  0.16430285  0.49941937  0.50016841  1
  Ni  Ni31  1  0.00008200  0.33331371  0.66638713  1
  Ni  Ni32  1  0.16595137  0.49959794  0.83253718  1
  Cr  Cr33  1  0.16537835  0.83156606  0.50177488  1
  Ni  Ni34  1  0.00019678  0.66432814  0.66713658  1
  Ni  Ni35  1  0.16847185  0.83324692  0.83141280  1
  Ni  Ni36  1  0.50214848  0.16507941  0.50182625  1
  Ni  Ni37  1  0.33434592  0.00069366  0.66793314  1
  Ni  Ni38  1  0.49998363  0.16675236  0.83344799  1
  Cr  Cr39  1  0.50042446  0.50018575  0.50108149  1
  Ni  Ni40  1  0.33206379  0.33232437  0.66809588  1
  Ni  Ni41  1  0.50089697  0.49882776  0.83266493  1
  Ni  Ni42  1  0.50255832  0.83423652  0.49987287  1
  Ni  Ni43  1  0.33349583  0.66685334  0.66808811  1
  Ni  Ni44  1  0.49887150  0.83435458  0.83316848  1
  Ni  Ni45  1  0.83287820  0.16625616  0.49943806  1
  Ni  Ni46  1  0.66527343  0.00083345  0.66556382  1
  Ni  Ni47  1  0.83192717  0.16912348  0.83263134  1
  Ni  Ni48  1  0.83470103  0.49999354  0.49947787  1
  Ni  Ni49  1  0.66778095  0.33239965  0.66756556  1
  Ni  Ni50  1  0.83305149  0.49837802  0.83397778  1
  Ni  Ni51  1  0.83192647  0.83368168  0.49915450  1
  Ni  Ni52  1  0.66625149  0.66668026  0.66691415  1
  Cr  Cr53  1  0.83347417  0.83223889  0.83261789  1
" 