4070,Ni79Cr21_11,-207.989921978946, 159.682274647195,Ni79Cr21,"# generated using pymatgen
 data_Cr7Ni2
_symmetry_space_group_name_H-M   'P 1'
_cell_length_a   7.57443231
_cell_length_b   7.57443231
_cell_length_c   10.71186490
_cell_angle_alpha   90.00000000
_cell_angle_beta   90.00000000
_cell_angle_gamma   90.00000000
_symmetry_Int_Tables_number   1
_chemical_formula_structural   Cr7Ni2
_chemical_formula_sum   'Cr42 Ni12'
_cell_volume   614.56137842
_cell_formula_units_Z   6
loop_
 _symmetry_equiv_pos_site_id
 _symmetry_equiv_pos_as_xyz
  1  'x, y, z'
loop_
 _atom_site_type_symbol
 _atom_site_label
 _atom_site_symmetry_multiplicity
 _atom_site_fract_x
 _atom_site_fract_y
 _atom_site_fract_z
 _atom_site_occupancy
  Cr  Cr0  1  -0.00558153  -0.00646197  0.99065649  1
  Cr  Cr1  1  0.16162947  0.15912947  0.15852078  1
  Cr  Cr2  1  -0.00482994  0.99271701  0.32619576  1
  Ni  Ni3  1  0.98869743  0.32628489  0.99271321  1
  Cr  Cr4  1  0.15629413  0.49198055  0.15818522  1
  Cr  Cr5  1  0.99118937  0.32553810  0.32354506  1
  Cr  Cr6  1  -0.00539183  0.66073637  -0.00562762  1
  Ni  Ni7  1  0.16184222  0.82958243  0.15853541  1
  Cr  Cr8  1  0.99290216  0.65967834  0.32293471  1
  Ni  Ni9  1  0.32615564  0.99188670  -0.00641644  1
  Cr  Cr10  1  0.49296611  0.15777090  0.15810526  1
  Ni  Ni11  1  0.32492165  0.99189975  0.32395070  1
  Cr  Cr12  1  0.32701351  0.32780192  0.99070546  1
  Cr  Cr13  1  0.49452161  0.49105929  0.15743250  1
  Cr  Cr14  1  0.32643363  0.32620632  0.32796969  1
  Cr  Cr15  1  0.32503265  0.66174288  0.99164434  1
  Cr  Cr16  1  0.49242849  0.83029814  0.15887917  1
  Cr  Cr17  1  0.32547197  0.66058594  0.32282504  1
  Ni  Ni18  1  0.65910429  -0.00396972  0.99139288  1
  Cr  Cr19  1  0.82546500  0.16055724  0.15515632  1
  Cr  Cr20  1  0.66046792  -0.00614021  0.32802615  1
  Ni  Ni21  1  0.66218573  0.32450832  0.99118841  1
  Ni  Ni22  1  0.82564086  0.49018734  0.15615058  1
  Cr  Cr23  1  0.66060148  0.32726410  0.32531532  1
  Cr  Cr24  1  0.65798048  0.65683254  -0.00671202  1
  Cr  Cr25  1  0.82518007  0.82563225  0.15893797  1
  Cr  Cr26  1  0.65932879  0.65727045  0.32508968  1
  Cr  Cr27  1  0.16176394  0.16052401  0.49213060  1
  Cr  Cr28  1  -0.00680400  0.99217076  0.66227981  1
  Cr  Cr29  1  0.15935738  0.16073690  0.82777827  1
  Cr  Cr30  1  0.15865645  0.49241371  0.49684141  1
  Cr  Cr31  1  0.99186520  0.32314455  0.66069323  1
  Cr  Cr32  1  0.15847980  0.49302684  0.82413926  1
  Cr  Cr33  1  0.15946426  0.82463058  0.49327207  1
  Ni  Ni34  1  -0.00517597  0.66029173  0.66174784  1
  Ni  Ni35  1  0.16006762  0.82700920  0.82714504  1
  Cr  Cr36  1  0.49034171  0.15897337  0.49193672  1
  Cr  Cr37  1  0.32537770  -0.00626186  0.66071190  1
  Cr  Cr38  1  0.49367263  0.15950691  0.82883336  1
  Cr  Cr39  1  0.49067687  0.49280451  0.49543708  1
  Ni  Ni40  1  0.32695524  0.32665293  0.66136414  1
  Ni  Ni41  1  0.49355319  0.48962662  0.82636584  1
  Cr  Cr42  1  0.49267692  0.82745593  0.49048846  1
  Cr  Cr43  1  0.32693811  0.65908176  0.66435907  1
  Cr  Cr44  1  0.49349235  0.82747783  0.82949724  1
  Cr  Cr45  1  0.82694859  0.15916465  0.49373597  1
  Cr  Cr46  1  0.66102827  -0.00484449  0.66047274  1
  Ni  Ni47  1  0.82485683  0.16086111  0.83032421  1
  Cr  Cr48  1  0.82888185  0.49507609  0.49266882  1
  Cr  Cr49  1  0.65751607  0.32546673  0.66122732  1
  Cr  Cr50  1  0.82695216  0.49231209  0.82785992  1
  Cr  Cr51  1  0.82697005  0.82386658  0.49558007  1
  Cr  Cr52  1  0.65845745  0.65861169  0.66007503  1
  Cr  Cr53  1  0.82659196  0.82685389  0.82494854  1
" 