8048,Ni79Fe5Cr15_19,-232.893521518604, 165.948722438028,Ni79Fe5Cr15,"# generated using pymatgen
 data_Cr5FeNi21
_symmetry_space_group_name_H-M   'P 1'
_cell_length_a   7.46883865
_cell_length_b   7.46883865
_cell_length_c   10.56253291
_cell_angle_alpha   90.00000000
_cell_angle_beta   90.00000000
_cell_angle_gamma   90.00000000
_symmetry_Int_Tables_number   1
_chemical_formula_structural   Cr5FeNi21
_chemical_formula_sum   'Cr10 Fe2 Ni42'
_cell_volume   589.21559115
_cell_formula_units_Z   2
loop_
 _symmetry_equiv_pos_site_id
 _symmetry_equiv_pos_as_xyz
  1  'x, y, z'
loop_
 _atom_site_type_symbol
 _atom_site_label
 _atom_site_symmetry_multiplicity
 _atom_site_fract_x
 _atom_site_fract_y
 _atom_site_fract_z
 _atom_site_occupancy
  Ni  Ni0  1  0.00063482  0.99946484  0.00016734  1
  Ni  Ni1  1  0.16502385  0.16549228  0.16707068  1
  Ni  Ni2  1  0.00087850  0.99870457  0.33311336  1
  Ni  Ni3  1  -0.00003722  0.33243130  0.00091080  1
  Fe  Fe4  1  0.16616502  0.50026194  0.16835077  1
  Ni  Ni5  1  0.00279946  0.33402360  0.33344635  1
  Cr  Cr6  1  0.00055562  0.66811031  0.00099219  1
  Ni  Ni7  1  0.16570625  0.83420425  0.16727016  1
  Ni  Ni8  1  0.00159895  0.66691273  0.33298791  1
  Ni  Ni9  1  0.33227248  0.99848787  0.99807530  1
  Cr  Cr10  1  0.49835453  0.16628161  0.16692755  1
  Ni  Ni11  1  0.33143272  0.00031803  0.33437658  1
  Cr  Cr12  1  0.33305437  0.33377573  0.99888913  1
  Ni  Ni13  1  0.49976141  0.50093385  0.16526700  1
  Ni  Ni14  1  0.33095058  0.33384765  0.33338808  1
  Ni  Ni15  1  0.33416547  0.66706748  0.99900045  1
  Cr  Cr16  1  0.49827254  0.83242659  0.16600723  1
  Ni  Ni17  1  0.33054165  0.66547514  0.33368421  1
  Ni  Ni18  1  0.66673256  0.99892542  0.99838751  1
  Cr  Cr19  1  0.83582386  0.16639645  0.16543236  1
  Ni  Ni20  1  0.66732873  0.99911447  0.33567151  1
  Ni  Ni21  1  0.66604879  0.33432088  -0.00003659  1
  Ni  Ni22  1  0.83377347  0.50025018  0.16546851  1
  Cr  Cr23  1  0.66569562  0.33299236  0.33525128  1
  Fe  Fe24  1  0.66515337  0.66678040  0.99970521  1
  Ni  Ni25  1  0.83547134  0.83259649  0.16640865  1
  Cr  Cr26  1  0.66796848  0.66759138  0.33330994  1
  Ni  Ni27  1  0.16547254  0.16593910  0.49857830  1
  Ni  Ni28  1  0.00005122  0.99850686  0.66635926  1
  Ni  Ni29  1  0.16662583  0.16466345  0.83399126  1
  Ni  Ni30  1  0.16547353  0.50058935  0.49822155  1
  Ni  Ni31  1  0.99948527  0.33373511  0.66527925  1
  Ni  Ni32  1  0.16770514  0.50077768  0.83301230  1
  Ni  Ni33  1  0.16690686  0.83311127  0.49965169  1
  Ni  Ni34  1  0.00011323  0.66739841  0.66555963  1
  Ni  Ni35  1  0.16838018  0.83419771  0.83271902  1
  Ni  Ni36  1  0.50043559  0.16491792  0.49937905  1
  Ni  Ni37  1  0.33349707  0.99829356  0.66719202  1
  Ni  Ni38  1  0.49962939  0.16472203  0.83376553  1
  Ni  Ni39  1  0.49942003  0.50059541  0.50049208  1
  Cr  Cr40  1  0.33359049  0.33301414  0.66695616  1
  Ni  Ni41  1  0.49958790  0.50175949  0.83388173  1
  Ni  Ni42  1  0.49900722  0.83412612  0.50044956  1
  Ni  Ni43  1  0.33325736  0.66778528  0.66695549  1
  Ni  Ni44  1  0.49885433  0.83315939  0.83373865  1
  Ni  Ni45  1  0.83373151  0.16635270  0.50043122  1
  Ni  Ni46  1  0.66609248  0.99892474  0.66558325  1
  Cr  Cr47  1  0.83375020  0.16600648  0.83346883  1
  Ni  Ni48  1  0.83474624  0.49916050  0.50154405  1
  Ni  Ni49  1  0.66648061  0.33349681  0.66506530  1
  Cr  Cr50  1  0.83270368  0.49951832  0.83187706  1
  Ni  Ni51  1  0.83372659  0.83412707  0.50018780  1
  Ni  Ni52  1  0.66626932  0.66721975  0.66661805  1
  Ni  Ni53  1  0.83240432  0.83423892  0.83304381  1
" 