4544,Ni79Fe5Cr15_17,-233.013565480615, 164.427182299255,Ni79Fe5Cr15,"# generated using pymatgen
 data_Cr5FeNi21
_symmetry_space_group_name_H-M   'P 1'
_cell_length_a   7.46559080
_cell_length_b   7.46559080
_cell_length_c   10.55793977
_cell_angle_alpha   90.00000000
_cell_angle_beta   90.00000000
_cell_angle_gamma   90.00000000
_symmetry_Int_Tables_number   1
_chemical_formula_structural   Cr5FeNi21
_chemical_formula_sum   'Cr10 Fe2 Ni42'
_cell_volume   588.44725898
_cell_formula_units_Z   2
loop_
 _symmetry_equiv_pos_site_id
 _symmetry_equiv_pos_as_xyz
  1  'x, y, z'
loop_
 _atom_site_type_symbol
 _atom_site_label
 _atom_site_symmetry_multiplicity
 _atom_site_fract_x
 _atom_site_fract_y
 _atom_site_fract_z
 _atom_site_occupancy
  Ni  Ni0  1  0.00147935  0.00178921  0.99897633  1
  Ni  Ni1  1  0.16633764  0.16503826  0.16833923  1
  Ni  Ni2  1  1.00009414  0.99765652  0.33404986  1
  Ni  Ni3  1  0.99800787  0.33148152  0.99946672  1
  Cr  Cr4  1  0.16775639  0.49910690  0.17034649  1
  Ni  Ni5  1  0.99876711  0.33446687  0.33439205  1
  Cr  Cr6  1  0.99929508  0.66803589  0.00211587  1
  Ni  Ni7  1  0.16704133  0.83450170  0.16852434  1
  Ni  Ni8  1  0.99893940  0.66747026  0.33514932  1
  Cr  Cr9  1  0.33231186  0.99809731  0.00173962  1
  Ni  Ni10  1  0.49964877  0.16825549  0.17079863  1
  Ni  Ni11  1  0.33473741  0.99898815  0.33203648  1
  Cr  Cr12  1  0.33583491  0.33143282  0.99984179  1
  Ni  Ni13  1  0.50252866  0.50117339  0.16640356  1
  Ni  Ni14  1  0.33573601  0.33349713  0.33427494  1
  Ni  Ni15  1  0.33654028  0.66852808  0.99971453  1
  Ni  Ni16  1  0.50034935  0.83065188  0.16882802  1
  Ni  Ni17  1  0.33446980  0.66801906  0.33479398  1
  Cr  Cr18  1  0.66471037  0.99968934  0.00186207  1
  Cr  Cr19  1  0.83387964  0.16744195  0.16807364  1
  Ni  Ni20  1  0.66548183  0.99890252  0.33494546  1
  Ni  Ni21  1  0.66804108  0.33542848  0.99833756  1
  Ni  Ni22  1  0.83036737  0.50058740  0.16746661  1
  Ni  Ni23  1  0.66571752  0.33467485  0.33509389  1
  Ni  Ni24  1  0.66455294  0.66425653  0.00075817  1
  Ni  Ni25  1  0.83288523  0.83189523  0.16891616  1
  Ni  Ni26  1  0.66690982  0.66669239  0.33332495  1
  Cr  Cr27  1  0.16947747  0.16621521  0.49804126  1
  Fe  Fe28  1  1.00006107  0.99944295  0.66584448  1
  Ni  Ni29  1  0.16649657  0.16526014  0.83277205  1
  Ni  Ni30  1  0.16829417  0.50269032  0.49874927  1
  Cr  Cr31  1  0.99794316  0.33554099  0.66522872  1
  Cr  Cr32  1  0.16791329  0.50198435  0.83179736  1
  Ni  Ni33  1  0.16742525  0.83145432  0.50064318  1
  Ni  Ni34  1  1.00001060  0.66821029  0.66389962  1
  Ni  Ni35  1  0.16885111  0.83522556  0.83126459  1
  Ni  Ni36  1  0.50218616  0.16664781  0.49977682  1
  Ni  Ni37  1  0.33550982  0.99930110  0.66751288  1
  Ni  Ni38  1  0.50120760  0.16637051  0.83026782  1
  Ni  Ni39  1  0.49990777  0.50035300  0.50132854  1
  Ni  Ni40  1  0.33599073  0.33264950  0.66598443  1
  Fe  Fe41  1  0.50222520  0.50089472  0.83171619  1
  Ni  Ni42  1  0.50035711  0.83337438  0.50004648  1
  Ni  Ni43  1  0.33394069  0.66880719  0.66574546  1
  Ni  Ni44  1  0.49851154  0.83215151  0.83198038  1
  Ni  Ni45  1  0.83041191  0.16588514  0.49948266  1
  Ni  Ni46  1  0.66463280  0.00076755  0.66484069  1
  Ni  Ni47  1  0.83240839  0.16846371  0.83305519  1
  Ni  Ni48  1  0.83199768  0.50130596  0.49879515  1
  Ni  Ni49  1  0.66567859  0.33282329  0.66678758  1
  Ni  Ni50  1  0.83079544  0.49872690  0.83379747  1
  Ni  Ni51  1  0.83245599  0.83321188  0.50002776  1
  Ni  Ni52  1  0.66663291  0.66633318  0.66588102  1
  Cr  Cr53  1  0.83152452  0.83341806  0.83143132  1
" 