5250,Ni79Fe9Cr10_12,-236.92267302683, 180.584592376746,Ni79Fe9Cr10,"# generated using pymatgen
 data_Cr6Fe5Ni43
_symmetry_space_group_name_H-M   'P 1'
_cell_length_a   7.45199773
_cell_length_b   7.45199773
_cell_length_c   10.53871626
_cell_angle_alpha   90.00000000
_cell_angle_beta   90.00000000
_cell_angle_gamma   90.00000000
_symmetry_Int_Tables_number   1
_chemical_formula_structural   Cr6Fe5Ni43
_chemical_formula_sum   'Cr6 Fe5 Ni43'
_cell_volume   585.23883955
_cell_formula_units_Z   1
loop_
 _symmetry_equiv_pos_site_id
 _symmetry_equiv_pos_as_xyz
  1  'x, y, z'
loop_
 _atom_site_type_symbol
 _atom_site_label
 _atom_site_symmetry_multiplicity
 _atom_site_fract_x
 _atom_site_fract_y
 _atom_site_fract_z
 _atom_site_occupancy
  Ni  Ni0  1  0.00354123  0.00372194  0.00178197  1
  Ni  Ni1  1  0.16762877  0.16778927  0.16735995  1
  Ni  Ni2  1  1.00053884  0.00157639  0.33430680  1
  Ni  Ni3  1  0.00121198  0.33256712  1.00063633  1
  Ni  Ni4  1  0.16846571  0.50021886  0.16797271  1
  Ni  Ni5  1  0.00182279  0.33422506  0.33451890  1
  Cr  Cr6  1  0.00130424  0.66708574  0.00261627  1
  Ni  Ni7  1  0.16828479  0.83502141  0.16850227  1
  Ni  Ni8  1  1.00054274  0.66722989  0.33439800  1
  Ni  Ni9  1  0.33303679  0.00134227  1.00089775  1
  Ni  Ni10  1  0.49996763  0.16850320  0.16795066  1
  Ni  Ni11  1  0.33423014  1.00092115  0.33325745  1
  Ni  Ni12  1  0.33440812  0.33399527  1.00098816  1
  Ni  Ni13  1  0.50098579  0.50136272  0.16799534  1
  Ni  Ni14  1  0.33287789  0.33480979  0.33344583  1
  Ni  Ni15  1  0.33618591  0.66769124  1.00063197  1
  Ni  Ni16  1  0.50045467  0.83316467  0.16771166  1
  Ni  Ni17  1  0.33481403  0.66729970  0.33458821  1
  Cr  Cr18  1  0.66667410  0.00140493  0.00177268  1
  Ni  Ni19  1  0.83543534  0.16831907  0.16837555  1
  Ni  Ni20  1  0.66825691  0.99964215  0.33385929  1
  Ni  Ni21  1  0.66740942  0.33571873  0.00103096  1
  Ni  Ni22  1  0.83357729  0.50070703  0.16773550  1
  Fe  Fe23  1  0.66874502  0.33488781  0.33322978  1
  Ni  Ni24  1  0.66502306  0.66536088  0.00178600  1
  Ni  Ni25  1  0.83428957  0.83400220  0.16939328  1
  Ni  Ni26  1  0.66767298  0.66858068  0.33408854  1
  Ni  Ni27  1  0.16458972  0.16881711  0.49970206  1
  Ni  Ni28  1  0.99946501  0.00197386  0.66693877  1
  Ni  Ni29  1  0.16601271  0.16762357  0.83596476  1
  Ni  Ni30  1  0.16637843  0.50139531  0.50093918  1
  Ni  Ni31  1  0.99893620  0.33421103  0.66787460  1
  Fe  Fe32  1  0.16857742  0.50077648  0.83419435  1
  Fe  Fe33  1  0.16607210  0.83360475  0.50031425  1
  Ni  Ni34  1  0.00119465  0.66684484  0.66654533  1
  Ni  Ni35  1  0.16941746  0.83459504  0.83365381  1
  Cr  Cr36  1  0.50204325  0.16708086  0.49972361  1
  Cr  Cr37  1  0.33421241  0.99920308  0.66872504  1
  Ni  Ni38  1  0.50146785  0.16919388  0.83507371  1
  Fe  Fe39  1  0.50200572  0.50337153  0.50055985  1
  Cr  Cr40  1  0.33353299  0.33590460  0.66836328  1
  Ni  Ni41  1  0.50146332  0.50188041  0.83448647  1
  Ni  Ni42  1  0.50237670  0.83206223  0.50115377  1
  Ni  Ni43  1  0.33469363  0.66786383  0.66780607  1
  Ni  Ni44  1  0.49913496  0.83195383  0.83416523  1
  Ni  Ni45  1  0.83632019  0.16753107  0.50199322  1
  Ni  Ni46  1  0.66951815  1.00083281  0.66766697  1
  Ni  Ni47  1  0.83554897  0.16995498  0.83266103  1
  Ni  Ni48  1  0.83556141  0.50164995  0.50197093  1
  Ni  Ni49  1  0.67054392  0.33486183  0.66852459  1
  Fe  Fe50  1  0.83287150  0.49839934  0.83344822  1
  Ni  Ni51  1  0.83367202  0.83384964  0.50133589  1
  Ni  Ni52  1  0.66714028  0.66733306  0.66715753  1
  Cr  Cr53  1  0.83439183  0.83461045  0.83275421  1
" 