2200,Ni79Cr21_8,-207.938995243988, 157.829634267226,Ni79Cr21,"# generated using pymatgen
 data_Cr7Ni2
_symmetry_space_group_name_H-M   'P 1'
_cell_length_a   7.57123587
_cell_length_b   7.57123587
_cell_length_c   10.70734445
_cell_angle_alpha   90.00000000
_cell_angle_beta   90.00000000
_cell_angle_gamma   90.00000000
_symmetry_Int_Tables_number   1
_chemical_formula_structural   Cr7Ni2
_chemical_formula_sum   'Cr42 Ni12'
_cell_volume   613.78366590
_cell_formula_units_Z   6
loop_
 _symmetry_equiv_pos_site_id
 _symmetry_equiv_pos_as_xyz
  1  'x, y, z'
loop_
 _atom_site_type_symbol
 _atom_site_label
 _atom_site_symmetry_multiplicity
 _atom_site_fract_x
 _atom_site_fract_y
 _atom_site_fract_z
 _atom_site_occupancy
  Cr  Cr0  1  -0.00631971  0.99228344  -0.00630636  1
  Cr  Cr1  1  0.16102801  0.15982269  0.16107626  1
  Ni  Ni2  1  -0.00612199  0.98915970  0.32658984  1
  Cr  Cr3  1  0.99182443  0.32591858  0.99164198  1
  Cr  Cr4  1  0.16079607  0.49335134  0.16134221  1
  Cr  Cr5  1  -0.00583945  0.32714010  0.32700479  1
  Cr  Cr6  1  -0.00588982  0.66132004  -0.00555282  1
  Ni  Ni7  1  0.15817069  0.82659515  0.16232554  1
  Ni  Ni8  1  -0.00349841  0.66280218  0.32758950  1
  Cr  Cr9  1  0.32625603  0.99288605  -0.00572269  1
  Ni  Ni10  1  0.49389413  0.16014244  0.16127274  1
  Cr  Cr11  1  0.32643320  -0.00605156  0.32650835  1
  Cr  Cr12  1  0.32824465  0.32598213  -0.00407526  1
  Ni  Ni13  1  0.49152018  0.49030515  0.16104205  1
  Ni  Ni14  1  0.32929460  0.32705168  0.32741908  1
  Cr  Cr15  1  0.32608050  0.66063487  -0.00479811  1
  Cr  Cr16  1  0.49412297  0.82792039  0.15852157  1
  Cr  Cr17  1  0.32618958  0.65918765  0.32662235  1
  Ni  Ni18  1  0.65882335  -0.00535069  -0.00555649  1
  Cr  Cr19  1  0.82551403  0.15729672  0.16118317  1
  Ni  Ni20  1  0.65865136  -0.00466596  0.32613052  1
  Cr  Cr21  1  0.65912592  0.32562012  -0.00478998  1
  Cr  Cr22  1  0.82716527  0.49432279  0.16050571  1
  Cr  Cr23  1  0.65598296  0.32591877  0.32640303  1
  Cr  Cr24  1  0.65922120  0.65871598  -0.00616298  1
  Cr  Cr25  1  0.82624343  0.82730652  0.16281458  1
  Cr  Cr26  1  0.65845184  0.65768191  0.32660937  1
  Cr  Cr27  1  0.16052358  0.16072378  0.49195840  1
  Cr  Cr28  1  -0.00536304  0.99194190  0.65912708  1
  Cr  Cr29  1  0.16131017  0.16132481  0.82653785  1
  Ni  Ni30  1  0.16231825  0.49477281  0.49127798  1
  Cr  Cr31  1  0.99268237  0.32663524  0.66058345  1
  Cr  Cr32  1  0.16137033  0.49211289  0.82636369  1
  Ni  Ni33  1  0.15831405  0.82463922  0.49062794  1
  Cr  Cr34  1  -0.00538902  0.66084860  0.65812803  1
  Cr  Cr35  1  0.16159699  0.82593216  0.82646215  1
  Ni  Ni36  1  0.49250049  0.16154783  0.49048217  1
  Cr  Cr37  1  0.32552559  0.99274892  0.65844262  1
  Cr  Cr38  1  0.49247746  0.15883372  0.82685286  1
  Ni  Ni39  1  0.48938633  0.49057011  0.49187317  1
  Cr  Cr40  1  0.32767663  0.32655023  0.65661701  1
  Cr  Cr41  1  0.49152613  0.49371625  0.82648197  1
  Cr  Cr42  1  0.49350677  0.82750509  0.49378705  1
  Cr  Cr43  1  0.32573089  0.66014327  0.65736774  1
  Cr  Cr44  1  0.49412299  0.82691457  0.82699264  1
  Cr  Cr45  1  0.82581057  0.15775034  0.49117845  1
  Cr  Cr46  1  0.65933500  -0.00501756  0.65874532  1
  Cr  Cr47  1  0.82558009  0.15884037  0.82687965  1
  Cr  Cr48  1  0.82790741  0.49416474  0.49242329  1
  Cr  Cr49  1  0.65873206  0.32646880  0.65747922  1
  Cr  Cr50  1  0.82651865  0.49360918  0.82651484  1
  Cr  Cr51  1  0.82644698  0.82717548  0.48983242  1
  Cr  Cr52  1  0.65903339  0.65785439  0.65896321  1
  Cr  Cr53  1  0.82390514  0.82684595  0.82683311  1
" 