1370,Ni79Fe19Cr1_18,-241.153725866462, 203.457960099311,Ni79Fe19Cr1,"# generated using pymatgen
 data_CrFe5Ni21
_symmetry_space_group_name_H-M   'P 1'
_cell_length_a   7.42764530
_cell_length_b   7.42764530
_cell_length_c   10.50427672
_cell_angle_alpha   90.00000000
_cell_angle_beta   90.00000000
_cell_angle_gamma   90.00000000
_symmetry_Int_Tables_number   1
_chemical_formula_structural   CrFe5Ni21
_chemical_formula_sum   'Cr2 Fe10 Ni42'
_cell_volume   579.52005139
_cell_formula_units_Z   2
loop_
 _symmetry_equiv_pos_site_id
 _symmetry_equiv_pos_as_xyz
  1  'x, y, z'
loop_
 _atom_site_type_symbol
 _atom_site_label
 _atom_site_symmetry_multiplicity
 _atom_site_fract_x
 _atom_site_fract_y
 _atom_site_fract_z
 _atom_site_occupancy
  Ni  Ni0  1  1.00254845  0.00277638  1.00201702  1
  Ni  Ni1  1  0.16784734  0.16738117  0.16970039  1
  Ni  Ni2  1  0.00294923  0.00277068  0.33647928  1
  Ni  Ni3  1  1.00055367  0.33561282  1.00265173  1
  Fe  Fe4  1  0.16792485  0.50405881  0.16980495  1
  Ni  Ni5  1  1.00202783  0.33535338  0.33577368  1
  Ni  Ni6  1  1.00122719  0.66956997  0.00330460  1
  Ni  Ni7  1  0.17000795  0.83675321  0.16936081  1
  Ni  Ni8  1  0.00343907  0.66983455  0.33537057  1
  Ni  Ni9  1  0.33593137  1.00110393  1.00247010  1
  Fe  Fe10  1  0.50341064  0.16810005  0.17050577  1
  Ni  Ni11  1  0.33569998  0.00294861  0.33580907  1
  Cr  Cr12  1  0.33531935  0.33537925  1.00219456  1
  Ni  Ni13  1  0.50338450  0.50355309  0.16917830  1
  Ni  Ni14  1  0.33655483  0.33511070  0.33647236  1
  Ni  Ni15  1  0.33700650  0.67148216  0.00296539  1
  Ni  Ni16  1  0.50062503  0.83534681  0.16811709  1
  Ni  Ni17  1  0.33496565  0.66989631  0.33549310  1
  Fe  Fe18  1  0.66989843  1.00200295  1.00239108  1
  Ni  Ni19  1  0.83705968  0.17014591  0.16945755  1
  Fe  Fe20  1  0.66961612  0.00425629  0.33674343  1
  Fe  Fe21  1  0.67140070  0.33683146  1.00243364  1
  Ni  Ni22  1  0.83565030  0.50139264  0.16808009  1
  Ni  Ni23  1  0.66937369  0.33462070  0.33560063  1
  Ni  Ni24  1  0.66972255  0.66949453  1.00188296  1
  Ni  Ni25  1  0.83732482  0.83642217  0.16837590  1
  Cr  Cr26  1  0.66988764  0.66940086  0.33730975  1
  Ni  Ni27  1  0.16936087  0.16831279  0.50317878  1
  Fe  Fe28  1  0.00329982  0.00329320  0.66908249  1
  Ni  Ni29  1  0.16852123  0.16760184  0.83507765  1
  Fe  Fe30  1  0.16925872  0.50278547  0.50314890  1
  Ni  Ni31  1  1.00199233  0.33655962  0.66953388  1
  Ni  Ni32  1  0.16875949  0.50413052  0.83544023  1
  Ni  Ni33  1  0.16964088  0.83655073  0.50202053  1
  Ni  Ni34  1  1.00238457  0.66881740  0.66928317  1
  Ni  Ni35  1  0.16989830  0.83622597  0.83657525  1
  Ni  Ni36  1  0.50234916  0.16994399  0.50188750  1
  Ni  Ni37  1  0.33719509  0.00280765  0.66967786  1
  Ni  Ni38  1  0.50324430  0.16919242  0.83551448  1
  Ni  Ni39  1  0.50259327  0.50194678  0.50373779  1
  Ni  Ni40  1  0.33647744  0.33548034  0.66914595  1
  Ni  Ni41  1  0.50380004  0.50333952  0.83504258  1
  Ni  Ni42  1  0.50092207  0.83606471  0.50364490  1
  Ni  Ni43  1  0.33585518  0.66967022  0.66949975  1
  Fe  Fe44  1  0.50168389  0.83610345  0.83611716  1
  Ni  Ni45  1  0.83625049  0.16998651  0.50233840  1
  Ni  Ni46  1  0.66863799  0.00320241  0.66886506  1
  Ni  Ni47  1  0.83619571  0.17032830  0.83616002  1
  Ni  Ni48  1  0.83576094  0.50166694  0.50339972  1
  Ni  Ni49  1  0.66948787  0.33522122  0.66970514  1
  Ni  Ni50  1  0.83539659  0.50196116  0.83647856  1
  Ni  Ni51  1  0.83739675  0.83630524  0.50333232  1
  Fe  Fe52  1  0.66886301  0.66838235  0.66912448  1
  Fe  Fe53  1  0.83664674  0.83574998  0.83627370  1
" 