3994,Ni79Cr21_13,-207.994626946308, 159.911380704984,Ni79Cr21,"# generated using pymatgen
 data_Cr7Ni2
_symmetry_space_group_name_H-M   'P 1'
_cell_length_a   7.57483792
_cell_length_b   7.57483792
_cell_length_c   10.71243852
_cell_angle_alpha   90.00000000
_cell_angle_beta   90.00000000
_cell_angle_gamma   90.00000000
_symmetry_Int_Tables_number   1
_chemical_formula_structural   Cr7Ni2
_chemical_formula_sum   'Cr42 Ni12'
_cell_volume   614.66011315
_cell_formula_units_Z   6
loop_
 _symmetry_equiv_pos_site_id
 _symmetry_equiv_pos_as_xyz
  1  'x, y, z'
loop_
 _atom_site_type_symbol
 _atom_site_label
 _atom_site_symmetry_multiplicity
 _atom_site_fract_x
 _atom_site_fract_y
 _atom_site_fract_z
 _atom_site_occupancy
  Cr  Cr0  1  -0.00567337  -0.00554769  -0.00588834  1
  Ni  Ni1  1  0.16503282  0.16002772  0.15945017  1
  Cr  Cr2  1  -0.00608780  -0.00491279  0.32619944  1
  Cr  Cr3  1  -0.00402436  0.32590899  -0.00603978  1
  Cr  Cr4  1  0.16081627  0.49223665  0.16034636  1
  Cr  Cr5  1  -0.00576082  0.32665276  0.32792436  1
  Cr  Cr6  1  0.99188939  0.65826969  0.99041777  1
  Cr  Cr7  1  0.15964591  0.82665109  0.16135674  1
  Ni  Ni8  1  -0.00358287  0.65874783  0.32751677  1
  Cr  Cr9  1  0.32749215  -0.00402306  -0.00668812  1
  Ni  Ni10  1  0.48838603  0.16154258  0.15943801  1
  Ni  Ni11  1  0.32580587  -0.00710365  0.32380095  1
  Ni  Ni12  1  0.32896137  0.32381129  -0.00461125  1
  Ni  Ni13  1  0.48932234  0.48991981  0.15968485  1
  Cr  Cr14  1  0.32608679  0.32630914  0.32407317  1
  Cr  Cr15  1  0.32768495  0.65644105  0.99276283  1
  Cr  Cr16  1  0.49096762  0.82535220  0.16227182  1
  Ni  Ni17  1  0.32382356  0.65900272  0.32608320  1
  Cr  Cr18  1  0.65735048  -0.00587081  -0.00567915  1
  Cr  Cr19  1  0.82692898  0.16022705  0.16054800  1
  Cr  Cr20  1  0.65754636  -0.00478152  0.32580836  1
  Cr  Cr21  1  0.65694446  0.32648149  -0.00532861  1
  Cr  Cr22  1  0.82582383  0.49342723  0.15951717  1
  Cr  Cr23  1  0.65814593  0.32528711  0.32526199  1
  Cr  Cr24  1  0.65884348  0.65783858  -0.00702484  1
  Cr  Cr25  1  0.82758389  0.82529679  0.16004160  1
  Cr  Cr26  1  0.65789300  0.65779529  0.32353357  1
  Cr  Cr27  1  0.16031864  0.16021665  0.49187415  1
  Cr  Cr28  1  0.99276175  -0.00631723  0.65892973  1
  Cr  Cr29  1  0.16218469  0.16067376  0.82864557  1
  Ni  Ni30  1  0.15934804  0.49504091  0.49009587  1
  Cr  Cr31  1  0.99271518  0.32711175  0.65648699  1
  Cr  Cr32  1  0.15940848  0.49112223  0.82689988  1
  Cr  Cr33  1  0.16105354  0.82528486  0.49026861  1
  Cr  Cr34  1  -0.00655691  0.65795257  0.66010978  1
  Cr  Cr35  1  0.15998089  0.82675005  0.82664296  1
  Cr  Cr36  1  0.49433134  0.16019891  0.49452730  1
  Cr  Cr37  1  0.32698753  -0.00629799  0.66087803  1
  Ni  Ni38  1  0.49355629  0.16296970  0.82657973  1
  Cr  Cr39  1  0.49113284  0.49251197  0.49261027  1
  Cr  Cr40  1  0.32667869  0.32675423  0.65972838  1
  Cr  Cr41  1  0.49367826  0.48949701  0.82646121  1
  Cr  Cr42  1  0.49062638  0.82610137  0.49048865  1
  Cr  Cr43  1  0.32506104  0.65839612  0.65784978  1
  Cr  Cr44  1  0.49239318  0.82816773  0.82493167  1
  Ni  Ni45  1  0.82502284  0.16137027  0.49440691  1
  Cr  Cr46  1  0.65940959  -0.00552508  0.65897070  1
  Cr  Cr47  1  0.82473864  0.16217145  0.82455683  1
  Cr  Cr48  1  0.82582877  0.49109773  0.49302173  1
  Ni  Ni49  1  0.66021152  0.32495105  0.66068899  1
  Ni  Ni50  1  0.82484316  0.49018990  0.82521344  1
  Cr  Cr51  1  0.82644298  0.82694470  0.49032616  1
  Cr  Cr52  1  0.65957901  0.65759802  0.66153527  1
  Cr  Cr53  1  0.82620608  0.82586851  0.82828305  1
" 