4769,Ni79Fe19Cr1_9,-241.022216115601, 202.064865838983,Ni79Fe19Cr1,"# generated using pymatgen
 data_CrFe5Ni21
_symmetry_space_group_name_H-M   'P 1'
_cell_length_a   7.43150818
_cell_length_b   7.43150818
_cell_length_c   10.50973966
_cell_angle_alpha   90.00000000
_cell_angle_beta   90.00000000
_cell_angle_gamma   90.00000000
_symmetry_Int_Tables_number   1
_chemical_formula_structural   CrFe5Ni21
_chemical_formula_sum   'Cr2 Fe10 Ni42'
_cell_volume   580.42469095
_cell_formula_units_Z   2
loop_
 _symmetry_equiv_pos_site_id
 _symmetry_equiv_pos_as_xyz
  1  'x, y, z'
loop_
 _atom_site_type_symbol
 _atom_site_label
 _atom_site_symmetry_multiplicity
 _atom_site_fract_x
 _atom_site_fract_y
 _atom_site_fract_z
 _atom_site_occupancy
  Ni  Ni0  1  1.00102878  1.00194432  1.00171649  1
  Ni  Ni1  1  0.16834830  0.16875302  0.16957958  1
  Ni  Ni2  1  1.00074289  0.00280610  0.33580484  1
  Fe  Fe3  1  0.00329842  0.33522689  0.00250987  1
  Ni  Ni4  1  0.16751399  0.50159256  0.16880350  1
  Ni  Ni5  1  0.00263900  0.33537058  0.33510881  1
  Ni  Ni6  1  0.00293501  0.66927248  0.00247715  1
  Ni  Ni7  1  0.17004671  0.83682367  0.16835797  1
  Ni  Ni8  1  1.00067660  0.66899663  0.33593395  1
  Ni  Ni9  1  0.33656616  0.00278478  0.00241068  1
  Fe  Fe10  1  0.50187232  0.16910058  0.16852152  1
  Fe  Fe11  1  0.33535194  0.00372558  0.33574383  1
  Ni  Ni12  1  0.33599535  0.33647613  0.00243228  1
  Fe  Fe13  1  0.50230815  0.50129566  0.16864323  1
  Ni  Ni14  1  0.33567307  0.33480024  0.33567886  1
  Ni  Ni15  1  0.33518065  0.66791398  1.00170876  1
  Ni  Ni16  1  0.50250645  0.83656423  0.16810515  1
  Cr  Cr17  1  0.33478623  0.66722298  0.33581671  1
  Ni  Ni18  1  0.66958245  0.00276248  1.00232972  1
  Ni  Ni19  1  0.83603662  0.17012650  0.16915044  1
  Ni  Ni20  1  0.67016761  0.00272088  0.33545254  1
  Fe  Fe21  1  0.66912371  0.33512708  1.00234819  1
  Ni  Ni22  1  0.83577552  0.50131000  0.16982930  1
  Ni  Ni23  1  0.66885242  0.33488034  0.33620295  1
  Fe  Fe24  1  0.66841857  0.67009502  1.00187724  1
  Fe  Fe25  1  0.83699207  0.83596669  0.16883465  1
  Ni  Ni26  1  0.67072705  0.66957615  0.33537499  1
  Ni  Ni27  1  0.16802470  0.16836227  0.50198930  1
  Ni  Ni28  1  0.00341011  0.00280122  0.66965372  1
  Ni  Ni29  1  0.16881278  0.16832976  0.83560447  1
  Ni  Ni30  1  0.16804864  0.50153751  0.50284837  1
  Ni  Ni31  1  0.00336587  0.33595607  0.66953557  1
  Ni  Ni32  1  0.16909943  0.50254086  0.83552101  1
  Ni  Ni33  1  0.16976457  0.83727326  0.50323264  1
  Ni  Ni34  1  0.00248794  0.66841431  0.66876371  1
  Ni  Ni35  1  0.16995800  0.83630068  0.83558434  1
  Fe  Fe36  1  0.50081326  0.17061298  0.50175377  1
  Ni  Ni37  1  0.33445825  0.00278909  0.66919421  1
  Ni  Ni38  1  0.50173756  0.16917300  0.83646111  1
  Ni  Ni39  1  0.50424511  0.50304784  0.50285644  1
  Ni  Ni40  1  0.33506409  0.33653860  0.66906066  1
  Ni  Ni41  1  0.50287372  0.50313023  0.83576620  1
  Ni  Ni42  1  0.50170823  0.83494837  0.50258424  1
  Ni  Ni43  1  0.33595333  0.66785406  0.66979220  1
  Ni  Ni44  1  0.50117645  0.83487709  0.83647990  1
  Ni  Ni45  1  0.83720879  0.17090429  0.50130606  1
  Cr  Cr46  1  0.66967391  1.00197655  0.66955037  1
  Ni  Ni47  1  0.83662897  0.17002699  0.83671654  1
  Ni  Ni48  1  0.83488097  0.50130591  0.50214058  1
  Fe  Fe49  1  0.66944201  0.33801410  0.66888757  1
  Ni  Ni50  1  0.83520323  0.50198776  0.83520127  1
  Fe  Fe51  1  0.83716247  0.83420969  0.50181719  1
  Ni  Ni52  1  0.66873523  0.66781130  0.66934815  1
  Ni  Ni53  1  0.83603744  0.83516176  0.83671830  1
" 