858,Ni79Fe19Cr1_17,-241.177867880438, 202.233024344677,Ni79Fe19Cr1,"# generated using pymatgen
 data_CrFe5Ni21
_symmetry_space_group_name_H-M   'P 1'
_cell_length_a   7.43307504
_cell_length_b   7.43307504
_cell_length_c   10.51195554
_cell_angle_alpha   90.00000000
_cell_angle_beta   90.00000000
_cell_angle_gamma   90.00000000
_symmetry_Int_Tables_number   1
_chemical_formula_structural   CrFe5Ni21
_chemical_formula_sum   'Cr2 Fe10 Ni42'
_cell_volume   580.79189908
_cell_formula_units_Z   2
loop_
 _symmetry_equiv_pos_site_id
 _symmetry_equiv_pos_as_xyz
  1  'x, y, z'
loop_
 _atom_site_type_symbol
 _atom_site_label
 _atom_site_symmetry_multiplicity
 _atom_site_fract_x
 _atom_site_fract_y
 _atom_site_fract_z
 _atom_site_occupancy
  Ni  Ni0  1  1.00225691  1.00084591  1.00213433  1
  Ni  Ni1  1  0.16793574  0.16768942  0.16783910  1
  Ni  Ni2  1  0.00422813  1.00156462  0.33537288  1
  Fe  Fe3  1  1.00048489  0.33497211  0.00241521  1
  Cr  Cr4  1  0.16820552  0.50317337  0.17084644  1
  Ni  Ni5  1  1.00212800  0.33437928  0.33652094  1
  Ni  Ni6  1  0.99982675  0.67117710  1.00226508  1
  Ni  Ni7  1  0.16898817  0.83740604  0.16916813  1
  Ni  Ni8  1  0.99912598  0.67093081  0.33579853  1
  Fe  Fe9  1  0.33522025  0.99963709  0.00313607  1
  Fe  Fe10  1  0.50240474  0.16879530  0.16924318  1
  Ni  Ni11  1  0.33444154  0.00411616  0.33450222  1
  Ni  Ni12  1  0.33604157  0.33513608  0.00274219  1
  Ni  Ni13  1  0.50340779  0.50293901  0.16810168  1
  Ni  Ni14  1  0.33707971  0.33299806  0.33672282  1
  Fe  Fe15  1  0.33629023  0.67043245  1.00157049  1
  Ni  Ni16  1  0.50258020  0.83517019  0.16883022  1
  Fe  Fe17  1  0.33651374  0.66969423  0.33664820  1
  Ni  Ni18  1  0.67069006  0.99979909  0.00365445  1
  Ni  Ni19  1  0.83618239  0.16854305  0.16933553  1
  Fe  Fe20  1  0.66995240  0.00264124  0.33584057  1
  Fe  Fe21  1  0.67114220  0.33632626  0.00266999  1
  Ni  Ni22  1  0.83397629  0.50190197  0.16872570  1
  Ni  Ni23  1  0.66753345  0.33782781  0.33447918  1
  Ni  Ni24  1  0.67013866  0.66914339  1.00153035  1
  Ni  Ni25  1  0.83538322  0.83644373  0.16903841  1
  Ni  Ni26  1  0.66995460  0.66819058  0.33536800  1
  Ni  Ni27  1  0.16876612  0.16868889  0.50305409  1
  Ni  Ni28  1  0.00319518  1.00021550  0.66932705  1
  Fe  Fe29  1  0.16775758  0.16915787  0.83562412  1
  Ni  Ni30  1  0.16885010  0.50244188  0.50188753  1
  Fe  Fe31  1  1.00090882  0.33541383  0.66805919  1
  Ni  Ni32  1  0.16880144  0.50278108  0.83547980  1
  Ni  Ni33  1  0.16923864  0.83578763  0.50154445  1
  Ni  Ni34  1  1.00103101  0.66996893  0.66898310  1
  Ni  Ni35  1  0.16879740  0.83461466  0.83617214  1
  Ni  Ni36  1  0.50276848  0.16860341  0.50129963  1
  Ni  Ni37  1  0.33387632  0.00360742  0.66927200  1
  Cr  Cr38  1  0.50483314  0.16742713  0.83566557  1
  Ni  Ni39  1  0.50221646  0.50225861  0.50269225  1
  Ni  Ni40  1  0.33544902  0.33577651  0.66750556  1
  Ni  Ni41  1  0.50144029  0.50338884  0.83589987  1
  Ni  Ni42  1  0.50207422  0.83631629  0.50297100  1
  Fe  Fe43  1  0.33591879  0.66998044  0.66890945  1
  Ni  Ni44  1  0.50243962  0.83467707  0.83514592  1
  Ni  Ni45  1  0.83517872  0.16899555  0.50238358  1
  Ni  Ni46  1  0.66973923  1.00085998  0.66734707  1
  Ni  Ni47  1  0.83669088  0.16816562  0.83505652  1
  Ni  Ni48  1  0.83562361  0.50174260  0.50186430  1
  Ni  Ni49  1  0.66723102  0.33777994  0.66882103  1
  Ni  Ni50  1  0.83644011  0.50171335  0.83610485  1
  Ni  Ni51  1  0.83569001  0.83615287  0.50219193  1
  Ni  Ni52  1  0.67073924  0.66825281  0.66999111  1
  Ni  Ni53  1  0.83559379  0.83675934  0.83564939  1
" 