8554,Ni79Fe19Cr1_5,-241.215851814032, 202.236928938072,Ni79Fe19Cr1,"# generated using pymatgen
 data_CrFe5Ni21
_symmetry_space_group_name_H-M   'P 1'
_cell_length_a   7.42982123
_cell_length_b   7.42982123
_cell_length_c   10.50735395
_cell_angle_alpha   90.00000000
_cell_angle_beta   90.00000000
_cell_angle_gamma   90.00000000
_symmetry_Int_Tables_number   1
_chemical_formula_structural   CrFe5Ni21
_chemical_formula_sum   'Cr2 Fe10 Ni42'
_cell_volume   580.02951196
_cell_formula_units_Z   2
loop_
 _symmetry_equiv_pos_site_id
 _symmetry_equiv_pos_as_xyz
  1  'x, y, z'
loop_
 _atom_site_type_symbol
 _atom_site_label
 _atom_site_symmetry_multiplicity
 _atom_site_fract_x
 _atom_site_fract_y
 _atom_site_fract_z
 _atom_site_occupancy
  Ni  Ni0  1  0.00502903  1.00190556  1.00165600  1
  Ni  Ni1  1  0.16930407  0.16922701  0.16910977  1
  Ni  Ni2  1  0.00381078  1.00198931  0.33662883  1
  Ni  Ni3  1  0.00324325  0.33654494  1.00221342  1
  Ni  Ni4  1  0.16992538  0.50171764  0.17004749  1
  Ni  Ni5  1  0.00305524  0.33611779  0.33563946  1
  Ni  Ni6  1  0.00263041  0.66913830  0.00250606  1
  Fe  Fe7  1  0.16871319  0.83612545  0.16924555  1
  Ni  Ni8  1  1.00096050  0.66933971  0.33543275  1
  Ni  Ni9  1  0.33623372  0.00311362  0.00291976  1
  Ni  Ni10  1  0.50202770  0.16949198  0.16999356  1
  Ni  Ni11  1  0.33589470  0.00315857  0.33549304  1
  Ni  Ni12  1  0.33551281  0.33355250  1.00199105  1
  Ni  Ni13  1  0.50101604  0.50183770  0.17015752  1
  Ni  Ni14  1  0.33548903  0.33392133  0.33671168  1
  Fe  Fe15  1  0.33379752  0.66764605  0.00305530  1
  Ni  Ni16  1  0.50180268  0.83611749  0.17008078  1
  Fe  Fe17  1  0.33598450  0.66881070  0.33584320  1
  Fe  Fe18  1  0.67062430  0.00507789  0.00337191  1
  Ni  Ni19  1  0.83675319  0.16873054  0.16934455  1
  Ni  Ni20  1  0.66848750  1.00142709  0.33457046  1
  Ni  Ni21  1  0.66843230  0.33619719  0.00256039  1
  Ni  Ni22  1  0.83617263  0.50214520  0.17048837  1
  Ni  Ni23  1  0.66848914  0.33663736  0.33567952  1
  Cr  Cr24  1  0.67074831  0.66946533  0.00251543  1
  Ni  Ni25  1  0.83652080  0.83725737  0.17071147  1
  Ni  Ni26  1  0.66991759  0.66960688  0.33594110  1
  Ni  Ni27  1  0.17033222  0.16688610  0.50205655  1
  Fe  Fe28  1  1.00171130  0.00262321  0.66876990  1
  Ni  Ni29  1  0.17062530  0.16758909  0.83620726  1
  Fe  Fe30  1  0.16731549  0.50295933  0.50145728  1
  Cr  Cr31  1  0.00286206  0.33758658  0.66973243  1
  Ni  Ni32  1  0.17133463  0.50392692  0.83566257  1
  Ni  Ni33  1  0.16922286  0.83667461  0.50206964  1
  Ni  Ni34  1  1.00151366  0.67113663  0.66935323  1
  Ni  Ni35  1  0.16897761  0.83574456  0.83591630  1
  Fe  Fe36  1  0.50388606  0.16855638  0.50252098  1
  Ni  Ni37  1  0.33599007  1.00231951  0.66912416  1
  Ni  Ni38  1  0.50228413  0.17019754  0.83548794  1
  Ni  Ni39  1  0.50186919  0.50234843  0.50243763  1
  Ni  Ni40  1  0.33696495  0.33356425  0.66877842  1
  Ni  Ni41  1  0.50129450  0.50121198  0.83489835  1
  Fe  Fe42  1  0.50375011  0.83654027  0.50164357  1
  Fe  Fe43  1  0.33664363  0.66857078  0.66875487  1
  Fe  Fe44  1  0.50173826  0.83688193  0.83585633  1
  Ni  Ni45  1  0.83545382  0.16788274  0.50127476  1
  Ni  Ni46  1  0.66680081  1.00124995  0.67016987  1
  Ni  Ni47  1  0.83442920  0.16793447  0.83697208  1
  Ni  Ni48  1  0.83238038  0.50358044  0.50146427  1
  Ni  Ni49  1  0.66743907  0.33632780  0.66932262  1
  Ni  Ni50  1  0.83496241  0.50321698  0.83554042  1
  Ni  Ni51  1  0.83685462  0.83639234  0.50269419  1
  Ni  Ni52  1  0.67020497  0.66991085  0.66913939  1
  Ni  Ni53  1  0.83786322  0.83716665  0.83406739  1
" 