19,Ni79Fe19Cr1_3,-240.959839452803, 201.444648890555,Ni79Fe19Cr1,"# generated using pymatgen
 data_CrFe5Ni21
_symmetry_space_group_name_H-M   'P 1'
_cell_length_a   7.43007994
_cell_length_b   7.43007994
_cell_length_c   10.50771983
_cell_angle_alpha   90.00000000
_cell_angle_beta   90.00000000
_cell_angle_gamma   90.00000000
_symmetry_Int_Tables_number   1
_chemical_formula_structural   CrFe5Ni21
_chemical_formula_sum   'Cr2 Fe10 Ni42'
_cell_volume   580.09010512
_cell_formula_units_Z   2
loop_
 _symmetry_equiv_pos_site_id
 _symmetry_equiv_pos_as_xyz
  1  'x, y, z'
loop_
 _atom_site_type_symbol
 _atom_site_label
 _atom_site_symmetry_multiplicity
 _atom_site_fract_x
 _atom_site_fract_y
 _atom_site_fract_z
 _atom_site_occupancy
  Ni  Ni0  1  0.00259562  1.00236868  1.00172085  1
  Ni  Ni1  1  0.16966679  0.16941797  0.16965432  1
  Ni  Ni2  1  1.00174809  0.00305608  0.33704422  1
  Fe  Fe3  1  1.00242568  0.33720185  0.00277888  1
  Ni  Ni4  1  0.16837731  0.50204508  0.16892043  1
  Ni  Ni5  1  0.00253348  0.33442982  0.33424975  1
  Ni  Ni6  1  0.00308178  0.66993173  0.00278673  1
  Ni  Ni7  1  0.16828786  0.83600106  0.16934606  1
  Ni  Ni8  1  1.00196543  0.66997667  0.33453273  1
  Fe  Fe9  1  0.33574599  1.00163376  1.00195972  1
  Ni  Ni10  1  0.50182905  0.16924477  0.16939512  1
  Fe  Fe11  1  0.33527571  1.00212541  0.33625102  1
  Fe  Fe12  1  0.33582190  0.33661341  0.00252698  1
  Ni  Ni13  1  0.50295044  0.50204901  0.16929001  1
  Ni  Ni14  1  0.33604435  0.33548329  0.33517048  1
  Ni  Ni15  1  0.33572000  0.66905345  1.00243962  1
  Ni  Ni16  1  0.50321230  0.83616787  0.16905424  1
  Ni  Ni17  1  0.33678817  0.66909849  0.33482223  1
  Fe  Fe18  1  0.66915497  1.00104599  0.00248842  1
  Fe  Fe19  1  0.83606458  0.16884382  0.16980978  1
  Ni  Ni20  1  0.66976305  1.00231367  0.33500105  1
  Ni  Ni21  1  0.66879672  0.33569041  0.00271435  1
  Ni  Ni22  1  0.83613555  0.50342843  0.16957187  1
  Fe  Fe23  1  0.66945666  0.33661739  0.33610347  1
  Ni  Ni24  1  0.66866117  0.66852464  1.00194368  1
  Ni  Ni25  1  0.83596260  0.83487826  0.16933713  1
  Ni  Ni26  1  0.66870942  0.66988584  0.33621523  1
  Ni  Ni27  1  0.17011587  0.16663109  0.50169124  1
  Fe  Fe28  1  0.00333849  1.00087614  0.66894970  1
  Ni  Ni29  1  0.17071147  0.16861031  0.83611878  1
  Cr  Cr30  1  0.16968024  0.50301159  0.50159794  1
  Cr  Cr31  1  1.00168799  0.33559399  0.67031917  1
  Ni  Ni32  1  0.16933316  0.50280382  0.83691264  1
  Ni  Ni33  1  0.16842037  0.83796114  0.50270151  1
  Ni  Ni34  1  0.00256468  0.67145535  0.67014438  1
  Ni  Ni35  1  0.16821075  0.83605011  0.83541527  1
  Ni  Ni36  1  0.50246324  0.16933838  0.50283602  1
  Ni  Ni37  1  0.33672485  1.00228097  0.66873780  1
  Ni  Ni38  1  0.50178478  0.16956292  0.83523205  1
  Ni  Ni39  1  0.50462005  0.50174976  0.50281251  1
  Ni  Ni40  1  0.33871616  0.33488293  0.67063969  1
  Ni  Ni41  1  0.50290120  0.50158819  0.83536115  1
  Ni  Ni42  1  0.50303633  0.83637487  0.50249222  1
  Ni  Ni43  1  0.33594357  0.67029861  0.67020136  1
  Ni  Ni44  1  0.50307075  0.83630965  0.83591536  1
  Ni  Ni45  1  0.83488474  0.16821530  0.50163371  1
  Ni  Ni46  1  0.66839331  0.00333573  0.67002466  1
  Fe  Fe47  1  0.83456000  0.16844460  0.83611604  1
  Ni  Ni48  1  0.83329935  0.50344419  0.50157452  1
  Ni  Ni49  1  0.66723608  0.33466451  0.66820133  1
  Ni  Ni50  1  0.83522775  0.50408951  0.83631540  1
  Ni  Ni51  1  0.83600602  0.83580427  0.50267733  1
  Fe  Fe52  1  0.66844796  0.66889839  0.66913673  1
  Ni  Ni53  1  0.83618214  0.83493277  0.83544908  1
" 