2113,Ni79Fe9Cr10_15,-236.831221223963, 181.495227088372,Ni79Fe9Cr10,"# generated using pymatgen
 data_Cr6Fe5Ni43
_symmetry_space_group_name_H-M   'P 1'
_cell_length_a   7.44937505
_cell_length_b   7.44937505
_cell_length_c   10.53500722
_cell_angle_alpha   90.00000000
_cell_angle_beta   90.00000000
_cell_angle_gamma   90.00000000
_symmetry_Int_Tables_number   1
_chemical_formula_structural   Cr6Fe5Ni43
_chemical_formula_sum   'Cr6 Fe5 Ni43'
_cell_volume   584.62114236
_cell_formula_units_Z   1
loop_
 _symmetry_equiv_pos_site_id
 _symmetry_equiv_pos_as_xyz
  1  'x, y, z'
loop_
 _atom_site_type_symbol
 _atom_site_label
 _atom_site_symmetry_multiplicity
 _atom_site_fract_x
 _atom_site_fract_y
 _atom_site_fract_z
 _atom_site_occupancy
  Ni  Ni0  1  1.00112448  1.00107831  1.00072382  1
  Ni  Ni1  1  0.16779327  0.16807218  0.16762714  1
  Ni  Ni2  1  1.00092374  0.00142212  0.33474380  1
  Ni  Ni3  1  0.00158595  0.33409209  1.00078775  1
  Ni  Ni4  1  0.16779537  0.50037135  0.16718319  1
  Ni  Ni5  1  0.00145431  0.33415344  0.33511994  1
  Ni  Ni6  1  0.00158669  0.66838774  0.00118705  1
  Ni  Ni7  1  0.16695919  0.83511437  0.16704447  1
  Ni  Ni8  1  0.00145493  0.66798229  0.33515879  1
  Ni  Ni9  1  0.33314854  1.00088213  0.00254095  1
  Ni  Ni10  1  0.50182720  0.16807228  0.16875014  1
  Ni  Ni11  1  0.33479824  0.00301153  0.33538060  1
  Ni  Ni12  1  0.33404444  0.33564550  0.00205161  1
  Ni  Ni13  1  0.50099187  0.49953588  0.16504290  1
  Ni  Ni14  1  0.33350436  0.33180080  0.33363971  1
  Ni  Ni15  1  0.33423981  0.66703065  0.00186391  1
  Ni  Ni16  1  0.50182660  0.83594981  0.16607652  1
  Cr  Cr17  1  0.33188209  0.66854023  0.33327442  1
  Ni  Ni18  1  0.66928659  1.00088173  0.00349941  1
  Ni  Ni19  1  0.83393868  0.16723579  0.16740163  1
  Ni  Ni20  1  0.66783559  0.00301260  0.33454800  1
  Ni  Ni21  1  0.66793114  0.33518465  0.00163107  1
  Fe  Fe22  1  0.83538434  0.50032920  0.16696551  1
  Ni  Ni23  1  0.66860058  0.33127027  0.33416235  1
  Ni  Ni24  1  0.66773528  0.66749146  0.00144314  1
  Ni  Ni25  1  0.83477307  0.83595117  0.16681878  1
  Cr  Cr26  1  0.66997785  0.66926573  0.33399357  1
  Ni  Ni27  1  0.16711895  0.16750625  0.50136910  1
  Ni  Ni28  1  0.00252658  1.00104756  0.66809047  1
  Ni  Ni29  1  0.16582401  0.16766031  0.83456420  1
  Ni  Ni30  1  0.16533059  0.50014857  0.50233694  1
  Ni  Ni31  1  0.00189425  0.33444087  0.66764865  1
  Ni  Ni32  1  0.16716942  0.50096212  0.83403720  1
  Ni  Ni33  1  0.16712237  0.83590333  0.50220981  1
  Ni  Ni34  1  0.00189434  0.66806985  0.66721217  1
  Ni  Ni35  1  0.16608440  0.83493632  0.83430564  1
  Fe  Fe36  1  0.50058384  0.16714680  0.49967211  1
  Fe  Fe37  1  0.33063778  1.00085466  0.66625973  1
  Cr  Cr38  1  0.50024909  0.17038409  0.83524221  1
  Cr  Cr39  1  0.50172701  0.50015906  0.50386772  1
  Ni  Ni40  1  0.33291509  0.33573177  0.66786570  1
  Ni  Ni41  1  0.50233653  0.50122114  0.83442971  1
  Ni  Ni42  1  0.50085621  0.83666488  0.50202360  1
  Ni  Ni43  1  0.33318023  0.66704501  0.66799065  1
  Cr  Cr44  1  0.50025052  0.83177076  0.83573509  1
  Ni  Ni45  1  0.83557837  0.16853716  0.50082026  1
  Cr  Cr46  1  0.67004299  1.00096726  0.66570418  1
  Fe  Fe47  1  0.83753581  0.16962469  0.83539230  1
  Ni  Ni48  1  0.83633783  0.50014767  0.50162688  1
  Ni  Ni49  1  0.66874957  0.33636229  0.66776433  1
  Ni  Ni50  1  0.83405336  0.50096173  0.83423038  1
  Ni  Ni51  1  0.83557736  0.83487261  0.50166099  1
  Ni  Ni52  1  0.66848531  0.66641527  0.66789025  1
  Fe  Fe53  1  0.83758761  0.83274627  0.83544315  1
" 