7277,Ni79Cr21_12,-207.783718638683, 154.852553836667,Ni79Cr21,"# generated using pymatgen
 data_Cr7Ni2
_symmetry_space_group_name_H-M   'P 1'
_cell_length_a   7.57760249
_cell_length_b   7.57760249
_cell_length_c   10.71634821
_cell_angle_alpha   90.00000000
_cell_angle_beta   90.00000000
_cell_angle_gamma   90.00000000
_symmetry_Int_Tables_number   1
_chemical_formula_structural   Cr7Ni2
_chemical_formula_sum   'Cr42 Ni12'
_cell_volume   615.33335149
_cell_formula_units_Z   6
loop_
 _symmetry_equiv_pos_site_id
 _symmetry_equiv_pos_as_xyz
  1  'x, y, z'
loop_
 _atom_site_type_symbol
 _atom_site_label
 _atom_site_symmetry_multiplicity
 _atom_site_fract_x
 _atom_site_fract_y
 _atom_site_fract_z
 _atom_site_occupancy
  Ni  Ni0  1  -0.00646776  -0.00697533  -0.00701535  1
  Cr  Cr1  1  0.15912723  0.15724992  0.16215148  1
  Ni  Ni2  1  -0.00544437  -0.00315741  0.32656786  1
  Cr  Cr3  1  -0.00676283  0.32390137  0.99262813  1
  Cr  Cr4  1  0.16115544  0.49226114  0.15997363  1
  Ni  Ni5  1  -0.00361602  0.32119640  0.32795399  1
  Cr  Cr6  1  -0.00553130  0.66045212  -0.00582942  1
  Cr  Cr7  1  0.15961911  0.82852854  0.15810926  1
  Cr  Cr8  1  -0.00666795  0.65944030  0.32661759  1
  Cr  Cr9  1  0.32555451  0.99254458  0.99071807  1
  Cr  Cr10  1  0.49130693  0.15836495  0.16303896  1
  Ni  Ni11  1  0.32498571  -0.00499503  0.32902272  1
  Cr  Cr12  1  0.32569877  0.32603871  -0.00568350  1
  Cr  Cr13  1  0.49002233  0.49226475  0.15901207  1
  Ni  Ni14  1  0.32171513  0.32165294  0.32680998  1
  Ni  Ni15  1  0.32747612  0.66203885  0.99152844  1
  Cr  Cr16  1  0.49127274  0.82762149  0.16080720  1
  Cr  Cr17  1  0.32586478  0.66046331  0.32649842  1
  Cr  Cr18  1  0.65948630  -0.00720271  0.99205523  1
  Cr  Cr19  1  0.82724870  0.15695266  0.16046550  1
  Ni  Ni20  1  0.65800464  -0.00717725  0.32738666  1
  Cr  Cr21  1  0.65903658  0.32494891  -0.00704676  1
  Cr  Cr22  1  0.82695120  0.49158195  0.16110061  1
  Cr  Cr23  1  0.65905889  0.32475166  0.32460922  1
  Cr  Cr24  1  0.65860594  0.66030248  -0.00715264  1
  Cr  Cr25  1  0.82771552  0.82981106  0.16154872  1
  Cr  Cr26  1  0.65887138  0.66148294  0.32816317  1
  Ni  Ni27  1  0.15979365  0.15804535  0.49094843  1
  Cr  Cr28  1  -0.00392989  -0.00580592  0.65904003  1
  Cr  Cr29  1  0.15890008  0.15800776  0.82408877  1
  Cr  Cr30  1  0.15919944  0.48910603  0.49255262  1
  Ni  Ni31  1  -0.00461855  0.32281828  0.65752210  1
  Cr  Cr32  1  0.15999444  0.49316410  0.82562129  1
  Cr  Cr33  1  0.16097432  0.83079964  0.49151679  1
  Cr  Cr34  1  -0.00643980  0.65887657  0.65749316  1
  Cr  Cr35  1  0.16079134  0.82684572  0.82816174  1
  Cr  Cr36  1  0.48978362  0.15766147  0.49051261  1
  Ni  Ni37  1  0.32652668  0.99168659  0.65781006  1
  Cr  Cr38  1  0.49143319  0.15748333  0.82525197  1
  Cr  Cr39  1  0.49108123  0.49254683  0.49156830  1
  Cr  Cr40  1  0.32378611  0.32174690  0.65764674  1
  Cr  Cr41  1  0.49116485  0.49395943  0.82739363  1
  Ni  Ni42  1  0.49037810  0.83082148  0.49126959  1
  Cr  Cr43  1  0.32704465  0.66312436  0.65891639  1
  Ni  Ni44  1  0.49029033  0.82644802  0.82531553  1
  Cr  Cr45  1  0.82792934  0.15910232  0.49197651  1
  Cr  Cr46  1  0.65585848  0.99118819  0.65932918  1
  Cr  Cr47  1  0.82741172  0.15865803  0.82603162  1
  Cr  Cr48  1  0.82749087  0.49050880  0.49432764  1
  Cr  Cr49  1  0.66008930  0.32482169  0.66089867  1
  Cr  Cr50  1  0.82699426  0.49185229  0.82276589  1
  Cr  Cr51  1  0.82535778  0.82915620  0.48995505  1
  Cr  Cr52  1  0.65795676  0.66183007  0.65703340  1
  Cr  Cr53  1  0.82654832  0.82728150  0.82709138  1
" 