5799,Ni79Fe5Cr15_6,-232.941920629183, 165.068129111056,Ni79Fe5Cr15,"# generated using pymatgen
 data_Cr5FeNi21
_symmetry_space_group_name_H-M   'P 1'
_cell_length_a   7.46801423
_cell_length_b   7.46801423
_cell_length_c   10.56136701
_cell_angle_alpha   90.00000000
_cell_angle_beta   90.00000000
_cell_angle_gamma   90.00000000
_symmetry_Int_Tables_number   1
_chemical_formula_structural   Cr5FeNi21
_chemical_formula_sum   'Cr10 Fe2 Ni42'
_cell_volume   589.02049736
_cell_formula_units_Z   2
loop_
 _symmetry_equiv_pos_site_id
 _symmetry_equiv_pos_as_xyz
  1  'x, y, z'
loop_
 _atom_site_type_symbol
 _atom_site_label
 _atom_site_symmetry_multiplicity
 _atom_site_fract_x
 _atom_site_fract_y
 _atom_site_fract_z
 _atom_site_occupancy
  Cr  Cr0  1  0.99990393  0.00030522  0.00201030  1
  Ni  Ni1  1  0.16592300  0.16905688  0.16751644  1
  Ni  Ni2  1  0.99829217  0.00002959  0.33144151  1
  Ni  Ni3  1  0.99962753  0.33519605  0.99931917  1
  Ni  Ni4  1  0.16605649  0.49913242  0.16721907  1
  Ni  Ni5  1  0.00078482  0.33432560  0.33300052  1
  Ni  Ni6  1  0.99886637  0.66375287  0.00083850  1
  Ni  Ni7  1  0.16434602  0.83156565  0.16788791  1
  Ni  Ni8  1  0.99887813  0.66547575  0.33238701  1
  Cr  Cr9  1  0.33414209  0.00095161  0.00020888  1
  Ni  Ni10  1  0.50169807  0.16842003  0.16665803  1
  Cr  Cr11  1  0.33398993  0.00064059  0.33225607  1
  Ni  Ni12  1  0.33352747  0.33320876  0.00019118  1
  Ni  Ni13  1  0.50067331  0.49879317  0.16710068  1
  Ni  Ni14  1  0.33226280  0.33392849  0.33236101  1
  Cr  Cr15  1  0.33269957  0.66552248  0.00010685  1
  Ni  Ni16  1  0.50297060  0.83255877  0.16673844  1
  Ni  Ni17  1  0.33330748  0.66493118  0.33164272  1
  Ni  Ni18  1  0.66564044  0.00114104  0.00093635  1
  Ni  Ni19  1  0.83212193  0.16678317  0.16637740  1
  Ni  Ni20  1  0.66725188  0.99899554  0.33258680  1
  Ni  Ni21  1  0.66669217  0.33354647  0.99980039  1
  Ni  Ni22  1  0.83306279  0.50034940  0.16620143  1
  Ni  Ni23  1  0.66674809  0.33338249  0.33145286  1
  Ni  Ni24  1  0.66760069  0.66514755  0.00072962  1
  Ni  Ni25  1  0.83247301  0.83269677  0.16795195  1
  Ni  Ni26  1  0.66761898  0.66741074  0.33281491  1
  Ni  Ni27  1  0.16671907  0.16813490  0.50038806  1
  Ni  Ni28  1  0.00123767  0.00048232  0.66721937  1
  Ni  Ni29  1  0.16717182  0.16717862  0.83191030  1
  Ni  Ni30  1  0.16420372  0.49904696  0.49957570  1
  Ni  Ni31  1  0.00099584  0.33434149  0.66747290  1
  Ni  Ni32  1  0.16519930  0.49978508  0.83299046  1
  Cr  Cr33  1  0.16525624  0.83249537  0.50114749  1
  Ni  Ni34  1  0.99991777  0.66510510  0.66654842  1
  Ni  Ni35  1  0.16637427  0.83286272  0.83053772  1
  Ni  Ni36  1  0.49916145  0.16399467  0.49896837  1
  Ni  Ni37  1  0.33395945  0.99880844  0.66763522  1
  Ni  Ni38  1  0.50001667  0.16644404  0.83409030  1
  Cr  Cr39  1  0.49958030  0.50120048  0.49751316  1
  Cr  Cr40  1  0.33103788  0.33256638  0.66648645  1
  Ni  Ni41  1  0.50092201  0.49942705  0.83445814  1
  Ni  Ni42  1  0.50283492  0.83424461  0.50223985  1
  Ni  Ni43  1  0.33303170  0.66896571  0.66843904  1
  Fe  Fe44  1  0.49944351  0.83258704  0.83153080  1
  Cr  Cr45  1  0.83404659  0.16524949  0.49973198  1
  Ni  Ni46  1  0.66456369  0.99784961  0.66635474  1
  Fe  Fe47  1  0.83393990  0.16876427  0.83375445  1
  Ni  Ni48  1  0.83564025  0.50279156  0.49972893  1
  Cr  Cr49  1  0.66874248  0.33404452  0.66768722  1
  Ni  Ni50  1  0.83370678  0.50017972  0.83385026  1
  Ni  Ni51  1  0.83149237  0.83181794  0.49970498  1
  Ni  Ni52  1  0.66685066  0.66866931  0.66633044  1
  Cr  Cr53  1  0.83329920  0.83221960  0.83247455  1
" 