5139,Ni79Fe5Cr15_9,-232.983762682509, 165.0943272564,Ni79Fe5Cr15,"# generated using pymatgen
 data_Cr5FeNi21
_symmetry_space_group_name_H-M   'P 1'
_cell_length_a   7.46671465
_cell_length_b   7.46671465
_cell_length_c   10.55952913
_cell_angle_alpha   90.00000000
_cell_angle_beta   90.00000000
_cell_angle_gamma   90.00000000
_symmetry_Int_Tables_number   1
_chemical_formula_structural   Cr5FeNi21
_chemical_formula_sum   'Cr10 Fe2 Ni42'
_cell_volume   588.71304809
_cell_formula_units_Z   2
loop_
 _symmetry_equiv_pos_site_id
 _symmetry_equiv_pos_as_xyz
  1  'x, y, z'
loop_
 _atom_site_type_symbol
 _atom_site_label
 _atom_site_symmetry_multiplicity
 _atom_site_fract_x
 _atom_site_fract_y
 _atom_site_fract_z
 _atom_site_occupancy
  Ni  Ni0  1  1.00001650  0.99971618  0.99982571  1
  Ni  Ni1  1  0.16800348  0.16782496  0.16485508  1
  Cr  Cr2  1  0.99828274  0.99755512  0.33269906  1
  Ni  Ni3  1  0.99974134  0.33355073  0.99947833  1
  Fe  Fe4  1  0.16699856  0.49963503  0.16716471  1
  Ni  Ni5  1  0.99992166  0.33647936  0.33356055  1
  Cr  Cr6  1  0.99874288  0.66670679  0.00028339  1
  Ni  Ni7  1  0.16665650  0.83262528  0.16599683  1
  Ni  Ni8  1  0.00131780  0.66503471  0.33318602  1
  Ni  Ni9  1  0.33258647  0.99924389  0.00069138  1
  Ni  Ni10  1  0.49911079  0.16933292  0.16638703  1
  Cr  Cr11  1  0.33502879  0.00057352  0.33432224  1
  Ni  Ni12  1  0.33353839  0.33500272  0.00217390  1
  Ni  Ni13  1  0.49991415  0.49819108  0.16568971  1
  Ni  Ni14  1  0.33440268  0.33561904  0.33201611  1
  Ni  Ni15  1  0.33397363  0.66584664  0.99876097  1
  Cr  Cr16  1  0.50065878  0.83195870  0.16495878  1
  Ni  Ni17  1  0.33120017  0.66395671  0.33418326  1
  Ni  Ni18  1  0.66762373  0.99915794  0.99975101  1
  Cr  Cr19  1  0.83239497  0.16790593  0.16598727  1
  Ni  Ni20  1  0.66686061  0.00181946  0.33498445  1
  Ni  Ni21  1  0.66671417  0.33529522  0.99983343  1
  Ni  Ni22  1  0.83229196  0.49996137  0.16717128  1
  Ni  Ni23  1  0.66567521  0.33324475  0.33444080  1
  Ni  Ni24  1  0.66624545  0.66557441  0.99882674  1
  Ni  Ni25  1  0.83444813  0.83184710  0.16596678  1
  Cr  Cr26  1  0.66851556  0.66641479  0.33387159  1
  Cr  Cr27  1  0.16491376  0.16777614  0.50198246  1
  Ni  Ni28  1  0.99781920  0.99782018  0.66728452  1
  Cr  Cr29  1  0.16409914  0.16567079  0.83361615  1
  Ni  Ni30  1  0.16617135  0.50323449  0.49847905  1
  Ni  Ni31  1  0.99663248  0.33568153  0.66678223  1
  Ni  Ni32  1  0.16659473  0.50204035  0.83347268  1
  Ni  Ni33  1  0.16599976  0.82971752  0.50184662  1
  Ni  Ni34  1  0.99975420  0.66663896  0.66626412  1
  Ni  Ni35  1  0.16747162  0.83227829  0.83240772  1
  Ni  Ni36  1  0.50315865  0.16768591  0.49914474  1
  Ni  Ni37  1  0.33454397  0.99611343  0.66572346  1
  Cr  Cr38  1  0.50209860  0.16605585  0.83496621  1
  Ni  Ni39  1  0.50026277  0.49984595  0.49998273  1
  Cr  Cr40  1  0.33500267  0.33641939  0.66644943  1
  Ni  Ni41  1  0.50114613  0.50293430  0.83465303  1
  Fe  Fe42  1  0.50088973  0.83192613  0.50200106  1
  Ni  Ni43  1  0.33324533  0.66776053  0.66672397  1
  Ni  Ni44  1  0.50002915  0.83128842  0.83283668  1
  Ni  Ni45  1  0.83066047  0.16751679  0.50104352  1
  Ni  Ni46  1  0.66783175  0.99924991  0.66527690  1
  Ni  Ni47  1  0.83322564  0.16680614  0.83284509  1
  Ni  Ni48  1  0.83363473  0.50002094  0.50066890  1
  Ni  Ni49  1  0.66894037  0.33422947  0.66583379  1
  Ni  Ni50  1  0.83223433  0.49958140  0.83222175  1
  Ni  Ni51  1  0.83435355  0.83269291  0.50087749  1
  Ni  Ni52  1  0.66716481  0.66644157  0.66745483  1
  Ni  Ni53  1  0.83246000  0.83370234  0.83329846  1
" 