5403,Ni79Fe19Cr1_19,-241.203947337944, 205.184124435556,Ni79Fe19Cr1,"# generated using pymatgen
 data_CrFe5Ni21
_symmetry_space_group_name_H-M   'P 1'
_cell_length_a   7.42741885
_cell_length_b   7.42741885
_cell_length_c   10.50395648
_cell_angle_alpha   90.00000000
_cell_angle_beta   90.00000000
_cell_angle_gamma   90.00000000
_symmetry_Int_Tables_number   1
_chemical_formula_structural   CrFe5Ni21
_chemical_formula_sum   'Cr2 Fe10 Ni42'
_cell_volume   579.46704885
_cell_formula_units_Z   2
loop_
 _symmetry_equiv_pos_site_id
 _symmetry_equiv_pos_as_xyz
  1  'x, y, z'
loop_
 _atom_site_type_symbol
 _atom_site_label
 _atom_site_symmetry_multiplicity
 _atom_site_fract_x
 _atom_site_fract_y
 _atom_site_fract_z
 _atom_site_occupancy
  Ni  Ni0  1  1.00112708  1.00228035  1.00257903  1
  Fe  Fe1  1  0.16933846  0.16873462  0.16970914  1
  Ni  Ni2  1  0.00394456  1.00248921  0.33612152  1
  Ni  Ni3  1  1.00244362  0.33598898  1.00262385  1
  Fe  Fe4  1  0.16791899  0.50368382  0.16915833  1
  Ni  Ni5  1  1.00252145  0.33630927  0.33566383  1
  Ni  Ni6  1  0.00324806  0.66973530  1.00240732  1
  Ni  Ni7  1  0.16861962  0.83679899  0.16969399  1
  Ni  Ni8  1  1.00252301  0.66920585  0.33616808  1
  Fe  Fe9  1  0.33592063  0.00295765  1.00263553  1
  Ni  Ni10  1  0.50165164  0.16921122  0.16878421  1
  Ni  Ni11  1  0.33484913  1.00252596  0.33525513  1
  Ni  Ni12  1  0.33599725  0.33595717  1.00150111  1
  Cr  Cr13  1  0.50341441  0.50191766  0.16971602  1
  Ni  Ni14  1  0.33547019  0.33546873  0.33694114  1
  Ni  Ni15  1  0.33516076  0.66973283  1.00131048  1
  Ni  Ni16  1  0.50161029  0.83710130  0.16881582  1
  Ni  Ni17  1  0.33543344  0.67000981  0.33741840  1
  Ni  Ni18  1  0.66956198  0.00311473  1.00233374  1
  Fe  Fe19  1  0.83616642  0.16952342  0.16827047  1
  Cr  Cr20  1  0.66957357  1.00223526  0.33638924  1
  Ni  Ni21  1  0.66956256  0.33383930  1.00158502  1
  Ni  Ni22  1  0.83694768  0.50277522  0.16970729  1
  Ni  Ni23  1  0.67000837  0.33688883  0.33711707  1
  Fe  Fe24  1  0.67057369  0.67007145  1.00203626  1
  Ni  Ni25  1  0.83777126  0.83495611  0.16885781  1
  Ni  Ni26  1  0.67004615  0.66858622  0.33602884  1
  Ni  Ni27  1  0.16899969  0.16884576  0.50213953  1
  Ni  Ni28  1  1.00237192  0.00288423  0.66930232  1
  Ni  Ni29  1  0.16907882  0.16962401  0.83623020  1
  Ni  Ni30  1  0.17030092  0.50253810  0.50167178  1
  Ni  Ni31  1  0.00292612  0.33547222  0.66971195  1
  Ni  Ni32  1  0.17043467  0.50248830  0.83636694  1
  Ni  Ni33  1  0.16871294  0.83661921  0.50241201  1
  Ni  Ni34  1  1.00212397  0.66964643  0.66942541  1
  Ni  Ni35  1  0.16879294  0.83589179  0.83589687  1
  Fe  Fe36  1  0.50123292  0.17084060  0.50294103  1
  Ni  Ni37  1  0.33611276  0.00287987  0.66993180  1
  Ni  Ni38  1  0.50273554  0.17041913  0.83604307  1
  Ni  Ni39  1  0.50279877  0.50229367  0.50191452  1
  Ni  Ni40  1  0.33592689  0.33584172  0.66955760  1
  Ni  Ni41  1  0.50189606  0.50220222  0.83639640  1
  Fe  Fe42  1  0.50153652  0.83424961  0.50335717  1
  Ni  Ni43  1  0.33673176  0.66928061  0.66927363  1
  Ni  Ni44  1  0.50273702  0.83538278  0.83654730  1
  Ni  Ni45  1  0.83737456  0.16997194  0.50261605  1
  Fe  Fe46  1  0.66981834  1.00212859  0.67028066  1
  Ni  Ni47  1  0.83618788  0.16878140  0.83656635  1
  Ni  Ni48  1  0.83490221  0.50258366  0.50230244  1
  Fe  Fe49  1  0.66927538  0.33646250  0.66925668  1
  Fe  Fe50  1  0.83640502  0.50261150  0.83614076  1
  Ni  Ni51  1  0.83761794  0.83544865  0.50286331  1
  Ni  Ni52  1  0.66914792  0.66983571  0.66979873  1
  Ni  Ni53  1  0.83647388  0.83673416  0.83628445  1
" 