3588,Ni79Fe9Cr10_3,-237.03593667914, 181.267435742634,Ni79Fe9Cr10,"# generated using pymatgen
 data_Cr6Fe5Ni43
_symmetry_space_group_name_H-M   'P 1'
_cell_length_a   7.45031094
_cell_length_b   7.45031094
_cell_length_c   10.53633078
_cell_angle_alpha   90.00000000
_cell_angle_beta   90.00000000
_cell_angle_gamma   90.00000000
_symmetry_Int_Tables_number   1
_chemical_formula_structural   Cr6Fe5Ni43
_chemical_formula_sum   'Cr6 Fe5 Ni43'
_cell_volume   584.84151574
_cell_formula_units_Z   1
loop_
 _symmetry_equiv_pos_site_id
 _symmetry_equiv_pos_as_xyz
  1  'x, y, z'
loop_
 _atom_site_type_symbol
 _atom_site_label
 _atom_site_symmetry_multiplicity
 _atom_site_fract_x
 _atom_site_fract_y
 _atom_site_fract_z
 _atom_site_occupancy
  Ni  Ni0  1  0.00234193  1.00012588  0.00206818  1
  Ni  Ni1  1  0.16672829  0.16918913  0.16655102  1
  Ni  Ni2  1  1.00055630  0.00234486  0.33394211  1
  Ni  Ni3  1  0.00320472  0.33513310  0.00176066  1
  Ni  Ni4  1  0.16985644  0.50154781  0.16757389  1
  Ni  Ni5  1  1.00054872  0.33371115  0.33472778  1
  Ni  Ni6  1  1.00108896  0.66807686  1.00107308  1
  Ni  Ni7  1  0.16539433  0.83259279  0.16702871  1
  Fe  Fe8  1  0.00296213  0.66694362  0.33330163  1
  Ni  Ni9  1  0.33392733  1.00096277  0.00159781  1
  Ni  Ni10  1  0.50180975  0.16939625  0.16763215  1
  Cr  Cr11  1  0.33317759  0.00155501  0.33381972  1
  Ni  Ni12  1  0.33326890  0.33423300  0.00141797  1
  Ni  Ni13  1  0.49914336  0.50168380  0.16866925  1
  Ni  Ni14  1  0.33467776  0.33608133  0.33456642  1
  Ni  Ni15  1  0.33445360  0.66823697  1.00036659  1
  Fe  Fe16  1  0.50036742  0.83430267  0.16697068  1
  Ni  Ni17  1  0.33451572  0.66690628  0.33552574  1
  Ni  Ni18  1  0.66683538  0.99886413  0.00151944  1
  Ni  Ni19  1  0.83483717  0.16501211  0.16908794  1
  Ni  Ni20  1  0.66848069  0.00261179  0.33431541  1
  Cr  Cr21  1  0.66706268  0.33531173  0.00147357  1
  Fe  Fe22  1  0.83626782  0.50066690  0.16810307  1
  Ni  Ni23  1  0.66828050  0.33423913  0.33497184  1
  Ni  Ni24  1  0.66782091  0.66907868  0.00180311  1
  Ni  Ni25  1  0.83457020  0.83529024  0.16729271  1
  Fe  Fe26  1  0.66664093  0.66681227  0.33339914  1
  Ni  Ni27  1  0.16681978  0.16917717  0.50148873  1
  Ni  Ni28  1  0.00443966  0.00259608  0.66736348  1
  Ni  Ni29  1  0.16947579  0.16808348  0.83522866  1
  Ni  Ni30  1  0.16951724  0.50014382  0.50035226  1
  Ni  Ni31  1  0.00122123  0.33369685  0.66673637  1
  Ni  Ni32  1  0.16966591  0.50030523  0.83537081  1
  Ni  Ni33  1  0.16908594  0.83400879  0.50093231  1
  Cr  Cr34  1  0.00348979  0.66657002  0.66885327  1
  Ni  Ni35  1  0.16847724  0.83504953  0.83523804  1
  Ni  Ni36  1  0.50214788  0.16919597  0.50178708  1
  Ni  Ni37  1  0.33353571  1.00067107  0.66739854  1
  Ni  Ni38  1  0.49851665  0.16735805  0.83374189  1
  Ni  Ni39  1  0.49961089  0.50014906  0.50042955  1
  Ni  Ni40  1  0.33476164  0.33399137  0.66742930  1
  Ni  Ni41  1  0.49845962  0.50111266  0.83435838  1
  Ni  Ni42  1  0.49981987  0.83406940  0.50036528  1
  Ni  Ni43  1  0.33500543  0.66882004  0.66744795  1
  Ni  Ni44  1  0.50015109  0.83492046  0.83614228  1
  Ni  Ni45  1  0.83429165  0.16892902  0.50103291  1
  Fe  Fe46  1  0.66516133  0.00230111  0.66774810  1
  Cr  Cr47  1  0.83568720  0.16627645  0.83312753  1
  Ni  Ni48  1  0.83434042  0.49811443  0.49865805  1
  Ni  Ni49  1  0.66737274  0.33484757  0.66634548  1
  Ni  Ni50  1  0.83531078  0.50194141  0.83633206  1
  Cr  Cr51  1  0.83496190  0.83705979  0.50024311  1
  Cr  Cr52  1  0.66578140  0.66539800  0.66933030  1
  Ni  Ni53  1  0.83472550  0.83495674  0.83661251  1
" 