234,Ni79Fe9Cr10_17,-236.827855321323, 180.949506906162,Ni79Fe9Cr10,"# generated using pymatgen
 data_Cr6Fe5Ni43
_symmetry_space_group_name_H-M   'P 1'
_cell_length_a   7.44936457
_cell_length_b   7.44936457
_cell_length_c   10.53499241
_cell_angle_alpha   90.00000000
_cell_angle_beta   90.00000000
_cell_angle_gamma   90.00000000
_symmetry_Int_Tables_number   1
_chemical_formula_structural   Cr6Fe5Ni43
_chemical_formula_sum   'Cr6 Fe5 Ni43'
_cell_volume   584.61867634
_cell_formula_units_Z   1
loop_
 _symmetry_equiv_pos_site_id
 _symmetry_equiv_pos_as_xyz
  1  'x, y, z'
loop_
 _atom_site_type_symbol
 _atom_site_label
 _atom_site_symmetry_multiplicity
 _atom_site_fract_x
 _atom_site_fract_y
 _atom_site_fract_z
 _atom_site_occupancy
  Ni  Ni0  1  0.00191473  1.00048975  0.00235112  1
  Ni  Ni1  1  0.16804458  0.16729194  0.16639688  1
  Ni  Ni2  1  1.00082907  0.00174276  0.33489006  1
  Ni  Ni3  1  0.00198142  0.33555625  0.00227852  1
  Ni  Ni4  1  0.16927735  0.50102974  0.16687778  1
  Cr  Cr5  1  0.00261876  0.33274441  0.33352097  1
  Ni  Ni6  1  1.00101212  0.66751444  1.00094308  1
  Ni  Ni7  1  0.16817283  0.83523992  0.16714276  1
  Cr  Cr8  1  0.00211372  0.66938029  0.33384609  1
  Ni  Ni9  1  0.33393619  0.00231189  0.00217843  1
  Ni  Ni10  1  0.50159642  0.16827125  0.16760059  1
  Ni  Ni11  1  0.33543805  0.00155813  0.33470054  1
  Ni  Ni12  1  0.33453228  0.33439822  1.00065893  1
  Ni  Ni13  1  0.50134770  0.50103126  0.16809826  1
  Ni  Ni14  1  0.33493293  0.33385326  0.33436389  1
  Ni  Ni15  1  0.33368042  0.66684954  0.00258442  1
  Ni  Ni16  1  0.50147287  0.83425656  0.16821542  1
  Ni  Ni17  1  0.33597772  0.66814890  0.33393966  1
  Ni  Ni18  1  0.66771194  0.00134387  0.00269908  1
  Ni  Ni19  1  0.83391621  0.16716688  0.16806613  1
  Ni  Ni20  1  0.66729166  1.00069831  0.33512980  1
  Ni  Ni21  1  0.66704726  0.33530049  0.00261974  1
  Ni  Ni22  1  0.83293365  0.50090521  0.16530927  1
  Fe  Fe23  1  0.66550853  0.33273772  0.33256374  1
  Ni  Ni24  1  0.66886772  0.66691676  0.00187378  1
  Ni  Ni25  1  0.83391443  0.83548694  0.16685663  1
  Ni  Ni26  1  0.66578633  0.66997917  0.33310354  1
  Ni  Ni27  1  0.16853131  0.16684283  0.50262402  1
  Ni  Ni28  1  0.00198467  1.00060918  0.66632548  1
  Fe  Fe29  1  0.16944203  0.16741463  0.83473635  1
  Ni  Ni30  1  0.16896755  0.50091239  0.50276711  1
  Ni  Ni31  1  0.00229173  0.33508399  0.66744515  1
  Ni  Ni32  1  0.16815962  0.50167962  0.83391225  1
  Ni  Ni33  1  0.16793194  0.83580312  0.50218473  1
  Ni  Ni34  1  0.00205520  0.66786472  0.66847143  1
  Ni  Ni35  1  0.16561455  0.83345961  0.83423222  1
  Ni  Ni36  1  0.50093598  0.16606521  0.50160996  1
  Ni  Ni37  1  0.33417394  0.00169552  0.66668471  1
  Ni  Ni38  1  0.50065639  0.17017588  0.83434946  1
  Cr  Cr39  1  0.49959737  0.50146186  0.50077636  1
  Fe  Fe40  1  0.33395722  0.33389969  0.66842366  1
  Ni  Ni41  1  0.50056281  0.49907104  0.83428078  1
  Ni  Ni42  1  0.50153616  0.83657842  0.50130333  1
  Ni  Ni43  1  0.33288195  0.66800177  0.66703685  1
  Cr  Cr44  1  0.50143730  0.83468447  0.83453032  1
  Fe  Fe45  1  0.83431425  0.16479063  0.50210288  1
  Ni  Ni46  1  0.66740493  0.00146220  0.66573737  1
  Cr  Cr47  1  0.83397576  0.16697500  0.83443184  1
  Cr  Cr48  1  0.83468140  0.50170646  0.50323832  1
  Ni  Ni49  1  0.66753981  0.33379362  0.66813813  1
  Fe  Fe50  1  0.83429025  0.50298046  0.83465773  1
  Ni  Ni51  1  0.83409175  0.83702043  0.50245248  1
  Ni  Ni52  1  0.66862327  0.66830357  0.66857983  1
  Ni  Ni53  1  0.83659560  0.83355147  0.83424980  1
" 