771,Ni79Fe19Cr1_16,-241.193256530115, 203.389357456029,Ni79Fe19Cr1,"# generated using pymatgen
 data_CrFe5Ni21
_symmetry_space_group_name_H-M   'P 1'
_cell_length_a   7.42817212
_cell_length_b   7.42817212
_cell_length_c   10.50502175
_cell_angle_alpha   90.00000000
_cell_angle_beta   90.00000000
_cell_angle_gamma   90.00000000
_symmetry_Int_Tables_number   1
_chemical_formula_structural   CrFe5Ni21
_chemical_formula_sum   'Cr2 Fe10 Ni42'
_cell_volume   579.64336986
_cell_formula_units_Z   2
loop_
 _symmetry_equiv_pos_site_id
 _symmetry_equiv_pos_as_xyz
  1  'x, y, z'
loop_
 _atom_site_type_symbol
 _atom_site_label
 _atom_site_symmetry_multiplicity
 _atom_site_fract_x
 _atom_site_fract_y
 _atom_site_fract_z
 _atom_site_occupancy
  Ni  Ni0  1  0.00342116  1.00228219  1.00257524  1
  Ni  Ni1  1  0.16946317  0.16706701  0.16911374  1
  Ni  Ni2  1  0.00318005  1.00043248  0.33619914  1
  Ni  Ni3  1  1.00067975  0.33567367  0.00283028  1
  Ni  Ni4  1  0.16913795  0.50502042  0.16936957  1
  Cr  Cr5  1  0.00267126  0.33577006  0.33534110  1
  Ni  Ni6  1  1.00156487  0.66989595  1.00235532  1
  Ni  Ni7  1  0.16942176  0.83576392  0.16908860  1
  Ni  Ni8  1  0.00289988  0.67169707  0.33647886  1
  Ni  Ni9  1  0.33513498  1.00121295  1.00213972  1
  Ni  Ni10  1  0.50370610  0.16903090  0.17043073  1
  Ni  Ni11  1  0.33555608  1.00228105  0.33654180  1
  Cr  Cr12  1  0.33561691  0.33500155  0.00299046  1
  Ni  Ni13  1  0.50378581  0.50281142  0.16994206  1
  Ni  Ni14  1  0.33830011  0.33572641  0.33634713  1
  Fe  Fe15  1  0.33502083  0.67078871  1.00261267  1
  Fe  Fe16  1  0.50159256  0.83589613  0.16914445  1
  Ni  Ni17  1  0.33584116  0.66984337  0.33529025  1
  Fe  Fe18  1  0.66996363  0.00320960  1.00156521  1
  Ni  Ni19  1  0.83468106  0.16931178  0.16789916  1
  Fe  Fe20  1  0.66900656  0.00327906  0.33700232  1
  Ni  Ni21  1  0.67118495  0.33670622  1.00207380  1
  Ni  Ni22  1  0.83492641  0.50285420  0.16820074  1
  Ni  Ni23  1  0.66726129  0.33600643  0.33629973  1
  Ni  Ni24  1  0.67011777  0.66904673  1.00255111  1
  Fe  Fe25  1  0.83721113  0.83565758  0.16906727  1
  Fe  Fe26  1  0.66900438  0.66867719  0.33636891  1
  Ni  Ni27  1  0.17039784  0.16844817  0.50303887  1
  Fe  Fe28  1  1.00202523  0.00315983  0.66920738  1
  Ni  Ni29  1  0.16887705  0.16865486  0.83569907  1
  Ni  Ni30  1  0.17016199  0.50377282  0.50279427  1
  Ni  Ni31  1  0.00285383  0.33546440  0.66961877  1
  Ni  Ni32  1  0.16781066  0.50372771  0.83568603  1
  Ni  Ni33  1  0.16934492  0.83562812  0.50252742  1
  Fe  Fe34  1  1.00214998  0.66821872  0.66926142  1
  Ni  Ni35  1  0.16997584  0.83546696  0.83623626  1
  Ni  Ni36  1  0.50279738  0.16954448  0.50213397  1
  Fe  Fe37  1  0.33706169  0.00309197  0.66947616  1
  Ni  Ni38  1  0.50373244  0.16786827  0.83528694  1
  Ni  Ni39  1  0.50274933  0.50239603  0.50265497  1
  Ni  Ni40  1  0.33542097  0.33621970  0.66852927  1
  Fe  Fe41  1  0.50378278  0.50342233  0.83478516  1
  Ni  Ni42  1  0.50247234  0.83591139  0.50216193  1
  Ni  Ni43  1  0.33642805  0.66932537  0.66989921  1
  Ni  Ni44  1  0.50239722  0.83648977  0.83661708  1
  Ni  Ni45  1  0.83465662  0.16872713  0.50345158  1
  Ni  Ni46  1  0.66954037  1.00208993  0.66951118  1
  Ni  Ni47  1  0.83524290  0.17002906  0.83649992  1
  Ni  Ni48  1  0.83493813  0.50344700  0.50322753  1
  Ni  Ni49  1  0.66957570  0.33571049  0.66947567  1
  Ni  Ni50  1  0.83626319  0.50239389  0.83642162  1
  Ni  Ni51  1  0.83603285  0.83567480  0.50214777  1
  Ni  Ni52  1  0.66878671  0.67005018  0.66871040  1
  Ni  Ni53  1  0.83547747  0.83542763  0.83642580  1
" 