253,Ni79Fe5Cr15_1,-232.860943373543, 162.203876690617,Ni79Fe5Cr15,"# generated using pymatgen
 data_Cr5FeNi21
_symmetry_space_group_name_H-M   'P 1'
_cell_length_a   7.46621417
_cell_length_b   7.46621417
_cell_length_c   10.55882133
_cell_angle_alpha   90.00000000
_cell_angle_beta   90.00000000
_cell_angle_gamma   90.00000000
_symmetry_Int_Tables_number   1
_chemical_formula_structural   Cr5FeNi21
_chemical_formula_sum   'Cr10 Fe2 Ni42'
_cell_volume   588.59467396
_cell_formula_units_Z   2
loop_
 _symmetry_equiv_pos_site_id
 _symmetry_equiv_pos_as_xyz
  1  'x, y, z'
loop_
 _atom_site_type_symbol
 _atom_site_label
 _atom_site_symmetry_multiplicity
 _atom_site_fract_x
 _atom_site_fract_y
 _atom_site_fract_z
 _atom_site_occupancy
  Cr  Cr0  1  0.00253518  0.00032419  0.99978889  1
  Ni  Ni1  1  0.16776504  0.16758956  0.16794252  1
  Ni  Ni2  1  0.00085710  0.00169696  0.33358433  1
  Fe  Fe3  1  0.00074960  0.33429642  0.99998841  1
  Ni  Ni4  1  0.16484329  0.49983017  0.16690202  1
  Ni  Ni5  1  0.00180804  0.33270979  0.33162806  1
  Ni  Ni6  1  0.00099336  0.66459295  0.99932245  1
  Ni  Ni7  1  0.16741718  0.83265047  0.16772565  1
  Ni  Ni8  1  0.00214244  0.66583199  0.33209061  1
  Ni  Ni9  1  0.33373507  0.00172794  0.99932387  1
  Ni  Ni10  1  0.50003030  0.16691766  0.16647298  1
  Ni  Ni11  1  0.33286133  0.00332426  0.33237193  1
  Ni  Ni12  1  0.33227339  0.33135019  1.00002409  1
  Cr  Cr13  1  0.49967729  0.49733813  0.16580651  1
  Ni  Ni14  1  0.33227705  0.33152594  0.33476749  1
  Ni  Ni15  1  0.32992154  0.66712555  0.99987665  1
  Cr  Cr16  1  0.49741202  0.83659590  0.16482132  1
  Fe  Fe17  1  0.33071990  0.66587315  0.33416825  1
  Ni  Ni18  1  0.66532144  0.00248129  0.99806320  1
  Ni  Ni19  1  0.83243345  0.16962853  0.16839450  1
  Ni  Ni20  1  0.66628066  0.00360237  0.33556191  1
  Ni  Ni21  1  0.66765599  0.33175439  0.00093941  1
  Ni  Ni22  1  0.83630244  0.49704848  0.16505986  1
  Ni  Ni23  1  0.66605878  0.33019527  0.33303894  1
  Ni  Ni24  1  0.66919863  0.66605889  0.99775757  1
  Cr  Cr25  1  0.83469513  0.83409579  0.16762000  1
  Cr  Cr26  1  0.66720641  0.66611105  0.33620224  1
  Ni  Ni27  1  0.16660912  0.16858672  0.50035895  1
  Ni  Ni28  1  0.99958680  0.00092562  0.66699420  1
  Ni  Ni29  1  0.16773612  0.16740790  0.83186139  1
  Ni  Ni30  1  0.16866350  0.49821520  0.50028539  1
  Ni  Ni31  1  0.00347733  0.33234959  0.66835462  1
  Ni  Ni32  1  0.16493728  0.50021268  0.83288835  1
  Cr  Cr33  1  0.16567203  0.83428275  0.49976185  1
  Ni  Ni34  1  0.00195595  0.66698929  0.66891494  1
  Ni  Ni35  1  0.16772465  0.83251766  0.83288231  1
  Ni  Ni36  1  0.49913268  0.16560339  0.49890406  1
  Ni  Ni37  1  0.33379311  0.00140636  0.66846539  1
  Ni  Ni38  1  0.49926546  0.16378263  0.83474736  1
  Ni  Ni39  1  0.49524511  0.49877980  0.49882923  1
  Ni  Ni40  1  0.33018358  0.33215230  0.66535601  1
  Cr  Cr41  1  0.49782610  0.49952913  0.83505579  1
  Ni  Ni42  1  0.49963600  0.83586352  0.50039851  1
  Ni  Ni43  1  0.33118183  0.66656417  0.66588975  1
  Ni  Ni44  1  0.49896553  0.83613544  0.83452918  1
  Ni  Ni45  1  0.83431337  0.16386233  0.49869703  1
  Ni  Ni46  1  0.66671771  0.99990682  0.66649469  1
  Ni  Ni47  1  0.83328155  0.16651393  0.83298318  1
  Cr  Cr48  1  0.83742707  0.49799191  0.49960603  1
  Cr  Cr49  1  0.66565484  0.33033848  0.66565426  1
  Ni  Ni50  1  0.83721085  0.49985234  0.83618182  1
  Ni  Ni51  1  0.83329253  0.83736038  0.50032689  1
  Cr  Cr52  1  0.66675187  0.66981919  0.66664066  1
  Ni  Ni53  1  0.83359994  0.83378720  0.83270850  1
" 