6050,Ni79Fe9Cr10_5,-236.557635592882, 178.003347901377,Ni79Fe9Cr10,"# generated using pymatgen
 data_Cr6Fe5Ni43
_symmetry_space_group_name_H-M   'P 1'
_cell_length_a   7.44851467
_cell_length_b   7.44851467
_cell_length_c   10.53379047
_cell_angle_alpha   90.00000000
_cell_angle_beta   90.00000000
_cell_angle_gamma   90.00000000
_symmetry_Int_Tables_number   1
_chemical_formula_structural   Cr6Fe5Ni43
_chemical_formula_sum   'Cr6 Fe5 Ni43'
_cell_volume   584.41860173
_cell_formula_units_Z   1
loop_
 _symmetry_equiv_pos_site_id
 _symmetry_equiv_pos_as_xyz
  1  'x, y, z'
loop_
 _atom_site_type_symbol
 _atom_site_label
 _atom_site_symmetry_multiplicity
 _atom_site_fract_x
 _atom_site_fract_y
 _atom_site_fract_z
 _atom_site_occupancy
  Ni  Ni0  1  0.00218895  0.99990092  0.00207933  1
  Ni  Ni1  1  0.16760195  0.16834771  0.16747987  1
  Fe  Fe2  1  0.00187023  0.99959102  0.33398503  1
  Ni  Ni3  1  1.00097249  0.33527748  0.00282472  1
  Ni  Ni4  1  0.16634527  0.50088353  0.16794281  1
  Ni  Ni5  1  0.00139712  0.33644322  0.33351848  1
  Ni  Ni6  1  1.00115795  0.66855348  0.00186091  1
  Ni  Ni7  1  0.16737170  0.83450075  0.16757776  1
  Ni  Ni8  1  0.00158692  0.66695912  0.33497096  1
  Ni  Ni9  1  0.33424220  0.00179160  0.00171510  1
  Ni  Ni10  1  0.50154263  0.16615987  0.16776511  1
  Ni  Ni11  1  0.33485153  0.00141929  0.33359276  1
  Ni  Ni12  1  0.33503223  0.33295826  0.00134921  1
  Cr  Cr13  1  0.50033036  0.50170235  0.16771041  1
  Fe  Fe14  1  0.33422815  0.33410457  0.33547049  1
  Ni  Ni15  1  0.33295116  0.66898275  0.00219980  1
  Ni  Ni16  1  0.50208533  0.83637996  0.16788786  1
  Ni  Ni17  1  0.33252967  0.66899097  0.33463370  1
  Ni  Ni18  1  0.66730214  0.00198006  0.00313093  1
  Fe  Fe19  1  0.83456841  0.16740723  0.16765486  1
  Ni  Ni20  1  0.66649960  0.00160785  0.33290417  1
  Ni  Ni21  1  0.66772764  0.33398964  1.00076247  1
  Fe  Fe22  1  0.83667834  0.50133534  0.16820361  1
  Ni  Ni23  1  0.66852923  0.33411912  0.33503592  1
  Fe  Fe24  1  0.66950167  0.66811085  1.00091338  1
  Ni  Ni25  1  0.83427507  0.83512459  0.16786217  1
  Ni  Ni26  1  0.66961820  0.66800456  0.33451150  1
  Ni  Ni27  1  0.16915253  0.16849159  0.50172164  1
  Ni  Ni28  1  0.00307617  0.99917404  0.66771949  1
  Ni  Ni29  1  0.16915558  0.16656180  0.83453010  1
  Ni  Ni30  1  0.16790097  0.50112188  0.50091805  1
  Ni  Ni31  1  0.00178839  0.33562361  0.66738955  1
  Cr  Cr32  1  0.16816362  0.50087422  0.83483196  1
  Ni  Ni33  1  0.16622370  0.83411900  0.50141639  1
  Ni  Ni34  1  1.00021404  0.66893288  0.66690136  1
  Ni  Ni35  1  0.16615058  0.83617164  0.83473880  1
  Ni  Ni36  1  0.50001952  0.16979978  0.50147178  1
  Ni  Ni37  1  0.33299320  0.00306788  0.66842453  1
  Ni  Ni38  1  0.50007332  0.16969323  0.83449315  1
  Ni  Ni39  1  0.50121077  0.49975343  0.50180375  1
  Ni  Ni40  1  0.33585232  0.33330384  0.66668628  1
  Ni  Ni41  1  0.50294649  0.49955704  0.83425478  1
  Cr  Cr42  1  0.50181444  0.83421097  0.50086721  1
  Ni  Ni43  1  0.33353520  0.66736045  0.66689969  1
  Cr  Cr44  1  0.50123429  0.83439000  0.83505079  1
  Cr  Cr45  1  0.83452652  0.16745992  0.50145394  1
  Ni  Ni46  1  0.66766328  0.00149216  0.66769623  1
  Cr  Cr47  1  0.83510760  0.16769579  0.83437901  1
  Ni  Ni48  1  0.83462176  0.50267764  0.50119620  1
  Ni  Ni49  1  0.66609215  0.33616398  0.66793508  1
  Ni  Ni50  1  0.83281649  0.50256004  0.83483740  1
  Ni  Ni51  1  0.83593058  0.83292495  0.50187098  1
  Ni  Ni52  1  0.66998323  0.66607493  0.66814961  1
  Ni  Ni53  1  0.83594690  0.83329697  0.83399870  1
" 