7344,Ni79Fe19Cr1_4,-241.477916271123, 204.662458853934,Ni79Fe19Cr1,"# generated using pymatgen
 data_CrFe5Ni21
_symmetry_space_group_name_H-M   'P 1'
_cell_length_a   7.42780095
_cell_length_b   7.42780095
_cell_length_c   10.50449684
_cell_angle_alpha   90.00000000
_cell_angle_beta   90.00000000
_cell_angle_gamma   90.00000000
_symmetry_Int_Tables_number   1
_chemical_formula_structural   CrFe5Ni21
_chemical_formula_sum   'Cr2 Fe10 Ni42'
_cell_volume   579.55648328
_cell_formula_units_Z   2
loop_
 _symmetry_equiv_pos_site_id
 _symmetry_equiv_pos_as_xyz
  1  'x, y, z'
loop_
 _atom_site_type_symbol
 _atom_site_label
 _atom_site_symmetry_multiplicity
 _atom_site_fract_x
 _atom_site_fract_y
 _atom_site_fract_z
 _atom_site_occupancy
  Fe  Fe0  1  0.00355519  0.00306843  1.00210087  1
  Ni  Ni1  1  0.16976724  0.16912365  0.16908142  1
  Fe  Fe2  1  0.00312240  0.00308390  0.33696581  1
  Ni  Ni3  1  1.00221806  0.33688742  1.00223752  1
  Fe  Fe4  1  0.16929701  0.50254546  0.16908428  1
  Ni  Ni5  1  1.00168306  0.33666484  0.33644086  1
  Ni  Ni6  1  0.00377557  0.66777534  1.00168686  1
  Ni  Ni7  1  0.17106245  0.83636401  0.16930714  1
  Ni  Ni8  1  0.00396794  0.66760876  0.33720042  1
  Ni  Ni9  1  0.33671497  1.00201432  1.00250501  1
  Ni  Ni10  1  0.50219985  0.16978812  0.16927325  1
  Ni  Ni11  1  0.33658181  1.00160334  0.33614516  1
  Ni  Ni12  1  0.33570293  0.33553620  0.00269863  1
  Ni  Ni13  1  0.50320959  0.50219293  0.16920001  1
  Fe  Fe14  1  0.33642023  0.33603047  0.33558805  1
  Ni  Ni15  1  0.33540622  0.67037640  0.00264690  1
  Ni  Ni16  1  0.50065163  0.83594922  0.16877841  1
  Ni  Ni17  1  0.33527171  0.67103418  0.33587430  1
  Ni  Ni18  1  0.66739365  0.00357186  1.00154188  1
  Ni  Ni19  1  0.83595916  0.17168019  0.16910753  1
  Ni  Ni20  1  0.66731351  0.00389008  0.33737058  1
  Ni  Ni21  1  0.67000221  0.33556977  0.00296695  1
  Ni  Ni22  1  0.83555163  0.50089694  0.16904401  1
  Ni  Ni23  1  0.67074133  0.33534990  0.33564464  1
  Ni  Ni24  1  0.66874534  0.66878766  1.00165255  1
  Cr  Cr25  1  0.83587357  0.83513332  0.16954287  1
  Ni  Ni26  1  0.66868598  0.66868465  0.33713235  1
  Ni  Ni27  1  0.17039139  0.17033846  0.50227001  1
  Cr  Cr28  1  0.00306957  1.00221297  0.66878789  1
  Fe  Fe29  1  0.17068322  0.17022772  0.83683385  1
  Ni  Ni30  1  0.16803843  0.50254028  0.50251976  1
  Ni  Ni31  1  1.00199524  0.33865494  0.66924545  1
  Ni  Ni32  1  0.16846758  0.50281736  0.83640071  1
  Ni  Ni33  1  0.16995958  0.83504741  0.50178547  1
  Ni  Ni34  1  0.00328266  0.66699808  0.66904457  1
  Ni  Ni35  1  0.16960919  0.83488737  0.83683466  1
  Ni  Ni36  1  0.50261885  0.16855490  0.50248628  1
  Ni  Ni37  1  0.33815370  1.00204271  0.66927970  1
  Ni  Ni38  1  0.50254000  0.16917323  0.83617160  1
  Fe  Fe39  1  0.50302898  0.50263028  0.50214013  1
  Fe  Fe40  1  0.33579889  0.33529484  0.66980064  1
  Ni  Ni41  1  0.50281012  0.50177342  0.83581528  1
  Ni  Ni42  1  0.50275615  0.83713861  0.50275063  1
  Fe  Fe43  1  0.33552094  0.66965727  0.66953702  1
  Ni  Ni44  1  0.50271235  0.83697773  0.83640333  1
  Ni  Ni45  1  0.83491948  0.17046669  0.50181331  1
  Ni  Ni46  1  0.66651056  0.00333066  0.66901098  1
  Fe  Fe47  1  0.83437677  0.17037696  0.83656956  1
  Ni  Ni48  1  0.83700160  0.50267982  0.50278079  1
  Ni  Ni49  1  0.66985839  0.33552753  0.66929888  1
  Ni  Ni50  1  0.83665114  0.50298776  0.83610757  1
  Ni  Ni51  1  0.83521098  0.83477949  0.50188200  1
  Fe  Fe52  1  0.67021266  0.66970738  0.66959164  1
  Ni  Ni53  1  0.83560865  0.83462609  0.83668136  1
" 