4479,Ni7Fe12Cr80_19,-206.299866251085, 196.48049887945,Ni7Fe12Cr80,"# generated using pymatgen
 data_Cr15Fe2Ni
_symmetry_space_group_name_H-M   'P 1'
_cell_length_a   7.58025744
_cell_length_b   7.58025744
_cell_length_c   10.72010287
_cell_angle_alpha   90.00000000
_cell_angle_beta   90.00000000
_cell_angle_gamma   90.00000000
_symmetry_Int_Tables_number   1
_chemical_formula_structural   Cr15Fe2Ni
_chemical_formula_sum   'Cr45 Fe6 Ni3'
_cell_volume   615.98035736
_cell_formula_units_Z   3
loop_
 _symmetry_equiv_pos_site_id
 _symmetry_equiv_pos_as_xyz
  1  'x, y, z'
loop_
 _atom_site_type_symbol
 _atom_site_label
 _atom_site_symmetry_multiplicity
 _atom_site_fract_x
 _atom_site_fract_y
 _atom_site_fract_z
 _atom_site_occupancy
  Cr  Cr0  1  0.99104939  0.99240843  0.99116922  1
  Cr  Cr1  1  0.15910847  0.15819619  0.16160249  1
  Cr  Cr2  1  0.99132625  0.99214070  0.32614562  1
  Cr  Cr3  1  -0.00583671  0.32512746  0.99217063  1
  Cr  Cr4  1  0.15750705  0.49299565  0.16235076  1
  Ni  Ni5  1  -0.00644301  0.32442985  0.32609998  1
  Cr  Cr6  1  -0.00651300  0.65995159  0.99219543  1
  Cr  Cr7  1  0.16054797  0.82655998  0.16081130  1
  Fe  Fe8  1  0.99194599  0.65968280  0.32648466  1
  Cr  Cr9  1  0.32591512  0.99200752  -0.00508071  1
  Cr  Cr10  1  0.49302788  0.15646139  0.15974598  1
  Fe  Fe11  1  0.32735743  0.99227302  0.32675225  1
  Cr  Cr12  1  0.32502260  0.32644050  0.99232072  1
  Cr  Cr13  1  0.49383914  0.49282096  0.15784018  1
  Cr  Cr14  1  0.32617209  0.32530772  0.32592517  1
  Cr  Cr15  1  0.32615028  0.65893321  -0.00618466  1
  Fe  Fe16  1  0.49346987  0.82731705  0.15976690  1
  Cr  Cr17  1  0.32788099  0.66076952  0.32406578  1
  Ni  Ni18  1  0.65684770  0.99066859  -0.00574465  1
  Cr  Cr19  1  0.82494366  0.15920736  0.15743056  1
  Cr  Cr20  1  0.65856242  0.99119629  0.32690855  1
  Cr  Cr21  1  0.65833168  0.32459948  0.99229070  1
  Cr  Cr22  1  0.82625191  0.49216699  0.16227726  1
  Cr  Cr23  1  0.65840422  0.32438535  0.32726771  1
  Cr  Cr24  1  0.65820658  0.66138298  -0.00628198  1
  Cr  Cr25  1  0.82530168  0.82602801  0.15870180  1
  Cr  Cr26  1  0.65778106  0.66201901  0.32752130  1
  Cr  Cr27  1  0.16078051  0.15746376  0.49191030  1
  Cr  Cr28  1  0.99164697  0.99228922  0.66024329  1
  Cr  Cr29  1  0.16123622  0.15662442  0.82478235  1
  Cr  Cr30  1  0.15787577  0.49306284  0.49022019  1
  Cr  Cr31  1  -0.00695127  0.32450271  0.66067952  1
  Cr  Cr32  1  0.15944056  0.49382132  0.82509175  1
  Cr  Cr33  1  0.16110740  0.82670727  0.49251295  1
  Cr  Cr34  1  0.99192387  0.66116360  0.65805087  1
  Cr  Cr35  1  0.16112801  0.82698321  0.82445529  1
  Fe  Fe36  1  0.49097964  0.15674223  0.49211090  1
  Fe  Fe37  1  0.32834095  0.99153459  0.65712765  1
  Cr  Cr38  1  0.49305423  0.15673878  0.82472419  1
  Cr  Cr39  1  0.49268433  0.49365606  0.49384350  1
  Cr  Cr40  1  0.32611555  0.32475226  0.65912741  1
  Cr  Cr41  1  0.49384454  0.49290919  0.82579861  1
  Ni  Ni42  1  0.49090748  0.83033251  0.49106730  1
  Cr  Cr43  1  0.32719799  0.65976028  0.66001310  1
  Cr  Cr44  1  0.49251218  0.82761686  0.82746201  1
  Cr  Cr45  1  0.82630592  0.16035061  0.49153827  1
  Cr  Cr46  1  0.65963678  0.99142112  0.65569162  1
  Cr  Cr47  1  0.82323248  0.15791005  0.82863350  1
  Cr  Cr48  1  0.82681886  0.49304285  0.49017816  1
  Cr  Cr49  1  0.65828717  0.32437055  0.65768030  1
  Cr  Cr50  1  0.82439867  0.49314614  0.82520954  1
  Fe  Fe51  1  0.82558849  0.82605043  0.49150954  1
  Cr  Cr52  1  0.65828848  0.66187540  0.65638375  1
  Cr  Cr53  1  0.82421917  0.82645384  0.82616087  1
" 