6607,Ni7Fe79Cr13_1,-223.906339128798, 149.500898492249,Ni7Fe79Cr13,"# generated using pymatgen
 data_Cr3Fe14Ni
_symmetry_space_group_name_H-M   'P 1'
_cell_length_a   7.46049267
_cell_length_b   7.46049267
_cell_length_c   10.55072991
_cell_angle_alpha   90.00000000
_cell_angle_beta   90.00000000
_cell_angle_gamma   90.00000000
_symmetry_Int_Tables_number   1
_chemical_formula_structural   Cr3Fe14Ni
_chemical_formula_sum   'Cr9 Fe42 Ni3'
_cell_volume   587.24255723
_cell_formula_units_Z   3
loop_
 _symmetry_equiv_pos_site_id
 _symmetry_equiv_pos_as_xyz
  1  'x, y, z'
loop_
 _atom_site_type_symbol
 _atom_site_label
 _atom_site_symmetry_multiplicity
 _atom_site_fract_x
 _atom_site_fract_y
 _atom_site_fract_z
 _atom_site_occupancy
  Fe  Fe0  1  0.00183032  0.00184149  0.00170350  1
  Ni  Ni1  1  0.16748890  0.16825325  0.16840038  1
  Fe  Fe2  1  0.99990929  0.00099302  0.33246903  1
  Fe  Fe3  1  0.00166173  0.33290506  0.00050617  1
  Fe  Fe4  1  0.16614591  0.49916136  0.16596269  1
  Fe  Fe5  1  0.00108140  0.33358150  0.33376764  1
  Fe  Fe6  1  0.00139343  0.66656941  0.00150985  1
  Fe  Fe7  1  0.16474121  0.83459129  0.16734445  1
  Fe  Fe8  1  0.99774499  0.66674352  0.33272870  1
  Cr  Cr9  1  0.33314891  0.99976048  0.00054035  1
  Fe  Fe10  1  0.49985470  0.16836853  0.16822427  1
  Fe  Fe11  1  0.33415513  0.00307444  0.33276233  1
  Ni  Ni12  1  0.33253813  0.33616646  0.00064810  1
  Fe  Fe13  1  0.50079168  0.49929563  0.16591727  1
  Fe  Fe14  1  0.33333705  0.33184529  0.33279333  1
  Fe  Fe15  1  0.33405463  0.66503550  0.00050271  1
  Fe  Fe16  1  0.50140234  0.83365578  0.16791377  1
  Cr  Cr17  1  0.33433609  0.66654529  0.33131038  1
  Cr  Cr18  1  0.66766013  0.00095140  0.00095064  1
  Fe  Fe19  1  0.83531608  0.16695800  0.16787247  1
  Fe  Fe20  1  0.66725232  0.99973871  0.33348121  1
  Fe  Fe21  1  0.66607018  0.33508709  1.00025352  1
  Fe  Fe22  1  0.83437909  0.50069973  0.16714139  1
  Fe  Fe23  1  0.66690133  0.33401257  0.33397539  1
  Fe  Fe24  1  0.66587282  0.66486638  0.00159121  1
  Ni  Ni25  1  0.83443611  0.83228407  0.16909915  1
  Fe  Fe26  1  0.66898850  0.66756446  0.33340155  1
  Fe  Fe27  1  0.16788453  0.16936918  0.49754934  1
  Cr  Cr28  1  0.99981989  0.00153741  0.66843246  1
  Fe  Fe29  1  0.16728832  0.16873899  0.83629602  1
  Fe  Fe30  1  0.16711323  0.49899127  0.50053793  1
  Cr  Cr31  1  1.00028428  0.33561621  0.66694857  1
  Fe  Fe32  1  0.16804578  0.50109787  0.83481021  1
  Cr  Cr33  1  0.16492069  0.83373321  0.50071894  1
  Fe  Fe34  1  0.00046194  0.66599835  0.66708284  1
  Fe  Fe35  1  0.16786474  0.83148294  0.83412839  1
  Fe  Fe36  1  0.50025164  0.16839682  0.49900643  1
  Cr  Cr37  1  0.33546334  1.00014451  0.66846989  1
  Fe  Fe38  1  0.50032170  0.17029454  0.83408708  1
  Fe  Fe39  1  0.50095737  0.49989581  0.50124940  1
  Fe  Fe40  1  0.33524315  0.33484106  0.66771558  1
  Fe  Fe41  1  0.50026677  0.50024398  0.83414636  1
  Fe  Fe42  1  0.50265056  0.83302268  0.49976925  1
  Fe  Fe43  1  0.33430526  0.66515285  0.66762179  1
  Fe  Fe44  1  0.49890770  0.83077870  0.83363060  1
  Fe  Fe45  1  0.83318188  0.16767328  0.49833559  1
  Cr  Cr46  1  0.66603467  0.00065332  0.66619885  1
  Fe  Fe47  1  0.83370332  0.17010363  0.83511235  1
  Fe  Fe48  1  0.83324939  0.50139510  0.49979720  1
  Fe  Fe49  1  0.66569259  0.33482061  0.66708936  1
  Fe  Fe50  1  0.83300219  0.49966927  0.83437991  1
  Fe  Fe51  1  0.83226961  0.83225336  0.49853536  1
  Fe  Fe52  1  0.66655035  0.66509536  0.66632589  1
  Cr  Cr53  1  0.83549549  0.83217275  0.83297571  1
" 