7760,Ni7Fe12Cr80_13,-206.550534956573, 200.346426613934,Ni7Fe12Cr80,"# generated using pymatgen
 data_Cr15Fe2Ni
_symmetry_space_group_name_H-M   'P 1'
_cell_length_a   7.58382607
_cell_length_b   7.58382607
_cell_length_c   10.72514968
_cell_angle_alpha   90.00000000
_cell_angle_beta   90.00000000
_cell_angle_gamma   90.00000000
_symmetry_Int_Tables_number   1
_chemical_formula_structural   Cr15Fe2Ni
_chemical_formula_sum   'Cr45 Fe6 Ni3'
_cell_volume   616.85074065
_cell_formula_units_Z   3
loop_
 _symmetry_equiv_pos_site_id
 _symmetry_equiv_pos_as_xyz
  1  'x, y, z'
loop_
 _atom_site_type_symbol
 _atom_site_label
 _atom_site_symmetry_multiplicity
 _atom_site_fract_x
 _atom_site_fract_y
 _atom_site_fract_z
 _atom_site_occupancy
  Cr  Cr0  1  -0.00642238  -0.00768449  0.99074323  1
  Fe  Fe1  1  0.15916807  0.15913741  0.15842933  1
  Cr  Cr2  1  -0.00521955  -0.00666059  0.32595006  1
  Cr  Cr3  1  -0.00460617  0.32305340  -0.00700369  1
  Cr  Cr4  1  0.15929140  0.49143262  0.15704591  1
  Cr  Cr5  1  -0.00544127  0.32386173  0.32632678  1
  Cr  Cr6  1  0.99071550  0.65985081  0.99217082  1
  Cr  Cr7  1  0.16038912  0.82414183  0.15929128  1
  Cr  Cr8  1  0.99163712  0.65906964  0.32403923  1
  Cr  Cr9  1  0.32383076  -0.00403711  -0.00728337  1
  Cr  Cr10  1  0.49239193  0.15896308  0.15748909  1
  Cr  Cr11  1  0.32332380  -0.00594642  0.32534623  1
  Fe  Fe12  1  0.32617956  0.32468694  0.99022977  1
  Cr  Cr13  1  0.49057998  0.49058683  0.15780320  1
  Cr  Cr14  1  0.32489130  0.32459945  0.32579180  1
  Cr  Cr15  1  0.32765794  0.65796195  0.99191437  1
  Cr  Cr16  1  0.49099861  0.82735664  0.16019235  1
  Cr  Cr17  1  0.32721232  0.65792694  0.32702331  1
  Cr  Cr18  1  0.65828994  0.99180200  0.98980614  1
  Cr  Cr19  1  0.82421190  0.15986607  0.16026743  1
  Cr  Cr20  1  0.65857767  0.99151852  0.32508627  1
  Cr  Cr21  1  0.65657443  0.32694517  0.99007536  1
  Cr  Cr22  1  0.82716210  0.49002540  0.15928976  1
  Cr  Cr23  1  0.65760804  0.32798306  0.32760797  1
  Cr  Cr24  1  0.65939124  0.65885130  0.99130155  1
  Cr  Cr25  1  0.82555185  0.82707146  0.15804116  1
  Cr  Cr26  1  0.65827864  0.65782323  0.32535262  1
  Fe  Fe27  1  0.15950179  0.15860464  0.49275674  1
  Cr  Cr28  1  -0.00660813  -0.00724059  0.66027365  1
  Fe  Fe29  1  0.15968540  0.15837536  0.82579475  1
  Cr  Cr30  1  0.16041093  0.49347462  0.49390569  1
  Cr  Cr31  1  -0.00554231  0.32316688  0.65758085  1
  Cr  Cr32  1  0.16137625  0.49203316  0.82609116  1
  Cr  Cr33  1  0.16094122  0.82315859  0.49433884  1
  Cr  Cr34  1  0.99150775  0.65958078  0.66073928  1
  Cr  Cr35  1  0.15973329  0.82265945  0.82353648  1
  Cr  Cr36  1  0.49328318  0.15884876  0.49213035  1
  Cr  Cr37  1  0.32419043  -0.00606435  0.65889367  1
  Ni  Ni38  1  0.48805080  0.16281589  0.82689420  1
  Fe  Fe39  1  0.49143330  0.49345817  0.49372596  1
  Cr  Cr40  1  0.32668588  0.32581797  0.66041806  1
  Fe  Fe41  1  0.49224170  0.49304549  0.82508004  1
  Cr  Cr42  1  0.49006672  0.82606493  0.49219124  1
  Ni  Ni43  1  0.32809949  0.65678497  0.65887409  1
  Cr  Cr44  1  0.49070126  0.82850105  0.82469914  1
  Cr  Cr45  1  0.82463238  0.15946804  0.49218816  1
  Cr  Cr46  1  0.65854945  0.99224516  0.66195216  1
  Cr  Cr47  1  0.82233720  0.15885716  0.82440429  1
  Cr  Cr48  1  0.82728133  0.49059068  0.49150956  1
  Cr  Cr49  1  0.65682800  0.32761852  0.65895829  1
  Cr  Cr50  1  0.82832262  0.49138660  0.82604103  1
  Cr  Cr51  1  0.82535854  0.82675700  0.49320439  1
  Cr  Cr52  1  0.65749481  0.65805756  0.66017100  1
  Ni  Ni53  1  0.82545724  0.82599100  0.82556331  1
" 