7279,Ni7Fe12Cr80_11,-206.363451280216, 197.238116306689,Ni7Fe12Cr80,"# generated using pymatgen
 data_Cr15Fe2Ni
_symmetry_space_group_name_H-M   'P 1'
_cell_length_a   7.58250998
_cell_length_b   7.58250998
_cell_length_c   10.72328846
_cell_angle_alpha   90.00000000
_cell_angle_beta   90.00000000
_cell_angle_gamma   90.00000000
_symmetry_Int_Tables_number   1
_chemical_formula_structural   Cr15Fe2Ni
_chemical_formula_sum   'Cr45 Fe6 Ni3'
_cell_volume   616.52965398
_cell_formula_units_Z   3
loop_
 _symmetry_equiv_pos_site_id
 _symmetry_equiv_pos_as_xyz
  1  'x, y, z'
loop_
 _atom_site_type_symbol
 _atom_site_label
 _atom_site_symmetry_multiplicity
 _atom_site_fract_x
 _atom_site_fract_y
 _atom_site_fract_z
 _atom_site_occupancy
  Fe  Fe0  1  0.99158271  0.99159156  -0.00675967  1
  Cr  Cr1  1  0.15949989  0.15791901  0.15954240  1
  Cr  Cr2  1  -0.00726164  0.99162700  0.32379125  1
  Cr  Cr3  1  -0.00757496  0.32543072  -0.00668200  1
  Cr  Cr4  1  0.15941077  0.49202411  0.15951991  1
  Cr  Cr5  1  0.99176148  0.32748735  0.32636360  1
  Cr  Cr6  1  0.99157444  0.66065766  -0.00612147  1
  Cr  Cr7  1  0.15769436  0.82721562  0.15887447  1
  Cr  Cr8  1  0.99030930  0.65804663  0.32556425  1
  Cr  Cr9  1  0.32566257  0.99219471  -0.00686629  1
  Cr  Cr10  1  0.49123195  0.15895451  0.16065036  1
  Ni  Ni11  1  0.32682083  0.99158681  0.32644402  1
  Cr  Cr12  1  0.32624634  0.32658360  0.99131165  1
  Cr  Cr13  1  0.49377193  0.49343658  0.15776122  1
  Cr  Cr14  1  0.32503357  0.32391711  0.32457328  1
  Cr  Cr15  1  0.32597669  0.65838045  0.99040170  1
  Cr  Cr16  1  0.49444639  0.82476571  0.16144464  1
  Cr  Cr17  1  0.32638816  0.66152146  0.32668362  1
  Cr  Cr18  1  0.66076442  0.99134232  -0.00669041  1
  Cr  Cr19  1  0.82642766  0.15723963  0.15774576  1
  Cr  Cr20  1  0.65688760  0.99027198  0.32556067  1
  Cr  Cr21  1  0.65848715  0.32574421  0.99097135  1
  Cr  Cr22  1  0.82397421  0.49523995  0.16065814  1
  Cr  Cr23  1  0.66036583  0.32635035  0.32668849  1
  Fe  Fe24  1  0.65950536  0.65951685  -0.00669750  1
  Ni  Ni25  1  0.82481944  0.82466370  0.15816260  1
  Ni  Ni26  1  0.65997277  0.66031245  0.32550699  1
  Cr  Cr27  1  0.15931124  0.15773273  0.49232673  1
  Fe  Fe28  1  0.99235289  0.99236201  0.65902012  1
  Cr  Cr29  1  0.15785258  0.15785110  0.82528515  1
  Cr  Cr30  1  0.15819186  0.49257012  0.49202332  1
  Cr  Cr31  1  0.99143222  0.32608635  0.65748105  1
  Cr  Cr32  1  0.16095086  0.49254100  0.82561570  1
  Cr  Cr33  1  0.16016528  0.82685590  0.49323731  1
  Cr  Cr34  1  -0.00727158  0.65884848  0.65772452  1
  Cr  Cr35  1  0.15768182  0.82676764  0.82504177  1
  Cr  Cr36  1  0.49177828  0.15774526  0.49089307  1
  Cr  Cr37  1  0.32631374  0.99120627  0.65767021  1
  Cr  Cr38  1  0.49254016  0.16095551  0.82561566  1
  Cr  Cr39  1  0.49433641  0.49399245  0.49201245  1
  Cr  Cr40  1  0.32588109  0.32621837  0.66126829  1
  Fe  Fe41  1  0.49274350  0.49273823  0.82604249  1
  Fe  Fe42  1  0.49234009  0.82575531  0.49075194  1
  Cr  Cr43  1  0.32560142  0.65973597  0.66006896  1
  Cr  Cr44  1  0.49300991  0.82336106  0.82538024  1
  Cr  Cr45  1  0.82606783  0.15972065  0.49436706  1
  Cr  Cr46  1  0.65895998  -0.00749670  0.65829686  1
  Cr  Cr47  1  0.82676811  0.15768524  0.82504176  1
  Fe  Fe48  1  0.82492191  0.49317319  0.49158283  1
  Cr  Cr49  1  0.65984658  0.32537644  0.65949575  1
  Cr  Cr50  1  0.82336117  0.49300978  0.82537894  1
  Cr  Cr51  1  0.82464567  0.82430141  0.49285221  1
  Cr  Cr52  1  0.65882770  0.65927913  0.65878296  1
  Cr  Cr53  1  0.82646865  0.82646364  0.82719817  1
" 