1894,Ni7Fe12Cr80_14,-206.629558842898, 200.734962761683,Ni7Fe12Cr80,"# generated using pymatgen
 data_Cr15Fe2Ni
_symmetry_space_group_name_H-M   'P 1'
_cell_length_a   7.58107077
_cell_length_b   7.58107077
_cell_length_c   10.72125310
_cell_angle_alpha   90.00000000
_cell_angle_beta   90.00000000
_cell_angle_gamma   90.00000000
_symmetry_Int_Tables_number   1
_chemical_formula_structural   Cr15Fe2Ni
_chemical_formula_sum   'Cr45 Fe6 Ni3'
_cell_volume   616.17865481
_cell_formula_units_Z   3
loop_
 _symmetry_equiv_pos_site_id
 _symmetry_equiv_pos_as_xyz
  1  'x, y, z'
loop_
 _atom_site_type_symbol
 _atom_site_label
 _atom_site_symmetry_multiplicity
 _atom_site_fract_x
 _atom_site_fract_y
 _atom_site_fract_z
 _atom_site_occupancy
  Cr  Cr0  1  -0.00715974  -0.00658938  0.99083358  1
  Cr  Cr1  1  0.15968639  0.15844943  0.15874739  1
  Cr  Cr2  1  0.99050984  -0.00668255  0.32578275  1
  Cr  Cr3  1  -0.00692908  0.32567998  -0.00688594  1
  Cr  Cr4  1  0.16014102  0.49447950  0.16131619  1
  Cr  Cr5  1  0.99209256  0.32583532  0.32576077  1
  Fe  Fe6  1  -0.00718386  0.65934045  0.99238110  1
  Cr  Cr7  1  0.15998931  0.82464776  0.15967030  1
  Cr  Cr8  1  0.99081436  0.65821070  0.32569270  1
  Cr  Cr9  1  0.32502492  -0.00656724  0.98873917  1
  Cr  Cr10  1  0.49389032  0.15913488  0.15952953  1
  Cr  Cr11  1  0.32705308  -0.00739197  0.32709441  1
  Cr  Cr12  1  0.32443540  0.32543729  0.99107723  1
  Cr  Cr13  1  0.49149364  0.49144066  0.15845176  1
  Cr  Cr14  1  0.32596516  0.32725313  0.32704761  1
  Cr  Cr15  1  0.32767122  0.65881467  -0.00625437  1
  Cr  Cr16  1  0.49080314  0.82677165  0.16108217  1
  Ni  Ni17  1  0.32790714  0.65967063  0.32569187  1
  Cr  Cr18  1  0.65946319  0.99018615  -0.00590343  1
  Cr  Cr19  1  0.82371793  0.15912873  0.15968664  1
  Fe  Fe20  1  0.65806064  0.99218068  0.32655293  1
  Fe  Fe21  1  0.65876924  0.32544661  0.99239474  1
  Cr  Cr22  1  0.82594711  0.49114480  0.15634368  1
  Cr  Cr23  1  0.65931581  0.32672618  0.32645049  1
  Cr  Cr24  1  0.66005354  0.65873808  -0.00741673  1
  Cr  Cr25  1  0.82663533  0.82707735  0.15945846  1
  Cr  Cr26  1  0.65823923  0.65974349  0.32536723  1
  Cr  Cr27  1  0.15946696  0.15843792  0.49241928  1
  Cr  Cr28  1  -0.00676609  -0.00574796  0.66074168  1
  Ni  Ni29  1  0.15847351  0.16025400  0.82579137  1
  Cr  Cr30  1  0.15965146  0.49489724  0.49065335  1
  Cr  Cr31  1  -0.00637363  0.32486776  0.65845099  1
  Cr  Cr32  1  0.15789925  0.49369531  0.82555109  1
  Cr  Cr33  1  0.15953752  0.82425607  0.49229274  1
  Fe  Fe34  1  0.99168680  0.65939289  0.65889901  1
  Cr  Cr35  1  0.15802837  0.82504206  0.82556458  1
  Fe  Fe36  1  0.49300776  0.15918397  0.49277744  1
  Cr  Cr37  1  0.32526986  -0.00558923  0.66163435  1
  Cr  Cr38  1  0.49402774  0.16090330  0.82562202  1
  Cr  Cr39  1  0.49272803  0.49213948  0.49378984  1
  Cr  Cr40  1  0.32492032  0.32441431  0.65922935  1
  Cr  Cr41  1  0.49485138  0.49123614  0.82532244  1
  Cr  Cr42  1  0.49204839  0.82607207  0.49117433  1
  Cr  Cr43  1  0.32900600  0.65880841  0.65873666  1
  Cr  Cr44  1  0.49322210  0.82503345  0.82525810  1
  Cr  Cr45  1  0.82263793  0.15917534  0.49100925  1
  Cr  Cr46  1  0.65855862  0.99024296  0.65706519  1
  Cr  Cr47  1  0.82419811  0.16095757  0.82671696  1
  Cr  Cr48  1  0.82517333  0.49246317  0.49670516  1
  Fe  Fe49  1  0.65827928  0.32605172  0.65866904  1
  Cr  Cr50  1  0.82479349  0.49234658  0.82414498  1
  Cr  Cr51  1  0.82583100  0.82571448  0.49371963  1
  Ni  Ni52  1  0.66087274  0.65741995  0.65916749  1
  Cr  Cr53  1  0.82646923  0.82393037  0.82410775  1
" 