7255,Ni7Fe79Cr13_14,-224.006402973541, 148.305291086323,Ni7Fe79Cr13,"# generated using pymatgen
 data_Cr3Fe14Ni
_symmetry_space_group_name_H-M   'P 1'
_cell_length_a   7.46196058
_cell_length_b   7.46196058
_cell_length_c   10.55280586
_cell_angle_alpha   90.00000000
_cell_angle_beta   90.00000000
_cell_angle_gamma   90.00000000
_symmetry_Int_Tables_number   1
_chemical_formula_structural   Cr3Fe14Ni
_chemical_formula_sum   'Cr9 Fe42 Ni3'
_cell_volume   587.58926107
_cell_formula_units_Z   3
loop_
 _symmetry_equiv_pos_site_id
 _symmetry_equiv_pos_as_xyz
  1  'x, y, z'
loop_
 _atom_site_type_symbol
 _atom_site_label
 _atom_site_symmetry_multiplicity
 _atom_site_fract_x
 _atom_site_fract_y
 _atom_site_fract_z
 _atom_site_occupancy
  Fe  Fe0  1  0.00087048  0.99892435  0.00137749  1
  Fe  Fe1  1  0.16751874  0.16625319  0.16616536  1
  Fe  Fe2  1  0.99913268  0.99896867  0.33395413  1
  Fe  Fe3  1  0.00321705  0.33454833  0.00095739  1
  Fe  Fe4  1  0.16940365  0.50161731  0.16604189  1
  Cr  Cr5  1  0.00169905  0.33422817  0.33368942  1
  Fe  Fe6  1  0.00097807  0.66743251  1.00014424  1
  Fe  Fe7  1  0.16721257  0.83296193  0.16640484  1
  Fe  Fe8  1  0.99981665  0.66960850  0.33418272  1
  Fe  Fe9  1  0.33453020  1.00015563  0.00099822  1
  Fe  Fe10  1  0.50032101  0.16572714  0.16667899  1
  Fe  Fe11  1  0.33450249  0.00100816  0.33389137  1
  Fe  Fe12  1  0.33289218  0.33381186  0.00127799  1
  Fe  Fe13  1  0.49751876  0.50148304  0.16562057  1
  Fe  Fe14  1  0.33451527  0.33300546  0.33357068  1
  Ni  Ni15  1  0.33349000  0.66688891  0.00132439  1
  Fe  Fe16  1  0.50050055  0.83332330  0.16715542  1
  Fe  Fe17  1  0.33447935  0.66700600  0.33266536  1
  Fe  Fe18  1  0.66565791  0.99804377  0.00138328  1
  Fe  Fe19  1  0.83324707  0.16362611  0.16569308  1
  Ni  Ni20  1  0.66679547  0.99862672  0.33339786  1
  Fe  Fe21  1  0.66475685  0.33354906  0.00149018  1
  Cr  Cr22  1  0.83220239  0.50184222  0.16462252  1
  Cr  Cr23  1  0.66622301  0.33287629  0.33379746  1
  Fe  Fe24  1  0.66600641  0.66922521  0.99980787  1
  Fe  Fe25  1  0.83328198  0.83585820  0.16665811  1
  Fe  Fe26  1  0.66665422  0.66920157  0.33427306  1
  Fe  Fe27  1  0.16849346  0.16760949  0.49963854  1
  Cr  Cr28  1  1.00013526  0.00034600  0.66511052  1
  Fe  Fe29  1  0.16793724  0.16968691  0.83526491  1
  Fe  Fe30  1  0.16811309  0.50151786  0.50110507  1
  Fe  Fe31  1  0.00116652  0.33555287  0.66579644  1
  Fe  Fe32  1  0.16488510  0.49965776  0.83426015  1
  Fe  Fe33  1  0.16758113  0.83191033  0.49888155  1
  Fe  Fe34  1  0.99891199  0.66584688  0.66663709  1
  Cr  Cr35  1  0.16705340  0.83290665  0.83435190  1
  Fe  Fe36  1  0.49970868  0.16686469  0.49925490  1
  Cr  Cr37  1  0.33523436  0.99976010  0.66860744  1
  Fe  Fe38  1  0.49937803  0.16621143  0.83585598  1
  Fe  Fe39  1  0.49932253  0.50138107  0.50153023  1
  Fe  Fe40  1  0.33273211  0.33374711  0.66603862  1
  Cr  Cr41  1  0.50011982  0.49993203  0.83329310  1
  Fe  Fe42  1  0.50043290  0.83243955  0.49816061  1
  Fe  Fe43  1  0.33364336  0.66605609  0.66614634  1
  Fe  Fe44  1  0.50247454  0.83295992  0.83641914  1
  Fe  Fe45  1  0.83284064  0.16639361  0.49993702  1
  Cr  Cr46  1  0.66585850  0.99887711  0.66775465  1
  Cr  Cr47  1  0.83369925  0.16801607  0.83546843  1
  Fe  Fe48  1  0.83365464  0.50197975  0.50154195  1
  Fe  Fe49  1  0.66710828  0.33450595  0.66498799  1
  Fe  Fe50  1  0.83554340  0.50287329  0.83405142  1
  Fe  Fe51  1  0.83295912  0.83240755  0.49894409  1
  Fe  Fe52  1  0.66843091  0.66719398  0.66668170  1
  Ni  Ni53  1  0.83356430  0.83197096  0.83546296  1
" 