8611,Ni7Fe12Cr80_9,-206.081184471036, 194.422424062727,Ni7Fe12Cr80,"# generated using pymatgen
 data_Cr15Fe2Ni
_symmetry_space_group_name_H-M   'P 1'
_cell_length_a   7.58496196
_cell_length_b   7.58496196
_cell_length_c   10.72675608
_cell_angle_alpha   90.00000000
_cell_angle_beta   90.00000000
_cell_angle_gamma   90.00000000
_symmetry_Int_Tables_number   1
_chemical_formula_structural   Cr15Fe2Ni
_chemical_formula_sum   'Cr45 Fe6 Ni3'
_cell_volume   617.12795506
_cell_formula_units_Z   3
loop_
 _symmetry_equiv_pos_site_id
 _symmetry_equiv_pos_as_xyz
  1  'x, y, z'
loop_
 _atom_site_type_symbol
 _atom_site_label
 _atom_site_symmetry_multiplicity
 _atom_site_fract_x
 _atom_site_fract_y
 _atom_site_fract_z
 _atom_site_occupancy
  Cr  Cr0  1  -0.00758975  0.99169480  -0.00760241  1
  Cr  Cr1  1  0.15886228  0.15931843  0.15878380  1
  Cr  Cr2  1  0.99176425  0.98909002  0.32597857  1
  Cr  Cr3  1  -0.00758891  0.32565994  0.99166492  1
  Cr  Cr4  1  0.15651781  0.49301569  0.15921788  1
  Cr  Cr5  1  0.99176103  0.32654883  0.32413737  1
  Cr  Cr6  1  0.99016300  0.65932515  -0.00497646  1
  Cr  Cr7  1  0.15806217  0.82434470  0.15995234  1
  Fe  Fe8  1  0.99049687  0.65956179  0.32454373  1
  Cr  Cr9  1  0.32503740  -0.00593916  0.99039668  1
  Cr  Cr10  1  0.49274358  0.15777705  0.15954064  1
  Cr  Cr11  1  0.32383624  -0.00761127  0.32606466  1
  Cr  Cr12  1  0.32581732  0.32407855  0.99116496  1
  Cr  Cr13  1  0.49308554  0.49256014  0.15948386  1
  Cr  Cr14  1  0.32674883  0.32616825  0.32573262  1
  Cr  Cr15  1  0.32570168  0.65854338  0.99152750  1
  Cr  Cr16  1  0.49309009  0.82634472  0.15721745  1
  Cr  Cr17  1  0.32463472  0.65812516  0.32750566  1
  Cr  Cr18  1  0.65923512  0.99181131  -0.00770742  1
  Cr  Cr19  1  0.82507620  0.15932068  0.15951630  1
  Cr  Cr20  1  0.66107934  0.99120523  0.32524347  1
  Cr  Cr21  1  0.65845471  0.32632801  -0.00693930  1
  Ni  Ni22  1  0.82664845  0.49496141  0.15952845  1
  Cr  Cr23  1  0.65817135  0.32735213  0.32491313  1
  Cr  Cr24  1  0.66081547  0.65854476  -0.00654401  1
  Ni  Ni25  1  0.82626785  0.82274468  0.16032122  1
  Cr  Cr26  1  0.66145519  0.65812405  0.32515171  1
  Cr  Cr27  1  0.15782904  0.15894631  0.49277804  1
  Cr  Cr28  1  -0.00712049  -0.00773623  0.65831092  1
  Fe  Fe29  1  0.16024955  0.15923648  0.82519774  1
  Cr  Cr30  1  0.15827269  0.49355534  0.49217179  1
  Fe  Fe31  1  -0.00742061  0.32524324  0.65919732  1
  Cr  Cr32  1  0.15763031  0.49107654  0.82528538  1
  Fe  Fe33  1  0.15784614  0.82526573  0.49191913  1
  Cr  Cr34  1  0.99180523  0.66000434  0.65728734  1
  Cr  Cr35  1  0.16023783  0.82562590  0.82563131  1
  Cr  Cr36  1  0.49312956  0.15847534  0.49094777  1
  Cr  Cr37  1  0.32401427  -0.00656134  0.66021917  1
  Ni  Ni38  1  0.49086077  0.15852103  0.82529352  1
  Fe  Fe39  1  0.49221804  0.49216809  0.49222778  1
  Cr  Cr40  1  0.32584823  0.32508636  0.65978067  1
  Cr  Cr41  1  0.49180453  0.49210468  0.82486501  1
  Cr  Cr42  1  0.49176680  0.82510683  0.49276076  1
  Cr  Cr43  1  0.32574784  0.65815647  0.65764967  1
  Cr  Cr44  1  0.49180445  0.82722249  0.82670223  1
  Cr  Cr45  1  0.82572223  0.15893986  0.49323661  1
  Cr  Cr46  1  0.65978890  -0.00763731  0.65914330  1
  Cr  Cr47  1  0.82565995  0.15997309  0.82392084  1
  Cr  Cr48  1  0.82664233  0.49218957  0.49312872  1
  Cr  Cr49  1  0.65794707  0.32615922  0.65870796  1
  Cr  Cr50  1  0.82724586  0.49078621  0.82509357  1
  Fe  Fe51  1  0.82661723  0.82527580  0.49147063  1
  Cr  Cr52  1  0.65912847  0.65815829  0.65807780  1
  Cr  Cr53  1  0.82463916  0.82592245  0.82544087  1
" 