1181,Ni7Fe79Cr13_10,-223.723748273997, 147.564446746133,Ni7Fe79Cr13,"# generated using pymatgen
 data_Cr3Fe14Ni
_symmetry_space_group_name_H-M   'P 1'
_cell_length_a   7.46189549
_cell_length_b   7.46189549
_cell_length_c   10.55271380
_cell_angle_alpha   90.00000000
_cell_angle_beta   90.00000000
_cell_angle_gamma   90.00000000
_symmetry_Int_Tables_number   1
_chemical_formula_structural   Cr3Fe14Ni
_chemical_formula_sum   'Cr9 Fe42 Ni3'
_cell_volume   587.57388334
_cell_formula_units_Z   3
loop_
 _symmetry_equiv_pos_site_id
 _symmetry_equiv_pos_as_xyz
  1  'x, y, z'
loop_
 _atom_site_type_symbol
 _atom_site_label
 _atom_site_symmetry_multiplicity
 _atom_site_fract_x
 _atom_site_fract_y
 _atom_site_fract_z
 _atom_site_occupancy
  Cr  Cr0  1  0.00044112  0.00180103  1.00033614  1
  Fe  Fe1  1  0.16952933  0.16671931  0.16740160  1
  Fe  Fe2  1  0.99936580  0.00068300  0.33271390  1
  Fe  Fe3  1  1.00009118  0.33322575  0.00103529  1
  Fe  Fe4  1  0.16961267  0.50020282  0.16775203  1
  Cr  Cr5  1  0.00058626  0.33521001  0.33259270  1
  Cr  Cr6  1  0.00091238  0.66485280  0.00192610  1
  Fe  Fe7  1  0.16888200  0.83424743  0.16912444  1
  Fe  Fe8  1  0.00199081  0.66741055  0.33229388  1
  Fe  Fe9  1  0.33309103  1.00007748  0.00080739  1
  Fe  Fe10  1  0.49903078  0.16793847  0.16800653  1
  Ni  Ni11  1  0.33492136  0.00140105  0.33265906  1
  Fe  Fe12  1  0.33305581  0.33352873  0.00040182  1
  Fe  Fe13  1  0.49978022  0.49952666  0.16622381  1
  Fe  Fe14  1  0.33506899  0.33398588  0.33407887  1
  Fe  Fe15  1  0.33507236  0.66745023  0.99998286  1
  Fe  Fe16  1  0.49829001  0.83362303  0.16791719  1
  Fe  Fe17  1  0.33293825  0.66569635  0.33344433  1
  Cr  Cr18  1  0.66574120  0.00053337  0.00119490  1
  Fe  Fe19  1  0.83243263  0.16780566  0.16841529  1
  Fe  Fe20  1  0.66694107  0.00252918  0.33406780  1
  Fe  Fe21  1  0.66789744  0.33498563  0.00055116  1
  Fe  Fe22  1  0.83185085  0.49932848  0.16652842  1
  Fe  Fe23  1  0.66530347  0.33146222  0.33403199  1
  Fe  Fe24  1  0.66585455  0.66573010  0.00089382  1
  Fe  Fe25  1  0.83376564  0.83379272  0.16842686  1
  Cr  Cr26  1  0.66763316  0.66623898  0.33486186  1
  Fe  Fe27  1  0.16638662  0.16834763  0.49957982  1
  Fe  Fe28  1  0.99986312  0.00146147  0.66751555  1
  Fe  Fe29  1  0.16688785  0.16955112  0.83400912  1
  Ni  Ni30  1  0.16787193  0.50008878  0.50009489  1
  Fe  Fe31  1  0.00088299  0.33325185  0.66534929  1
  Fe  Fe32  1  0.16677692  0.49829485  0.83286489  1
  Cr  Cr33  1  0.16629413  0.83382830  0.49866400  1
  Fe  Fe34  1  0.99908828  0.66614784  0.66745958  1
  Fe  Fe35  1  0.16663415  0.83310589  0.83375811  1
  Fe  Fe36  1  0.49887484  0.16845787  0.49841624  1
  Cr  Cr37  1  0.33415217  0.00217310  0.66872614  1
  Fe  Fe38  1  0.50011592  0.17005121  0.83483100  1
  Fe  Fe39  1  0.50046078  0.49783596  0.50020806  1
  Fe  Fe40  1  0.33365578  0.33383794  0.66654067  1
  Fe  Fe41  1  0.50140411  0.49920467  0.83473842  1
  Fe  Fe42  1  0.50020735  0.83463437  0.49846081  1
  Cr  Cr43  1  0.33477245  0.66576236  0.66648329  1
  Fe  Fe44  1  0.50059377  0.83177922  0.83508499  1
  Ni  Ni45  1  0.83212539  0.16702805  0.49992979  1
  Cr  Cr46  1  0.66629643  0.99986387  0.66557637  1
  Fe  Fe47  1  0.83395737  0.16964247  0.83195062  1
  Fe  Fe48  1  0.83547201  0.49947039  0.50183195  1
  Fe  Fe49  1  0.66639350  0.33456863  0.66635853  1
  Fe  Fe50  1  0.83282260  0.49934779  0.83295869  1
  Fe  Fe51  1  0.83479493  0.83359191  0.50026019  1
  Fe  Fe52  1  0.66804880  0.66546362  0.66655518  1
  Fe  Fe53  1  0.83372780  0.83186429  0.83276616  1
" 