5868,Ni7Fe79Cr13_6,-223.868009858441, 149.5374800075,Ni7Fe79Cr13,"# generated using pymatgen
 data_Cr3Fe14Ni
_symmetry_space_group_name_H-M   'P 1'
_cell_length_a   7.46319688
_cell_length_b   7.46319688
_cell_length_c   10.55455424
_cell_angle_alpha   90.00000000
_cell_angle_beta   90.00000000
_cell_angle_gamma   90.00000000
_symmetry_Int_Tables_number   1
_chemical_formula_structural   Cr3Fe14Ni
_chemical_formula_sum   'Cr9 Fe42 Ni3'
_cell_volume   587.88136397
_cell_formula_units_Z   3
loop_
 _symmetry_equiv_pos_site_id
 _symmetry_equiv_pos_as_xyz
  1  'x, y, z'
loop_
 _atom_site_type_symbol
 _atom_site_label
 _atom_site_symmetry_multiplicity
 _atom_site_fract_x
 _atom_site_fract_y
 _atom_site_fract_z
 _atom_site_occupancy
  Fe  Fe0  1  0.99827067  0.99902035  0.99914005  1
  Cr  Cr1  1  0.16625794  0.16722181  0.16569197  1
  Fe  Fe2  1  0.99765613  0.99925805  0.33444310  1
  Fe  Fe3  1  0.00078303  0.33420482  0.00053863  1
  Fe  Fe4  1  0.16717729  0.50053097  0.16619004  1
  Fe  Fe5  1  0.99849349  0.33537858  0.33356441  1
  Fe  Fe6  1  0.99963406  0.66756921  0.99913871  1
  Cr  Cr7  1  0.16639104  0.83334215  0.16760977  1
  Fe  Fe8  1  0.00107609  0.66611244  0.33466416  1
  Fe  Fe9  1  0.33524155  0.00108130  0.99803321  1
  Fe  Fe10  1  0.50188025  0.16777084  0.16652969  1
  Fe  Fe11  1  0.33532778  1.00015802  0.33519753  1
  Fe  Fe12  1  0.33472071  0.33403847  0.99904410  1
  Fe  Fe13  1  0.49901966  0.49799251  0.16651091  1
  Fe  Fe14  1  0.33458429  0.33455715  0.33284143  1
  Fe  Fe15  1  0.33387537  0.66562850  0.99838583  1
  Cr  Cr16  1  0.50067184  0.83347302  0.16682223  1
  Fe  Fe17  1  0.33138330  0.66604744  0.33443912  1
  Ni  Ni18  1  0.66710595  1.00010347  0.00099299  1
  Fe  Fe19  1  0.83166904  0.16608337  0.16631772  1
  Fe  Fe20  1  0.66772457  0.00262735  0.33365205  1
  Fe  Fe21  1  0.66535317  0.33265329  0.00190984  1
  Fe  Fe22  1  0.83463545  0.49966366  0.16601161  1
  Fe  Fe23  1  0.66763150  0.33141481  0.33288949  1
  Fe  Fe24  1  0.66732819  0.66817583  1.00019039  1
  Fe  Fe25  1  0.83425594  0.83502962  0.16496206  1
  Cr  Cr26  1  0.66918549  0.66775992  0.33334377  1
  Cr  Cr27  1  0.16571380  0.16656562  0.50119144  1
  Fe  Fe28  1  0.99985038  0.99966641  0.66726175  1
  Fe  Fe29  1  0.16757614  0.16730531  0.83354207  1
  Fe  Fe30  1  0.16625828  0.50091517  0.50010290  1
  Fe  Fe31  1  0.00155561  0.33334203  0.66659865  1
  Ni  Ni32  1  0.17045047  0.49897431  0.83424450  1
  Fe  Fe33  1  0.16810746  0.83265337  0.49900759  1
  Cr  Cr34  1  0.00072747  0.66702790  0.66536095  1
  Fe  Fe35  1  0.16625993  0.83343489  0.83456383  1
  Fe  Fe36  1  0.50173339  0.16544307  0.50028379  1
  Fe  Fe37  1  0.33411867  0.99927206  0.66759217  1
  Fe  Fe38  1  0.49951763  0.16674299  0.83401226  1
  Cr  Cr39  1  0.50029927  0.50116384  0.50216464  1
  Fe  Fe40  1  0.33294016  0.33415321  0.66894256  1
  Fe  Fe41  1  0.49890025  0.50074240  0.83325519  1
  Fe  Fe42  1  0.49917432  0.83616485  0.50070279  1
  Fe  Fe43  1  0.33390626  0.66733348  0.66815150  1
  Fe  Fe44  1  0.50130339  0.83328355  0.83428547  1
  Fe  Fe45  1  0.83174815  0.16725955  0.50051698  1
  Fe  Fe46  1  0.66676493  0.99876288  0.66726360  1
  Cr  Cr47  1  0.83504172  0.16531208  0.83281799  1
  Fe  Fe48  1  0.83525576  0.49827430  0.50040030  1
  Fe  Fe49  1  0.66635453  0.33293429  0.66598063  1
  Cr  Cr50  1  0.83193830  0.50102634  0.83316490  1
  Fe  Fe51  1  0.83352923  0.83526052  0.50097232  1
  Fe  Fe52  1  0.66587652  0.66910073  0.66703478  1
  Ni  Ni53  1  0.83169515  0.83491889  0.83546064  1
" 