322,Ni7Fe12Cr80_1,-206.360583217815, 198.528307532739,Ni7Fe12Cr80,"# generated using pymatgen
 data_Cr15Fe2Ni
_symmetry_space_group_name_H-M   'P 1'
_cell_length_a   7.57967331
_cell_length_b   7.57967331
_cell_length_c   10.71927680
_cell_angle_alpha   90.00000000
_cell_angle_beta   90.00000000
_cell_angle_gamma   90.00000000
_symmetry_Int_Tables_number   1
_chemical_formula_structural   Cr15Fe2Ni
_chemical_formula_sum   'Cr45 Fe6 Ni3'
_cell_volume   615.83796807
_cell_formula_units_Z   3
loop_
 _symmetry_equiv_pos_site_id
 _symmetry_equiv_pos_as_xyz
  1  'x, y, z'
loop_
 _atom_site_type_symbol
 _atom_site_label
 _atom_site_symmetry_multiplicity
 _atom_site_fract_x
 _atom_site_fract_y
 _atom_site_fract_z
 _atom_site_occupancy
  Cr  Cr0  1  -0.00595850  -0.00498822  -0.00531365  1
  Fe  Fe1  1  0.16082405  0.16076182  0.16027182  1
  Cr  Cr2  1  -0.00691673  -0.00535978  0.32562642  1
  Cr  Cr3  1  -0.00587094  0.32564728  -0.00655899  1
  Cr  Cr4  1  0.16081955  0.49357032  0.15968332  1
  Cr  Cr5  1  -0.00694811  0.32541745  0.32619273  1
  Fe  Fe6  1  -0.00669684  0.65805722  -0.00697323  1
  Cr  Cr7  1  0.15943433  0.82305623  0.15922423  1
  Cr  Cr8  1  0.99129371  0.65783320  0.32758060  1
  Cr  Cr9  1  0.32559844  -0.00569207  0.99251260  1
  Cr  Cr10  1  0.49285821  0.16222735  0.16129491  1
  Cr  Cr11  1  0.32511417  -0.00673719  0.32555117  1
  Cr  Cr12  1  0.32635906  0.32696388  -0.00668283  1
  Ni  Ni13  1  0.49041166  0.49043345  0.16224897  1
  Fe  Fe14  1  0.32667440  0.32778899  0.32470829  1
  Cr  Cr15  1  0.32995158  0.65699594  0.99156557  1
  Cr  Cr16  1  0.49114858  0.82461026  0.16071398  1
  Ni  Ni17  1  0.32774867  0.65495411  0.32492099  1
  Cr  Cr18  1  0.65805922  0.99183939  -0.00678107  1
  Cr  Cr19  1  0.82412459  0.16022514  0.15890303  1
  Cr  Cr20  1  0.65970034  0.99155278  0.32505440  1
  Cr  Cr21  1  0.65752764  0.32897010  0.99208941  1
  Cr  Cr22  1  0.82555007  0.49215660  0.15917997  1
  Fe  Fe23  1  0.65817788  0.32755361  0.32506080  1
  Cr  Cr24  1  0.65733724  0.65712404  -0.00672704  1
  Cr  Cr25  1  0.82718031  0.82521161  0.15661182  1
  Cr  Cr26  1  0.65760475  0.65714092  0.32527538  1
  Cr  Cr27  1  0.16103346  0.16125654  0.49178461  1
  Cr  Cr28  1  -0.00699723  -0.00618596  0.65748255  1
  Cr  Cr29  1  0.15903564  0.15979011  0.82616766  1
  Cr  Cr30  1  0.16053772  0.49367908  0.49139287  1
  Cr  Cr31  1  0.99180807  0.32660139  0.65785655  1
  Cr  Cr32  1  0.15936948  0.49423251  0.82690262  1
  Cr  Cr33  1  0.16067310  0.82324495  0.49236296  1
  Cr  Cr34  1  0.99045014  0.65753204  0.65752620  1
  Cr  Cr35  1  0.15805409  0.82383870  0.82594712  1
  Cr  Cr36  1  0.49409793  0.16168197  0.49282130  1
  Cr  Cr37  1  0.32566563  -0.00678862  0.65960888  1
  Cr  Cr38  1  0.49435567  0.16136812  0.82388683  1
  Cr  Cr39  1  0.49211269  0.49041618  0.49061115  1
  Cr  Cr40  1  0.32554941  0.32725283  0.66176124  1
  Ni  Ni41  1  0.49385664  0.49122628  0.82534179  1
  Cr  Cr42  1  0.49089050  0.82558143  0.49100782  1
  Cr  Cr43  1  0.32847284  0.65782178  0.66013575  1
  Cr  Cr44  1  0.49240843  0.82602645  0.82546527  1
  Cr  Cr45  1  0.82249028  0.16224969  0.49332246  1
  Cr  Cr46  1  0.65911714  0.99051045  0.65940377  1
  Cr  Cr47  1  0.82411361  0.15985006  0.82513348  1
  Fe  Fe48  1  0.82400168  0.49144934  0.49196528  1
  Fe  Fe49  1  0.65826334  0.32828426  0.65959509  1
  Cr  Cr50  1  0.82639708  0.49205739  0.82577517  1
  Cr  Cr51  1  0.82580374  0.82607527  0.49207834  1
  Cr  Cr52  1  0.65855706  0.65698176  0.65907992  1
  Cr  Cr53  1  0.82758392  0.82546091  0.82915910  1
" 