7157,Ni7Fe12Cr80_16,-206.224106699073, 195.977126321167,Ni7Fe12Cr80,"# generated using pymatgen
 data_Cr15Fe2Ni
_symmetry_space_group_name_H-M   'P 1'
_cell_length_a   7.58369801
_cell_length_b   7.58369801
_cell_length_c   10.72496857
_cell_angle_alpha   90.00000000
_cell_angle_beta   90.00000000
_cell_angle_gamma   90.00000000
_symmetry_Int_Tables_number   1
_chemical_formula_structural   Cr15Fe2Ni
_chemical_formula_sum   'Cr45 Fe6 Ni3'
_cell_volume   616.81949168
_cell_formula_units_Z   3
loop_
 _symmetry_equiv_pos_site_id
 _symmetry_equiv_pos_as_xyz
  1  'x, y, z'
loop_
 _atom_site_type_symbol
 _atom_site_label
 _atom_site_symmetry_multiplicity
 _atom_site_fract_x
 _atom_site_fract_y
 _atom_site_fract_z
 _atom_site_occupancy
  Cr  Cr0  1  -0.00702499  0.99216299  -0.00647999  1
  Cr  Cr1  1  0.15828786  0.15959788  0.15842218  1
  Cr  Cr2  1  -0.00712738  0.99207487  0.32702975  1
  Fe  Fe3  1  0.99180947  0.32677701  0.99114415  1
  Cr  Cr4  1  0.15902005  0.49096615  0.15812649  1
  Cr  Cr5  1  0.99113173  0.32486886  0.32638391  1
  Cr  Cr6  1  0.99142081  0.65732889  0.99098564  1
  Cr  Cr7  1  0.15891156  0.82636184  0.15940730  1
  Cr  Cr8  1  -0.00746434  0.65998495  0.32591403  1
  Cr  Cr9  1  0.32596634  -0.00638594  -0.00711400  1
  Cr  Cr10  1  0.49155662  0.15913994  0.15818137  1
  Cr  Cr11  1  0.32508200  0.99131226  0.32557148  1
  Cr  Cr12  1  0.32539870  0.32458140  0.99148279  1
  Cr  Cr13  1  0.49226724  0.49287263  0.16073071  1
  Cr  Cr14  1  0.32643233  0.32524372  0.32489502  1
  Cr  Cr15  1  0.32466472  0.65873418  0.99181153  1
  Cr  Cr16  1  0.49283800  0.82491543  0.15868921  1
  Cr  Cr17  1  0.32579500  0.66037558  0.32733428  1
  Cr  Cr18  1  0.65798641  -0.00709749  0.99139855  1
  Cr  Cr19  1  0.82708196  0.15902809  0.15936718  1
  Cr  Cr20  1  0.65897239  -0.00728892  0.32709082  1
  Cr  Cr21  1  0.65938843  0.32613244  0.99138773  1
  Cr  Cr22  1  0.82563737  0.49224828  0.15860294  1
  Cr  Cr23  1  0.65936310  0.32558073  0.32641818  1
  Cr  Cr24  1  0.66083710  0.65789544  -0.00686855  1
  Cr  Cr25  1  0.82517870  0.82565056  0.15798559  1
  Cr  Cr26  1  0.65859788  0.65863648  0.32455571  1
  Cr  Cr27  1  0.15689261  0.15858652  0.49093499  1
  Cr  Cr28  1  0.99181448  0.99171942  0.65637727  1
  Cr  Cr29  1  0.15905993  0.16077608  0.82757259  1
  Cr  Cr30  1  0.16024749  0.49316951  0.49321350  1
  Cr  Cr31  1  0.99096887  0.32664822  0.65987875  1
  Fe  Fe32  1  0.15730776  0.49233988  0.82562992  1
  Fe  Fe33  1  0.16050748  0.82574120  0.49266482  1
  Cr  Cr34  1  -0.00663045  0.65856248  0.66002568  1
  Cr  Cr35  1  0.15967223  0.82454684  0.82484299  1
  Cr  Cr36  1  0.49402495  0.15753096  0.49336963  1
  Cr  Cr37  1  0.32705905  0.99096591  0.65846818  1
  Fe  Fe38  1  0.49306673  0.15905416  0.82533149  1
  Cr  Cr39  1  0.49111966  0.49467242  0.49138392  1
  Cr  Cr40  1  0.32640235  0.32590771  0.66054861  1
  Cr  Cr41  1  0.49172973  0.49250608  0.82481445  1
  Ni  Ni42  1  0.49116929  0.82572644  0.49355784  1
  Fe  Fe43  1  0.32578033  0.65977228  0.65814928  1
  Cr  Cr44  1  0.49269231  0.82611944  0.82455096  1
  Ni  Ni45  1  0.82566991  0.15743057  0.49284707  1
  Fe  Fe46  1  0.65867780  -0.00733067  0.65765996  1
  Cr  Cr47  1  0.82546159  0.15980894  0.82504244  1
  Cr  Cr48  1  0.82556187  0.49081747  0.49148020  1
  Cr  Cr49  1  0.65955407  0.32434905  0.65912051  1
  Ni  Ni50  1  0.82699951  0.49106320  0.82660109  1
  Cr  Cr51  1  0.82450163  0.82808022  0.49283470  1
  Cr  Cr52  1  0.65880558  0.65921106  0.65923641  1
  Cr  Cr53  1  0.82456749  0.82521965  0.82610205  1
" 