4241,Ni7Fe12Cr80_12,-206.170131340995, 194.4892303745,Ni7Fe12Cr80,"# generated using pymatgen
 data_Cr15Fe2Ni
_symmetry_space_group_name_H-M   'P 1'
_cell_length_a   7.58541001
_cell_length_b   7.58541001
_cell_length_c   10.72738971
_cell_angle_alpha   90.00000000
_cell_angle_beta   90.00000000
_cell_angle_gamma   90.00000000
_symmetry_Int_Tables_number   1
_chemical_formula_structural   Cr15Fe2Ni
_chemical_formula_sum   'Cr45 Fe6 Ni3'
_cell_volume   617.23732334
_cell_formula_units_Z   3
loop_
 _symmetry_equiv_pos_site_id
 _symmetry_equiv_pos_as_xyz
  1  'x, y, z'
loop_
 _atom_site_type_symbol
 _atom_site_label
 _atom_site_symmetry_multiplicity
 _atom_site_fract_x
 _atom_site_fract_y
 _atom_site_fract_z
 _atom_site_occupancy
  Cr  Cr0  1  -0.00765416  0.99142316  0.99177375  1
  Cr  Cr1  1  0.15955369  0.15962806  0.15677359  1
  Cr  Cr2  1  -0.00735167  0.99096280  0.32698771  1
  Cr  Cr3  1  0.99192001  0.32795910  -0.00494786  1
  Fe  Fe4  1  0.15978550  0.49472448  0.16009766  1
  Cr  Cr5  1  0.99170690  0.32860000  0.32275793  1
  Cr  Cr6  1  0.99191059  0.65720451  -0.00517928  1
  Cr  Cr7  1  0.15957099  0.82393338  0.16029440  1
  Fe  Fe8  1  -0.00559055  0.65922274  0.32552041  1
  Cr  Cr9  1  0.32725349  0.99112708  0.99063531  1
  Cr  Cr10  1  0.49160076  0.15900223  0.16022553  1
  Cr  Cr11  1  0.32448887  0.98980146  0.32622525  1
  Cr  Cr12  1  0.32660307  0.32691285  0.99129180  1
  Cr  Cr13  1  0.49140828  0.49429095  0.15930135  1
  Cr  Cr14  1  0.32467545  0.32797257  0.32415261  1
  Cr  Cr15  1  0.32637425  0.65886393  0.99068801  1
  Cr  Cr16  1  0.49189640  0.82345448  0.15941979  1
  Ni  Ni17  1  0.32160143  0.65842574  0.32542259  1
  Cr  Cr18  1  0.65704760  0.99138998  0.99172834  1
  Cr  Cr19  1  0.82548428  0.15836692  0.15882039  1
  Cr  Cr20  1  0.65941353  0.99208621  0.32608632  1
  Cr  Cr21  1  0.65839053  0.32739494  -0.00758781  1
  Fe  Fe22  1  0.82512901  0.49351540  0.15906661  1
  Cr  Cr23  1  0.66008125  0.32631940  0.32583154  1
  Fe  Fe24  1  0.65710417  0.65842179  0.99124084  1
  Cr  Cr25  1  0.82482928  0.82346870  0.15729803  1
  Cr  Cr26  1  0.65951346  0.65801580  0.32440662  1
  Cr  Cr27  1  0.15936463  0.15873800  0.49361315  1
  Cr  Cr28  1  -0.00668757  0.99002219  0.65762466  1
  Cr  Cr29  1  0.15907974  0.15970492  0.82627741  1
  Cr  Cr30  1  0.16033241  0.49385579  0.49094864  1
  Cr  Cr31  1  0.99206664  0.32695762  0.65883099  1
  Cr  Cr32  1  0.15920188  0.49183721  0.82539474  1
  Ni  Ni33  1  0.15997498  0.82243754  0.48969658  1
  Cr  Cr34  1  -0.00645667  0.65981244  0.65634192  1
  Cr  Cr35  1  0.15928036  0.82518777  0.82503445  1
  Cr  Cr36  1  0.49155775  0.16006837  0.49059006  1
  Cr  Cr37  1  0.32653015  0.98992564  0.65925841  1
  Fe  Fe38  1  0.49301053  0.15708869  0.82562416  1
  Cr  Cr39  1  0.49119410  0.49342531  0.49218565  1
  Cr  Cr40  1  0.32767090  0.32648078  0.66153005  1
  Fe  Fe41  1  0.49269866  0.49409686  0.82641518  1
  Cr  Cr42  1  0.49054924  0.82304160  0.48931975  1
  Cr  Cr43  1  0.32602775  0.66027118  0.65916159  1
  Ni  Ni44  1  0.49323456  0.82327478  0.82751983  1
  Cr  Cr45  1  0.82570409  0.15934649  0.49324124  1
  Cr  Cr46  1  0.65679281  0.99123561  0.65860461  1
  Cr  Cr47  1  0.82622660  0.15897682  0.82448163  1
  Cr  Cr48  1  0.82540239  0.49310166  0.49232239  1
  Cr  Cr49  1  0.65730762  0.32625598  0.65873017  1
  Cr  Cr50  1  0.82459631  0.49314149  0.82601563  1
  Cr  Cr51  1  0.82651009  0.82427863  0.49244654  1
  Cr  Cr52  1  0.65709876  0.65911301  0.66208075  1
  Cr  Cr53  1  0.82367806  0.82452814  0.82707159  1
" 