165,Ni7Fe79Cr13_3,-223.815096435366, 146.463419454217,Ni7Fe79Cr13,"# generated using pymatgen
 data_Cr3Fe14Ni
_symmetry_space_group_name_H-M   'P 1'
_cell_length_a   7.46152649
_cell_length_b   7.46152649
_cell_length_c   10.55219196
_cell_angle_alpha   90.00000000
_cell_angle_beta   90.00000000
_cell_angle_gamma   90.00000000
_symmetry_Int_Tables_number   1
_chemical_formula_structural   Cr3Fe14Ni
_chemical_formula_sum   'Cr9 Fe42 Ni3'
_cell_volume   587.48671976
_cell_formula_units_Z   3
loop_
 _symmetry_equiv_pos_site_id
 _symmetry_equiv_pos_as_xyz
  1  'x, y, z'
loop_
 _atom_site_type_symbol
 _atom_site_label
 _atom_site_symmetry_multiplicity
 _atom_site_fract_x
 _atom_site_fract_y
 _atom_site_fract_z
 _atom_site_occupancy
  Cr  Cr0  1  1.00008195  0.99880432  0.99772732  1
  Cr  Cr1  1  0.16736264  0.16783226  0.16879673  1
  Fe  Fe2  1  0.99896126  0.00051763  0.33254708  1
  Fe  Fe3  1  0.99961146  0.33518425  0.99921699  1
  Fe  Fe4  1  0.16745549  0.50171312  0.16740020  1
  Fe  Fe5  1  0.00149031  0.33514051  0.33432083  1
  Fe  Fe6  1  0.00050154  0.66585884  0.99999474  1
  Fe  Fe7  1  0.16732234  0.83115465  0.16921794  1
  Fe  Fe8  1  0.00069241  0.66565934  0.33330200  1
  Cr  Cr9  1  0.33521518  0.99931412  0.99975925  1
  Fe  Fe10  1  0.50001000  0.16831576  0.16899449  1
  Ni  Ni11  1  0.33624845  0.99959330  0.33267542  1
  Fe  Fe12  1  0.33468260  0.33534096  0.00045746  1
  Fe  Fe13  1  0.49890791  0.50032428  0.16660825  1
  Ni  Ni14  1  0.33401558  0.33477067  0.33421020  1
  Fe  Fe15  1  0.33380445  0.66602938  1.00023461  1
  Fe  Fe16  1  0.49969443  0.83220533  0.16922849  1
  Fe  Fe17  1  0.33519138  0.66577782  0.33292926  1
  Cr  Cr18  1  0.66572630  0.00117574  0.00328020  1
  Fe  Fe19  1  0.83344154  0.16800208  0.16774183  1
  Fe  Fe20  1  0.66534785  0.99928029  0.33412259  1
  Fe  Fe21  1  0.66687238  0.33493994  0.00077869  1
  Fe  Fe22  1  0.83473670  0.50090612  0.16622711  1
  Cr  Cr23  1  0.66672924  0.33301974  0.33482409  1
  Fe  Fe24  1  0.66680689  0.66626184  0.00058221  1
  Fe  Fe25  1  0.83422319  0.83205924  0.16883015  1
  Fe  Fe26  1  0.66524364  0.66828136  0.33368059  1
  Cr  Cr27  1  0.16791715  0.16669765  0.49980845  1
  Fe  Fe28  1  0.99767563  0.00045123  0.66915366  1
  Fe  Fe29  1  0.16822916  0.16837679  0.83258084  1
  Fe  Fe30  1  0.16930597  0.50062787  0.49832471  1
  Cr  Cr31  1  1.00031371  0.33535202  0.66597452  1
  Fe  Fe32  1  0.16899722  0.50022055  0.83543508  1
  Cr  Cr33  1  0.16794266  0.83510107  0.49937700  1
  Cr  Cr34  1  0.00102524  0.66642125  0.66747095  1
  Fe  Fe35  1  0.16842842  0.83245679  0.83231085  1
  Fe  Fe36  1  0.50004952  0.16524889  0.50063993  1
  Fe  Fe37  1  0.33541863  1.00026316  0.66831754  1
  Fe  Fe38  1  0.50122707  0.16831837  0.83159363  1
  Fe  Fe39  1  0.49841266  0.50090919  0.50081047  1
  Fe  Fe40  1  0.33673214  0.33431998  0.66697633  1
  Fe  Fe41  1  0.50054607  0.50035647  0.83386487  1
  Fe  Fe42  1  0.50168937  0.83485739  0.50036965  1
  Fe  Fe43  1  0.33666123  0.66665229  0.66782048  1
  Fe  Fe44  1  0.50147163  0.83247539  0.83161429  1
  Fe  Fe45  1  0.83200051  0.16417621  0.50102917  1
  Ni  Ni46  1  0.66529038  0.00042692  0.66608976  1
  Fe  Fe47  1  0.83152315  0.16750648  0.83221744  1
  Fe  Fe48  1  0.83326104  0.50175332  0.49932037  1
  Fe  Fe49  1  0.66569937  0.33331874  0.66649743  1
  Fe  Fe50  1  0.83168446  0.50036331  0.83551982  1
  Fe  Fe51  1  0.83122198  0.83514757  0.50004262  1
  Fe  Fe52  1  0.66574009  0.66741545  0.66679243  1
  Fe  Fe53  1  0.83113698  0.83330126  0.83233749  1
" 