1232,Ni7Fe79Cr13_12,-223.681391056893, 151.84601383525,Ni7Fe79Cr13,"# generated using pymatgen
 data_Cr3Fe14Ni
_symmetry_space_group_name_H-M   'P 1'
_cell_length_a   7.45340969
_cell_length_b   7.45340969
_cell_length_c   10.54071308
_cell_angle_alpha   90.00000000
_cell_angle_beta   90.00000000
_cell_angle_gamma   90.00000000
_symmetry_Int_Tables_number   1
_chemical_formula_structural   Cr3Fe14Ni
_chemical_formula_sum   'Cr9 Fe42 Ni3'
_cell_volume   585.57156507
_cell_formula_units_Z   3
loop_
 _symmetry_equiv_pos_site_id
 _symmetry_equiv_pos_as_xyz
  1  'x, y, z'
loop_
 _atom_site_type_symbol
 _atom_site_label
 _atom_site_symmetry_multiplicity
 _atom_site_fract_x
 _atom_site_fract_y
 _atom_site_fract_z
 _atom_site_occupancy
  Cr  Cr0  1  0.99894474  0.99984937  0.00159593  1
  Fe  Fe1  1  0.16688102  0.16974174  0.16621755  1
  Cr  Cr2  1  1.00057334  0.00104280  0.33378152  1
  Fe  Fe3  1  0.99824260  0.33443554  0.00235520  1
  Fe  Fe4  1  0.16994254  0.49934193  0.16777226  1
  Fe  Fe5  1  0.00175687  0.33533603  0.33349757  1
  Cr  Cr6  1  0.00187938  0.66564690  0.00111924  1
  Fe  Fe7  1  0.17159381  0.83359473  0.16796572  1
  Fe  Fe8  1  0.00228092  0.66607797  0.33119600  1
  Fe  Fe9  1  0.33571933  0.99707586  1.00015702  1
  Cr  Cr10  1  0.49851569  0.16658859  0.16489559  1
  Fe  Fe11  1  0.33374549  0.00176960  0.33474172  1
  Fe  Fe12  1  0.33536392  0.33760545  1.00059008  1
  Fe  Fe13  1  0.50071017  0.50216617  0.16621170  1
  Fe  Fe14  1  0.33363007  0.33465150  0.33498519  1
  Fe  Fe15  1  0.33721590  0.66816562  0.99943039  1
  Fe  Fe16  1  0.50118592  0.83265412  0.16743125  1
  Fe  Fe17  1  0.33324536  0.66603549  0.33404523  1
  Ni  Ni18  1  0.66657515  0.00166960  0.99966589  1
  Fe  Fe19  1  0.83261067  0.16939073  0.16678388  1
  Fe  Fe20  1  0.66700482  0.00206847  0.33208057  1
  Fe  Fe21  1  0.66897215  0.33601217  0.99957641  1
  Fe  Fe22  1  0.83272923  0.49964029  0.16871637  1
  Fe  Fe23  1  0.66720767  0.33415587  0.33400413  1
  Fe  Fe24  1  0.66701280  0.66868658  1.00023621  1
  Fe  Fe25  1  0.83018264  0.83382789  0.16771823  1
  Fe  Fe26  1  0.66722363  0.66589725  0.33152613  1
  Fe  Fe27  1  0.16692690  0.16956975  0.50150694  1
  Fe  Fe28  1  0.00104176  1.00072880  0.66883871  1
  Cr  Cr29  1  0.16815435  0.16867448  0.83809134  1
  Fe  Fe30  1  0.16937757  0.50210440  0.50128038  1
  Fe  Fe31  1  0.00289908  0.33446133  0.66804312  1
  Fe  Fe32  1  0.17028450  0.50145211  0.83354763  1
  Fe  Fe33  1  0.16731687  0.83079213  0.50141092  1
  Fe  Fe34  1  0.00356291  0.66749181  0.67063047  1
  Fe  Fe35  1  0.16964826  0.83111932  0.83334788  1
  Fe  Fe36  1  0.50282070  0.16987644  0.49945075  1
  Cr  Cr37  1  0.33510925  0.00097671  0.66704540  1
  Fe  Fe38  1  0.50274282  0.16946460  0.83664624  1
  Fe  Fe39  1  0.49990281  0.50021530  0.50197489  1
  Fe  Fe40  1  0.33581599  0.33662575  0.66800641  1
  Ni  Ni41  1  0.50147778  0.50175505  0.83471144  1
  Cr  Cr42  1  0.50195938  0.83402995  0.49852625  1
  Ni  Ni43  1  0.33413891  0.66557028  0.66785591  1
  Fe  Fe44  1  0.50100352  0.83310227  0.83455377  1
  Fe  Fe45  1  0.83256563  0.16796034  0.50254436  1
  Fe  Fe46  1  0.66753812  0.00182295  0.67019314  1
  Fe  Fe47  1  0.83143253  0.16931539  0.83378713  1
  Cr  Cr48  1  0.83496771  0.50169355  0.50170917  1
  Fe  Fe49  1  0.66433999  0.33474945  0.66872811  1
  Fe  Fe50  1  0.83364545  0.49952688  0.83256617  1
  Cr  Cr51  1  0.83401249  0.83305615  0.50280580  1
  Fe  Fe52  1  0.66420934  0.66643792  0.67045664  1
  Fe  Fe53  1  0.83156297  0.83370203  0.83284745  1
" 