3840,Ni7Fe12Cr80_10,-206.288621924819, 197.235227609517,Ni7Fe12Cr80,"# generated using pymatgen
 data_Cr15Fe2Ni
_symmetry_space_group_name_H-M   'P 1'
_cell_length_a   7.58431621
_cell_length_b   7.58431621
_cell_length_c   10.72584285
_cell_angle_alpha   90.00000000
_cell_angle_beta   90.00000000
_cell_angle_gamma   90.00000000
_symmetry_Int_Tables_number   1
_chemical_formula_structural   Cr15Fe2Ni
_chemical_formula_sum   'Cr45 Fe6 Ni3'
_cell_volume   616.97034947
_cell_formula_units_Z   3
loop_
 _symmetry_equiv_pos_site_id
 _symmetry_equiv_pos_as_xyz
  1  'x, y, z'
loop_
 _atom_site_type_symbol
 _atom_site_label
 _atom_site_symmetry_multiplicity
 _atom_site_fract_x
 _atom_site_fract_y
 _atom_site_fract_z
 _atom_site_occupancy
  Cr  Cr0  1  0.98941374  0.99167155  0.99197211  1
  Cr  Cr1  1  0.15825628  0.15797447  0.15824767  1
  Cr  Cr2  1  0.99140062  0.99165849  0.32393429  1
  Cr  Cr3  1  -0.00766855  0.32510881  0.99112814  1
  Cr  Cr4  1  0.15899955  0.49249071  0.15825251  1
  Cr  Cr5  1  0.99216088  0.32713797  0.32725422  1
  Cr  Cr6  1  0.99025560  0.66002711  -0.00688672  1
  Cr  Cr7  1  0.15808653  0.82634154  0.15927658  1
  Cr  Cr8  1  0.99101077  0.65801179  0.32623236  1
  Cr  Cr9  1  0.32624158  -0.00728607  -0.00698606  1
  Cr  Cr10  1  0.49283928  0.15975380  0.16044658  1
  Cr  Cr11  1  0.32664262  -0.00615923  0.32646921  1
  Cr  Cr12  1  0.32548991  0.32623720  0.99220271  1
  Cr  Cr13  1  0.49387334  0.49249384  0.15754003  1
  Cr  Cr14  1  0.32589743  0.32496677  0.32681073  1
  Cr  Cr15  1  0.32652619  0.65785658  -0.00733250  1
  Cr  Cr16  1  0.49300675  0.82456133  0.15856170  1
  Cr  Cr17  1  0.32486126  0.65800204  0.32582022  1
  Cr  Cr18  1  0.66114983  0.99063452  0.99122986  1
  Cr  Cr19  1  0.82571314  0.15884152  0.15951046  1
  Cr  Cr20  1  0.65876268  -0.00730568  0.32509541  1
  Cr  Cr21  1  0.65898426  0.32539073  0.99183962  1
  Cr  Cr22  1  0.82393549  0.49265992  0.15999303  1
  Fe  Fe23  1  0.65942441  0.32611163  0.32679510  1
  Fe  Fe24  1  0.66010621  0.66010535  -0.00720893  1
  Ni  Ni25  1  0.82510351  0.82503239  0.15781226  1
  Cr  Cr26  1  0.66093222  0.65876275  0.32448350  1
  Fe  Fe27  1  0.15915774  0.16002549  0.49225112  1
  Cr  Cr28  1  0.99073770  -0.00734090  0.66090021  1
  Cr  Cr29  1  0.15663397  0.15822253  0.82612196  1
  Fe  Fe30  1  0.15722576  0.49163831  0.49226689  1
  Cr  Cr31  1  -0.00757699  0.32634050  0.65842221  1
  Cr  Cr32  1  0.15903492  0.49243019  0.82554173  1
  Cr  Cr33  1  0.15970816  0.82609747  0.49243348  1
  Cr  Cr34  1  0.99148524  0.65780712  0.65745943  1
  Cr  Cr35  1  0.15874305  0.82615451  0.82509800  1
  Fe  Fe36  1  0.49241394  0.15966056  0.49192193  1
  Cr  Cr37  1  0.32667504  -0.00640020  0.65732518  1
  Cr  Cr38  1  0.49382924  0.15897348  0.82496463  1
  Cr  Cr39  1  0.49393901  0.49108951  0.49197374  1
  Cr  Cr40  1  0.32489416  0.32530851  0.65779134  1
  Cr  Cr41  1  0.49321360  0.49346059  0.82729442  1
  Cr  Cr42  1  0.49079447  0.82637686  0.49284810  1
  Cr  Cr43  1  0.32489399  0.65790177  0.65831715  1
  Cr  Cr44  1  0.49275642  0.82437321  0.82539927  1
  Cr  Cr45  1  0.82527522  0.16173621  0.49162292  1
  Cr  Cr46  1  0.65939353  -0.00734292  0.66048505  1
  Ni  Ni47  1  0.82577999  0.15791151  0.82556762  1
  Ni  Ni48  1  0.82605972  0.49014310  0.49152043  1
  Cr  Cr49  1  0.65948739  0.32456253  0.65800860  1
  Cr  Cr50  1  0.82455960  0.49135015  0.82558269  1
  Cr  Cr51  1  0.82630398  0.82443395  0.49258938  1
  Cr  Cr52  1  0.66042761  0.65959029  0.65995595  1
  Fe  Fe53  1  0.82527434  0.82694019  0.82636877  1
" 