6134,Ni7Fe12Cr80_7,-206.160130935647, 194.70754344771,Ni7Fe12Cr80,"# generated using pymatgen
 data_Cr15Fe2Ni
_symmetry_space_group_name_H-M   'P 1'
_cell_length_a   7.58770761
_cell_length_b   7.58770761
_cell_length_c   10.73063900
_cell_angle_alpha   90.00000000
_cell_angle_beta   90.00000000
_cell_angle_gamma   90.00000000
_symmetry_Int_Tables_number   1
_chemical_formula_structural   Cr15Fe2Ni
_chemical_formula_sum   'Cr45 Fe6 Ni3'
_cell_volume   617.79837072
_cell_formula_units_Z   3
loop_
 _symmetry_equiv_pos_site_id
 _symmetry_equiv_pos_as_xyz
  1  'x, y, z'
loop_
 _atom_site_type_symbol
 _atom_site_label
 _atom_site_symmetry_multiplicity
 _atom_site_fract_x
 _atom_site_fract_y
 _atom_site_fract_z
 _atom_site_occupancy
  Cr  Cr0  1  0.99122056  -0.00718150  -0.00755188  1
  Cr  Cr1  1  0.15819487  0.15870745  0.15790873  1
  Cr  Cr2  1  0.99121091  -0.00756315  0.32550112  1
  Cr  Cr3  1  0.99194990  0.32528903  -0.00716357  1
  Cr  Cr4  1  0.15983779  0.49183775  0.15773773  1
  Cr  Cr5  1  0.99081757  0.32611502  0.32588491  1
  Cr  Cr6  1  -0.00733939  0.65804052  0.99172166  1
  Cr  Cr7  1  0.15868814  0.82560348  0.15889297  1
  Cr  Cr8  1  -0.00747492  0.65759418  0.32809280  1
  Cr  Cr9  1  0.32713662  0.99127928  0.99120837  1
  Fe  Fe10  1  0.49368704  0.15873157  0.15874311  1
  Cr  Cr11  1  0.32611668  0.99204217  0.32565312  1
  Cr  Cr12  1  0.32527056  0.32568901  -0.00691955  1
  Cr  Cr13  1  0.49153326  0.49169834  0.15834643  1
  Cr  Cr14  1  0.32537850  0.32537039  0.32456051  1
  Fe  Fe15  1  0.32622934  0.65954912  0.99122220  1
  Cr  Cr16  1  0.49209797  0.82514979  0.15853282  1
  Cr  Cr17  1  0.32405558  0.65872968  0.32673400  1
  Cr  Cr18  1  0.65779149  0.99198249  -0.00692112  1
  Ni  Ni19  1  0.82456165  0.15866567  0.15955794  1
  Cr  Cr20  1  0.65881847  -0.00624572  0.32309749  1
  Cr  Cr21  1  0.65892867  0.32425362  -0.00649139  1
  Cr  Cr22  1  0.82477671  0.49121034  0.15846070  1
  Cr  Cr23  1  0.65995284  0.32406390  0.32493718  1
  Cr  Cr24  1  0.65738676  0.65991218  0.99091026  1
  Cr  Cr25  1  0.82536172  0.82680006  0.15864396  1
  Cr  Cr26  1  0.65956615  0.65833177  0.32570136  1
  Cr  Cr27  1  0.15825475  0.15811150  0.49262353  1
  Cr  Cr28  1  0.99202540  -0.00764979  0.65819707  1
  Cr  Cr29  1  0.15847193  0.15850150  0.82561466  1
  Fe  Fe30  1  0.15711903  0.49270258  0.49205174  1
  Cr  Cr31  1  0.99060886  0.32650179  0.65742301  1
  Cr  Cr32  1  0.15950416  0.49182697  0.82710191  1
  Fe  Fe33  1  0.15830781  0.82429634  0.49203374  1
  Cr  Cr34  1  -0.00778572  0.65729256  0.65633864  1
  Cr  Cr35  1  0.15998615  0.82581920  0.82611106  1
  Cr  Cr36  1  0.49236265  0.15972766  0.49237211  1
  Cr  Cr37  1  0.32624497  0.99092961  0.65928271  1
  Cr  Cr38  1  0.49189604  0.15846844  0.82381629  1
  Cr  Cr39  1  0.49343765  0.49125943  0.49250024  1
  Cr  Cr40  1  0.32539359  0.32566479  0.65850125  1
  Cr  Cr41  1  0.49233646  0.49333787  0.82530348  1
  Cr  Cr42  1  0.49133971  0.82516240  0.49186309  1
  Cr  Cr43  1  0.32521546  0.65955281  0.65889930  1
  Ni  Ni44  1  0.49118321  0.82463814  0.82591821  1
  Fe  Fe45  1  0.82497711  0.16067838  0.49194160  1
  Cr  Cr46  1  0.65787404  -0.00746588  0.65995874  1
  Cr  Cr47  1  0.82577768  0.15895515  0.82378503  1
  Ni  Ni48  1  0.82650971  0.49088431  0.49266852  1
  Fe  Fe49  1  0.65987865  0.32589997  0.65753640  1
  Cr  Cr50  1  0.82430705  0.49181592  0.82476760  1
  Cr  Cr51  1  0.82667764  0.82455391  0.49130904  1
  Cr  Cr52  1  0.65871898  0.65814377  0.65953218  1
  Cr  Cr53  1  0.82426661  0.82537922  0.82619201  1
" 