2044,Ni7Fe12Cr80_18,-206.420184417441, 198.099435223922,Ni7Fe12Cr80,"# generated using pymatgen
 data_Cr15Fe2Ni
_symmetry_space_group_name_H-M   'P 1'
_cell_length_a   7.57764359
_cell_length_b   7.57764359
_cell_length_c   10.71640634
_cell_angle_alpha   90.00000000
_cell_angle_beta   90.00000000
_cell_angle_gamma   90.00000000
_symmetry_Int_Tables_number   1
_chemical_formula_structural   Cr15Fe2Ni
_chemical_formula_sum   'Cr45 Fe6 Ni3'
_cell_volume   615.34336544
_cell_formula_units_Z   3
loop_
 _symmetry_equiv_pos_site_id
 _symmetry_equiv_pos_as_xyz
  1  'x, y, z'
loop_
 _atom_site_type_symbol
 _atom_site_label
 _atom_site_symmetry_multiplicity
 _atom_site_fract_x
 _atom_site_fract_y
 _atom_site_fract_z
 _atom_site_occupancy
  Cr  Cr0  1  0.99170706  0.99194553  0.99224085  1
  Cr  Cr1  1  0.15931003  0.15887739  0.16049406  1
  Cr  Cr2  1  -0.00680417  -0.00709414  0.32651655  1
  Cr  Cr3  1  0.99199058  0.32651048  0.99195173  1
  Cr  Cr4  1  0.15984287  0.49529943  0.15823713  1
  Cr  Cr5  1  -0.00652152  0.32585750  0.32712234  1
  Fe  Fe6  1  -0.00605793  0.65969303  -0.00695721  1
  Cr  Cr7  1  0.15901446  0.82393220  0.15770690  1
  Cr  Cr8  1  0.99267302  0.65934331  0.32470013  1
  Cr  Cr9  1  0.32607111  0.99111782  0.99231783  1
  Cr  Cr10  1  0.49373842  0.15940623  0.15891026  1
  Cr  Cr11  1  0.32618487  0.99166889  0.32769758  1
  Cr  Cr12  1  0.32606567  0.32761617  0.99204404  1
  Cr  Cr13  1  0.49153642  0.49310492  0.15938790  1
  Cr  Cr14  1  0.32512412  0.32631814  0.32691185  1
  Ni  Ni15  1  0.32489297  0.65937208  -0.00657614  1
  Cr  Cr16  1  0.49182828  0.82559805  0.15974277  1
  Fe  Fe17  1  0.32681177  0.66015959  0.32642841  1
  Cr  Cr18  1  0.66032971  -0.00708480  -0.00706465  1
  Cr  Cr19  1  0.82505986  0.15857808  0.15954877  1
  Cr  Cr20  1  0.65872848  0.99086639  0.32519870  1
  Cr  Cr21  1  0.66005224  0.32553663  0.99264740  1
  Cr  Cr22  1  0.82672936  0.49339415  0.15954536  1
  Cr  Cr23  1  0.65950653  0.32683966  0.32442481  1
  Cr  Cr24  1  0.65922239  0.65965473  0.99263774  1
  Fe  Fe25  1  0.82637910  0.82569782  0.15906288  1
  Cr  Cr26  1  0.65826508  0.66040102  0.32748177  1
  Fe  Fe27  1  0.16012094  0.15929619  0.49301623  1
  Cr  Cr28  1  -0.00691947  -0.00578246  0.65935093  1
  Cr  Cr29  1  0.15887355  0.15944012  0.82454886  1
  Cr  Cr30  1  0.16007297  0.49189041  0.49222209  1
  Cr  Cr31  1  -0.00662074  0.32511021  0.65903318  1
  Cr  Cr32  1  0.15998636  0.49394363  0.82764777  1
  Cr  Cr33  1  0.16080804  0.82659841  0.49193418  1
  Cr  Cr34  1  0.99164699  0.65878022  0.66010309  1
  Cr  Cr35  1  0.15917607  0.82472446  0.82846654  1
  Cr  Cr36  1  0.49154405  0.15859647  0.49267264  1
  Cr  Cr37  1  0.32614888  -0.00708119  0.65809018  1
  Cr  Cr38  1  0.49380507  0.15996782  0.82652360  1
  Cr  Cr39  1  0.49235926  0.49417556  0.49320623  1
  Fe  Fe40  1  0.32564643  0.32567348  0.65902032  1
  Cr  Cr41  1  0.49199061  0.49271987  0.82551448  1
  Ni  Ni42  1  0.49197028  0.82531028  0.49261314  1
  Cr  Cr43  1  0.32811712  0.65954652  0.65838619  1
  Cr  Cr44  1  0.49227201  0.82542029  0.82544801  1
  Cr  Cr45  1  0.82694144  0.15933361  0.49235172  1
  Cr  Cr46  1  0.65887870  0.99119067  0.65997163  1
  Ni  Ni47  1  0.82604216  0.15946212  0.82620885  1
  Cr  Cr48  1  0.82567544  0.49299061  0.49337258  1
  Cr  Cr49  1  0.65964751  0.32707800  0.66103436  1
  Cr  Cr50  1  0.82613082  0.49241418  0.82519035  1
  Cr  Cr51  1  0.82465425  0.82578411  0.49309777  1
  Fe  Fe52  1  0.65862324  0.66020065  0.65855359  1
  Cr  Cr53  1  0.82666127  0.82653948  0.82599569  1
" 