2025,Ni7Fe79Cr13_8,-224.15245304335, 150.206633678894,Ni7Fe79Cr13,"# generated using pymatgen
 data_Cr3Fe14Ni
_symmetry_space_group_name_H-M   'P 1'
_cell_length_a   7.46041261
_cell_length_b   7.46041261
_cell_length_c   10.55061669
_cell_angle_alpha   90.00000000
_cell_angle_beta   90.00000000
_cell_angle_gamma   90.00000000
_symmetry_Int_Tables_number   1
_chemical_formula_structural   Cr3Fe14Ni
_chemical_formula_sum   'Cr9 Fe42 Ni3'
_cell_volume   587.22365184
_cell_formula_units_Z   3
loop_
 _symmetry_equiv_pos_site_id
 _symmetry_equiv_pos_as_xyz
  1  'x, y, z'
loop_
 _atom_site_type_symbol
 _atom_site_label
 _atom_site_symmetry_multiplicity
 _atom_site_fract_x
 _atom_site_fract_y
 _atom_site_fract_z
 _atom_site_occupancy
  Fe  Fe0  1  0.00308661  0.99989653  1.00022412  1
  Fe  Fe1  1  0.16549194  0.16691003  0.16636895  1
  Fe  Fe2  1  0.99907874  0.99957925  0.33381193  1
  Fe  Fe3  1  0.00146335  0.33301150  0.99846358  1
  Cr  Cr4  1  0.16659237  0.49959423  0.16834768  1
  Fe  Fe5  1  0.00082576  0.33247903  0.33562554  1
  Fe  Fe6  1  0.00114852  0.66845770  0.99858385  1
  Fe  Fe7  1  0.16591405  0.83421986  0.16529613  1
  Fe  Fe8  1  0.00052267  0.66920176  0.33568554  1
  Fe  Fe9  1  0.33268706  0.00071170  0.00100256  1
  Fe  Fe10  1  0.50007990  0.17017790  0.16626553  1
  Cr  Cr11  1  0.33405128  0.00047983  0.33327735  1
  Fe  Fe12  1  0.33389564  0.33361335  0.99825448  1
  Fe  Fe13  1  0.50009275  0.49912658  0.16521171  1
  Fe  Fe14  1  0.33495851  0.33298717  0.33545878  1
  Ni  Ni15  1  0.33242324  0.66525869  0.99987910  1
  Fe  Fe16  1  0.49888031  0.83204937  0.16498290  1
  Cr  Cr17  1  0.33321752  0.66585795  0.33524850  1
  Cr  Cr18  1  0.66974919  0.00125456  0.00243604  1
  Fe  Fe19  1  0.83591605  0.16756395  0.16843305  1
  Fe  Fe20  1  0.66828521  0.00195693  0.33361535  1
  Fe  Fe21  1  0.66541904  0.33490248  0.99899125  1
  Cr  Cr22  1  0.83516759  0.49989932  0.16636340  1
  Fe  Fe23  1  0.66567554  0.33201247  0.33439283  1
  Fe  Fe24  1  0.66599550  0.66626578  1.00032364  1
  Fe  Fe25  1  0.83682040  0.83472770  0.16730447  1
  Cr  Cr26  1  0.66705523  0.66853317  0.33292582  1
  Fe  Fe27  1  0.16506487  0.16703897  0.50040377  1
  Fe  Fe28  1  0.00260535  0.00106139  0.66732134  1
  Fe  Fe29  1  0.16771325  0.16669764  0.83442965  1
  Fe  Fe30  1  0.16470488  0.50014055  0.50145322  1
  Fe  Fe31  1  0.99867412  0.33391072  0.66779419  1
  Ni  Ni32  1  0.16461660  0.50102762  0.83378365  1
  Fe  Fe33  1  0.16556118  0.83419034  0.50216151  1
  Fe  Fe34  1  0.00064349  0.66645796  0.66762617  1
  Fe  Fe35  1  0.16681683  0.83345198  0.83415448  1
  Fe  Fe36  1  0.50111472  0.16821575  0.50074027  1
  Fe  Fe37  1  0.33182293  0.00106767  0.66616250  1
  Ni  Ni38  1  0.50097074  0.16664834  0.83366833  1
  Fe  Fe39  1  0.50187415  0.49959166  0.50132259  1
  Cr  Cr40  1  0.33242527  0.33461374  0.66764224  1
  Fe  Fe41  1  0.49916890  0.49979530  0.83491231  1
  Fe  Fe42  1  0.49996104  0.83345899  0.50228518  1
  Fe  Fe43  1  0.33195566  0.66728086  0.66718486  1
  Cr  Cr44  1  0.49975976  0.83481508  0.83256760  1
  Fe  Fe45  1  0.83511149  0.16826556  0.49939394  1
  Cr  Cr46  1  0.66920233  0.00142739  0.66565083  1
  Fe  Fe47  1  0.83475735  0.16875804  0.83388425  1
  Fe  Fe48  1  0.83451256  0.49948343  0.50062608  1
  Fe  Fe49  1  0.66806980  0.33488419  0.66788744  1
  Fe  Fe50  1  0.83278024  0.50007180  0.83413878  1
  Fe  Fe51  1  0.83590386  0.83368598  0.50061361  1
  Fe  Fe52  1  0.66788611  0.66438534  0.66592343  1
  Fe  Fe53  1  0.83584132  0.83285767  0.83350648  1
" 