3255,Ni7Fe12Cr80_6,-206.23354516244, 198.022555247744,Ni7Fe12Cr80,"# generated using pymatgen
 data_Cr15Fe2Ni
_symmetry_space_group_name_H-M   'P 1'
_cell_length_a   7.58354278
_cell_length_b   7.58354278
_cell_length_c   10.72474904
_cell_angle_alpha   90.00000000
_cell_angle_beta   90.00000000
_cell_angle_gamma   90.00000000
_symmetry_Int_Tables_number   1
_chemical_formula_structural   Cr15Fe2Ni
_chemical_formula_sum   'Cr45 Fe6 Ni3'
_cell_volume   616.78161555
_cell_formula_units_Z   3
loop_
 _symmetry_equiv_pos_site_id
 _symmetry_equiv_pos_as_xyz
  1  'x, y, z'
loop_
 _atom_site_type_symbol
 _atom_site_label
 _atom_site_symmetry_multiplicity
 _atom_site_fract_x
 _atom_site_fract_y
 _atom_site_fract_z
 _atom_site_occupancy
  Ni  Ni0  1  0.99229606  -0.00683774  0.99112314  1
  Cr  Cr1  1  0.15847438  0.15836743  0.15950348  1
  Cr  Cr2  1  -0.00576416  -0.00768020  0.32617955  1
  Cr  Cr3  1  -0.00740229  0.32399323  -0.00760784  1
  Cr  Cr4  1  0.15823626  0.49264044  0.15885313  1
  Cr  Cr5  1  0.99116529  0.32674108  0.32575806  1
  Cr  Cr6  1  0.99151897  0.65988934  -0.00652666  1
  Cr  Cr7  1  0.15847475  0.82594906  0.15987270  1
  Cr  Cr8  1  0.99115870  0.65789749  0.32575848  1
  Cr  Cr9  1  0.32439948  -0.00692873  -0.00765339  1
  Cr  Cr10  1  0.49300209  0.15845817  0.15995930  1
  Fe  Fe11  1  0.32566863  -0.00767998  0.32564197  1
  Cr  Cr12  1  0.32513785  0.32462793  0.99134309  1
  Cr  Cr13  1  0.49277929  0.49209716  0.15837560  1
  Cr  Cr14  1  0.32574862  0.32383338  0.32455928  1
  Cr  Cr15  1  0.32621607  0.65925615  -0.00757800  1
  Cr  Cr16  1  0.49245875  0.82640280  0.15941178  1
  Cr  Cr17  1  0.32575653  0.66080420  0.32455969  1
  Fe  Fe18  1  0.66051368  0.99231252  0.99230880  1
  Cr  Cr19  1  0.82548411  0.15869460  0.15717762  1
  Cr  Cr20  1  0.65713626  0.99231179  0.32587495  1
  Cr  Cr21  1  0.65922335  0.32581398  -0.00652666  1
  Ni  Ni22  1  0.82548429  0.49240993  0.15996506  1
  Cr  Cr23  1  0.66004239  0.32690866  0.32591860  1
  Cr  Cr24  1  0.65922242  0.65915124  -0.00685470  1
  Cr  Cr25  1  0.82602609  0.82617068  0.15663150  1
  Cr  Cr26  1  0.66004129  0.65773829  0.32591841  1
  Cr  Cr27  1  0.15989467  0.15888408  0.49233391  1
  Cr  Cr28  1  -0.00541985  -0.00692604  0.66017210  1
  Ni  Ni29  1  0.15934337  0.15822665  0.82502032  1
  Cr  Cr30  1  0.15916208  0.49264502  0.49350556  1
  Cr  Cr31  1  -0.00641967  0.32518787  0.65881079  1
  Cr  Cr32  1  0.16082557  0.49125704  0.82458513  1
  Cr  Cr33  1  0.15989925  0.82542813  0.49197042  1
  Cr  Cr34  1  -0.00749250  0.65869349  0.65772866  1
  Cr  Cr35  1  0.15850097  0.82653234  0.82511826  1
  Cr  Cr36  1  0.49173382  0.15888186  0.49196585  1
  Fe  Fe37  1  0.32487592  -0.00688884  0.65980503  1
  Cr  Cr38  1  0.49160021  0.15924704  0.82503406  1
  Cr  Cr39  1  0.49191523  0.49210347  0.49405223  1
  Fe  Fe40  1  0.32485602  0.32483962  0.65977354  1
  Cr  Cr41  1  0.49037363  0.49228123  0.82451464  1
  Cr  Cr42  1  0.49118512  0.82597202  0.49251714  1
  Fe  Fe43  1  0.32565874  0.65900475  0.65896899  1
  Cr  Cr44  1  0.49260927  0.82543099  0.82503111  1
  Cr  Cr45  1  0.82532916  0.15961853  0.49193366  1
  Cr  Cr46  1  0.65754679  0.99199769  0.65940052  1
  Cr  Cr47  1  0.82686777  0.15692169  0.82785245  1
  Fe  Fe48  1  0.82565976  0.49231315  0.49192832  1
  Cr  Cr49  1  0.65838395  0.32642931  0.65756855  1
  Cr  Cr50  1  0.82575661  0.49227645  0.82546957  1
  Cr  Cr51  1  0.82587237  0.82524487  0.49247954  1
  Cr  Cr52  1  0.65837390  0.65853197  0.65789593  1
  Cr  Cr53  1  0.82584617  0.82776017  0.82785422  1
" 