4581,Ni7Fe12Cr80_2,-206.330605643319, 196.813498426118,Ni7Fe12Cr80,"# generated using pymatgen
 data_Cr15Fe2Ni
_symmetry_space_group_name_H-M   'P 1'
_cell_length_a   7.58400861
_cell_length_b   7.58400861
_cell_length_c   10.72540783
_cell_angle_alpha   90.00000000
_cell_angle_beta   90.00000000
_cell_angle_gamma   90.00000000
_symmetry_Int_Tables_number   1
_chemical_formula_structural   Cr15Fe2Ni
_chemical_formula_sum   'Cr45 Fe6 Ni3'
_cell_volume   616.89528264
_cell_formula_units_Z   3
loop_
 _symmetry_equiv_pos_site_id
 _symmetry_equiv_pos_as_xyz
  1  'x, y, z'
loop_
 _atom_site_type_symbol
 _atom_site_label
 _atom_site_symmetry_multiplicity
 _atom_site_fract_x
 _atom_site_fract_y
 _atom_site_fract_z
 _atom_site_occupancy
  Cr  Cr0  1  -0.00715946  0.99219489  0.99163115  1
  Cr  Cr1  1  0.15834740  0.16027015  0.15861008  1
  Cr  Cr2  1  -0.00735263  0.99158984  0.32646318  1
  Fe  Fe3  1  0.99149448  0.32638399  -0.00742293  1
  Cr  Cr4  1  0.15886917  0.49066908  0.15896626  1
  Fe  Fe5  1  0.99193572  0.32594301  0.32532781  1
  Cr  Cr6  1  0.99050629  0.65840342  -0.00740832  1
  Cr  Cr7  1  0.15941599  0.82592827  0.15972855  1
  Cr  Cr8  1  0.99200880  0.65881264  0.32609582  1
  Cr  Cr9  1  0.32577677  -0.00733739  -0.00752693  1
  Fe  Fe10  1  0.49223969  0.16063297  0.15895727  1
  Cr  Cr11  1  0.32533309  -0.00688622  0.32455472  1
  Cr  Cr12  1  0.32711030  0.32531372  -0.00724999  1
  Ni  Ni13  1  0.49433845  0.49210302  0.15812440  1
  Cr  Cr14  1  0.32771970  0.32550526  0.32534025  1
  Cr  Cr15  1  0.32715254  0.65889071  0.99197118  1
  Cr  Cr16  1  0.49341437  0.82395841  0.15783084  1
  Cr  Cr17  1  0.32501531  0.65824938  0.32564793  1
  Cr  Cr18  1  0.65824901  0.99215023  0.99190659  1
  Cr  Cr19  1  0.82628095  0.16054916  0.15896627  1
  Cr  Cr20  1  0.65888579  -0.00570491  0.32571030  1
  Cr  Cr21  1  0.65874032  0.32764301  -0.00483492  1
  Fe  Fe22  1  0.82379091  0.49249473  0.15808945  1
  Cr  Cr23  1  0.65832694  0.32614196  0.32351582  1
  Ni  Ni24  1  0.65893634  0.65715489  -0.00687867  1
  Cr  Cr25  1  0.82403705  0.82448504  0.15855928  1
  Cr  Cr26  1  0.65984126  0.65643218  0.32382712  1
  Cr  Cr27  1  0.15811956  0.16026611  0.49139774  1
  Cr  Cr28  1  0.99139951  0.99157356  0.65877261  1
  Cr  Cr29  1  0.15808214  0.16030360  0.82686016  1
  Cr  Cr30  1  0.15905588  0.49127668  0.49205986  1
  Cr  Cr31  1  0.99169418  0.32560404  0.65919872  1
  Cr  Cr32  1  0.15902016  0.49089385  0.82584142  1
  Cr  Cr33  1  0.15919732  0.82532372  0.49059006  1
  Cr  Cr34  1  0.99117561  0.65968976  0.65818036  1
  Cr  Cr35  1  0.16021348  0.82566952  0.82654753  1
  Cr  Cr36  1  0.49292605  0.15829365  0.49228906  1
  Cr  Cr37  1  0.32647103  0.99204669  0.65983942  1
  Cr  Cr38  1  0.49258016  0.15727617  0.82484945  1
  Cr  Cr39  1  0.49227194  0.49353004  0.49347886  1
  Cr  Cr40  1  0.32664220  0.32559380  0.65877258  1
  Cr  Cr41  1  0.49308498  0.49536191  0.82482735  1
  Cr  Cr42  1  0.49409950  0.82504140  0.49448967  1
  Cr  Cr43  1  0.32668498  0.65922649  0.65924794  1
  Fe  Fe44  1  0.49436034  0.82426300  0.82528073  1
  Cr  Cr45  1  0.82582112  0.15843395  0.49287750  1
  Fe  Fe46  1  0.65861910  0.99026144  0.65928982  1
  Cr  Cr47  1  0.82620452  0.15847131  0.82502350  1
  Cr  Cr48  1  0.82553960  0.49245217  0.49207614  1
  Cr  Cr49  1  0.65853034  0.32581731  0.65818056  1
  Cr  Cr50  1  0.82476029  0.49323024  0.82699402  1
  Cr  Cr51  1  0.82357050  0.82597715  0.49359537  1
  Ni  Ni52  1  0.65848810  0.66059153  0.65983081  1
  Cr  Cr53  1  0.82173740  0.82516394  0.82471075  1
" 