7292,Ni7Fe79Cr13_11,-223.653830046307, 147.915133854555,Ni7Fe79Cr13,"# generated using pymatgen
 data_Cr3Fe14Ni
_symmetry_space_group_name_H-M   'P 1'
_cell_length_a   7.46225042
_cell_length_b   7.46225042
_cell_length_c   10.55321574
_cell_angle_alpha   90.00000000
_cell_angle_beta   90.00000000
_cell_angle_gamma   90.00000000
_symmetry_Int_Tables_number   1
_chemical_formula_structural   Cr3Fe14Ni
_chemical_formula_sum   'Cr9 Fe42 Ni3'
_cell_volume   587.65773171
_cell_formula_units_Z   3
loop_
 _symmetry_equiv_pos_site_id
 _symmetry_equiv_pos_as_xyz
  1  'x, y, z'
loop_
 _atom_site_type_symbol
 _atom_site_label
 _atom_site_symmetry_multiplicity
 _atom_site_fract_x
 _atom_site_fract_y
 _atom_site_fract_z
 _atom_site_occupancy
  Fe  Fe0  1  0.99961685  1.00026910  1.00022183  1
  Fe  Fe1  1  0.16638675  0.16728075  0.16666976  1
  Ni  Ni2  1  0.00135199  0.99956588  0.33277731  1
  Fe  Fe3  1  0.00041962  0.33449044  1.00023383  1
  Fe  Fe4  1  0.16476056  0.50026359  0.16597953  1
  Fe  Fe5  1  0.99815613  0.33287249  0.33227740  1
  Ni  Ni6  1  0.99954268  0.66628780  0.99935438  1
  Cr  Cr7  1  0.16509734  0.83298978  0.16897187  1
  Fe  Fe8  1  0.99920017  0.66620590  0.33232663  1
  Fe  Fe9  1  0.33243792  0.00045735  0.99957561  1
  Fe  Fe10  1  0.50121281  0.16651607  0.16637566  1
  Fe  Fe11  1  0.33350610  0.00091495  0.33511677  1
  Fe  Fe12  1  0.33087445  0.33353818  0.00121842  1
  Cr  Cr13  1  0.50026812  0.49956146  0.16563990  1
  Cr  Cr14  1  0.33497766  0.33168932  0.33331671  1
  Fe  Fe15  1  0.33148860  0.66696825  0.99890130  1
  Cr  Cr16  1  0.50133053  0.83442904  0.16643496  1
  Fe  Fe17  1  0.33370510  0.66842977  0.33515465  1
  Fe  Fe18  1  0.66890930  0.99965513  1.00022134  1
  Fe  Fe19  1  0.83336584  0.16677637  0.16802596  1
  Fe  Fe20  1  0.66680019  0.00197499  0.33291826  1
  Fe  Fe21  1  0.66966972  0.33354165  0.00166092  1
  Fe  Fe22  1  0.83503068  0.50073537  0.16698865  1
  Ni  Ni23  1  0.66751035  0.33426523  0.33425614  1
  Fe  Fe24  1  0.66985591  0.66776700  0.99954657  1
  Fe  Fe25  1  0.83426352  0.83345090  0.16716028  1
  Fe  Fe26  1  0.66805854  0.66592200  0.33444870  1
  Fe  Fe27  1  0.16712282  0.16420122  0.50071502  1
  Fe  Fe28  1  0.00175363  0.00039944  0.66773760  1
  Fe  Fe29  1  0.16583273  0.16720329  0.83357707  1
  Cr  Cr30  1  0.16675054  0.50138696  0.50007825  1
  Fe  Fe31  1  0.00037605  0.33365404  0.66845295  1
  Fe  Fe32  1  0.16543165  0.50050385  0.83386046  1
  Fe  Fe33  1  0.16785822  0.83565706  0.49969308  1
  Fe  Fe34  1  1.00029567  0.66691211  0.66905033  1
  Fe  Fe35  1  0.16704061  0.83325658  0.83422612  1
  Fe  Fe36  1  0.49999463  0.16672011  0.50091176  1
  Fe  Fe37  1  0.33301108  0.99963900  0.66627697  1
  Cr  Cr38  1  0.50125375  0.16663405  0.83458853  1
  Fe  Fe39  1  0.50324794  0.50066330  0.50066270  1
  Fe  Fe40  1  0.33289838  0.33292226  0.66610764  1
  Cr  Cr41  1  0.49939449  0.50145390  0.83402994  1
  Fe  Fe42  1  0.49881554  0.83358037  0.50020052  1
  Fe  Fe43  1  0.33373716  0.66840443  0.66690906  1
  Fe  Fe44  1  0.50032146  0.83369494  0.83383184  1
  Cr  Cr45  1  0.83365540  0.16800261  0.50068939  1
  Fe  Fe46  1  0.66620225  0.99955777  0.66782209  1
  Fe  Fe47  1  0.83479458  0.16718399  0.83336285  1
  Fe  Fe48  1  0.83177404  0.49993311  0.49998530  1
  Fe  Fe49  1  0.66768895  0.33438353  0.66562442  1
  Fe  Fe50  1  0.83522511  0.50048325  0.83399130  1
  Cr  Cr51  1  0.83454980  0.83378608  0.49839677  1
  Fe  Fe52  1  0.66693149  0.66702511  0.66696188  1
  Fe  Fe53  1  0.83360188  0.83329613  0.83384007  1
" 