8150,Ni7Fe12Cr80_0,-206.207419738899, 197.304533401716,Ni7Fe12Cr80,"# generated using pymatgen
 data_Cr15Fe2Ni
_symmetry_space_group_name_H-M   'P 1'
_cell_length_a   7.57828191
_cell_length_b   7.57828191
_cell_length_c   10.71730906
_cell_angle_alpha   90.00000000
_cell_angle_beta   90.00000000
_cell_angle_gamma   90.00000000
_symmetry_Int_Tables_number   1
_chemical_formula_structural   Cr15Fe2Ni
_chemical_formula_sum   'Cr45 Fe6 Ni3'
_cell_volume   615.49888266
_cell_formula_units_Z   3
loop_
 _symmetry_equiv_pos_site_id
 _symmetry_equiv_pos_as_xyz
  1  'x, y, z'
loop_
 _atom_site_type_symbol
 _atom_site_label
 _atom_site_symmetry_multiplicity
 _atom_site_fract_x
 _atom_site_fract_y
 _atom_site_fract_z
 _atom_site_occupancy
  Cr  Cr0  1  0.99127221  0.99027957  -0.00481169  1
  Cr  Cr1  1  0.15749571  0.15615918  0.15916300  1
  Ni  Ni2  1  0.99232896  0.99016454  0.32401068  1
  Cr  Cr3  1  -0.00564202  0.32879386  0.98932378  1
  Cr  Cr4  1  0.16025550  0.49457925  0.15972685  1
  Cr  Cr5  1  -0.00680083  0.32692079  0.32850567  1
  Cr  Cr6  1  -0.00679975  0.65885871  -0.00697138  1
  Fe  Fe7  1  0.16010684  0.82653593  0.16109808  1
  Cr  Cr8  1  -0.00586474  0.66064001  0.32496892  1
  Cr  Cr9  1  0.32837099  0.99133100  -0.00641384  1
  Cr  Cr10  1  0.49269051  0.15994362  0.15941411  1
  Cr  Cr11  1  0.32681114  0.99064326  0.32454986  1
  Cr  Cr12  1  0.32448707  0.32710561  0.98931179  1
  Cr  Cr13  1  0.49342755  0.49476511  0.16111035  1
  Cr  Cr14  1  0.32612762  0.32818816  0.32833522  1
  Cr  Cr15  1  0.32487631  0.65970424  -0.00504538  1
  Ni  Ni16  1  0.49113907  0.82457609  0.16043858  1
  Fe  Fe17  1  0.32560642  0.66154135  0.32472509  1
  Cr  Cr18  1  0.65831771  0.99042795  -0.00582248  1
  Cr  Cr19  1  0.82793753  0.15931641  0.16157727  1
  Cr  Cr20  1  0.65988831  0.99166073  0.32442200  1
  Cr  Cr21  1  0.65909911  0.32505832  -0.00581114  1
  Cr  Cr22  1  0.82441447  0.49225844  0.15908602  1
  Fe  Fe23  1  0.66006926  0.32542078  0.32587495  1
  Cr  Cr24  1  0.65998285  0.66259319  -0.00659839  1
  Fe  Fe25  1  0.82586051  0.82680688  0.16065001  1
  Cr  Cr26  1  0.65881252  0.66121124  0.32469686  1
  Cr  Cr27  1  0.15771121  0.15713663  0.49205309  1
  Cr  Cr28  1  0.99157539  0.99245623  0.65835358  1
  Cr  Cr29  1  0.15886496  0.15900473  0.82681372  1
  Fe  Fe30  1  0.15970015  0.49355357  0.49262660  1
  Cr  Cr31  1  -0.00484122  0.32921782  0.66004163  1
  Ni  Ni32  1  0.15929192  0.49340582  0.82491591  1
  Cr  Cr33  1  0.15928904  0.82645061  0.49010437  1
  Cr  Cr34  1  -0.00686611  0.65638614  0.65998198  1
  Cr  Cr35  1  0.15951768  0.82569074  0.82660374  1
  Cr  Cr36  1  0.49279018  0.16059874  0.49193631  1
  Cr  Cr37  1  0.32792280  -0.00641376  0.65995534  1
  Cr  Cr38  1  0.49203527  0.15941735  0.82665208  1
  Cr  Cr39  1  0.49324815  0.49436637  0.49040207  1
  Cr  Cr40  1  0.32367214  0.32751300  0.66021866  1
  Cr  Cr41  1  0.49290508  0.49445486  0.82632804  1
  Cr  Cr42  1  0.49147110  0.82305346  0.49519723  1
  Cr  Cr43  1  0.32426321  0.65692541  0.65803584  1
  Cr  Cr44  1  0.49268838  0.82395822  0.82341362  1
  Cr  Cr45  1  0.82762374  0.15927273  0.49000501  1
  Cr  Cr46  1  0.65851446  0.99128383  0.65970955  1
  Cr  Cr47  1  0.82707662  0.15937127  0.82640764  1
  Cr  Cr48  1  0.82401023  0.49289465  0.49283777  1
  Cr  Cr49  1  0.65915728  0.32551170  0.65808150  1
  Cr  Cr50  1  0.82543413  0.49388663  0.82601113  1
  Cr  Cr51  1  0.82730515  0.82569836  0.49454944  1
  Fe  Fe52  1  0.65928334  0.65854062  0.65911038  1
  Cr  Cr53  1  0.82577788  0.82457305  0.82383197  1
" 