1656,Ni7Fe79Cr13_5,-224.051118675138, 150.750071966523,Ni7Fe79Cr13,"# generated using pymatgen
 data_Cr3Fe14Ni
_symmetry_space_group_name_H-M   'P 1'
_cell_length_a   7.45897551
_cell_length_b   7.45897551
_cell_length_c   10.54858433
_cell_angle_alpha   90.00000000
_cell_angle_beta   90.00000000
_cell_angle_gamma   90.00000000
_symmetry_Int_Tables_number   1
_chemical_formula_structural   Cr3Fe14Ni
_chemical_formula_sum   'Cr9 Fe42 Ni3'
_cell_volume   586.88436720
_cell_formula_units_Z   3
loop_
 _symmetry_equiv_pos_site_id
 _symmetry_equiv_pos_as_xyz
  1  'x, y, z'
loop_
 _atom_site_type_symbol
 _atom_site_label
 _atom_site_symmetry_multiplicity
 _atom_site_fract_x
 _atom_site_fract_y
 _atom_site_fract_z
 _atom_site_occupancy
  Fe  Fe0  1  0.00066090  0.00166792  1.00038986  1
  Fe  Fe1  1  0.16744169  0.16478410  0.16715285  1
  Fe  Fe2  1  0.99876702  0.99895605  0.33286186  1
  Fe  Fe3  1  0.99803525  0.33242157  0.00168527  1
  Fe  Fe4  1  0.16857386  0.50140740  0.16833937  1
  Cr  Cr5  1  0.00255451  0.33286285  0.33328380  1
  Cr  Cr6  1  0.99873351  0.66710044  0.00296384  1
  Fe  Fe7  1  0.16823507  0.83512345  0.16758329  1
  Fe  Fe8  1  0.99953534  0.66756892  0.33204842  1
  Fe  Fe9  1  0.33402355  0.99776235  1.00005746  1
  Fe  Fe10  1  0.50134386  0.16611805  0.16835574  1
  Fe  Fe11  1  0.33414184  1.00005084  0.33258680  1
  Cr  Cr12  1  0.33343284  0.33202475  0.00059276  1
  Fe  Fe13  1  0.50114794  0.50114664  0.16869842  1
  Fe  Fe14  1  0.33535805  0.33602035  0.33303542  1
  Fe  Fe15  1  0.33406659  0.66903380  0.00114525  1
  Fe  Fe16  1  0.50038682  0.83427792  0.16841981  1
  Fe  Fe17  1  0.33460233  0.66555325  0.33315515  1
  Fe  Fe18  1  0.66713057  0.00208855  1.00044947  1
  Fe  Fe19  1  0.83301552  0.16619993  0.16644918  1
  Fe  Fe20  1  0.66871222  0.99944571  0.33291719  1
  Fe  Fe21  1  0.66884787  0.33273630  1.00043474  1
  Fe  Fe22  1  0.83183175  0.50029526  0.16907367  1
  Fe  Fe23  1  0.66690327  0.33551264  0.33207463  1
  Cr  Cr24  1  0.66694801  0.66762731  0.99935898  1
  Fe  Fe25  1  0.83281632  0.83516640  0.16918844  1
  Ni  Ni26  1  0.66646080  0.66861783  0.33436543  1
  Fe  Fe27  1  0.16655878  0.16880141  0.50079007  1
  Fe  Fe28  1  0.99902344  1.00026577  0.66834191  1
  Fe  Fe29  1  0.16490907  0.16591173  0.83442974  1
  Ni  Ni30  1  0.16806454  0.50120051  0.50074214  1
  Fe  Fe31  1  0.00145463  0.33209705  0.66632731  1
  Cr  Cr32  1  0.16627654  0.50248593  0.83311666  1
  Cr  Cr33  1  0.16614859  0.83224169  0.49922698  1
  Fe  Fe34  1  0.00076160  0.66925226  0.66811668  1
  Ni  Ni35  1  0.16707601  0.83443757  0.83599923  1
  Cr  Cr36  1  0.50293551  0.16724493  0.49837223  1
  Cr  Cr37  1  0.33313658  0.00130179  0.66815561  1
  Fe  Fe38  1  0.50159456  0.16691263  0.83392590  1
  Fe  Fe39  1  0.49878923  0.50275756  0.50010234  1
  Fe  Fe40  1  0.33409719  0.33544260  0.66655149  1
  Fe  Fe41  1  0.50099226  0.50090371  0.83243290  1
  Fe  Fe42  1  0.50182472  0.83115398  0.49984736  1
  Fe  Fe43  1  0.33474378  0.66706628  0.66712704  1
  Fe  Fe44  1  0.49954481  0.83355267  0.83383841  1
  Fe  Fe45  1  0.83622993  0.16544672  0.50124077  1
  Fe  Fe46  1  0.66896481  0.99994847  0.66778690  1
  Fe  Fe47  1  0.83502831  0.16683884  0.83393112  1
  Cr  Cr48  1  0.83393332  0.50110013  0.50127232  1
  Fe  Fe49  1  0.66665789  0.33308704  0.66880381  1
  Fe  Fe50  1  0.83326928  0.49970775  0.83183872  1
  Fe  Fe51  1  0.83211870  0.83474565  0.50008840  1
  Fe  Fe52  1  0.66599758  0.66869583  0.66764063  1
  Fe  Fe53  1  0.83538044  0.83504830  0.83250563  1
" 