982,Ni7Fe79Cr13_15,-223.753795987575, 150.489399489861,Ni7Fe79Cr13,"# generated using pymatgen
 data_Cr3Fe14Ni
_symmetry_space_group_name_H-M   'P 1'
_cell_length_a   7.45512463
_cell_length_b   7.45512463
_cell_length_c   10.54313837
_cell_angle_alpha   90.00000000
_cell_angle_beta   90.00000000
_cell_angle_gamma   90.00000000
_symmetry_Int_Tables_number   1
_chemical_formula_structural   Cr3Fe14Ni
_chemical_formula_sum   'Cr9 Fe42 Ni3'
_cell_volume   585.97585712
_cell_formula_units_Z   3
loop_
 _symmetry_equiv_pos_site_id
 _symmetry_equiv_pos_as_xyz
  1  'x, y, z'
loop_
 _atom_site_type_symbol
 _atom_site_label
 _atom_site_symmetry_multiplicity
 _atom_site_fract_x
 _atom_site_fract_y
 _atom_site_fract_z
 _atom_site_occupancy
  Fe  Fe0  1  0.99964362  0.00100134  0.00236213  1
  Fe  Fe1  1  0.16603165  0.16882968  0.16645778  1
  Fe  Fe2  1  0.99582346  0.99956610  0.33471632  1
  Fe  Fe3  1  0.00215007  0.33496209  0.00193137  1
  Fe  Fe4  1  0.16768841  0.50075938  0.16623846  1
  Cr  Cr5  1  0.99900093  0.33621455  0.33319904  1
  Fe  Fe6  1  1.00063083  0.66641643  0.00140370  1
  Cr  Cr7  1  0.16472382  0.83238820  0.16954301  1
  Fe  Fe8  1  0.99808334  0.66883719  0.33535067  1
  Cr  Cr9  1  0.33462872  0.99965881  0.99805228  1
  Fe  Fe10  1  0.50245497  0.16743386  0.16647202  1
  Cr  Cr11  1  0.33513678  1.00026092  0.33369768  1
  Fe  Fe12  1  0.33424354  0.33603278  1.00068241  1
  Fe  Fe13  1  0.50075700  0.50310895  0.16671582  1
  Fe  Fe14  1  0.33503466  0.33690347  0.33306548  1
  Fe  Fe15  1  0.33480458  0.66484797  0.99978091  1
  Fe  Fe16  1  0.50414157  0.83200889  0.16752394  1
  Fe  Fe17  1  0.33427324  0.66238870  0.33419456  1
  Fe  Fe18  1  0.66778175  1.00038370  0.00310777  1
  Fe  Fe19  1  0.83422722  0.16505124  0.16514639  1
  Fe  Fe20  1  0.67146445  0.99997889  0.33307021  1
  Fe  Fe21  1  0.66601584  0.33485291  0.00207428  1
  Fe  Fe22  1  0.83401419  0.50439398  0.16529816  1
  Cr  Cr23  1  0.66842451  0.33524750  0.33631008  1
  Fe  Fe24  1  0.66641945  0.66728945  0.00123900  1
  Ni  Ni25  1  0.83200689  0.83424550  0.16783949  1
  Fe  Fe26  1  0.66999195  0.66868418  0.33384846  1
  Cr  Cr27  1  0.16791408  0.16960255  0.50151262  1
  Fe  Fe28  1  1.00022147  0.99781483  0.66608864  1
  Fe  Fe29  1  0.16763398  0.16862052  0.83218445  1
  Fe  Fe30  1  0.16794297  0.50505624  0.50158771  1
  Fe  Fe31  1  0.99983762  0.33759413  0.66712251  1
  Fe  Fe32  1  0.16643729  0.50070741  0.83421623  1
  Fe  Fe33  1  0.16485788  0.83183729  0.50118646  1
  Fe  Fe34  1  1.00005571  0.66721302  0.66625095  1
  Fe  Fe35  1  0.16750099  0.83296881  0.83317517  1
  Fe  Fe36  1  0.50306313  0.16773977  0.50297368  1
  Fe  Fe37  1  0.33519771  0.99952423  0.66940762  1
  Fe  Fe38  1  0.50087137  0.16861883  0.83278065  1
  Fe  Fe39  1  0.50047945  0.50072167  0.50258679  1
  Fe  Fe40  1  0.33614538  0.33644909  0.66866591  1
  Fe  Fe41  1  0.50239289  0.50123952  0.83372834  1
  Cr  Cr42  1  0.50335573  0.83168361  0.50024174  1
  Fe  Fe43  1  0.33431851  0.66646525  0.66873882  1
  Fe  Fe44  1  0.50108402  0.83236019  0.83180173  1
  Fe  Fe45  1  0.83242631  0.16439500  0.50342013  1
  Fe  Fe46  1  0.66729712  0.99953391  0.66625891  1
  Cr  Cr47  1  0.83414499  0.16819464  0.83367137  1
  Fe  Fe48  1  0.83396785  0.50414043  0.50329436  1
  Fe  Fe49  1  0.66655916  0.33595331  0.66620800  1
  Fe  Fe50  1  0.83364474  0.50083178  0.83391416  1
  Ni  Ni51  1  0.83451944  0.83345433  0.49987048  1
  Ni  Ni52  1  0.66850793  0.66544025  0.66775888  1
  Cr  Cr53  1  0.83320598  0.83327380  0.83521341  1
" 