5280,Ni7Fe79Cr13_18,-223.746910037169, 152.240578320402,Ni7Fe79Cr13,"# generated using pymatgen
 data_Cr3Fe14Ni
_symmetry_space_group_name_H-M   'P 1'
_cell_length_a   7.45780504
_cell_length_b   7.45780504
_cell_length_c   10.54692903
_cell_angle_alpha   90.00000000
_cell_angle_beta   90.00000000
_cell_angle_gamma   90.00000000
_symmetry_Int_Tables_number   1
_chemical_formula_structural   Cr3Fe14Ni
_chemical_formula_sum   'Cr9 Fe42 Ni3'
_cell_volume   586.60812742
_cell_formula_units_Z   3
loop_
 _symmetry_equiv_pos_site_id
 _symmetry_equiv_pos_as_xyz
  1  'x, y, z'
loop_
 _atom_site_type_symbol
 _atom_site_label
 _atom_site_symmetry_multiplicity
 _atom_site_fract_x
 _atom_site_fract_y
 _atom_site_fract_z
 _atom_site_occupancy
  Cr  Cr0  1  0.00134982  0.00162371  0.00108570  1
  Fe  Fe1  1  0.16782078  0.16890580  0.16846204  1
  Fe  Fe2  1  0.00129304  0.00123335  0.33236572  1
  Fe  Fe3  1  0.00073375  0.33635161  1.00049827  1
  Fe  Fe4  1  0.16618202  0.49955005  0.16779428  1
  Fe  Fe5  1  0.00171357  0.33504059  0.33291016  1
  Fe  Fe6  1  0.99990347  0.66436053  0.00134602  1
  Fe  Fe7  1  0.16661099  0.83340290  0.16892798  1
  Fe  Fe8  1  1.00012510  0.66558465  0.33285761  1
  Fe  Fe9  1  0.33473396  0.00125154  0.00132612  1
  Fe  Fe10  1  0.50085143  0.16825873  0.16765719  1
  Fe  Fe11  1  0.33393677  0.00134321  0.33249870  1
  Fe  Fe12  1  0.33265317  0.33333784  0.00149312  1
  Fe  Fe13  1  0.50178230  0.49948848  0.16865161  1
  Ni  Ni14  1  0.33238958  0.33417772  0.33303786  1
  Cr  Cr15  1  0.33413403  0.66721570  1.00023898  1
  Fe  Fe16  1  0.50200099  0.83411255  0.16794923  1
  Fe  Fe17  1  0.33396389  0.66661632  0.33236633  1
  Fe  Fe18  1  0.66556130  1.00041901  0.00199169  1
  Fe  Fe19  1  0.83318564  0.16868832  0.16814962  1
  Fe  Fe20  1  0.66662753  0.99975415  0.33258856  1
  Fe  Fe21  1  0.66847053  0.33500163  0.00148515  1
  Ni  Ni22  1  0.83417443  0.50112504  0.16675573  1
  Fe  Fe23  1  0.66765627  0.33506551  0.33159780  1
  Fe  Fe24  1  0.66857210  0.66643666  0.00173591  1
  Fe  Fe25  1  0.83324762  0.83247420  0.16781726  1
  Fe  Fe26  1  0.66776903  0.66703786  0.33291132  1
  Fe  Fe27  1  0.16788526  0.16927469  0.50023629  1
  Fe  Fe28  1  0.00109018  0.00159623  0.66816958  1
  Fe  Fe29  1  0.16636299  0.16854338  0.83315993  1
  Fe  Fe30  1  0.16625131  0.49835332  0.50093491  1
  Fe  Fe31  1  0.00314843  0.33501341  0.66844726  1
  Ni  Ni32  1  0.16639449  0.50014653  0.83283414  1
  Cr  Cr33  1  0.16652395  0.83321159  0.50094577  1
  Fe  Fe34  1  0.00078310  0.66524587  0.66765266  1
  Fe  Fe35  1  0.16896230  0.83341995  0.83228698  1
  Cr  Cr36  1  0.49866336  0.16619567  0.49890616  1
  Fe  Fe37  1  0.33348369  1.00001427  0.66803440  1
  Cr  Cr38  1  0.50007116  0.16662935  0.83524832  1
  Cr  Cr39  1  0.49918252  0.50106844  0.49972037  1
  Fe  Fe40  1  0.32988975  0.33505243  0.66777227  1
  Fe  Fe41  1  0.50001047  0.50229023  0.83367562  1
  Fe  Fe42  1  0.50237362  0.83417952  0.50074302  1
  Fe  Fe43  1  0.33382937  0.66678919  0.66940576  1
  Fe  Fe44  1  0.49928421  0.83263658  0.83316569  1
  Cr  Cr45  1  0.83483348  0.16625847  0.50017321  1
  Fe  Fe46  1  0.66728307  0.99765485  0.66727643  1
  Fe  Fe47  1  0.83600737  0.16926857  0.83367217  1
  Fe  Fe48  1  0.83609668  0.50290300  0.49929851  1
  Cr  Cr49  1  0.66916697  0.33581389  0.66862424  1
  Fe  Fe50  1  0.83522567  0.49969159  0.83529726  1
  Fe  Fe51  1  0.83205742  0.83254504  0.50091648  1
  Fe  Fe52  1  0.66724406  0.66884996  0.66720866  1
  Cr  Cr53  1  0.83391351  0.83295782  0.83315542  1
" 