3372,Ni7Fe12Cr80_4,-206.398495828067, 198.019176309451,Ni7Fe12Cr80,"# generated using pymatgen
 data_Cr15Fe2Ni
_symmetry_space_group_name_H-M   'P 1'
_cell_length_a   7.58083968
_cell_length_b   7.58083968
_cell_length_c   10.72092629
_cell_angle_alpha   90.00000000
_cell_angle_beta   90.00000000
_cell_angle_gamma   90.00000000
_symmetry_Int_Tables_number   1
_chemical_formula_structural   Cr15Fe2Ni
_chemical_formula_sum   'Cr45 Fe6 Ni3'
_cell_volume   616.12230878
_cell_formula_units_Z   3
loop_
 _symmetry_equiv_pos_site_id
 _symmetry_equiv_pos_as_xyz
  1  'x, y, z'
loop_
 _atom_site_type_symbol
 _atom_site_label
 _atom_site_symmetry_multiplicity
 _atom_site_fract_x
 _atom_site_fract_y
 _atom_site_fract_z
 _atom_site_occupancy
  Cr  Cr0  1  0.99183639  -0.00510717  -0.00668792  1
  Cr  Cr1  1  0.15877663  0.16022565  0.15862457  1
  Cr  Cr2  1  0.99183120  -0.00641598  0.32560067  1
  Cr  Cr3  1  -0.00729610  0.32455982  0.99199330  1
  Fe  Fe4  1  0.15986838  0.49256109  0.15914248  1
  Cr  Cr5  1  0.99104116  0.32468838  0.32422945  1
  Cr  Cr6  1  0.99203948  0.65802591  0.99228580  1
  Cr  Cr7  1  0.15848966  0.82414993  0.15991522  1
  Cr  Cr8  1  -0.00684906  0.65921054  0.32597491  1
  Cr  Cr9  1  0.32631019  0.99198669  0.98956254  1
  Cr  Cr10  1  0.49488140  0.16088314  0.15966708  1
  Cr  Cr11  1  0.32512930  0.99180033  0.32779814  1
  Cr  Cr12  1  0.32431848  0.32633392  -0.00736972  1
  Fe  Fe13  1  0.49262495  0.49167846  0.15998575  1
  Cr  Cr14  1  0.32693971  0.32749616  0.32496592  1
  Cr  Cr15  1  0.32788599  0.65916006  -0.00564387  1
  Cr  Cr16  1  0.49289292  0.82577979  0.15758431  1
  Cr  Cr17  1  0.32661443  0.65818784  0.32380944  1
  Fe  Fe18  1  0.65866982  0.99197357  0.99199740  1
  Fe  Fe19  1  0.82463070  0.15957752  0.15965129  1
  Cr  Cr20  1  0.66052543  -0.00609139  0.32563379  1
  Cr  Cr21  1  0.66046223  0.32613543  -0.00689701  1
  Cr  Cr22  1  0.82545283  0.49111671  0.15960246  1
  Ni  Ni23  1  0.65927664  0.32594691  0.32474460  1
  Cr  Cr24  1  0.65755782  0.66003145  0.99094475  1
  Cr  Cr25  1  0.82609886  0.82709519  0.15870519  1
  Cr  Cr26  1  0.65771995  0.65740103  0.32601570  1
  Cr  Cr27  1  0.16020543  0.15886137  0.49351282  1
  Cr  Cr28  1  -0.00613665  -0.00673664  0.65857179  1
  Ni  Ni29  1  0.15891784  0.15977318  0.82577427  1
  Cr  Cr30  1  0.15842040  0.49370087  0.49273042  1
  Cr  Cr31  1  -0.00734503  0.32593237  0.66127184  1
  Cr  Cr32  1  0.15722902  0.49172127  0.82542271  1
  Cr  Cr33  1  0.15785442  0.82492281  0.49252759  1
  Fe  Fe34  1  0.99213021  0.65880372  0.65949136  1
  Cr  Cr35  1  0.15935353  0.82602565  0.82504360  1
  Cr  Cr36  1  0.49322151  0.16055148  0.49184277  1
  Cr  Cr37  1  0.32535120  0.99242600  0.66012277  1
  Cr  Cr38  1  0.49155005  0.15762840  0.82597145  1
  Cr  Cr39  1  0.49338878  0.49039057  0.49054757  1
  Cr  Cr40  1  0.32439381  0.32459673  0.65988622  1
  Cr  Cr41  1  0.49338098  0.49283198  0.82605372  1
  Cr  Cr42  1  0.49226412  0.82654057  0.49277225  1
  Cr  Cr43  1  0.32692893  0.66045845  0.65931132  1
  Ni  Ni44  1  0.49367765  0.82615299  0.82672652  1
  Cr  Cr45  1  0.82405578  0.15998643  0.48980551  1
  Cr  Cr46  1  0.65826562  0.99073294  0.65984751  1
  Cr  Cr47  1  0.82586949  0.15974627  0.82783497  1
  Cr  Cr48  1  0.82567891  0.49274643  0.49432071  1
  Cr  Cr49  1  0.66043253  0.32750027  0.65867216  1
  Fe  Fe50  1  0.82616605  0.49283632  0.82551285  1
  Cr  Cr51  1  0.82736752  0.82475367  0.49269675  1
  Cr  Cr52  1  0.65960404  0.65924825  0.66052625  1
  Cr  Cr53  1  0.82476144  0.82419366  0.82608302  1
" 