5011,Ni7Fe79Cr13_9,-224.154019308872, 151.977053788295,Ni7Fe79Cr13,"# generated using pymatgen
 data_Cr3Fe14Ni
_symmetry_space_group_name_H-M   'P 1'
_cell_length_a   7.46273077
_cell_length_b   7.46273077
_cell_length_c   10.55389507
_cell_angle_alpha   90.00000000
_cell_angle_beta   90.00000000
_cell_angle_gamma   90.00000000
_symmetry_Int_Tables_number   1
_chemical_formula_structural   Cr3Fe14Ni
_chemical_formula_sum   'Cr9 Fe42 Ni3'
_cell_volume   587.77122433
_cell_formula_units_Z   3
loop_
 _symmetry_equiv_pos_site_id
 _symmetry_equiv_pos_as_xyz
  1  'x, y, z'
loop_
 _atom_site_type_symbol
 _atom_site_label
 _atom_site_symmetry_multiplicity
 _atom_site_fract_x
 _atom_site_fract_y
 _atom_site_fract_z
 _atom_site_occupancy
  Cr  Cr0  1  0.00103882  1.00026770  0.99903627  1
  Fe  Fe1  1  0.16844918  0.16872775  0.16769767  1
  Fe  Fe2  1  0.99959644  0.99949051  0.33429239  1
  Fe  Fe3  1  0.00126616  0.33412757  0.99930494  1
  Fe  Fe4  1  0.16826559  0.49987229  0.16778500  1
  Fe  Fe5  1  0.00213179  0.33349890  0.33380433  1
  Cr  Cr6  1  0.99836713  0.66436434  0.00096795  1
  Fe  Fe7  1  0.16752507  0.83227604  0.16844996  1
  Fe  Fe8  1  0.00135258  0.66784435  0.33257168  1
  Cr  Cr9  1  0.33576975  0.00097310  0.00087976  1
  Fe  Fe10  1  0.50041686  0.16772827  0.16693200  1
  Cr  Cr11  1  0.33468178  0.00108249  0.33297015  1
  Fe  Fe12  1  0.33304106  0.33529651  0.99950426  1
  Fe  Fe13  1  0.50054338  0.50078997  0.16694356  1
  Fe  Fe14  1  0.33361514  0.33527917  0.33444934  1
  Fe  Fe15  1  0.33514215  0.66611557  0.00084758  1
  Ni  Ni16  1  0.50109660  0.83126891  0.16607606  1
  Fe  Fe17  1  0.33404676  0.66591620  0.33303179  1
  Fe  Fe18  1  0.66615870  0.99885846  0.99976572  1
  Cr  Cr19  1  0.83380120  0.16758484  0.16774734  1
  Fe  Fe20  1  0.66722996  0.99904169  0.33416320  1
  Fe  Fe21  1  0.66657164  0.33417271  0.99954705  1
  Fe  Fe22  1  0.83199566  0.50172417  0.16812871  1
  Fe  Fe23  1  0.66511666  0.33334735  0.33361191  1
  Fe  Fe24  1  0.66489420  0.66781261  0.99995363  1
  Fe  Fe25  1  0.83117997  0.83216052  0.16853408  1
  Fe  Fe26  1  0.66545209  0.66838328  0.33314788  1
  Fe  Fe27  1  0.16627371  0.16844249  0.49991106  1
  Fe  Fe28  1  1.00024782  0.99878405  0.66722476  1
  Fe  Fe29  1  0.16755535  0.16896959  0.83327275  1
  Fe  Fe30  1  0.16963068  0.50065064  0.49988638  1
  Cr  Cr31  1  0.00122688  0.33399922  0.66889474  1
  Fe  Fe32  1  0.16912644  0.49994965  0.83332659  1
  Fe  Fe33  1  0.16506898  0.83185908  0.50022443  1
  Fe  Fe34  1  0.00090413  0.66905753  0.66799042  1
  Fe  Fe35  1  0.16692457  0.83198318  0.83216566  1
  Fe  Fe36  1  0.50088235  0.17012596  0.49991840  1
  Cr  Cr37  1  0.33283472  0.00160746  0.66698958  1
  Fe  Fe38  1  0.50060593  0.16988677  0.83394395  1
  Fe  Fe39  1  0.49870902  0.50032375  0.50126438  1
  Ni  Ni40  1  0.33399533  0.33480598  0.66612117  1
  Fe  Fe41  1  0.50023197  0.50023147  0.83264565  1
  Fe  Fe42  1  0.50173660  0.83049537  0.49920007  1
  Fe  Fe43  1  0.33457966  0.66467154  0.66693410  1
  Fe  Fe44  1  0.50148654  0.83080996  0.83471740  1
  Fe  Fe45  1  0.83376456  0.16536799  0.49835992  1
  Cr  Cr46  1  0.66717626  0.99927295  0.66646478  1
  Fe  Fe47  1  0.83273146  0.16768325  0.83477267  1
  Cr  Cr48  1  0.83225206  0.50027211  0.50020710  1
  Fe  Fe49  1  0.66356487  0.33493423  0.66773807  1
  Fe  Fe50  1  0.83147697  0.50078537  0.83303701  1
  Fe  Fe51  1  0.83410060  0.83387600  0.49997680  1
  Ni  Ni52  1  0.66726314  0.66641453  0.66791546  1
  Fe  Fe53  1  0.83252131  0.83235286  0.83237068  1
" 