4478,Ni7Fe79Cr13_17,-224.245701891468, 149.13163396219,Ni7Fe79Cr13,"# generated using pymatgen
 data_Cr3Fe14Ni
_symmetry_space_group_name_H-M   'P 1'
_cell_length_a   7.46297411
_cell_length_b   7.46297411
_cell_length_c   10.55423920
_cell_angle_alpha   90.00000000
_cell_angle_beta   90.00000000
_cell_angle_gamma   90.00000000
_symmetry_Int_Tables_number   1
_chemical_formula_structural   Cr3Fe14Ni
_chemical_formula_sum   'Cr9 Fe42 Ni3'
_cell_volume   587.82872291
_cell_formula_units_Z   3
loop_
 _symmetry_equiv_pos_site_id
 _symmetry_equiv_pos_as_xyz
  1  'x, y, z'
loop_
 _atom_site_type_symbol
 _atom_site_label
 _atom_site_symmetry_multiplicity
 _atom_site_fract_x
 _atom_site_fract_y
 _atom_site_fract_z
 _atom_site_occupancy
  Fe  Fe0  1  1.00018900  0.00203115  0.00250052  1
  Fe  Fe1  1  0.16635652  0.16657949  0.16660462  1
  Fe  Fe2  1  0.99971372  0.00098630  0.33315454  1
  Ni  Ni3  1  0.99814253  0.33144430  0.00067240  1
  Fe  Fe4  1  0.16662547  0.49874139  0.16784953  1
  Fe  Fe5  1  1.00020525  0.33228775  0.33141690  1
  Cr  Cr6  1  0.99939311  0.66635403  0.00328268  1
  Ni  Ni7  1  0.16711132  0.83543052  0.16962124  1
  Fe  Fe8  1  0.00076261  0.66747425  0.33193683  1
  Fe  Fe9  1  0.33160597  0.00230772  0.00324153  1
  Fe  Fe10  1  0.49986026  0.16620410  0.16699299  1
  Fe  Fe11  1  0.33419500  0.00109662  0.33360614  1
  Fe  Fe12  1  0.33153594  0.33320010  0.00266037  1
  Fe  Fe13  1  0.50065649  0.49991007  0.16840423  1
  Fe  Fe14  1  0.33456798  0.33331921  0.33351866  1
  Cr  Cr15  1  0.33453857  0.66888889  0.00094657  1
  Fe  Fe16  1  0.50050121  0.83499436  0.16809037  1
  Fe  Fe17  1  0.33404280  0.66647599  0.33250081  1
  Fe  Fe18  1  0.66909249  0.99922070  0.00172965  1
  Fe  Fe19  1  0.83427668  0.16676596  0.16716661  1
  Fe  Fe20  1  0.66687455  0.00133525  0.33346092  1
  Fe  Fe21  1  0.66865698  0.33545112  0.00254116  1
  Fe  Fe22  1  0.83330280  0.49866860  0.16886155  1
  Ni  Ni23  1  0.66635233  0.33198196  0.33161301  1
  Fe  Fe24  1  0.66786316  0.66595902  0.00068304  1
  Fe  Fe25  1  0.83312848  0.83507067  0.16860425  1
  Fe  Fe26  1  0.66590885  0.66674457  0.33234543  1
  Fe  Fe27  1  0.16545173  0.16834203  0.49900342  1
  Fe  Fe28  1  0.99730558  0.00335369  0.66562376  1
  Fe  Fe29  1  0.16453712  0.16731860  0.83486713  1
  Fe  Fe30  1  0.16918273  0.49943692  0.49947735  1
  Fe  Fe31  1  0.00136638  0.32949506  0.66686623  1
  Cr  Cr32  1  0.16711070  0.49807283  0.83229078  1
  Fe  Fe33  1  0.16648854  0.83315638  0.49729424  1
  Cr  Cr34  1  0.99977409  0.66783330  0.66646329  1
  Cr  Cr35  1  0.16625520  0.83619922  0.83428697  1
  Fe  Fe36  1  0.50134628  0.16778904  0.49797715  1
  Cr  Cr37  1  0.33391114  0.00034603  0.66576258  1
  Cr  Cr38  1  0.50013455  0.16689672  0.83667531  1
  Fe  Fe39  1  0.49894759  0.50029556  0.49820384  1
  Fe  Fe40  1  0.33285938  0.33423053  0.66462839  1
  Fe  Fe41  1  0.50174326  0.50215081  0.83379499  1
  Fe  Fe42  1  0.50178382  0.83226154  0.49887734  1
  Fe  Fe43  1  0.33728556  0.66520983  0.66534702  1
  Fe  Fe44  1  0.50343033  0.83236135  0.83355777  1
  Fe  Fe45  1  0.83370236  0.16523780  0.49816796  1
  Fe  Fe46  1  0.66936268  0.99810141  0.66626258  1
  Fe  Fe47  1  0.83680438  0.16608453  0.83501551  1
  Cr  Cr48  1  0.83369183  0.49954257  0.49803827  1
  Cr  Cr49  1  0.66733001  0.33248943  0.66706041  1
  Fe  Fe50  1  0.83178673  0.49910582  0.83497106  1
  Fe  Fe51  1  0.83268853  0.83585964  0.49896605  1
  Fe  Fe52  1  0.66462406  0.66926834  0.66723857  1
  Fe  Fe53  1  0.83037270  0.83537425  0.83401282  1
" 