5495,Ni7Fe79Cr13_4,-224.081759458101, 151.198253937428,Ni7Fe79Cr13,"# generated using pymatgen
 data_Cr3Fe14Ni
_symmetry_space_group_name_H-M   'P 1'
_cell_length_a   7.45821194
_cell_length_b   7.45821194
_cell_length_c   10.54750448
_cell_angle_alpha   90.00000000
_cell_angle_beta   90.00000000
_cell_angle_gamma   90.00000000
_symmetry_Int_Tables_number   1
_chemical_formula_structural   Cr3Fe14Ni
_chemical_formula_sum   'Cr9 Fe42 Ni3'
_cell_volume   586.70414991
_cell_formula_units_Z   3
loop_
 _symmetry_equiv_pos_site_id
 _symmetry_equiv_pos_as_xyz
  1  'x, y, z'
loop_
 _atom_site_type_symbol
 _atom_site_label
 _atom_site_symmetry_multiplicity
 _atom_site_fract_x
 _atom_site_fract_y
 _atom_site_fract_z
 _atom_site_occupancy
  Fe  Fe0  1  0.00229476  1.00006201  0.00215375  1
  Fe  Fe1  1  0.16763671  0.16648731  0.16901557  1
  Fe  Fe2  1  1.00029693  0.00164488  0.33385513  1
  Cr  Cr3  1  1.00049186  0.33288515  0.00157433  1
  Ni  Ni4  1  0.16728392  0.50137320  0.16771055  1
  Fe  Fe5  1  0.00060299  0.33338044  0.33236492  1
  Fe  Fe6  1  0.00331631  0.66813289  0.00337888  1
  Fe  Fe7  1  0.16867408  0.83397688  0.16726445  1
  Cr  Cr8  1  1.00018981  0.66839924  0.33396749  1
  Fe  Fe9  1  0.33308749  0.99913860  0.00148930  1
  Fe  Fe10  1  0.50071376  0.16748788  0.16872554  1
  Fe  Fe11  1  0.33380720  0.99937896  0.33281623  1
  Cr  Cr12  1  0.33371876  0.33480719  0.00066536  1
  Fe  Fe13  1  0.50054033  0.50142445  0.16915023  1
  Fe  Fe14  1  0.33438232  0.33615095  0.33115936  1
  Fe  Fe15  1  0.33349241  0.66861161  0.00232267  1
  Fe  Fe16  1  0.49960994  0.83311821  0.16741250  1
  Ni  Ni17  1  0.33438274  0.66892360  0.33343766  1
  Fe  Fe18  1  0.66686372  0.00114935  0.00293129  1
  Fe  Fe19  1  0.83348575  0.16691870  0.16895326  1
  Fe  Fe20  1  0.66771112  0.99849636  0.33281244  1
  Fe  Fe21  1  0.66647740  0.33387437  0.00346962  1
  Fe  Fe22  1  0.83265517  0.50065635  0.16753113  1
  Ni  Ni23  1  0.66810348  0.33331740  0.33307797  1
  Fe  Fe24  1  0.66503173  0.66689201  0.00253294  1
  Fe  Fe25  1  0.83395109  0.83400981  0.16582034  1
  Fe  Fe26  1  0.66582105  0.66671927  0.33385600  1
  Fe  Fe27  1  0.16672294  0.16505231  0.49930133  1
  Fe  Fe28  1  0.00135732  0.99883803  0.66598798  1
  Fe  Fe29  1  0.16609392  0.16397393  0.83364537  1
  Cr  Cr30  1  0.16812205  0.50033471  0.49951116  1
  Cr  Cr31  1  1.00002737  0.33253191  0.66715964  1
  Fe  Fe32  1  0.16907504  0.50373504  0.83353504  1
  Fe  Fe33  1  0.16933776  0.83603377  0.50017384  1
  Fe  Fe34  1  0.00145960  0.66922787  0.66570363  1
  Fe  Fe35  1  0.16935847  0.83371096  0.83403801  1
  Cr  Cr36  1  0.49907362  0.16722546  0.49864849  1
  Fe  Fe37  1  0.33234475  0.99929381  0.66715570  1
  Cr  Cr38  1  0.50158101  0.16658199  0.83420711  1
  Fe  Fe39  1  0.50172463  0.50184581  0.49891133  1
  Fe  Fe40  1  0.33462970  0.33488823  0.66839934  1
  Fe  Fe41  1  0.50066813  0.50372194  0.83305746  1
  Fe  Fe42  1  0.49955742  0.83194814  0.50009934  1
  Fe  Fe43  1  0.33464156  0.66808256  0.66675199  1
  Fe  Fe44  1  0.49977675  0.83181920  0.83414535  1
  Fe  Fe45  1  0.83429645  0.16697016  0.49842338  1
  Fe  Fe46  1  0.66829116  0.99979662  0.66602144  1
  Fe  Fe47  1  0.83356994  0.16587123  0.83429876  1
  Fe  Fe48  1  0.83065251  0.49978416  0.50016841  1
  Fe  Fe49  1  0.66621417  0.33498993  0.66554028  1
  Cr  Cr50  1  0.83444916  0.50217326  0.83496662  1
  Fe  Fe51  1  0.83318163  0.83476899  0.50143071  1
  Fe  Fe52  1  0.66615203  0.66752742  0.66587341  1
  Cr  Cr53  1  0.83500469  0.83384214  0.83538262  1
" 