4111,Ni7Fe79Cr13_0,-224.017041729984, 149.90127237855,Ni7Fe79Cr13,"# generated using pymatgen
 data_Cr3Fe14Ni
_symmetry_space_group_name_H-M   'P 1'
_cell_length_a   7.46248636
_cell_length_b   7.46248636
_cell_length_c   10.55354941
_cell_angle_alpha   90.00000000
_cell_angle_beta   90.00000000
_cell_angle_gamma   90.00000000
_symmetry_Int_Tables_number   1
_chemical_formula_structural   Cr3Fe14Ni
_chemical_formula_sum   'Cr9 Fe42 Ni3'
_cell_volume   587.71347471
_cell_formula_units_Z   3
loop_
 _symmetry_equiv_pos_site_id
 _symmetry_equiv_pos_as_xyz
  1  'x, y, z'
loop_
 _atom_site_type_symbol
 _atom_site_label
 _atom_site_symmetry_multiplicity
 _atom_site_fract_x
 _atom_site_fract_y
 _atom_site_fract_z
 _atom_site_occupancy
  Fe  Fe0  1  0.99971209  0.00225501  0.99896770  1
  Cr  Cr1  1  0.16666044  0.16781390  0.16687162  1
  Fe  Fe2  1  0.00348610  0.00071587  0.33392985  1
  Fe  Fe3  1  0.99884587  0.33295167  0.99964494  1
  Fe  Fe4  1  0.16765819  0.50151211  0.16766452  1
  Fe  Fe5  1  0.00049644  0.33444553  0.33404945  1
  Cr  Cr6  1  0.00282727  0.66664377  0.99965867  1
  Fe  Fe7  1  0.16759251  0.83292527  0.16759185  1
  Fe  Fe8  1  0.00145356  0.66575471  0.33332803  1
  Fe  Fe9  1  0.33402789  0.00065245  0.99895250  1
  Fe  Fe10  1  0.50161961  0.16928597  0.16601085  1
  Fe  Fe11  1  0.33151926  0.99958658  0.33509373  1
  Fe  Fe12  1  0.33488737  0.33454990  0.99962540  1
  Fe  Fe13  1  0.50070113  0.49848623  0.16656640  1
  Fe  Fe14  1  0.33337758  0.33443916  0.33401833  1
  Fe  Fe15  1  0.33488733  0.66571427  0.99944421  1
  Cr  Cr16  1  0.49957370  0.83200705  0.16556715  1
  Fe  Fe17  1  0.33354931  0.66688976  0.33482793  1
  Fe  Fe18  1  0.66717564  0.00225678  0.99914304  1
  Fe  Fe19  1  0.83234356  0.16922319  0.16606370  1
  Cr  Cr20  1  0.66598170  0.00265762  0.33256471  1
  Ni  Ni21  1  0.66646257  0.33212335  0.00175906  1
  Fe  Fe22  1  0.83255975  0.49784888  0.16734331  1
  Fe  Fe23  1  0.66704273  0.33647267  0.33152014  1
  Fe  Fe24  1  0.66558255  0.66484763  0.99891679  1
  Cr  Cr25  1  0.83387718  0.83328432  0.16661808  1
  Fe  Fe26  1  0.66591339  0.66389930  0.33479333  1
  Ni  Ni27  1  0.16744572  0.16827466  0.50137405  1
  Fe  Fe28  1  0.00224986  0.00051389  0.66802076  1
  Fe  Fe29  1  0.16697175  0.16691409  0.83316438  1
  Fe  Fe30  1  0.16666966  0.49925001  0.49960018  1
  Fe  Fe31  1  0.00161180  0.33417472  0.66722265  1
  Fe  Fe32  1  0.16697768  0.49903172  0.83365129  1
  Fe  Fe33  1  0.16839894  0.83551490  0.49954300  1
  Fe  Fe34  1  0.99955887  0.66622849  0.66796112  1
  Fe  Fe35  1  0.16690350  0.83497145  0.83378130  1
  Cr  Cr36  1  0.49626375  0.16711176  0.50096368  1
  Fe  Fe37  1  0.33296010  0.00097797  0.66687018  1
  Fe  Fe38  1  0.50071852  0.16738163  0.83391638  1
  Fe  Fe39  1  0.50083658  0.50116437  0.49958236  1
  Fe  Fe40  1  0.33247060  0.33258171  0.66727502  1
  Fe  Fe41  1  0.50136391  0.49921643  0.83476844  1
  Ni  Ni42  1  0.49931521  0.83086762  0.50089839  1
  Cr  Cr43  1  0.33302526  0.66749280  0.66621249  1
  Fe  Fe44  1  0.50097066  0.83431838  0.83388396  1
  Cr  Cr45  1  0.83720628  0.16870647  0.50044454  1
  Fe  Fe46  1  0.66570580  0.99893032  0.66847570  1
  Fe  Fe47  1  0.83322609  0.16730782  0.83388267  1
  Fe  Fe48  1  0.83341031  0.50014299  0.50028235  1
  Fe  Fe49  1  0.66683443  0.33526675  0.66900907  1
  Fe  Fe50  1  0.83257548  0.49928520  0.83329228  1
  Cr  Cr51  1  0.83267649  0.83059477  0.50175239  1
  Fe  Fe52  1  0.66729695  0.66671608  0.66720693  1
  Fe  Fe53  1  0.83304412  0.83432312  0.83293218  1
" 