1548,Ni7Fe79Cr13_16,-223.873826514828, 152.545731631677,Ni7Fe79Cr13,"# generated using pymatgen
 data_Cr3Fe14Ni
_symmetry_space_group_name_H-M   'P 1'
_cell_length_a   7.45405360
_cell_length_b   7.45405360
_cell_length_c   10.54162370
_cell_angle_alpha   90.00000000
_cell_angle_beta   90.00000000
_cell_angle_gamma   90.00000000
_symmetry_Int_Tables_number   1
_chemical_formula_structural   Cr3Fe14Ni
_chemical_formula_sum   'Cr9 Fe42 Ni3'
_cell_volume   585.72334303
_cell_formula_units_Z   3
loop_
 _symmetry_equiv_pos_site_id
 _symmetry_equiv_pos_as_xyz
  1  'x, y, z'
loop_
 _atom_site_type_symbol
 _atom_site_label
 _atom_site_symmetry_multiplicity
 _atom_site_fract_x
 _atom_site_fract_y
 _atom_site_fract_z
 _atom_site_occupancy
  Fe  Fe0  1  0.00141129  1.00001109  0.00296638  1
  Fe  Fe1  1  0.16687758  0.16650212  0.16868083  1
  Fe  Fe2  1  1.00086282  1.00074081  0.33456736  1
  Fe  Fe3  1  0.99859330  0.33428793  0.00199801  1
  Cr  Cr4  1  0.16599162  0.50094684  0.16776402  1
  Ni  Ni5  1  0.00147485  0.33227242  0.33591635  1
  Fe  Fe6  1  0.99799235  0.66860640  0.00150035  1
  Ni  Ni7  1  0.16643960  0.83558150  0.16846321  1
  Fe  Fe8  1  0.00121954  0.66770384  0.33493159  1
  Fe  Fe9  1  0.33448351  0.00133316  0.00363334  1
  Fe  Fe10  1  0.49935022  0.16783494  0.16863965  1
  Fe  Fe11  1  0.33243180  1.00051220  0.33348431  1
  Fe  Fe12  1  0.33683174  0.33273454  0.00119841  1
  Fe  Fe13  1  0.50124139  0.49932241  0.16749229  1
  Fe  Fe14  1  0.33363582  0.33447179  0.33478721  1
  Cr  Cr15  1  0.33582667  0.66673194  0.00101442  1
  Fe  Fe16  1  0.49848062  0.83537450  0.16820617  1
  Fe  Fe17  1  0.33197423  0.66802364  0.33425476  1
  Cr  Cr18  1  0.66878088  0.99971619  0.00108896  1
  Fe  Fe19  1  0.83651217  0.16845053  0.16869444  1
  Fe  Fe20  1  0.66941895  0.00241640  0.33274249  1
  Fe  Fe21  1  0.66715215  0.33581069  0.00105553  1
  Fe  Fe22  1  0.83478994  0.49983497  0.16760146  1
  Fe  Fe23  1  0.66941528  0.33381301  0.33310411  1
  Fe  Fe24  1  0.66937489  0.66564604  0.00143986  1
  Fe  Fe25  1  0.83707100  0.83395694  0.16758595  1
  Cr  Cr26  1  0.66623992  0.66849264  0.33209709  1
  Ni  Ni27  1  0.16773198  0.16735108  0.49870125  1
  Cr  Cr28  1  0.99953121  0.00321728  0.66578772  1
  Cr  Cr29  1  0.16795880  0.16724222  0.83711610  1
  Fe  Fe30  1  0.16668980  0.50044827  0.49919749  1
  Fe  Fe31  1  0.99943814  0.33567245  0.66567040  1
  Fe  Fe32  1  0.16514670  0.50096781  0.83500428  1
  Fe  Fe33  1  0.16866416  0.83441775  0.49955653  1
  Fe  Fe34  1  1.00047453  0.66524129  0.66653260  1
  Cr  Cr35  1  0.16717205  0.83374150  0.83440449  1
  Cr  Cr36  1  0.50241412  0.16725392  0.50059991  1
  Fe  Fe37  1  0.33469915  0.99999181  0.66636013  1
  Fe  Fe38  1  0.50247625  0.16725798  0.83372820  1
  Fe  Fe39  1  0.50041725  0.50186731  0.50062586  1
  Cr  Cr40  1  0.33188842  0.33576455  0.66794751  1
  Fe  Fe41  1  0.50246830  0.50094211  0.83400901  1
  Fe  Fe42  1  0.49974240  0.83381341  0.50129364  1
  Fe  Fe43  1  0.33461101  0.66879320  0.66683709  1
  Fe  Fe44  1  0.50217550  0.83431769  0.83241268  1
  Fe  Fe45  1  0.83513100  0.16874434  0.49935263  1
  Fe  Fe46  1  0.66638786  1.00033370  0.66872471  1
  Fe  Fe47  1  0.83337884  0.16916399  0.83426813  1
  Fe  Fe48  1  0.83502965  0.49920531  0.50053225  1
  Fe  Fe49  1  0.66989056  0.33474012  0.66837192  1
  Fe  Fe50  1  0.83500655  0.50093043  0.83425593  1
  Fe  Fe51  1  0.83365799  0.83468151  0.50035054  1
  Fe  Fe52  1  0.66773391  0.66730092  0.66693589  1
  Fe  Fe53  1  0.83327651  0.83253534  0.83358131  1
" 