8543,Ni7Fe12Cr80_5,-206.403031023253, 197.845512233924,Ni7Fe12Cr80,"# generated using pymatgen
 data_Cr15Fe2Ni
_symmetry_space_group_name_H-M   'P 1'
_cell_length_a   7.57955881
_cell_length_b   7.57955881
_cell_length_c   10.71911487
_cell_angle_alpha   90.00000000
_cell_angle_beta   90.00000000
_cell_angle_gamma   90.00000000
_symmetry_Int_Tables_number   1
_chemical_formula_structural   Cr15Fe2Ni
_chemical_formula_sum   'Cr45 Fe6 Ni3'
_cell_volume   615.81006051
_cell_formula_units_Z   3
loop_
 _symmetry_equiv_pos_site_id
 _symmetry_equiv_pos_as_xyz
  1  'x, y, z'
loop_
 _atom_site_type_symbol
 _atom_site_label
 _atom_site_symmetry_multiplicity
 _atom_site_fract_x
 _atom_site_fract_y
 _atom_site_fract_z
 _atom_site_occupancy
  Cr  Cr0  1  0.99112652  -0.00670293  -0.00683816  1
  Cr  Cr1  1  0.15986646  0.15991248  0.15934169  1
  Cr  Cr2  1  0.99092890  -0.00453755  0.32591350  1
  Cr  Cr3  1  -0.00662610  0.32447563  0.99190292  1
  Cr  Cr4  1  0.15699405  0.49211834  0.16018649  1
  Ni  Ni5  1  0.99253015  0.32646034  0.32845707  1
  Cr  Cr6  1  -0.00671942  0.65995367  0.99155148  1
  Cr  Cr7  1  0.16001926  0.82574736  0.15995746  1
  Cr  Cr8  1  -0.00621973  0.65785198  0.32707579  1
  Cr  Cr9  1  0.32619489  -0.00725165  0.99064475  1
  Cr  Cr10  1  0.49183601  0.15943147  0.15894137  1
  Cr  Cr11  1  0.32586344  -0.00657741  0.32602336  1
  Cr  Cr12  1  0.32663279  0.32774355  -0.00516017  1
  Fe  Fe13  1  0.49291535  0.49287769  0.15939198  1
  Cr  Cr14  1  0.32555802  0.32890446  0.32487663  1
  Cr  Cr15  1  0.32693869  0.65725950  0.99231131  1
  Cr  Cr16  1  0.49193630  0.82637879  0.15933750  1
  Cr  Cr17  1  0.32700348  0.65537872  0.32764868  1
  Cr  Cr18  1  0.66045108  -0.00724452  0.99207394  1
  Cr  Cr19  1  0.82603971  0.16204502  0.16131855  1
  Cr  Cr20  1  0.66107133  -0.00631897  0.32647506  1
  Cr  Cr21  1  0.65768221  0.32571167  -0.00696010  1
  Cr  Cr22  1  0.82589318  0.49241011  0.15797926  1
  Cr  Cr23  1  0.65840688  0.32625746  0.32716867  1
  Cr  Cr24  1  0.65744705  0.65924062  -0.00722082  1
  Cr  Cr25  1  0.82580623  0.82347227  0.16002293  1
  Cr  Cr26  1  0.65687364  0.65765149  0.32534531  1
  Cr  Cr27  1  0.15995608  0.16053239  0.49274189  1
  Cr  Cr28  1  0.99197520  -0.00554816  0.65870094  1
  Cr  Cr29  1  0.16106736  0.15971129  0.82526967  1
  Fe  Fe30  1  0.15777294  0.49033973  0.49273608  1
  Ni  Ni31  1  0.99153590  0.32532920  0.65664395  1
  Cr  Cr32  1  0.15731478  0.49127580  0.82467335  1
  Cr  Cr33  1  0.16078489  0.82631749  0.49265608  1
  Cr  Cr34  1  -0.00650748  0.65814675  0.65909543  1
  Cr  Cr35  1  0.16198119  0.82684404  0.82481628  1
  Cr  Cr36  1  0.49264036  0.15968029  0.49424529  1
  Ni  Ni37  1  0.32766369  -0.00713883  0.66071250  1
  Cr  Cr38  1  0.49144056  0.15826398  0.82446929  1
  Fe  Fe39  1  0.49276570  0.49189145  0.49334477  1
  Cr  Cr40  1  0.32489850  0.32748258  0.65821662  1
  Cr  Cr41  1  0.49454837  0.49124616  0.82574665  1
  Cr  Cr42  1  0.49144053  0.82737273  0.49387460  1
  Cr  Cr43  1  0.32640479  0.65821584  0.65807151  1
  Fe  Fe44  1  0.49167993  0.82645123  0.82445345  1
  Fe  Fe45  1  0.82727715  0.16134131  0.49322532  1
  Cr  Cr46  1  0.66024179  -0.00702932  0.65922411  1
  Cr  Cr47  1  0.82509678  0.16302233  0.82333277  1
  Cr  Cr48  1  0.82644519  0.48990636  0.49456735  1
  Fe  Fe49  1  0.66020766  0.32541511  0.65799471  1
  Cr  Cr50  1  0.82596483  0.49125550  0.82516932  1
  Cr  Cr51  1  0.82540889  0.82364505  0.49059870  1
  Cr  Cr52  1  0.65785986  0.65899528  0.65980464  1
  Cr  Cr53  1  0.82489537  0.82359598  0.82705945  1
" 