7167,Ni7Fe79Cr13_2,-223.948278518423, 150.964784402342,Ni7Fe79Cr13,"# generated using pymatgen
 data_Cr3Fe14Ni
_symmetry_space_group_name_H-M   'P 1'
_cell_length_a   7.45734322
_cell_length_b   7.45734322
_cell_length_c   10.54627593
_cell_angle_alpha   90.00000000
_cell_angle_beta   90.00000000
_cell_angle_gamma   90.00000000
_symmetry_Int_Tables_number   1
_chemical_formula_structural   Cr3Fe14Ni
_chemical_formula_sum   'Cr9 Fe42 Ni3'
_cell_volume   586.49915893
_cell_formula_units_Z   3
loop_
 _symmetry_equiv_pos_site_id
 _symmetry_equiv_pos_as_xyz
  1  'x, y, z'
loop_
 _atom_site_type_symbol
 _atom_site_label
 _atom_site_symmetry_multiplicity
 _atom_site_fract_x
 _atom_site_fract_y
 _atom_site_fract_z
 _atom_site_occupancy
  Fe  Fe0  1  1.00028309  0.99838037  0.00169325  1
  Fe  Fe1  1  0.16778303  0.16532021  0.16854095  1
  Fe  Fe2  1  0.00105470  1.00015593  0.33362306  1
  Cr  Cr3  1  1.00048660  0.33521862  1.00050668  1
  Fe  Fe4  1  0.16942289  0.50225974  0.16897307  1
  Fe  Fe5  1  1.00060116  0.33265045  0.33380722  1
  Fe  Fe6  1  0.00179107  0.66948377  1.00003000  1
  Ni  Ni7  1  0.16699596  0.83405812  0.16655952  1
  Fe  Fe8  1  0.00103963  0.66914620  0.33380595  1
  Fe  Fe9  1  0.33474362  0.99883009  0.00190605  1
  Ni  Ni10  1  0.50035816  0.16585216  0.16732495  1
  Fe  Fe11  1  0.33433172  0.00104738  0.33382712  1
  Cr  Cr12  1  0.33437006  0.33335665  0.00316691  1
  Fe  Fe13  1  0.49854689  0.50204641  0.16853828  1
  Fe  Fe14  1  0.33552688  0.33250115  0.33305410  1
  Fe  Fe15  1  0.33276164  0.66950111  0.00166777  1
  Fe  Fe16  1  0.50010707  0.83442742  0.16718918  1
  Fe  Fe17  1  0.33419730  0.66840379  0.33286941  1
  Fe  Fe18  1  0.66692419  1.00003781  0.00091874  1
  Fe  Fe19  1  0.83392716  0.16376184  0.16871063  1
  Fe  Fe20  1  0.66656591  0.00148519  0.33402546  1
  Cr  Cr21  1  0.66709544  0.33160417  0.00115716  1
  Cr  Cr22  1  0.83376911  0.50235159  0.16862372  1
  Fe  Fe23  1  0.66582463  0.33251708  0.33448397  1
  Fe  Fe24  1  0.66739945  0.66979740  1.00051185  1
  Fe  Fe25  1  0.83413789  0.83606966  0.16727031  1
  Fe  Fe26  1  0.66671434  0.66795057  0.33480304  1
  Fe  Fe27  1  0.16726000  0.16664662  0.50027505  1
  Fe  Fe28  1  0.99846209  0.00133313  0.66663149  1
  Cr  Cr29  1  0.16662342  0.16660938  0.83245619  1
  Cr  Cr30  1  0.16812437  0.50010478  0.50087035  1
  Fe  Fe31  1  0.99938745  0.33239232  0.66764468  1
  Fe  Fe32  1  0.16657349  0.50282521  0.83296517  1
  Fe  Fe33  1  0.16792290  0.83607658  0.49860009  1
  Cr  Cr34  1  1.00011543  0.66758270  0.66891813  1
  Fe  Fe35  1  0.16753951  0.83225418  0.83608256  1
  Ni  Ni36  1  0.50198797  0.16789452  0.50149499  1
  Cr  Cr37  1  0.33530256  1.00006242  0.66599847  1
  Fe  Fe38  1  0.50287662  0.16509170  0.83324302  1
  Fe  Fe39  1  0.50211575  0.49997461  0.50094970  1
  Fe  Fe40  1  0.33487973  0.33456032  0.66644310  1
  Cr  Cr41  1  0.50059010  0.50185195  0.83161360  1
  Fe  Fe42  1  0.50122385  0.83368053  0.50007878  1
  Fe  Fe43  1  0.33535846  0.66730811  0.66740995  1
  Fe  Fe44  1  0.50122500  0.83481373  0.83468285  1
  Fe  Fe45  1  0.83355413  0.16753925  0.50075421  1
  Fe  Fe46  1  0.66860681  0.00085179  0.66700852  1
  Fe  Fe47  1  0.83241149  0.16605716  0.83248654  1
  Fe  Fe48  1  0.83115762  0.49930931  0.49972238  1
  Fe  Fe49  1  0.66768519  0.33286399  0.66645987  1
  Fe  Fe50  1  0.83496602  0.50117402  0.83343908  1
  Fe  Fe51  1  0.83280466  0.83510436  0.49997856  1
  Fe  Fe52  1  0.66643229  0.66823746  0.66663462  1
  Fe  Fe53  1  0.83318913  0.83472063  0.83470533  1
" 