7810,Ni7Fe12Cr80_3,-206.194787865463, 197.344482625543,Ni7Fe12Cr80,"# generated using pymatgen
 data_Cr15Fe2Ni
_symmetry_space_group_name_H-M   'P 1'
_cell_length_a   7.58474075
_cell_length_b   7.58474075
_cell_length_c   10.72644324
_cell_angle_alpha   90.00000000
_cell_angle_beta   90.00000000
_cell_angle_gamma   90.00000000
_symmetry_Int_Tables_number   1
_chemical_formula_structural   Cr15Fe2Ni
_chemical_formula_sum   'Cr45 Fe6 Ni3'
_cell_volume   617.07396165
_cell_formula_units_Z   3
loop_
 _symmetry_equiv_pos_site_id
 _symmetry_equiv_pos_as_xyz
  1  'x, y, z'
loop_
 _atom_site_type_symbol
 _atom_site_label
 _atom_site_symmetry_multiplicity
 _atom_site_fract_x
 _atom_site_fract_y
 _atom_site_fract_z
 _atom_site_occupancy
  Cr  Cr0  1  0.99131168  -0.00738338  -0.00708946  1
  Fe  Fe1  1  0.15974169  0.15972883  0.15972997  1
  Cr  Cr2  1  -0.00745779  0.99220191  0.32503921  1
  Cr  Cr3  1  -0.00765377  0.32468227  -0.00684843  1
  Cr  Cr4  1  0.15902772  0.49012812  0.15937159  1
  Cr  Cr5  1  0.99150015  0.32505984  0.32398863  1
  Cr  Cr6  1  0.99101692  0.65942438  0.99159701  1
  Cr  Cr7  1  0.15920681  0.82692750  0.15945437  1
  Cr  Cr8  1  -0.00671035  0.65946411  0.32744177  1
  Cr  Cr9  1  0.32575272  -0.00691967  -0.00627405  1
  Fe  Fe10  1  0.49224862  0.16056419  0.16058578  1
  Cr  Cr11  1  0.32530965  -0.00672469  0.32504318  1
  Cr  Cr12  1  0.32632560  0.32583213  0.99197721  1
  Cr  Cr13  1  0.49286551  0.49078445  0.15982175  1
  Ni  Ni14  1  0.32771348  0.32441644  0.32412928  1
  Cr  Cr15  1  0.32719239  0.65781615  0.99092288  1
  Cr  Cr16  1  0.49286928  0.82646253  0.15793409  1
  Cr  Cr17  1  0.32457079  0.65837702  0.32744177  1
  Cr  Cr18  1  0.65965978  0.99174732  -0.00733147  1
  Fe  Fe19  1  0.82473312  0.15972862  0.15971758  1
  Cr  Cr20  1  0.65887296  -0.00493606  0.32473378  1
  Cr  Cr21  1  0.65805293  0.32612229  -0.00761242  1
  Cr  Cr22  1  0.82482927  0.49116575  0.15981851  1
  Ni  Ni23  1  0.65694567  0.32423254  0.32438907  1
  Fe  Fe24  1  0.65840402  0.65840841  0.99107288  1
  Cr  Cr25  1  0.82464802  0.82588899  0.15699216  1
  Cr  Cr26  1  0.65886419  0.65733820  0.32567892  1
  Cr  Cr27  1  0.15960251  0.15865048  0.49287725  1
  Cr  Cr28  1  0.99191282  0.99109903  0.65877380  1
  Cr  Cr29  1  0.15865495  0.15906013  0.82547158  1
  Cr  Cr30  1  0.15902627  0.49246682  0.49152050  1
  Cr  Cr31  1  0.99190572  0.32556636  0.65959038  1
  Cr  Cr32  1  0.15973733  0.49147115  0.82583292  1
  Fe  Fe33  1  0.15889640  0.82559317  0.49224486  1
  Cr  Cr34  1  -0.00734213  0.66005838  0.65768104  1
  Cr  Cr35  1  0.15835283  0.82619332  0.82512143  1
  Cr  Cr36  1  0.49227171  0.15951961  0.49115803  1
  Cr  Cr37  1  0.32515723  0.99155926  0.65795811  1
  Cr  Cr38  1  0.49180124  0.15940256  0.82431324  1
  Cr  Cr39  1  0.49227819  0.49102794  0.49077241  1
  Cr  Cr40  1  0.32677167  0.32671055  0.66075704  1
  Ni  Ni41  1  0.49350306  0.49357655  0.82628643  1
  Cr  Cr42  1  0.49122449  0.82617736  0.49191791  1
  Cr  Cr43  1  0.32555617  0.65845455  0.65835933  1
  Cr  Cr44  1  0.49388364  0.82407515  0.82687760  1
  Cr  Cr45  1  0.82484856  0.15970413  0.49213120  1
  Cr  Cr46  1  0.65965342  -0.00768980  0.65931308  1
  Cr  Cr47  1  0.82626800  0.15801681  0.82431382  1
  Cr  Cr48  1  0.82541809  0.49142177  0.49077505  1
  Cr  Cr49  1  0.65804702  0.32596416  0.65918120  1
  Cr  Cr50  1  0.82415160  0.49354996  0.82613352  1
  Cr  Cr51  1  0.82628989  0.82559900  0.49286052  1
  Cr  Cr52  1  0.65851065  0.65844953  0.66116697  1
  Fe  Fe53  1  0.82481607  0.82482231  0.82592366  1
" 