6925,Ni7Fe79Cr13_7,-223.790017823141, 151.584471106527,Ni7Fe79Cr13,"# generated using pymatgen
 data_Cr3Fe14Ni
_symmetry_space_group_name_H-M   'P 1'
_cell_length_a   7.45362429
_cell_length_b   7.45362429
_cell_length_c   10.54101656
_cell_angle_alpha   90.00000000
_cell_angle_beta   90.00000000
_cell_angle_gamma   90.00000000
_symmetry_Int_Tables_number   1
_chemical_formula_structural   Cr3Fe14Ni
_chemical_formula_sum   'Cr9 Fe42 Ni3'
_cell_volume   585.62214443
_cell_formula_units_Z   3
loop_
 _symmetry_equiv_pos_site_id
 _symmetry_equiv_pos_as_xyz
  1  'x, y, z'
loop_
 _atom_site_type_symbol
 _atom_site_label
 _atom_site_symmetry_multiplicity
 _atom_site_fract_x
 _atom_site_fract_y
 _atom_site_fract_z
 _atom_site_occupancy
  Fe  Fe0  1  0.00143705  0.99901384  0.00275819  1
  Fe  Fe1  1  0.16908151  0.16570055  0.16939881  1
  Fe  Fe2  1  1.00050230  1.00034489  0.33326247  1
  Cr  Cr3  1  1.00043625  0.33536586  0.00318284  1
  Fe  Fe4  1  0.16858560  0.50312498  0.16986177  1
  Fe  Fe5  1  1.00049394  0.33143198  0.33160245  1
  Fe  Fe6  1  0.00116738  0.66896365  0.00149550  1
  Fe  Fe7  1  0.16912816  0.83394043  0.16797631  1
  Fe  Fe8  1  0.00195574  0.67118230  0.33260154  1
  Fe  Fe9  1  0.33434773  0.99896870  0.00281538  1
  Fe  Fe10  1  0.50102834  0.16636926  0.16908956  1
  Ni  Ni11  1  0.33319538  1.00076321  0.33450960  1
  Cr  Cr12  1  0.33446032  0.33363194  1.00061622  1
  Ni  Ni13  1  0.50045575  0.50129766  0.16926756  1
  Fe  Fe14  1  0.33519454  0.33323325  0.33156194  1
  Fe  Fe15  1  0.33480277  0.66781615  0.00104597  1
  Fe  Fe16  1  0.50002832  0.83458897  0.16774232  1
  Fe  Fe17  1  0.33414903  0.67028535  0.33327489  1
  Fe  Fe18  1  0.66645328  1.00077180  0.00115674  1
  Fe  Fe19  1  0.83176237  0.16649425  0.16775675  1
  Fe  Fe20  1  0.66763956  0.00171036  0.33454035  1
  Fe  Fe21  1  0.66644791  0.33525810  0.00311411  1
  Fe  Fe22  1  0.83293289  0.50207984  0.16922188  1
  Fe  Fe23  1  0.66710651  0.33240175  0.33238045  1
  Fe  Fe24  1  0.66685110  0.66623349  0.00235077  1
  Fe  Fe25  1  0.83304970  0.83398861  0.16667885  1
  Cr  Cr26  1  0.66645178  0.66950791  0.33726371  1
  Fe  Fe27  1  0.16600445  0.16641111  0.50048181  1
  Fe  Fe28  1  1.00062446  0.99784086  0.66577687  1
  Cr  Cr29  1  0.16931899  0.16395896  0.83072518  1
  Cr  Cr30  1  0.16786002  0.50104255  0.49777252  1
  Fe  Fe31  1  1.00088067  0.33406206  0.66741984  1
  Fe  Fe32  1  0.16580487  0.50224373  0.83292813  1
  Fe  Fe33  1  0.16711854  0.83671883  0.49902691  1
  Fe  Fe34  1  0.99966987  0.67067702  0.66842496  1
  Fe  Fe35  1  0.16697345  0.83278295  0.83542134  1
  Cr  Cr36  1  0.50104187  0.16729550  0.50107652  1
  Fe  Fe37  1  0.33566886  0.99914452  0.66582585  1
  Fe  Fe38  1  0.50192266  0.16525661  0.83239129  1
  Fe  Fe39  1  0.50057352  0.49993765  0.49944266  1
  Fe  Fe40  1  0.33606991  0.33363126  0.66839394  1
  Fe  Fe41  1  0.50323286  0.50095064  0.83554381  1
  Fe  Fe42  1  0.50034470  0.83485095  0.50069469  1
  Cr  Cr43  1  0.33555070  0.66721227  0.66674547  1
  Fe  Fe44  1  0.50223940  0.83680492  0.83483792  1
  Fe  Fe45  1  0.83590973  0.16654085  0.50171510  1
  Ni  Ni46  1  0.66898176  0.99986605  0.66628805  1
  Cr  Cr47  1  0.83272968  0.16702571  0.83332615  1
  Cr  Cr48  1  0.83423310  0.50096921  0.50177589  1
  Fe  Fe49  1  0.66570587  0.33506476  0.66839850  1
  Fe  Fe50  1  0.83388524  0.50303285  0.83337280  1
  Fe  Fe51  1  0.83531387  0.83715261  0.50172157  1
  Fe  Fe52  1  0.66814566  0.67004816  0.66789330  1
  Fe  Fe53  1  0.83367473  0.83363294  0.83467664  1
" 