3052,Ni7Fe79Cr13_19,-223.858333624044, 148.585186993067,Ni7Fe79Cr13,"# generated using pymatgen
 data_Cr3Fe14Ni
_symmetry_space_group_name_H-M   'P 1'
_cell_length_a   7.46333980
_cell_length_b   7.46333980
_cell_length_c   10.55475637
_cell_angle_alpha   90.00000000
_cell_angle_beta   90.00000000
_cell_angle_gamma   90.00000000
_symmetry_Int_Tables_number   1
_chemical_formula_structural   Cr3Fe14Ni
_chemical_formula_sum   'Cr9 Fe42 Ni3'
_cell_volume   587.91513889
_cell_formula_units_Z   3
loop_
 _symmetry_equiv_pos_site_id
 _symmetry_equiv_pos_as_xyz
  1  'x, y, z'
loop_
 _atom_site_type_symbol
 _atom_site_label
 _atom_site_symmetry_multiplicity
 _atom_site_fract_x
 _atom_site_fract_y
 _atom_site_fract_z
 _atom_site_occupancy
  Ni  Ni0  1  0.00232537  0.00178432  0.99980589  1
  Fe  Fe1  1  0.16816174  0.16733039  0.16560561  1
  Cr  Cr2  1  0.00157175  0.00116866  0.33524416  1
  Fe  Fe3  1  0.99999057  0.33305829  1.00019207  1
  Fe  Fe4  1  0.16686723  0.49871222  0.16795682  1
  Fe  Fe5  1  0.99939141  0.33452168  0.33287280  1
  Fe  Fe6  1  1.00002344  0.66810737  1.00000930  1
  Fe  Fe7  1  0.16718560  0.83471219  0.16713613  1
  Fe  Fe8  1  0.99984029  0.66651349  0.33347225  1
  Fe  Fe9  1  0.33182673  0.00201437  0.00045614  1
  Ni  Ni10  1  0.49982931  0.16754303  0.16692840  1
  Fe  Fe11  1  0.33526289  0.00028767  0.33387100  1
  Fe  Fe12  1  0.33384190  0.33080240  0.00068413  1
  Fe  Fe13  1  0.50020728  0.49775471  0.16856036  1
  Fe  Fe14  1  0.33459241  0.33207312  0.33227864  1
  Cr  Cr15  1  0.33404063  0.66582403  0.99878192  1
  Fe  Fe16  1  0.49950718  0.83521986  0.16929891  1
  Fe  Fe17  1  0.33366703  0.66839477  0.33301622  1
  Cr  Cr18  1  0.66801360  0.00143378  0.99978097  1
  Fe  Fe19  1  0.83318258  0.16806328  0.16648085  1
  Fe  Fe20  1  0.66485599  0.00075164  0.33291484  1
  Fe  Fe21  1  0.66690818  0.33268903  0.00068841  1
  Fe  Fe22  1  0.83367814  0.49873066  0.16782355  1
  Fe  Fe23  1  0.66672998  0.33289639  0.33312949  1
  Cr  Cr24  1  0.66717231  0.66426207  0.00075636  1
  Fe  Fe25  1  0.83412458  0.83396598  0.16720740  1
  Fe  Fe26  1  0.66723298  0.66708989  0.33355186  1
  Fe  Fe27  1  0.16771759  0.16698636  0.49949050  1
  Cr  Cr28  1  0.99996856  0.00212300  0.66566136  1
  Fe  Fe29  1  0.16642622  0.16818867  0.83562612  1
  Cr  Cr30  1  0.16699598  0.50101404  0.50076393  1
  Fe  Fe31  1  0.99937346  0.33285604  0.66769817  1
  Fe  Fe32  1  0.16698230  0.49851926  0.83330913  1
  Ni  Ni33  1  0.16857029  0.83245741  0.49897687  1
  Cr  Cr34  1  0.00048921  0.66735543  0.66801307  1
  Fe  Fe35  1  0.16647051  0.83406391  0.83494085  1
  Fe  Fe36  1  0.50012680  0.16724869  0.49873770  1
  Cr  Cr37  1  0.33282460  0.00057908  0.66650682  1
  Fe  Fe38  1  0.50024942  0.16859645  0.83421812  1
  Fe  Fe39  1  0.50031422  0.50018883  0.49948878  1
  Fe  Fe40  1  0.33421946  0.33465247  0.66781771  1
  Fe  Fe41  1  0.49941333  0.49778271  0.83266081  1
  Fe  Fe42  1  0.49916439  0.83328281  0.49869515  1
  Fe  Fe43  1  0.33370985  0.66680831  0.66760978  1
  Fe  Fe44  1  0.49952994  0.83431839  0.83269878  1
  Fe  Fe45  1  0.83290745  0.16813249  0.50033248  1
  Fe  Fe46  1  0.66707896  0.00165031  0.66715654  1
  Fe  Fe47  1  0.83409211  0.16811367  0.83391753  1
  Fe  Fe48  1  0.83267841  0.49932259  0.49862155  1
  Fe  Fe49  1  0.66716421  0.33166719  0.66691561  1
  Fe  Fe50  1  0.83433659  0.49776993  0.83434158  1
  Fe  Fe51  1  0.83301590  0.83331123  0.49864727  1
  Cr  Cr52  1  0.66480119  0.66587053  0.66716458  1
  Fe  Fe53  1  0.83476161  0.83484860  0.83489843  1
" 