8732,Ni7Fe12Cr80_8,-206.377267731157, 197.533458014427,Ni7Fe12Cr80,"# generated using pymatgen
 data_Cr15Fe2Ni
_symmetry_space_group_name_H-M   'P 1'
_cell_length_a   7.58167217
_cell_length_b   7.58167217
_cell_length_c   10.72210361
_cell_angle_alpha   90.00000000
_cell_angle_beta   90.00000000
_cell_angle_gamma   90.00000000
_symmetry_Int_Tables_number   1
_chemical_formula_structural   Cr15Fe2Ni
_chemical_formula_sum   'Cr45 Fe6 Ni3'
_cell_volume   616.32531070
_cell_formula_units_Z   3
loop_
 _symmetry_equiv_pos_site_id
 _symmetry_equiv_pos_as_xyz
  1  'x, y, z'
loop_
 _atom_site_type_symbol
 _atom_site_label
 _atom_site_symmetry_multiplicity
 _atom_site_fract_x
 _atom_site_fract_y
 _atom_site_fract_z
 _atom_site_occupancy
  Cr  Cr0  1  0.99221832  -0.00739104  0.99020069  1
  Cr  Cr1  1  0.16029019  0.15811475  0.15887796  1
  Cr  Cr2  1  0.99207895  0.99098681  0.32671607  1
  Cr  Cr3  1  -0.00706280  0.32330670  0.99213954  1
  Cr  Cr4  1  0.15703274  0.49454938  0.15794398  1
  Cr  Cr5  1  -0.00739448  0.32392786  0.32536393  1
  Ni  Ni6  1  0.99164957  0.66190748  -0.00404767  1
  Cr  Cr7  1  0.15902928  0.82404424  0.16090194  1
  Fe  Fe8  1  0.99176683  0.65882062  0.32557687  1
  Cr  Cr9  1  0.32397890  -0.00669553  0.99094470  1
  Cr  Cr10  1  0.49270477  0.15665264  0.16190284  1
  Fe  Fe11  1  0.32517895  0.99187586  0.32636661  1
  Cr  Cr12  1  0.32531513  0.32514898  -0.00732366  1
  Cr  Cr13  1  0.49166630  0.49250830  0.15792837  1
  Cr  Cr14  1  0.32607812  0.32733895  0.32507393  1
  Cr  Cr15  1  0.32716562  0.65904197  0.99152183  1
  Cr  Cr16  1  0.49207354  0.82853869  0.15918034  1
  Cr  Cr17  1  0.32760873  0.65902620  0.32891247  1
  Cr  Cr18  1  0.66135110  0.99108806  -0.00511185  1
  Cr  Cr19  1  0.82414210  0.15805745  0.16136996  1
  Fe  Fe20  1  0.65933703  0.99163641  0.32592826  1
  Cr  Cr21  1  0.65899284  0.32623279  -0.00689186  1
  Cr  Cr22  1  0.82892091  0.49398053  0.15797472  1
  Cr  Cr23  1  0.65854045  0.32851809  0.32696547  1
  Cr  Cr24  1  0.66002575  0.65988763  -0.00677682  1
  Fe  Fe25  1  0.82757441  0.82531726  0.15986490  1
  Cr  Cr26  1  0.65883287  0.65979659  0.32514567  1
  Cr  Cr27  1  0.16039046  0.15793827  0.49194393  1
  Cr  Cr28  1  -0.00648110  -0.00733316  0.66035151  1
  Fe  Fe29  1  0.15953201  0.15983455  0.82543302  1
  Cr  Cr30  1  0.15772346  0.49414851  0.49042895  1
  Cr  Cr31  1  -0.00689104  0.32359641  0.65956202  1
  Cr  Cr32  1  0.15663815  0.49434452  0.82881136  1
  Fe  Fe33  1  0.15945381  0.82604814  0.49099567  1
  Cr  Cr34  1  -0.00702245  0.66139212  0.65637584  1
  Cr  Cr35  1  0.15897363  0.82347853  0.82520310  1
  Cr  Cr36  1  0.49311026  0.15875842  0.49073918  1
  Cr  Cr37  1  0.32288481  0.99207365  0.65953539  1
  Cr  Cr38  1  0.49326588  0.15849058  0.82509677  1
  Ni  Ni39  1  0.49253695  0.49225567  0.49372615  1
  Cr  Cr40  1  0.32599962  0.32705528  0.65915132  1
  Cr  Cr41  1  0.49319274  0.49138528  0.82431945  1
  Cr  Cr42  1  0.49133937  0.82828797  0.49241321  1
  Cr  Cr43  1  0.32714020  0.65862331  0.65647728  1
  Cr  Cr44  1  0.49212116  0.82713428  0.82605494  1
  Cr  Cr45  1  0.82389529  0.15940565  0.49390726  1
  Cr  Cr46  1  0.66064817  0.99097826  0.65932635  1
  Cr  Cr47  1  0.82344516  0.16058957  0.82261587  1
  Cr  Cr48  1  0.82594072  0.49166918  0.49423376  1
  Ni  Ni49  1  0.65686430  0.32644497  0.65648232  1
  Cr  Cr50  1  0.82737904  0.49248623  0.82478707  1
  Cr  Cr51  1  0.82658463  0.82541152  0.49092467  1
  Cr  Cr52  1  0.65731647  0.65741176  0.65863512  1
  Cr  Cr53  1  0.82671891  0.82366963  0.82761604  1
" 