7912,Ni7Fe79Cr13_13,-223.597502662103, 149.045670262099,Ni7Fe79Cr13,"# generated using pymatgen
 data_Cr3Fe14Ni
_symmetry_space_group_name_H-M   'P 1'
_cell_length_a   7.45496276
_cell_length_b   7.45496276
_cell_length_c   10.54290944
_cell_angle_alpha   90.00000000
_cell_angle_beta   90.00000000
_cell_angle_gamma   90.00000000
_symmetry_Int_Tables_number   1
_chemical_formula_structural   Cr3Fe14Ni
_chemical_formula_sum   'Cr9 Fe42 Ni3'
_cell_volume   585.93768813
_cell_formula_units_Z   3
loop_
 _symmetry_equiv_pos_site_id
 _symmetry_equiv_pos_as_xyz
  1  'x, y, z'
loop_
 _atom_site_type_symbol
 _atom_site_label
 _atom_site_symmetry_multiplicity
 _atom_site_fract_x
 _atom_site_fract_y
 _atom_site_fract_z
 _atom_site_occupancy
  Fe  Fe0  1  0.00194025  0.99956168  0.00167033  1
  Fe  Fe1  1  0.16727014  0.16684030  0.16629516  1
  Fe  Fe2  1  0.99856514  0.99891251  0.33373129  1
  Fe  Fe3  1  0.99953213  0.33489437  0.99893859  1
  Cr  Cr4  1  0.16611868  0.50083546  0.16849926  1
  Fe  Fe5  1  0.99912705  0.33548376  0.33539670  1
  Fe  Fe6  1  0.99845581  0.66826574  0.00128253  1
  Ni  Ni7  1  0.16720189  0.83296320  0.16770922  1
  Fe  Fe8  1  0.99972598  0.66846378  0.33493163  1
  Fe  Fe9  1  0.33249143  1.00052883  0.00390756  1
  Fe  Fe10  1  0.49893337  0.17030220  0.16747962  1
  Cr  Cr11  1  0.33350048  1.00054792  0.33151505  1
  Fe  Fe12  1  0.33534637  0.33481086  1.00073518  1
  Fe  Fe13  1  0.50297932  0.50118773  0.16764686  1
  Fe  Fe14  1  0.33711152  0.33602585  0.33434364  1
  Fe  Fe15  1  0.33585451  0.66714435  0.00250425  1
  Fe  Fe16  1  0.50074755  0.83075442  0.16696544  1
  Fe  Fe17  1  0.33502289  0.66569520  0.33422453  1
  Cr  Cr18  1  0.66783384  0.99877326  0.00264714  1
  Cr  Cr19  1  0.83405081  0.17062064  0.16917244  1
  Fe  Fe20  1  0.66852678  0.00144410  0.33416526  1
  Fe  Fe21  1  0.66746716  0.33754602  0.00166343  1
  Fe  Fe22  1  0.83261093  0.50340278  0.16793433  1
  Ni  Ni23  1  0.66712202  0.33603427  0.33474260  1
  Ni  Ni24  1  0.66880510  0.66497970  0.00145170  1
  Fe  Fe25  1  0.83633025  0.83069345  0.16811944  1
  Fe  Fe26  1  0.66785718  0.66635434  0.33269554  1
  Cr  Cr27  1  0.16563932  0.16927732  0.49996493  1
  Fe  Fe28  1  0.99870708  0.00092173  0.66729350  1
  Fe  Fe29  1  0.16621797  0.16889424  0.83380086  1
  Fe  Fe30  1  0.16763692  0.50321402  0.50041018  1
  Fe  Fe31  1  0.99959768  0.33560519  0.66854463  1
  Fe  Fe32  1  0.16820553  0.49891234  0.83449506  1
  Fe  Fe33  1  0.16515521  0.83201479  0.50074897  1
  Fe  Fe34  1  0.99967104  0.66599655  0.66639889  1
  Cr  Cr35  1  0.16781861  0.83312697  0.83340505  1
  Fe  Fe36  1  0.50320240  0.17000632  0.50130753  1
  Fe  Fe37  1  0.33273846  0.00204357  0.66604656  1
  Cr  Cr38  1  0.50194533  0.16809521  0.83248043  1
  Fe  Fe39  1  0.50100269  0.49851670  0.50043763  1
  Fe  Fe40  1  0.33378152  0.33659323  0.66727251  1
  Fe  Fe41  1  0.50098429  0.50138545  0.83461562  1
  Cr  Cr42  1  0.50159332  0.83340490  0.50259643  1
  Fe  Fe43  1  0.33284218  0.66376539  0.66638130  1
  Cr  Cr44  1  0.50093164  0.83212046  0.83353308  1
  Fe  Fe45  1  0.83136537  0.16769413  0.49980594  1
  Fe  Fe46  1  0.67103118  0.00175298  0.66696030  1
  Fe  Fe47  1  0.83677942  0.16757250  0.83374872  1
  Fe  Fe48  1  0.83375626  0.50051021  0.50015087  1
  Fe  Fe49  1  0.66900158  0.33562594  0.66545662  1
  Fe  Fe50  1  0.83331595  0.50162712  0.83457588  1
  Fe  Fe51  1  0.83618950  0.83431990  0.50092510  1
  Fe  Fe52  1  0.67000094  0.66488205  0.66839425  1
  Fe  Fe53  1  0.83412829  0.83282238  0.83364875  1
" 