8495,Ni7Fe12Cr80_15,-206.350790992172, 197.170629810556,Ni7Fe12Cr80,"# generated using pymatgen
 data_Cr15Fe2Ni
_symmetry_space_group_name_H-M   'P 1'
_cell_length_a   7.58317820
_cell_length_b   7.58317820
_cell_length_c   10.72423345
_cell_angle_alpha   90.00000000
_cell_angle_beta   90.00000000
_cell_angle_gamma   90.00000000
_symmetry_Int_Tables_number   1
_chemical_formula_structural   Cr15Fe2Ni
_chemical_formula_sum   'Cr45 Fe6 Ni3'
_cell_volume   616.69266406
_cell_formula_units_Z   3
loop_
 _symmetry_equiv_pos_site_id
 _symmetry_equiv_pos_as_xyz
  1  'x, y, z'
loop_
 _atom_site_type_symbol
 _atom_site_label
 _atom_site_symmetry_multiplicity
 _atom_site_fract_x
 _atom_site_fract_y
 _atom_site_fract_z
 _atom_site_occupancy
  Cr  Cr0  1  0.99128453  0.99152766  0.99227092  1
  Cr  Cr1  1  0.15817654  0.15936135  0.16048180  1
  Fe  Fe2  1  0.99153526  0.99219267  0.32482632  1
  Cr  Cr3  1  0.99081640  0.32659407  -0.00619321  1
  Cr  Cr4  1  0.15754822  0.49163372  0.15916342  1
  Fe  Fe5  1  0.99153692  0.32581563  0.32483378  1
  Cr  Cr6  1  0.99117961  0.65890845  0.99230022  1
  Cr  Cr7  1  0.15842510  0.82603245  0.15899437  1
  Cr  Cr8  1  0.99013934  0.65859188  0.32448141  1
  Cr  Cr9  1  0.32699094  0.99163442  -0.00633315  1
  Cr  Cr10  1  0.49266292  0.15742738  0.15745997  1
  Cr  Cr11  1  0.32529236  0.99163624  0.32538640  1
  Cr  Cr12  1  0.32679950  0.32583603  0.99071964  1
  Cr  Cr13  1  0.49374841  0.49402727  0.15960442  1
  Cr  Cr14  1  0.32500548  0.32498746  0.32641037  1
  Cr  Cr15  1  0.32633588  0.65955793  0.99214989  1
  Fe  Fe16  1  0.49516193  0.82526211  0.15902773  1
  Cr  Cr17  1  0.32663910  0.66040505  0.32498029  1
  Fe  Fe18  1  0.65952998  0.99115144  -0.00644447  1
  Cr  Cr19  1  0.82618860  0.15830782  0.15899533  1
  Cr  Cr20  1  0.65939337  0.99095337  0.32461532  1
  Cr  Cr21  1  0.65941198  0.32593770  0.99149460  1
  Ni  Ni22  1  0.82513576  0.49503246  0.16054456  1
  Cr  Cr23  1  0.66121164  0.32719335  0.32563513  1
  Cr  Cr24  1  0.65951801  0.65909268  -0.00556665  1
  Ni  Ni25  1  0.82386598  0.82446792  0.15971047  1
  Fe  Fe26  1  0.66029537  0.65935054  0.32362827  1
  Cr  Cr27  1  0.15847289  0.15955466  0.49112064  1
  Cr  Cr28  1  -0.00727118  0.99189429  0.65836412  1
  Cr  Cr29  1  0.15956644  0.15977795  0.82542208  1
  Cr  Cr30  1  0.15953303  0.49121765  0.49260911  1
  Cr  Cr31  1  0.99227519  0.32574625  0.65876832  1
  Cr  Cr32  1  0.16126436  0.49226474  0.82525739  1
  Cr  Cr33  1  0.15829565  0.82625571  0.49288317  1
  Cr  Cr34  1  -0.00727576  0.65938820  0.66024922  1
  Cr  Cr35  1  0.15833972  0.82498663  0.82514477  1
  Cr  Cr36  1  0.49175549  0.15972751  0.49384272  1
  Cr  Cr37  1  0.32533008  -0.00704002  0.65797747  1
  Cr  Cr38  1  0.49280735  0.16058056  0.82572773  1
  Cr  Cr39  1  0.49221544  0.49256485  0.49334507  1
  Fe  Fe40  1  0.32652614  0.32652408  0.65985167  1
  Ni  Ni41  1  0.49131989  0.49147628  0.82456507  1
  Cr  Cr42  1  0.49328675  0.82473786  0.49115533  1
  Cr  Cr43  1  0.32573570  0.65792604  0.65989950  1
  Cr  Cr44  1  0.49329220  0.82492836  0.82693202  1
  Cr  Cr45  1  0.82679808  0.15848874  0.49165075  1
  Cr  Cr46  1  0.65897030  -0.00659581  0.65945767  1
  Cr  Cr47  1  0.82465349  0.15765552  0.82637896  1
  Cr  Cr48  1  0.82528015  0.49274557  0.49067006  1
  Cr  Cr49  1  0.65750344  0.32615138  0.65989912  1
  Cr  Cr50  1  0.82459574  0.49274851  0.82571363  1
  Cr  Cr51  1  0.82544679  0.82579455  0.49243945  1
  Cr  Cr52  1  0.65857058  0.65747446  0.65841881  1
  Cr  Cr53  1  0.82539852  0.82662203  0.82559458  1
" 