5818,Ni7Fe12Cr80_17,-206.24337672198, 195.27219809445,Ni7Fe12Cr80,"# generated using pymatgen
 data_Cr15Fe2Ni
_symmetry_space_group_name_H-M   'P 1'
_cell_length_a   7.58429537
_cell_length_b   7.58429537
_cell_length_c   10.72581338
_cell_angle_alpha   90.00000000
_cell_angle_beta   90.00000000
_cell_angle_gamma   90.00000000
_symmetry_Int_Tables_number   1
_chemical_formula_structural   Cr15Fe2Ni
_chemical_formula_sum   'Cr45 Fe6 Ni3'
_cell_volume   616.96526347
_cell_formula_units_Z   3
loop_
 _symmetry_equiv_pos_site_id
 _symmetry_equiv_pos_as_xyz
  1  'x, y, z'
loop_
 _atom_site_type_symbol
 _atom_site_label
 _atom_site_symmetry_multiplicity
 _atom_site_fract_x
 _atom_site_fract_y
 _atom_site_fract_z
 _atom_site_occupancy
  Ni  Ni0  1  0.99168609  -0.00721792  -0.00720336  1
  Cr  Cr1  1  0.15781978  0.15793733  0.15788807  1
  Cr  Cr2  1  0.99129692  -0.00651483  0.32512978  1
  Cr  Cr3  1  0.99061858  0.32389979  -0.00676716  1
  Cr  Cr4  1  0.15920645  0.49259499  0.15939632  1
  Cr  Cr5  1  0.99186016  0.32536220  0.32651367  1
  Cr  Cr6  1  -0.00694249  0.66035639  -0.00739662  1
  Cr  Cr7  1  0.15753958  0.82627942  0.15663952  1
  Cr  Cr8  1  -0.00669154  0.65796355  0.32580575  1
  Cr  Cr9  1  0.32421506  0.99138339  0.99132349  1
  Cr  Cr10  1  0.49352565  0.15931044  0.15947842  1
  Cr  Cr11  1  0.32716785  0.99121246  0.32746595  1
  Cr  Cr12  1  0.32653064  0.32595259  0.99191537  1
  Cr  Cr13  1  0.49224019  0.49132875  0.15813099  1
  Cr  Cr14  1  0.32477724  0.32580831  0.32693961  1
  Cr  Cr15  1  0.32526437  0.65947495  -0.00683446  1
  Cr  Cr16  1  0.49253190  0.82617061  0.16057627  1
  Cr  Cr17  1  0.32560478  0.65979009  0.32578556  1
  Cr  Cr18  1  0.66054272  -0.00617628  -0.00697750  1
  Fe  Fe19  1  0.82610547  0.15779492  0.15846831  1
  Fe  Fe20  1  0.65843983  0.99179625  0.32613184  1
  Cr  Cr21  1  0.65966180  0.32494694  -0.00638578  1
  Cr  Cr22  1  0.82536430  0.49160547  0.15902667  1
  Cr  Cr23  1  0.66017289  0.32379243  0.32250786  1
  Cr  Cr24  1  0.65848948  0.65804076  0.99063576  1
  Cr  Cr25  1  0.82673884  0.82755872  0.15908948  1
  Cr  Cr26  1  0.65789769  0.66034729  0.32699815  1
  Fe  Fe27  1  0.15886013  0.16027716  0.49339481  1
  Cr  Cr28  1  -0.00712189  -0.00570244  0.65950302  1
  Cr  Cr29  1  0.15862280  0.15892097  0.82448080  1
  Fe  Fe30  1  0.15886827  0.49092732  0.49340518  1
  Ni  Ni31  1  -0.00610577  0.32631436  0.65737491  1
  Cr  Cr32  1  0.15900907  0.49079920  0.82449447  1
  Cr  Cr33  1  0.15963276  0.82592828  0.49121446  1
  Cr  Cr34  1  0.99187769  0.65661735  0.65840499  1
  Cr  Cr35  1  0.15744298  0.82709227  0.82896111  1
  Cr  Cr36  1  0.49063186  0.15780884  0.49193084  1
  Cr  Cr37  1  0.32634138  -0.00758087  0.65801984  1
  Cr  Cr38  1  0.49094587  0.16019863  0.82540433  1
  Cr  Cr39  1  0.49135675  0.49307964  0.49323074  1
  Fe  Fe40  1  0.32330564  0.32556437  0.65829765  1
  Cr  Cr41  1  0.49267169  0.49163327  0.82544628  1
  Ni  Ni42  1  0.49241919  0.82570140  0.49209603  1
  Cr  Cr43  1  0.32679450  0.65904789  0.65786386  1
  Cr  Cr44  1  0.49296022  0.82497899  0.82467761  1
  Cr  Cr45  1  0.82696076  0.15894899  0.49134200  1
  Cr  Cr46  1  0.65758905  0.99086223  0.65793163  1
  Cr  Cr47  1  0.82723925  0.15863528  0.82654330  1
  Cr  Cr48  1  0.82695834  0.49265582  0.49404873  1
  Cr  Cr49  1  0.66002275  0.32634875  0.66068786  1
  Cr  Cr50  1  0.82512981  0.49280879  0.82373246  1
  Cr  Cr51  1  0.82353784  0.82520391  0.49233934  1
  Fe  Fe52  1  0.65857710  0.65936346  0.65810965  1
  Cr  Cr53  1  0.82640712  0.82536651  0.82538151  1
" 