7905,Ni80Fe12Cr7_16,-237.788479688222, 185.305647695861,Ni80Fe12Cr7,"# generated using pymatgen
 data_Cr5Fe6Ni43
_symmetry_space_group_name_H-M   'P 1'
_cell_length_a   7.44768463
_cell_length_b   7.44768463
_cell_length_c   10.53261661
_cell_angle_alpha   90.00000000
_cell_angle_beta   90.00000000
_cell_angle_gamma   90.00000000
_symmetry_Int_Tables_number   1
_chemical_formula_structural   Cr5Fe6Ni43
_chemical_formula_sum   'Cr5 Fe6 Ni43'
_cell_volume   584.22324535
_cell_formula_units_Z   1
loop_
 _symmetry_equiv_pos_site_id
 _symmetry_equiv_pos_as_xyz
  1  'x, y, z'
loop_
 _atom_site_type_symbol
 _atom_site_label
 _atom_site_symmetry_multiplicity
 _atom_site_fract_x
 _atom_site_fract_y
 _atom_site_fract_z
 _atom_site_occupancy
  Ni  Ni0  1  0.00238265  0.00193190  0.00203840  1
  Ni  Ni1  1  0.16769907  0.16779912  0.16801783  1
  Ni  Ni2  1  1.00094869  0.00168608  0.33471871  1
  Ni  Ni3  1  1.00105130  0.33472090  0.00152031  1
  Ni  Ni4  1  0.16608596  0.50172804  0.16755622  1
  Ni  Ni5  1  0.00176384  0.33348571  0.33317042  1
  Ni  Ni6  1  0.00186478  0.66724272  0.00237316  1
  Ni  Ni7  1  0.16718168  0.83437302  0.16763864  1
  Ni  Ni8  1  0.99961130  0.66872859  0.33209325  1
  Ni  Ni9  1  0.33481222  1.00118415  0.00145515  1
  Ni  Ni10  1  0.50133553  0.16669509  0.16762148  1
  Ni  Ni11  1  0.33546502  0.00275291  0.33374439  1
  Ni  Ni12  1  0.33387086  0.33320132  1.00015982  1
  Cr  Cr13  1  0.50147417  0.50057229  0.16885934  1
  Ni  Ni14  1  0.33438313  0.33214585  0.33557977  1
  Ni  Ni15  1  0.33380931  0.66951650  1.00044518  1
  Ni  Ni16  1  0.50139696  0.83592659  0.16708612  1
  Fe  Fe17  1  0.33554357  0.66881476  0.33378958  1
  Ni  Ni18  1  0.66670240  0.00199868  0.00230897  1
  Ni  Ni19  1  0.83486526  0.16779285  0.16766343  1
  Ni  Ni20  1  0.66748559  1.00060450  0.33529719  1
  Ni  Ni21  1  0.66897741  0.33371899  1.00042176  1
  Ni  Ni22  1  0.83642173  0.50179018  0.16721814  1
  Ni  Ni23  1  0.66775410  0.33348524  0.33507615  1
  Ni  Ni24  1  0.66822408  0.66818376  1.00129620  1
  Ni  Ni25  1  0.83532082  0.83431650  0.16845744  1
  Ni  Ni26  1  0.66882139  0.66980914  0.33532363  1
  Ni  Ni27  1  0.16815742  0.16792084  0.50162513  1
  Fe  Fe28  1  0.00183291  0.00305935  0.66799117  1
  Ni  Ni29  1  0.16819077  0.16767919  0.83426062  1
  Cr  Cr30  1  0.17013458  0.49976445  0.50110619  1
  Ni  Ni31  1  1.00107823  0.33320349  0.66920503  1
  Fe  Fe32  1  0.16828050  0.50058598  0.83482034  1
  Cr  Cr33  1  0.16717079  0.83595883  0.50117037  1
  Ni  Ni34  1  1.00081771  0.66793112  0.66942687  1
  Ni  Ni35  1  0.16873421  0.83434714  0.83464130  1
  Ni  Ni36  1  0.50141952  0.16864158  0.50142496  1
  Ni  Ni37  1  0.33514556  0.00200810  0.66869778  1
  Ni  Ni38  1  0.50102296  0.17005468  0.83485576  1
  Ni  Ni39  1  0.50154741  0.50109442  0.50144701  1
  Ni  Ni40  1  0.33527717  0.33300977  0.66816039  1
  Ni  Ni41  1  0.50108536  0.50059434  0.83397500  1
  Ni  Ni42  1  0.50329522  0.83416607  0.50215758  1
  Ni  Ni43  1  0.33628778  0.66888431  0.66895136  1
  Fe  Fe44  1  0.49917474  0.83531571  0.83485665  1
  Ni  Ni45  1  0.83432276  0.16616987  0.50172178  1
  Fe  Fe46  1  0.66691180  0.00241145  0.66672528  1
  Ni  Ni47  1  0.83468393  0.16956868  0.83452148  1
  Cr  Cr48  1  0.83272033  0.50149316  0.50129749  1
  Ni  Ni49  1  0.66754505  0.33435262  0.66840029  1
  Fe  Fe50  1  0.83456512  0.49902623  0.83484060  1
  Ni  Ni51  1  0.83295703  0.83612085  0.50112720  1
  Ni  Ni52  1  0.66679402  0.66780408  0.66728004  1
  Cr  Cr53  1  0.83579064  0.83482465  0.83457805  1
" 