3671,Ni80Fe12Cr7_6,-237.840531905952, 186.466503134207,Ni80Fe12Cr7,"# generated using pymatgen
 data_Cr5Fe6Ni43
_symmetry_space_group_name_H-M   'P 1'
_cell_length_a   7.44400397
_cell_length_b   7.44400397
_cell_length_c   10.52741137
_cell_angle_alpha   90.00000000
_cell_angle_beta   90.00000000
_cell_angle_gamma   90.00000000
_symmetry_Int_Tables_number   1
_chemical_formula_structural   Cr5Fe6Ni43
_chemical_formula_sum   'Cr5 Fe6 Ni43'
_cell_volume   583.35750037
_cell_formula_units_Z   1
loop_
 _symmetry_equiv_pos_site_id
 _symmetry_equiv_pos_as_xyz
  1  'x, y, z'
loop_
 _atom_site_type_symbol
 _atom_site_label
 _atom_site_symmetry_multiplicity
 _atom_site_fract_x
 _atom_site_fract_y
 _atom_site_fract_z
 _atom_site_occupancy
  Cr  Cr0  1  1.00150974  0.00207807  0.00310078  1
  Ni  Ni1  1  0.16993500  0.16805820  0.16833885  1
  Ni  Ni2  1  0.00194668  1.00026621  0.33522143  1
  Ni  Ni3  1  0.00198275  0.33695094  1.00111904  1
  Ni  Ni4  1  0.16896633  0.50217133  0.16647414  1
  Cr  Cr5  1  1.00149654  0.33455788  0.33452084  1
  Ni  Ni6  1  1.00039837  0.66543682  0.00232826  1
  Ni  Ni7  1  0.16847252  0.83440331  0.16924541  1
  Ni  Ni8  1  0.00179606  0.66980576  0.33485089  1
  Ni  Ni9  1  0.33700191  0.00286719  0.00252863  1
  Ni  Ni10  1  0.50170442  0.16844071  0.16795624  1
  Ni  Ni11  1  0.33408214  1.00066798  0.33397785  1
  Ni  Ni12  1  0.33468391  0.33450996  1.00106993  1
  Ni  Ni13  1  0.50175777  0.50086379  0.16852713  1
  Ni  Ni14  1  0.33579604  0.33556916  0.33472850  1
  Fe  Fe15  1  0.33578001  0.66688152  0.00249228  1
  Ni  Ni16  1  0.50187250  0.83532295  0.16768590  1
  Ni  Ni17  1  0.33521109  0.66841788  0.33461280  1
  Ni  Ni18  1  0.66616010  1.00127188  1.00113574  1
  Ni  Ni19  1  0.83300106  0.16794489  0.16775145  1
  Ni  Ni20  1  0.66861951  1.00085578  0.33407647  1
  Ni  Ni21  1  0.66797834  0.33558789  0.00213284  1
  Ni  Ni22  1  0.83392465  0.50233959  0.16732652  1
  Ni  Ni23  1  0.66722148  0.33572613  0.33364287  1
  Ni  Ni24  1  0.66857848  0.66778541  1.00108600  1
  Ni  Ni25  1  0.83431167  0.83436229  0.16886369  1
  Ni  Ni26  1  0.66764825  0.66806985  0.33546093  1
  Ni  Ni27  1  0.16712882  0.16759483  0.50279971  1
  Ni  Ni28  1  0.00162706  0.00271255  0.66700927  1
  Ni  Ni29  1  0.16930538  0.17040323  0.83352447  1
  Ni  Ni30  1  0.16958021  0.50230923  0.50329049  1
  Ni  Ni31  1  0.00310964  0.33472894  0.66875368  1
  Ni  Ni32  1  0.16831502  0.49935626  0.83487123  1
  Ni  Ni33  1  0.16744013  0.83475327  0.50154791  1
  Ni  Ni34  1  1.00138291  0.66721810  0.66746290  1
  Cr  Cr35  1  0.16759118  0.83440580  0.83420845  1
  Cr  Cr36  1  0.50113099  0.16804796  0.50011160  1
  Ni  Ni37  1  0.33438946  1.00088366  0.66814899  1
  Fe  Fe38  1  0.50075268  0.16786524  0.83629487  1
  Ni  Ni39  1  0.50045805  0.50357852  0.50067198  1
  Fe  Fe40  1  0.33231661  0.33599606  0.66884034  1
  Ni  Ni41  1  0.50144592  0.50153899  0.83543652  1
  Ni  Ni42  1  0.50216906  0.83311591  0.50254971  1
  Ni  Ni43  1  0.33555112  0.66810598  0.66763160  1
  Fe  Fe44  1  0.50284965  0.83425523  0.83456048  1
  Ni  Ni45  1  0.83625825  0.16583874  0.50213533  1
  Ni  Ni46  1  0.66861474  0.99923111  0.66941840  1
  Fe  Fe47  1  0.83552631  0.16901424  0.83478517  1
  Fe  Fe48  1  0.83519418  0.50333204  0.50159317  1
  Cr  Cr49  1  0.66949378  0.33615219  0.66839804  1
  Ni  Ni50  1  0.83488173  0.50278218  0.83537821  1
  Ni  Ni51  1  0.83503838  0.83551841  0.50193943  1
  Ni  Ni52  1  0.66768580  0.66955678  0.66810433  1
  Ni  Ni53  1  0.83250676  0.83407232  0.83385946  1
" 