7376,Ni80Fe12Cr7_17,-238.151258000573, 187.776565359278,Ni80Fe12Cr7,"# generated using pymatgen
 data_Cr5Fe6Ni43
_symmetry_space_group_name_H-M   'P 1'
_cell_length_a   7.44468726
_cell_length_b   7.44468726
_cell_length_c   10.52837769
_cell_angle_alpha   90.00000000
_cell_angle_beta   90.00000000
_cell_angle_gamma   90.00000000
_symmetry_Int_Tables_number   1
_chemical_formula_structural   Cr5Fe6Ni43
_chemical_formula_sum   'Cr5 Fe6 Ni43'
_cell_volume   583.51815489
_cell_formula_units_Z   1
loop_
 _symmetry_equiv_pos_site_id
 _symmetry_equiv_pos_as_xyz
  1  'x, y, z'
loop_
 _atom_site_type_symbol
 _atom_site_label
 _atom_site_symmetry_multiplicity
 _atom_site_fract_x
 _atom_site_fract_y
 _atom_site_fract_z
 _atom_site_occupancy
  Ni  Ni0  1  1.00106351  1.00080229  1.00086350  1
  Fe  Fe1  1  0.16938038  0.16757696  0.16810923  1
  Ni  Ni2  1  1.00014297  0.00161849  0.33588355  1
  Ni  Ni3  1  0.00355957  0.33588464  1.00090648  1
  Ni  Ni4  1  0.16928534  0.50175823  0.16720409  1
  Ni  Ni5  1  0.00354871  0.33388289  0.33489687  1
  Ni  Ni6  1  1.00091434  0.66800009  1.00124302  1
  Ni  Ni7  1  0.16893324  0.83490788  0.16638631  1
  Cr  Cr8  1  0.00317642  0.66973917  0.33349946  1
  Ni  Ni9  1  0.33631917  0.00204410  0.00154695  1
  Ni  Ni10  1  0.50096786  0.16792476  0.16767012  1
  Fe  Fe11  1  0.33429842  0.00163930  0.33490782  1
  Ni  Ni12  1  0.33382986  0.33417561  0.00300963  1
  Ni  Ni13  1  0.50067280  0.50140704  0.16892698  1
  Ni  Ni14  1  0.33533753  0.33567374  0.33461841  1
  Ni  Ni15  1  0.33458837  0.66834399  0.00199694  1
  Ni  Ni16  1  0.50043619  0.83493881  0.16825706  1
  Ni  Ni17  1  0.33621220  0.66728577  0.33535136  1
  Ni  Ni18  1  0.66742191  0.99976835  1.00040534  1
  Cr  Cr19  1  0.83522991  0.16724337  0.16880381  1
  Ni  Ni20  1  0.66720932  1.00044607  0.33584009  1
  Fe  Fe21  1  0.66783321  0.33443491  0.00239408  1
  Ni  Ni22  1  0.83471262  0.50094632  0.16647697  1
  Ni  Ni23  1  0.66596537  0.33275004  0.33503786  1
  Ni  Ni24  1  0.66881693  0.67080938  0.00447727  1
  Ni  Ni25  1  0.83475811  0.83507957  0.16768336  1
  Fe  Fe26  1  0.66738375  0.66816498  0.33353139  1
  Ni  Ni27  1  0.16684124  0.16689841  0.49921170  1
  Ni  Ni28  1  1.00053400  0.00203169  0.66784146  1
  Ni  Ni29  1  0.16690047  0.16691949  0.83691009  1
  Ni  Ni30  1  0.16962722  0.50201005  0.50191309  1
  Ni  Ni31  1  0.00193830  0.33372624  0.66853464  1
  Ni  Ni32  1  0.16661544  0.50253385  0.83529132  1
  Ni  Ni33  1  0.16886257  0.83572846  0.50354084  1
  Ni  Ni34  1  0.00150338  0.66894557  0.66952774  1
  Ni  Ni35  1  0.16817691  0.83493172  0.83457197  1
  Ni  Ni36  1  0.50252850  0.16705351  0.50077706  1
  Ni  Ni37  1  0.33604984  1.00079563  0.66818302  1
  Ni  Ni38  1  0.50295810  0.16629902  0.83623184  1
  Ni  Ni39  1  0.50041011  0.50241127  0.49989795  1
  Cr  Cr40  1  0.33300125  0.33283713  0.66686575  1
  Cr  Cr41  1  0.50117251  0.50348004  0.83550899  1
  Ni  Ni42  1  0.50077209  0.83477657  0.50133584  1
  Ni  Ni43  1  0.33480045  0.66954581  0.66720534  1
  Ni  Ni44  1  0.50137976  0.83592272  0.83498478  1
  Ni  Ni45  1  0.83501678  0.16657665  0.50165756  1
  Ni  Ni46  1  0.66816467  1.00064413  0.66830069  1
  Ni  Ni47  1  0.83519581  0.16805365  0.83422166  1
  Cr  Cr48  1  0.83451416  0.50014278  0.50249818  1
  Fe  Fe49  1  0.66837716  0.33300375  0.66753433  1
  Fe  Fe50  1  0.83593360  0.50267035  0.83513751  1
  Ni  Ni51  1  0.83461277  0.83772082  0.50171590  1
  Ni  Ni52  1  0.66809500  0.67214424  0.66656614  1
  Ni  Ni53  1  0.83511523  0.83604503  0.83520201  1
" 