7082,Ni80Fe12Cr7_18,-238.143261858349, 188.961304082023,Ni80Fe12Cr7,"# generated using pymatgen
 data_Cr5Fe6Ni43
_symmetry_space_group_name_H-M   'P 1'
_cell_length_a   7.44254885
_cell_length_b   7.44254885
_cell_length_c   10.52535352
_cell_angle_alpha   90.00000000
_cell_angle_beta   90.00000000
_cell_angle_gamma   90.00000000
_symmetry_Int_Tables_number   1
_chemical_formula_structural   Cr5Fe6Ni43
_chemical_formula_sum   'Cr5 Fe6 Ni43'
_cell_volume   583.01547139
_cell_formula_units_Z   1
loop_
 _symmetry_equiv_pos_site_id
 _symmetry_equiv_pos_as_xyz
  1  'x, y, z'
loop_
 _atom_site_type_symbol
 _atom_site_label
 _atom_site_symmetry_multiplicity
 _atom_site_fract_x
 _atom_site_fract_y
 _atom_site_fract_z
 _atom_site_occupancy
  Ni  Ni0  1  0.00250585  1.00070616  1.00068911  1
  Ni  Ni1  1  0.16761325  0.16943136  0.16796216  1
  Ni  Ni2  1  1.00096217  1.00123187  0.33603283  1
  Fe  Fe3  1  0.00292449  0.33558043  1.00067656  1
  Ni  Ni4  1  0.16960204  0.50192394  0.16835262  1
  Ni  Ni5  1  0.00280233  0.33552900  0.33563748  1
  Ni  Ni6  1  0.00290479  0.66920175  1.00116887  1
  Ni  Ni7  1  0.16756572  0.83381891  0.16742079  1
  Ni  Ni8  1  1.00155058  0.66848046  0.33521506  1
  Ni  Ni9  1  0.33336756  1.00161680  1.00150454  1
  Fe  Fe10  1  0.50032268  0.16836954  0.16787389  1
  Cr  Cr11  1  0.33444055  0.00198950  0.33568059  1
  Ni  Ni12  1  0.33456715  0.33569034  0.00279376  1
  Ni  Ni13  1  0.49995876  0.50099095  0.16945070  1
  Ni  Ni14  1  0.33493463  0.33649319  0.33491671  1
  Ni  Ni15  1  0.33375656  0.66748861  1.00128392  1
  Ni  Ni16  1  0.50150780  0.83396908  0.16816556  1
  Ni  Ni17  1  0.33530446  0.66651809  0.33486653  1
  Ni  Ni18  1  0.66884401  1.00150489  0.00168147  1
  Cr  Cr19  1  0.83487933  0.16787796  0.16797930  1
  Ni  Ni20  1  0.66912584  1.00076421  0.33551438  1
  Ni  Ni21  1  0.66722507  0.33549687  1.00095469  1
  Fe  Fe22  1  0.83628058  0.50322312  0.16950078  1
  Ni  Ni23  1  0.66722976  0.33608905  0.33618273  1
  Cr  Cr24  1  0.66851062  0.66788128  1.00121111  1
  Ni  Ni25  1  0.83591452  0.83591546  0.16964853  1
  Ni  Ni26  1  0.66816005  0.66824468  0.33524181  1
  Fe  Fe27  1  0.16802063  0.17046374  0.50141412  1
  Cr  Cr28  1  1.00079389  0.00177682  0.66772985  1
  Ni  Ni29  1  0.16741608  0.16950058  0.83565065  1
  Ni  Ni30  1  0.16852097  0.50240998  0.50129643  1
  Ni  Ni31  1  0.00290653  0.33606041  0.66903044  1
  Ni  Ni32  1  0.16868993  0.50188886  0.83541030  1
  Ni  Ni33  1  0.16829249  0.83160632  0.50115002  1
  Ni  Ni34  1  1.00125942  0.66687060  0.66846823  1
  Ni  Ni35  1  0.16908757  0.83348891  0.83629792  1
  Ni  Ni36  1  0.50378683  0.16926072  0.50149746  1
  Fe  Fe37  1  0.33497881  1.00006249  0.66798575  1
  Cr  Cr38  1  0.50206771  0.16815596  0.83559584  1
  Ni  Ni39  1  0.50084682  0.50154721  0.50164366  1
  Ni  Ni40  1  0.33382257  0.33606793  0.66720391  1
  Ni  Ni41  1  0.50026331  0.50205695  0.83385293  1
  Ni  Ni42  1  0.50222623  0.83421892  0.50246182  1
  Ni  Ni43  1  0.33536777  0.66668945  0.66884109  1
  Ni  Ni44  1  0.50063433  0.83429358  0.83426339  1
  Ni  Ni45  1  0.83354219  0.16912367  0.50106991  1
  Ni  Ni46  1  0.66834923  1.00041934  0.66780338  1
  Ni  Ni47  1  0.83559451  0.16894380  0.83578473  1
  Ni  Ni48  1  0.83572318  0.50113569  0.50090704  1
  Fe  Fe49  1  0.66973347  0.33686062  0.66759822  1
  Ni  Ni50  1  0.83624432  0.50053428  0.83468775  1
  Ni  Ni51  1  0.83438365  0.83485429  0.50006578  1
  Ni  Ni52  1  0.66839271  0.66902705  0.66837673  1
  Ni  Ni53  1  0.83517004  0.83553065  0.83518248  1
" 