7694,Ni80Fe12Cr7_5,-237.584959041435, 182.887015680494,Ni80Fe12Cr7,"# generated using pymatgen
 data_Cr5Fe6Ni43
_symmetry_space_group_name_H-M   'P 1'
_cell_length_a   7.44585129
_cell_length_b   7.44585129
_cell_length_c   10.53002388
_cell_angle_alpha   90.00000000
_cell_angle_beta   90.00000000
_cell_angle_gamma   90.00000000
_symmetry_Int_Tables_number   1
_chemical_formula_structural   Cr5Fe6Ni43
_chemical_formula_sum   'Cr5 Fe6 Ni43'
_cell_volume   583.79191012
_cell_formula_units_Z   1
loop_
 _symmetry_equiv_pos_site_id
 _symmetry_equiv_pos_as_xyz
  1  'x, y, z'
loop_
 _atom_site_type_symbol
 _atom_site_label
 _atom_site_symmetry_multiplicity
 _atom_site_fract_x
 _atom_site_fract_y
 _atom_site_fract_z
 _atom_site_occupancy
  Ni  Ni0  1  0.99993434  1.00077906  0.00170097  1
  Fe  Fe1  1  0.16773604  0.17048924  0.16872003  1
  Ni  Ni2  1  1.00110353  1.00021973  0.33352629  1
  Ni  Ni3  1  0.00152048  0.33528968  1.00135769  1
  Ni  Ni4  1  0.16649428  0.50148336  0.16829697  1
  Ni  Ni5  1  1.00081444  0.33557838  0.33408356  1
  Ni  Ni6  1  0.00142463  0.66825715  0.00181737  1
  Ni  Ni7  1  0.16537064  0.83427041  0.16944772  1
  Fe  Fe8  1  1.00080720  0.66742977  0.33500209  1
  Cr  Cr9  1  0.33257612  0.00363155  1.00041909  1
  Ni  Ni10  1  0.50303346  0.16983290  0.16924172  1
  Ni  Ni11  1  0.33333004  0.00265088  0.33414798  1
  Ni  Ni12  1  0.33502534  0.33705068  0.00166589  1
  Ni  Ni13  1  0.50232144  0.49898601  0.16803039  1
  Ni  Ni14  1  0.33555968  0.33563824  0.33359608  1
  Ni  Ni15  1  0.33267127  0.66449740  0.00198675  1
  Cr  Cr16  1  0.50219243  0.83454918  0.16838905  1
  Fe  Fe17  1  0.33341398  0.66610001  0.33468944  1
  Ni  Ni18  1  0.67167218  0.00313599  0.00177549  1
  Fe  Fe19  1  0.83497200  0.16941110  0.16768891  1
  Ni  Ni20  1  0.66991289  0.00251777  0.33488177  1
  Ni  Ni21  1  0.66784228  0.33538582  0.00172842  1
  Ni  Ni22  1  0.83538783  0.50038979  0.16789213  1
  Ni  Ni23  1  0.66788436  0.33577888  0.33514221  1
  Ni  Ni24  1  0.67013626  0.66564694  1.00126007  1
  Fe  Fe25  1  0.83540999  0.83334263  0.16791616  1
  Ni  Ni26  1  0.66994962  0.66599890  0.33471145  1
  Cr  Cr27  1  0.16843303  0.16871298  0.50191565  1
  Ni  Ni28  1  1.00071390  0.99972546  0.66924644  1
  Ni  Ni29  1  0.16642378  0.16938947  0.83488100  1
  Ni  Ni30  1  0.16674190  0.50210841  0.50095554  1
  Ni  Ni31  1  1.00071061  0.33619002  0.66898789  1
  Ni  Ni32  1  0.16703329  0.50096553  0.83496778  1
  Ni  Ni33  1  0.16566886  0.83397753  0.50124838  1
  Ni  Ni34  1  1.00121551  0.66841340  0.66738201  1
  Ni  Ni35  1  0.16508236  0.83397420  0.83339516  1
  Ni  Ni36  1  0.50274429  0.16935682  0.50113319  1
  Ni  Ni37  1  0.33332926  0.00234734  0.66887050  1
  Ni  Ni38  1  0.50271561  0.17035419  0.83376515  1
  Ni  Ni39  1  0.50222387  0.49927568  0.50063429  1
  Ni  Ni40  1  0.33579674  0.33602820  0.66922110  1
  Ni  Ni41  1  0.50182431  0.49935038  0.83560596  1
  Cr  Cr42  1  0.50142482  0.83597147  0.50181146  1
  Ni  Ni43  1  0.33266063  0.66580081  0.66737697  1
  Cr  Cr44  1  0.50285811  0.83358780  0.83381580  1
  Fe  Fe45  1  0.83416444  0.16856579  0.50174737  1
  Ni  Ni46  1  0.67028453  0.00291729  0.66763098  1
  Ni  Ni47  1  0.83510799  0.16848421  0.83462498  1
  Ni  Ni48  1  0.83513474  0.50157065  0.50139341  1
  Ni  Ni49  1  0.66771352  0.33542201  0.66732273  1
  Ni  Ni50  1  0.83540619  0.50095673  0.83496674  1
  Ni  Ni51  1  0.83612713  0.83419867  0.50060773  1
  Ni  Ni52  1  0.67024957  0.66601206  0.66831616  1
  Ni  Ni53  1  0.83657595  0.83486316  0.83592162  1
" 