3385,Ni80Fe12Cr7_13,-237.697769265991, 186.331161279478,Ni80Fe12Cr7,"# generated using pymatgen
 data_Cr5Fe6Ni43
_symmetry_space_group_name_H-M   'P 1'
_cell_length_a   7.44562284
_cell_length_b   7.44562284
_cell_length_c   10.52970080
_cell_angle_alpha   90.00000000
_cell_angle_beta   90.00000000
_cell_angle_gamma   90.00000000
_symmetry_Int_Tables_number   1
_chemical_formula_structural   Cr5Fe6Ni43
_chemical_formula_sum   'Cr5 Fe6 Ni43'
_cell_volume   583.73817665
_cell_formula_units_Z   1
loop_
 _symmetry_equiv_pos_site_id
 _symmetry_equiv_pos_as_xyz
  1  'x, y, z'
loop_
 _atom_site_type_symbol
 _atom_site_label
 _atom_site_symmetry_multiplicity
 _atom_site_fract_x
 _atom_site_fract_y
 _atom_site_fract_z
 _atom_site_occupancy
  Ni  Ni0  1  0.99966105  1.00073250  1.00095715  1
  Ni  Ni1  1  0.16675135  0.16803076  0.16934428  1
  Ni  Ni2  1  0.00251017  1.00050066  0.33380353  1
  Ni  Ni3  1  1.00117209  0.33527733  1.00114547  1
  Fe  Fe4  1  0.16770011  0.50195692  0.16799446  1
  Ni  Ni5  1  0.00225818  0.33560339  0.33409843  1
  Ni  Ni6  1  0.00195857  0.66831294  1.00061797  1
  Ni  Ni7  1  0.16766925  0.83531710  0.16849406  1
  Ni  Ni8  1  1.00127712  0.66821857  0.33557873  1
  Cr  Cr9  1  0.33408480  0.00164786  0.00169489  1
  Fe  Fe10  1  0.50294440  0.16841563  0.16893368  1
  Ni  Ni11  1  0.33462350  0.00147990  0.33529600  1
  Ni  Ni12  1  0.33521866  0.33690463  1.00072083  1
  Ni  Ni13  1  0.50197925  0.50189634  0.16750269  1
  Ni  Ni14  1  0.33474479  0.33448875  0.33502620  1
  Ni  Ni15  1  0.33344424  0.66569934  0.00165461  1
  Ni  Ni16  1  0.50198181  0.83327040  0.16938447  1
  Ni  Ni17  1  0.33474116  0.66834687  0.33505509  1
  Ni  Ni18  1  0.67053865  0.00250296  0.00173930  1
  Ni  Ni19  1  0.83559494  0.16802908  0.16750984  1
  Ni  Ni20  1  0.66718535  1.00050331  0.33426742  1
  Ni  Ni21  1  0.66792564  0.33460115  1.00064923  1
  Ni  Ni22  1  0.83354929  0.50097976  0.16864507  1
  Ni  Ni23  1  0.66731482  0.33571568  0.33455871  1
  Fe  Fe24  1  0.66934920  0.66687977  0.00232993  1
  Ni  Ni25  1  0.83466908  0.83530482  0.16795238  1
  Ni  Ni26  1  0.66829470  0.66809295  0.33458002  1
  Ni  Ni27  1  0.16869252  0.16759535  0.49988135  1
  Ni  Ni28  1  1.00052194  1.00061239  0.66955819  1
  Ni  Ni29  1  0.16615564  0.16878646  0.83509269  1
  Ni  Ni30  1  0.16823780  0.50231332  0.50040633  1
  Ni  Ni31  1  1.00034231  0.33535032  0.66907422  1
  Ni  Ni32  1  0.16771097  0.50151676  0.83601014  1
  Ni  Ni33  1  0.16737840  0.83440607  0.50106781  1
  Fe  Fe34  1  1.00069194  0.66820358  0.66815043  1
  Ni  Ni35  1  0.16483640  0.83400871  0.83475176  1
  Ni  Ni36  1  0.50110521  0.16870454  0.49940072  1
  Cr  Cr37  1  0.33368187  1.00066108  0.66723734  1
  Ni  Ni38  1  0.50322670  0.17086096  0.83597131  1
  Ni  Ni39  1  0.50213017  0.50178170  0.50137719  1
  Cr  Cr40  1  0.33465145  0.33636411  0.66846664  1
  Ni  Ni41  1  0.50217944  0.49994301  0.83543461  1
  Fe  Fe42  1  0.50197594  0.83359091  0.50032612  1
  Ni  Ni43  1  0.33445141  0.66744026  0.66760950  1
  Cr  Cr44  1  0.50267095  0.83321810  0.83447299  1
  Cr  Cr45  1  0.83484262  0.16816642  0.50176575  1
  Ni  Ni46  1  0.67011956  1.00093066  0.66831098  1
  Fe  Fe47  1  0.83501595  0.16834011  0.83505385  1
  Ni  Ni48  1  0.83394692  0.50309620  0.50142031  1
  Ni  Ni49  1  0.66920267  0.33612674  0.66910723  1
  Ni  Ni50  1  0.83442582  0.50127253  0.83425184  1
  Ni  Ni51  1  0.83505477  0.83337797  0.50136363  1
  Ni  Ni52  1  0.66879357  0.66725876  0.66759472  1
  Ni  Ni53  1  0.83650735  0.83505604  0.83500037  1
" 