6219,Ni80Fe12Cr7_7,-238.055603488215, 187.518470072428,Ni80Fe12Cr7,"# generated using pymatgen
 data_Cr5Fe6Ni43
_symmetry_space_group_name_H-M   'P 1'
_cell_length_a   7.44639352
_cell_length_b   7.44639352
_cell_length_c   10.53079071
_cell_angle_alpha   90.00000000
_cell_angle_beta   90.00000000
_cell_angle_gamma   90.00000000
_symmetry_Int_Tables_number   1
_chemical_formula_structural   Cr5Fe6Ni43
_chemical_formula_sum   'Cr5 Fe6 Ni43'
_cell_volume   583.91946069
_cell_formula_units_Z   1
loop_
 _symmetry_equiv_pos_site_id
 _symmetry_equiv_pos_as_xyz
  1  'x, y, z'
loop_
 _atom_site_type_symbol
 _atom_site_label
 _atom_site_symmetry_multiplicity
 _atom_site_fract_x
 _atom_site_fract_y
 _atom_site_fract_z
 _atom_site_occupancy
  Ni  Ni0  1  1.00133729  0.00186386  0.00214849  1
  Fe  Fe1  1  0.16770508  0.16943514  0.16879348  1
  Ni  Ni2  1  1.00103475  0.00174537  0.33507462  1
  Ni  Ni3  1  1.00122791  0.33433321  1.00103181  1
  Ni  Ni4  1  0.16636622  0.50130919  0.16858625  1
  Ni  Ni5  1  0.99953013  0.33479668  0.33567707  1
  Ni  Ni6  1  0.00166275  0.66816091  0.00202335  1
  Fe  Fe7  1  0.16759401  0.83552323  0.16877513  1
  Ni  Ni8  1  0.00268090  0.66768726  0.33423863  1
  Ni  Ni9  1  0.33473534  0.00335180  0.00139025  1
  Ni  Ni10  1  0.50258322  0.16685988  0.16792464  1
  Ni  Ni11  1  0.33447469  1.00109752  0.33416740  1
  Ni  Ni12  1  0.33509522  0.33306979  0.00297958  1
  Ni  Ni13  1  0.50064333  0.49981742  0.17021462  1
  Fe  Fe14  1  0.33378359  0.33329329  0.33445296  1
  Cr  Cr15  1  0.33425422  0.66821818  0.99980808  1
  Ni  Ni16  1  0.49993452  0.83736228  0.16924136  1
  Ni  Ni17  1  0.33349074  0.66757527  0.33453836  1
  Ni  Ni18  1  0.66797186  0.00338999  0.00182505  1
  Ni  Ni19  1  0.83501389  0.16830591  0.16776739  1
  Ni  Ni20  1  0.66866525  0.00434643  0.33376704  1
  Ni  Ni21  1  0.66794369  0.33295568  0.00144806  1
  Ni  Ni22  1  0.83723988  0.49846167  0.16830492  1
  Ni  Ni23  1  0.66844601  0.33399628  0.33471776  1
  Cr  Cr24  1  0.66942312  0.66779199  0.00177640  1
  Fe  Fe25  1  0.83458952  0.83536491  0.16894337  1
  Fe  Fe26  1  0.66973687  0.66810088  0.33409820  1
  Ni  Ni27  1  0.16635162  0.16669328  0.50016415  1
  Ni  Ni28  1  1.00115088  0.00265817  0.66690386  1
  Fe  Fe29  1  0.16711272  0.16759799  0.83495857  1
  Ni  Ni30  1  0.16753864  0.50153881  0.49941005  1
  Ni  Ni31  1  0.99930737  0.33299934  0.66743868  1
  Ni  Ni32  1  0.16651173  0.50079750  0.83605819  1
  Ni  Ni33  1  0.16791885  0.83543702  0.50030304  1
  Cr  Cr34  1  0.00151337  0.66808980  0.66792105  1
  Ni  Ni35  1  0.16779850  0.83638720  0.83505895  1
  Ni  Ni36  1  0.50255598  0.16787324  0.49987917  1
  Ni  Ni37  1  0.33359206  1.00118857  0.66877888  1
  Ni  Ni38  1  0.50313081  0.16664547  0.83640022  1
  Ni  Ni39  1  0.50189993  0.50083679  0.49953262  1
  Cr  Cr40  1  0.33446455  0.33434842  0.66644375  1
  Ni  Ni41  1  0.50163883  0.49958505  0.83409877  1
  Cr  Cr42  1  0.50132314  0.83538828  0.50306577  1
  Ni  Ni43  1  0.33503361  0.66825530  0.66913919  1
  Ni  Ni44  1  0.50104540  0.83780126  0.83269598  1
  Ni  Ni45  1  0.83478766  0.16807935  0.50166174  1
  Ni  Ni46  1  0.66938053  0.00300246  0.66877581  1
  Ni  Ni47  1  0.83464160  0.16797304  0.83482158  1
  Ni  Ni48  1  0.83471654  0.49988505  0.50046567  1
  Ni  Ni49  1  0.66911512  0.33430561  0.66798962  1
  Ni  Ni50  1  0.83591708  0.49873270  0.83545751  1
  Ni  Ni51  1  0.83590499  0.83637791  0.49963830  1
  Ni  Ni52  1  0.66800658  0.66672506  0.66839731  1
  Ni  Ni53  1  0.83536790  0.83747327  0.83571730  1
" 