6711,Ni80Fe12Cr7_8,-237.928482635333, 186.285072305872,Ni80Fe12Cr7,"# generated using pymatgen
 data_Cr5Fe6Ni43
_symmetry_space_group_name_H-M   'P 1'
_cell_length_a   7.44354283
_cell_length_b   7.44354283
_cell_length_c   10.52675922
_cell_angle_alpha   90.00000000
_cell_angle_beta   90.00000000
_cell_angle_gamma   90.00000000
_symmetry_Int_Tables_number   1
_chemical_formula_structural   Cr5Fe6Ni43
_chemical_formula_sum   'Cr5 Fe6 Ni43'
_cell_volume   583.24909305
_cell_formula_units_Z   1
loop_
 _symmetry_equiv_pos_site_id
 _symmetry_equiv_pos_as_xyz
  1  'x, y, z'
loop_
 _atom_site_type_symbol
 _atom_site_label
 _atom_site_symmetry_multiplicity
 _atom_site_fract_x
 _atom_site_fract_y
 _atom_site_fract_z
 _atom_site_occupancy
  Ni  Ni0  1  1.00144375  1.00109542  0.00167042  1
  Ni  Ni1  1  0.16732473  0.17041675  0.16647612  1
  Cr  Cr2  1  1.00037609  0.00336202  0.33423877  1
  Ni  Ni3  1  1.00150365  0.33526141  0.00169238  1
  Ni  Ni4  1  0.16967915  0.49952346  0.16822140  1
  Ni  Ni5  1  1.00112845  0.33520886  0.33561602  1
  Ni  Ni6  1  1.00156988  0.66836302  0.00167609  1
  Fe  Fe7  1  0.16862662  0.83356505  0.16565337  1
  Cr  Cr8  1  0.00215322  0.66628004  0.33368053  1
  Ni  Ni9  1  0.33489189  1.00136963  1.00128616  1
  Fe  Fe10  1  0.50287455  0.16956863  0.16781883  1
  Cr  Cr11  1  0.33656259  1.00136886  0.33555089  1
  Ni  Ni12  1  0.33501494  0.33517041  0.00185916  1
  Ni  Ni13  1  0.50078150  0.50275786  0.16854474  1
  Ni  Ni14  1  0.33540633  0.33680473  0.33505377  1
  Ni  Ni15  1  0.33465142  0.66819081  0.00186061  1
  Ni  Ni16  1  0.50279253  0.83343133  0.16819804  1
  Ni  Ni17  1  0.33684432  0.66642489  0.33540476  1
  Ni  Ni18  1  0.66841170  1.00145122  0.00209596  1
  Ni  Ni19  1  0.83563386  0.16840483  0.16845646  1
  Ni  Ni20  1  0.66733500  0.00254125  0.33426047  1
  Ni  Ni21  1  0.66823601  0.33503819  1.00155472  1
  Ni  Ni22  1  0.83427831  0.50054523  0.16743254  1
  Ni  Ni23  1  0.66821223  0.33506707  0.33539536  1
  Ni  Ni24  1  0.66850782  0.66825526  1.00136230  1
  Ni  Ni25  1  0.83238408  0.83578685  0.16649423  1
  Ni  Ni26  1  0.66576059  0.66714214  0.33463161  1
  Ni  Ni27  1  0.16725554  0.16861672  0.50264506  1
  Ni  Ni28  1  0.00195977  1.00146816  0.66862096  1
  Fe  Fe29  1  0.16689970  0.16738855  0.83583599  1
  Fe  Fe30  1  0.16853377  0.50133743  0.50152257  1
  Ni  Ni31  1  0.99909237  0.33534464  0.66743896  1
  Ni  Ni32  1  0.16804651  0.50232960  0.83545150  1
  Ni  Ni33  1  0.17141398  0.83515272  0.50372097  1
  Ni  Ni34  1  0.00281435  0.66792190  0.66897408  1
  Ni  Ni35  1  0.16889872  0.83500946  0.83516668  1
  Ni  Ni36  1  0.50243272  0.16835418  0.50104756  1
  Ni  Ni37  1  0.33510973  0.99900946  0.66770532  1
  Fe  Fe38  1  0.50304662  0.16736806  0.83528998  1
  Ni  Ni39  1  0.50212312  0.50248564  0.50021744  1
  Cr  Cr40  1  0.33571992  0.33516790  0.66822622  1
  Ni  Ni41  1  0.50170876  0.50280876  0.83598943  1
  Ni  Ni42  1  0.49975234  0.83389444  0.50231590  1
  Ni  Ni43  1  0.33409255  0.67051349  0.66748555  1
  Ni  Ni44  1  0.50087274  0.83455433  0.83421776  1
  Ni  Ni45  1  0.83504643  0.17096376  0.50184652  1
  Ni  Ni46  1  0.66767104  0.00275455  0.66836766  1
  Ni  Ni47  1  0.83544931  0.16823427  0.83443135  1
  Ni  Ni48  1  0.83378237  0.49831102  0.50230175  1
  Ni  Ni49  1  0.67028167  0.33433720  0.66777344  1
  Ni  Ni50  1  0.83497729  0.50061780  0.83499907  1
  Cr  Cr51  1  0.83328099  0.83549344  0.50326946  1
  Fe  Fe52  1  0.66764968  0.66754710  0.66911771  1
  Ni  Ni53  1  0.83496182  0.83587921  0.83509443  1
" 