78,Ni80Fe12Cr7_2,-237.940937499, 185.51478055935,Ni80Fe12Cr7,"# generated using pymatgen
 data_Cr5Fe6Ni43
_symmetry_space_group_name_H-M   'P 1'
_cell_length_a   7.44802939
_cell_length_b   7.44802939
_cell_length_c   10.53310418
_cell_angle_alpha   90.00000000
_cell_angle_beta   90.00000000
_cell_angle_gamma   90.00000000
_symmetry_Int_Tables_number   1
_chemical_formula_structural   Cr5Fe6Ni43
_chemical_formula_sum   'Cr5 Fe6 Ni43'
_cell_volume   584.30438140
_cell_formula_units_Z   1
loop_
 _symmetry_equiv_pos_site_id
 _symmetry_equiv_pos_as_xyz
  1  'x, y, z'
loop_
 _atom_site_type_symbol
 _atom_site_label
 _atom_site_symmetry_multiplicity
 _atom_site_fract_x
 _atom_site_fract_y
 _atom_site_fract_z
 _atom_site_occupancy
  Ni  Ni0  1  0.00224131  0.00165215  1.00114747  1
  Ni  Ni1  1  0.16802667  0.16808578  0.16815213  1
  Ni  Ni2  1  0.00177183  0.00150384  0.33510994  1
  Ni  Ni3  1  1.00119324  0.33315788  0.00136788  1
  Ni  Ni4  1  0.16986584  0.50142619  0.16799551  1
  Ni  Ni5  1  1.00041554  0.33259659  0.33435729  1
  Ni  Ni6  1  0.00249127  0.66902032  1.00034809  1
  Ni  Ni7  1  0.16803197  0.83432053  0.16811513  1
  Ni  Ni8  1  0.00257833  0.66973110  0.33510680  1
  Ni  Ni9  1  0.33327210  0.00171862  0.00143327  1
  Ni  Ni10  1  0.50107078  0.17003851  0.16836442  1
  Fe  Fe11  1  0.33279722  0.00250783  0.33555388  1
  Ni  Ni12  1  0.33568876  0.33445821  0.00220587  1
  Ni  Ni13  1  0.49929458  0.49953565  0.16818945  1
  Ni  Ni14  1  0.33593206  0.33365071  0.33229851  1
  Ni  Ni15  1  0.33432394  0.66765470  1.00120993  1
  Cr  Cr16  1  0.49959314  0.83418805  0.16717362  1
  Ni  Ni17  1  0.33384356  0.66874893  0.33306821  1
  Fe  Fe18  1  0.66821528  0.00325628  0.99947123  1
  Ni  Ni19  1  0.83473010  0.16820234  0.16773260  1
  Fe  Fe20  1  0.66820079  0.00381221  0.33657318  1
  Ni  Ni21  1  0.66694917  0.33420935  1.00115056  1
  Cr  Cr22  1  0.83499999  0.49976229  0.16780041  1
  Ni  Ni23  1  0.66748245  0.33284920  0.33436498  1
  Ni  Ni24  1  0.66701430  0.66660441  0.99957380  1
  Cr  Cr25  1  0.83666572  0.83588018  0.16772250  1
  Fe  Fe26  1  0.66814564  0.66668885  0.33612840  1
  Ni  Ni27  1  0.16745822  0.16553097  0.50146027  1
  Ni  Ni28  1  0.00143070  1.00118458  0.66757381  1
  Ni  Ni29  1  0.16815994  0.16756629  0.83421700  1
  Cr  Cr30  1  0.16610091  0.50116960  0.50198370  1
  Ni  Ni31  1  1.00006190  0.33361236  0.66810644  1
  Ni  Ni32  1  0.16815576  0.50202471  0.83462805  1
  Ni  Ni33  1  0.16826567  0.83630013  0.50086154  1
  Ni  Ni34  1  1.00038193  0.66903346  0.66837837  1
  Ni  Ni35  1  0.16735407  0.83423908  0.83485320  1
  Ni  Ni36  1  0.50190921  0.16564850  0.50111351  1
  Ni  Ni37  1  0.33466443  1.00118381  0.66674129  1
  Ni  Ni38  1  0.50145094  0.16848955  0.83435122  1
  Cr  Cr39  1  0.50273944  0.50119252  0.50141919  1
  Ni  Ni40  1  0.33523412  0.33281298  0.66932956  1
  Ni  Ni41  1  0.50151722  0.50116630  0.83478207  1
  Ni  Ni42  1  0.50098781  0.83630055  0.50180923  1
  Ni  Ni43  1  0.33491695  0.66983302  0.66955484  1
  Fe  Fe44  1  0.50112907  0.83429998  0.83400490  1
  Ni  Ni45  1  0.83446128  0.16816769  0.50111144  1
  Ni  Ni46  1  0.66773493  0.00150128  0.66776164  1
  Ni  Ni47  1  0.83421923  0.16768711  0.83498721  1
  Ni  Ni48  1  0.83446070  0.50107485  0.50144046  1
  Ni  Ni49  1  0.66853326  0.33386614  0.66831625  1
  Ni  Ni50  1  0.83415726  0.50197018  0.83428869  1
  Fe  Fe51  1  0.83501222  0.83518862  0.50196112  1
  Ni  Ni52  1  0.66853185  0.66846501  0.66785011  1
  Ni  Ni53  1  0.83507876  0.83417334  0.83434315  1
" 