8332,Ni80Fe12Cr7_3,-237.986441428139, 186.92438740204,Ni80Fe12Cr7,"# generated using pymatgen
 data_Cr5Fe6Ni43
_symmetry_space_group_name_H-M   'P 1'
_cell_length_a   7.44486383
_cell_length_b   7.44486383
_cell_length_c   10.52862740
_cell_angle_alpha   90.00000000
_cell_angle_beta   90.00000000
_cell_angle_gamma   90.00000000
_symmetry_Int_Tables_number   1
_chemical_formula_structural   Cr5Fe6Ni43
_chemical_formula_sum   'Cr5 Fe6 Ni43'
_cell_volume   583.55967557
_cell_formula_units_Z   1
loop_
 _symmetry_equiv_pos_site_id
 _symmetry_equiv_pos_as_xyz
  1  'x, y, z'
loop_
 _atom_site_type_symbol
 _atom_site_label
 _atom_site_symmetry_multiplicity
 _atom_site_fract_x
 _atom_site_fract_y
 _atom_site_fract_z
 _atom_site_occupancy
  Ni  Ni0  1  1.00114505  1.00075681  0.00164857  1
  Ni  Ni1  1  0.16676461  0.16811625  0.16841326  1
  Ni  Ni2  1  0.99926097  1.00094874  0.33501041  1
  Ni  Ni3  1  0.99946823  0.33548346  1.00071220  1
  Ni  Ni4  1  0.16676622  0.50149431  0.16845704  1
  Ni  Ni5  1  1.00128551  0.33526883  0.33519333  1
  Ni  Ni6  1  0.00248106  0.66822904  0.00190784  1
  Ni  Ni7  1  0.16748513  0.83485893  0.16702466  1
  Ni  Ni8  1  0.99978094  0.66825230  0.33501025  1
  Ni  Ni9  1  0.33526431  0.99934585  1.00094938  1
  Ni  Ni10  1  0.50307691  0.16765110  0.16887501  1
  Cr  Cr11  1  0.33374662  0.00377154  0.33374931  1
  Cr  Cr12  1  0.33548954  0.33525870  0.00189664  1
  Ni  Ni13  1  0.50301835  0.50190286  0.16893406  1
  Ni  Ni14  1  0.33537393  0.33526904  0.33486079  1
  Ni  Ni15  1  0.33393012  0.66963814  1.00120841  1
  Ni  Ni16  1  0.50276136  0.83491589  0.16618845  1
  Cr  Cr17  1  0.33296427  0.66554164  0.33375122  1
  Ni  Ni18  1  0.66806132  0.00235804  0.00164682  1
  Ni  Ni19  1  0.83462830  0.16837374  0.16847045  1
  Ni  Ni20  1  0.67111338  0.00274829  0.33409794  1
  Ni  Ni21  1  0.66946907  0.33414999  1.00144882  1
  Ni  Ni22  1  0.83468628  0.50117943  0.16852930  1
  Ni  Ni23  1  0.66781244  0.33474795  0.33486014  1
  Fe  Fe24  1  0.66814036  0.66819018  0.00228423  1
  Ni  Ni25  1  0.83422228  0.83491692  0.16901016  1
  Ni  Ni26  1  0.67111106  0.66697247  0.33409852  1
  Ni  Ni27  1  0.16631156  0.16840940  0.50137767  1
  Ni  Ni28  1  1.00114335  0.99987071  0.66781346  1
  Ni  Ni29  1  0.16640420  0.16614637  0.83467788  1
  Ni  Ni30  1  0.16631155  0.50119897  0.50133626  1
  Fe  Fe31  1  1.00016611  0.33435181  0.66818075  1
  Ni  Ni32  1  0.16640593  0.50342777  0.83467569  1
  Ni  Ni33  1  0.16595759  0.83485885  0.50328112  1
  Ni  Ni34  1  0.00247283  0.66910541  0.66755469  1
  Ni  Ni35  1  0.17002766  0.83489177  0.83415981  1
  Fe  Fe36  1  0.50328714  0.16950182  0.50152901  1
  Ni  Ni37  1  0.33409489  1.00029332  0.66942398  1
  Ni  Ni38  1  0.50350025  0.16575251  0.83420160  1
  Fe  Fe39  1  0.50297619  0.49988712  0.50121789  1
  Cr  Cr40  1  0.33580490  0.33525909  0.66811615  1
  Ni  Ni41  1  0.50338536  0.50371276  0.83420027  1
  Cr  Cr42  1  0.50258352  0.83499972  0.50298650  1
  Ni  Ni43  1  0.33276100  0.66869011  0.66916400  1
  Ni  Ni44  1  0.50016776  0.83500949  0.83501457  1
  Ni  Ni45  1  0.83508327  0.16866861  0.50132217  1
  Ni  Ni46  1  0.66923297  0.00330125  0.66872745  1
  Ni  Ni47  1  0.83456304  0.16937049  0.83467553  1
  Ni  Ni48  1  0.83513864  0.50088522  0.50126926  1
  Ni  Ni49  1  0.66881635  0.33415743  0.66816098  1
  Ni  Ni50  1  0.83467957  0.50009090  0.83467026  1
  Ni  Ni51  1  0.83575400  0.83491495  0.50130100  1
  Fe  Fe52  1  0.66878377  0.66801526  0.66847364  1
  Fe  Fe53  1  0.83533205  0.83534150  0.83470425  1
" 