6877,Ni80Fe12Cr7_14,-238.163351432184, 187.815907372984,Ni80Fe12Cr7,"# generated using pymatgen
 data_Cr5Fe6Ni43
_symmetry_space_group_name_H-M   'P 1'
_cell_length_a   7.44768127
_cell_length_b   7.44768127
_cell_length_c   10.53261186
_cell_angle_alpha   90.00000000
_cell_angle_beta   90.00000000
_cell_angle_gamma   90.00000000
_symmetry_Int_Tables_number   1
_chemical_formula_structural   Cr5Fe6Ni43
_chemical_formula_sum   'Cr5 Fe6 Ni43'
_cell_volume   584.22245460
_cell_formula_units_Z   1
loop_
 _symmetry_equiv_pos_site_id
 _symmetry_equiv_pos_as_xyz
  1  'x, y, z'
loop_
 _atom_site_type_symbol
 _atom_site_label
 _atom_site_symmetry_multiplicity
 _atom_site_fract_x
 _atom_site_fract_y
 _atom_site_fract_z
 _atom_site_occupancy
  Ni  Ni0  1  0.00132736  1.00084094  1.00089514  1
  Ni  Ni1  1  0.16889426  0.16741368  0.16803883  1
  Ni  Ni2  1  0.00261353  0.00243643  0.33365109  1
  Cr  Cr3  1  1.00062004  0.33337198  0.00231080  1
  Ni  Ni4  1  0.17325133  0.50146139  0.16992372  1
  Ni  Ni5  1  1.00116774  0.33442771  0.33463373  1
  Cr  Cr6  1  1.00065996  0.66741673  0.00156460  1
  Ni  Ni7  1  0.16688688  0.83500954  0.16818488  1
  Ni  Ni8  1  0.00226626  0.66662029  0.33390274  1
  Ni  Ni9  1  0.33556489  0.00225852  0.00194603  1
  Ni  Ni10  1  0.50164680  0.17038916  0.16792919  1
  Ni  Ni11  1  0.33462745  0.00156404  0.33480406  1
  Ni  Ni12  1  0.33609794  0.33429621  0.00145124  1
  Ni  Ni13  1  0.50041639  0.50137370  0.16733147  1
  Ni  Ni14  1  0.33503272  0.33408863  0.33484942  1
  Ni  Ni15  1  0.33608194  0.66873867  1.00100920  1
  Fe  Fe16  1  0.50000967  0.83576817  0.16880197  1
  Ni  Ni17  1  0.33459393  0.66860799  0.33534303  1
  Ni  Ni18  1  0.66669838  0.00141059  0.00145307  1
  Ni  Ni19  1  0.83327226  0.16410381  0.16831693  1
  Ni  Ni20  1  0.66606294  0.00268757  0.33441223  1
  Ni  Ni21  1  0.66628471  0.33422269  0.00137430  1
  Fe  Fe22  1  0.83366353  0.49994227  0.17034049  1
  Ni  Ni23  1  0.66790286  0.33429206  0.33477725  1
  Ni  Ni24  1  0.66630112  0.66813445  0.00141152  1
  Ni  Ni25  1  0.83343795  0.83628923  0.16906766  1
  Ni  Ni26  1  0.66680166  0.66686069  0.33337266  1
  Ni  Ni27  1  0.16586081  0.16931919  0.50035157  1
  Ni  Ni28  1  0.00148184  0.00365969  0.66929752  1
  Ni  Ni29  1  0.16823083  0.16946357  0.83548688  1
  Ni  Ni30  1  0.17043591  0.49989134  0.50052720  1
  Ni  Ni31  1  0.00133762  0.33314133  0.66789684  1
  Ni  Ni32  1  0.17370825  0.49997053  0.83371113  1
  Ni  Ni33  1  0.16926592  0.83478985  0.50015774  1
  Cr  Cr34  1  0.00268563  0.66650609  0.66849364  1
  Fe  Fe35  1  0.16936519  0.83650689  0.83553307  1
  Fe  Fe36  1  0.50176924  0.16916717  0.50015679  1
  Cr  Cr37  1  0.33561435  0.00210148  0.66620850  1
  Ni  Ni38  1  0.50212121  0.17093885  0.83521668  1
  Ni  Ni39  1  0.50054408  0.50173081  0.50187804  1
  Ni  Ni40  1  0.33477699  0.33527813  0.66756638  1
  Ni  Ni41  1  0.49993881  0.50168962  0.83470240  1
  Ni  Ni42  1  0.50172387  0.83170054  0.50036151  1
  Ni  Ni43  1  0.33638733  0.66706535  0.66761362  1
  Fe  Fe44  1  0.50183672  0.83555694  0.83469621  1
  Ni  Ni45  1  0.83514933  0.16852492  0.50191438  1
  Ni  Ni46  1  0.66764914  0.00240459  0.66795941  1
  Ni  Ni47  1  0.83349226  0.16394690  0.83390352  1
  Ni  Ni48  1  0.83272258  0.49937839  0.50073562  1
  Ni  Ni49  1  0.66761512  0.33404519  0.66771027  1
  Fe  Fe50  1  0.83221182  0.49826034  0.83339516  1
  Cr  Cr51  1  0.83390753  0.83710706  0.50006428  1
  Ni  Ni52  1  0.66591257  0.66713538  0.66914910  1
  Ni  Ni53  1  0.83227911  0.83690132  0.83442385  1
" 