8864,Ni80Fe12Cr7_15,-238.048391942626, 188.484726784022,Ni80Fe12Cr7,"# generated using pymatgen
 data_Cr5Fe6Ni43
_symmetry_space_group_name_H-M   'P 1'
_cell_length_a   7.44322214
_cell_length_b   7.44322214
_cell_length_c   10.52630570
_cell_angle_alpha   90.00000000
_cell_angle_beta   90.00000000
_cell_angle_gamma   90.00000000
_symmetry_Int_Tables_number   1
_chemical_formula_structural   Cr5Fe6Ni43
_chemical_formula_sum   'Cr5 Fe6 Ni43'
_cell_volume   583.17371387
_cell_formula_units_Z   1
loop_
 _symmetry_equiv_pos_site_id
 _symmetry_equiv_pos_as_xyz
  1  'x, y, z'
loop_
 _atom_site_type_symbol
 _atom_site_label
 _atom_site_symmetry_multiplicity
 _atom_site_fract_x
 _atom_site_fract_y
 _atom_site_fract_z
 _atom_site_occupancy
  Ni  Ni0  1  0.99934204  1.00028842  0.00284200  1
  Ni  Ni1  1  0.16727103  0.16984890  0.16707032  1
  Ni  Ni2  1  1.00039839  1.00135969  0.33488056  1
  Ni  Ni3  1  1.00092044  0.33628491  0.00239722  1
  Ni  Ni4  1  0.16699223  0.49947816  0.16871826  1
  Ni  Ni5  1  0.00230194  0.33497623  0.33486057  1
  Ni  Ni6  1  1.00055087  0.66845766  0.00211780  1
  Fe  Fe7  1  0.16820812  0.83636212  0.16935641  1
  Ni  Ni8  1  1.00113319  0.66842824  0.33447495  1
  Ni  Ni9  1  0.33694565  1.00160039  0.00304734  1
  Ni  Ni10  1  0.50068044  0.16694448  0.16878888  1
  Ni  Ni11  1  0.33455101  0.00298391  0.33322140  1
  Ni  Ni12  1  0.33519057  0.33540952  0.00221641  1
  Ni  Ni13  1  0.50033698  0.50243188  0.17086269  1
  Ni  Ni14  1  0.33454161  0.33522797  0.33424000  1
  Cr  Cr15  1  0.33447695  0.66779301  1.00137322  1
  Ni  Ni16  1  0.50479606  0.83565963  0.16934293  1
  Ni  Ni17  1  0.33392597  0.66663912  0.33498075  1
  Ni  Ni18  1  0.66900973  1.00103927  1.00114184  1
  Ni  Ni19  1  0.83692654  0.16580529  0.16985706  1
  Ni  Ni20  1  0.66982107  0.00199297  0.33415900  1
  Cr  Cr21  1  0.66766593  0.33355534  0.00251061  1
  Fe  Fe22  1  0.83576632  0.50113793  0.16926748  1
  Fe  Fe23  1  0.66805228  0.33434689  0.33512670  1
  Fe  Fe24  1  0.66926817  0.66971906  0.00179539  1
  Ni  Ni25  1  0.83423282  0.83502959  0.16728771  1
  Ni  Ni26  1  0.66978447  0.66837706  0.33260956  1
  Ni  Ni27  1  0.16737686  0.16769458  0.50064676  1
  Ni  Ni28  1  1.00025763  1.00020038  0.66683702  1
  Cr  Cr29  1  0.16605094  0.16774531  0.83760683  1
  Ni  Ni30  1  0.16622611  0.50176995  0.50150546  1
  Ni  Ni31  1  0.99803663  0.33630844  0.66773185  1
  Ni  Ni32  1  0.16504678  0.50359116  0.83463881  1
  Ni  Ni33  1  0.16587226  0.83534170  0.50034024  1
  Ni  Ni34  1  1.00156941  0.66833704  0.66801335  1
  Ni  Ni35  1  0.16771688  0.83462021  0.83420949  1
  Ni  Ni36  1  0.50164600  0.16833770  0.50041792  1
  Ni  Ni37  1  0.33499777  0.99973864  0.66837479  1
  Ni  Ni38  1  0.50374795  0.16581710  0.83548999  1
  Ni  Ni39  1  0.50353224  0.50127763  0.50062289  1
  Cr  Cr40  1  0.33594123  0.33640545  0.66895101  1
  Ni  Ni41  1  0.50372652  0.50332608  0.83358319  1
  Cr  Cr42  1  0.50291744  0.83422467  0.50138923  1
  Ni  Ni43  1  0.33356850  0.66912267  0.66824746  1
  Ni  Ni44  1  0.50269551  0.83598368  0.83410740  1
  Fe  Fe45  1  0.83549925  0.16811448  0.50155088  1
  Ni  Ni46  1  0.66953516  0.00296861  0.66950090  1
  Ni  Ni47  1  0.83473498  0.16844440  0.83330562  1
  Ni  Ni48  1  0.83506641  0.50313406  0.50039716  1
  Ni  Ni49  1  0.67013286  0.33488643  0.66694720  1
  Ni  Ni50  1  0.83623213  0.50211725  0.83541251  1
  Ni  Ni51  1  0.83573200  0.83357390  0.50252354  1
  Ni  Ni52  1  0.66982485  0.66705727  0.67066176  1
  Fe  Fe53  1  0.83565087  0.83510951  0.83486563  1
" 