2696,Ni80Fe12Cr7_4,-238.098224228354, 187.865446827756,Ni80Fe12Cr7,"# generated using pymatgen
 data_Cr5Fe6Ni43
_symmetry_space_group_name_H-M   'P 1'
_cell_length_a   7.44489188
_cell_length_b   7.44489188
_cell_length_c   10.52866706
_cell_angle_alpha   90.00000000
_cell_angle_beta   90.00000000
_cell_angle_gamma   90.00000000
_symmetry_Int_Tables_number   1
_chemical_formula_structural   Cr5Fe6Ni43
_chemical_formula_sum   'Cr5 Fe6 Ni43'
_cell_volume   583.56627037
_cell_formula_units_Z   1
loop_
 _symmetry_equiv_pos_site_id
 _symmetry_equiv_pos_as_xyz
  1  'x, y, z'
loop_
 _atom_site_type_symbol
 _atom_site_label
 _atom_site_symmetry_multiplicity
 _atom_site_fract_x
 _atom_site_fract_y
 _atom_site_fract_z
 _atom_site_occupancy
  Fe  Fe0  1  0.00161997  1.00109323  1.00112711  1
  Ni  Ni1  1  0.16970078  0.16867059  0.16743058  1
  Fe  Fe2  1  0.00224637  0.99943023  0.33491641  1
  Ni  Ni3  1  0.00269566  0.33694312  1.00039267  1
  Ni  Ni4  1  0.16741805  0.50127852  0.16855149  1
  Ni  Ni5  1  0.00220962  0.33732533  0.33476423  1
  Ni  Ni6  1  1.00084221  0.66594421  0.00264580  1
  Ni  Ni7  1  0.16887603  0.83434389  0.16943924  1
  Ni  Ni8  1  1.00101671  0.66659176  0.33505205  1
  Ni  Ni9  1  0.33705025  0.00262016  0.00242711  1
  Ni  Ni10  1  0.49992353  0.16757367  0.16916431  1
  Ni  Ni11  1  0.33654441  0.00208179  0.33330962  1
  Ni  Ni12  1  0.33383325  0.33422278  0.00168695  1
  Fe  Fe13  1  0.50135421  0.50199191  0.16765767  1
  Ni  Ni14  1  0.33393258  0.33495795  0.33347835  1
  Ni  Ni15  1  0.33458175  0.66756232  0.00284630  1
  Ni  Ni16  1  0.50136164  0.83485285  0.16784914  1
  Ni  Ni17  1  0.33369984  0.66732332  0.33388128  1
  Ni  Ni18  1  0.66644012  1.00081674  1.00052346  1
  Cr  Cr19  1  0.83481871  0.16946917  0.16885094  1
  Ni  Ni20  1  0.66753912  1.00103611  0.33513345  1
  Ni  Ni21  1  0.66780936  0.33467868  1.00128193  1
  Ni  Ni22  1  0.83547184  0.50294155  0.16824234  1
  Fe  Fe23  1  0.66692191  0.33675792  0.33577625  1
  Ni  Ni24  1  0.66906324  0.66907698  1.00146347  1
  Ni  Ni25  1  0.83442679  0.83284893  0.16822136  1
  Ni  Ni26  1  0.66951176  0.66922308  0.33352535  1
  Cr  Cr27  1  0.16863039  0.16800276  0.50197914  1
  Ni  Ni28  1  1.00060516  0.00164239  0.66788344  1
  Ni  Ni29  1  0.16830006  0.16974573  0.83532548  1
  Fe  Fe30  1  0.16830679  0.50193402  0.50130522  1
  Ni  Ni31  1  1.00075731  0.33586379  0.66929408  1
  Ni  Ni32  1  0.16822427  0.50018132  0.83400699  1
  Fe  Fe33  1  0.16726840  0.83321444  0.50133926  1
  Ni  Ni34  1  1.00030197  0.66672363  0.66675372  1
  Cr  Cr35  1  0.16898648  0.83421276  0.83389843  1
  Ni  Ni36  1  0.50115357  0.17070068  0.50055592  1
  Ni  Ni37  1  0.33457262  0.00300445  0.66900788  1
  Ni  Ni38  1  0.50026312  0.16959428  0.83480234  1
  Ni  Ni39  1  0.50166756  0.50094568  0.50093069  1
  Ni  Ni40  1  0.33528919  0.33544507  0.66916499  1
  Ni  Ni41  1  0.50168143  0.50177803  0.83511362  1
  Cr  Cr42  1  0.50019820  0.83303548  0.50222552  1
  Ni  Ni43  1  0.33443961  0.66584880  0.66776456  1
  Ni  Ni44  1  0.50152393  0.83311716  0.83549993  1
  Ni  Ni45  1  0.83514782  0.16962115  0.50037897  1
  Cr  Cr46  1  0.66859534  0.00258932  0.66961739  1
  Ni  Ni47  1  0.83591343  0.16985381  0.83492177  1
  Ni  Ni48  1  0.83431851  0.50180176  0.50159431  1
  Ni  Ni49  1  0.66838236  0.33589056  0.66703216  1
  Ni  Ni50  1  0.83452365  0.50143215  0.83458027  1
  Ni  Ni51  1  0.83648023  0.83318535  0.50056785  1
  Ni  Ni52  1  0.66954789  0.66622644  0.66953448  1
  Ni  Ni53  1  0.83436203  0.83310323  0.83563376  1
" 