1815,Ni80Fe12Cr7_1,-237.901022074338, 187.071497006661,Ni80Fe12Cr7,"# generated using pymatgen
 data_Cr5Fe6Ni43
_symmetry_space_group_name_H-M   'P 1'
_cell_length_a   7.44462904
_cell_length_b   7.44462904
_cell_length_c   10.52829536
_cell_angle_alpha   90.00000000
_cell_angle_beta   90.00000000
_cell_angle_gamma   90.00000000
_symmetry_Int_Tables_number   1
_chemical_formula_structural   Cr5Fe6Ni43
_chemical_formula_sum   'Cr5 Fe6 Ni43'
_cell_volume   583.50446631
_cell_formula_units_Z   1
loop_
 _symmetry_equiv_pos_site_id
 _symmetry_equiv_pos_as_xyz
  1  'x, y, z'
loop_
 _atom_site_type_symbol
 _atom_site_label
 _atom_site_symmetry_multiplicity
 _atom_site_fract_x
 _atom_site_fract_y
 _atom_site_fract_z
 _atom_site_occupancy
  Ni  Ni0  1  1.00125309  0.00218737  1.00118334  1
  Ni  Ni1  1  0.16920414  0.16723952  0.16697065  1
  Ni  Ni2  1  0.00181630  1.00096020  0.33437572  1
  Ni  Ni3  1  0.00219868  0.33386961  0.00189484  1
  Fe  Fe4  1  0.16921420  0.50186124  0.16711813  1
  Cr  Cr5  1  1.00071912  0.33437939  0.33542990  1
  Ni  Ni6  1  0.00261942  0.66846428  0.00230038  1
  Fe  Fe7  1  0.16786542  0.83518602  0.16851054  1
  Ni  Ni8  1  0.00291946  0.66928118  0.33443685  1
  Ni  Ni9  1  0.33518647  0.00176621  0.00184196  1
  Ni  Ni10  1  0.50044035  0.16857001  0.16786773  1
  Fe  Fe11  1  0.33538831  1.00142728  0.33514466  1
  Ni  Ni12  1  0.33404363  0.33416550  0.00156730  1
  Ni  Ni13  1  0.50173815  0.50193617  0.16810034  1
  Ni  Ni14  1  0.33699540  0.33545797  0.33573387  1
  Ni  Ni15  1  0.33409704  0.66860260  0.00212728  1
  Ni  Ni16  1  0.50217704  0.83401744  0.16757573  1
  Ni  Ni17  1  0.33521905  0.66791813  0.33529019  1
  Ni  Ni18  1  0.66808109  0.00215323  1.00062367  1
  Ni  Ni19  1  0.83487409  0.16682844  0.16670530  1
  Ni  Ni20  1  0.66756119  0.00277561  0.33447174  1
  Ni  Ni21  1  0.66826323  0.33275374  0.00398020  1
  Ni  Ni22  1  0.83348005  0.50361668  0.16697734  1
  Ni  Ni23  1  0.66619110  0.33433202  0.33490632  1
  Ni  Ni24  1  0.66780767  0.66962534  0.00309581  1
  Ni  Ni25  1  0.83483374  0.83407849  0.16801411  1
  Ni  Ni26  1  0.66641591  0.66742149  0.33456034  1
  Ni  Ni27  1  0.16925975  0.16753004  0.50299401  1
  Ni  Ni28  1  0.00261638  0.00307888  0.66892569  1
  Ni  Ni29  1  0.16855377  0.16820681  0.83454332  1
  Ni  Ni30  1  0.16933237  0.50224101  0.50286278  1
  Ni  Ni31  1  0.00354439  0.33396481  0.66718836  1
  Ni  Ni32  1  0.16851679  0.50112808  0.83507305  1
  Ni  Ni33  1  0.16956836  0.83475176  0.50135418  1
  Ni  Ni34  1  0.00408740  0.66748512  0.66777435  1
  Fe  Fe35  1  0.16759400  0.83542577  0.83428567  1
  Ni  Ni36  1  0.49995736  0.16770735  0.50037965  1
  Ni  Ni37  1  0.33492666  1.00063710  0.66742728  1
  Ni  Ni38  1  0.49961143  0.16538971  0.83626957  1
  Ni  Ni39  1  0.50038392  0.50255063  0.50044511  1
  Fe  Fe40  1  0.33205213  0.33386968  0.66730043  1
  Cr  Cr41  1  0.49891655  0.50209647  0.83604406  1
  Ni  Ni42  1  0.49994181  0.83426241  0.50234946  1
  Ni  Ni43  1  0.33374359  0.66960990  0.66711436  1
  Fe  Fe44  1  0.50170754  0.83701237  0.83474119  1
  Ni  Ni45  1  0.83527986  0.16794512  0.50180326  1
  Ni  Ni46  1  0.66694920  1.00121034  0.66943140  1
  Ni  Ni47  1  0.83633902  0.16412768  0.83599986  1
  Ni  Ni48  1  0.83479828  0.50226585  0.50180629  1
  Cr  Cr49  1  0.66933307  0.33278738  0.66552753  1
  Cr  Cr50  1  0.83709822  0.50361382  0.83572754  1
  Cr  Cr51  1  0.83498570  0.83446228  0.50137045  1
  Ni  Ni52  1  0.66665186  0.67052653  0.66686879  1
  Ni  Ni53  1  0.83495437  0.83654503  0.83489523  1
" 