2462,Ni80Fe12Cr7_12,-237.994438438131, 187.180096580184,Ni80Fe12Cr7,"# generated using pymatgen
 data_Cr5Fe6Ni43
_symmetry_space_group_name_H-M   'P 1'
_cell_length_a   7.44628346
_cell_length_b   7.44628346
_cell_length_c   10.53063506
_cell_angle_alpha   90.00000000
_cell_angle_beta   90.00000000
_cell_angle_gamma   90.00000000
_symmetry_Int_Tables_number   1
_chemical_formula_structural   Cr5Fe6Ni43
_chemical_formula_sum   'Cr5 Fe6 Ni43'
_cell_volume   583.89356961
_cell_formula_units_Z   1
loop_
 _symmetry_equiv_pos_site_id
 _symmetry_equiv_pos_as_xyz
  1  'x, y, z'
loop_
 _atom_site_type_symbol
 _atom_site_label
 _atom_site_symmetry_multiplicity
 _atom_site_fract_x
 _atom_site_fract_y
 _atom_site_fract_z
 _atom_site_occupancy
  Ni  Ni0  1  0.00357894  0.00240276  0.00268127  1
  Ni  Ni1  1  0.17039840  0.16872469  0.16819640  1
  Ni  Ni2  1  0.00415822  1.00035481  0.33365915  1
  Ni  Ni3  1  1.00110441  0.33338250  0.00233696  1
  Ni  Ni4  1  0.16666550  0.50090046  0.16742873  1
  Ni  Ni5  1  0.00323847  0.33533744  0.33411294  1
  Ni  Ni6  1  1.00118800  0.66803479  0.00306308  1
  Ni  Ni7  1  0.16815449  0.83445575  0.16662395  1
  Fe  Fe8  1  1.00118491  0.66794601  0.33334932  1
  Ni  Ni9  1  0.33407192  0.00174563  1.00105034  1
  Ni  Ni10  1  0.50148269  0.16786984  0.16875325  1
  Ni  Ni11  1  0.33251253  1.00055556  0.33416319  1
  Ni  Ni12  1  0.33502532  0.33357009  0.00249022  1
  Fe  Fe13  1  0.50010368  0.50218835  0.16773794  1
  Ni  Ni14  1  0.33274431  0.33557721  0.33401822  1
  Ni  Ni15  1  0.33588633  0.66948489  0.00240084  1
  Ni  Ni16  1  0.50162053  0.83690815  0.16773894  1
  Fe  Fe17  1  0.33445380  0.66880375  0.33336773  1
  Ni  Ni18  1  0.66704231  0.00160679  0.00221401  1
  Fe  Fe19  1  0.83538539  0.16696196  0.16838078  1
  Ni  Ni20  1  0.66798803  0.99772792  0.33354900  1
  Ni  Ni21  1  0.66807640  0.33561982  0.00143134  1
  Ni  Ni22  1  0.83539127  0.50169380  0.16726701  1
  Ni  Ni23  1  0.66820184  0.33883642  0.33301955  1
  Ni  Ni24  1  0.66701533  0.66709993  0.00223113  1
  Ni  Ni25  1  0.83425158  0.83323345  0.16803782  1
  Ni  Ni26  1  0.66787675  0.66793074  0.33452185  1
  Ni  Ni27  1  0.16840067  0.16844439  0.50099287  1
  Ni  Ni28  1  0.00431663  0.00188783  0.66776841  1
  Ni  Ni29  1  0.16862180  0.16768800  0.83493047  1
  Ni  Ni30  1  0.16789558  0.50193995  0.50076477  1
  Ni  Ni31  1  0.00233993  0.33406206  0.66773831  1
  Cr  Cr32  1  0.16722269  0.50235810  0.83650619  1
  Ni  Ni33  1  0.16807065  0.83372647  0.50114395  1
  Fe  Fe34  1  0.00241404  0.66839124  0.66741294  1
  Ni  Ni35  1  0.16996335  0.83615346  0.83612246  1
  Cr  Cr36  1  0.50003766  0.16765362  0.50114019  1
  Ni  Ni37  1  0.33232169  1.00021760  0.66881550  1
  Ni  Ni38  1  0.50143850  0.16805671  0.83409101  1
  Ni  Ni39  1  0.50002907  0.50185364  0.49921205  1
  Ni  Ni40  1  0.33376564  0.33498924  0.66769894  1
  Ni  Ni41  1  0.50119720  0.49985203  0.83729093  1
  Ni  Ni42  1  0.50014797  0.83416120  0.50018211  1
  Fe  Fe43  1  0.33455354  0.66838007  0.66817805  1
  Ni  Ni44  1  0.49950279  0.83625962  0.83625601  1
  Cr  Cr45  1  0.83425144  0.16764331  0.50013905  1
  Ni  Ni46  1  0.66763330  0.99986889  0.66850785  1
  Ni  Ni47  1  0.83420988  0.16923065  0.83544548  1
  Ni  Ni48  1  0.83634420  0.50236615  0.50087588  1
  Ni  Ni49  1  0.66801046  0.33711276  0.66952010  1
  Ni  Ni50  1  0.83461879  0.49883137  0.83592833  1
  Ni  Ni51  1  0.83593776  0.83333567  0.49975167  1
  Cr  Cr52  1  0.66647326  0.66689673  0.66801244  1
  Cr  Cr53  1  0.83677037  0.83497590  0.83703927  1
" 