7364,Ni80Fe12Cr7_10,-238.106071330027, 189.419012185338,Ni80Fe12Cr7,"# generated using pymatgen
 data_Cr5Fe6Ni43
_symmetry_space_group_name_H-M   'P 1'
_cell_length_a   7.44400772
_cell_length_b   7.44400772
_cell_length_c   10.52741668
_cell_angle_alpha   90.00000000
_cell_angle_beta   90.00000000
_cell_angle_gamma   90.00000000
_symmetry_Int_Tables_number   1
_chemical_formula_structural   Cr5Fe6Ni43
_chemical_formula_sum   'Cr5 Fe6 Ni43'
_cell_volume   583.35838278
_cell_formula_units_Z   1
loop_
 _symmetry_equiv_pos_site_id
 _symmetry_equiv_pos_as_xyz
  1  'x, y, z'
loop_
 _atom_site_type_symbol
 _atom_site_label
 _atom_site_symmetry_multiplicity
 _atom_site_fract_x
 _atom_site_fract_y
 _atom_site_fract_z
 _atom_site_occupancy
  Ni  Ni0  1  0.00322444  0.00155858  0.00308439  1
  Ni  Ni1  1  0.16722289  0.16752923  0.16938854  1
  Fe  Fe2  1  0.00232900  1.00020235  0.33454681  1
  Ni  Ni3  1  1.00105979  0.33256972  0.00258436  1
  Ni  Ni4  1  0.16920161  0.50243848  0.16985426  1
  Ni  Ni5  1  0.00159726  0.33403707  0.33573295  1
  Fe  Fe6  1  0.00157393  0.67147980  0.00212629  1
  Ni  Ni7  1  0.16853774  0.83460286  0.16748057  1
  Ni  Ni8  1  0.00185573  0.66887255  0.33528523  1
  Ni  Ni9  1  0.33390626  0.99916635  1.00076465  1
  Ni  Ni10  1  0.50281283  0.16698647  0.16836807  1
  Ni  Ni11  1  0.33441494  1.00077423  0.33391005  1
  Cr  Cr12  1  0.33547679  0.33279715  0.00313997  1
  Ni  Ni13  1  0.50041883  0.50253829  0.16993226  1
  Ni  Ni14  1  0.33486445  0.33375311  0.33542091  1
  Ni  Ni15  1  0.33694689  0.67150299  0.00378124  1
  Ni  Ni16  1  0.50168963  0.83502212  0.16831862  1
  Ni  Ni17  1  0.33481443  0.66984403  0.33433012  1
  Ni  Ni18  1  0.66743811  0.99976989  0.00307211  1
  Ni  Ni19  1  0.83448811  0.16651938  0.16850913  1
  Fe  Fe20  1  0.66712870  1.00099311  0.33515508  1
  Ni  Ni21  1  0.66845984  0.33554605  0.00181170  1
  Cr  Cr22  1  0.83471739  0.50171515  0.16675389  1
  Ni  Ni23  1  0.66822003  0.33462695  0.33488080  1
  Ni  Ni24  1  0.66648493  0.66965103  0.99982052  1
  Ni  Ni25  1  0.83439370  0.83702470  0.16861267  1
  Ni  Ni26  1  0.66796660  0.66869153  0.33701811  1
  Fe  Fe27  1  0.16913754  0.16720946  0.50122420  1
  Ni  Ni28  1  0.00322771  1.00081014  0.66627812  1
  Ni  Ni29  1  0.16811158  0.16642516  0.83269312  1
  Ni  Ni30  1  0.16828342  0.50251450  0.50089418  1
  Ni  Ni31  1  0.00257085  0.33424590  0.66578212  1
  Cr  Cr32  1  0.16811869  0.50340179  0.83451887  1
  Ni  Ni33  1  0.16836010  0.83324367  0.50194619  1
  Ni  Ni34  1  1.00089370  0.66944041  0.66797264  1
  Ni  Ni35  1  0.16789391  0.83596981  0.83526024  1
  Ni  Ni36  1  0.50172536  0.16696225  0.50127077  1
  Ni  Ni37  1  0.33434761  1.00039227  0.66954586  1
  Ni  Ni38  1  0.50080220  0.16613436  0.83525339  1
  Ni  Ni39  1  0.49976900  0.50224133  0.50012855  1
  Fe  Fe40  1  0.33468221  0.33460611  0.66679513  1
  Ni  Ni41  1  0.50140549  0.50395398  0.83493389  1
  Ni  Ni42  1  0.50082316  0.83545142  0.50190034  1
  Ni  Ni43  1  0.33571823  0.67106538  0.66663743  1
  Ni  Ni44  1  0.50176257  0.83488174  0.83435519  1
  Ni  Ni45  1  0.83492522  0.16705281  0.49973695  1
  Ni  Ni46  1  0.66713589  0.99936429  0.66675469  1
  Cr  Cr47  1  0.83526607  0.16518020  0.83663681  1
  Ni  Ni48  1  0.83655573  0.50213266  0.50206764  1
  Cr  Cr49  1  0.66840154  0.33667979  0.66816427  1
  Fe  Fe50  1  0.83429357  0.50375135  0.83529001  1
  Ni  Ni51  1  0.83538781  0.83543489  0.50191347  1
  Ni  Ni52  1  0.66778096  0.66999784  0.66770647  1
  Ni  Ni53  1  0.83494252  0.83481075  0.83422366  1
" 