2456,Ni80Fe12Cr7_19,-237.930631695779, 188.546051937772,Ni80Fe12Cr7,"# generated using pymatgen
 data_Cr5Fe6Ni43
_symmetry_space_group_name_H-M   'P 1'
_cell_length_a   7.44383151
_cell_length_b   7.44383151
_cell_length_c   10.52716748
_cell_angle_alpha   90.00000000
_cell_angle_beta   90.00000000
_cell_angle_gamma   90.00000000
_symmetry_Int_Tables_number   1
_chemical_formula_structural   Cr5Fe6Ni43
_chemical_formula_sum   'Cr5 Fe6 Ni43'
_cell_volume   583.31695740
_cell_formula_units_Z   1
loop_
 _symmetry_equiv_pos_site_id
 _symmetry_equiv_pos_as_xyz
  1  'x, y, z'
loop_
 _atom_site_type_symbol
 _atom_site_label
 _atom_site_symmetry_multiplicity
 _atom_site_fract_x
 _atom_site_fract_y
 _atom_site_fract_z
 _atom_site_occupancy
  Ni  Ni0  1  0.00300500  0.00326598  1.00088584  1
  Ni  Ni1  1  0.16918930  0.16969069  0.16739326  1
  Cr  Cr2  1  0.00378245  0.00263492  0.33422893  1
  Ni  Ni3  1  1.00066184  0.33306584  0.00237123  1
  Ni  Ni4  1  0.16931738  0.49997575  0.16895469  1
  Ni  Ni5  1  1.00080896  0.33611986  0.33337422  1
  Cr  Cr6  1  1.00027683  0.66719988  1.00135023  1
  Ni  Ni7  1  0.16948146  0.83462942  0.16927954  1
  Ni  Ni8  1  1.00013744  0.66670503  0.33316314  1
  Ni  Ni9  1  0.33455857  0.00170452  0.00167666  1
  Ni  Ni10  1  0.50174057  0.16882148  0.16824172  1
  Ni  Ni11  1  0.33673545  0.00234052  0.33576437  1
  Ni  Ni12  1  0.33579562  0.33427648  1.00062214  1
  Ni  Ni13  1  0.50149510  0.50083145  0.16843040  1
  Ni  Ni14  1  0.33623170  0.33257736  0.33446361  1
  Ni  Ni15  1  0.33714974  0.66873897  0.00170862  1
  Ni  Ni16  1  0.50227819  0.83497012  0.16893483  1
  Fe  Fe17  1  0.33616994  0.66823750  0.33423815  1
  Fe  Fe18  1  0.66796547  0.00220262  0.00156648  1
  Ni  Ni19  1  0.83366536  0.16901366  0.16811135  1
  Ni  Ni20  1  0.66494004  0.00225418  0.33371145  1
  Ni  Ni21  1  0.66832466  0.33628944  1.00124453  1
  Ni  Ni22  1  0.83384616  0.50065936  0.17031124  1
  Ni  Ni23  1  0.66743784  0.33580726  0.33593784  1
  Ni  Ni24  1  0.66637477  0.66669809  1.00126019  1
  Ni  Ni25  1  0.83307679  0.83520533  0.16757526  1
  Ni  Ni26  1  0.66756437  0.66675549  0.33411076  1
  Ni  Ni27  1  0.16840655  0.16964228  0.50149750  1
  Ni  Ni28  1  1.00147242  0.00333140  0.66901287  1
  Ni  Ni29  1  0.16722434  0.16984690  0.83558711  1
  Cr  Cr30  1  0.16831576  0.50175053  0.50104460  1
  Ni  Ni31  1  1.00022191  0.33418025  0.66889126  1
  Ni  Ni32  1  0.16924920  0.50027793  0.83418330  1
  Ni  Ni33  1  0.16871370  0.83469032  0.50172104  1
  Ni  Ni34  1  1.00128762  0.66734867  0.67029984  1
  Ni  Ni35  1  0.16790046  0.83461963  0.83364443  1
  Ni  Ni36  1  0.50267579  0.16932645  0.50065639  1
  Cr  Cr37  1  0.33541278  0.00175997  0.66744280  1
  Ni  Ni38  1  0.50254509  0.16926959  0.83594865  1
  Ni  Ni39  1  0.50272047  0.50086821  0.50191438  1
  Fe  Fe40  1  0.33543677  0.33553538  0.66889568  1
  Ni  Ni41  1  0.50109124  0.50154997  0.83450942  1
  Ni  Ni42  1  0.50246918  0.83428173  0.50019691  1
  Ni  Ni43  1  0.33674700  0.66822725  0.66861972  1
  Ni  Ni44  1  0.50307749  0.83410325  0.83555653  1
  Fe  Fe45  1  0.83386448  0.16946830  0.50198594  1
  Ni  Ni46  1  0.66774832  0.00204629  0.66928018  1
  Ni  Ni47  1  0.83503459  0.16786325  0.83446219  1
  Fe  Fe48  1  0.83362783  0.50061878  0.50162484  1
  Fe  Fe49  1  0.66802793  0.33472809  0.66881726  1
  Ni  Ni50  1  0.83416296  0.50073001  0.83311116  1
  Cr  Cr51  1  0.83420171  0.83435851  0.50297622  1
  Ni  Ni52  1  0.66678546  0.66707713  0.66937007  1
  Ni  Ni53  1  0.83377656  0.83603733  0.83404759  1
" 