3202,Ni80Fe12Cr7_0,-237.852587535841, 186.596860799567,Ni80Fe12Cr7,"# generated using pymatgen
 data_Cr5Fe6Ni43
_symmetry_space_group_name_H-M   'P 1'
_cell_length_a   7.44525786
_cell_length_b   7.44525786
_cell_length_c   10.52918464
_cell_angle_alpha   90.00000000
_cell_angle_beta   90.00000000
_cell_angle_gamma   90.00000000
_symmetry_Int_Tables_number   1
_chemical_formula_structural   Cr5Fe6Ni43
_chemical_formula_sum   'Cr5 Fe6 Ni43'
_cell_volume   583.65233724
_cell_formula_units_Z   1
loop_
 _symmetry_equiv_pos_site_id
 _symmetry_equiv_pos_as_xyz
  1  'x, y, z'
loop_
 _atom_site_type_symbol
 _atom_site_label
 _atom_site_symmetry_multiplicity
 _atom_site_fract_x
 _atom_site_fract_y
 _atom_site_fract_z
 _atom_site_occupancy
  Ni  Ni0  1  1.00129431  1.00086200  1.00141859  1
  Ni  Ni1  1  0.16758085  0.16795805  0.16734194  1
  Ni  Ni2  1  1.00065579  0.00151067  0.33539942  1
  Fe  Fe3  1  0.00158959  0.33481697  0.00150094  1
  Ni  Ni4  1  0.16578375  0.50174898  0.16793413  1
  Ni  Ni5  1  1.00013930  0.33410063  0.33426940  1
  Ni  Ni6  1  1.00139780  0.66869104  0.00217230  1
  Fe  Fe7  1  0.16755647  0.83474039  0.16803831  1
  Ni  Ni8  1  0.00339461  0.66877926  0.33483436  1
  Ni  Ni9  1  0.33458644  0.00212371  0.00253731  1
  Ni  Ni10  1  0.50196918  0.16500768  0.16740426  1
  Fe  Fe11  1  0.33283906  1.00021104  0.33317769  1
  Ni  Ni12  1  0.33446703  0.33402107  1.00061558  1
  Cr  Cr13  1  0.50166168  0.50221900  0.16647582  1
  Cr  Cr14  1  0.33392149  0.33539082  0.33531464  1
  Ni  Ni15  1  0.33366304  0.66824205  1.00111980  1
  Ni  Ni16  1  0.50082773  0.83739207  0.16785748  1
  Ni  Ni17  1  0.33144077  0.66904466  0.33480541  1
  Ni  Ni18  1  0.66849580  0.00165505  0.00207445  1
  Ni  Ni19  1  0.83482866  0.16815288  0.16901948  1
  Ni  Ni20  1  0.67068743  0.00340072  0.33263516  1
  Ni  Ni21  1  0.66804271  0.33391072  0.00157783  1
  Ni  Ni22  1  0.83755946  0.50065824  0.16748479  1
  Ni  Ni23  1  0.67089393  0.33248346  0.33502363  1
  Ni  Ni24  1  0.66931278  0.66881576  1.00083312  1
  Ni  Ni25  1  0.83455441  0.83556709  0.16732960  1
  Cr  Cr26  1  0.66959783  0.66817834  0.33482255  1
  Ni  Ni27  1  0.16543767  0.16715522  0.50261385  1
  Ni  Ni28  1  1.00139860  1.00137753  0.66756383  1
  Ni  Ni29  1  0.16835539  0.16846753  0.83444125  1
  Fe  Fe30  1  0.16668218  0.50250996  0.50223751  1
  Ni  Ni31  1  0.00178538  0.33427125  0.66782236  1
  Ni  Ni32  1  0.16831653  0.50108327  0.83435124  1
  Ni  Ni33  1  0.16685965  0.83495315  0.50100396  1
  Ni  Ni34  1  1.00140612  0.66874822  0.66738113  1
  Ni  Ni35  1  0.16941484  0.83484083  0.83501202  1
  Cr  Cr36  1  0.50230575  0.16884645  0.50199797  1
  Ni  Ni37  1  0.33275691  0.00179874  0.66922358  1
  Fe  Fe38  1  0.50149076  0.16760304  0.83516834  1
  Ni  Ni39  1  0.50192181  0.50175052  0.50357135  1
  Ni  Ni40  1  0.33416217  0.33563879  0.66872297  1
  Fe  Fe41  1  0.50143198  0.50196092  0.83436922  1
  Cr  Cr42  1  0.50051302  0.83363472  0.50188063  1
  Ni  Ni43  1  0.33412362  0.66695122  0.66844834  1
  Ni  Ni44  1  0.50124027  0.83457009  0.83469071  1
  Ni  Ni45  1  0.83696820  0.16905594  0.50091237  1
  Ni  Ni46  1  0.67023953  1.00142000  0.66966883  1
  Ni  Ni47  1  0.83505817  0.16851250  0.83443245  1
  Ni  Ni48  1  0.83509128  0.50032581  0.50174767  1
  Ni  Ni49  1  0.66844183  0.33563884  0.66779798  1
  Ni  Ni50  1  0.83478821  0.50132650  0.83513943  1
  Ni  Ni51  1  0.83749894  0.83500644  0.50283477  1
  Ni  Ni52  1  0.66885202  0.66733777  0.66874655  1
  Ni  Ni53  1  0.83373712  0.83455231  0.83422153  1
" 