8077,Ni80Fe12Cr7_9,-237.801195573849, 186.470314267734,Ni80Fe12Cr7,"# generated using pymatgen
 data_Cr5Fe6Ni43
_symmetry_space_group_name_H-M   'P 1'
_cell_length_a   7.44453449
_cell_length_b   7.44453449
_cell_length_c   10.52816165
_cell_angle_alpha   90.00000000
_cell_angle_beta   90.00000000
_cell_angle_gamma   90.00000000
_symmetry_Int_Tables_number   1
_chemical_formula_structural   Cr5Fe6Ni43
_chemical_formula_sum   'Cr5 Fe6 Ni43'
_cell_volume   583.48223453
_cell_formula_units_Z   1
loop_
 _symmetry_equiv_pos_site_id
 _symmetry_equiv_pos_as_xyz
  1  'x, y, z'
loop_
 _atom_site_type_symbol
 _atom_site_label
 _atom_site_symmetry_multiplicity
 _atom_site_fract_x
 _atom_site_fract_y
 _atom_site_fract_z
 _atom_site_occupancy
  Fe  Fe0  1  1.00063412  0.00304141  1.00069472  1
  Ni  Ni1  1  0.16807530  0.16950622  0.16911165  1
  Ni  Ni2  1  1.00061737  0.00459323  0.33427113  1
  Ni  Ni3  1  0.00189811  0.33491931  0.00181397  1
  Ni  Ni4  1  0.16839505  0.50004357  0.16730499  1
  Ni  Ni5  1  1.00150076  0.33455262  0.33503883  1
  Ni  Ni6  1  1.00053533  0.66654839  1.00108816  1
  Cr  Cr7  1  0.16792855  0.83432721  0.16737913  1
  Fe  Fe8  1  0.99976549  0.66580942  0.33462085  1
  Ni  Ni9  1  0.33608653  0.00220401  1.00093898  1
  Ni  Ni10  1  0.50062253  0.17020013  0.16609067  1
  Ni  Ni11  1  0.33441512  0.00224966  0.33408761  1
  Ni  Ni12  1  0.33346361  0.33462897  0.00158007  1
  Ni  Ni13  1  0.50164896  0.50095928  0.16853730  1
  Ni  Ni14  1  0.33290317  0.33621436  0.33382919  1
  Ni  Ni15  1  0.33545205  0.66748101  1.00089758  1
  Ni  Ni16  1  0.50152460  0.83337317  0.16739587  1
  Ni  Ni17  1  0.33715936  0.66620478  0.33436635  1
  Ni  Ni18  1  0.66819201  1.00085864  0.00184276  1
  Ni  Ni19  1  0.83583693  0.16963541  0.16698152  1
  Cr  Cr20  1  0.66918161  1.00051923  0.33345585  1
  Ni  Ni21  1  0.66909008  0.33456365  0.00200277  1
  Ni  Ni22  1  0.83442036  0.50102914  0.16772350  1
  Ni  Ni23  1  0.66998668  0.33720766  0.33350435  1
  Ni  Ni24  1  0.66827782  0.66899522  0.00188469  1
  Ni  Ni25  1  0.83476635  0.83387408  0.16715260  1
  Ni  Ni26  1  0.66795383  0.66708859  0.33521074  1
  Fe  Fe27  1  0.16690857  0.16976888  0.50160464  1
  Ni  Ni28  1  1.00038923  0.00255710  0.66896148  1
  Ni  Ni29  1  0.16726815  0.16814437  0.83376294  1
  Ni  Ni30  1  0.16755406  0.49983849  0.50145271  1
  Ni  Ni31  1  0.00155721  0.33477238  0.66786426  1
  Fe  Fe32  1  0.16674071  0.50117751  0.83583532  1
  Cr  Cr33  1  0.16717128  0.83586453  0.50062374  1
  Ni  Ni34  1  0.99929693  0.66727208  0.66856969  1
  Ni  Ni35  1  0.16683592  0.83646267  0.83583916  1
  Cr  Cr36  1  0.50187593  0.17031555  0.50368064  1
  Ni  Ni37  1  0.33466157  0.00241870  0.66949458  1
  Fe  Fe38  1  0.50217857  0.16717620  0.83527797  1
  Ni  Ni39  1  0.50225443  0.50104588  0.50055936  1
  Ni  Ni40  1  0.33308604  0.33453158  0.66917871  1
  Ni  Ni41  1  0.50285531  0.49982923  0.83550516  1
  Ni  Ni42  1  0.50240464  0.83333342  0.50195106  1
  Cr  Cr43  1  0.33551431  0.66734894  0.66945983  1
  Ni  Ni44  1  0.50235512  0.83386336  0.83516894  1
  Ni  Ni45  1  0.83670943  0.16936964  0.50257876  1
  Ni  Ni46  1  0.66949958  1.00008956  0.66884222  1
  Ni  Ni47  1  0.83541699  0.16877706  0.83477318  1
  Ni  Ni48  1  0.83451528  0.50057151  0.50240397  1
  Ni  Ni49  1  0.66972225  0.33584626  0.66934998  1
  Fe  Fe50  1  0.83442115  0.50199238  0.83520329  1
  Ni  Ni51  1  0.83515842  0.83454780  0.50275133  1
  Ni  Ni52  1  0.66969600  0.66851163  0.66772075  1
  Ni  Ni53  1  0.83527229  0.83559601  0.83443154  1
" 