7616,Ni80Fe12Cr7_11,-238.132490613562, 187.406321633778,Ni80Fe12Cr7,"# generated using pymatgen
 data_Cr5Fe6Ni43
_symmetry_space_group_name_H-M   'P 1'
_cell_length_a   7.44500210
_cell_length_b   7.44500210
_cell_length_c   10.52882295
_cell_angle_alpha   90.00000000
_cell_angle_beta   90.00000000
_cell_angle_gamma   90.00000000
_symmetry_Int_Tables_number   1
_chemical_formula_structural   Cr5Fe6Ni43
_chemical_formula_sum   'Cr5 Fe6 Ni43'
_cell_volume   583.59219122
_cell_formula_units_Z   1
loop_
 _symmetry_equiv_pos_site_id
 _symmetry_equiv_pos_as_xyz
  1  'x, y, z'
loop_
 _atom_site_type_symbol
 _atom_site_label
 _atom_site_symmetry_multiplicity
 _atom_site_fract_x
 _atom_site_fract_y
 _atom_site_fract_z
 _atom_site_occupancy
  Ni  Ni0  1  0.00161868  0.00214695  0.00159216  1
  Ni  Ni1  1  0.16982954  0.16840687  0.16749401  1
  Cr  Cr2  1  0.00239531  1.00000059  0.33441584  1
  Ni  Ni3  1  1.00121194  0.33405933  1.00070197  1
  Ni  Ni4  1  0.16781650  0.50122095  0.16625673  1
  Cr  Cr5  1  1.00108158  0.33453387  0.33389960  1
  Ni  Ni6  1  1.00052461  0.66822984  0.00199423  1
  Ni  Ni7  1  0.16784236  0.83481513  0.16735334  1
  Ni  Ni8  1  0.99874389  0.66867630  0.33330688  1
  Ni  Ni9  1  0.33424679  0.00186434  1.00139706  1
  Ni  Ni10  1  0.50159277  0.16794665  0.16852881  1
  Ni  Ni11  1  0.33637956  0.00313312  0.33511515  1
  Ni  Ni12  1  0.33395880  0.33362334  0.00276722  1
  Ni  Ni13  1  0.50257915  0.50044828  0.16867320  1
  Ni  Ni14  1  0.33708530  0.33247356  0.33371053  1
  Ni  Ni15  1  0.33508020  0.66895805  0.00182279  1
  Ni  Ni16  1  0.50297574  0.83597329  0.16786974  1
  Cr  Cr17  1  0.33566428  0.66968673  0.33324453  1
  Fe  Fe18  1  0.66819006  1.00094593  1.00123729  1
  Ni  Ni19  1  0.83284167  0.16809486  0.16733051  1
  Ni  Ni20  1  0.66692367  1.00145310  0.33425347  1
  Fe  Fe21  1  0.66893954  0.33477200  0.00180352  1
  Ni  Ni22  1  0.83412586  0.50232149  0.16819383  1
  Ni  Ni23  1  0.66670051  0.33495865  0.33462092  1
  Ni  Ni24  1  0.66883059  0.66842692  0.00213536  1
  Ni  Ni25  1  0.83360654  0.83399996  0.16794803  1
  Ni  Ni26  1  0.66931014  0.66797752  0.33530075  1
  Ni  Ni27  1  0.17095059  0.16757612  0.50295227  1
  Ni  Ni28  1  1.00135024  1.00115010  0.66814482  1
  Ni  Ni29  1  0.16846404  0.16833857  0.83403612  1
  Cr  Cr30  1  0.16756114  0.50145904  0.50318844  1
  Fe  Fe31  1  1.00111986  0.33373564  0.66995036  1
  Ni  Ni32  1  0.16657496  0.50139049  0.83509249  1
  Ni  Ni33  1  0.16747076  0.83570225  0.50286189  1
  Ni  Ni34  1  1.00018653  0.66987268  0.66933291  1
  Ni  Ni35  1  0.16764921  0.83471201  0.83407672  1
  Ni  Ni36  1  0.50178996  0.16800189  0.50115186  1
  Ni  Ni37  1  0.33463252  0.00191556  0.66798315  1
  Ni  Ni38  1  0.50137554  0.16672030  0.83480170  1
  Fe  Fe39  1  0.50240956  0.50148096  0.50202441  1
  Ni  Ni40  1  0.33582359  0.33281641  0.66836857  1
  Cr  Cr41  1  0.50091548  0.50160868  0.83427847  1
  Ni  Ni42  1  0.50341701  0.83711674  0.50262124  1
  Ni  Ni43  1  0.33486697  0.66980868  0.66902619  1
  Ni  Ni44  1  0.50211677  0.83656832  0.83401195  1
  Fe  Fe45  1  0.83344255  0.16580251  0.50251371  1
  Ni  Ni46  1  0.66843629  0.00178132  0.66903080  1
  Ni  Ni47  1  0.83459471  0.16776731  0.83406414  1
  Fe  Fe48  1  0.83273270  0.50274654  0.50186304  1
  Ni  Ni49  1  0.66834034  0.33398237  0.66756159  1
  Ni  Ni50  1  0.83628275  0.50195567  0.83407815  1
  Ni  Ni51  1  0.83352246  0.83354392  0.50179775  1
  Ni  Ni52  1  0.66913217  0.66855984  0.66732447  1
  Ni  Ni53  1  0.83469583  0.83468855  0.83484537  1
" 