2809,Ni81Fe6Cr11_13,-235.715591303684, 172.638968216722,Ni81Fe6Cr11,"# generated using pymatgen
 data_Cr7Fe3Ni44
_symmetry_space_group_name_H-M   'P 1'
_cell_length_a   7.45934448
_cell_length_b   7.45934448
_cell_length_c   10.54910613
_cell_angle_alpha   90.00000000
_cell_angle_beta   90.00000000
_cell_angle_gamma   90.00000000
_symmetry_Int_Tables_number   1
_chemical_formula_structural   Cr7Fe3Ni44
_chemical_formula_sum   'Cr7 Fe3 Ni44'
_cell_volume   586.97146564
_cell_formula_units_Z   1
loop_
 _symmetry_equiv_pos_site_id
 _symmetry_equiv_pos_as_xyz
  1  'x, y, z'
loop_
 _atom_site_type_symbol
 _atom_site_label
 _atom_site_symmetry_multiplicity
 _atom_site_fract_x
 _atom_site_fract_y
 _atom_site_fract_z
 _atom_site_occupancy
  Ni  Ni0  1  0.00098778  0.99812289  0.99965793  1
  Ni  Ni1  1  0.16992041  0.16582194  0.16782761  1
  Ni  Ni2  1  0.00093539  1.00009559  0.33451910  1
  Cr  Cr3  1  0.00217106  0.33366860  0.99774119  1
  Ni  Ni4  1  0.17065328  0.50167093  0.16845207  1
  Ni  Ni5  1  0.00291299  0.33289661  0.33554314  1
  Ni  Ni6  1  0.00080304  0.66974496  1.00011999  1
  Ni  Ni7  1  0.16700828  0.83405687  0.16718319  1
  Ni  Ni8  1  0.00366431  0.66855705  0.33341262  1
  Ni  Ni9  1  0.33283725  1.00001752  0.00116663  1
  Fe  Fe10  1  0.49845025  0.16749000  0.16749895  1
  Ni  Ni11  1  0.33328458  0.00123534  0.33403156  1
  Ni  Ni12  1  0.33500289  0.33484190  0.00154856  1
  Ni  Ni13  1  0.49801010  0.49932364  0.16610365  1
  Ni  Ni14  1  0.33361543  0.33406215  0.33370602  1
  Ni  Ni15  1  0.33418483  0.66668888  1.00035575  1
  Fe  Fe16  1  0.49897083  0.83424188  0.16621804  1
  Ni  Ni17  1  0.33172104  0.66625100  0.33419970  1
  Ni  Ni18  1  0.66772156  0.99893741  1.00033358  1
  Cr  Cr19  1  0.83298451  0.16492860  0.16824332  1
  Ni  Ni20  1  0.66732746  0.00199095  0.33529951  1
  Ni  Ni21  1  0.66466389  0.33502803  0.99995764  1
  Cr  Cr22  1  0.83348858  0.50204135  0.16738550  1
  Ni  Ni23  1  0.66501937  0.33133563  0.33440638  1
  Ni  Ni24  1  0.66656060  0.66758209  0.99895053  1
  Ni  Ni25  1  0.83506979  0.83495216  0.16629286  1
  Cr  Cr26  1  0.66607226  0.66850055  0.33457190  1
  Ni  Ni27  1  0.16755979  0.16702664  0.50040252  1
  Ni  Ni28  1  1.00034741  1.00016808  0.66737251  1
  Ni  Ni29  1  0.16617882  0.16638457  0.83331749  1
  Ni  Ni30  1  0.16926781  0.50050346  0.49972000  1
  Fe  Fe31  1  0.00322605  0.33288309  0.66783068  1
  Ni  Ni32  1  0.16788148  0.50128519  0.83337616  1
  Ni  Ni33  1  0.16748038  0.83401869  0.49998652  1
  Ni  Ni34  1  0.00123887  0.66855583  0.66801733  1
  Ni  Ni35  1  0.16685090  0.83387892  0.83437945  1
  Ni  Ni36  1  0.50009623  0.16627510  0.49853916  1
  Ni  Ni37  1  0.33243366  1.00000205  0.66635046  1
  Cr  Cr38  1  0.49954282  0.16621067  0.83539823  1
  Ni  Ni39  1  0.49737160  0.50023431  0.50047877  1
  Ni  Ni40  1  0.33169637  0.33498213  0.66629429  1
  Ni  Ni41  1  0.50023081  0.50284334  0.83496673  1
  Ni  Ni42  1  0.49990535  0.83504031  0.50129938  1
  Ni  Ni43  1  0.33369772  0.66656446  0.66699363  1
  Ni  Ni44  1  0.50093325  0.83198993  0.83408936  1
  Ni  Ni45  1  0.83389392  0.16448911  0.49926848  1
  Ni  Ni46  1  0.66876876  0.99816758  0.66591568  1
  Ni  Ni47  1  0.83532415  0.16568070  0.83401618  1
  Cr  Cr48  1  0.83521851  0.50065028  0.49959870  1
  Cr  Cr49  1  0.66671729  0.33405947  0.66718519  1
  Ni  Ni50  1  0.83343724  0.50217649  0.83464568  1
  Ni  Ni51  1  0.83416319  0.83674541  0.50093409  1
  Ni  Ni52  1  0.66661325  0.66929040  0.66845622  1
  Ni  Ni53  1  0.83376499  0.83369165  0.83432256  1
" 