1655,Ni81Fe12Cr5_18,-238.911814846574, 188.691500739828,Ni81Fe12Cr5,"# generated using pymatgen
 data_Cr2Fe3Ni22
_symmetry_space_group_name_H-M   'P 1'
_cell_length_a   7.44474150
_cell_length_b   7.44474150
_cell_length_c   10.52845440
_cell_angle_alpha   90.00000000
_cell_angle_beta   90.00000000
_cell_angle_gamma   90.00000000
_symmetry_Int_Tables_number   1
_chemical_formula_structural   Cr2Fe3Ni22
_chemical_formula_sum   'Cr4 Fe6 Ni44'
_cell_volume   583.53090967
_cell_formula_units_Z   2
loop_
 _symmetry_equiv_pos_site_id
 _symmetry_equiv_pos_as_xyz
  1  'x, y, z'
loop_
 _atom_site_type_symbol
 _atom_site_label
 _atom_site_symmetry_multiplicity
 _atom_site_fract_x
 _atom_site_fract_y
 _atom_site_fract_z
 _atom_site_occupancy
  Ni  Ni0  1  1.00003287  0.00202359  0.00282167  1
  Fe  Fe1  1  0.16912133  0.16800691  0.16694541  1
  Ni  Ni2  1  1.00031022  0.00299167  0.33393716  1
  Ni  Ni3  1  1.00140738  0.33495507  0.00174006  1
  Ni  Ni4  1  0.16900507  0.50147141  0.16685889  1
  Fe  Fe5  1  0.00319093  0.33226910  0.33292667  1
  Ni  Ni6  1  1.00031065  0.66733880  1.00145416  1
  Ni  Ni7  1  0.16916790  0.83511817  0.16655941  1
  Cr  Cr8  1  1.00122906  0.66926628  0.33281809  1
  Ni  Ni9  1  0.33602598  0.00271988  0.00210068  1
  Ni  Ni10  1  0.50265054  0.16826326  0.16760393  1
  Ni  Ni11  1  0.33535512  0.00303175  0.33451017  1
  Ni  Ni12  1  0.33534488  0.33537486  1.00084122  1
  Ni  Ni13  1  0.50103378  0.50032966  0.16885108  1
  Ni  Ni14  1  0.33606402  0.33515451  0.33540497  1
  Ni  Ni15  1  0.33580164  0.66658752  0.00257605  1
  Ni  Ni16  1  0.50015280  0.83624076  0.16873889  1
  Ni  Ni17  1  0.33523675  0.66646746  0.33444710  1
  Ni  Ni18  1  0.66864502  0.00159237  1.00054869  1
  Ni  Ni19  1  0.83363875  0.16847055  0.16818113  1
  Ni  Ni20  1  0.66897050  0.00337079  0.33581918  1
  Ni  Ni21  1  0.66794619  0.33490937  1.00087711  1
  Ni  Ni22  1  0.83429461  0.49938844  0.16734092  1
  Ni  Ni23  1  0.66665021  0.33331139  0.33398149  1
  Ni  Ni24  1  0.66828706  0.66803414  0.00276389  1
  Ni  Ni25  1  0.83438239  0.83665517  0.16736549  1
  Fe  Fe26  1  0.66507542  0.67001438  0.33375685  1
  Fe  Fe27  1  0.16892842  0.16874079  0.50218193  1
  Ni  Ni28  1  0.99924712  0.00319717  0.66801614  1
  Ni  Ni29  1  0.16841800  0.16917469  0.83517803  1
  Ni  Ni30  1  0.16978431  0.49909244  0.50289194  1
  Fe  Fe31  1  0.00163651  0.33330533  0.67028808  1
  Ni  Ni32  1  0.16841738  0.49994524  0.83465009  1
  Cr  Cr33  1  0.16991748  0.83457895  0.50352193  1
  Fe  Fe34  1  1.00024700  0.66760072  0.66954006  1
  Cr  Cr35  1  0.16968293  0.83494224  0.83581644  1
  Ni  Ni36  1  0.50271494  0.16847533  0.50194650  1
  Ni  Ni37  1  0.33612958  0.00362109  0.66807915  1
  Ni  Ni38  1  0.50176111  0.16822519  0.83491035  1
  Ni  Ni39  1  0.49956262  0.50047665  0.50058354  1
  Ni  Ni40  1  0.33538811  0.33562849  0.66810323  1
  Ni  Ni41  1  0.50176099  0.50111086  0.83507859  1
  Ni  Ni42  1  0.50187226  0.83610083  0.50109844  1
  Ni  Ni43  1  0.33731166  0.66530150  0.66787776  1
  Ni  Ni44  1  0.50276562  0.83515564  0.83459252  1
  Ni  Ni45  1  0.83422780  0.16736388  0.50130409  1
  Ni  Ni46  1  0.66933637  0.00181383  0.66797211  1
  Ni  Ni47  1  0.83425592  0.16839511  0.83524691  1
  Cr  Cr48  1  0.83343752  0.49873879  0.50121384  1
  Ni  Ni49  1  0.66671788  0.33448034  0.66948611  1
  Ni  Ni50  1  0.83419916  0.50083805  0.83542360  1
  Ni  Ni51  1  0.83325613  0.83779771  0.50217940  1
  Ni  Ni52  1  0.66711944  0.66840027  0.66744916  1
  Ni  Ni53  1  0.83347073  0.83503962  0.83449777  1
" 