2103,Ni81Fe12Cr5_8,-238.776998693799, 188.2339142136,Ni81Fe12Cr5,"# generated using pymatgen
 data_Cr2Fe3Ni22
_symmetry_space_group_name_H-M   'P 1'
_cell_length_a   7.44146900
_cell_length_b   7.44146900
_cell_length_c   10.52382638
_cell_angle_alpha   90.00000000
_cell_angle_beta   90.00000000
_cell_angle_gamma   90.00000000
_symmetry_Int_Tables_number   1
_chemical_formula_structural   Cr2Fe3Ni22
_chemical_formula_sum   'Cr4 Fe6 Ni44'
_cell_volume   582.76173616
_cell_formula_units_Z   2
loop_
 _symmetry_equiv_pos_site_id
 _symmetry_equiv_pos_as_xyz
  1  'x, y, z'
loop_
 _atom_site_type_symbol
 _atom_site_label
 _atom_site_symmetry_multiplicity
 _atom_site_fract_x
 _atom_site_fract_y
 _atom_site_fract_z
 _atom_site_occupancy
  Ni  Ni0  1  1.00017478  0.00219834  0.00207703  1
  Ni  Ni1  1  0.16675976  0.16794842  0.16915443  1
  Ni  Ni2  1  0.00257696  1.00056168  0.33460853  1
  Ni  Ni3  1  0.99918516  0.33397368  0.00215120  1
  Ni  Ni4  1  0.16895799  0.50371341  0.16843828  1
  Cr  Cr5  1  1.00161682  0.33462657  0.33490707  1
  Ni  Ni6  1  1.00105422  0.66898727  0.00236947  1
  Ni  Ni7  1  0.16708757  0.83349518  0.16844058  1
  Ni  Ni8  1  0.00270025  0.66996126  0.33563767  1
  Cr  Cr9  1  0.33502500  0.99990665  1.00084830  1
  Ni  Ni10  1  0.50392062  0.16858055  0.17020026  1
  Ni  Ni11  1  0.33494642  1.00098658  0.33556520  1
  Cr  Cr12  1  0.33578441  0.33576784  0.00313367  1
  Ni  Ni13  1  0.50150209  0.50287029  0.16888281  1
  Fe  Fe14  1  0.33690113  0.33498710  0.33530047  1
  Ni  Ni15  1  0.33598588  0.66912856  0.00270698  1
  Ni  Ni16  1  0.50274681  0.83370764  0.16888482  1
  Ni  Ni17  1  0.33521856  0.66913661  0.33445841  1
  Ni  Ni18  1  0.67037336  1.00166520  0.00180517  1
  Ni  Ni19  1  0.83447925  0.16670446  0.16666119  1
  Ni  Ni20  1  0.66763305  0.00195667  0.33487755  1
  Ni  Ni21  1  0.67052062  0.33534825  1.00111680  1
  Fe  Fe22  1  0.83418387  0.50258601  0.16743258  1
  Ni  Ni23  1  0.66680634  0.33490800  0.33526241  1
  Ni  Ni24  1  0.66811168  0.66814379  1.00149610  1
  Ni  Ni25  1  0.83532209  0.83590644  0.16883523  1
  Ni  Ni26  1  0.66723548  0.66829252  0.33514375  1
  Ni  Ni27  1  0.16839639  0.16761394  0.50251194  1
  Ni  Ni28  1  0.00186554  0.00309510  0.66846825  1
  Ni  Ni29  1  0.16616386  0.16733601  0.83348322  1
  Ni  Ni30  1  0.16878811  0.50298020  0.50239379  1
  Ni  Ni31  1  1.00157631  0.33305075  0.66801787  1
  Cr  Cr32  1  0.16773133  0.50187473  0.83439005  1
  Ni  Ni33  1  0.16851933  0.83456263  0.50179961  1
  Fe  Fe34  1  1.00027929  0.66823406  0.66737802  1
  Fe  Fe35  1  0.16745656  0.83596835  0.83465573  1
  Ni  Ni36  1  0.50231948  0.16824609  0.50151464  1
  Fe  Fe37  1  0.33574883  0.00252588  0.66784340  1
  Ni  Ni38  1  0.50366222  0.16790490  0.83343636  1
  Ni  Ni39  1  0.50177288  0.50220314  0.50200367  1
  Ni  Ni40  1  0.33523244  0.33505934  0.66689738  1
  Ni  Ni41  1  0.50387813  0.50321015  0.83426866  1
  Ni  Ni42  1  0.50141072  0.83470956  0.50140086  1
  Ni  Ni43  1  0.33659388  0.66844781  0.66798758  1
  Ni  Ni44  1  0.50338725  0.83404164  0.83486422  1
  Ni  Ni45  1  0.83444711  0.16797678  0.50284477  1
  Ni  Ni46  1  0.66891579  0.00172994  0.66847260  1
  Ni  Ni47  1  0.83533490  0.16783456  0.83564619  1
  Ni  Ni48  1  0.83459179  0.50207576  0.50255251  1
  Ni  Ni49  1  0.66834644  0.33526462  0.66878234  1
  Ni  Ni50  1  0.83360789  0.50177732  0.83589243  1
  Fe  Fe51  1  0.83489606  0.83533019  0.50143215  1
  Ni  Ni52  1  0.66689981  0.66816135  0.66852104  1
  Ni  Ni53  1  0.83417475  0.83554346  0.83495202  1
" 