3647,Ni81Fe12Cr5_7,-238.709406642294, 189.750749426017,Ni81Fe12Cr5,"# generated using pymatgen
 data_Cr2Fe3Ni22
_symmetry_space_group_name_H-M   'P 1'
_cell_length_a   7.44280542
_cell_length_b   7.44280542
_cell_length_c   10.52571637
_cell_angle_alpha   90.00000000
_cell_angle_beta   90.00000000
_cell_angle_gamma   90.00000000
_symmetry_Int_Tables_number   1
_chemical_formula_structural   Cr2Fe3Ni22
_chemical_formula_sum   'Cr4 Fe6 Ni44'
_cell_volume   583.07576924
_cell_formula_units_Z   2
loop_
 _symmetry_equiv_pos_site_id
 _symmetry_equiv_pos_as_xyz
  1  'x, y, z'
loop_
 _atom_site_type_symbol
 _atom_site_label
 _atom_site_symmetry_multiplicity
 _atom_site_fract_x
 _atom_site_fract_y
 _atom_site_fract_z
 _atom_site_occupancy
  Ni  Ni0  1  0.00183267  0.00224120  1.00092296  1
  Ni  Ni1  1  0.16873941  0.16743580  0.16780095  1
  Ni  Ni2  1  1.00113575  1.00009696  0.33526088  1
  Ni  Ni3  1  1.00104217  0.33361183  0.00279818  1
  Ni  Ni4  1  0.16754296  0.50282214  0.16802519  1
  Cr  Cr5  1  0.00227411  0.33471757  0.33438108  1
  Fe  Fe6  1  1.00074595  0.66915886  0.00251945  1
  Ni  Ni7  1  0.16794559  0.83462868  0.16819605  1
  Ni  Ni8  1  0.00223963  0.67010133  0.33403586  1
  Ni  Ni9  1  0.33372704  0.00204894  0.00294096  1
  Ni  Ni10  1  0.50210610  0.16677900  0.16854860  1
  Fe  Fe11  1  0.33500778  1.00154384  0.33474823  1
  Ni  Ni12  1  0.33431872  0.33360444  1.00137717  1
  Cr  Cr13  1  0.50159578  0.50135729  0.16783260  1
  Ni  Ni14  1  0.33539049  0.33475105  0.33569514  1
  Ni  Ni15  1  0.33451487  0.66923160  0.00222721  1
  Ni  Ni16  1  0.50185127  0.83632929  0.16893022  1
  Ni  Ni17  1  0.33401775  0.66872439  0.33584888  1
  Ni  Ni18  1  0.66932584  0.00204390  0.00271931  1
  Ni  Ni19  1  0.83404074  0.16718430  0.16754678  1
  Ni  Ni20  1  0.66869235  1.00147174  0.33424520  1
  Ni  Ni21  1  0.66952514  0.33440045  1.00058521  1
  Ni  Ni22  1  0.83574229  0.50256844  0.16791046  1
  Ni  Ni23  1  0.66731567  0.33364941  0.33559853  1
  Ni  Ni24  1  0.66933167  0.66844094  1.00143448  1
  Ni  Ni25  1  0.83508762  0.83513552  0.16865778  1
  Ni  Ni26  1  0.66862929  0.66976658  0.33574216  1
  Ni  Ni27  1  0.16876625  0.16750086  0.50267111  1
  Fe  Fe28  1  0.00194185  0.00178198  0.66851163  1
  Ni  Ni29  1  0.16813000  0.16664895  0.83441376  1
  Ni  Ni30  1  0.17000241  0.50332970  0.50210664  1
  Ni  Ni31  1  1.00117220  0.33444195  0.66749291  1
  Cr  Cr32  1  0.16914070  0.50183139  0.83508984  1
  Ni  Ni33  1  0.16791031  0.83405309  0.50182327  1
  Ni  Ni34  1  1.00122951  0.66865309  0.66792609  1
  Ni  Ni35  1  0.16661662  0.83639361  0.83486487  1
  Ni  Ni36  1  0.50252605  0.16933910  0.50149073  1
  Ni  Ni37  1  0.33418428  0.00238799  0.66760283  1
  Ni  Ni38  1  0.50218436  0.17017519  0.83484761  1
  Ni  Ni39  1  0.50123277  0.50143640  0.50204211  1
  Ni  Ni40  1  0.33508739  0.33395730  0.66781375  1
  Ni  Ni41  1  0.50350563  0.50007849  0.83464550  1
  Fe  Fe42  1  0.50092036  0.83516033  0.50157508  1
  Ni  Ni43  1  0.33443340  0.66854267  0.66681289  1
  Cr  Cr44  1  0.50152650  0.83456244  0.83494578  1
  Ni  Ni45  1  0.83359361  0.16724612  0.50241945  1
  Ni  Ni46  1  0.66873881  0.00244510  0.66792230  1
  Ni  Ni47  1  0.83457074  0.16822249  0.83491906  1
  Fe  Fe48  1  0.83459926  0.50153645  0.50254864  1
  Ni  Ni49  1  0.66862779  0.33468989  0.66870062  1
  Ni  Ni50  1  0.83281069  0.50159033  0.83453915  1
  Fe  Fe51  1  0.83521430  0.83526767  0.50132428  1
  Ni  Ni52  1  0.66922361  0.66775103  0.66770975  1
  Ni  Ni53  1  0.83633450  0.83507345  0.83465334  1
" 