8990,Ni81Fe12Cr5_11,-238.92508658981, 187.603370796133,Ni81Fe12Cr5,"# generated using pymatgen
 data_Cr2Fe3Ni22
_symmetry_space_group_name_H-M   'P 1'
_cell_length_a   7.44498935
_cell_length_b   7.44498935
_cell_length_c   10.52880491
_cell_angle_alpha   90.00000000
_cell_angle_beta   90.00000000
_cell_angle_gamma   90.00000000
_symmetry_Int_Tables_number   1
_chemical_formula_structural   Cr2Fe3Ni22
_chemical_formula_sum   'Cr4 Fe6 Ni44'
_cell_volume   583.58919139
_cell_formula_units_Z   2
loop_
 _symmetry_equiv_pos_site_id
 _symmetry_equiv_pos_as_xyz
  1  'x, y, z'
loop_
 _atom_site_type_symbol
 _atom_site_label
 _atom_site_symmetry_multiplicity
 _atom_site_fract_x
 _atom_site_fract_y
 _atom_site_fract_z
 _atom_site_occupancy
  Cr  Cr0  1  0.00252775  0.99954059  1.00066185  1
  Ni  Ni1  1  0.16985022  0.16893850  0.16901827  1
  Ni  Ni2  1  0.00187714  1.00019948  0.33572616  1
  Ni  Ni3  1  0.00256144  0.33620327  1.00122243  1
  Ni  Ni4  1  0.16802049  0.50102794  0.16829999  1
  Fe  Fe5  1  0.00335590  0.33423238  0.33357667  1
  Ni  Ni6  1  1.00134761  0.66665836  0.00150378  1
  Ni  Ni7  1  0.16912873  0.83440988  0.16861701  1
  Ni  Ni8  1  0.00253513  0.66988045  0.33344960  1
  Ni  Ni9  1  0.33592017  0.00204704  1.00148046  1
  Ni  Ni10  1  0.49978818  0.16688992  0.16713845  1
  Ni  Ni11  1  0.33418737  0.00208860  0.33450199  1
  Ni  Ni12  1  0.33422279  0.33484335  1.00118789  1
  Ni  Ni13  1  0.50083402  0.50239011  0.16754577  1
  Ni  Ni14  1  0.33393216  0.33472347  0.33542880  1
  Ni  Ni15  1  0.33435269  0.66751751  1.00086858  1
  Ni  Ni16  1  0.50181930  0.83525712  0.16845535  1
  Ni  Ni17  1  0.33394577  0.66757688  0.33558744  1
  Ni  Ni18  1  0.66717433  1.00090898  1.00116473  1
  Fe  Fe19  1  0.83502706  0.16718105  0.16797146  1
  Ni  Ni20  1  0.66849236  1.00048339  0.33548804  1
  Fe  Fe21  1  0.66754315  0.33539384  1.00127125  1
  Ni  Ni22  1  0.83567165  0.50316611  0.16690802  1
  Cr  Cr23  1  0.66518725  0.33435235  0.33405160  1
  Ni  Ni24  1  0.66872266  0.66861338  1.00115678  1
  Ni  Ni25  1  0.83356517  0.83325903  0.16938935  1
  Ni  Ni26  1  0.66797572  0.66991341  0.33477676  1
  Ni  Ni27  1  0.16844221  0.16821102  0.50137601  1
  Fe  Fe28  1  0.00154613  1.00100121  0.66795807  1
  Ni  Ni29  1  0.16939943  0.16901759  0.83407070  1
  Ni  Ni30  1  0.16910831  0.50115477  0.50141242  1
  Fe  Fe31  1  0.00243940  0.33404128  0.66951883  1
  Ni  Ni32  1  0.16797218  0.50110298  0.83479745  1
  Ni  Ni33  1  0.16816894  0.83506667  0.50131854  1
  Ni  Ni34  1  0.00240020  0.66922546  0.66946390  1
  Ni  Ni35  1  0.16929766  0.83424982  0.83452968  1
  Ni  Ni36  1  0.49977457  0.16592725  0.50132795  1
  Ni  Ni37  1  0.33468275  0.00289343  0.66845630  1
  Ni  Ni38  1  0.50043823  0.16688481  0.83600595  1
  Ni  Ni39  1  0.49879903  0.50321958  0.50145046  1
  Ni  Ni40  1  0.33341792  0.33420571  0.66779667  1
  Ni  Ni41  1  0.50092716  0.50228620  0.83561546  1
  Ni  Ni42  1  0.50167518  0.83557158  0.50094011  1
  Fe  Fe43  1  0.33590057  0.66880973  0.66824590  1
  Ni  Ni44  1  0.50193167  0.83553100  0.83507677  1
  Ni  Ni45  1  0.83648401  0.16515423  0.50088414  1
  Ni  Ni46  1  0.66780217  1.00039682  0.66767656  1
  Ni  Ni47  1  0.83459239  0.16800753  0.83541850  1
  Cr  Cr48  1  0.83668586  0.50353634  0.50102732  1
  Cr  Cr49  1  0.66532311  0.33413517  0.66939187  1
  Ni  Ni50  1  0.83566288  0.50255208  0.83622656  1
  Ni  Ni51  1  0.83481030  0.83603983  0.50149099  1
  Ni  Ni52  1  0.66922336  0.67014636  0.66841782  1
  Ni  Ni53  1  0.83352468  0.83393168  0.83365311  1
" 