3956,Ni81Fe12Cr5_4,-238.695511767542, 187.208536327767,Ni81Fe12Cr5,"# generated using pymatgen
 data_Cr2Fe3Ni22
_symmetry_space_group_name_H-M   'P 1'
_cell_length_a   7.44499350
_cell_length_b   7.44499350
_cell_length_c   10.52881079
_cell_angle_alpha   90.00000000
_cell_angle_beta   90.00000000
_cell_angle_gamma   90.00000000
_symmetry_Int_Tables_number   1
_chemical_formula_structural   Cr2Fe3Ni22
_chemical_formula_sum   'Cr4 Fe6 Ni44'
_cell_volume   583.59016900
_cell_formula_units_Z   2
loop_
 _symmetry_equiv_pos_site_id
 _symmetry_equiv_pos_as_xyz
  1  'x, y, z'
loop_
 _atom_site_type_symbol
 _atom_site_label
 _atom_site_symmetry_multiplicity
 _atom_site_fract_x
 _atom_site_fract_y
 _atom_site_fract_z
 _atom_site_occupancy
  Ni  Ni0  1  1.00134443  0.00227164  1.00061925  1
  Ni  Ni1  1  0.16728225  0.16973665  0.16863193  1
  Ni  Ni2  1  0.00226471  0.00209643  0.33387415  1
  Ni  Ni3  1  1.00088258  0.33456454  0.00223024  1
  Ni  Ni4  1  0.16806759  0.50033160  0.16760785  1
  Ni  Ni5  1  0.00191702  0.33611562  0.33345613  1
  Ni  Ni6  1  1.00041651  0.66749528  1.00061909  1
  Cr  Cr7  1  0.16945368  0.83404826  0.16835360  1
  Ni  Ni8  1  0.00200859  0.66602623  0.33470207  1
  Ni  Ni9  1  0.33525955  0.00224642  1.00013737  1
  Ni  Ni10  1  0.50212944  0.16829305  0.16849594  1
  Ni  Ni11  1  0.33651178  0.00221731  0.33654808  1
  Ni  Ni12  1  0.33544587  0.33443160  0.00242041  1
  Ni  Ni13  1  0.50138804  0.50193242  0.16834233  1
  Ni  Ni14  1  0.33533975  0.33502994  0.33393940  1
  Ni  Ni15  1  0.33591028  0.66777681  1.00044791  1
  Ni  Ni16  1  0.50290543  0.83420147  0.16818022  1
  Ni  Ni17  1  0.33507337  0.66729490  0.33539237  1
  Fe  Fe18  1  0.66765840  0.00201455  1.00147574  1
  Ni  Ni19  1  0.83498576  0.16861696  0.16834947  1
  Ni  Ni20  1  0.66600698  0.00213743  0.33161810  1
  Ni  Ni21  1  0.66804403  0.33535175  1.00128348  1
  Ni  Ni22  1  0.83480651  0.50060536  0.16897912  1
  Ni  Ni23  1  0.66697874  0.33492390  0.33454217  1
  Ni  Ni24  1  0.66797241  0.66746288  0.00234136  1
  Fe  Fe25  1  0.83425440  0.83449189  0.16769402  1
  Fe  Fe26  1  0.66639553  0.66695599  0.33364509  1
  Ni  Ni27  1  0.16890876  0.17000272  0.50119108  1
  Ni  Ni28  1  0.00493530  1.00112788  0.66968165  1
  Ni  Ni29  1  0.16730534  0.16889667  0.83462934  1
  Ni  Ni30  1  0.16886565  0.50114494  0.50092676  1
  Ni  Ni31  1  0.00223626  0.33633868  0.66920534  1
  Ni  Ni32  1  0.16905599  0.50154066  0.83590903  1
  Fe  Fe33  1  0.17072966  0.83489676  0.50166437  1
  Ni  Ni34  1  0.00196976  0.66694977  0.66910264  1
  Ni  Ni35  1  0.16761780  0.83404437  0.83313504  1
  Ni  Ni36  1  0.49943225  0.16946314  0.50066520  1
  Ni  Ni37  1  0.33330199  0.00151863  0.66745990  1
  Ni  Ni38  1  0.50086601  0.17007592  0.83525360  1
  Ni  Ni39  1  0.49979515  0.50198513  0.50136340  1
  Ni  Ni40  1  0.33500428  0.33484466  0.66811725  1
  Ni  Ni41  1  0.50059182  0.50194951  0.83463991  1
  Ni  Ni42  1  0.50053871  0.83292776  0.50071166  1
  Ni  Ni43  1  0.33486315  0.66817042  0.66835713  1
  Ni  Ni44  1  0.50103067  0.83250105  0.83550630  1
  Cr  Cr45  1  0.83590531  0.16939081  0.50128450  1
  Cr  Cr46  1  0.66530617  0.00180771  0.67145488  1
  Ni  Ni47  1  0.83625853  0.16845180  0.83536246  1
  Fe  Fe48  1  0.83441652  0.50048696  0.50106639  1
  Ni  Ni49  1  0.66708240  0.33786104  0.66894223  1
  Fe  Fe50  1  0.83455306  0.50133762  0.83574787  1
  Cr  Cr51  1  0.83518240  0.83380985  0.49961620  1
  Ni  Ni52  1  0.66775568  0.66545262  0.66831214  1
  Ni  Ni53  1  0.83576910  0.83433344  0.83674822  1
" 