1673,Ni81Fe13Cr4_16,-239.066760288564, 191.260828804305,Ni81Fe13Cr4,"# generated using pymatgen
 data_Cr4Fe7Ni43
_symmetry_space_group_name_H-M   'P 1'
_cell_length_a   7.44172717
_cell_length_b   7.44172717
_cell_length_c   10.52419150
_cell_angle_alpha   90.00000000
_cell_angle_beta   90.00000000
_cell_angle_gamma   90.00000000
_symmetry_Int_Tables_number   1
_chemical_formula_structural   Cr4Fe7Ni43
_chemical_formula_sum   'Cr4 Fe7 Ni43'
_cell_volume   582.82239347
_cell_formula_units_Z   1
loop_
 _symmetry_equiv_pos_site_id
 _symmetry_equiv_pos_as_xyz
  1  'x, y, z'
loop_
 _atom_site_type_symbol
 _atom_site_label
 _atom_site_symmetry_multiplicity
 _atom_site_fract_x
 _atom_site_fract_y
 _atom_site_fract_z
 _atom_site_occupancy
  Ni  Ni0  1  0.00192391  0.00347983  0.00213106  1
  Ni  Ni1  1  0.16820507  0.16804153  0.16860256  1
  Ni  Ni2  1  0.00209728  0.00348052  0.33417826  1
  Ni  Ni3  1  0.00243703  0.33201254  1.00052124  1
  Fe  Fe4  1  0.17111968  0.49982224  0.16883750  1
  Ni  Ni5  1  0.00261292  0.33200749  0.33579035  1
  Cr  Cr6  1  0.00223769  0.66986089  0.99989232  1
  Ni  Ni7  1  0.17043384  0.83707296  0.16859722  1
  Cr  Cr8  1  0.00252015  0.66986606  0.33672519  1
  Fe  Fe9  1  0.33533392  0.00206397  1.00162290  1
  Ni  Ni10  1  0.50135280  0.16802663  0.16860438  1
  Ni  Ni11  1  0.33481905  0.00174223  0.33487018  1
  Fe  Fe12  1  0.33534987  0.33427974  0.00173623  1
  Fe  Fe13  1  0.50080980  0.50183535  0.16883690  1
  Ni  Ni14  1  0.33529992  0.33474099  0.33526940  1
  Fe  Fe15  1  0.33683556  0.66876050  1.00126897  1
  Ni  Ni16  1  0.50135229  0.83485300  0.16859774  1
  Ni  Ni17  1  0.33676297  0.66861752  0.33456270  1
  Ni  Ni18  1  0.66836648  0.00201785  1.00103059  1
  Ni  Ni19  1  0.83554821  0.16745360  0.16844117  1
  Ni  Ni20  1  0.66818575  0.00201779  0.33527862  1
  Ni  Ni21  1  0.66737042  0.33395540  1.00079393  1
  Cr  Cr22  1  0.83328504  0.49993681  0.16883377  1
  Ni  Ni23  1  0.66719384  0.33395067  0.33551877  1
  Ni  Ni24  1  0.66562527  0.66912989  1.00073090  1
  Ni  Ni25  1  0.83332164  0.83765679  0.16844231  1
  Ni  Ni26  1  0.66545439  0.66913464  0.33558208  1
  Ni  Ni27  1  0.16905003  0.16939812  0.50020614  1
  Cr  Cr28  1  0.00281935  1.00158107  0.66848939  1
  Ni  Ni29  1  0.16881442  0.16940305  0.83629424  1
  Ni  Ni30  1  0.16857047  0.50094692  0.50204650  1
  Ni  Ni31  1  1.00100980  0.33690323  0.66879489  1
  Ni  Ni32  1  0.16833867  0.50094209  0.83445855  1
  Ni  Ni33  1  0.17022774  0.83475913  0.50137463  1
  Ni  Ni34  1  0.00212435  0.66656334  0.66879520  1
  Ni  Ni35  1  0.16998638  0.83475876  0.83513064  1
  Ni  Ni36  1  0.50151334  0.16834242  0.50152963  1
  Ni  Ni37  1  0.33609128  1.00095086  0.66874445  1
  Ni  Ni38  1  0.50175178  0.16834887  0.83496828  1
  Ni  Ni39  1  0.50205621  0.50206339  0.50062406  1
  Fe  Fe40  1  0.33486822  0.33582032  0.66799382  1
  Ni  Ni41  1  0.50228699  0.50205715  0.83588060  1
  Ni  Ni42  1  0.50145300  0.83469870  0.50132126  1
  Ni  Ni43  1  0.33510344  0.66933762  0.66874506  1
  Ni  Ni44  1  0.50169599  0.83469853  0.83518080  1
  Ni  Ni45  1  0.83453931  0.17000492  0.49972028  1
  Fe  Fe46  1  0.66693380  1.00122793  0.66842337  1
  Ni  Ni47  1  0.83453988  0.17000024  0.83693690  1
  Ni  Ni48  1  0.83447771  0.50088483  0.50294400  1
  Ni  Ni49  1  0.66856203  0.33591941  0.66879458  1
  Ni  Ni50  1  0.83448112  0.50088574  0.83371998  1
  Ni  Ni51  1  0.83341916  0.83421510  0.50088674  1
  Ni  Ni52  1  0.66787439  0.66711925  0.66879445  1
  Ni  Ni53  1  0.83342368  0.83421895  0.83577163  1
" 