3288,Ni81Fe6Cr11_10,-235.720639077166, 174.057498989502,Ni81Fe6Cr11,"# generated using pymatgen
 data_Cr7Fe3Ni44
_symmetry_space_group_name_H-M   'P 1'
_cell_length_a   7.45732793
_cell_length_b   7.45732793
_cell_length_c   10.54625430
_cell_angle_alpha   90.00000000
_cell_angle_beta   90.00000000
_cell_angle_gamma   90.00000000
_symmetry_Int_Tables_number   1
_chemical_formula_structural   Cr7Fe3Ni44
_chemical_formula_sum   'Cr7 Fe3 Ni44'
_cell_volume   586.49555141
_cell_formula_units_Z   1
loop_
 _symmetry_equiv_pos_site_id
 _symmetry_equiv_pos_as_xyz
  1  'x, y, z'
loop_
 _atom_site_type_symbol
 _atom_site_label
 _atom_site_symmetry_multiplicity
 _atom_site_fract_x
 _atom_site_fract_y
 _atom_site_fract_z
 _atom_site_occupancy
  Ni  Ni0  1  0.00148902  0.99942166  0.00130562  1
  Fe  Fe1  1  0.16791792  0.16673260  0.16826084  1
  Ni  Ni2  1  1.00043569  0.00065349  0.33396099  1
  Cr  Cr3  1  1.00059716  0.33422290  0.99973751  1
  Ni  Ni4  1  0.16796505  0.50210931  0.16783688  1
  Ni  Ni5  1  0.00091317  0.33391899  0.33502528  1
  Ni  Ni6  1  0.00332316  0.66856985  0.00149697  1
  Ni  Ni7  1  0.16528460  0.83320550  0.16710811  1
  Ni  Ni8  1  1.00056346  0.66738240  0.33336265  1
  Ni  Ni9  1  0.33324999  0.00128032  0.99885469  1
  Ni  Ni10  1  0.50131670  0.16892621  0.16689358  1
  Ni  Ni11  1  0.33257490  0.00082290  0.33458609  1
  Ni  Ni12  1  0.33577164  0.33402654  0.00088560  1
  Ni  Ni13  1  0.49929645  0.49762032  0.16825277  1
  Ni  Ni14  1  0.33332449  0.33497253  0.33267306  1
  Ni  Ni15  1  0.33148487  0.66664519  0.99918953  1
  Cr  Cr16  1  0.49999554  0.83522065  0.16791153  1
  Ni  Ni17  1  0.33350356  0.66615536  0.33507267  1
  Ni  Ni18  1  0.66721999  0.00370929  1.00054792  1
  Ni  Ni19  1  0.83248685  0.16624379  0.16807144  1
  Ni  Ni20  1  0.66893925  1.00047551  0.33378628  1
  Ni  Ni21  1  0.66529545  0.33219579  1.00013488  1
  Ni  Ni22  1  0.83469692  0.50048135  0.16889928  1
  Ni  Ni23  1  0.66771672  0.33484949  0.33304819  1
  Cr  Cr24  1  0.66755158  0.66600423  1.00047090  1
  Ni  Ni25  1  0.83698028  0.83522934  0.16801926  1
  Ni  Ni26  1  0.66788618  0.66663187  0.33551661  1
  Ni  Ni27  1  0.16458046  0.16714592  0.49959025  1
  Ni  Ni28  1  1.00056552  0.00343575  0.66669186  1
  Ni  Ni29  1  0.16739474  0.16596377  0.83411969  1
  Ni  Ni30  1  0.16717090  0.50029303  0.49910660  1
  Ni  Ni31  1  0.99913800  0.33173566  0.66726821  1
  Ni  Ni32  1  0.16829327  0.50152103  0.83501286  1
  Fe  Fe33  1  0.16764759  0.83430803  0.49956086  1
  Cr  Cr34  1  0.00137181  0.66638931  0.66709537  1
  Ni  Ni35  1  0.16992256  0.83446679  0.83480079  1
  Cr  Cr36  1  0.50139830  0.16641950  0.49954097  1
  Fe  Fe37  1  0.33369707  0.99867100  0.66845315  1
  Ni  Ni38  1  0.50144028  0.16655611  0.83542889  1
  Ni  Ni39  1  0.50086895  0.50377274  0.49969547  1
  Cr  Cr40  1  0.33299952  0.33527516  0.66833759  1
  Ni  Ni41  1  0.50013182  0.50052240  0.83400973  1
  Ni  Ni42  1  0.50113607  0.83223550  0.50116443  1
  Ni  Ni43  1  0.33612658  0.66845193  0.66768981  1
  Ni  Ni44  1  0.49791231  0.83487658  0.83272128  1
  Ni  Ni45  1  0.83619458  0.16687477  0.50128497  1
  Ni  Ni46  1  0.66797093  1.00049275  0.66762403  1
  Ni  Ni47  1  0.83312284  0.16818134  0.83260192  1
  Ni  Ni48  1  0.83391519  0.50025873  0.50008403  1
  Ni  Ni49  1  0.66963500  0.33444282  0.66877122  1
  Ni  Ni50  1  0.83352864  0.49799762  0.83297392  1
  Ni  Ni51  1  0.83271169  0.83482183  0.49928799  1
  Ni  Ni52  1  0.66443110  0.66701583  0.66626695  1
  Cr  Cr53  1  0.83410476  0.83535776  0.83509912  1
" 