5092,Ni81Fe13Cr4_5,-239.047314577452, 190.643920424181,Ni81Fe13Cr4,"# generated using pymatgen
 data_Cr4Fe7Ni43
_symmetry_space_group_name_H-M   'P 1'
_cell_length_a   7.44150011
_cell_length_b   7.44150011
_cell_length_c   10.52387038
_cell_angle_alpha   90.00000000
_cell_angle_beta   90.00000000
_cell_angle_gamma   90.00000000
_symmetry_Int_Tables_number   1
_chemical_formula_structural   Cr4Fe7Ni43
_chemical_formula_sum   'Cr4 Fe7 Ni43'
_cell_volume   582.76904460
_cell_formula_units_Z   1
loop_
 _symmetry_equiv_pos_site_id
 _symmetry_equiv_pos_as_xyz
  1  'x, y, z'
loop_
 _atom_site_type_symbol
 _atom_site_label
 _atom_site_symmetry_multiplicity
 _atom_site_fract_x
 _atom_site_fract_y
 _atom_site_fract_z
 _atom_site_occupancy
  Ni  Ni0  1  1.00139353  1.00136939  0.00206137  1
  Ni  Ni1  1  0.16689732  0.16819929  0.16836171  1
  Ni  Ni2  1  0.00211828  0.00307459  0.33505237  1
  Ni  Ni3  1  0.00351289  0.33471039  1.00135053  1
  Ni  Ni4  1  0.17046378  0.50022151  0.16693739  1
  Ni  Ni5  1  0.00274731  0.33362044  0.33480916  1
  Ni  Ni6  1  0.00214122  0.66914309  1.00155525  1
  Ni  Ni7  1  0.16947442  0.83677198  0.16744004  1
  Cr  Cr8  1  0.00360097  0.66785159  0.33485332  1
  Fe  Fe9  1  0.33382503  0.00266116  0.00244273  1
  Fe  Fe10  1  0.50159248  0.16836217  0.16924074  1
  Ni  Ni11  1  0.33523978  0.00189240  0.33556179  1
  Ni  Ni12  1  0.33409360  0.33366493  0.00284013  1
  Ni  Ni13  1  0.50100433  0.50150953  0.16826095  1
  Ni  Ni14  1  0.33460956  0.33488162  0.33525801  1
  Fe  Fe15  1  0.33367807  0.66816277  0.00263928  1
  Ni  Ni16  1  0.50104336  0.83455318  0.16676329  1
  Ni  Ni17  1  0.33493904  0.66834403  0.33447471  1
  Ni  Ni18  1  0.66812315  1.00158290  0.00217774  1
  Ni  Ni19  1  0.83574943  0.16804262  0.16844167  1
  Ni  Ni20  1  0.66769487  0.00296233  0.33468621  1
  Ni  Ni21  1  0.66768492  0.33339070  0.00228823  1
  Ni  Ni22  1  0.83375997  0.49885070  0.16474214  1
  Ni  Ni23  1  0.66772282  0.33309334  0.33508706  1
  Ni  Ni24  1  0.66955428  0.67012867  0.00195899  1
  Ni  Ni25  1  0.83458555  0.83817469  0.16665485  1
  Cr  Cr26  1  0.66746265  0.66872089  0.33607051  1
  Ni  Ni27  1  0.16767643  0.16824630  0.50214826  1
  Ni  Ni28  1  0.00267315  1.00151520  0.66808052  1
  Ni  Ni29  1  0.16707231  0.16796339  0.83472318  1
  Ni  Ni30  1  0.17034285  0.50063964  0.50273566  1
  Ni  Ni31  1  0.00325198  0.33458426  0.66903347  1
  Ni  Ni32  1  0.16949684  0.50155074  0.83536375  1
  Ni  Ni33  1  0.16940422  0.83626165  0.50255813  1
  Ni  Ni34  1  0.00277136  0.66912040  0.66879512  1
  Ni  Ni35  1  0.16753005  0.83566924  0.83506920  1
  Ni  Ni36  1  0.50112212  0.16994779  0.50098437  1
  Fe  Fe37  1  0.33277762  0.00217154  0.66723952  1
  Fe  Fe38  1  0.50027862  0.16803967  0.83546833  1
  Ni  Ni39  1  0.50064826  0.50094692  0.50220593  1
  Ni  Ni40  1  0.33382286  0.33463052  0.66714151  1
  Cr  Cr41  1  0.50235993  0.50214622  0.83435268  1
  Ni  Ni42  1  0.49967385  0.83432717  0.50258147  1
  Ni  Ni43  1  0.33364392  0.66839406  0.66743569  1
  Fe  Fe44  1  0.50051688  0.83581788  0.83575227  1
  Ni  Ni45  1  0.83618287  0.16924628  0.50050345  1
  Cr  Cr46  1  0.66891277  0.00226914  0.66773479  1
  Ni  Ni47  1  0.83628026  0.16805694  0.83612702  1
  Ni  Ni48  1  0.83418915  0.49890844  0.50545837  1
  Ni  Ni49  1  0.66830034  0.33490771  0.66783287  1
  Fe  Fe50  1  0.83832176  0.50173214  0.83513475  1
  Ni  Ni51  1  0.83592862  0.83692795  0.50239729  1
  Ni  Ni52  1  0.66894665  0.66879933  0.66772459  1
  Ni  Ni53  1  0.83585574  0.83593264  0.83610166  1
" 