615,Ni81Fe6Cr11_11,-235.484865932763, 170.116971648244,Ni81Fe6Cr11,"# generated using pymatgen
 data_Cr7Fe3Ni44
_symmetry_space_group_name_H-M   'P 1'
_cell_length_a   7.45936281
_cell_length_b   7.45936281
_cell_length_c   10.54913206
_cell_angle_alpha   90.00000000
_cell_angle_beta   90.00000000
_cell_angle_gamma   90.00000000
_symmetry_Int_Tables_number   1
_chemical_formula_structural   Cr7Fe3Ni44
_chemical_formula_sum   'Cr7 Fe3 Ni44'
_cell_volume   586.97579287
_cell_formula_units_Z   1
loop_
 _symmetry_equiv_pos_site_id
 _symmetry_equiv_pos_as_xyz
  1  'x, y, z'
loop_
 _atom_site_type_symbol
 _atom_site_label
 _atom_site_symmetry_multiplicity
 _atom_site_fract_x
 _atom_site_fract_y
 _atom_site_fract_z
 _atom_site_occupancy
  Ni  Ni0  1  0.00398048  0.99866296  1.00037196  1
  Ni  Ni1  1  0.16877666  0.16708099  0.16687308  1
  Ni  Ni2  1  0.00122346  0.00075216  0.33479180  1
  Ni  Ni3  1  0.00253058  0.33585685  0.00110835  1
  Ni  Ni4  1  0.16840382  0.49986061  0.16607354  1
  Fe  Fe5  1  0.00072046  0.33235519  0.33389486  1
  Ni  Ni6  1  1.00026667  0.66690853  1.00046893  1
  Ni  Ni7  1  0.16829670  0.83458228  0.16628004  1
  Cr  Cr8  1  0.99977188  0.66812435  0.33248475  1
  Ni  Ni9  1  0.33104990  1.00029118  0.00155242  1
  Ni  Ni10  1  0.49759005  0.16758675  0.16794926  1
  Ni  Ni11  1  0.33372007  0.00147928  0.33372344  1
  Ni  Ni12  1  0.33287616  0.33456237  0.00136627  1
  Ni  Ni13  1  0.49995842  0.50123728  0.16712004  1
  Ni  Ni14  1  0.33567705  0.33268782  0.33271824  1
  Ni  Ni15  1  0.33356313  0.66663825  0.00092009  1
  Ni  Ni16  1  0.49952995  0.83274467  0.16813250  1
  Ni  Ni17  1  0.33615695  0.66740596  0.33279351  1
  Cr  Cr18  1  0.66598384  0.99816916  0.00169932  1
  Cr  Cr19  1  0.83466621  0.16734746  0.16759001  1
  Ni  Ni20  1  0.66662433  1.00031048  0.33463572  1
  Ni  Ni21  1  0.66609836  0.33841979  0.00110012  1
  Ni  Ni22  1  0.83320477  0.50174413  0.16597494  1
  Ni  Ni23  1  0.66538281  0.33450017  0.33504613  1
  Ni  Ni24  1  0.66771825  0.66518908  0.00062610  1
  Ni  Ni25  1  0.83375844  0.83226666  0.16691433  1
  Ni  Ni26  1  0.66621799  0.66672566  0.33381701  1
  Ni  Ni27  1  0.16697192  0.16587676  0.50078025  1
  Ni  Ni28  1  0.00315100  0.99957996  0.66637035  1
  Ni  Ni29  1  0.16692530  0.16775505  0.83389524  1
  Cr  Cr30  1  0.16872507  0.49956673  0.50107850  1
  Ni  Ni31  1  0.00068266  0.33405690  0.66664776  1
  Ni  Ni32  1  0.16717101  0.49997057  0.83406796  1
  Fe  Fe33  1  0.16815143  0.83607975  0.50069338  1
  Ni  Ni34  1  0.99949174  0.66783865  0.66844208  1
  Fe  Fe35  1  0.16737754  0.83303288  0.83435949  1
  Ni  Ni36  1  0.49929705  0.16723357  0.49979963  1
  Ni  Ni37  1  0.33093887  1.00013163  0.66626265  1
  Cr  Cr38  1  0.49705478  0.16839792  0.83414641  1
  Ni  Ni39  1  0.50165972  0.50138981  0.50104510  1
  Ni  Ni40  1  0.33376486  0.33381479  0.66743258  1
  Ni  Ni41  1  0.49978032  0.50333850  0.83337393  1
  Ni  Ni42  1  0.50042335  0.83298930  0.49954568  1
  Ni  Ni43  1  0.33445703  0.66760487  0.66777331  1
  Ni  Ni44  1  0.49922667  0.83005087  0.83392052  1
  Ni  Ni45  1  0.83529104  0.16715327  0.49997038  1
  Cr  Cr46  1  0.66705219  0.99956925  0.66545252  1
  Cr  Cr47  1  0.83750986  0.16847224  0.83394435  1
  Ni  Ni48  1  0.83173249  0.50022301  0.50197666  1
  Ni  Ni49  1  0.66706098  0.33750491  0.66543506  1
  Ni  Ni50  1  0.83459471  0.50297057  0.83357946  1
  Ni  Ni51  1  0.83294230  0.83420987  0.50056529  1
  Ni  Ni52  1  0.66760365  0.66519177  0.66712531  1
  Ni  Ni53  1  0.83503105  0.83032250  0.83410536  1
" 