2061,Ni81Cr19_5,-207.121221069041, 159.483446714472,Ni81Cr19,"# generated using pymatgen
 data_Cr43Ni11
_symmetry_space_group_name_H-M   'P 1'
_cell_length_a   7.58034664
_cell_length_b   7.58034664
_cell_length_c   10.72022903
_cell_angle_alpha   90.00000000
_cell_angle_beta   90.00000000
_cell_angle_gamma   90.00000000
_symmetry_Int_Tables_number   1
_chemical_formula_structural   Cr43Ni11
_chemical_formula_sum   'Cr43 Ni11'
_cell_volume   616.00210439
_cell_formula_units_Z   1
loop_
 _symmetry_equiv_pos_site_id
 _symmetry_equiv_pos_as_xyz
  1  'x, y, z'
loop_
 _atom_site_type_symbol
 _atom_site_label
 _atom_site_symmetry_multiplicity
 _atom_site_fract_x
 _atom_site_fract_y
 _atom_site_fract_z
 _atom_site_occupancy
  Cr  Cr0  1  -0.00491553  0.98993676  0.99129543  1
  Cr  Cr1  1  0.15904198  0.15890360  0.15982667  1
  Cr  Cr2  1  -0.00535363  0.99227199  0.32661714  1
  Cr  Cr3  1  0.99085246  0.32770895  -0.00746161  1
  Cr  Cr4  1  0.15710519  0.49503905  0.16199039  1
  Ni  Ni5  1  0.99043027  0.32833203  0.32625721  1
  Cr  Cr6  1  0.99245182  0.66003841  -0.00652558  1
  Ni  Ni7  1  0.15924384  0.82353682  0.16088146  1
  Ni  Ni8  1  -0.00559641  0.65669832  0.32340736  1
  Cr  Cr9  1  0.32463622  -0.00745575  -0.00546326  1
  Ni  Ni10  1  0.49511682  0.16150096  0.15886577  1
  Cr  Cr11  1  0.32524267  -0.00695112  0.32420565  1
  Cr  Cr12  1  0.32830978  0.32435660  -0.00728125  1
  Cr  Cr13  1  0.49375218  0.49061836  0.15940794  1
  Cr  Cr14  1  0.32593824  0.32456307  0.32659674  1
  Cr  Cr15  1  0.32400062  0.66071921  0.99208281  1
  Cr  Cr16  1  0.48978822  0.82653089  0.16052988  1
  Ni  Ni17  1  0.32247951  0.66000895  0.32524010  1
  Cr  Cr18  1  0.65780455  -0.00599149  -0.00648820  1
  Cr  Cr19  1  0.82374180  0.16261530  0.15897663  1
  Cr  Cr20  1  0.65766561  -0.00598824  0.32599278  1
  Ni  Ni21  1  0.65920309  0.32577178  -0.00515725  1
  Ni  Ni22  1  0.82573759  0.49015043  0.16121951  1
  Ni  Ni23  1  0.66148316  0.32639283  0.32317747  1
  Cr  Cr24  1  0.66112644  0.65628833  -0.00728122  1
  Cr  Cr25  1  0.82834973  0.82451474  0.16024089  1
  Cr  Cr26  1  0.66082233  0.65691677  0.32564120  1
  Ni  Ni27  1  0.15787974  0.16025378  0.49185445  1
  Cr  Cr28  1  -0.00575200  -0.00723982  0.65956221  1
  Cr  Cr29  1  0.15823848  0.15835104  0.82537176  1
  Cr  Cr30  1  0.15972308  0.49269545  0.49108128  1
  Cr  Cr31  1  -0.00591693  0.32513658  0.65782159  1
  Cr  Cr32  1  0.16087560  0.49468417  0.82445062  1
  Cr  Cr33  1  0.16039694  0.82404059  0.49135588  1
  Cr  Cr34  1  -0.00688753  0.65967772  0.66111612  1
  Ni  Ni35  1  0.16045503  0.82469347  0.82497227  1
  Cr  Cr36  1  0.49285506  0.15950739  0.49152947  1
  Cr  Cr37  1  0.32403553  -0.00733636  0.65885559  1
  Cr  Cr38  1  0.49418982  0.15992173  0.82824458  1
  Cr  Cr39  1  0.49044758  0.49445135  0.49307131  1
  Cr  Cr40  1  0.32465209  0.32597644  0.65829626  1
  Cr  Cr41  1  0.49142681  0.49288297  0.82507851  1
  Cr  Cr42  1  0.49090207  0.82361247  0.49332874  1
  Ni  Ni43  1  0.32463083  0.66065278  0.66043380  1
  Cr  Cr44  1  0.49032920  0.82472100  0.82376255  1
  Cr  Cr45  1  0.82774180  0.16021298  0.49172469  1
  Cr  Cr46  1  0.65935435  0.99167832  0.65818112  1
  Cr  Cr47  1  0.82518959  0.15941765  0.82673730  1
  Cr  Cr48  1  0.82732863  0.49126105  0.48933936  1
  Cr  Cr49  1  0.65889576  0.32690467  0.65925146  1
  Cr  Cr50  1  0.82531340  0.49079014  0.82754633  1
  Cr  Cr51  1  0.82619508  0.82612940  0.49233916  1
  Cr  Cr52  1  0.65854337  0.65898700  0.65927902  1
  Cr  Cr53  1  0.82694474  0.82735518  0.82506665  1
" 