5044,Ni81Fe13Cr4_6,-238.91565344098, 191.579660797188,Ni81Fe13Cr4,"# generated using pymatgen
 data_Cr4Fe7Ni43
_symmetry_space_group_name_H-M   'P 1'
_cell_length_a   7.43956962
_cell_length_b   7.43956962
_cell_length_c   10.52114026
_cell_angle_alpha   90.00000000
_cell_angle_beta   90.00000000
_cell_angle_gamma   90.00000000
_symmetry_Int_Tables_number   1
_chemical_formula_structural   Cr4Fe7Ni43
_chemical_formula_sum   'Cr4 Fe7 Ni43'
_cell_volume   582.31561398
_cell_formula_units_Z   1
loop_
 _symmetry_equiv_pos_site_id
 _symmetry_equiv_pos_as_xyz
  1  'x, y, z'
loop_
 _atom_site_type_symbol
 _atom_site_label
 _atom_site_symmetry_multiplicity
 _atom_site_fract_x
 _atom_site_fract_y
 _atom_site_fract_z
 _atom_site_occupancy
  Ni  Ni0  1  1.00078998  0.00222227  0.00188521  1
  Ni  Ni1  1  0.16941933  0.16721492  0.16806978  1
  Ni  Ni2  1  0.00359384  1.00028893  0.33584680  1
  Ni  Ni3  1  0.00326507  0.33413252  0.00261076  1
  Ni  Ni4  1  0.16901679  0.50222464  0.16695712  1
  Cr  Cr5  1  1.00153660  0.33452910  0.33436337  1
  Ni  Ni6  1  0.00296399  0.66918643  0.00277115  1
  Ni  Ni7  1  0.16734469  0.83610024  0.16911102  1
  Ni  Ni8  1  1.00120531  0.67083709  0.33445611  1
  Fe  Fe9  1  0.33476258  0.00189343  1.00137746  1
  Fe  Fe10  1  0.50078397  0.17017462  0.16789485  1
  Ni  Ni11  1  0.33342110  0.00190268  0.33543205  1
  Ni  Ni12  1  0.33481758  0.33615390  1.00179970  1
  Ni  Ni13  1  0.50298420  0.50117521  0.16860801  1
  Ni  Ni14  1  0.33737260  0.33467366  0.33454941  1
  Ni  Ni15  1  0.33526847  0.66731178  1.00139245  1
  Fe  Fe16  1  0.50081252  0.83313024  0.16782756  1
  Ni  Ni17  1  0.33606724  0.66896268  0.33476046  1
  Ni  Ni18  1  0.66933006  1.00176828  1.00148412  1
  Fe  Fe19  1  0.83610865  0.16892057  0.16703555  1
  Cr  Cr20  1  0.66895882  1.00150127  0.33568093  1
  Ni  Ni21  1  0.66745831  0.33398470  0.00262201  1
  Ni  Ni22  1  0.83353867  0.50324804  0.16839941  1
  Ni  Ni23  1  0.66665225  0.33706155  0.33584411  1
  Ni  Ni24  1  0.66730586  0.66978489  0.00293235  1
  Ni  Ni25  1  0.83645142  0.83383212  0.16742164  1
  Ni  Ni26  1  0.66826635  0.66688492  0.33533517  1
  Ni  Ni27  1  0.16930702  0.16536140  0.50244356  1
  Ni  Ni28  1  1.00131820  0.00251251  0.66780840  1
  Ni  Ni29  1  0.16894974  0.16805078  0.83502426  1
  Cr  Cr30  1  0.16898376  0.50272301  0.50248083  1
  Ni  Ni31  1  0.00274754  0.33341304  0.66867877  1
  Ni  Ni32  1  0.16953097  0.50166624  0.83595454  1
  Ni  Ni33  1  0.16801035  0.83771599  0.50119482  1
  Ni  Ni34  1  1.00172234  0.66961528  0.66831158  1
  Ni  Ni35  1  0.16869268  0.83582261  0.83523282  1
  Ni  Ni36  1  0.50126598  0.16920883  0.50218854  1
  Ni  Ni37  1  0.33555968  0.00231158  0.66832126  1
  Ni  Ni38  1  0.50145104  0.16806050  0.83547605  1
  Ni  Ni39  1  0.50458140  0.50147445  0.50180977  1
  Ni  Ni40  1  0.33517447  0.33465596  0.66918954  1
  Ni  Ni41  1  0.50093038  0.50171710  0.83512263  1
  Ni  Ni42  1  0.50157057  0.83485696  0.50222221  1
  Ni  Ni43  1  0.33639919  0.66857239  0.66938708  1
  Ni  Ni44  1  0.50175752  0.83576219  0.83568440  1
  Ni  Ni45  1  0.83496611  0.16837151  0.50337806  1
  Ni  Ni46  1  0.66866234  1.00128863  0.66861687  1
  Fe  Fe47  1  0.83536930  0.16695626  0.83508135  1
  Ni  Ni48  1  0.83210936  0.50277175  0.50171624  1
  Fe  Fe49  1  0.66751057  0.33454511  0.66724917  1
  Cr  Cr50  1  0.83520454  0.50224209  0.83527887  1
  Ni  Ni51  1  0.83595849  0.83439812  0.50284499  1
  Ni  Ni52  1  0.66741764  0.67000244  0.66727071  1
  Fe  Fe53  1  0.83507683  0.83654685  0.83528842  1
" 