3761,Ni81Fe12Cr5_5,-238.571503999942, 186.427211366561,Ni81Fe12Cr5,"# generated using pymatgen
 data_Cr2Fe3Ni22
_symmetry_space_group_name_H-M   'P 1'
_cell_length_a   7.44271300
_cell_length_b   7.44271300
_cell_length_c   10.52558567
_cell_angle_alpha   90.00000000
_cell_angle_beta   90.00000000
_cell_angle_gamma   90.00000000
_symmetry_Int_Tables_number   1
_chemical_formula_structural   Cr2Fe3Ni22
_chemical_formula_sum   'Cr4 Fe6 Ni44'
_cell_volume   583.05404878
_cell_formula_units_Z   2
loop_
 _symmetry_equiv_pos_site_id
 _symmetry_equiv_pos_as_xyz
  1  'x, y, z'
loop_
 _atom_site_type_symbol
 _atom_site_label
 _atom_site_symmetry_multiplicity
 _atom_site_fract_x
 _atom_site_fract_y
 _atom_site_fract_z
 _atom_site_occupancy
  Ni  Ni0  1  0.00190804  0.00248188  1.00142954  1
  Ni  Ni1  1  0.16943853  0.16753693  0.16870633  1
  Ni  Ni2  1  0.00387114  0.00385591  0.33345121  1
  Ni  Ni3  1  1.00093785  0.33487803  0.00211919  1
  Ni  Ni4  1  0.17051926  0.50146759  0.16617831  1
  Ni  Ni5  1  0.00287572  0.33477376  0.33389263  1
  Ni  Ni6  1  0.00192515  0.66737290  1.00111656  1
  Ni  Ni7  1  0.16894390  0.83585910  0.16809973  1
  Cr  Cr8  1  0.00362442  0.66585129  0.33350129  1
  Ni  Ni9  1  0.33536623  1.00122814  1.00111316  1
  Ni  Ni10  1  0.50141252  0.16967836  0.16814014  1
  Ni  Ni11  1  0.33540048  0.00204285  0.33590803  1
  Fe  Fe12  1  0.33549505  0.33465852  0.00181449  1
  Ni  Ni13  1  0.50167493  0.50087573  0.16917103  1
  Ni  Ni14  1  0.33439733  0.33500724  0.33437260  1
  Ni  Ni15  1  0.33520971  0.66865669  1.00130735  1
  Fe  Fe16  1  0.50094538  0.83489196  0.16858496  1
  Ni  Ni17  1  0.33637583  0.66795253  0.33543527  1
  Ni  Ni18  1  0.66772709  0.00229463  0.00165995  1
  Ni  Ni19  1  0.83412987  0.16820859  0.16827840  1
  Ni  Ni20  1  0.66565110  0.00209913  0.33250379  1
  Ni  Ni21  1  0.66904509  0.33486304  1.00083979  1
  Ni  Ni22  1  0.83285561  0.50120818  0.16759922  1
  Ni  Ni23  1  0.66741867  0.33572136  0.33539626  1
  Ni  Ni24  1  0.66764101  0.66789207  0.00186044  1
  Ni  Ni25  1  0.83491998  0.83549552  0.16718055  1
  Ni  Ni26  1  0.66567225  0.66722107  0.33417890  1
  Ni  Ni27  1  0.17115533  0.16854314  0.50148114  1
  Ni  Ni28  1  0.00484835  0.00274400  0.66987339  1
  Ni  Ni29  1  0.16932751  0.16671709  0.83474210  1
  Ni  Ni30  1  0.16928827  0.50099562  0.50297695  1
  Ni  Ni31  1  0.00308199  0.33588836  0.66887395  1
  Fe  Fe32  1  0.16780832  0.50094475  0.83503817  1
  Ni  Ni33  1  0.17145911  0.83546505  0.50284552  1
  Ni  Ni34  1  0.00237783  0.66623114  0.66951241  1
  Ni  Ni35  1  0.16812411  0.83501030  0.83388795  1
  Ni  Ni36  1  0.49854472  0.16933382  0.50118222  1
  Ni  Ni37  1  0.33404172  0.00237055  0.66778944  1
  Ni  Ni38  1  0.49964465  0.17091328  0.83588872  1
  Fe  Fe39  1  0.50035629  0.50161720  0.50150479  1
  Ni  Ni40  1  0.33394160  0.33465006  0.66880064  1
  Ni  Ni41  1  0.50165591  0.50145930  0.83428749  1
  Ni  Ni42  1  0.49896595  0.83439724  0.50090748  1
  Ni  Ni43  1  0.33524254  0.66790137  0.66805296  1
  Fe  Fe44  1  0.50085709  0.83407699  0.83551261  1
  Cr  Cr45  1  0.83571438  0.17060153  0.50074986  1
  Cr  Cr46  1  0.66575880  0.00178700  0.67130796  1
  Ni  Ni47  1  0.83589808  0.16924000  0.83596036  1
  Ni  Ni48  1  0.83371155  0.50124137  0.50273116  1
  Fe  Fe49  1  0.66728086  0.33659243  0.66954045  1
  Ni  Ni50  1  0.83329392  0.50256864  0.83475118  1
  Cr  Cr51  1  0.83595334  0.83332178  0.50154282  1
  Ni  Ni52  1  0.66712308  0.66634918  0.66873113  1
  Ni  Ni53  1  0.83744144  0.83324471  0.83596688  1
" 