1192,Ni81Fe6Cr11_7,-235.567804542071, 172.406093005428,Ni81Fe6Cr11,"# generated using pymatgen
 data_Cr7Fe3Ni44
_symmetry_space_group_name_H-M   'P 1'
_cell_length_a   7.45790622
_cell_length_b   7.45790622
_cell_length_c   10.54707212
_cell_angle_alpha   90.00000000
_cell_angle_beta   90.00000000
_cell_angle_gamma   90.00000000
_symmetry_Int_Tables_number   1
_chemical_formula_structural   Cr7Fe3Ni44
_chemical_formula_sum   'Cr7 Fe3 Ni44'
_cell_volume   586.63200298
_cell_formula_units_Z   1
loop_
 _symmetry_equiv_pos_site_id
 _symmetry_equiv_pos_as_xyz
  1  'x, y, z'
loop_
 _atom_site_type_symbol
 _atom_site_label
 _atom_site_symmetry_multiplicity
 _atom_site_fract_x
 _atom_site_fract_y
 _atom_site_fract_z
 _atom_site_occupancy
  Ni  Ni0  1  0.00389801  0.00188583  1.00003719  1
  Fe  Fe1  1  0.16827629  0.16739039  0.16756740  1
  Ni  Ni2  1  0.00443724  0.00092946  0.33344404  1
  Ni  Ni3  1  0.00122785  0.33385930  0.99967851  1
  Ni  Ni4  1  0.16852843  0.50113042  0.16699178  1
  Ni  Ni5  1  0.00287004  0.33455796  0.33406268  1
  Ni  Ni6  1  0.00335338  0.66660800  0.99841090  1
  Ni  Ni7  1  0.16885709  0.83404597  0.16757018  1
  Ni  Ni8  1  0.00358108  0.66670464  0.33626813  1
  Ni  Ni9  1  0.33183405  0.99902468  0.00149537  1
  Ni  Ni10  1  0.49809546  0.16914251  0.16733546  1
  Ni  Ni11  1  0.33243924  1.00048359  0.33401615  1
  Fe  Fe12  1  0.33190905  0.33421996  0.00163399  1
  Ni  Ni13  1  0.49892228  0.49951409  0.16710847  1
  Ni  Ni14  1  0.33359731  0.33445456  0.33353035  1
  Ni  Ni15  1  0.33242532  0.66863614  0.00181544  1
  Ni  Ni16  1  0.49732292  0.83309801  0.16697698  1
  Ni  Ni17  1  0.33353445  0.66706486  0.33356118  1
  Cr  Cr18  1  0.66681071  1.00041417  1.00009940  1
  Fe  Fe19  1  0.83547482  0.16859897  0.16728995  1
  Cr  Cr20  1  0.66468475  1.00021486  0.33400912  1
  Ni  Ni21  1  0.66902515  0.33447816  0.00183192  1
  Cr  Cr22  1  0.83480058  0.50086060  0.16841668  1
  Ni  Ni23  1  0.66570511  0.33534590  0.33383314  1
  Ni  Ni24  1  0.66586428  0.66616014  1.00003943  1
  Cr  Cr25  1  0.83817205  0.83248280  0.16837856  1
  Ni  Ni26  1  0.66485676  0.66563190  0.33555154  1
  Ni  Ni27  1  0.16942320  0.16712503  0.50015673  1
  Ni  Ni28  1  0.00191718  1.00018784  0.66875143  1
  Ni  Ni29  1  0.16539101  0.16683878  0.83423180  1
  Ni  Ni30  1  0.16737914  0.50049963  0.50037285  1
  Ni  Ni31  1  0.00181774  0.33485610  0.66842207  1
  Ni  Ni32  1  0.16521969  0.50074025  0.83427881  1
  Ni  Ni33  1  0.16692123  0.83421699  0.49992136  1
  Ni  Ni34  1  0.00127606  0.66665872  0.66749892  1
  Ni  Ni35  1  0.16705700  0.83424550  0.83445450  1
  Ni  Ni36  1  0.49794566  0.16841135  0.50197829  1
  Ni  Ni37  1  0.33251364  0.99931944  0.66603862  1
  Cr  Cr38  1  0.49806807  0.16712279  0.83051294  1
  Ni  Ni39  1  0.50016337  0.50000677  0.49980650  1
  Ni  Ni40  1  0.33096664  0.33455143  0.66565247  1
  Cr  Cr41  1  0.49941080  0.50173430  0.83461843  1
  Ni  Ni42  1  0.49916617  0.83324667  0.50141946  1
  Ni  Ni43  1  0.33268644  0.66789466  0.66648450  1
  Ni  Ni44  1  0.49908614  0.83344576  0.83363317  1
  Cr  Cr45  1  0.83578538  0.16757579  0.50084599  1
  Ni  Ni46  1  0.66735453  0.99869315  0.66761827  1
  Ni  Ni47  1  0.83606679  0.16811845  0.83409141  1
  Ni  Ni48  1  0.83426958  0.50226687  0.50019559  1
  Ni  Ni49  1  0.66846493  0.33506103  0.66608806  1
  Ni  Ni50  1  0.83524903  0.50068381  0.83405782  1
  Ni  Ni51  1  0.83562227  0.83155292  0.50098398  1
  Ni  Ni52  1  0.66765116  0.66805148  0.66663954  1
  Ni  Ni53  1  0.83571820  0.83305139  0.83338733  1
" 