4435,Ni81Fe6Cr11_18,-235.749748921337, 177.141788335145,Ni81Fe6Cr11,"# generated using pymatgen
 data_Cr7Fe3Ni44
_symmetry_space_group_name_H-M   'P 1'
_cell_length_a   7.45509337
_cell_length_b   7.45509337
_cell_length_c   10.54309416
_cell_angle_alpha   90.00000000
_cell_angle_beta   90.00000000
_cell_angle_gamma   90.00000000
_symmetry_Int_Tables_number   1
_chemical_formula_structural   Cr7Fe3Ni44
_chemical_formula_sum   'Cr7 Fe3 Ni44'
_cell_volume   585.96848601
_cell_formula_units_Z   1
loop_
 _symmetry_equiv_pos_site_id
 _symmetry_equiv_pos_as_xyz
  1  'x, y, z'
loop_
 _atom_site_type_symbol
 _atom_site_label
 _atom_site_symmetry_multiplicity
 _atom_site_fract_x
 _atom_site_fract_y
 _atom_site_fract_z
 _atom_site_occupancy
  Cr  Cr0  1  0.00118239  0.00103896  1.00058745  1
  Ni  Ni1  1  0.16775528  0.16889867  0.16806349  1
  Ni  Ni2  1  1.00069954  0.00290312  0.33435453  1
  Ni  Ni3  1  0.00239998  0.33577499  0.00086077  1
  Ni  Ni4  1  0.16722834  0.49968129  0.16635008  1
  Ni  Ni5  1  1.00042245  0.33235150  0.33381041  1
  Ni  Ni6  1  0.00081508  0.66572780  1.00035883  1
  Ni  Ni7  1  0.16861241  0.83382624  0.16790928  1
  Cr  Cr8  1  0.00080793  0.66738225  0.33445705  1
  Ni  Ni9  1  0.33501516  0.99985862  0.00187604  1
  Ni  Ni10  1  0.50021856  0.16516320  0.16862579  1
  Ni  Ni11  1  0.33457773  0.00113669  0.33376648  1
  Ni  Ni12  1  0.33086386  0.33407953  1.00037414  1
  Cr  Cr13  1  0.49916940  0.50178053  0.16848433  1
  Ni  Ni14  1  0.33284129  0.33210176  0.33430015  1
  Ni  Ni15  1  0.33349156  0.66846640  0.99970039  1
  Ni  Ni16  1  0.50150746  0.83541690  0.16720654  1
  Ni  Ni17  1  0.33450254  0.66917082  0.33422885  1
  Ni  Ni18  1  0.66640807  0.99827563  0.00137821  1
  Ni  Ni19  1  0.83443252  0.16653962  0.16935078  1
  Ni  Ni20  1  0.66712954  0.00124253  0.33415266  1
  Cr  Cr21  1  0.66901808  0.33396997  1.00046923  1
  Fe  Fe22  1  0.83587741  0.50081139  0.16747608  1
  Ni  Ni23  1  0.66914419  0.33226927  0.33453089  1
  Ni  Ni24  1  0.66809979  0.66987905  0.99987231  1
  Ni  Ni25  1  0.83228826  0.83489407  0.16720690  1
  Ni  Ni26  1  0.66737799  0.66889265  0.33394262  1
  Ni  Ni27  1  0.16797631  0.16746107  0.49970303  1
  Ni  Ni28  1  0.00128328  0.99924449  0.66748917  1
  Ni  Ni29  1  0.16724737  0.16807456  0.83464015  1
  Ni  Ni30  1  0.16767802  0.50011521  0.50064903  1
  Cr  Cr31  1  1.00013118  0.33388191  0.66788312  1
  Ni  Ni32  1  0.16840402  0.50147599  0.83540779  1
  Fe  Fe33  1  0.16797143  0.83536414  0.50177650  1
  Ni  Ni34  1  1.00021057  0.66945904  0.66775148  1
  Ni  Ni35  1  0.16779314  0.83285549  0.83289695  1
  Ni  Ni36  1  0.50048243  0.16610437  0.50035456  1
  Ni  Ni37  1  0.33292920  0.99996421  0.66676324  1
  Cr  Cr38  1  0.49980742  0.16721871  0.83348214  1
  Cr  Cr39  1  0.50012529  0.50086098  0.50097389  1
  Ni  Ni40  1  0.33482672  0.33369940  0.66773040  1
  Ni  Ni41  1  0.49972845  0.50330602  0.83287353  1
  Ni  Ni42  1  0.50155451  0.83529502  0.50024660  1
  Ni  Ni43  1  0.33400009  0.66874412  0.66847602  1
  Ni  Ni44  1  0.50118152  0.83186541  0.83495201  1
  Ni  Ni45  1  0.83394692  0.16621978  0.49987225  1
  Fe  Fe46  1  0.66802539  0.99963363  0.66660975  1
  Ni  Ni47  1  0.83526134  0.16661819  0.83318341  1
  Ni  Ni48  1  0.83440988  0.50118544  0.50015060  1
  Ni  Ni49  1  0.66747654  0.33477249  0.66732709  1
  Ni  Ni50  1  0.83427423  0.50276208  0.83462004  1
  Ni  Ni51  1  0.83305689  0.83499844  0.50176849  1
  Ni  Ni52  1  0.66819600  0.66755850  0.66858830  1
  Ni  Ni53  1  0.83342953  0.83302233  0.83343062  1
" 