5686,Ni81Fe3Cr15_7,-232.516998758169, 158.896713928772,Ni81Fe3Cr15,"# generated using pymatgen
 data_Cr10FeNi43
_symmetry_space_group_name_H-M   'P 1'
_cell_length_a   7.47106653
_cell_length_b   7.47106653
_cell_length_c   10.56568362
_cell_angle_alpha   90.00000000
_cell_angle_beta   90.00000000
_cell_angle_gamma   90.00000000
_symmetry_Int_Tables_number   1
_chemical_formula_structural   Cr10FeNi43
_chemical_formula_sum   'Cr10 Fe1 Ni43'
_cell_volume   589.74302038
_cell_formula_units_Z   1
loop_
 _symmetry_equiv_pos_site_id
 _symmetry_equiv_pos_as_xyz
  1  'x, y, z'
loop_
 _atom_site_type_symbol
 _atom_site_label
 _atom_site_symmetry_multiplicity
 _atom_site_fract_x
 _atom_site_fract_y
 _atom_site_fract_z
 _atom_site_occupancy
  Ni  Ni0  1  0.99972068  0.99840981  -0.00014700  1
  Cr  Cr1  1  0.16741710  0.16607494  0.16521311  1
  Ni  Ni2  1  0.99790721  0.99653813  0.33332860  1
  Ni  Ni3  1  0.99881054  0.33393133  0.00014265  1
  Ni  Ni4  1  0.16626751  0.50031550  0.16675286  1
  Cr  Cr5  1  0.99859785  0.33346728  0.33285185  1
  Ni  Ni6  1  0.99717369  0.66685157  0.00063349  1
  Fe  Fe7  1  0.16385140  0.83223911  0.16728462  1
  Ni  Ni8  1  0.00107855  0.66897425  0.33193864  1
  Ni  Ni9  1  0.33310794  0.00179561  0.99746136  1
  Ni  Ni10  1  0.50074768  0.16820277  0.16604327  1
  Ni  Ni11  1  0.33329738  0.99792109  0.33293932  1
  Ni  Ni12  1  0.33385205  0.33038219  0.00072442  1
  Ni  Ni13  1  0.50020991  0.49727563  0.16775699  1
  Ni  Ni14  1  0.33575484  0.33584652  0.33207204  1
  Cr  Cr15  1  0.33239737  0.66718799  0.00040466  1
  Cr  Cr16  1  0.50109657  0.83387172  0.16717661  1
  Ni  Ni17  1  0.33229458  0.66542463  0.33452031  1
  Ni  Ni18  1  0.66636427  0.00015648  -0.00022325  1
  Ni  Ni19  1  0.83117372  0.16565678  0.16630283  1
  Ni  Ni20  1  0.66798652  0.00000014  0.33324086  1
  Ni  Ni21  1  0.66653086  0.33293010  0.00173712  1
  Ni  Ni22  1  0.83271575  0.50082449  0.16470932  1
  Ni  Ni23  1  0.66443671  0.33267577  0.33122324  1
  Ni  Ni24  1  0.66991411  0.66610700  0.99933202  1
  Ni  Ni25  1  0.83421487  0.83271067  0.16639766  1
  Ni  Ni26  1  0.66582037  0.66651653  0.33307608  1
  Cr  Cr27  1  0.16538582  0.16603795  0.50110167  1
  Ni  Ni28  1  -0.00021193  0.99856310  0.66601102  1
  Ni  Ni29  1  0.16838368  0.16460575  0.83305406  1
  Ni  Ni30  1  0.16894417  0.50208017  0.50039184  1
  Ni  Ni31  1  -0.00021462  0.33312114  0.66658856  1
  Cr  Cr32  1  0.16381689  0.49831316  0.83188475  1
  Ni  Ni33  1  0.16639759  0.83139055  0.49896789  1
  Ni  Ni34  1  -0.00004442  0.66750924  0.66662080  1
  Ni  Ni35  1  0.16583907  0.83596693  0.83282315  1
  Cr  Cr36  1  0.50100468  0.16632337  0.49920628  1
  Ni  Ni37  1  0.33300514  0.99823232  0.66879091  1
  Ni  Ni38  1  0.49737347  0.16422301  0.83379145  1
  Ni  Ni39  1  0.49775873  0.50162096  0.49916922  1
  Ni  Ni40  1  0.33284321  0.33328632  0.66639617  1
  Cr  Cr41  1  0.50216883  0.49940058  0.83221430  1
  Ni  Ni42  1  0.49968484  0.83122810  0.50015460  1
  Ni  Ni43  1  0.33300325  0.66767498  0.66397808  1
  Ni  Ni44  1  0.50046618  0.83580320  0.83186053  1
  Ni  Ni45  1  0.83265162  0.16379580  0.50000955  1
  Ni  Ni46  1  0.66639945  0.99840247  0.66617476  1
  Cr  Cr47  1  0.83358633  0.16668034  0.83261390  1
  Cr  Cr48  1  0.83242541  0.50039834  0.50133959  1
  Ni  Ni49  1  0.66656451  0.33311851  0.66623245  1
  Ni  Ni50  1  0.83327153  0.50171344  0.83362576  1
  Ni  Ni51  1  0.83311030  0.83464018  0.49957627  1
  Ni  Ni52  1  0.66623454  0.66767236  0.66678565  1
  Ni  Ni53  1  0.83288751  0.83138554  0.83321897  1
" 