3796,Ni81Fe13Cr4_15,-239.075991235289, 192.793509561138,Ni81Fe13Cr4,"# generated using pymatgen
 data_Cr4Fe7Ni43
_symmetry_space_group_name_H-M   'P 1'
_cell_length_a   7.44108059
_cell_length_b   7.44108059
_cell_length_c   10.52327709
_cell_angle_alpha   90.00000000
_cell_angle_beta   90.00000000
_cell_angle_gamma   90.00000000
_symmetry_Int_Tables_number   1
_chemical_formula_structural   Cr4Fe7Ni43
_chemical_formula_sum   'Cr4 Fe7 Ni43'
_cell_volume   582.67048798
_cell_formula_units_Z   1
loop_
 _symmetry_equiv_pos_site_id
 _symmetry_equiv_pos_as_xyz
  1  'x, y, z'
loop_
 _atom_site_type_symbol
 _atom_site_label
 _atom_site_symmetry_multiplicity
 _atom_site_fract_x
 _atom_site_fract_y
 _atom_site_fract_z
 _atom_site_occupancy
  Ni  Ni0  1  1.00116166  0.00321338  1.00140314  1
  Ni  Ni1  1  0.16927470  0.16742938  0.16698017  1
  Ni  Ni2  1  1.00129529  0.99953295  0.33505079  1
  Ni  Ni3  1  0.00299064  0.33429343  1.00108433  1
  Ni  Ni4  1  0.16921039  0.50123937  0.16817387  1
  Cr  Cr5  1  0.00201990  0.33572952  0.33445431  1
  Cr  Cr6  1  0.00285742  0.66763341  1.00112410  1
  Ni  Ni7  1  0.16900308  0.83656478  0.16971014  1
  Ni  Ni8  1  1.00172667  0.66977889  0.33591747  1
  Ni  Ni9  1  0.33594214  1.00112257  1.00077747  1
  Ni  Ni10  1  0.50063598  0.16764689  0.16924065  1
  Ni  Ni11  1  0.33565898  1.00112779  0.33547671  1
  Ni  Ni12  1  0.33277895  0.33504686  0.00238366  1
  Ni  Ni13  1  0.50193437  0.50225609  0.16968658  1
  Ni  Ni14  1  0.33720647  0.33587298  0.33495007  1
  Ni  Ni15  1  0.33541346  0.66906884  0.00244398  1
  Ni  Ni16  1  0.50193570  0.83533423  0.16796947  1
  Ni  Ni17  1  0.33518638  0.66823233  0.33500561  1
  Ni  Ni18  1  0.66812446  1.00057641  1.00121361  1
  Fe  Fe19  1  0.83509653  0.16708330  0.16783477  1
  Ni  Ni20  1  0.66827737  1.00155340  0.33505166  1
  Cr  Cr21  1  0.66927914  0.33368632  0.00216768  1
  Ni  Ni22  1  0.83408885  0.50253374  0.16903904  1
  Ni  Ni23  1  0.66673277  0.33543929  0.33586927  1
  Fe  Fe24  1  0.66737208  0.67082986  0.00281855  1
  Fe  Fe25  1  0.83443523  0.83579431  0.16962724  1
  Ni  Ni26  1  0.66832047  0.66824200  0.33458143  1
  Ni  Ni27  1  0.16977584  0.16736643  0.50236035  1
  Ni  Ni28  1  1.00068443  0.00211790  0.66878219  1
  Ni  Ni29  1  0.16793075  0.16826999  0.83589274  1
  Ni  Ni30  1  0.16869275  0.50203580  0.50219767  1
  Ni  Ni31  1  1.00155056  0.33570115  0.66962263  1
  Ni  Ni32  1  0.16691053  0.50031066  0.83486110  1
  Ni  Ni33  1  0.16768522  0.83583648  0.50122851  1
  Fe  Fe34  1  0.00263255  0.66877674  0.66810968  1
  Ni  Ni35  1  0.16879189  0.83666009  0.83429803  1
  Ni  Ni36  1  0.50115647  0.16859103  0.50143680  1
  Ni  Ni37  1  0.33594403  1.00108822  0.66898036  1
  Ni  Ni38  1  0.50088118  0.16552750  0.83456165  1
  Ni  Ni39  1  0.50245170  0.50102495  0.50068257  1
  Ni  Ni40  1  0.33378048  0.33543234  0.66789852  1
  Cr  Cr41  1  0.50087601  0.50223197  0.83500024  1
  Ni  Ni42  1  0.50224080  0.83561488  0.50163207  1
  Ni  Ni43  1  0.33440621  0.66871133  0.66778764  1
  Ni  Ni44  1  0.50219313  0.83722926  0.83562695  1
  Fe  Fe45  1  0.83443869  0.16719160  0.50291949  1
  Ni  Ni46  1  0.66860646  1.00149697  0.66897076  1
  Ni  Ni47  1  0.83641665  0.16741122  0.83459687  1
  Ni  Ni48  1  0.83408940  0.50311306  0.50263504  1
  Fe  Fe49  1  0.66864672  0.33347067  0.66743767  1
  Ni  Ni50  1  0.83699809  0.50161632  0.83355653  1
  Ni  Ni51  1  0.83531198  0.83453537  0.50090687  1
  Fe  Fe52  1  0.66892019  0.66978367  0.66711631  1
  Ni  Ni53  1  0.83424970  0.83621356  0.83508645  1
" 