6472,Ni81Fe13Cr4_9,-238.915473667194, 190.837137013122,Ni81Fe13Cr4,"# generated using pymatgen
 data_Cr4Fe7Ni43
_symmetry_space_group_name_H-M   'P 1'
_cell_length_a   7.44026446
_cell_length_b   7.44026446
_cell_length_c   10.52212290
_cell_angle_alpha   90.00000000
_cell_angle_beta   90.00000000
_cell_angle_gamma   90.00000000
_symmetry_Int_Tables_number   1
_chemical_formula_structural   Cr4Fe7Ni43
_chemical_formula_sum   'Cr4 Fe7 Ni43'
_cell_volume   582.47878914
_cell_formula_units_Z   1
loop_
 _symmetry_equiv_pos_site_id
 _symmetry_equiv_pos_as_xyz
  1  'x, y, z'
loop_
 _atom_site_type_symbol
 _atom_site_label
 _atom_site_symmetry_multiplicity
 _atom_site_fract_x
 _atom_site_fract_y
 _atom_site_fract_z
 _atom_site_occupancy
  Ni  Ni0  1  1.00163940  0.00233099  0.00223359  1
  Ni  Ni1  1  0.16854375  0.16868046  0.16839839  1
  Ni  Ni2  1  1.00155866  0.00243115  0.33456052  1
  Ni  Ni3  1  0.00343363  0.33395730  1.00054231  1
  Ni  Ni4  1  0.16902486  0.50163307  0.16823781  1
  Ni  Ni5  1  1.00154936  0.33367084  0.33682806  1
  Ni  Ni6  1  0.00397281  0.66886001  1.00077952  1
  Ni  Ni7  1  0.16833549  0.83488867  0.16701869  1
  Ni  Ni8  1  0.00459818  0.66942265  0.33630172  1
  Ni  Ni9  1  0.33310690  0.00205408  0.00347035  1
  Ni  Ni10  1  0.50147835  0.16778887  0.16840959  1
  Ni  Ni11  1  0.33497423  1.00037131  0.33557154  1
  Ni  Ni12  1  0.33326024  0.33651220  0.00340926  1
  Ni  Ni13  1  0.49942131  0.50045230  0.16837824  1
  Fe  Fe14  1  0.33437080  0.33411961  0.33533296  1
  Ni  Ni15  1  0.33261876  0.66681564  0.00211058  1
  Ni  Ni16  1  0.50060983  0.83683012  0.16913748  1
  Ni  Ni17  1  0.33491021  0.66807611  0.33466585  1
  Ni  Ni18  1  0.67094215  0.00290065  0.00340028  1
  Ni  Ni19  1  0.83525090  0.16757705  0.16710948  1
  Ni  Ni20  1  0.66883096  0.00354258  0.33546036  1
  Fe  Fe21  1  0.66882183  0.33399161  0.00226881  1
  Cr  Cr22  1  0.83865967  0.50143557  0.17076820  1
  Ni  Ni23  1  0.66790003  0.33377549  0.33536439  1
  Cr  Cr24  1  0.66773936  0.66907239  0.00296480  1
  Ni  Ni25  1  0.83652920  0.83717181  0.16931392  1
  Fe  Fe26  1  0.66781451  0.67012533  0.33639421  1
  Ni  Ni27  1  0.16869188  0.16830561  0.50200168  1
  Ni  Ni28  1  0.00191673  0.00204704  0.66850725  1
  Ni  Ni29  1  0.16882146  0.16902601  0.83499766  1
  Ni  Ni30  1  0.16785354  0.50188732  0.50162619  1
  Fe  Fe31  1  0.00253545  0.33472120  0.66794696  1
  Ni  Ni32  1  0.16672613  0.50112794  0.83540340  1
  Ni  Ni33  1  0.16852281  0.83504652  0.50272445  1
  Fe  Fe34  1  0.00201499  0.66910677  0.66816924  1
  Ni  Ni35  1  0.16670611  0.83522860  0.83560524  1
  Ni  Ni36  1  0.50193241  0.16820358  0.50207827  1
  Ni  Ni37  1  0.33218409  0.00181762  0.66627218  1
  Cr  Cr38  1  0.50033911  0.16848703  0.83498028  1
  Ni  Ni39  1  0.50210001  0.50138661  0.50246736  1
  Ni  Ni40  1  0.33443470  0.33681004  0.66649769  1
  Fe  Fe41  1  0.49946774  0.50206675  0.83386625  1
  Ni  Ni42  1  0.50158912  0.83579633  0.50240862  1
  Ni  Ni43  1  0.33410427  0.66679382  0.66845736  1
  Cr  Cr44  1  0.50032710  0.83702906  0.83335709  1
  Ni  Ni45  1  0.83480798  0.16909906  0.50287639  1
  Ni  Ni46  1  0.67156389  0.00201475  0.66632895  1
  Fe  Fe47  1  0.83777193  0.16721925  0.83478595  1
  Ni  Ni48  1  0.83539132  0.50167782  0.50178002  1
  Ni  Ni49  1  0.66938301  0.33645142  0.66907631  1
  Ni  Ni50  1  0.83681264  0.50149156  0.83403370  1
  Ni  Ni51  1  0.83534503  0.83487804  0.50167788  1
  Ni  Ni52  1  0.66906274  0.66692966  0.66640279  1
  Ni  Ni53  1  0.83689190  0.83405621  0.83443341  1
" 