7237,Ni81Fe6Cr11_4,-235.744378800115, 173.869270073191,Ni81Fe6Cr11,"# generated using pymatgen
 data_Cr7Fe3Ni44
_symmetry_space_group_name_H-M   'P 1'
_cell_length_a   7.45720321
_cell_length_b   7.45720321
_cell_length_c   10.54607791
_cell_angle_alpha   90.00000000
_cell_angle_beta   90.00000000
_cell_angle_gamma   90.00000000
_symmetry_Int_Tables_number   1
_chemical_formula_structural   Cr7Fe3Ni44
_chemical_formula_sum   'Cr7 Fe3 Ni44'
_cell_volume   586.46612327
_cell_formula_units_Z   1
loop_
 _symmetry_equiv_pos_site_id
 _symmetry_equiv_pos_as_xyz
  1  'x, y, z'
loop_
 _atom_site_type_symbol
 _atom_site_label
 _atom_site_symmetry_multiplicity
 _atom_site_fract_x
 _atom_site_fract_y
 _atom_site_fract_z
 _atom_site_occupancy
  Ni  Ni0  1  0.00123121  0.00227822  0.00183878  1
  Ni  Ni1  1  0.16674006  0.16879463  0.16703042  1
  Cr  Cr2  1  0.99974024  0.00268580  0.33439956  1
  Ni  Ni3  1  0.00093228  0.33194952  0.00121001  1
  Ni  Ni4  1  0.16833191  0.49906213  0.16611267  1
  Ni  Ni5  1  0.99949579  0.33273958  0.33257226  1
  Fe  Fe6  1  1.00047416  0.66556634  0.00077232  1
  Ni  Ni7  1  0.16940084  0.83413072  0.16499501  1
  Cr  Cr8  1  0.99968546  0.66765683  0.33262902  1
  Fe  Fe9  1  0.33383239  0.00102560  1.00002796  1
  Cr  Cr10  1  0.50092870  0.16783476  0.16718354  1
  Ni  Ni11  1  0.33329090  1.00064267  0.33327443  1
  Ni  Ni12  1  0.33290274  0.33695313  0.99951674  1
  Ni  Ni13  1  0.50056130  0.50194982  0.16808348  1
  Ni  Ni14  1  0.33431247  0.33413596  0.33408022  1
  Ni  Ni15  1  0.33468491  0.66682421  0.00112116  1
  Ni  Ni16  1  0.50106984  0.83258090  0.16736230  1
  Ni  Ni17  1  0.33573245  0.66711112  0.33173308  1
  Ni  Ni18  1  0.66924900  1.00039912  0.00086602  1
  Ni  Ni19  1  0.83448123  0.16835597  0.16642722  1
  Ni  Ni20  1  0.66782607  0.00092817  0.33364093  1
  Ni  Ni21  1  0.66816685  0.33510630  0.99961099  1
  Ni  Ni22  1  0.83287625  0.49921485  0.16604813  1
  Ni  Ni23  1  0.66825731  0.33481365  0.33463914  1
  Ni  Ni24  1  0.66425953  0.66646325  0.00176743  1
  Ni  Ni25  1  0.83158635  0.83405847  0.16556578  1
  Ni  Ni26  1  0.66635209  0.66613881  0.33294153  1
  Ni  Ni27  1  0.16857924  0.16702770  0.50123378  1
  Ni  Ni28  1  0.00147997  0.00215644  0.66592108  1
  Ni  Ni29  1  0.16650581  0.16775759  0.83380663  1
  Cr  Cr30  1  0.16712601  0.49822576  0.50069183  1
  Ni  Ni31  1  0.99967710  0.33222053  0.66824558  1
  Ni  Ni32  1  0.16660415  0.49880907  0.83495608  1
  Ni  Ni33  1  0.16683947  0.83685788  0.50230768  1
  Ni  Ni34  1  0.99948351  0.66751915  0.66851880  1
  Ni  Ni35  1  0.16845398  0.83546128  0.83475001  1
  Ni  Ni36  1  0.50043911  0.16864414  0.50157644  1
  Ni  Ni37  1  0.33282487  0.00304544  0.66920065  1
  Fe  Fe38  1  0.50124838  0.16802694  0.83379946  1
  Ni  Ni39  1  0.50352093  0.49752568  0.49912973  1
  Ni  Ni40  1  0.33514068  0.33160999  0.66837567  1
  Ni  Ni41  1  0.50160713  0.50039794  0.83461000  1
  Cr  Cr42  1  0.50153384  0.83498361  0.49892732  1
  Cr  Cr43  1  0.33487541  0.66629655  0.66858995  1
  Ni  Ni44  1  0.50038971  0.83456919  0.83537526  1
  Ni  Ni45  1  0.83287686  0.16860825  0.50135221  1
  Ni  Ni46  1  0.66762883  0.00282669  0.66747767  1
  Ni  Ni47  1  0.83495607  0.16867124  0.83421825  1
  Ni  Ni48  1  0.83164926  0.49948520  0.50224522  1
  Ni  Ni49  1  0.66727843  0.33399398  0.66788605  1
  Ni  Ni50  1  0.83361183  0.49818615  0.83370313  1
  Ni  Ni51  1  0.83313218  0.83392250  0.50304734  1
  Ni  Ni52  1  0.66829123  0.66523363  0.66716738  1
  Cr  Cr53  1  0.83348696  0.83418019  0.83307993  1
" 