2527,Ni81Fe12Cr5_12,-238.918357430736, 186.752040656761,Ni81Fe12Cr5,"# generated using pymatgen
 data_Cr2Fe3Ni22
_symmetry_space_group_name_H-M   'P 1'
_cell_length_a   7.44226628
_cell_length_b   7.44226628
_cell_length_c   10.52495391
_cell_angle_alpha   90.00000000
_cell_angle_beta   90.00000000
_cell_angle_gamma   90.00000000
_symmetry_Int_Tables_number   1
_chemical_formula_structural   Cr2Fe3Ni22
_chemical_formula_sum   'Cr4 Fe6 Ni44'
_cell_volume   582.94906751
_cell_formula_units_Z   2
loop_
 _symmetry_equiv_pos_site_id
 _symmetry_equiv_pos_as_xyz
  1  'x, y, z'
loop_
 _atom_site_type_symbol
 _atom_site_label
 _atom_site_symmetry_multiplicity
 _atom_site_fract_x
 _atom_site_fract_y
 _atom_site_fract_z
 _atom_site_occupancy
  Ni  Ni0  1  0.00355368  0.00214720  0.99922461  1
  Ni  Ni1  1  0.16998650  0.16740223  0.16864580  1
  Ni  Ni2  1  0.00370664  1.00146909  0.33719097  1
  Ni  Ni3  1  0.00213371  0.33550081  0.00203727  1
  Fe  Fe4  1  0.16933251  0.50225107  0.16781184  1
  Fe  Fe5  1  0.00265897  0.33589819  0.33478284  1
  Ni  Ni6  1  0.00214607  0.66737975  1.00058095  1
  Ni  Ni7  1  0.16918129  0.83577617  0.16855650  1
  Ni  Ni8  1  1.00091808  0.66950833  0.33493368  1
  Ni  Ni9  1  0.33509658  0.00166961  0.00188468  1
  Ni  Ni10  1  0.49979253  0.16921523  0.16799485  1
  Ni  Ni11  1  0.33390762  0.00211326  0.33514986  1
  Ni  Ni12  1  0.33528161  0.33466234  0.00173516  1
  Ni  Ni13  1  0.50249283  0.50110688  0.16855615  1
  Ni  Ni14  1  0.33718133  0.33370701  0.33397811  1
  Ni  Ni15  1  0.33572661  0.66866418  0.00194142  1
  Ni  Ni16  1  0.49969098  0.83460000  0.16920499  1
  Ni  Ni17  1  0.33621114  0.66911122  0.33453360  1
  Ni  Ni18  1  0.66618551  1.00164110  1.00100962  1
  Cr  Cr19  1  0.83445208  0.16928032  0.16856397  1
  Fe  Fe20  1  0.66576703  1.00066171  0.33605450  1
  Ni  Ni21  1  0.66764790  0.33605975  1.00005059  1
  Ni  Ni22  1  0.83397977  0.50179757  0.16867380  1
  Ni  Ni23  1  0.66715437  0.33634960  0.33655698  1
  Ni  Ni24  1  0.66716935  0.66726565  1.00120569  1
  Cr  Cr25  1  0.83530450  0.83345505  0.16680040  1
  Ni  Ni26  1  0.66775969  0.66633643  0.33563535  1
  Ni  Ni27  1  0.17061831  0.16576765  0.50090045  1
  Ni  Ni28  1  1.00136379  1.00057142  0.66849866  1
  Ni  Ni29  1  0.16952817  0.16744455  0.83560476  1
  Cr  Cr30  1  0.17055845  0.50334979  0.50074208  1
  Cr  Cr31  1  1.00154216  0.33421389  0.66871363  1
  Ni  Ni32  1  0.16947768  0.50254156  0.83609489  1
  Ni  Ni33  1  0.16707987  0.83670521  0.50218086  1
  Ni  Ni34  1  0.99998456  0.67017595  0.66911189  1
  Ni  Ni35  1  0.16826866  0.83500208  0.83429454  1
  Ni  Ni36  1  0.50078946  0.16911521  0.50145654  1
  Ni  Ni37  1  0.33514382  0.00231756  0.66820188  1
  Ni  Ni38  1  0.50141926  0.16835043  0.83542487  1
  Ni  Ni39  1  0.50324963  0.50034170  0.50217897  1
  Ni  Ni40  1  0.33673805  0.33374867  0.66913154  1
  Ni  Ni41  1  0.50142230  0.50148469  0.83429518  1
  Fe  Fe42  1  0.50069893  0.83416782  0.50190270  1
  Ni  Ni43  1  0.33629814  0.66889967  0.66867716  1
  Ni  Ni44  1  0.50177702  0.83514368  0.83475719  1
  Fe  Fe45  1  0.83459780  0.16748403  0.50130466  1
  Ni  Ni46  1  0.66833832  1.00097640  0.66756424  1
  Ni  Ni47  1  0.83396867  0.16712522  0.83529095  1
  Ni  Ni48  1  0.83240050  0.50399970  0.50070805  1
  Fe  Fe49  1  0.66700769  0.33502760  0.66867419  1
  Ni  Ni50  1  0.83401204  0.50286281  0.83580953  1
  Ni  Ni51  1  0.83564757  0.83436525  0.50156979  1
  Ni  Ni52  1  0.66862469  0.66867311  0.66816849  1
  Ni  Ni53  1  0.83493043  0.83501946  0.83535298  1
" 