6400,Ni81Fe6Cr11_19,-235.511758388972, 172.064430435433,Ni81Fe6Cr11,"# generated using pymatgen
 data_Cr7Fe3Ni44
_symmetry_space_group_name_H-M   'P 1'
_cell_length_a   7.45920292
_cell_length_b   7.45920292
_cell_length_c   10.54890593
_cell_angle_alpha   90.00000000
_cell_angle_beta   90.00000000
_cell_angle_gamma   90.00000000
_symmetry_Int_Tables_number   1
_chemical_formula_structural   Cr7Fe3Ni44
_chemical_formula_sum   'Cr7 Fe3 Ni44'
_cell_volume   586.93804728
_cell_formula_units_Z   1
loop_
 _symmetry_equiv_pos_site_id
 _symmetry_equiv_pos_as_xyz
  1  'x, y, z'
loop_
 _atom_site_type_symbol
 _atom_site_label
 _atom_site_symmetry_multiplicity
 _atom_site_fract_x
 _atom_site_fract_y
 _atom_site_fract_z
 _atom_site_occupancy
  Ni  Ni0  1  0.00052990  0.00235743  0.99927317  1
  Ni  Ni1  1  0.16600880  0.16803175  0.16855409  1
  Ni  Ni2  1  0.99952329  0.00172636  0.33572347  1
  Ni  Ni3  1  0.99867442  0.33413656  0.00081987  1
  Ni  Ni4  1  0.16364619  0.49864192  0.16713009  1
  Ni  Ni5  1  0.00072415  0.33383273  0.33304959  1
  Ni  Ni6  1  0.00071690  0.66512735  1.00047081  1
  Cr  Cr7  1  0.16602833  0.83480611  0.16584054  1
  Ni  Ni8  1  0.99815760  0.66592339  0.33469664  1
  Ni  Ni9  1  0.33419613  1.00039212  0.00059842  1
  Ni  Ni10  1  0.50157870  0.16493169  0.16831792  1
  Ni  Ni11  1  0.33516687  0.00321960  0.33455961  1
  Cr  Cr12  1  0.33228320  0.33307780  0.99957737  1
  Cr  Cr13  1  0.50191593  0.50022466  0.16698578  1
  Ni  Ni14  1  0.33252134  0.33097792  0.33550694  1
  Ni  Ni15  1  0.33258217  0.66845500  0.99900693  1
  Ni  Ni16  1  0.50349502  0.83624360  0.16624894  1
  Cr  Cr17  1  0.33330716  0.66755845  0.33487243  1
  Ni  Ni18  1  0.66694967  0.00244392  0.00270768  1
  Ni  Ni19  1  0.83399931  0.16710607  0.16667823  1
  Ni  Ni20  1  0.66695104  0.00073192  0.33343174  1
  Ni  Ni21  1  0.67015650  0.33258166  0.99877207  1
  Ni  Ni22  1  0.83530659  0.50052277  0.16750705  1
  Ni  Ni23  1  0.66837037  0.33229710  0.33494864  1
  Ni  Ni24  1  0.66825988  0.66657133  0.00117759  1
  Ni  Ni25  1  0.83225292  0.83394737  0.16733654  1
  Ni  Ni26  1  0.66980837  0.66847309  0.33522219  1
  Ni  Ni27  1  0.16678794  0.16740057  0.50027928  1
  Fe  Fe28  1  0.00218516  0.00092506  0.66625042  1
  Ni  Ni29  1  0.16603638  0.16646404  0.83277047  1
  Ni  Ni30  1  0.16710416  0.49980434  0.50077615  1
  Ni  Ni31  1  1.00017822  0.33453252  0.66770506  1
  Ni  Ni32  1  0.16637315  0.50136844  0.83364431  1
  Ni  Ni33  1  0.16586207  0.83438879  0.50210148  1
  Ni  Ni34  1  0.00230295  0.66500435  0.66637706  1
  Ni  Ni35  1  0.16715214  0.83380315  0.83351227  1
  Ni  Ni36  1  0.50012927  0.16862076  0.49933599  1
  Ni  Ni37  1  0.33188841  0.00066656  0.66644058  1
  Ni  Ni38  1  0.50065533  0.16944987  0.83395764  1
  Ni  Ni39  1  0.50107919  0.49982675  0.50197179  1
  Fe  Fe40  1  0.33398711  0.33479146  0.66674484  1
  Ni  Ni41  1  0.50155113  0.49959315  0.83264718  1
  Ni  Ni42  1  0.50098036  0.83321034  0.49998906  1
  Ni  Ni43  1  0.33231276  0.66750438  0.66701592  1
  Cr  Cr44  1  0.49858275  0.83243670  0.83571682  1
  Ni  Ni45  1  0.83469457  0.16741948  0.49975835  1
  Cr  Cr46  1  0.66629933  0.00270861  0.66564293  1
  Ni  Ni47  1  0.83488132  0.17027480  0.83516473  1
  Fe  Fe48  1  0.83402400  0.50005187  0.50060907  1
  Ni  Ni49  1  0.66832731  0.33492658  0.66790003  1
  Ni  Ni50  1  0.83368162  0.49861075  0.83363995  1
  Ni  Ni51  1  0.83471907  0.83324309  0.49917810  1
  Ni  Ni52  1  0.66709616  0.66382251  0.66522794  1
  Cr  Cr53  1  0.83641274  0.83320675  0.83502361  1
" 