8148,Ni81Fe13Cr4_19,-239.068005543256, 191.878895110989,Ni81Fe13Cr4,"# generated using pymatgen
 data_Cr4Fe7Ni43
_symmetry_space_group_name_H-M   'P 1'
_cell_length_a   7.44179883
_cell_length_b   7.44179883
_cell_length_c   10.52429283
_cell_angle_alpha   90.00000000
_cell_angle_beta   90.00000000
_cell_angle_gamma   90.00000000
_symmetry_Int_Tables_number   1
_chemical_formula_structural   Cr4Fe7Ni43
_chemical_formula_sum   'Cr4 Fe7 Ni43'
_cell_volume   582.83922901
_cell_formula_units_Z   1
loop_
 _symmetry_equiv_pos_site_id
 _symmetry_equiv_pos_as_xyz
  1  'x, y, z'
loop_
 _atom_site_type_symbol
 _atom_site_label
 _atom_site_symmetry_multiplicity
 _atom_site_fract_x
 _atom_site_fract_y
 _atom_site_fract_z
 _atom_site_occupancy
  Ni  Ni0  1  1.00091099  0.99998230  1.00076024  1
  Cr  Cr1  1  0.16866894  0.16729671  0.17012761  1
  Ni  Ni2  1  1.00115740  0.99991857  0.33623618  1
  Ni  Ni3  1  1.00141734  0.33664213  1.00061440  1
  Ni  Ni4  1  0.16590247  0.50379432  0.16887766  1
  Ni  Ni5  1  1.00135222  0.33653759  0.33548819  1
  Ni  Ni6  1  1.00098781  0.66856585  0.00201380  1
  Ni  Ni7  1  0.16755031  0.83343598  0.16796792  1
  Ni  Ni8  1  0.00215291  0.66852809  0.33533095  1
  Ni  Ni9  1  0.33593196  0.99997592  1.00066364  1
  Ni  Ni10  1  0.50363043  0.16611711  0.17076036  1
  Ni  Ni11  1  0.33599121  1.00019502  0.33601526  1
  Cr  Cr12  1  0.33401130  0.33601404  1.00105731  1
  Fe  Fe13  1  0.50096727  0.50446306  0.17023569  1
  Ni  Ni14  1  0.33558970  0.33639220  0.33649666  1
  Fe  Fe15  1  0.33390008  0.66990504  1.00148533  1
  Ni  Ni16  1  0.50306814  0.83621023  0.16697307  1
  Ni  Ni17  1  0.33457932  0.66881803  0.33389515  1
  Ni  Ni18  1  0.66834508  0.99985794  1.00153831  1
  Fe  Fe19  1  0.83569122  0.16554563  0.16983580  1
  Ni  Ni20  1  0.66801478  1.00120697  0.33455366  1
  Cr  Cr21  1  0.66953695  0.33501426  0.00223927  1
  Fe  Fe22  1  0.83595328  0.50383502  0.16929922  1
  Ni  Ni23  1  0.66809454  0.33514949  0.33465624  1
  Ni  Ni24  1  0.66932045  0.67020818  1.00121221  1
  Ni  Ni25  1  0.83442792  0.83402713  0.16918523  1
  Ni  Ni26  1  0.66829119  0.66887880  0.33548713  1
  Ni  Ni27  1  0.16809089  0.16821282  0.50175454  1
  Ni  Ni28  1  0.00387970  1.00097636  0.66830927  1
  Ni  Ni29  1  0.16870156  0.16714890  0.83405397  1
  Ni  Ni30  1  0.16772949  0.50193453  0.50191612  1
  Ni  Ni31  1  0.00223687  0.33566036  0.66915617  1
  Ni  Ni32  1  0.16671579  0.50271596  0.83436700  1
  Ni  Ni33  1  0.16895701  0.83492242  0.50095804  1
  Ni  Ni34  1  0.00204975  0.66854084  0.66801645  1
  Ni  Ni35  1  0.16646993  0.83540249  0.83614379  1
  Ni  Ni36  1  0.50140301  0.16900997  0.50041747  1
  Ni  Ni37  1  0.33326056  1.00164879  0.66824874  1
  Ni  Ni38  1  0.50054760  0.16781648  0.83410072  1
  Ni  Ni39  1  0.50273784  0.50204327  0.50133672  1
  Ni  Ni40  1  0.33505296  0.33528922  0.66782240  1
  Ni  Ni41  1  0.50304748  0.50234226  0.83366011  1
  Ni  Ni42  1  0.50060781  0.83394210  0.50132904  1
  Ni  Ni43  1  0.33428701  0.66804125  0.66928012  1
  Fe  Fe44  1  0.50025288  0.83308194  0.83527241  1
  Ni  Ni45  1  0.83568485  0.17049335  0.50063786  1
  Cr  Cr46  1  0.66851192  1.00125003  0.66821541  1
  Fe  Fe47  1  0.83769268  0.16882464  0.83427996  1
  Ni  Ni48  1  0.83466092  0.50127929  0.50168746  1
  Ni  Ni49  1  0.66800971  0.33672908  0.66844897  1
  Ni  Ni50  1  0.83533658  0.50434233  0.83474987  1
  Fe  Fe51  1  0.83564539  0.83404128  0.50092616  1
  Ni  Ni52  1  0.66861177  0.66652251  0.66825528  1
  Ni  Ni53  1  0.83597932  0.83287845  0.83525597  1
" 