5629,Ni81Fe12Cr5_17,-239.003628139126, 188.770034827372,Ni81Fe12Cr5,"# generated using pymatgen
 data_Cr2Fe3Ni22
_symmetry_space_group_name_H-M   'P 1'
_cell_length_a   7.44489670
_cell_length_b   7.44489670
_cell_length_c   10.52867388
_cell_angle_alpha   90.00000000
_cell_angle_beta   90.00000000
_cell_angle_gamma   90.00000000
_symmetry_Int_Tables_number   1
_chemical_formula_structural   Cr2Fe3Ni22
_chemical_formula_sum   'Cr4 Fe6 Ni44'
_cell_volume   583.56740386
_cell_formula_units_Z   2
loop_
 _symmetry_equiv_pos_site_id
 _symmetry_equiv_pos_as_xyz
  1  'x, y, z'
loop_
 _atom_site_type_symbol
 _atom_site_label
 _atom_site_symmetry_multiplicity
 _atom_site_fract_x
 _atom_site_fract_y
 _atom_site_fract_z
 _atom_site_occupancy
  Ni  Ni0  1  1.00111142  1.00135392  0.00174728  1
  Ni  Ni1  1  0.16891130  0.16902062  0.16834944  1
  Fe  Fe2  1  0.00235033  0.00236447  0.33380160  1
  Ni  Ni3  1  1.00109795  0.33492572  1.00127933  1
  Ni  Ni4  1  0.16677576  0.50104602  0.16921324  1
  Ni  Ni5  1  1.00120046  0.33553887  0.33510548  1
  Ni  Ni6  1  0.99959616  0.66818239  0.00173281  1
  Ni  Ni7  1  0.16786688  0.83440045  0.16956081  1
  Ni  Ni8  1  0.00431415  0.66710496  0.33389662  1
  Ni  Ni9  1  0.33504742  0.00290612  1.00127990  1
  Ni  Ni10  1  0.50178330  0.16747354  0.16862594  1
  Ni  Ni11  1  0.33477818  0.00163031  0.33419627  1
  Ni  Ni12  1  0.33468960  0.33299568  0.00153851  1
  Fe  Fe13  1  0.50152440  0.49977674  0.16871586  1
  Ni  Ni14  1  0.33473233  0.33469360  0.33500178  1
  Cr  Cr15  1  0.33428340  0.66865977  0.00206785  1
  Ni  Ni16  1  0.50172602  0.83704413  0.16869956  1
  Ni  Ni17  1  0.33181603  0.66813189  0.33436925  1
  Ni  Ni18  1  0.66830501  1.00140647  0.00173139  1
  Ni  Ni19  1  0.83376990  0.16857121  0.16830711  1
  Ni  Ni20  1  0.66750074  0.00473729  0.33309969  1
  Ni  Ni21  1  0.66867876  0.33451117  0.00199051  1
  Ni  Ni22  1  0.83641719  0.50099012  0.16805003  1
  Ni  Ni23  1  0.66853194  0.33256319  0.33518674  1
  Ni  Ni24  1  0.67023419  0.66854168  1.00115091  1
  Ni  Ni25  1  0.83486880  0.83490114  0.16710331  1
  Cr  Cr26  1  0.66822398  0.66709506  0.33324909  1
  Fe  Fe27  1  0.16886551  0.16851686  0.50174780  1
  Ni  Ni28  1  0.00180879  1.00144429  0.66841987  1
  Ni  Ni29  1  0.16881207  0.16892293  0.83452453  1
  Ni  Ni30  1  0.16871948  0.50205252  0.50124564  1
  Ni  Ni31  1  1.00082093  0.33533643  0.66807619  1
  Ni  Ni32  1  0.16674342  0.50078031  0.83400603  1
  Ni  Ni33  1  0.16824891  0.83303591  0.50129234  1
  Ni  Ni34  1  0.00296274  0.66767816  0.66883349  1
  Ni  Ni35  1  0.16777182  0.83476009  0.83360765  1
  Ni  Ni36  1  0.50261098  0.17035109  0.50124526  1
  Ni  Ni37  1  0.33457882  1.00125154  0.66898658  1
  Ni  Ni38  1  0.50151864  0.16743655  0.83459095  1
  Ni  Ni39  1  0.49941788  0.49835457  0.50219029  1
  Ni  Ni40  1  0.33531910  0.33528021  0.66792563  1
  Fe  Fe41  1  0.50215910  0.50041581  0.83362818  1
  Cr  Cr42  1  0.49915693  0.83605114  0.50236730  1
  Ni  Ni43  1  0.33337320  0.66792431  0.66811082  1
  Ni  Ni44  1  0.50243958  0.83635966  0.83351934  1
  Ni  Ni45  1  0.83360301  0.16988702  0.50129470  1
  Ni  Ni46  1  0.66808060  0.00339591  0.66963619  1
  Ni  Ni47  1  0.83413286  0.16846850  0.83485990  1
  Fe  Fe48  1  0.83573810  0.49879591  0.50206512  1
  Ni  Ni49  1  0.66832667  0.33413073  0.66728859  1
  Ni  Ni50  1  0.83573531  0.50170177  0.83417234  1
  Cr  Cr51  1  0.83692103  0.83625863  0.50231500  1
  Fe  Fe52  1  0.66808052  0.66688860  0.67026596  1
  Ni  Ni53  1  0.83425190  0.83428753  0.83506752  1
" 