640,Ni81Fe3Cr15_11,-232.638802635397, 157.513884828884,Ni81Fe3Cr15,"# generated using pymatgen
 data_Cr10FeNi43
_symmetry_space_group_name_H-M   'P 1'
_cell_length_a   7.47013331
_cell_length_b   7.47013331
_cell_length_c   10.56436384
_cell_angle_alpha   90.00000000
_cell_angle_beta   90.00000000
_cell_angle_gamma   90.00000000
_symmetry_Int_Tables_number   1
_chemical_formula_structural   Cr10FeNi43
_chemical_formula_sum   'Cr10 Fe1 Ni43'
_cell_volume   589.52205131
_cell_formula_units_Z   1
loop_
 _symmetry_equiv_pos_site_id
 _symmetry_equiv_pos_as_xyz
  1  'x, y, z'
loop_
 _atom_site_type_symbol
 _atom_site_label
 _atom_site_symmetry_multiplicity
 _atom_site_fract_x
 _atom_site_fract_y
 _atom_site_fract_z
 _atom_site_occupancy
  Ni  Ni0  1  0.99864208  0.00002007  0.99854316  1
  Cr  Cr1  1  0.16433822  0.16449160  0.16563618  1
  Cr  Cr2  1  0.99824305  0.99590523  0.33247649  1
  Ni  Ni3  1  0.99632633  0.33192148  0.99978328  1
  Ni  Ni4  1  0.16491912  0.50313544  0.16763350  1
  Ni  Ni5  1  0.99732315  0.33740501  0.33187097  1
  Cr  Cr6  1  0.99855902  0.66762050  0.00029785  1
  Ni  Ni7  1  0.16897746  0.83143298  0.16653782  1
  Ni  Ni8  1  0.99952032  0.66507037  0.33357577  1
  Ni  Ni9  1  0.33325254  0.99675356  0.99978530  1
  Ni  Ni10  1  0.50378650  0.16385590  0.16703458  1
  Ni  Ni11  1  0.33655801  0.99641371  0.33327120  1
  Cr  Cr12  1  0.33375717  0.33359181  0.00176926  1
  Ni  Ni13  1  0.50244191  0.50277411  0.16620052  1
  Cr  Cr14  1  0.33576877  0.33478998  0.33343611  1
  Ni  Ni15  1  0.33443426  0.67010606  0.00163403  1
  Ni  Ni16  1  0.49938421  0.83273531  0.16608391  1
  Ni  Ni17  1  0.33339090  0.66774771  0.33281475  1
  Ni  Ni18  1  0.66749061  0.99880736  0.00074446  1
  Ni  Ni19  1  0.83061002  0.16773261  0.16536331  1
  Ni  Ni20  1  0.66402015  0.99867984  0.33236615  1
  Ni  Ni21  1  0.66960599  0.33309504  0.00148082  1
  Ni  Ni22  1  0.83195956  0.49857024  0.16723035  1
  Ni  Ni23  1  0.66670624  0.33412259  0.33229777  1
  Ni  Ni24  1  0.66622302  0.66750899  0.00017388  1
  Fe  Fe25  1  0.83098795  0.83248617  0.16661086  1
  Ni  Ni26  1  0.66641958  0.66644117  0.33317697  1
  Cr  Cr27  1  0.16661348  0.16554703  0.50152110  1
  Ni  Ni28  1  0.99931185  0.99732971  0.66873338  1
  Ni  Ni29  1  0.16368061  0.16366468  0.83252691  1
  Ni  Ni30  1  0.16526181  0.50277566  0.49995513  1
  Ni  Ni31  1  0.99880335  0.33416998  0.66762571  1
  Cr  Cr32  1  0.16571169  0.50060817  0.83179441  1
  Ni  Ni33  1  0.16745343  0.83040523  0.50044985  1
  Ni  Ni34  1  0.99853318  0.66782676  0.66516948  1
  Ni  Ni35  1  0.16751911  0.83534569  0.83242436  1
  Ni  Ni36  1  0.50120649  0.16493922  0.49997606  1
  Ni  Ni37  1  0.33336031  0.99803551  0.66630226  1
  Cr  Cr38  1  0.50108145  0.16419532  0.83231178  1
  Ni  Ni39  1  0.50115619  0.50166804  0.50051350  1
  Ni  Ni40  1  0.33340537  0.33312258  0.66442772  1
  Cr  Cr41  1  0.50283078  0.50406330  0.83290810  1
  Ni  Ni42  1  0.49995278  0.83262593  0.49991696  1
  Ni  Ni43  1  0.33328867  0.66831078  0.66496807  1
  Ni  Ni44  1  0.49990960  0.83318213  0.83338024  1
  Cr  Cr45  1  0.83123130  0.16706618  0.49999500  1
  Ni  Ni46  1  0.66672764  0.99776558  0.66619388  1
  Ni  Ni47  1  0.83442676  0.16633858  0.83357266  1
  Ni  Ni48  1  0.83289024  0.50142561  0.49992977  1
  Ni  Ni49  1  0.66711067  0.33391870  0.66552267  1
  Ni  Ni50  1  0.83230540  0.49916297  0.83221637  1
  Ni  Ni51  1  0.83194317  0.83058378  0.49989586  1
  Ni  Ni52  1  0.66765077  0.66771285  0.66608843  1
  Ni  Ni53  1  0.83183481  0.83384229  0.83269814  1
" 