3418,Ni81Cr19_14,-207.344683761305, 167.324220645544,Ni81Cr19,"# generated using pymatgen
 data_Cr43Ni11
_symmetry_space_group_name_H-M   'P 1'
_cell_length_a   7.57288767
_cell_length_b   7.57288767
_cell_length_c   10.70968045
_cell_angle_alpha   90.00000000
_cell_angle_beta   90.00000000
_cell_angle_gamma   90.00000000
_symmetry_Int_Tables_number   1
_chemical_formula_structural   Cr43Ni11
_chemical_formula_sum   'Cr43 Ni11'
_cell_volume   614.18547690
_cell_formula_units_Z   1
loop_
 _symmetry_equiv_pos_site_id
 _symmetry_equiv_pos_as_xyz
  1  'x, y, z'
loop_
 _atom_site_type_symbol
 _atom_site_label
 _atom_site_symmetry_multiplicity
 _atom_site_fract_x
 _atom_site_fract_y
 _atom_site_fract_z
 _atom_site_occupancy
  Cr  Cr0  1  -0.00676328  -0.00687281  0.99235782  1
  Cr  Cr1  1  0.15924809  0.15820012  0.16201579  1
  Ni  Ni2  1  0.99190460  0.98913678  0.32752351  1
  Cr  Cr3  1  0.99126349  0.32591055  0.99229696  1
  Cr  Cr4  1  0.15715032  0.49498849  0.16050114  1
  Cr  Cr5  1  0.99201113  0.32563969  0.32599457  1
  Cr  Cr6  1  0.99060462  0.66004437  0.99227071  1
  Cr  Cr7  1  0.15931961  0.82600086  0.16209669  1
  Ni  Ni8  1  0.99019867  0.66276286  0.32634635  1
  Cr  Cr9  1  0.32658543  0.99178072  -0.00551365  1
  Cr  Cr10  1  0.49424379  0.15717097  0.16131561  1
  Ni  Ni11  1  0.32752694  0.99109530  0.32542620  1
  Cr  Cr12  1  0.32615217  0.32498779  -0.00611628  1
  Cr  Cr13  1  0.49405354  0.49433907  0.15971263  1
  Cr  Cr14  1  0.32766530  0.32555805  0.32826585  1
  Cr  Cr15  1  0.32840235  0.66222361  -0.00537652  1
  Ni  Ni16  1  0.49359661  0.82868760  0.16228724  1
  Cr  Cr17  1  0.32821718  0.66083183  0.32673603  1
  Cr  Cr18  1  0.65917648  0.99101591  -0.00553258  1
  Cr  Cr19  1  0.82563727  0.15868305  0.16199621  1
  Ni  Ni20  1  0.65951816  0.99010174  0.32673520  1
  Cr  Cr21  1  0.66151394  0.32768837  -0.00610851  1
  Ni  Ni22  1  0.82742028  0.49492846  0.16032103  1
  Cr  Cr23  1  0.65928890  0.32703084  0.32665921  1
  Cr  Cr24  1  0.66008664  0.66027981  -0.00548235  1
  Cr  Cr25  1  0.82591397  0.82638170  0.16295461  1
  Cr  Cr26  1  0.65962147  0.66060395  0.32672915  1
  Cr  Cr27  1  0.16017711  0.15696300  0.49171703  1
  Cr  Cr28  1  0.99248048  0.99235257  0.65914903  1
  Cr  Cr29  1  0.16145691  0.15899018  0.82542238  1
  Cr  Cr30  1  0.15957876  0.49527383  0.49142446  1
  Cr  Cr31  1  0.99218375  0.32581003  0.66085986  1
  Cr  Cr32  1  0.15910760  0.49425029  0.82675000  1
  Cr  Cr33  1  0.15776135  0.82673237  0.49132218  1
  Cr  Cr34  1  0.99104746  0.66059068  0.65899406  1
  Cr  Cr35  1  0.16095088  0.82592595  0.82540259  1
  Cr  Cr36  1  0.49433629  0.15796699  0.49331233  1
  Ni  Ni37  1  0.32872524  0.99272635  0.65962047  1
  Cr  Cr38  1  0.49414056  0.15837957  0.82437137  1
  Ni  Ni39  1  0.49398254  0.49372187  0.49320510  1
  Cr  Cr40  1  0.32652134  0.32610192  0.65669187  1
  Cr  Cr41  1  0.49396424  0.49305468  0.82567693  1
  Cr  Cr42  1  0.49493730  0.82857310  0.49341360  1
  Cr  Cr43  1  0.32776093  0.66070248  0.65810758  1
  Cr  Cr44  1  0.49356512  0.82775691  0.82559604  1
  Cr  Cr45  1  0.82441948  0.15506047  0.49168684  1
  Ni  Ni46  1  0.65891380  0.99142621  0.65810811  1
  Cr  Cr47  1  0.82338822  0.15926180  0.82554132  1
  Cr  Cr48  1  0.82695296  0.49602967  0.49158237  1
  Cr  Cr49  1  0.66043563  0.32744041  0.65833644  1
  Ni  Ni50  1  0.82576798  0.49342658  0.82695771  1
  Ni  Ni51  1  0.82550364  0.82831713  0.49077054  1
  Cr  Cr52  1  0.66044033  0.66053415  0.65800167  1
  Cr  Cr53  1  0.82458551  0.82607419  0.82420855  1
" 