3982,Ni81Cr19_17,-207.093540979217, 163.321289191662,Ni81Cr19,"# generated using pymatgen
 data_Cr43Ni11
_symmetry_space_group_name_H-M   'P 1'
_cell_length_a   7.57879850
_cell_length_b   7.57879850
_cell_length_c   10.71803963
_cell_angle_alpha   90.00000000
_cell_angle_beta   90.00000000
_cell_angle_gamma   90.00000000
_symmetry_Int_Tables_number   1
_chemical_formula_structural   Cr43Ni11
_chemical_formula_sum   'Cr43 Ni11'
_cell_volume   615.62476216
_cell_formula_units_Z   1
loop_
 _symmetry_equiv_pos_site_id
 _symmetry_equiv_pos_as_xyz
  1  'x, y, z'
loop_
 _atom_site_type_symbol
 _atom_site_label
 _atom_site_symmetry_multiplicity
 _atom_site_fract_x
 _atom_site_fract_y
 _atom_site_fract_z
 _atom_site_occupancy
  Cr  Cr0  1  -0.00712651  0.99230328  -0.00735763  1
  Cr  Cr1  1  0.15944746  0.15972786  0.15895842  1
  Ni  Ni2  1  -0.00659653  -0.00643810  0.32762955  1
  Cr  Cr3  1  -0.00687386  0.32762372  -0.00637813  1
  Ni  Ni4  1  0.16049170  0.49127576  0.15826432  1
  Ni  Ni5  1  -0.00549888  0.32618455  0.32635579  1
  Cr  Cr6  1  -0.00471681  0.65790424  -0.00716004  1
  Cr  Cr7  1  0.16010818  0.82646670  0.15789945  1
  Cr  Cr8  1  -0.00541880  0.65773971  0.32612827  1
  Ni  Ni9  1  0.32767672  0.99167478  0.99094500  1
  Cr  Cr10  1  0.49062392  0.16062007  0.15656549  1
  Cr  Cr11  1  0.32487313  0.99197039  0.32732324  1
  Ni  Ni12  1  0.32708583  0.32719557  -0.00637576  1
  Cr  Cr13  1  0.49161889  0.49312658  0.15775042  1
  Cr  Cr14  1  0.32268479  0.32799942  0.32675512  1
  Ni  Ni15  1  0.32630337  0.65898283  0.99229091  1
  Cr  Cr16  1  0.49151668  0.82413388  0.15862997  1
  Cr  Cr17  1  0.32455212  0.65796656  0.32721881  1
  Cr  Cr18  1  0.65722780  -0.00633298  0.99126186  1
  Cr  Cr19  1  0.82769112  0.15994696  0.16102732  1
  Cr  Cr20  1  0.65997016  0.99158672  0.32565841  1
  Ni  Ni21  1  0.65639045  0.32578568  0.99218333  1
  Cr  Cr22  1  0.82536022  0.49232753  0.16027045  1
  Cr  Cr23  1  0.66002577  0.32632532  0.32557226  1
  Cr  Cr24  1  0.65804647  0.65965374  0.99207101  1
  Cr  Cr25  1  0.82650083  0.82556194  0.16256524  1
  Ni  Ni26  1  0.65998293  0.65937151  0.32635278  1
  Cr  Cr27  1  0.15762748  0.15839256  0.49151006  1
  Cr  Cr28  1  -0.00702598  0.99156069  0.65892266  1
  Cr  Cr29  1  0.16107403  0.15869667  0.82756805  1
  Ni  Ni30  1  0.15792007  0.49372507  0.49135095  1
  Cr  Cr31  1  -0.00620814  0.32771515  0.65851716  1
  Cr  Cr32  1  0.16128735  0.49249958  0.82752292  1
  Ni  Ni33  1  0.15801882  0.82485985  0.49179190  1
  Cr  Cr34  1  -0.00491270  0.65856512  0.65874557  1
  Cr  Cr35  1  0.16229515  0.82667395  0.82750520  1
  Cr  Cr36  1  0.49197116  0.15997253  0.49300127  1
  Cr  Cr37  1  0.32702305  0.99087622  0.65892796  1
  Cr  Cr38  1  0.49062426  0.15968445  0.82804511  1
  Cr  Cr39  1  0.49287046  0.49363807  0.49202209  1
  Cr  Cr40  1  0.32479131  0.32713997  0.65675466  1
  Cr  Cr41  1  0.49215606  0.49342215  0.82801795  1
  Cr  Cr42  1  0.49214617  0.82426013  0.49172311  1
  Cr  Cr43  1  0.32426944  0.65988458  0.65761760  1
  Ni  Ni44  1  0.49035284  0.82597841  0.82814947  1
  Cr  Cr45  1  0.82818257  0.15928889  0.49117727  1
  Cr  Cr46  1  0.65789202  0.99234911  0.66104993  1
  Cr  Cr47  1  0.82612519  0.16066069  0.82588936  1
  Cr  Cr48  1  0.82604577  0.49301988  0.49190583  1
  Cr  Cr49  1  0.65921582  0.32478999  0.66008409  1
  Cr  Cr50  1  0.82443412  0.49204397  0.82586035  1
  Cr  Cr51  1  0.82767188  0.82553720  0.49034471  1
  Cr  Cr52  1  0.65855835  0.66077576  0.66023947  1
  Cr  Cr53  1  0.82552596  0.82518475  0.82522905  1
" 