408,Ni81Fe13Cr4_4,-239.074690838724, 189.375961986033,Ni81Fe13Cr4,"# generated using pymatgen
 data_Cr4Fe7Ni43
_symmetry_space_group_name_H-M   'P 1'
_cell_length_a   7.44301804
_cell_length_b   7.44301804
_cell_length_c   10.52601706
_cell_angle_alpha   90.00000000
_cell_angle_beta   90.00000000
_cell_angle_gamma   90.00000000
_symmetry_Int_Tables_number   1
_chemical_formula_structural   Cr4Fe7Ni43
_chemical_formula_sum   'Cr4 Fe7 Ni43'
_cell_volume   583.12574139
_cell_formula_units_Z   1
loop_
 _symmetry_equiv_pos_site_id
 _symmetry_equiv_pos_as_xyz
  1  'x, y, z'
loop_
 _atom_site_type_symbol
 _atom_site_label
 _atom_site_symmetry_multiplicity
 _atom_site_fract_x
 _atom_site_fract_y
 _atom_site_fract_z
 _atom_site_occupancy
  Ni  Ni0  1  0.00417135  0.99952877  1.00068379  1
  Ni  Ni1  1  0.16768908  0.16727863  0.16940252  1
  Ni  Ni2  1  0.00455910  1.00051756  0.33550440  1
  Ni  Ni3  1  0.00268870  0.33617654  0.99817806  1
  Cr  Cr4  1  0.16831701  0.50095695  0.16762767  1
  Ni  Ni5  1  0.00224244  0.33558452  0.33815485  1
  Ni  Ni6  1  0.99984510  0.66896415  1.00061195  1
  Ni  Ni7  1  0.16806928  0.83544842  0.16949393  1
  Ni  Ni8  1  1.00079143  0.66897850  0.33611555  1
  Ni  Ni9  1  0.33335641  0.00172757  1.00094022  1
  Cr  Cr10  1  0.49980447  0.16985591  0.16786428  1
  Ni  Ni11  1  0.33247060  1.00111777  0.33606766  1
  Ni  Ni12  1  0.33476509  0.33395393  0.99959832  1
  Ni  Ni13  1  0.50235306  0.50368896  0.16901895  1
  Ni  Ni14  1  0.33451446  0.33495121  0.33646174  1
  Fe  Fe15  1  0.33537770  0.66926560  1.00084917  1
  Ni  Ni16  1  0.50023253  0.83226505  0.16816026  1
  Ni  Ni17  1  0.33508769  0.66879425  0.33591527  1
  Ni  Ni18  1  0.66740536  0.99871116  0.99852090  1
  Cr  Cr19  1  0.83784980  0.16957900  0.16611706  1
  Cr  Cr20  1  0.66792624  0.99922345  0.33605682  1
  Ni  Ni21  1  0.66750151  0.33849640  0.99942015  1
  Ni  Ni22  1  0.83463343  0.50294390  0.16993873  1
  Ni  Ni23  1  0.66785913  0.33870443  0.33678327  1
  Ni  Ni24  1  0.66959243  0.66769315  0.00203331  1
  Ni  Ni25  1  0.83633412  0.83278626  0.16781959  1
  Ni  Ni26  1  0.66848553  0.66656096  0.33498327  1
  Fe  Fe27  1  0.16944225  0.16718447  0.50214343  1
  Ni  Ni28  1  0.00240289  0.99949515  0.66892453  1
  Ni  Ni29  1  0.16801991  0.16824849  0.83457669  1
  Fe  Fe30  1  0.16828188  0.50224796  0.50252808  1
  Fe  Fe31  1  1.00036762  0.33353460  0.66919852  1
  Ni  Ni32  1  0.16864667  0.50243774  0.83347916  1
  Fe  Fe33  1  0.16905224  0.83529906  0.50226945  1
  Ni  Ni34  1  1.00123303  0.66839292  0.66818625  1
  Ni  Ni35  1  0.16843328  0.83412101  0.83396566  1
  Ni  Ni36  1  0.50182042  0.16940357  0.50242613  1
  Ni  Ni37  1  0.33501088  0.00335989  0.66826595  1
  Ni  Ni38  1  0.50156156  0.16841586  0.83403016  1
  Ni  Ni39  1  0.49931934  0.50194923  0.50103169  1
  Ni  Ni40  1  0.33504328  0.33479410  0.66858681  1
  Ni  Ni41  1  0.50083724  0.50229857  0.83490984  1
  Ni  Ni42  1  0.50144915  0.83366069  0.50272814  1
  Fe  Fe43  1  0.33652008  0.66900992  0.66817253  1
  Ni  Ni44  1  0.50137457  0.83448914  0.83372648  1
  Ni  Ni45  1  0.83633507  0.16811562  0.50301690  1
  Ni  Ni46  1  0.66819203  1.00120791  0.66870860  1
  Ni  Ni47  1  0.83484998  0.16763826  0.83457368  1
  Fe  Fe48  1  0.83210725  0.50239389  0.50226693  1
  Ni  Ni49  1  0.66584978  0.33583789  0.66854445  1
  Ni  Ni50  1  0.83532953  0.50194482  0.83372954  1
  Ni  Ni51  1  0.83655409  0.83514670  0.50237257  1
  Ni  Ni52  1  0.66970309  0.66800725  0.66809302  1
  Ni  Ni53  1  0.83550854  0.83478101  0.83439183  1
" 