3533,Ni81Fe12Cr5_1,-238.839198377887, 188.310513709095,Ni81Fe12Cr5,"# generated using pymatgen
 data_Cr2Fe3Ni22
_symmetry_space_group_name_H-M   'P 1'
_cell_length_a   7.44223508
_cell_length_b   7.44223508
_cell_length_c   10.52490978
_cell_angle_alpha   90.00000000
_cell_angle_beta   90.00000000
_cell_angle_gamma   90.00000000
_symmetry_Int_Tables_number   1
_chemical_formula_structural   Cr2Fe3Ni22
_chemical_formula_sum   'Cr4 Fe6 Ni44'
_cell_volume   582.94173500
_cell_formula_units_Z   2
loop_
 _symmetry_equiv_pos_site_id
 _symmetry_equiv_pos_as_xyz
  1  'x, y, z'
loop_
 _atom_site_type_symbol
 _atom_site_label
 _atom_site_symmetry_multiplicity
 _atom_site_fract_x
 _atom_site_fract_y
 _atom_site_fract_z
 _atom_site_occupancy
  Ni  Ni0  1  1.00079746  1.00018152  1.00026560  1
  Cr  Cr1  1  0.16834156  0.16910297  0.16864308  1
  Ni  Ni2  1  1.00004242  0.00211383  0.33557540  1
  Fe  Fe3  1  1.00110382  0.33573563  1.00072108  1
  Ni  Ni4  1  0.16748135  0.50298166  0.16854225  1
  Ni  Ni5  1  1.00142766  0.33541180  0.33566112  1
  Ni  Ni6  1  0.00182136  0.66874551  0.00238331  1
  Fe  Fe7  1  0.16869712  0.83426073  0.16775261  1
  Fe  Fe8  1  1.00116188  0.66759838  0.33424397  1
  Ni  Ni9  1  0.33572702  1.00121127  1.00104340  1
  Ni  Ni10  1  0.50350794  0.16679304  0.16864018  1
  Ni  Ni11  1  0.33651508  1.00158691  0.33484123  1
  Ni  Ni12  1  0.33547412  0.33509468  1.00022027  1
  Cr  Cr13  1  0.50063570  0.50172759  0.16796873  1
  Ni  Ni14  1  0.33445940  0.33526810  0.33689892  1
  Ni  Ni15  1  0.33372636  0.66869555  1.00049138  1
  Ni  Ni16  1  0.50279281  0.83594221  0.16874782  1
  Ni  Ni17  1  0.33529017  0.66814576  0.33510215  1
  Ni  Ni18  1  0.66847857  0.00193093  0.00220107  1
  Ni  Ni19  1  0.83379785  0.16700529  0.16840190  1
  Ni  Ni20  1  0.66844602  1.00128126  0.33467183  1
  Ni  Ni21  1  0.66842669  0.33407018  1.00079404  1
  Fe  Fe22  1  0.83548678  0.50149768  0.16788189  1
  Ni  Ni23  1  0.66911284  0.33418768  0.33603162  1
  Ni  Ni24  1  0.66945369  0.66899819  1.00051495  1
  Ni  Ni25  1  0.83451333  0.83573122  0.16848942  1
  Ni  Ni26  1  0.66858817  0.66952992  0.33605298  1
  Ni  Ni27  1  0.16774482  0.17048390  0.50180069  1
  Ni  Ni28  1  0.00300602  0.00203433  0.66915741  1
  Ni  Ni29  1  0.16801082  0.16827543  0.83435686  1
  Ni  Ni30  1  0.16921691  0.49953748  0.50125381  1
  Ni  Ni31  1  0.00254104  0.33541758  0.66864170  1
  Ni  Ni32  1  0.16864326  0.50163364  0.83520541  1
  Cr  Cr33  1  0.16776320  0.83545691  0.50139782  1
  Ni  Ni34  1  1.00048830  0.66754848  0.66875539  1
  Ni  Ni35  1  0.16789513  0.83509044  0.83564764  1
  Ni  Ni36  1  0.50121510  0.16990274  0.49992397  1
  Ni  Ni37  1  0.33368861  0.00306374  0.66911640  1
  Ni  Ni38  1  0.50083750  0.16949371  0.83643729  1
  Ni  Ni39  1  0.50121131  0.50158699  0.50174788  1
  Ni  Ni40  1  0.33446032  0.33469570  0.66787900  1
  Ni  Ni41  1  0.50161308  0.50182498  0.83490323  1
  Ni  Ni42  1  0.50326168  0.83351083  0.50035472  1
  Fe  Fe43  1  0.33553002  0.66713454  0.66910075  1
  Ni  Ni44  1  0.50114415  0.83368136  0.83589733  1
  Ni  Ni45  1  0.83604067  0.16843361  0.50045095  1
  Cr  Cr46  1  0.66818466  1.00122187  0.66835664  1
  Ni  Ni47  1  0.83615281  0.16874634  0.83614940  1
  Fe  Fe48  1  0.83433819  0.50118602  0.50241604  1
  Ni  Ni49  1  0.66799990  0.33721382  0.66817494  1
  Ni  Ni50  1  0.83474509  0.50193963  0.83516435  1
  Ni  Ni51  1  0.83398962  0.83498163  0.50090347  1
  Ni  Ni52  1  0.66902805  0.66677730  0.66843371  1
  Ni  Ni53  1  0.83596103  0.83431595  0.83560945  1
" 