5290,Ni81Fe3Cr15_1,-232.479712189121, 157.081191347844,Ni81Fe3Cr15,"# generated using pymatgen
 data_Cr10FeNi43
_symmetry_space_group_name_H-M   'P 1'
_cell_length_a   7.47258428
_cell_length_b   7.47258428
_cell_length_c   10.56783003
_cell_angle_alpha   90.00000000
_cell_angle_beta   90.00000000
_cell_angle_gamma   90.00000000
_symmetry_Int_Tables_number   1
_chemical_formula_structural   Cr10FeNi43
_chemical_formula_sum   'Cr10 Fe1 Ni43'
_cell_volume   590.10251140
_cell_formula_units_Z   1
loop_
 _symmetry_equiv_pos_site_id
 _symmetry_equiv_pos_as_xyz
  1  'x, y, z'
loop_
 _atom_site_type_symbol
 _atom_site_label
 _atom_site_symmetry_multiplicity
 _atom_site_fract_x
 _atom_site_fract_y
 _atom_site_fract_z
 _atom_site_occupancy
  Ni  Ni0  1  0.00290574  -0.00036959  0.99799917  1
  Ni  Ni1  1  0.16582735  0.16668224  0.16543336  1
  Ni  Ni2  1  -0.00013048  -0.00032266  0.33448542  1
  Ni  Ni3  1  0.00185062  0.33381372  0.99914625  1
  Fe  Fe4  1  0.16555562  0.49940263  0.16572894  1
  Ni  Ni5  1  0.00008858  0.33377815  0.33322953  1
  Ni  Ni6  1  0.00035719  0.66551553  0.99873652  1
  Ni  Ni7  1  0.16571060  0.83351098  0.16451239  1
  Ni  Ni8  1  0.99878424  0.66554527  0.33407493  1
  Ni  Ni9  1  0.33057098  0.99837136  0.99865092  1
  Cr  Cr10  1  0.49692372  0.16779450  0.16733739  1
  Cr  Cr11  1  0.33237152  0.99858495  0.33406328  1
  Ni  Ni12  1  0.33065010  0.33396772  0.99912816  1
  Ni  Ni13  1  0.50007757  0.50093566  0.16626959  1
  Ni  Ni14  1  0.33190912  0.33378606  0.33368729  1
  Ni  Ni15  1  0.33285906  0.66657767  -0.00013568  1
  Ni  Ni16  1  0.49827439  0.82961278  0.16529410  1
  Cr  Cr17  1  0.33273235  0.66587165  0.33349949  1
  Cr  Cr18  1  0.66616451  0.99726998  0.99788326  1
  Cr  Cr19  1  0.83653005  0.16794548  0.16840270  1
  Ni  Ni20  1  0.66712918  0.99851309  0.33544721  1
  Cr  Cr21  1  0.66802540  0.33513068  0.99688341  1
  Ni  Ni22  1  0.83327586  0.50078568  0.16699140  1
  Ni  Ni23  1  0.66684990  0.33486918  0.33499765  1
  Ni  Ni24  1  0.66561033  0.66539858  0.99909982  1
  Cr  Cr25  1  0.83429055  0.83053348  0.16742232  1
  Ni  Ni26  1  0.66687910  0.66547337  0.33331401  1
  Ni  Ni27  1  0.16558259  0.16538450  0.49844420  1
  Ni  Ni28  1  0.99922902  0.99846820  0.66628637  1
  Ni  Ni29  1  0.16663607  0.16447263  0.83502638  1
  Ni  Ni30  1  0.16432582  0.49966761  0.49713572  1
  Cr  Cr31  1  0.99798570  0.33356653  0.66686173  1
  Ni  Ni32  1  0.16559620  0.50082338  0.83609783  1
  Ni  Ni33  1  0.16318037  0.83388220  0.50075690  1
  Ni  Ni34  1  0.99802085  0.66768240  0.66604995  1
  Ni  Ni35  1  0.16538592  0.83361028  0.83354760  1
  Ni  Ni36  1  0.50094802  0.16673529  0.49959269  1
  Ni  Ni37  1  0.33305261  0.99930144  0.66646133  1
  Ni  Ni38  1  0.49798125  0.16575084  0.83189867  1
  Ni  Ni39  1  0.50237902  0.49863415  0.49862533  1
  Cr  Cr40  1  0.33338594  0.33233484  0.66567688  1
  Ni  Ni41  1  0.50018132  0.50056761  0.83375374  1
  Ni  Ni42  1  0.50237328  0.83349523  0.50020102  1
  Cr  Cr43  1  0.33190243  0.66746451  0.66532769  1
  Ni  Ni44  1  0.49923258  0.83246024  0.83351393  1
  Ni  Ni45  1  0.83236099  0.16566932  0.49843725  1
  Ni  Ni46  1  0.66663561  0.99958304  0.66614583  1
  Ni  Ni47  1  0.83440179  0.16536863  0.83221340  1
  Ni  Ni48  1  0.83203847  0.50077729  0.49873655  1
  Ni  Ni49  1  0.66681951  0.33274394  0.66636075  1
  Ni  Ni50  1  0.83306691  0.50196840  0.83304992  1
  Ni  Ni51  1  0.83331139  0.83250263  0.49936041  1
  Ni  Ni52  1  0.66766694  0.66654403  0.66655877  1
  Ni  Ni53  1  0.83424111  0.83155756  0.83229119  1
" 