4666,Ni81Fe3Cr15_17,-232.75580868687, 163.239877533278,Ni81Fe3Cr15,"# generated using pymatgen
 data_Cr10FeNi43
_symmetry_space_group_name_H-M   'P 1'
_cell_length_a   7.47173062
_cell_length_b   7.47173062
_cell_length_c   10.56662278
_cell_angle_alpha   90.00000000
_cell_angle_beta   90.00000000
_cell_angle_gamma   90.00000000
_symmetry_Int_Tables_number   1
_chemical_formula_structural   Cr10FeNi43
_chemical_formula_sum   'Cr10 Fe1 Ni43'
_cell_volume   589.90029798
_cell_formula_units_Z   1
loop_
 _symmetry_equiv_pos_site_id
 _symmetry_equiv_pos_as_xyz
  1  'x, y, z'
loop_
 _atom_site_type_symbol
 _atom_site_label
 _atom_site_symmetry_multiplicity
 _atom_site_fract_x
 _atom_site_fract_y
 _atom_site_fract_z
 _atom_site_occupancy
  Cr  Cr0  1  0.00104232  0.00010482  0.99756898  1
  Cr  Cr1  1  0.16852333  0.16696906  0.16651564  1
  Ni  Ni2  1  0.00096253  0.99816706  0.33488626  1
  Ni  Ni3  1  0.99888506  0.33377136  0.99875621  1
  Ni  Ni4  1  0.16715324  0.50072835  0.16702661  1
  Ni  Ni5  1  -0.00027483  0.33484040  0.33406369  1
  Cr  Cr6  1  0.99861916  0.66533533  0.00019248  1
  Ni  Ni7  1  0.16823713  0.83137714  0.16772904  1
  Ni  Ni8  1  0.99930702  0.66605001  0.33308254  1
  Ni  Ni9  1  0.33338564  0.99860998  0.99957865  1
  Ni  Ni10  1  0.49794562  0.16786155  0.16619396  1
  Ni  Ni11  1  0.33222435  0.99924895  0.33341971  1
  Ni  Ni12  1  0.33386690  0.33375930  0.00053426  1
  Ni  Ni13  1  0.49992965  0.49996260  0.16563096  1
  Ni  Ni14  1  0.33346540  0.33375881  0.33371842  1
  Ni  Ni15  1  0.33611581  0.66669001  0.00005700  1
  Ni  Ni16  1  0.49794242  0.83123597  0.16557333  1
  Ni  Ni17  1  0.33280638  0.66605101  0.33294164  1
  Cr  Cr18  1  0.66486630  0.99758298  0.00009217  1
  Cr  Cr19  1  0.83234900  0.16871001  0.16692991  1
  Cr  Cr20  1  0.66536716  0.99863324  0.33341118  1
  Ni  Ni21  1  0.66630666  0.33649658  0.99897338  1
  Ni  Ni22  1  0.83197700  0.50072928  0.16664494  1
  Ni  Ni23  1  0.66586736  0.33541634  0.33420275  1
  Ni  Ni24  1  0.66447724  0.66436182  -0.00022395  1
  Ni  Ni25  1  0.83288124  0.82938770  0.16791475  1
  Ni  Ni26  1  0.66694704  0.66481105  0.33214404  1
  Ni  Ni27  1  0.16718683  0.16550113  0.49897861  1
  Ni  Ni28  1  0.99912634  0.99850255  0.66693530  1
  Ni  Ni29  1  0.16576101  0.16431144  0.83361174  1
  Ni  Ni30  1  0.16718839  0.50041810  0.49869639  1
  Cr  Cr31  1  -0.00016195  0.33234999  0.66619462  1
  Cr  Cr32  1  0.16802462  0.50004268  0.83326421  1
  Ni  Ni33  1  0.16611501  0.83314204  0.49993369  1
  Ni  Ni34  1  0.00005242  0.66888125  0.66561689  1
  Ni  Ni35  1  0.16759955  0.83497724  0.83139790  1
  Ni  Ni36  1  0.49892095  0.16737794  0.50033554  1
  Ni  Ni37  1  0.33258455  0.99925512  0.66606257  1
  Cr  Cr38  1  0.49887253  0.16705640  0.83257230  1
  Ni  Ni39  1  0.49874412  0.49836610  0.49910349  1
  Ni  Ni40  1  0.33401479  0.33275695  0.66480608  1
  Ni  Ni41  1  0.50078341  0.50063374  0.83432369  1
  Ni  Ni42  1  0.49794259  0.83331528  0.49985192  1
  Ni  Ni43  1  0.33273261  0.66704752  0.66605928  1
  Ni  Ni44  1  0.49813946  0.83148314  0.83363496  1
  Ni  Ni45  1  0.83295087  0.16630467  0.50002379  1
  Ni  Ni46  1  0.66734855  -0.00021962  0.66582130  1
  Ni  Ni47  1  0.83417690  0.16695363  0.83238230  1
  Ni  Ni48  1  0.83312624  0.49943988  0.49766719  1
  Fe  Fe49  1  0.66545889  0.33208737  0.66550047  1
  Ni  Ni50  1  0.83068950  0.49879838  0.83474364  1
  Ni  Ni51  1  0.83500165  0.83331625  0.49973492  1
  Cr  Cr52  1  0.66619832  0.66701956  0.66685432  1
  Ni  Ni53  1  0.83332308  0.83330797  0.83141168  1
" 