7275,Ni81Fe13Cr4_0,-239.089366962113, 192.385317978311,Ni81Fe13Cr4,"# generated using pymatgen
 data_Cr4Fe7Ni43
_symmetry_space_group_name_H-M   'P 1'
_cell_length_a   7.43954954
_cell_length_b   7.43954954
_cell_length_c   10.52111185
_cell_angle_alpha   90.00000000
_cell_angle_beta   90.00000000
_cell_angle_gamma   90.00000000
_symmetry_Int_Tables_number   1
_chemical_formula_structural   Cr4Fe7Ni43
_chemical_formula_sum   'Cr4 Fe7 Ni43'
_cell_volume   582.31089766
_cell_formula_units_Z   1
loop_
 _symmetry_equiv_pos_site_id
 _symmetry_equiv_pos_as_xyz
  1  'x, y, z'
loop_
 _atom_site_type_symbol
 _atom_site_label
 _atom_site_symmetry_multiplicity
 _atom_site_fract_x
 _atom_site_fract_y
 _atom_site_fract_z
 _atom_site_occupancy
  Ni  Ni0  1  1.00178904  1.00148101  1.00169632  1
  Ni  Ni1  1  0.16921688  0.16787099  0.16891027  1
  Ni  Ni2  1  1.00173802  1.00097774  0.33541204  1
  Ni  Ni3  1  0.00283723  0.33507152  1.00174368  1
  Ni  Ni4  1  0.16749798  0.50146173  0.16799735  1
  Fe  Fe5  1  0.00239630  0.33399965  0.33388089  1
  Ni  Ni6  1  0.00193418  0.66899006  0.00209498  1
  Ni  Ni7  1  0.16701504  0.83621179  0.16783247  1
  Ni  Ni8  1  1.00121410  0.67032562  0.33435563  1
  Fe  Fe9  1  0.33404688  1.00168753  0.00250906  1
  Ni  Ni10  1  0.50195321  0.16876117  0.16953206  1
  Ni  Ni11  1  0.33363891  0.00518275  0.33425259  1
  Ni  Ni12  1  0.33442227  0.33627507  0.00290286  1
  Ni  Ni13  1  0.50347197  0.50036801  0.16804455  1
  Ni  Ni14  1  0.33605048  0.33371782  0.33576534  1
  Fe  Fe15  1  0.33500063  0.66777200  1.00124515  1
  Fe  Fe16  1  0.50327955  0.83614577  0.16781209  1
  Cr  Cr17  1  0.33374258  0.66643566  0.33461512  1
  Ni  Ni18  1  0.66991056  1.00099800  0.00270532  1
  Ni  Ni19  1  0.83437429  0.16828035  0.16804018  1
  Ni  Ni20  1  0.67017045  0.00339352  0.33466186  1
  Ni  Ni21  1  0.66828652  0.33612630  0.00274985  1
  Ni  Ni22  1  0.83457433  0.50257130  0.16858312  1
  Ni  Ni23  1  0.66648567  0.33424465  0.33414431  1
  Ni  Ni24  1  0.66870874  0.66841846  1.00180176  1
  Ni  Ni25  1  0.83546567  0.83469255  0.16972185  1
  Ni  Ni26  1  0.67069493  0.66790904  0.33360374  1
  Ni  Ni27  1  0.16902291  0.16768856  0.50158853  1
  Ni  Ni28  1  0.00200405  1.00092222  0.66843723  1
  Ni  Ni29  1  0.16738573  0.16807997  0.83504292  1
  Ni  Ni30  1  0.16908765  0.50147270  0.50270483  1
  Fe  Fe31  1  0.00292386  0.33446648  0.66963745  1
  Ni  Ni32  1  0.16772174  0.50202969  0.83484253  1
  Ni  Ni33  1  0.16660435  0.83638098  0.50296315  1
  Ni  Ni34  1  0.00320801  0.67036090  0.66909248  1
  Ni  Ni35  1  0.16802241  0.83543472  0.83474600  1
  Ni  Ni36  1  0.50186001  0.16963680  0.50147514  1
  Ni  Ni37  1  0.33292523  0.00228744  0.66843770  1
  Cr  Cr38  1  0.50157031  0.16818111  0.83457730  1
  Ni  Ni39  1  0.50159452  0.49932333  0.50316484  1
  Ni  Ni40  1  0.33527985  0.33652062  0.66687655  1
  Ni  Ni41  1  0.50286847  0.50350199  0.83433441  1
  Cr  Cr42  1  0.50221350  0.83632607  0.50277823  1
  Ni  Ni43  1  0.33397738  0.66673529  0.66966660  1
  Ni  Ni44  1  0.50246185  0.83385370  0.83553938  1
  Ni  Ni45  1  0.83466160  0.16715252  0.50230494  1
  Ni  Ni46  1  0.67061972  0.00222579  0.66818153  1
  Fe  Fe47  1  0.83671045  0.16823726  0.83536579  1
  Cr  Cr48  1  0.83477056  0.50229981  0.50111215  1
  Ni  Ni49  1  0.66699375  0.33531793  0.66864942  1
  Ni  Ni50  1  0.83495406  0.50286821  0.83557275  1
  Fe  Fe51  1  0.83701646  0.83693515  0.50177762  1
  Ni  Ni52  1  0.66836114  0.66800054  0.67013983  1
  Ni  Ni53  1  0.83506144  0.83418758  0.83417369  1
" 