1470,Ni81Cr19_7,-207.093483820668, 160.258059430562,Ni81Cr19,"# generated using pymatgen
 data_Cr43Ni11
_symmetry_space_group_name_H-M   'P 1'
_cell_length_a   7.57944776
_cell_length_b   7.57944776
_cell_length_c   10.71895782
_cell_angle_alpha   90.00000000
_cell_angle_beta   90.00000000
_cell_angle_gamma   90.00000000
_symmetry_Int_Tables_number   1
_chemical_formula_structural   Cr43Ni11
_chemical_formula_sum   'Cr43 Ni11'
_cell_volume   615.78299322
_cell_formula_units_Z   1
loop_
 _symmetry_equiv_pos_site_id
 _symmetry_equiv_pos_as_xyz
  1  'x, y, z'
loop_
 _atom_site_type_symbol
 _atom_site_label
 _atom_site_symmetry_multiplicity
 _atom_site_fract_x
 _atom_site_fract_y
 _atom_site_fract_z
 _atom_site_occupancy
  Cr  Cr0  1  -0.00437481  0.99245150  -0.00733894  1
  Ni  Ni1  1  0.16138200  0.15912910  0.16001890  1
  Cr  Cr2  1  -0.00637109  -0.00434625  0.32626850  1
  Cr  Cr3  1  0.99158706  0.32616893  -0.00711262  1
  Cr  Cr4  1  0.15868433  0.49126570  0.16098055  1
  Ni  Ni5  1  -0.00531948  0.32387267  0.32636141  1
  Cr  Cr6  1  0.99190530  0.65925987  0.99043928  1
  Cr  Cr7  1  0.16001635  0.82728538  0.15765243  1
  Cr  Cr8  1  0.99169928  0.65799259  0.32525679  1
  Ni  Ni9  1  0.32622561  -0.00739119  -0.00732143  1
  Ni  Ni10  1  0.49052406  0.15914395  0.15717827  1
  Cr  Cr11  1  0.32532436  -0.00383442  0.32535682  1
  Cr  Cr12  1  0.32728581  0.32251058  -0.00410180  1
  Cr  Cr13  1  0.49279063  0.49070902  0.15904928  1
  Cr  Cr14  1  0.32359994  0.32347633  0.32505335  1
  Cr  Cr15  1  0.32575238  0.66133916  0.99012649  1
  Cr  Cr16  1  0.49153228  0.82786633  0.15905634  1
  Cr  Cr17  1  0.32649139  0.65797770  0.32694458  1
  Cr  Cr18  1  0.65661236  -0.00603961  -0.00662047  1
  Cr  Cr19  1  0.82561696  0.16039311  0.15898241  1
  Cr  Cr20  1  0.65887786  -0.00717344  0.32569135  1
  Ni  Ni21  1  0.65898513  0.32585742  0.99237486  1
  Cr  Cr22  1  0.82622480  0.49102809  0.15885579  1
  Cr  Cr23  1  0.65881626  0.32526834  0.32441597  1
  Cr  Cr24  1  0.66012593  0.65752081  0.99121323  1
  Cr  Cr25  1  0.82625953  0.82639857  0.16103842  1
  Cr  Cr26  1  0.65959814  0.65963394  0.32628089  1
  Ni  Ni27  1  0.15699159  0.16137533  0.49203635  1
  Cr  Cr28  1  -0.00590283  -0.00595187  0.65876165  1
  Cr  Cr29  1  0.15893949  0.15764454  0.82560536  1
  Cr  Cr30  1  0.15815372  0.49011585  0.49185167  1
  Ni  Ni31  1  0.99036834  0.32608664  0.65858950  1
  Cr  Cr32  1  0.15724128  0.49354102  0.82493599  1
  Cr  Cr33  1  0.15954659  0.82671665  0.49264419  1
  Cr  Cr34  1  0.99216051  0.65820121  0.66195222  1
  Ni  Ni35  1  0.16252779  0.82660085  0.82704048  1
  Cr  Cr36  1  0.49280046  0.15988032  0.49401629  1
  Cr  Cr37  1  0.32507384  0.99244932  0.66018778  1
  Cr  Cr38  1  0.49410748  0.15866088  0.82719525  1
  Cr  Cr39  1  0.49266602  0.49221408  0.49315595  1
  Cr  Cr40  1  0.32490515  0.32494456  0.65687045  1
  Cr  Cr41  1  0.49507501  0.49172726  0.82553285  1
  Cr  Cr42  1  0.49237373  0.82566305  0.49229027  1
  Cr  Cr43  1  0.32627330  0.66029122  0.66069001  1
  Ni  Ni44  1  0.48944863  0.82655653  0.82680156  1
  Cr  Cr45  1  0.82788165  0.16110163  0.49449688  1
  Cr  Cr46  1  0.65868622  -0.00729675  0.65877910  1
  Cr  Cr47  1  0.82471040  0.16329687  0.82425740  1
  Cr  Cr48  1  0.82682407  0.48996449  0.49347451  1
  Ni  Ni49  1  0.66253213  0.32727779  0.66060944  1
  Ni  Ni50  1  0.82473014  0.49000279  0.82479763  1
  Cr  Cr51  1  0.82581104  0.82684336  0.49046896  1
  Cr  Cr52  1  0.65935637  0.65821815  0.66023671  1
  Cr  Cr53  1  0.82646640  0.82571095  0.82622175  1
" 