485,Ni81Fe12Cr5_10,-238.822206247473, 188.108787001789,Ni81Fe12Cr5,"# generated using pymatgen
 data_Cr2Fe3Ni22
_symmetry_space_group_name_H-M   'P 1'
_cell_length_a   7.44211248
_cell_length_b   7.44211248
_cell_length_c   10.52473641
_cell_angle_alpha   90.00000000
_cell_angle_beta   90.00000000
_cell_angle_gamma   90.00000000
_symmetry_Int_Tables_number   1
_chemical_formula_structural   Cr2Fe3Ni22
_chemical_formula_sum   'Cr4 Fe6 Ni44'
_cell_volume   582.91292795
_cell_formula_units_Z   2
loop_
 _symmetry_equiv_pos_site_id
 _symmetry_equiv_pos_as_xyz
  1  'x, y, z'
loop_
 _atom_site_type_symbol
 _atom_site_label
 _atom_site_symmetry_multiplicity
 _atom_site_fract_x
 _atom_site_fract_y
 _atom_site_fract_z
 _atom_site_occupancy
  Ni  Ni0  1  0.00190320  0.00168581  0.00168269  1
  Fe  Fe1  1  0.16857236  0.16787797  0.16839539  1
  Ni  Ni2  1  0.00241683  0.00171071  0.33500458  1
  Ni  Ni3  1  1.00124064  0.33232416  0.00204591  1
  Ni  Ni4  1  0.16916502  0.50216066  0.16877591  1
  Ni  Ni5  1  0.00185544  0.33321990  0.33594818  1
  Ni  Ni6  1  1.00136651  0.67095575  1.00076118  1
  Ni  Ni7  1  0.16756960  0.83426399  0.16797097  1
  Ni  Ni8  1  0.00213355  0.67004497  0.33697065  1
  Ni  Ni9  1  0.33468337  1.00094780  1.00126465  1
  Ni  Ni10  1  0.50203461  0.16829872  0.16796318  1
  Ni  Ni11  1  0.33280310  0.99988162  0.33428618  1
  Ni  Ni12  1  0.33624074  0.33396653  0.00242432  1
  Ni  Ni13  1  0.49997823  0.50034774  0.16823345  1
  Ni  Ni14  1  0.33458561  0.33574333  0.33461146  1
  Ni  Ni15  1  0.33702787  0.66998812  0.00251933  1
  Ni  Ni16  1  0.50152347  0.83641807  0.16838582  1
  Ni  Ni17  1  0.33616055  0.66922872  0.33555511  1
  Ni  Ni18  1  0.66844781  1.00109385  0.00169444  1
  Ni  Ni19  1  0.83387958  0.16688739  0.16844626  1
  Fe  Fe20  1  0.66847698  1.00033382  0.33303796  1
  Ni  Ni21  1  0.66756577  0.33456073  1.00014334  1
  Cr  Cr22  1  0.83634695  0.50280361  0.16738980  1
  Ni  Ni23  1  0.66870753  0.33645381  0.33542095  1
  Ni  Ni24  1  0.66656967  0.66926773  1.00098128  1
  Ni  Ni25  1  0.83588071  0.83687590  0.16821927  1
  Ni  Ni26  1  0.66674212  0.66854582  0.33552562  1
  Ni  Ni27  1  0.16889123  0.16726805  0.50025972  1
  Ni  Ni28  1  0.00227094  1.00079515  0.66840889  1
  Ni  Ni29  1  0.17055622  0.16607429  0.83652539  1
  Ni  Ni30  1  0.16865583  0.50208089  0.50050344  1
  Cr  Cr31  1  1.00036552  0.33216348  0.66711317  1
  Cr  Cr32  1  0.16897529  0.50302834  0.83607616  1
  Ni  Ni33  1  0.16765474  0.83568422  0.50249567  1
  Fe  Fe34  1  1.00130252  0.66989241  0.66765017  1
  Ni  Ni35  1  0.16761033  0.83739050  0.83459458  1
  Cr  Cr36  1  0.50065757  0.16749595  0.50192174  1
  Ni  Ni37  1  0.33234200  0.99998821  0.66946193  1
  Ni  Ni38  1  0.50085529  0.16825210  0.83496625  1
  Ni  Ni39  1  0.50215939  0.50184141  0.50175809  1
  Ni  Ni40  1  0.33657260  0.33490847  0.66809229  1
  Ni  Ni41  1  0.50357052  0.50056411  0.83501446  1
  Ni  Ni42  1  0.50223484  0.83484833  0.50142386  1
  Ni  Ni43  1  0.33841732  0.67026758  0.66687232  1
  Ni  Ni44  1  0.50199749  0.83629629  0.83510937  1
  Fe  Fe45  1  0.83557149  0.16731042  0.49986114  1
  Fe  Fe46  1  0.66795157  1.00045197  0.66997548  1
  Fe  Fe47  1  0.83426720  0.16708691  0.83680157  1
  Ni  Ni48  1  0.83440749  0.50325994  0.50087974  1
  Ni  Ni49  1  0.66845848  0.33773490  0.66953532  1
  Ni  Ni50  1  0.83286150  0.50322763  0.83633028  1
  Ni  Ni51  1  0.83515775  0.83458738  0.50142439  1
  Ni  Ni52  1  0.66748318  0.66772877  0.66838753  1
  Ni  Ni53  1  0.83533857  0.83434978  0.83536385  1
" 