553,Ni81Fe6Cr11_0,-235.664927344093, 174.27574248995,Ni81Fe6Cr11,"# generated using pymatgen
 data_Cr7Fe3Ni44
_symmetry_space_group_name_H-M   'P 1'
_cell_length_a   7.45743549
_cell_length_b   7.45743549
_cell_length_c   10.54640642
_cell_angle_alpha   90.00000000
_cell_angle_beta   90.00000000
_cell_angle_gamma   90.00000000
_symmetry_Int_Tables_number   1
_chemical_formula_structural   Cr7Fe3Ni44
_chemical_formula_sum   'Cr7 Fe3 Ni44'
_cell_volume   586.52092957
_cell_formula_units_Z   1
loop_
 _symmetry_equiv_pos_site_id
 _symmetry_equiv_pos_as_xyz
  1  'x, y, z'
loop_
 _atom_site_type_symbol
 _atom_site_label
 _atom_site_symmetry_multiplicity
 _atom_site_fract_x
 _atom_site_fract_y
 _atom_site_fract_z
 _atom_site_occupancy
  Ni  Ni0  1  0.00261090  0.00152415  0.99961347  1
  Ni  Ni1  1  0.16717103  0.16677266  0.16659825  1
  Ni  Ni2  1  0.00269591  0.99999031  0.33467304  1
  Ni  Ni3  1  0.00077295  0.33355220  0.00245442  1
  Ni  Ni4  1  0.16700930  0.50087127  0.16801175  1
  Fe  Fe5  1  1.00026838  0.33281473  0.33373019  1
  Ni  Ni6  1  0.00133467  0.66677745  0.00064830  1
  Ni  Ni7  1  0.16837616  0.83428209  0.16729331  1
  Ni  Ni8  1  0.00166052  0.66666307  0.33455212  1
  Ni  Ni9  1  0.33250702  0.99883797  0.00141857  1
  Ni  Ni10  1  0.49981322  0.16610369  0.16852853  1
  Ni  Ni11  1  0.33291634  0.00188045  0.33454534  1
  Fe  Fe12  1  0.33252624  0.33421270  0.00298537  1
  Ni  Ni13  1  0.49991183  0.50166932  0.16757795  1
  Ni  Ni14  1  0.33321079  0.33261574  0.33201293  1
  Ni  Ni15  1  0.33429022  0.66915662  0.00245823  1
  Ni  Ni16  1  0.49950125  0.83439966  0.16759023  1
  Fe  Fe17  1  0.33374546  0.66905198  0.33318559  1
  Ni  Ni18  1  0.66660623  0.99967906  0.00150625  1
  Ni  Ni19  1  0.83478982  0.16742801  0.16835257  1
  Ni  Ni20  1  0.66631461  0.00160185  0.33422765  1
  Cr  Cr21  1  0.66877627  0.33539362  0.00100821  1
  Ni  Ni22  1  0.83480315  0.50042547  0.16831728  1
  Ni  Ni23  1  0.66692873  0.33382737  0.33368655  1
  Ni  Ni24  1  0.66624199  0.66717645  0.99964079  1
  Cr  Cr25  1  0.83431903  0.83496338  0.16638157  1
  Ni  Ni26  1  0.66876346  0.66655398  0.33360274  1
  Ni  Ni27  1  0.16641830  0.16657246  0.50040417  1
  Ni  Ni28  1  0.00277536  1.00024619  0.66765476  1
  Ni  Ni29  1  0.16401313  0.16482894  0.83488689  1
  Ni  Ni30  1  0.16496978  0.50120149  0.49914091  1
  Ni  Ni31  1  0.99836624  0.33327997  0.66550397  1
  Cr  Cr32  1  0.16668010  0.50132074  0.83447220  1
  Ni  Ni33  1  0.16670658  0.83411100  0.50092400  1
  Ni  Ni34  1  0.99995586  0.66843703  0.66653758  1
  Ni  Ni35  1  0.16733634  0.83520971  0.83381535  1
  Ni  Ni36  1  0.50041863  0.16608615  0.49874627  1
  Ni  Ni37  1  0.33094427  0.99772972  0.66610426  1
  Cr  Cr38  1  0.49894635  0.16621699  0.83451277  1
  Cr  Cr39  1  0.50123682  0.50129803  0.50118413  1
  Cr  Cr40  1  0.33295673  0.33215947  0.66745403  1
  Ni  Ni41  1  0.50193106  0.50482540  0.83383254  1
  Ni  Ni42  1  0.50025623  0.83480550  0.49957943  1
  Ni  Ni43  1  0.33332949  0.67095153  0.66636436  1
  Ni  Ni44  1  0.49948192  0.83160155  0.83482971  1
  Ni  Ni45  1  0.83498714  0.16762819  0.49952233  1
  Cr  Cr46  1  0.66839812  0.99961668  0.66602330  1
  Ni  Ni47  1  0.83752904  0.16715712  0.83400587  1
  Ni  Ni48  1  0.83551282  0.50098499  0.50087218  1
  Ni  Ni49  1  0.67106765  0.33570260  0.66708950  1
  Ni  Ni50  1  0.83406506  0.50148547  0.83265414  1
  Ni  Ni51  1  0.83490751  0.83319737  0.49996973  1
  Ni  Ni52  1  0.66860834  0.66666358  0.66877709  1
  Ni  Ni53  1  0.83513671  0.83325799  0.83533845  1
" 