1311,Ni81Cr19_15,-207.156519026633, 161.709002091642,Ni81Cr19,"# generated using pymatgen
 data_Cr43Ni11
_symmetry_space_group_name_H-M   'P 1'
_cell_length_a   7.57927613
_cell_length_b   7.57927613
_cell_length_c   10.71871509
_cell_angle_alpha   90.00000000
_cell_angle_beta   90.00000000
_cell_angle_gamma   90.00000000
_symmetry_Int_Tables_number   1
_chemical_formula_structural   Cr43Ni11
_chemical_formula_sum   'Cr43 Ni11'
_cell_volume   615.74116079
_cell_formula_units_Z   1
loop_
 _symmetry_equiv_pos_site_id
 _symmetry_equiv_pos_as_xyz
  1  'x, y, z'
loop_
 _atom_site_type_symbol
 _atom_site_label
 _atom_site_symmetry_multiplicity
 _atom_site_fract_x
 _atom_site_fract_y
 _atom_site_fract_z
 _atom_site_occupancy
  Cr  Cr0  1  0.99236664  -0.00566271  0.99227453  1
  Cr  Cr1  1  0.15996309  0.15758452  0.16118060  1
  Ni  Ni2  1  -0.00420680  -0.00544460  0.32752631  1
  Ni  Ni3  1  -0.00650791  0.32986688  0.99108409  1
  Cr  Cr4  1  0.15729810  0.49338170  0.15645038  1
  Cr  Cr5  1  0.99237486  0.32489890  0.32666677  1
  Ni  Ni6  1  0.99144669  0.65538678  0.99107531  1
  Cr  Cr7  1  0.15801826  0.82720380  0.16094396  1
  Cr  Cr8  1  -0.00684452  0.65935740  0.32633067  1
  Cr  Cr9  1  0.32768729  -0.00572613  -0.00547954  1
  Ni  Ni10  1  0.49247981  0.15892228  0.16202520  1
  Ni  Ni11  1  0.32558961  -0.00527402  0.32734535  1
  Cr  Cr12  1  0.32424833  0.32551870  0.99237067  1
  Cr  Cr13  1  0.49473362  0.49092229  0.16022683  1
  Cr  Cr14  1  0.32636897  0.32450548  0.32504645  1
  Cr  Cr15  1  0.32503017  0.65799283  0.99202824  1
  Cr  Cr16  1  0.49157385  0.82655500  0.15917400  1
  Cr  Cr17  1  0.32648139  0.66092074  0.32689823  1
  Cr  Cr18  1  0.65780421  -0.00710671  0.99193705  1
  Cr  Cr19  1  0.82633300  0.16036558  0.16034821  1
  Cr  Cr20  1  0.65796370  -0.00643173  0.32545192  1
  Cr  Cr21  1  0.65921048  0.32417134  -0.00471287  1
  Cr  Cr22  1  0.82557178  0.49277111  0.15862962  1
  Ni  Ni23  1  0.65773846  0.32357915  0.32472985  1
  Ni  Ni24  1  0.66179614  0.65864809  0.99235073  1
  Cr  Cr25  1  0.82816226  0.82447120  0.15741798  1
  Cr  Cr26  1  0.65824239  0.65901852  0.32744463  1
  Ni  Ni27  1  0.16130370  0.15801133  0.49160356  1
  Cr  Cr28  1  0.99259040  -0.00644552  0.65766200  1
  Cr  Cr29  1  0.15984237  0.16143652  0.82468013  1
  Cr  Cr30  1  0.16101951  0.48983295  0.49407284  1
  Cr  Cr31  1  -0.00444871  0.32637164  0.65966570  1
  Ni  Ni32  1  0.15811732  0.49116108  0.82711206  1
  Cr  Cr33  1  0.16054359  0.83005610  0.48948528  1
  Cr  Cr34  1  -0.00644468  0.65796321  0.65986568  1
  Cr  Cr35  1  0.15827678  0.82428631  0.82800594  1
  Cr  Cr36  1  0.49002890  0.16009850  0.49257166  1
  Cr  Cr37  1  0.32605515  -0.00699456  0.65803040  1
  Cr  Cr38  1  0.49128700  0.16087718  0.82500680  1
  Cr  Cr39  1  0.49270956  0.49139712  0.49277151  1
  Ni  Ni40  1  0.32293559  0.32575358  0.65934212  1
  Cr  Cr41  1  0.49141022  0.49185905  0.82461417  1
  Ni  Ni42  1  0.49084977  0.82830316  0.49149659  1
  Cr  Cr43  1  0.32510074  0.65804894  0.65863286  1
  Cr  Cr44  1  0.49293587  0.82472221  0.82617496  1
  Cr  Cr45  1  0.82766009  0.15942789  0.49134675  1
  Cr  Cr46  1  0.65909342  0.99147168  0.66035743  1
  Cr  Cr47  1  0.82665895  0.16043303  0.82615545  1
  Cr  Cr48  1  0.82414708  0.49093614  0.49070167  1
  Cr  Cr49  1  0.65937389  0.32512903  0.65834483  1
  Cr  Cr50  1  0.82642366  0.49299179  0.82833253  1
  Cr  Cr51  1  0.82644848  0.82713710  0.49221309  1
  Cr  Cr52  1  0.65889809  0.66129186  0.65731229  1
  Cr  Cr53  1  0.82646269  0.82424955  0.82787978  1
" 