5161,Ni81Cr19_11,-207.282110194208, 165.533916926666,Ni81Cr19,"# generated using pymatgen
 data_Cr43Ni11
_symmetry_space_group_name_H-M   'P 1'
_cell_length_a   7.57780342
_cell_length_b   7.57780342
_cell_length_c   10.71663238
_cell_angle_alpha   90.00000000
_cell_angle_beta   90.00000000
_cell_angle_gamma   90.00000000
_symmetry_Int_Tables_number   1
_chemical_formula_structural   Cr43Ni11
_chemical_formula_sum   'Cr43 Ni11'
_cell_volume   615.38230335
_cell_formula_units_Z   1
loop_
 _symmetry_equiv_pos_site_id
 _symmetry_equiv_pos_as_xyz
  1  'x, y, z'
loop_
 _atom_site_type_symbol
 _atom_site_label
 _atom_site_symmetry_multiplicity
 _atom_site_fract_x
 _atom_site_fract_y
 _atom_site_fract_z
 _atom_site_occupancy
  Ni  Ni0  1  0.99146362  0.99072764  -0.00585837  1
  Cr  Cr1  1  0.15727135  0.15935059  0.15896462  1
  Cr  Cr2  1  -0.00686354  0.98833063  0.32529553  1
  Cr  Cr3  1  -0.00649360  0.32762430  0.99235414  1
  Cr  Cr4  1  0.16148051  0.49299248  0.16085454  1
  Ni  Ni5  1  -0.00693246  0.32590551  0.32600620  1
  Cr  Cr6  1  0.99154490  0.66122766  -0.00671059  1
  Cr  Cr7  1  0.16172581  0.82588294  0.15817165  1
  Cr  Cr8  1  -0.00645587  0.65924443  0.32672784  1
  Cr  Cr9  1  0.32672401  -0.00507921  -0.00706333  1
  Ni  Ni10  1  0.49311449  0.15912235  0.15937409  1
  Cr  Cr11  1  0.32741712  -0.00682049  0.32733435  1
  Cr  Cr12  1  0.32808510  0.32496229  0.99230260  1
  Cr  Cr13  1  0.49135743  0.49596819  0.15850992  1
  Cr  Cr14  1  0.32733774  0.32421439  0.32433602  1
  Ni  Ni15  1  0.32748888  0.66006404  0.99263873  1
  Cr  Cr16  1  0.49281905  0.82399860  0.15867429  1
  Ni  Ni17  1  0.32491798  0.66041161  0.32736848  1
  Cr  Cr18  1  0.65822854  -0.00692138  -0.00563464  1
  Cr  Cr19  1  0.82790582  0.15787298  0.16050938  1
  Cr  Cr20  1  0.65712271  -0.00670284  0.32514286  1
  Cr  Cr21  1  0.65667973  0.32592034  0.99189732  1
  Cr  Cr22  1  0.82511945  0.49170577  0.16020042  1
  Cr  Cr23  1  0.65706593  0.32438187  0.32622730  1
  Ni  Ni24  1  0.65827273  0.66087358  -0.00584501  1
  Ni  Ni25  1  0.82591252  0.82594769  0.15627646  1
  Cr  Cr26  1  0.66148686  0.66073099  0.32399824  1
  Cr  Cr27  1  0.15727722  0.15842127  0.49111806  1
  Cr  Cr28  1  -0.00585439  0.98927453  0.65922593  1
  Cr  Cr29  1  0.15723766  0.15795440  0.82824449  1
  Cr  Cr30  1  0.16159699  0.49260155  0.49104965  1
  Cr  Cr31  1  -0.00659913  0.32860400  0.66007590  1
  Cr  Cr32  1  0.16234921  0.49439169  0.82622567  1
  Ni  Ni33  1  0.16221473  0.82382193  0.49274350  1
  Cr  Cr34  1  -0.00525992  0.66027336  0.65771021  1
  Cr  Cr35  1  0.16177312  0.82619841  0.82667602  1
  Ni  Ni36  1  0.49171215  0.15955225  0.49274051  1
  Cr  Cr37  1  0.32666929  -0.00635744  0.65775022  1
  Ni  Ni38  1  0.49266144  0.15890243  0.82599698  1
  Cr  Cr39  1  0.49151515  0.49494030  0.49254401  1
  Cr  Cr40  1  0.32785545  0.32456895  0.66151170  1
  Cr  Cr41  1  0.49191331  0.49660293  0.82689401  1
  Cr  Cr42  1  0.49012126  0.82427283  0.49311130  1
  Ni  Ni43  1  0.32524671  0.66043898  0.65787983  1
  Cr  Cr44  1  0.49182531  0.82451595  0.82628009  1
  Cr  Cr45  1  0.82646742  0.15996956  0.49221396  1
  Cr  Cr46  1  0.65620892  -0.00546648  0.65839342  1
  Cr  Cr47  1  0.82701995  0.15808721  0.82571037  1
  Cr  Cr48  1  0.82601404  0.48997016  0.49190344  1
  Cr  Cr49  1  0.65644453  0.32456315  0.65998339  1
  Cr  Cr50  1  0.82422500  0.49274293  0.82607304  1
  Cr  Cr51  1  0.82524705  0.82764947  0.49300109  1
  Cr  Cr52  1  0.66129742  0.65935868  0.65966413  1
  Cr  Cr53  1  0.82439615  0.82758287  0.82859888  1
" 