7860,Ni81Fe13Cr4_3,-239.060514319053, 191.860451963744,Ni81Fe13Cr4,"# generated using pymatgen
 data_Cr4Fe7Ni43
_symmetry_space_group_name_H-M   'P 1'
_cell_length_a   7.44143753
_cell_length_b   7.44143753
_cell_length_c   10.52378188
_cell_angle_alpha   90.00000000
_cell_angle_beta   90.00000000
_cell_angle_gamma   90.00000000
_symmetry_Int_Tables_number   1
_chemical_formula_structural   Cr4Fe7Ni43
_chemical_formula_sum   'Cr4 Fe7 Ni43'
_cell_volume   582.75434281
_cell_formula_units_Z   1
loop_
 _symmetry_equiv_pos_site_id
 _symmetry_equiv_pos_as_xyz
  1  'x, y, z'
loop_
 _atom_site_type_symbol
 _atom_site_label
 _atom_site_symmetry_multiplicity
 _atom_site_fract_x
 _atom_site_fract_y
 _atom_site_fract_z
 _atom_site_occupancy
  Ni  Ni0  1  1.00057040  0.00280580  1.00083575  1
  Ni  Ni1  1  0.16906386  0.16883280  0.16846491  1
  Ni  Ni2  1  1.00155466  0.00294351  0.33602650  1
  Ni  Ni3  1  0.00209073  0.33433042  0.00222119  1
  Fe  Fe4  1  0.16533962  0.49862086  0.16745565  1
  Ni  Ni5  1  1.00150364  0.33415779  0.33459465  1
  Ni  Ni6  1  1.00149960  0.66802020  1.00065001  1
  Cr  Cr7  1  0.16654009  0.83611025  0.16772801  1
  Ni  Ni8  1  0.99913880  0.66805524  0.33641133  1
  Fe  Fe9  1  0.33544822  0.00308325  1.00095643  1
  Ni  Ni10  1  0.50117110  0.16807293  0.16867002  1
  Ni  Ni11  1  0.33497575  0.00405097  0.33573412  1
  Ni  Ni12  1  0.33397289  0.33498239  1.00084919  1
  Cr  Cr13  1  0.50317268  0.50004121  0.16777572  1
  Ni  Ni14  1  0.33421548  0.33224530  0.33646828  1
  Ni  Ni15  1  0.33518009  0.66799140  1.00015707  1
  Fe  Fe16  1  0.50481968  0.83766051  0.16795890  1
  Cr  Cr17  1  0.33569470  0.66849464  0.33666937  1
  Ni  Ni18  1  0.66913181  1.00160487  0.00201688  1
  Ni  Ni19  1  0.83492811  0.16829501  0.16811840  1
  Fe  Fe20  1  0.66887068  0.00219069  0.33517906  1
  Ni  Ni21  1  0.66909407  0.33404981  1.00066388  1
  Ni  Ni22  1  0.83541326  0.50248894  0.16836748  1
  Ni  Ni23  1  0.66943913  0.33466425  0.33594319  1
  Ni  Ni24  1  0.66848342  0.66951310  1.00110932  1
  Ni  Ni25  1  0.83465257  0.83437960  0.16861994  1
  Ni  Ni26  1  0.67055023  0.66881796  0.33574720  1
  Ni  Ni27  1  0.16986564  0.16845799  0.50032834  1
  Cr  Cr28  1  0.00182191  0.00304258  0.66832019  1
  Ni  Ni29  1  0.16973450  0.16830686  0.83637206  1
  Ni  Ni30  1  0.16801217  0.50159390  0.50166781  1
  Ni  Ni31  1  1.00115750  0.33575598  0.66834694  1
  Ni  Ni32  1  0.16899108  0.50261073  0.83608716  1
  Ni  Ni33  1  0.16840826  0.83510596  0.50174889  1
  Fe  Fe34  1  1.00132807  0.66713729  0.66837337  1
  Ni  Ni35  1  0.16854402  0.83424441  0.83574340  1
  Ni  Ni36  1  0.50120893  0.16863159  0.50121282  1
  Ni  Ni37  1  0.33619469  1.00051682  0.66851360  1
  Ni  Ni38  1  0.50164270  0.16921108  0.83528160  1
  Ni  Ni39  1  0.50257401  0.50093690  0.50254870  1
  Fe  Fe40  1  0.33584137  0.33489964  0.66842496  1
  Ni  Ni41  1  0.50184008  0.50116579  0.83499387  1
  Ni  Ni42  1  0.50200903  0.83559448  0.50206791  1
  Ni  Ni43  1  0.33591390  0.66896198  0.66816223  1
  Fe  Fe44  1  0.50185634  0.83475833  0.83431765  1
  Ni  Ni45  1  0.83408895  0.16902739  0.50061328  1
  Ni  Ni46  1  0.66677438  0.00176273  0.66777852  1
  Ni  Ni47  1  0.83378821  0.16876065  0.83642866  1
  Ni  Ni48  1  0.83457338  0.50239381  0.50137466  1
  Ni  Ni49  1  0.66908380  0.33547143  0.66855664  1
  Ni  Ni50  1  0.83432978  0.50235771  0.83542101  1
  Ni  Ni51  1  0.83474447  0.83374176  0.50016720  1
  Ni  Ni52  1  0.66684483  0.66792650  0.66830266  1
  Ni  Ni53  1  0.83523455  0.83404386  0.83637525  1
" 