983,Ni81Fe13Cr4_14,-238.694235007555, 191.772071628606,Ni81Fe13Cr4,"# generated using pymatgen
 data_Cr4Fe7Ni43
_symmetry_space_group_name_H-M   'P 1'
_cell_length_a   7.43943868
_cell_length_b   7.43943868
_cell_length_c   10.52095508
_cell_angle_alpha   90.00000000
_cell_angle_beta   90.00000000
_cell_angle_gamma   90.00000000
_symmetry_Int_Tables_number   1
_chemical_formula_structural   Cr4Fe7Ni43
_chemical_formula_sum   'Cr4 Fe7 Ni43'
_cell_volume   582.28486703
_cell_formula_units_Z   1
loop_
 _symmetry_equiv_pos_site_id
 _symmetry_equiv_pos_as_xyz
  1  'x, y, z'
loop_
 _atom_site_type_symbol
 _atom_site_label
 _atom_site_symmetry_multiplicity
 _atom_site_fract_x
 _atom_site_fract_y
 _atom_site_fract_z
 _atom_site_occupancy
  Ni  Ni0  1  1.00146059  0.00263806  0.00203657  1
  Ni  Ni1  1  0.16871544  0.16764640  0.16783672  1
  Ni  Ni2  1  0.00205703  1.00043030  0.33508384  1
  Ni  Ni3  1  0.00289573  0.33307609  0.00213981  1
  Ni  Ni4  1  0.16837433  0.50256849  0.16740065  1
  Cr  Cr5  1  1.00164335  0.33447605  0.33537845  1
  Fe  Fe6  1  0.00244650  0.66876168  0.00247871  1
  Ni  Ni7  1  0.16700476  0.83535219  0.16907121  1
  Ni  Ni8  1  0.00206330  0.67063816  0.33499055  1
  Fe  Fe9  1  0.33477238  0.00317074  1.00085182  1
  Ni  Ni10  1  0.50214406  0.16988596  0.16903556  1
  Ni  Ni11  1  0.33414865  0.00237468  0.33545252  1
  Ni  Ni12  1  0.33495170  0.33620224  1.00147542  1
  Ni  Ni13  1  0.50252205  0.50037711  0.16859799  1
  Ni  Ni14  1  0.33702524  0.33518821  0.33539709  1
  Ni  Ni15  1  0.33512433  0.66715821  1.00064152  1
  Cr  Cr16  1  0.50159943  0.83554271  0.16866675  1
  Ni  Ni17  1  0.33483227  0.66800469  0.33619684  1
  Ni  Ni18  1  0.67041534  0.00247005  1.00005108  1
  Ni  Ni19  1  0.83471133  0.16851860  0.16740360  1
  Ni  Ni20  1  0.66936110  0.00262933  0.33667693  1
  Ni  Ni21  1  0.66771895  0.33450596  0.00316070  1
  Ni  Ni22  1  0.83466898  0.50208048  0.16820101  1
  Ni  Ni23  1  0.66672894  0.33518114  0.33455480  1
  Ni  Ni24  1  0.66728743  0.66859285  1.00163907  1
  Fe  Fe25  1  0.83673139  0.83545899  0.16870370  1
  Ni  Ni26  1  0.66867338  0.66775740  0.33604158  1
  Ni  Ni27  1  0.16979965  0.16884732  0.50148552  1
  Cr  Cr28  1  0.00235686  0.00249381  0.66810469  1
  Ni  Ni29  1  0.16968641  0.16899041  0.83624192  1
  Ni  Ni30  1  0.16835497  0.50216812  0.50296397  1
  Ni  Ni31  1  0.00188145  0.33546964  0.66800660  1
  Ni  Ni32  1  0.16929412  0.50166510  0.83520103  1
  Fe  Fe33  1  0.16937444  0.83440085  0.50093403  1
  Ni  Ni34  1  0.00277291  0.66757192  0.66818707  1
  Ni  Ni35  1  0.16923070  0.83491146  0.83565631  1
  Ni  Ni36  1  0.50166211  0.16771601  0.50125293  1
  Ni  Ni37  1  0.33605177  1.00115300  0.66914035  1
  Ni  Ni38  1  0.50124369  0.16760963  0.83527569  1
  Ni  Ni39  1  0.50215240  0.50234291  0.50149834  1
  Fe  Fe40  1  0.33491989  0.33585509  0.66857239  1
  Ni  Ni41  1  0.50073694  0.50214628  0.83546867  1
  Ni  Ni42  1  0.50260116  0.83550645  0.50237453  1
  Ni  Ni43  1  0.33579329  0.66899691  0.66872980  1
  Ni  Ni44  1  0.50217886  0.83581040  0.83483499  1
  Ni  Ni45  1  0.83410252  0.16839829  0.50236682  1
  Fe  Fe46  1  0.66706251  1.00113442  0.66835959  1
  Fe  Fe47  1  0.83463368  0.16788307  0.83635351  1
  Ni  Ni48  1  0.83505856  0.50310549  0.50261250  1
  Ni  Ni49  1  0.66837162  0.33520689  0.66785267  1
  Cr  Cr50  1  0.83571289  0.50234790  0.83475417  1
  Ni  Ni51  1  0.83392926  0.83405920  0.50033551  1
  Ni  Ni52  1  0.66700273  0.66830722  0.66788877  1
  Ni  Ni53  1  0.83415787  0.83541672  0.83658441  1
" 