4649,Ni81Cr19_16,-207.084560985669, 159.988593502793,Ni81Cr19,"# generated using pymatgen
 data_Cr43Ni11
_symmetry_space_group_name_H-M   'P 1'
_cell_length_a   7.58028395
_cell_length_b   7.58028395
_cell_length_c   10.72014037
_cell_angle_alpha   90.00000000
_cell_angle_beta   90.00000000
_cell_angle_gamma   90.00000000
_symmetry_Int_Tables_number   1
_chemical_formula_structural   Cr43Ni11
_chemical_formula_sum   'Cr43 Ni11'
_cell_volume   615.98682167
_cell_formula_units_Z   1
loop_
 _symmetry_equiv_pos_site_id
 _symmetry_equiv_pos_as_xyz
  1  'x, y, z'
loop_
 _atom_site_type_symbol
 _atom_site_label
 _atom_site_symmetry_multiplicity
 _atom_site_fract_x
 _atom_site_fract_y
 _atom_site_fract_z
 _atom_site_occupancy
  Cr  Cr0  1  -0.00738133  -0.00740507  -0.00549453  1
  Ni  Ni1  1  0.15895025  0.16111892  0.15937418  1
  Cr  Cr2  1  0.99223004  -0.00701222  0.32647303  1
  Cr  Cr3  1  -0.00620333  0.32695631  -0.00396976  1
  Ni  Ni4  1  0.15809829  0.49212674  0.16004210  1
  Cr  Cr5  1  -0.00576613  0.32532985  0.32349031  1
  Cr  Cr6  1  0.99043203  0.65803210  -0.00618064  1
  Cr  Cr7  1  0.15941550  0.82451964  0.15918552  1
  Cr  Cr8  1  0.98991903  0.65912489  0.32500014  1
  Cr  Cr9  1  0.32493023  -0.00576884  0.99240496  1
  Cr  Cr10  1  0.49289604  0.15923631  0.15901965  1
  Cr  Cr11  1  0.32372086  -0.00559702  0.32637735  1
  Cr  Cr12  1  0.32339881  0.32528033  -0.00745519  1
  Cr  Cr13  1  0.49126429  0.49292980  0.16083376  1
  Cr  Cr14  1  0.32245124  0.32473844  0.32648964  1
  Cr  Cr15  1  0.32586169  0.65815025  0.99165991  1
  Cr  Cr16  1  0.49108222  0.82550247  0.16009081  1
  Ni  Ni17  1  0.32414601  0.65788201  0.32428013  1
  Cr  Cr18  1  0.66007270  0.98980854  -0.00650639  1
  Cr  Cr19  1  0.82595872  0.15939824  0.15855379  1
  Cr  Cr20  1  0.66171016  0.98952133  0.32599109  1
  Cr  Cr21  1  0.66048249  0.32809598  0.99250287  1
  Ni  Ni22  1  0.82839724  0.49449720  0.15902078  1
  Cr  Cr23  1  0.66123818  0.32742529  0.32563191  1
  Cr  Cr24  1  0.66141323  0.65966646  -0.00574398  1
  Ni  Ni25  1  0.82688631  0.82383612  0.15938720  1
  Cr  Cr26  1  0.66149103  0.66054585  0.32481989  1
  Ni  Ni27  1  0.15742691  0.15770427  0.49369784  1
  Ni  Ni28  1  0.99032892  0.99080899  0.65692364  1
  Cr  Cr29  1  0.15616223  0.15743072  0.82593431  1
  Cr  Cr30  1  0.15895401  0.49487272  0.49193691  1
  Cr  Cr31  1  -0.00593751  0.32549647  0.65822530  1
  Cr  Cr32  1  0.15735610  0.49498517  0.82529408  1
  Cr  Cr33  1  0.15696840  0.82509908  0.49366765  1
  Ni  Ni34  1  0.99061028  0.66252689  0.65823368  1
  Cr  Cr35  1  0.15675437  0.82531852  0.82414777  1
  Cr  Cr36  1  0.49517510  0.15969724  0.49338933  1
  Cr  Cr37  1  0.32530960  -0.00614309  0.65907599  1
  Cr  Cr38  1  0.49611717  0.15929591  0.82531995  1
  Cr  Cr39  1  0.49235968  0.49243996  0.49159777  1
  Cr  Cr40  1  0.32574884  0.32464825  0.65879854  1
  Cr  Cr41  1  0.49360517  0.49122755  0.82475197  1
  Cr  Cr42  1  0.49210507  0.82546146  0.49052684  1
  Cr  Cr43  1  0.32583259  0.65919185  0.65969877  1
  Cr  Cr44  1  0.49246631  0.82700745  0.82665056  1
  Cr  Cr45  1  0.82617818  0.15789046  0.49527104  1
  Ni  Ni46  1  0.66214566  -0.00726792  0.65825446  1
  Cr  Cr47  1  0.82539162  0.15867734  0.82365849  1
  Cr  Cr48  1  0.82630638  0.49221794  0.49433552  1
  Ni  Ni49  1  0.65963403  0.32383217  0.65938743  1
  Cr  Cr50  1  0.82674017  0.49111777  0.82412713  1
  Ni  Ni51  1  0.82702900  0.82702714  0.49577012  1
  Cr  Cr52  1  0.66065959  0.66043333  0.65880746  1
  Cr  Cr53  1  0.82814297  0.82772908  0.82390560  1
" 