8880,Ni81Cr19_18,-207.129323919367, 162.522703620558,Ni81Cr19,"# generated using pymatgen
 data_Cr43Ni11
_symmetry_space_group_name_H-M   'P 1'
_cell_length_a   7.58112614
_cell_length_b   7.58112614
_cell_length_c   10.72133141
_cell_angle_alpha   90.00000000
_cell_angle_beta   90.00000000
_cell_angle_gamma   90.00000000
_symmetry_Int_Tables_number   1
_chemical_formula_structural   Cr43Ni11
_chemical_formula_sum   'Cr43 Ni11'
_cell_volume   616.19215739
_cell_formula_units_Z   1
loop_
 _symmetry_equiv_pos_site_id
 _symmetry_equiv_pos_as_xyz
  1  'x, y, z'
loop_
 _atom_site_type_symbol
 _atom_site_label
 _atom_site_symmetry_multiplicity
 _atom_site_fract_x
 _atom_site_fract_y
 _atom_site_fract_z
 _atom_site_occupancy
  Cr  Cr0  1  -0.00624377  0.99168478  -0.00731350  1
  Cr  Cr1  1  0.15653407  0.16189779  0.15921335  1
  Cr  Cr2  1  -0.00536141  0.99171731  0.32585446  1
  Ni  Ni3  1  0.99229843  0.32853607  -0.00733005  1
  Ni  Ni4  1  0.15797918  0.49369849  0.15794546  1
  Ni  Ni5  1  -0.00534588  0.32561011  0.32546835  1
  Cr  Cr6  1  -0.00709798  0.65757112  -0.00663419  1
  Ni  Ni7  1  0.16047162  0.82254680  0.15785957  1
  Cr  Cr8  1  -0.00617178  0.65852688  0.32389715  1
  Cr  Cr9  1  0.32463769  0.99104851  -0.00623161  1
  Cr  Cr10  1  0.49314443  0.15856899  0.15885879  1
  Cr  Cr11  1  0.32486718  -0.00596952  0.32600557  1
  Cr  Cr12  1  0.32433990  0.32739023  -0.00654245  1
  Cr  Cr13  1  0.49059312  0.49499523  0.15760384  1
  Cr  Cr14  1  0.32570565  0.32555269  0.32804078  1
  Ni  Ni15  1  0.32561703  0.65906407  -0.00551187  1
  Cr  Cr16  1  0.49123831  0.82383585  0.15647327  1
  Cr  Cr17  1  0.32416150  0.65785801  0.32420127  1
  Cr  Cr18  1  0.65897456  0.99158971  0.99247556  1
  Cr  Cr19  1  0.82776105  0.16110438  0.15948294  1
  Cr  Cr20  1  0.65794240  -0.00642637  0.32650080  1
  Cr  Cr21  1  0.66048377  0.32811720  0.99047242  1
  Cr  Cr22  1  0.82820412  0.49043963  0.15883454  1
  Cr  Cr23  1  0.65718761  0.32611363  0.32848641  1
  Ni  Ni24  1  0.65834834  0.65783783  0.99114321  1
  Cr  Cr25  1  0.82487912  0.82582234  0.15990732  1
  Cr  Cr26  1  0.65943157  0.65769815  0.32679088  1
  Ni  Ni27  1  0.16047326  0.16040600  0.49144979  1
  Cr  Cr28  1  -0.00624179  0.99181565  0.65878310  1
  Cr  Cr29  1  0.15753935  0.16058842  0.82604796  1
  Cr  Cr30  1  0.16062104  0.49094878  0.49243607  1
  Cr  Cr31  1  0.99243666  0.32655953  0.66050227  1
  Cr  Cr32  1  0.15902114  0.49278449  0.82651764  1
  Cr  Cr33  1  0.16030787  0.82597842  0.49446177  1
  Cr  Cr34  1  0.99237114  0.65905348  0.66010651  1
  Cr  Cr35  1  0.16221596  0.82405956  0.82445251  1
  Ni  Ni36  1  0.49042934  0.16109740  0.49256753  1
  Cr  Cr37  1  0.32529707  -0.00590875  0.65759522  1
  Cr  Cr38  1  0.49244598  0.15844601  0.82641628  1
  Ni  Ni39  1  0.49116721  0.49117175  0.49387076  1
  Cr  Cr40  1  0.32780748  0.32567494  0.65586974  1
  Cr  Cr41  1  0.49218301  0.49596554  0.82626515  1
  Cr  Cr42  1  0.49178298  0.82410262  0.49375926  1
  Ni  Ni43  1  0.32709554  0.65820934  0.65822571  1
  Cr  Cr44  1  0.49121181  0.82300702  0.82712458  1
  Cr  Cr45  1  0.82764188  0.15980522  0.49054062  1
  Cr  Cr46  1  0.65841440  -0.00605602  0.65849780  1
  Cr  Cr47  1  0.82746159  0.16170891  0.82753301  1
  Cr  Cr48  1  0.82575786  0.49133961  0.49127787  1
  Cr  Cr49  1  0.65720933  0.32701737  0.65862016  1
  Ni  Ni50  1  0.82569685  0.49237461  0.82821818  1
  Cr  Cr51  1  0.82532220  0.82627930  0.49214483  1
  Cr  Cr52  1  0.65945352  0.65645239  0.65913928  1
  Cr  Cr53  1  0.82400952  0.82440053  0.82533616  1
" 