1063,Ni81Fe3Cr15_13,-232.31966665584, 157.11168698167,Ni81Fe3Cr15,"# generated using pymatgen
 data_Cr10FeNi43
_symmetry_space_group_name_H-M   'P 1'
_cell_length_a   7.47243569
_cell_length_b   7.47243569
_cell_length_c   10.56761990
_cell_angle_alpha   90.00000000
_cell_angle_beta   90.00000000
_cell_angle_gamma   90.00000000
_symmetry_Int_Tables_number   1
_chemical_formula_structural   Cr10FeNi43
_chemical_formula_sum   'Cr10 Fe1 Ni43'
_cell_volume   590.06731220
_cell_formula_units_Z   1
loop_
 _symmetry_equiv_pos_site_id
 _symmetry_equiv_pos_as_xyz
  1  'x, y, z'
loop_
 _atom_site_type_symbol
 _atom_site_label
 _atom_site_symmetry_multiplicity
 _atom_site_fract_x
 _atom_site_fract_y
 _atom_site_fract_z
 _atom_site_occupancy
  Ni  Ni0  1  -0.00008559  0.00027462  0.99962937  1
  Cr  Cr1  1  0.16701214  0.16752758  0.16621753  1
  Ni  Ni2  1  0.99875814  0.99897401  0.33557805  1
  Ni  Ni3  1  0.00095442  0.33496024  0.99761447  1
  Ni  Ni4  1  0.16831056  0.50013562  0.16588380  1
  Ni  Ni5  1  0.00073061  0.33389932  0.33519650  1
  Ni  Ni6  1  -0.00009187  0.66368437  0.99941298  1
  Cr  Cr7  1  0.16601642  0.83168239  0.16695683  1
  Ni  Ni8  1  -0.00016735  0.66604516  0.33445435  1
  Ni  Ni9  1  0.33576071  0.00006732  0.99828720  1
  Ni  Ni10  1  0.49995014  0.16616384  0.16607213  1
  Ni  Ni11  1  0.33386935  0.00072948  0.33368811  1
  Fe  Fe12  1  0.33298987  0.33298596  0.99963465  1
  Ni  Ni13  1  0.49817784  0.50010865  0.16665077  1
  Ni  Ni14  1  0.33361421  0.33382346  0.33309521  1
  Ni  Ni15  1  0.33359023  0.66610813  0.00065442  1
  Ni  Ni16  1  0.50127503  0.83265071  0.16541975  1
  Ni  Ni17  1  0.33273776  0.66437110  0.33259481  1
  Ni  Ni18  1  0.66324120  0.99908197  0.00067658  1
  Cr  Cr19  1  0.83190762  0.16479683  0.16649978  1
  Ni  Ni20  1  0.66628018  -0.00014604  0.33212522  1
  Ni  Ni21  1  0.66564829  0.33277592  0.99939927  1
  Cr  Cr22  1  0.83283585  0.50067098  0.16584454  1
  Ni  Ni23  1  0.66458132  0.33276085  0.33493335  1
  Ni  Ni24  1  0.66541487  0.66706545  0.00042923  1
  Ni  Ni25  1  0.83102632  0.83297512  0.16613729  1
  Ni  Ni26  1  0.66634377  0.66629580  0.33234893  1
  Ni  Ni27  1  0.16662959  0.16523077  0.49899145  1
  Ni  Ni28  1  0.00071896  0.99876380  0.66372386  1
  Ni  Ni29  1  0.16865091  0.16692647  0.83403793  1
  Ni  Ni30  1  0.16696675  0.50051237  0.49860794  1
  Cr  Cr31  1  0.00031805  0.33404898  0.66590744  1
  Ni  Ni32  1  0.16541462  0.49882721  0.83442618  1
  Ni  Ni33  1  0.16404079  0.83316606  0.49987286  1
  Ni  Ni34  1  -0.00035105  0.66609237  0.66504997  1
  Cr  Cr35  1  0.16785647  0.83316220  0.83210131  1
  Ni  Ni36  1  0.49981335  0.16842140  0.49986818  1
  Ni  Ni37  1  0.33334610  0.00125179  0.66696800  1
  Ni  Ni38  1  0.49796482  0.16475163  0.83297693  1
  Ni  Ni39  1  0.49981279  0.49762655  0.49948410  1
  Ni  Ni40  1  0.33384231  0.33188619  0.66617129  1
  Cr  Cr41  1  0.50028817  0.50007803  0.83192684  1
  Cr  Cr42  1  0.49898167  0.83229606  0.50051597  1
  Ni  Ni43  1  0.33220077  0.66576821  0.66565894  1
  Ni  Ni44  1  0.49932336  0.83462838  0.83350188  1
  Ni  Ni45  1  0.83247356  0.16553686  0.49859909  1
  Ni  Ni46  1  0.66484967  0.00037279  0.66613256  1
  Cr  Cr47  1  0.83226535  0.16718227  0.83409113  1
  Ni  Ni48  1  0.83212500  0.50021691  0.49936068  1
  Ni  Ni49  1  0.66454983  0.33294089  0.66457120  1
  Ni  Ni50  1  0.83376682  0.50018666  0.83392488  1
  Ni  Ni51  1  0.83532207  0.83316644  0.49947253  1
  Ni  Ni52  1  0.66706372  0.66560419  0.66612156  1
  Cr  Cr53  1  0.83161488  0.83141704  0.83303155  1
" 