8588,Ni81Fe3Cr15_15,-232.659810239175, 160.769667522322,Ni81Fe3Cr15,"# generated using pymatgen
 data_Cr10FeNi43
_symmetry_space_group_name_H-M   'P 1'
_cell_length_a   7.47236691
_cell_length_b   7.47236691
_cell_length_c   10.56752263
_cell_angle_alpha   90.00000000
_cell_angle_beta   90.00000000
_cell_angle_gamma   90.00000000
_symmetry_Int_Tables_number   1
_chemical_formula_structural   Cr10FeNi43
_chemical_formula_sum   'Cr10 Fe1 Ni43'
_cell_volume   590.05101766
_cell_formula_units_Z   1
loop_
 _symmetry_equiv_pos_site_id
 _symmetry_equiv_pos_as_xyz
  1  'x, y, z'
loop_
 _atom_site_type_symbol
 _atom_site_label
 _atom_site_symmetry_multiplicity
 _atom_site_fract_x
 _atom_site_fract_y
 _atom_site_fract_z
 _atom_site_occupancy
  Cr  Cr0  1  -0.00031206  0.99962439  0.99941589  1
  Ni  Ni1  1  0.16729542  0.16578495  0.16555143  1
  Ni  Ni2  1  0.99947146  0.99781552  0.33373386  1
  Ni  Ni3  1  0.99905943  0.33402767  0.99963359  1
  Ni  Ni4  1  0.16590203  0.50145136  0.16511062  1
  Cr  Cr5  1  0.99897918  0.33155765  0.33269096  1
  Ni  Ni6  1  0.99888594  0.66533343  0.00067073  1
  Ni  Ni7  1  0.16712487  0.83169611  0.16771593  1
  Ni  Ni8  1  0.00231182  0.66950112  0.33224736  1
  Ni  Ni9  1  0.33397932  -0.00019970  0.99901812  1
  Ni  Ni10  1  0.50069553  0.16561270  0.16559258  1
  Ni  Ni11  1  0.33141610  0.99699680  0.33267749  1
  Ni  Ni12  1  0.33364984  0.33259103  0.00027164  1
  Ni  Ni13  1  0.49964583  0.49918026  0.16514669  1
  Cr  Cr14  1  0.33420059  0.33444190  0.33223846  1
  Ni  Ni15  1  0.33359522  0.66654147  0.00061524  1
  Ni  Ni16  1  0.49859455  0.83413840  0.16573141  1
  Ni  Ni17  1  0.33102239  0.66787418  0.33376385  1
  Ni  Ni18  1  0.66501366  0.99962770  0.99942628  1
  Ni  Ni19  1  0.83094097  0.16683729  0.16718465  1
  Ni  Ni20  1  0.66804493  0.00040076  0.33273854  1
  Ni  Ni21  1  0.66622219  0.33364141  -0.00006104  1
  Ni  Ni22  1  0.83338530  0.49934992  0.16436826  1
  Ni  Ni23  1  0.66641792  0.33122024  0.33145720  1
  Ni  Ni24  1  0.66645094  0.66566331  0.99864669  1
  Ni  Ni25  1  0.83321244  0.83274444  0.16677882  1
  Cr  Cr26  1  0.66506223  0.66657493  0.33297874  1
  Ni  Ni27  1  0.16561533  0.16548505  0.50106448  1
  Cr  Cr28  1  -0.00033037  0.00072377  0.66623958  1
  Ni  Ni29  1  0.16821966  0.16614265  0.83231650  1
  Ni  Ni30  1  0.16780653  0.50011418  0.49940078  1
  Fe  Fe31  1  0.99937415  0.33078450  0.66659248  1
  Cr  Cr32  1  0.16563596  0.49834816  0.83473320  1
  Ni  Ni33  1  0.16714037  0.83333338  0.49671094  1
  Cr  Cr34  1  0.99796073  0.66747661  0.66626852  1
  Ni  Ni35  1  0.16795715  0.83473935  0.83450709  1
  Cr  Cr36  1  0.50066435  0.16514749  0.50008620  1
  Ni  Ni37  1  0.33313238  0.00140902  0.66723597  1
  Ni  Ni38  1  0.49960872  0.16575846  0.83282958  1
  Ni  Ni39  1  0.49846855  0.50058781  0.50068315  1
  Ni  Ni40  1  0.33366119  0.33145415  0.66597497  1
  Ni  Ni41  1  0.50244903  0.49883530  0.83310065  1
  Ni  Ni42  1  0.49921494  0.83293510  0.49994335  1
  Cr  Cr43  1  0.33559953  0.66644980  0.66459996  1
  Ni  Ni44  1  0.50065831  0.83433858  0.83325788  1
  Ni  Ni45  1  0.83305549  0.16473857  0.49937084  1
  Ni  Ni46  1  0.66629394  0.99944319  0.66676593  1
  Ni  Ni47  1  0.83110377  0.16793556  0.83237783  1
  Cr  Cr48  1  0.83240957  0.49895944  0.50074211  1
  Ni  Ni49  1  0.66558686  0.33324250  0.66753436  1
  Ni  Ni50  1  0.83070211  0.49910027  0.83374123  1
  Ni  Ni51  1  0.83257650  0.83512532  0.49887423  1
  Ni  Ni52  1  0.66562996  0.66624610  0.66720294  1
  Ni  Ni53  1  0.83031693  0.83189612  0.83328094  1
" 