5692,Ni81Fe13Cr4_7,-238.783941594858, 189.077240697165,Ni81Fe13Cr4,"# generated using pymatgen
 data_Cr4Fe7Ni43
_symmetry_space_group_name_H-M   'P 1'
_cell_length_a   7.44080197
_cell_length_b   7.44080197
_cell_length_c   10.52288306
_cell_angle_alpha   90.00000000
_cell_angle_beta   90.00000000
_cell_angle_gamma   90.00000000
_symmetry_Int_Tables_number   1
_chemical_formula_structural   Cr4Fe7Ni43
_chemical_formula_sum   'Cr4 Fe7 Ni43'
_cell_volume   582.60503957
_cell_formula_units_Z   1
loop_
 _symmetry_equiv_pos_site_id
 _symmetry_equiv_pos_as_xyz
  1  'x, y, z'
loop_
 _atom_site_type_symbol
 _atom_site_label
 _atom_site_symmetry_multiplicity
 _atom_site_fract_x
 _atom_site_fract_y
 _atom_site_fract_z
 _atom_site_occupancy
  Fe  Fe0  1  1.00129455  0.00203314  1.00162955  1
  Fe  Fe1  1  0.16828071  0.16907094  0.16901242  1
  Ni  Ni2  1  1.00001086  0.00312829  0.33401995  1
  Ni  Ni3  1  1.00137173  0.33566212  0.00225643  1
  Ni  Ni4  1  0.16865219  0.50198870  0.16857527  1
  Ni  Ni5  1  1.00016045  0.33397391  0.33428100  1
  Ni  Ni6  1  1.00029680  0.66798333  0.00198477  1
  Ni  Ni7  1  0.16636348  0.83491673  0.16893655  1
  Fe  Fe8  1  1.00057911  0.66870225  0.33349492  1
  Ni  Ni9  1  0.33462578  0.00379015  0.00362646  1
  Ni  Ni10  1  0.50297950  0.17015628  0.16792257  1
  Ni  Ni11  1  0.33615765  1.00173861  0.33401609  1
  Ni  Ni12  1  0.33465484  0.33343232  0.00207852  1
  Ni  Ni13  1  0.50162176  0.49925894  0.16897979  1
  Ni  Ni14  1  0.33580778  0.33508940  0.33411242  1
  Cr  Cr15  1  0.33405826  0.66796616  1.00114986  1
  Fe  Fe16  1  0.50299134  0.83650143  0.16930513  1
  Ni  Ni17  1  0.33681142  0.66861500  0.33339435  1
  Ni  Ni18  1  0.66923614  0.00270827  0.00239347  1
  Ni  Ni19  1  0.83371604  0.16755786  0.16799444  1
  Ni  Ni20  1  0.66916803  0.00215559  0.33558905  1
  Ni  Ni21  1  0.66911199  0.33461563  1.00161407  1
  Fe  Fe22  1  0.83518060  0.50051162  0.16789492  1
  Ni  Ni23  1  0.66920898  0.33431766  0.33514154  1
  Ni  Ni24  1  0.67132692  0.66790447  0.00347066  1
  Ni  Ni25  1  0.83656297  0.83619655  0.16786749  1
  Fe  Fe26  1  0.66801499  0.66843275  0.33524210  1
  Ni  Ni27  1  0.16831079  0.16838922  0.50020960  1
  Ni  Ni28  1  1.00045519  0.00304073  0.66962224  1
  Ni  Ni29  1  0.16856489  0.16767995  0.83607290  1
  Cr  Cr30  1  0.16872760  0.50013352  0.50282220  1
  Ni  Ni31  1  1.00018758  0.33397967  0.66868921  1
  Fe  Fe32  1  0.16669642  0.49990736  0.83465820  1
  Cr  Cr33  1  0.16775141  0.83679182  0.50263093  1
  Ni  Ni34  1  0.99927012  0.66807667  0.67011736  1
  Ni  Ni35  1  0.16546674  0.83650247  0.83430870  1
  Ni  Ni36  1  0.50197139  0.16917638  0.50201488  1
  Ni  Ni37  1  0.33517181  0.00342606  0.66772560  1
  Ni  Ni38  1  0.50174701  0.17097290  0.83547820  1
  Ni  Ni39  1  0.50307330  0.50110934  0.50191121  1
  Ni  Ni40  1  0.33569179  0.33390308  0.66937155  1
  Ni  Ni41  1  0.50358266  0.49859092  0.83431297  1
  Ni  Ni42  1  0.50307792  0.83498926  0.50071673  1
  Ni  Ni43  1  0.33614360  0.66781185  0.66980821  1
  Cr  Cr44  1  0.50354406  0.83637811  0.83457588  1
  Ni  Ni45  1  0.83502055  0.16842339  0.50204005  1
  Ni  Ni46  1  0.66966616  0.00256561  0.66724604  1
  Ni  Ni47  1  0.83498353  0.16884173  0.83524692  1
  Ni  Ni48  1  0.83334354  0.50138247  0.50047484  1
  Ni  Ni49  1  0.66926810  0.33513105  0.66841828  1
  Ni  Ni50  1  0.83411161  0.50176607  0.83624125  1
  Ni  Ni51  1  0.83399046  0.83553710  0.50230478  1
  Ni  Ni52  1  0.66967120  0.66758998  0.66694430  1
  Ni  Ni53  1  0.83750173  0.83473116  0.83528917  1
" 