4873,Ni81Fe12Cr5_6,-238.610236317695, 186.911430372844,Ni81Fe12Cr5,"# generated using pymatgen
 data_Cr2Fe3Ni22
_symmetry_space_group_name_H-M   'P 1'
_cell_length_a   7.44442781
_cell_length_b   7.44442781
_cell_length_c   10.52801077
_cell_angle_alpha   90.00000000
_cell_angle_beta   90.00000000
_cell_angle_gamma   90.00000000
_symmetry_Int_Tables_number   1
_chemical_formula_structural   Cr2Fe3Ni22
_chemical_formula_sum   'Cr4 Fe6 Ni44'
_cell_volume   583.45715013
_cell_formula_units_Z   2
loop_
 _symmetry_equiv_pos_site_id
 _symmetry_equiv_pos_as_xyz
  1  'x, y, z'
loop_
 _atom_site_type_symbol
 _atom_site_label
 _atom_site_symmetry_multiplicity
 _atom_site_fract_x
 _atom_site_fract_y
 _atom_site_fract_z
 _atom_site_occupancy
  Cr  Cr0  1  0.00227318  1.00144537  1.00133345  1
  Ni  Ni1  1  0.17214389  0.16951228  0.16823743  1
  Cr  Cr2  1  0.00260776  1.00089205  0.33521814  1
  Ni  Ni3  1  0.00214418  0.33654352  1.00113245  1
  Ni  Ni4  1  0.16842335  0.50201185  0.16828625  1
  Ni  Ni5  1  0.00167612  0.33714347  0.33575779  1
  Fe  Fe6  1  1.00142283  0.66655802  0.00211873  1
  Ni  Ni7  1  0.17004559  0.83302136  0.16818103  1
  Ni  Ni8  1  1.00150263  0.66709286  0.33436532  1
  Ni  Ni9  1  0.33578942  1.00108580  0.00180860  1
  Ni  Ni10  1  0.49965848  0.16793593  0.16799734  1
  Ni  Ni11  1  0.33563644  1.00108761  0.33452452  1
  Ni  Ni12  1  0.33470854  0.33544987  0.00222519  1
  Ni  Ni13  1  0.50126397  0.50141238  0.16811018  1
  Ni  Ni14  1  0.33538768  0.33522637  0.33438687  1
  Ni  Ni15  1  0.33580560  0.66799203  0.00163948  1
  Ni  Ni16  1  0.50116490  0.83520424  0.16808558  1
  Ni  Ni17  1  0.33478671  0.66822683  0.33497678  1
  Ni  Ni18  1  0.66657571  1.00008715  1.00119102  1
  Cr  Cr19  1  0.83279091  0.16986571  0.16801651  1
  Fe  Fe20  1  0.66586873  1.00136864  0.33543176  1
  Ni  Ni21  1  0.66772590  0.33651358  1.00020334  1
  Ni  Ni22  1  0.83488116  0.50351734  0.16814718  1
  Ni  Ni23  1  0.66750246  0.33632404  0.33585337  1
  Ni  Ni24  1  0.66766589  0.66789499  0.00234651  1
  Ni  Ni25  1  0.83329001  0.83146250  0.16812969  1
  Fe  Fe26  1  0.66825797  0.66707394  0.33453298  1
  Ni  Ni27  1  0.16871415  0.16754877  0.50146590  1
  Ni  Ni28  1  1.00120055  0.00190366  0.66795166  1
  Ni  Ni29  1  0.16873278  0.16753186  0.83485802  1
  Ni  Ni30  1  0.16784308  0.50294710  0.50053978  1
  Ni  Ni31  1  0.99937066  0.33371310  0.66766420  1
  Ni  Ni32  1  0.16790451  0.50288764  0.83571540  1
  Ni  Ni33  1  0.16856843  0.83408307  0.50248827  1
  Fe  Fe34  1  1.00114131  0.66860923  0.66763296  1
  Ni  Ni35  1  0.16868155  0.83414716  0.83385690  1
  Ni  Ni36  1  0.50246002  0.16784524  0.50034980  1
  Ni  Ni37  1  0.33381868  0.99908620  0.66824637  1
  Ni  Ni38  1  0.50259634  0.16772115  0.83621864  1
  Ni  Ni39  1  0.50225504  0.50150842  0.50070587  1
  Cr  Cr40  1  0.33473695  0.33573189  0.66800169  1
  Ni  Ni41  1  0.50237452  0.50162128  0.83575181  1
  Fe  Fe42  1  0.50092626  0.83485428  0.50160096  1
  Ni  Ni43  1  0.33559328  0.66999740  0.66796247  1
  Fe  Fe44  1  0.50150284  0.83474647  0.83532724  1
  Ni  Ni45  1  0.83335269  0.16865354  0.50305247  1
  Ni  Ni46  1  0.66953921  1.00087070  0.66798829  1
  Ni  Ni47  1  0.83323792  0.16852929  0.83340339  1
  Ni  Ni48  1  0.83444641  0.50160864  0.50153812  1
  Ni  Ni49  1  0.67064962  0.33551810  0.66850692  1
  Ni  Ni50  1  0.83425843  0.50166517  0.83485467  1
  Ni  Ni51  1  0.83479682  0.83429142  0.50209140  1
  Ni  Ni52  1  0.66781260  0.66813358  0.66771231  1
  Ni  Ni53  1  0.83452451  0.83433506  0.83431612  1
" 