2291,Ni81Cr19_10,-207.116715070136, 161.097922085005,Ni81Cr19,"# generated using pymatgen
 data_Cr43Ni11
_symmetry_space_group_name_H-M   'P 1'
_cell_length_a   7.57872164
_cell_length_b   7.57872164
_cell_length_c   10.71793093
_cell_angle_alpha   90.00000000
_cell_angle_beta   90.00000000
_cell_angle_gamma   90.00000000
_symmetry_Int_Tables_number   1
_chemical_formula_structural   Cr43Ni11
_chemical_formula_sum   'Cr43 Ni11'
_cell_volume   615.60603182
_cell_formula_units_Z   1
loop_
 _symmetry_equiv_pos_site_id
 _symmetry_equiv_pos_as_xyz
  1  'x, y, z'
loop_
 _atom_site_type_symbol
 _atom_site_label
 _atom_site_symmetry_multiplicity
 _atom_site_fract_x
 _atom_site_fract_y
 _atom_site_fract_z
 _atom_site_occupancy
  Ni  Ni0  1  -0.00505172  -0.00174760  0.99019871  1
  Cr  Cr1  1  0.16086947  0.16048312  0.15774987  1
  Cr  Cr2  1  -0.00683243  -0.00482571  0.32735420  1
  Ni  Ni3  1  -0.00693526  0.32027954  0.99035979  1
  Cr  Cr4  1  0.15981194  0.48902942  0.15829398  1
  Cr  Cr5  1  -0.00439814  0.32434518  0.32697484  1
  Cr  Cr6  1  0.99238929  0.65829904  -0.00673518  1
  Cr  Cr7  1  0.15907003  0.82830873  0.15742539  1
  Cr  Cr8  1  0.99251472  0.65832251  0.32507888  1
  Ni  Ni9  1  0.32181446  -0.00257037  0.99130006  1
  Cr  Cr10  1  0.49050717  0.16120692  0.15789052  1
  Cr  Cr11  1  0.32526500  -0.00408329  0.32696540  1
  Ni  Ni12  1  0.32431813  0.32171139  0.99188893  1
  Cr  Cr13  1  0.49123353  0.48779283  0.15838267  1
  Ni  Ni14  1  0.32605341  0.32596822  0.32861847  1
  Cr  Cr15  1  0.32685304  0.65895430  0.99206735  1
  Cr  Cr16  1  0.49062519  0.82915528  0.15797134  1
  Cr  Cr17  1  0.32742752  0.65634311  0.32636820  1
  Cr  Cr18  1  0.66027369  -0.00574921  -0.00725885  1
  Cr  Cr19  1  0.82647154  0.16057037  0.15670969  1
  Cr  Cr20  1  0.65938661  -0.00711019  0.32508787  1
  Ni  Ni21  1  0.66055016  0.32388089  0.99093594  1
  Cr  Cr22  1  0.82703995  0.48953616  0.15727955  1
  Cr  Cr23  1  0.65748859  0.32651096  0.32643743  1
  Cr  Cr24  1  0.65863214  0.65790702  -0.00614864  1
  Cr  Cr25  1  0.82811376  0.82748460  0.16023448  1
  Cr  Cr26  1  0.65794440  0.65868537  0.32491791  1
  Ni  Ni27  1  0.16094253  0.16102589  0.49134237  1
  Cr  Cr28  1  -0.00600185  -0.00290598  0.66020481  1
  Ni  Ni29  1  0.15709368  0.15942980  0.83056811  1
  Cr  Cr30  1  0.16074991  0.49108825  0.49120532  1
  Cr  Cr31  1  -0.00696670  0.32233304  0.66072263  1
  Cr  Cr32  1  0.15897451  0.48949174  0.82844065  1
  Cr  Cr33  1  0.15874473  0.82717536  0.49303150  1
  Cr  Cr34  1  -0.00660188  0.65821948  0.65952079  1
  Cr  Cr35  1  0.15945939  0.82882419  0.82736087  1
  Cr  Cr36  1  0.49179967  0.16230308  0.49170782  1
  Cr  Cr37  1  0.32356688  -0.00438634  0.66008142  1
  Cr  Cr38  1  0.49283564  0.16109064  0.82807182  1
  Ni  Ni39  1  0.49255589  0.48965790  0.49247443  1
  Cr  Cr40  1  0.32515818  0.32498553  0.65730692  1
  Cr  Cr41  1  0.49338002  0.48877150  0.82581787  1
  Cr  Cr42  1  0.49256198  0.82603041  0.49361018  1
  Cr  Cr43  1  0.32705274  0.65760668  0.65912862  1
  Cr  Cr44  1  0.49086722  0.82827268  0.82645990  1
  Cr  Cr45  1  0.82545823  0.16023029  0.49363169  1
  Cr  Cr46  1  0.66039224  -0.00410038  0.66027926  1
  Ni  Ni47  1  0.82816544  0.16188648  0.82835692  1
  Cr  Cr48  1  0.82422417  0.49165720  0.49407326  1
  Ni  Ni49  1  0.65924812  0.32575625  0.65942883  1
  Cr  Cr50  1  0.82543499  0.48803629  0.82630853  1
  Cr  Cr51  1  0.82664409  0.82584761  0.49229880  1
  Cr  Cr52  1  0.65743074  0.65697610  0.65891950  1
  Cr  Cr53  1  0.82754269  0.82815711  0.82544776  1
" 