5499,Ni81Fe12Cr5_14,-238.702148630763, 189.155226086139,Ni81Fe12Cr5,"# generated using pymatgen
 data_Cr2Fe3Ni22
_symmetry_space_group_name_H-M   'P 1'
_cell_length_a   7.44133362
_cell_length_b   7.44133362
_cell_length_c   10.52363493
_cell_angle_alpha   90.00000000
_cell_angle_beta   90.00000000
_cell_angle_gamma   90.00000000
_symmetry_Int_Tables_number   1
_chemical_formula_structural   Cr2Fe3Ni22
_chemical_formula_sum   'Cr4 Fe6 Ni44'
_cell_volume   582.72993095
_cell_formula_units_Z   2
loop_
 _symmetry_equiv_pos_site_id
 _symmetry_equiv_pos_as_xyz
  1  'x, y, z'
loop_
 _atom_site_type_symbol
 _atom_site_label
 _atom_site_symmetry_multiplicity
 _atom_site_fract_x
 _atom_site_fract_y
 _atom_site_fract_z
 _atom_site_occupancy
  Ni  Ni0  1  0.00190297  1.00064905  0.00181795  1
  Ni  Ni1  1  0.16705704  0.16857474  0.16794670  1
  Ni  Ni2  1  1.00103800  1.00120784  0.33601294  1
  Ni  Ni3  1  0.00326293  0.33569195  0.00283021  1
  Ni  Ni4  1  0.16709699  0.50130362  0.16885827  1
  Ni  Ni5  1  0.00227490  0.33488892  0.33475711  1
  Ni  Ni6  1  0.00221899  0.66884354  0.00220045  1
  Ni  Ni7  1  0.16848830  0.83530406  0.16833858  1
  Ni  Ni8  1  0.00227405  0.66908656  0.33458584  1
  Fe  Fe9  1  0.33482923  1.00154615  1.00097331  1
  Fe  Fe10  1  0.50228818  0.16708463  0.16839665  1
  Fe  Fe11  1  0.33389812  0.00236537  0.33492023  1
  Ni  Ni12  1  0.33390455  0.33456368  1.00033026  1
  Cr  Cr13  1  0.50200265  0.50275022  0.16874318  1
  Ni  Ni14  1  0.33423870  0.33474296  0.33640796  1
  Ni  Ni15  1  0.33376486  0.66878472  1.00042960  1
  Ni  Ni16  1  0.50195332  0.83557423  0.16822200  1
  Ni  Ni17  1  0.33305394  0.66804642  0.33550744  1
  Ni  Ni18  1  0.66807209  1.00078966  0.00266825  1
  Ni  Ni19  1  0.83597584  0.16846564  0.16882269  1
  Ni  Ni20  1  0.66970494  0.00239195  0.33416263  1
  Ni  Ni21  1  0.66801708  0.33425153  1.00167572  1
  Ni  Ni22  1  0.83624346  0.50110815  0.16773462  1
  Ni  Ni23  1  0.66866904  0.33350685  0.33620594  1
  Ni  Ni24  1  0.66920134  0.67014211  1.00048842  1
  Ni  Ni25  1  0.83474024  0.83560867  0.16864836  1
  Ni  Ni26  1  0.66985373  0.66928353  0.33530569  1
  Ni  Ni27  1  0.16757500  0.16834768  0.50242602  1
  Fe  Fe28  1  0.00270740  0.00253229  0.66745053  1
  Ni  Ni29  1  0.16947898  0.16896365  0.83481223  1
  Fe  Fe30  1  0.16900221  0.50056391  0.50083161  1
  Ni  Ni31  1  0.00296280  0.33416646  0.66759349  1
  Ni  Ni32  1  0.17044362  0.50088402  0.83584441  1
  Ni  Ni33  1  0.16749993  0.83630238  0.50093211  1
  Cr  Cr34  1  0.00186070  0.66858776  0.66839647  1
  Ni  Ni35  1  0.16940183  0.83533629  0.83591335  1
  Ni  Ni36  1  0.50185209  0.17109567  0.50157341  1
  Ni  Ni37  1  0.33504087  0.00289941  0.66948023  1
  Ni  Ni38  1  0.50033488  0.16916149  0.83521493  1
  Ni  Ni39  1  0.50238808  0.50026625  0.50219048  1
  Ni  Ni40  1  0.33509946  0.33421449  0.66844749  1
  Ni  Ni41  1  0.50106476  0.50237674  0.83440231  1
  Cr  Cr42  1  0.50164787  0.83348827  0.50190964  1
  Ni  Ni43  1  0.33562115  0.66806937  0.66924798  1
  Ni  Ni44  1  0.50190137  0.83364457  0.83487662  1
  Ni  Ni45  1  0.83575598  0.16908056  0.50174774  1
  Ni  Ni46  1  0.66768961  0.00185706  0.66834977  1
  Cr  Cr47  1  0.83577725  0.16827596  0.83443792  1
  Ni  Ni48  1  0.83327075  0.50034236  0.50109558  1
  Ni  Ni49  1  0.66712314  0.33475008  0.66729925  1
  Fe  Fe50  1  0.83422342  0.50259084  0.83591134  1
  Ni  Ni51  1  0.83602595  0.83576200  0.50082007  1
  Ni  Ni52  1  0.66764595  0.66857596  0.66938718  1
  Ni  Ni53  1  0.83387964  0.83460788  0.83571705  1
" 