4309,Ni81Cr19_8,-207.28140028342, 164.736078582218,Ni81Cr19,"# generated using pymatgen
 data_Cr43Ni11
_symmetry_space_group_name_H-M   'P 1'
_cell_length_a   7.57671927
_cell_length_b   7.57671927
_cell_length_c   10.71509915
_cell_angle_alpha   90.00000000
_cell_angle_beta   90.00000000
_cell_angle_gamma   90.00000000
_symmetry_Int_Tables_number   1
_chemical_formula_structural   Cr43Ni11
_chemical_formula_sum   'Cr43 Ni11'
_cell_volume   615.11821323
_cell_formula_units_Z   1
loop_
 _symmetry_equiv_pos_site_id
 _symmetry_equiv_pos_as_xyz
  1  'x, y, z'
loop_
 _atom_site_type_symbol
 _atom_site_label
 _atom_site_symmetry_multiplicity
 _atom_site_fract_x
 _atom_site_fract_y
 _atom_site_fract_z
 _atom_site_occupancy
  Ni  Ni0  1  -0.00681658  0.98935626  0.98995960  1
  Cr  Cr1  1  0.15954464  0.15720351  0.15865133  1
  Cr  Cr2  1  0.99106775  -0.00650548  0.32594637  1
  Cr  Cr3  1  -0.00648878  0.32710652  -0.00704715  1
  Cr  Cr4  1  0.16014719  0.49471041  0.15947463  1
  Cr  Cr5  1  0.99116714  0.32729756  0.32741278  1
  Cr  Cr6  1  -0.00678850  0.66000272  0.98996674  1
  Cr  Cr7  1  0.15827260  0.82638031  0.15913427  1
  Cr  Cr8  1  0.99094597  0.65759365  0.32746679  1
  Cr  Cr9  1  0.32642294  0.98939444  0.99008592  1
  Cr  Cr10  1  0.49226231  0.15964490  0.15920877  1
  Cr  Cr11  1  0.32820212  0.99126825  0.32943199  1
  Cr  Cr12  1  0.32555141  0.32974866  0.99031357  1
  Cr  Cr13  1  0.49273007  0.49336307  0.15820986  1
  Cr  Cr14  1  0.32527858  0.32664417  0.32553216  1
  Cr  Cr15  1  0.32658901  0.65934224  0.98919196  1
  Cr  Cr16  1  0.49227430  0.82539844  0.16083563  1
  Cr  Cr17  1  0.32755385  0.66029468  0.32615480  1
  Cr  Cr18  1  0.66069694  0.98951634  0.99139259  1
  Cr  Cr19  1  0.82666645  0.15751228  0.15652989  1
  Cr  Cr20  1  0.65915070  0.99128215  0.32706416  1
  Cr  Cr21  1  0.65908107  0.32817717  0.99224631  1
  Cr  Cr22  1  0.82535016  0.49460140  0.16052207  1
  Cr  Cr23  1  0.66170677  0.32666949  0.32644950  1
  Cr  Cr24  1  0.65828613  0.66053916  0.99071104  1
  Cr  Cr25  1  0.82791926  0.82614378  0.15708573  1
  Cr  Cr26  1  0.65987843  0.66008888  0.32714976  1
  Cr  Cr27  1  0.16011344  0.15872919  0.49281617  1
  Cr  Cr28  1  0.99273430  0.98961130  0.66170848  1
  Cr  Cr29  1  0.15852064  0.15797325  0.82675004  1
  Cr  Cr30  1  0.15771222  0.49522602  0.49378887  1
  Cr  Cr31  1  0.99201148  0.32959850  0.65803696  1
  Ni  Ni32  1  0.16002934  0.49752574  0.82493086  1
  Cr  Cr33  1  0.15941714  0.82440708  0.49318379  1
  Ni  Ni34  1  0.99012114  0.65928800  0.66178586  1
  Ni  Ni35  1  0.15691354  0.82293299  0.82624619  1
  Cr  Cr36  1  0.49332134  0.16017261  0.49447587  1
  Cr  Cr37  1  0.32729239  0.98903317  0.65914750  1
  Cr  Cr38  1  0.49444635  0.16192495  0.82476251  1
  Cr  Cr39  1  0.49566478  0.49445297  0.49478463  1
  Cr  Cr40  1  0.32576857  0.32842194  0.66212597  1
  Ni  Ni41  1  0.49313170  0.49651106  0.82385338  1
  Ni  Ni42  1  0.49496492  0.82322372  0.49413503  1
  Cr  Cr43  1  0.32630571  0.66108954  0.66265583  1
  Ni  Ni44  1  0.49432601  0.82189990  0.82424651  1
  Cr  Cr45  1  0.82471318  0.16152729  0.49509174  1
  Cr  Cr46  1  0.65843487  0.98912228  0.65997608  1
  Cr  Cr47  1  0.82565691  0.15804839  0.82659791  1
  Ni  Ni48  1  0.82400478  0.49515132  0.49634494  1
  Ni  Ni49  1  0.65955589  0.33152491  0.65928814  1
  Cr  Cr50  1  0.82408689  0.49488663  0.82261673  1
  Cr  Cr51  1  0.82581934  0.82149237  0.49507547  1
  Ni  Ni52  1  0.66034514  0.65884732  0.66041775  1
  Ni  Ni53  1  0.82711589  0.82378239  0.82525554  1
" 