122,Ni81Fe3Cr15_12,-232.629674705245, 161.144061003346,Ni81Fe3Cr15,"# generated using pymatgen
 data_Cr10FeNi43
_symmetry_space_group_name_H-M   'P 1'
_cell_length_a   7.47187477
_cell_length_b   7.47187477
_cell_length_c   10.56682663
_cell_angle_alpha   90.00000000
_cell_angle_beta   90.00000000
_cell_angle_gamma   90.00000000
_symmetry_Int_Tables_number   1
_chemical_formula_structural   Cr10FeNi43
_chemical_formula_sum   'Cr10 Fe1 Ni43'
_cell_volume   589.93443982
_cell_formula_units_Z   1
loop_
 _symmetry_equiv_pos_site_id
 _symmetry_equiv_pos_as_xyz
  1  'x, y, z'
loop_
 _atom_site_type_symbol
 _atom_site_label
 _atom_site_symmetry_multiplicity
 _atom_site_fract_x
 _atom_site_fract_y
 _atom_site_fract_z
 _atom_site_occupancy
  Cr  Cr0  1  0.00076906  0.00068374  0.99893760  1
  Ni  Ni1  1  0.16727817  0.16728049  0.16718461  1
  Fe  Fe2  1  0.99823906  0.00172472  0.33339342  1
  Ni  Ni3  1  0.99834332  0.33334703  -0.00003606  1
  Cr  Cr4  1  0.16591323  0.49864808  0.16642328  1
  Ni  Ni5  1  0.99940301  0.33075837  0.33188459  1
  Ni  Ni6  1  0.99710307  0.66524591  0.99907723  1
  Cr  Cr7  1  0.16774108  0.83304176  0.16707398  1
  Ni  Ni8  1  0.99890953  0.66704516  0.33211991  1
  Ni  Ni9  1  0.33344027  0.00044293  0.99890390  1
  Ni  Ni10  1  0.49924317  0.16682771  0.16751397  1
  Ni  Ni11  1  0.33388221  0.00229279  0.33171041  1
  Ni  Ni12  1  0.33426408  0.33148140  0.00019484  1
  Ni  Ni13  1  0.50069509  0.49900975  0.16582442  1
  Ni  Ni14  1  0.33382748  0.33088221  0.33335822  1
  Ni  Ni15  1  0.33550278  0.66710656  0.99930690  1
  Ni  Ni16  1  0.49964184  0.83319268  0.16625427  1
  Ni  Ni17  1  0.33325704  0.66585588  0.33229500  1
  Cr  Cr18  1  0.66484891  0.99923055  -0.00006927  1
  Ni  Ni19  1  0.83251006  0.16833807  0.16848164  1
  Ni  Ni20  1  0.66698623  0.00179996  0.33232403  1
  Ni  Ni21  1  0.66642332  0.33540575  0.00013458  1
  Ni  Ni22  1  0.83239101  0.49883734  0.16501981  1
  Ni  Ni23  1  0.66579909  0.33013329  0.33212428  1
  Ni  Ni24  1  0.66642463  0.66442203  -0.00000379  1
  Ni  Ni25  1  0.83193939  0.83185763  0.16777286  1
  Cr  Cr26  1  0.66642886  0.66664862  0.33131027  1
  Ni  Ni27  1  0.16645228  0.16668636  0.49954718  1
  Ni  Ni28  1  0.99879327  0.00020481  0.66627040  1
  Ni  Ni29  1  0.16716771  0.16516573  0.83229801  1
  Cr  Cr30  1  0.16786259  0.49884985  0.49942322  1
  Ni  Ni31  1  0.99897051  0.33031321  0.66718370  1
  Cr  Cr32  1  0.16571828  0.49994581  0.83318387  1
  Cr  Cr33  1  0.16519035  0.83344512  0.49959551  1
  Ni  Ni34  1  0.99773129  0.66851333  0.66783488  1
  Ni  Ni35  1  0.16734233  0.83365318  0.83212250  1
  Ni  Ni36  1  0.49986800  0.16804690  0.49939035  1
  Ni  Ni37  1  0.33261059  0.00126758  0.66841584  1
  Ni  Ni38  1  0.49880977  0.16661933  0.83212584  1
  Ni  Ni39  1  0.49845718  0.49700144  0.50043556  1
  Ni  Ni40  1  0.33449905  0.33131900  0.66547728  1
  Ni  Ni41  1  0.50131981  0.50003456  0.83277171  1
  Cr  Cr42  1  0.50028151  0.83395054  0.50047768  1
  Ni  Ni43  1  0.33467718  0.66644300  0.66742869  1
  Ni  Ni44  1  0.49845870  0.83237704  0.83250104  1
  Ni  Ni45  1  0.83271032  0.16487964  0.49948487  1
  Ni  Ni46  1  0.66762742  0.00002992  0.66656722  1
  Ni  Ni47  1  0.83305432  0.16803026  0.83106259  1
  Cr  Cr48  1  0.83261109  0.49872188  0.50088004  1
  Ni  Ni49  1  0.66556050  0.33237817  0.66677339  1
  Ni  Ni50  1  0.83177645  0.49985961  0.83356068  1
  Ni  Ni51  1  0.83394852  0.83551589  0.50037001  1
  Ni  Ni52  1  0.66662275  0.66662283  0.66797371  1
  Ni  Ni53  1  0.83323006  0.83114137  0.83088618  1
" 