6827,Ni81Fe6Cr11_5,-235.563902163137, 173.073306589223,Ni81Fe6Cr11,"# generated using pymatgen
 data_Cr7Fe3Ni44
_symmetry_space_group_name_H-M   'P 1'
_cell_length_a   7.45914127
_cell_length_b   7.45914127
_cell_length_c   10.54881874
_cell_angle_alpha   90.00000000
_cell_angle_beta   90.00000000
_cell_angle_gamma   90.00000000
_symmetry_Int_Tables_number   1
_chemical_formula_structural   Cr7Fe3Ni44
_chemical_formula_sum   'Cr7 Fe3 Ni44'
_cell_volume   586.92349445
_cell_formula_units_Z   1
loop_
 _symmetry_equiv_pos_site_id
 _symmetry_equiv_pos_as_xyz
  1  'x, y, z'
loop_
 _atom_site_type_symbol
 _atom_site_label
 _atom_site_symmetry_multiplicity
 _atom_site_fract_x
 _atom_site_fract_y
 _atom_site_fract_z
 _atom_site_occupancy
  Ni  Ni0  1  0.00171760  1.00002586  0.00061820  1
  Fe  Fe1  1  0.16606073  0.16840042  0.16627986  1
  Ni  Ni2  1  0.99864004  1.00036544  0.33345974  1
  Ni  Ni3  1  0.99942533  0.33234964  0.00110747  1
  Ni  Ni4  1  0.16633019  0.50073426  0.16667556  1
  Ni  Ni5  1  0.99991683  0.33356423  0.33390412  1
  Ni  Ni6  1  0.00128209  0.66921572  0.00136771  1
  Ni  Ni7  1  0.16410883  0.83273040  0.16486136  1
  Ni  Ni8  1  0.99829667  0.66765981  0.33333097  1
  Ni  Ni9  1  0.33110523  0.00194531  1.00005647  1
  Ni  Ni10  1  0.50203968  0.16943529  0.16640611  1
  Cr  Cr11  1  0.33262459  0.00286502  0.33522891  1
  Ni  Ni12  1  0.33550043  0.33253119  0.00165864  1
  Ni  Ni13  1  0.49980923  0.49719413  0.16719827  1
  Ni  Ni14  1  0.33441995  0.33374712  0.33351033  1
  Ni  Ni15  1  0.33172607  0.66711433  0.00136179  1
  Cr  Cr16  1  0.50088363  0.83495017  0.16647178  1
  Cr  Cr17  1  0.33377362  0.66485032  0.33415202  1
  Fe  Fe18  1  0.66896030  0.00407961  0.00057012  1
  Ni  Ni19  1  0.83321832  0.16721157  0.16715798  1
  Ni  Ni20  1  0.67000296  0.00131346  0.33415665  1
  Ni  Ni21  1  0.66666367  0.33296423  1.00032357  1
  Ni  Ni22  1  0.83545032  0.49941925  0.16795060  1
  Ni  Ni23  1  0.66725276  0.33409357  0.33346225  1
  Cr  Cr24  1  0.66863659  0.66435890  1.00052970  1
  Ni  Ni25  1  0.83676236  0.83496121  0.16872628  1
  Ni  Ni26  1  0.66982343  0.66618350  0.33477948  1
  Ni  Ni27  1  0.16710184  0.16850391  0.50009055  1
  Cr  Cr28  1  0.00132526  0.00082894  0.66737125  1
  Ni  Ni29  1  0.16771347  0.16616294  0.83492666  1
  Ni  Ni30  1  0.16605788  0.50029629  0.50122777  1
  Ni  Ni31  1  0.99958441  0.33461405  0.66657644  1
  Cr  Cr32  1  0.16669905  0.50096717  0.83333814  1
  Ni  Ni33  1  0.16749404  0.83279065  0.50160323  1
  Ni  Ni34  1  0.99966141  0.66669507  0.66689163  1
  Ni  Ni35  1  0.16653914  0.83449465  0.83512386  1
  Ni  Ni36  1  0.50151451  0.16690495  0.50141607  1
  Ni  Ni37  1  0.33456672  0.00106849  0.66657898  1
  Ni  Ni38  1  0.50104154  0.16819375  0.83376811  1
  Ni  Ni39  1  0.50108614  0.50041917  0.50112153  1
  Ni  Ni40  1  0.33531071  0.33302223  0.66641909  1
  Ni  Ni41  1  0.50141780  0.49823359  0.83326989  1
  Ni  Ni42  1  0.50124798  0.83426527  0.50222554  1
  Ni  Ni43  1  0.33444775  0.66749783  0.66595529  1
  Cr  Cr44  1  0.49914750  0.83484889  0.83306191  1
  Ni  Ni45  1  0.83297244  0.16834187  0.49956238  1
  Ni  Ni46  1  0.66588951  0.00114499  0.66687699  1
  Ni  Ni47  1  0.83283568  0.16806802  0.83486769  1
  Ni  Ni48  1  0.83444634  0.50002730  0.50055124  1
  Ni  Ni49  1  0.66669448  0.33449598  0.66780423  1
  Ni  Ni50  1  0.83350487  0.49940550  0.83308712  1
  Fe  Fe51  1  0.83287105  0.83299522  0.49953795  1
  Ni  Ni52  1  0.66747932  0.66594967  0.66628055  1
  Ni  Ni53  1  0.83553643  0.83411839  0.83377868  1
" 