6982,Ni81Fe12Cr5_16,-238.9126250896, 190.464035778712,Ni81Fe12Cr5,"# generated using pymatgen
 data_Cr2Fe3Ni22
_symmetry_space_group_name_H-M   'P 1'
_cell_length_a   7.44552532
_cell_length_b   7.44552532
_cell_length_c   10.52956289
_cell_angle_alpha   90.00000000
_cell_angle_beta   90.00000000
_cell_angle_gamma   90.00000000
_symmetry_Int_Tables_number   1
_chemical_formula_structural   Cr2Fe3Ni22
_chemical_formula_sum   'Cr4 Fe6 Ni44'
_cell_volume   583.71524072
_cell_formula_units_Z   2
loop_
 _symmetry_equiv_pos_site_id
 _symmetry_equiv_pos_as_xyz
  1  'x, y, z'
loop_
 _atom_site_type_symbol
 _atom_site_label
 _atom_site_symmetry_multiplicity
 _atom_site_fract_x
 _atom_site_fract_y
 _atom_site_fract_z
 _atom_site_occupancy
  Ni  Ni0  1  0.00324695  0.99897536  1.00105747  1
  Ni  Ni1  1  0.16954382  0.16818581  0.16784913  1
  Ni  Ni2  1  0.00347900  0.00186523  0.33481747  1
  Fe  Fe3  1  0.00304986  0.33682759  0.00216488  1
  Ni  Ni4  1  0.16864754  0.50138924  0.16838576  1
  Ni  Ni5  1  0.00220218  0.33399298  0.33587049  1
  Ni  Ni6  1  1.00113293  0.66938388  0.00165698  1
  Ni  Ni7  1  0.16879922  0.83471257  0.16811860  1
  Fe  Fe8  1  0.00315740  0.66646382  0.33396959  1
  Ni  Ni9  1  0.33296322  0.00303448  1.00129717  1
  Ni  Ni10  1  0.49983924  0.16832847  0.16790929  1
  Ni  Ni11  1  0.33285273  0.00183084  0.33565602  1
  Ni  Ni12  1  0.33556892  0.33474953  0.00201309  1
  Ni  Ni13  1  0.50127844  0.50158134  0.16782118  1
  Ni  Ni14  1  0.33504482  0.33466525  0.33438631  1
  Ni  Ni15  1  0.33369092  0.66659649  0.00192416  1
  Ni  Ni16  1  0.50072554  0.83450037  0.16815968  1
  Ni  Ni17  1  0.33606744  0.66783037  0.33521164  1
  Ni  Ni18  1  0.66801116  1.00086786  0.00297782  1
  Cr  Cr19  1  0.83485304  0.16896075  0.16839701  1
  Fe  Fe20  1  0.66533376  0.00218636  0.33478300  1
  Ni  Ni21  1  0.66525263  0.33694106  1.00066358  1
  Ni  Ni22  1  0.83466225  0.50252834  0.16825105  1
  Ni  Ni23  1  0.66712791  0.33693910  0.33650098  1
  Ni  Ni24  1  0.66953744  0.66659563  0.00163584  1
  Ni  Ni25  1  0.83476041  0.83347462  0.16782425  1
  Ni  Ni26  1  0.66708267  0.66624796  0.33390378  1
  Ni  Ni27  1  0.16804147  0.16844836  0.50167902  1
  Ni  Ni28  1  0.00225424  0.00151169  0.66828352  1
  Ni  Ni29  1  0.16938034  0.16867642  0.83487175  1
  Ni  Ni30  1  0.16856243  0.50142432  0.50092074  1
  Fe  Fe31  1  0.00270156  0.33642505  0.66687384  1
  Ni  Ni32  1  0.16825419  0.50162664  0.83500570  1
  Ni  Ni33  1  0.16976842  0.83432407  0.50179399  1
  Ni  Ni34  1  0.00193624  0.66861212  0.66818308  1
  Ni  Ni35  1  0.16682654  0.83413169  0.83436159  1
  Ni  Ni36  1  0.50111869  0.16840530  0.50164456  1
  Fe  Fe37  1  0.33412376  1.00106002  0.66734423  1
  Ni  Ni38  1  0.50014961  0.16942431  0.83482150  1
  Ni  Ni39  1  0.50101434  0.50182986  0.50166328  1
  Ni  Ni40  1  0.33503148  0.33478424  0.66783670  1
  Ni  Ni41  1  0.50087755  0.50026252  0.83482772  1
  Ni  Ni42  1  0.49986935  0.83410393  0.50141602  1
  Ni  Ni43  1  0.33388939  0.66499687  0.66716320  1
  Cr  Cr44  1  0.50107900  0.83435747  0.83491192  1
  Ni  Ni45  1  0.83500809  0.16954503  0.50135819  1
  Ni  Ni46  1  0.66906169  0.00230202  0.66667484  1
  Cr  Cr47  1  0.83456263  0.16805828  0.83522666  1
  Ni  Ni48  1  0.83493571  0.50014606  0.50145790  1
  Fe  Fe49  1  0.66715831  0.33620513  0.66748146  1
  Ni  Ni50  1  0.83529547  0.50307126  0.83479932  1
  Cr  Cr51  1  0.83480279  0.83419133  0.50034823  1
  Ni  Ni52  1  0.66848974  0.66684365  0.66859101  1
  Ni  Ni53  1  0.83594264  0.83362416  0.83530095  1
" 