898,Ni81Fe12Cr5_0,-238.864198630772, 189.837022742044,Ni81Fe12Cr5,"# generated using pymatgen
 data_Cr2Fe3Ni22
_symmetry_space_group_name_H-M   'P 1'
_cell_length_a   7.44112077
_cell_length_b   7.44112077
_cell_length_c   10.52333391
_cell_angle_alpha   90.00000000
_cell_angle_beta   90.00000000
_cell_angle_gamma   90.00000000
_symmetry_Int_Tables_number   1
_chemical_formula_structural   Cr2Fe3Ni22
_chemical_formula_sum   'Cr4 Fe6 Ni44'
_cell_volume   582.67992758
_cell_formula_units_Z   2
loop_
 _symmetry_equiv_pos_site_id
 _symmetry_equiv_pos_as_xyz
  1  'x, y, z'
loop_
 _atom_site_type_symbol
 _atom_site_label
 _atom_site_symmetry_multiplicity
 _atom_site_fract_x
 _atom_site_fract_y
 _atom_site_fract_z
 _atom_site_occupancy
  Ni  Ni0  1  1.00070756  1.00165969  0.00182470  1
  Fe  Fe1  1  0.16868371  0.16812828  0.16859177  1
  Ni  Ni2  1  0.00207812  1.00078794  0.33351739  1
  Fe  Fe3  1  0.00339016  0.33399454  0.00221830  1
  Ni  Ni4  1  0.16791231  0.50199330  0.16741057  1
  Ni  Ni5  1  0.00232346  0.33599916  0.33361395  1
  Ni  Ni6  1  0.00216113  0.66927930  0.00245658  1
  Ni  Ni7  1  0.16799482  0.83517881  0.16645844  1
  Ni  Ni8  1  1.00085193  0.66846595  0.33519628  1
  Ni  Ni9  1  0.33555782  0.00275111  0.00242662  1
  Ni  Ni10  1  0.50207187  0.16793670  0.16851608  1
  Ni  Ni11  1  0.33521410  0.00331659  0.33433204  1
  Ni  Ni12  1  0.33518347  0.33517457  0.00222273  1
  Ni  Ni13  1  0.50148980  0.50053653  0.16685840  1
  Ni  Ni14  1  0.33552321  0.33413547  0.33497312  1
  Ni  Ni15  1  0.33525138  0.66745553  1.00104445  1
  Ni  Ni16  1  0.50162924  0.83668138  0.16806361  1
  Cr  Cr17  1  0.33374233  0.66795269  0.33506464  1
  Ni  Ni18  1  0.66891528  1.00153645  1.00118657  1
  Ni  Ni19  1  0.83426916  0.16783650  0.16779557  1
  Ni  Ni20  1  0.66807921  0.00204583  0.33449710  1
  Fe  Fe21  1  0.66716919  0.33390084  0.00226486  1
  Ni  Ni22  1  0.83600032  0.50163521  0.16887246  1
  Ni  Ni23  1  0.66762483  0.33505391  0.33377963  1
  Ni  Ni24  1  0.66797787  0.66980965  0.00427368  1
  Ni  Ni25  1  0.83578705  0.83555593  0.16884843  1
  Fe  Fe26  1  0.66930530  0.66796713  0.33408402  1
  Ni  Ni27  1  0.17045035  0.16776431  0.50027710  1
  Ni  Ni28  1  0.00243183  1.00115331  0.66980119  1
  Ni  Ni29  1  0.16906726  0.16873184  0.83518070  1
  Ni  Ni30  1  0.16806273  0.50153029  0.50317179  1
  Ni  Ni31  1  0.00374328  0.33481539  0.66852547  1
  Ni  Ni32  1  0.17031309  0.50156001  0.83454140  1
  Ni  Ni33  1  0.16722980  0.83609303  0.50360902  1
  Ni  Ni34  1  0.00367219  0.66926175  0.66768014  1
  Fe  Fe35  1  0.16895846  0.83586093  0.83581602  1
  Ni  Ni36  1  0.50017513  0.16859243  0.50214972  1
  Ni  Ni37  1  0.33486304  0.00265285  0.66847134  1
  Ni  Ni38  1  0.50084712  0.16770926  0.83476082  1
  Ni  Ni39  1  0.50105901  0.49871928  0.50194676  1
  Ni  Ni40  1  0.33490246  0.33499263  0.66777001  1
  Ni  Ni41  1  0.49881718  0.50131245  0.83655430  1
  Fe  Fe42  1  0.50043294  0.83715615  0.50188328  1
  Ni  Ni43  1  0.33352459  0.66772259  0.66977135  1
  Ni  Ni44  1  0.50114145  0.83607644  0.83598238  1
  Cr  Cr45  1  0.83499464  0.16822501  0.50321439  1
  Ni  Ni46  1  0.66798857  0.00246814  0.66982809  1
  Ni  Ni47  1  0.83532248  0.16581622  0.83457642  1
  Ni  Ni48  1  0.83608385  0.50253208  0.50024889  1
  Ni  Ni49  1  0.66649066  0.33383628  0.66979924  1
  Cr  Cr50  1  0.83623410  0.50160573  0.83581180  1
  Ni  Ni51  1  0.83717785  0.83494355  0.50020632  1
  Cr  Cr52  1  0.66774649  0.66918284  0.66611420  1
  Ni  Ni53  1  0.83544997  0.83699140  0.83599101  1
" 