3830,Ni81Cr19_12,-207.330718273708, 165.306455434466,Ni81Cr19,"# generated using pymatgen
 data_Cr43Ni11
_symmetry_space_group_name_H-M   'P 1'
_cell_length_a   7.57418419
_cell_length_b   7.57418419
_cell_length_c   10.71151400
_cell_angle_alpha   90.00000000
_cell_angle_beta   90.00000000
_cell_angle_gamma   90.00000000
_symmetry_Int_Tables_number   1
_chemical_formula_structural   Cr43Ni11
_chemical_formula_sum   'Cr43 Ni11'
_cell_volume   614.50098538
_cell_formula_units_Z   1
loop_
 _symmetry_equiv_pos_site_id
 _symmetry_equiv_pos_as_xyz
  1  'x, y, z'
loop_
 _atom_site_type_symbol
 _atom_site_label
 _atom_site_symmetry_multiplicity
 _atom_site_fract_x
 _atom_site_fract_y
 _atom_site_fract_z
 _atom_site_occupancy
  Cr  Cr0  1  0.99190432  0.98864778  -0.00653616  1
  Cr  Cr1  1  0.15900019  0.15862216  0.16013198  1
  Cr  Cr2  1  -0.00700066  0.99053725  0.32599692  1
  Cr  Cr3  1  0.99244406  0.32869262  -0.00576244  1
  Cr  Cr4  1  0.15979643  0.49597323  0.15893480  1
  Cr  Cr5  1  0.99198794  0.32754322  0.32768477  1
  Ni  Ni6  1  0.99147140  0.66363877  0.99176123  1
  Cr  Cr7  1  0.15955250  0.82386548  0.15992154  1
  Cr  Cr8  1  0.99185627  0.66058398  0.32693476  1
  Cr  Cr9  1  0.32601287  0.99106526  0.99245951  1
  Cr  Cr10  1  0.49303969  0.15691814  0.15866244  1
  Cr  Cr11  1  0.32638030  0.99017679  0.32750457  1
  Cr  Cr12  1  0.32684095  0.32651402  -0.00647887  1
  Cr  Cr13  1  0.49250626  0.49759772  0.16064842  1
  Cr  Cr14  1  0.32630923  0.32816542  0.32472284  1
  Cr  Cr15  1  0.32477929  0.66157441  0.99197815  1
  Ni  Ni16  1  0.49498048  0.82335990  0.16230669  1
  Ni  Ni17  1  0.32925115  0.66375333  0.32728944  1
  Cr  Cr18  1  0.66072784  0.99019821  -0.00624784  1
  Cr  Cr19  1  0.82675147  0.15645932  0.16014890  1
  Cr  Cr20  1  0.65920151  0.98993271  0.32465892  1
  Cr  Cr21  1  0.65950529  0.32716917  -0.00675872  1
  Cr  Cr22  1  0.82651464  0.49684846  0.16026085  1
  Cr  Cr23  1  0.66074220  0.32959719  0.32677295  1
  Cr  Cr24  1  0.66227859  0.66154984  -0.00691871  1
  Ni  Ni25  1  0.82381903  0.82259789  0.15902459  1
  Ni  Ni26  1  0.65795304  0.66233816  0.32635462  1
  Cr  Cr27  1  0.15835262  0.15823514  0.49347299  1
  Cr  Cr28  1  -0.00566383  0.98913840  0.65970322  1
  Cr  Cr29  1  0.15827250  0.15867634  0.82557545  1
  Cr  Cr30  1  0.15880145  0.49485656  0.49231121  1
  Ni  Ni31  1  0.99178751  0.32812131  0.65789790  1
  Cr  Cr32  1  0.15821993  0.49502206  0.82781721  1
  Ni  Ni33  1  0.16243639  0.82396218  0.49184734  1
  Cr  Cr34  1  -0.00680207  0.66026288  0.66050727  1
  Ni  Ni35  1  0.15607410  0.82513312  0.82726808  1
  Cr  Cr36  1  0.49365798  0.15661802  0.49407751  1
  Cr  Cr37  1  0.32482456  0.98928472  0.65849167  1
  Cr  Cr38  1  0.49359716  0.15907083  0.82602165  1
  Cr  Cr39  1  0.49400228  0.49697555  0.49117400  1
  Cr  Cr40  1  0.32529499  0.32756607  0.66062478  1
  Cr  Cr41  1  0.49299169  0.49410644  0.82663734  1
  Ni  Ni42  1  0.49117276  0.82325888  0.48998430  1
  Cr  Cr43  1  0.32477273  0.66207928  0.65879569  1
  Cr  Cr44  1  0.49378578  0.82564759  0.82551403  1
  Cr  Cr45  1  0.82707506  0.16023477  0.49455231  1
  Cr  Cr46  1  0.65962793  0.98974651  0.66024613  1
  Cr  Cr47  1  0.82700185  0.15779431  0.82449471  1
  Ni  Ni48  1  0.82632442  0.49489736  0.49296205  1
  Cr  Cr49  1  0.66112688  0.32889639  0.65882550  1
  Cr  Cr50  1  0.82765979  0.49476609  0.82561176  1
  Cr  Cr51  1  0.82439934  0.82454334  0.49162882  1
  Cr  Cr52  1  0.66065744  0.66045628  0.65841614  1
  Ni  Ni53  1  0.83002844  0.82481508  0.82817071  1
" 