111,Ni81Fe12Cr5_15,-238.69152975355, 188.220357866556,Ni81Fe12Cr5,"# generated using pymatgen
 data_Cr2Fe3Ni22
_symmetry_space_group_name_H-M   'P 1'
_cell_length_a   7.44114240
_cell_length_b   7.44114240
_cell_length_c   10.52336450
_cell_angle_alpha   90.00000000
_cell_angle_beta   90.00000000
_cell_angle_gamma   90.00000000
_symmetry_Int_Tables_number   1
_chemical_formula_structural   Cr2Fe3Ni22
_chemical_formula_sum   'Cr4 Fe6 Ni44'
_cell_volume   582.68500880
_cell_formula_units_Z   2
loop_
 _symmetry_equiv_pos_site_id
 _symmetry_equiv_pos_as_xyz
  1  'x, y, z'
loop_
 _atom_site_type_symbol
 _atom_site_label
 _atom_site_symmetry_multiplicity
 _atom_site_fract_x
 _atom_site_fract_y
 _atom_site_fract_z
 _atom_site_occupancy
  Ni  Ni0  1  0.00273795  0.00193648  0.00254171  1
  Ni  Ni1  1  0.16812788  0.16808713  0.16800254  1
  Ni  Ni2  1  1.00078809  0.00189626  0.33481251  1
  Fe  Fe3  1  0.00187738  0.33354453  0.00192075  1
  Ni  Ni4  1  0.16977947  0.50206550  0.16846513  1
  Ni  Ni5  1  0.00293151  0.33368669  0.33536850  1
  Ni  Ni6  1  0.00295062  0.66977782  0.00250284  1
  Ni  Ni7  1  0.16869401  0.83506930  0.16796408  1
  Ni  Ni8  1  0.00293532  0.66964130  0.33585610  1
  Ni  Ni9  1  0.33462337  0.00192796  1.00141895  1
  Ni  Ni10  1  0.50165669  0.16814455  0.16848415  1
  Fe  Fe11  1  0.33528660  0.00194899  0.33481013  1
  Ni  Ni12  1  0.33571838  0.33371852  0.00369588  1
  Ni  Ni13  1  0.50027220  0.50227663  0.16818931  1
  Ni  Ni14  1  0.33524891  0.33589102  0.33470983  1
  Ni  Ni15  1  0.33461877  0.66957579  0.00334773  1
  Ni  Ni16  1  0.50130165  0.83480053  0.16769517  1
  Ni  Ni17  1  0.33504186  0.66722759  0.33443002  1
  Ni  Ni18  1  0.66785962  0.00303484  0.00254333  1
  Ni  Ni19  1  0.83543812  0.16705933  0.16810521  1
  Ni  Ni20  1  0.66945599  0.00210514  0.33464826  1
  Ni  Ni21  1  0.66766044  0.33350734  1.00150912  1
  Cr  Cr22  1  0.83483459  0.50181674  0.16815095  1
  Ni  Ni23  1  0.66704332  0.33374531  0.33596144  1
  Ni  Ni24  1  0.66765221  0.66868178  0.00250247  1
  Fe  Fe25  1  0.83517996  0.83703611  0.16872064  1
  Ni  Ni26  1  0.66724714  0.66937390  0.33570344  1
  Ni  Ni27  1  0.16806636  0.16858632  0.50188056  1
  Ni  Ni28  1  0.00275821  0.00254151  0.66786600  1
  Ni  Ni29  1  0.16886923  0.16634144  0.83534078  1
  Fe  Fe30  1  0.16846663  0.50120271  0.50137773  1
  Ni  Ni31  1  1.00082543  0.33425566  0.66834515  1
  Cr  Cr32  1  0.16647274  0.50163535  0.83522677  1
  Fe  Fe33  1  0.16802366  0.83528151  0.50208822  1
  Ni  Ni34  1  0.00180777  0.66842305  0.66686111  1
  Ni  Ni35  1  0.16964226  0.83743890  0.83463610  1
  Ni  Ni36  1  0.50118200  0.16858254  0.50188102  1
  Ni  Ni37  1  0.33497790  0.00177183  0.66905590  1
  Ni  Ni38  1  0.50090909  0.16639831  0.83485723  1
  Ni  Ni39  1  0.50249312  0.50224062  0.50170022  1
  Ni  Ni40  1  0.33524789  0.33336427  0.66681633  1
  Cr  Cr41  1  0.50391440  0.50208791  0.83527659  1
  Ni  Ni42  1  0.50249048  0.83439777  0.50262415  1
  Ni  Ni43  1  0.33503851  0.67008810  0.66744079  1
  Ni  Ni44  1  0.50035017  0.83717273  0.83490426  1
  Ni  Ni45  1  0.83597347  0.16858872  0.50237373  1
  Ni  Ni46  1  0.66748492  0.00275241  0.66803054  1
  Fe  Fe47  1  0.83481245  0.16939904  0.83493623  1
  Ni  Ni48  1  0.83487497  0.50244261  0.50264192  1
  Ni  Ni49  1  0.66914799  0.33431534  0.66775208  1
  Ni  Ni50  1  0.83517091  0.50087725  0.83462182  1
  Ni  Ni51  1  0.83486944  0.83419147  0.50100491  1
  Ni  Ni52  1  0.66837673  0.66815433  0.66701654  1
  Cr  Cr53  1  0.83478762  0.83388760  0.83537952  1
" 