4609,Ni81Fe13Cr4_17,-239.150229452781, 191.469668139539,Ni81Fe13Cr4,"# generated using pymatgen
 data_Cr4Fe7Ni43
_symmetry_space_group_name_H-M   'P 1'
_cell_length_a   7.44173640
_cell_length_b   7.44173640
_cell_length_c   10.52420454
_cell_angle_alpha   90.00000000
_cell_angle_beta   90.00000000
_cell_angle_gamma   90.00000000
_symmetry_Int_Tables_number   1
_chemical_formula_structural   Cr4Fe7Ni43
_chemical_formula_sum   'Cr4 Fe7 Ni43'
_cell_volume   582.82455994
_cell_formula_units_Z   1
loop_
 _symmetry_equiv_pos_site_id
 _symmetry_equiv_pos_as_xyz
  1  'x, y, z'
loop_
 _atom_site_type_symbol
 _atom_site_label
 _atom_site_symmetry_multiplicity
 _atom_site_fract_x
 _atom_site_fract_y
 _atom_site_fract_z
 _atom_site_occupancy
  Ni  Ni0  1  0.00297044  0.00370500  0.00394473  1
  Ni  Ni1  1  0.16771073  0.16805502  0.16817841  1
  Fe  Fe2  1  0.00209118  0.00336697  0.33540735  1
  Ni  Ni3  1  1.00157054  0.33458043  1.00030572  1
  Ni  Ni4  1  0.16640793  0.50207673  0.16742038  1
  Ni  Ni5  1  0.00204215  0.33522157  0.33560525  1
  Ni  Ni6  1  1.00100906  0.66680796  0.00458070  1
  Ni  Ni7  1  0.16910867  0.83497735  0.16881879  1
  Fe  Fe8  1  0.00358336  0.66716605  0.33560569  1
  Ni  Ni9  1  0.33478987  0.00286230  0.00246115  1
  Ni  Ni10  1  0.50205659  0.16665153  0.16856688  1
  Ni  Ni11  1  0.33502098  1.00158816  0.33525667  1
  Ni  Ni12  1  0.33394317  0.33310407  0.00173105  1
  Cr  Cr13  1  0.50081052  0.49969933  0.16871005  1
  Ni  Ni14  1  0.33265991  0.33341559  0.33535002  1
  Ni  Ni15  1  0.33524988  0.66890468  1.00089173  1
  Ni  Ni16  1  0.49946515  0.83697374  0.16644203  1
  Ni  Ni17  1  0.33273664  0.67001315  0.33669059  1
  Fe  Fe18  1  0.66731016  0.00345394  0.00209588  1
  Ni  Ni19  1  0.83532487  0.16983342  0.16793618  1
  Ni  Ni20  1  0.66785771  0.00266382  0.33493799  1
  Ni  Ni21  1  0.66952584  0.33522436  1.00133383  1
  Ni  Ni22  1  0.83748702  0.49956805  0.16747354  1
  Ni  Ni23  1  0.67043010  0.33259263  0.33645809  1
  Ni  Ni24  1  0.66877700  0.66776972  1.00152565  1
  Fe  Fe25  1  0.83548899  0.83639457  0.16770227  1
  Cr  Cr26  1  0.66951255  0.66932615  0.33650130  1
  Ni  Ni27  1  0.16838416  0.16803282  0.50151063  1
  Ni  Ni28  1  0.00235182  0.00249617  0.66583035  1
  Ni  Ni29  1  0.16796349  0.16871617  0.83517269  1
  Ni  Ni30  1  0.16860021  0.50170321  0.50213366  1
  Fe  Fe31  1  1.00107674  0.33390105  0.66791050  1
  Fe  Fe32  1  0.16853307  0.50009412  0.83546347  1
  Ni  Ni33  1  0.16841563  0.83529044  0.50155451  1
  Ni  Ni34  1  1.00046744  0.66687892  0.66592155  1
  Cr  Cr35  1  0.16941081  0.83605741  0.83431352  1
  Ni  Ni36  1  0.50193755  0.16861749  0.50083682  1
  Ni  Ni37  1  0.33539489  0.00415544  0.66728150  1
  Ni  Ni38  1  0.50152896  0.16915342  0.83570262  1
  Ni  Ni39  1  0.50101783  0.50032695  0.50206053  1
  Ni  Ni40  1  0.33520357  0.33371272  0.66815555  1
  Ni  Ni41  1  0.50279695  0.50144741  0.83512476  1
  Ni  Ni42  1  0.50083922  0.83617817  0.50351128  1
  Fe  Fe43  1  0.33698671  0.66813839  0.66706261  1
  Ni  Ni44  1  0.50116775  0.83457960  0.83497541  1
  Ni  Ni45  1  0.83466922  0.16830792  0.50224039  1
  Ni  Ni46  1  0.66738718  0.00233764  0.66810452  1
  Ni  Ni47  1  0.83544911  0.17059445  0.83454644  1
  Ni  Ni48  1  0.83569005  0.50040001  0.50252812  1
  Ni  Ni49  1  0.66731798  0.33559387  0.66748681  1
  Ni  Ni50  1  0.83425468  0.50014698  0.83503332  1
  Ni  Ni51  1  0.83616427  0.83625549  0.50206064  1
  Ni  Ni52  1  0.66919913  0.66725451  0.66751496  1
  Cr  Cr53  1  0.83468435  0.83546670  0.83586469  1
" 