1543,Ni81Fe6Cr11_14,-235.730438515591, 174.360931639611,Ni81Fe6Cr11,"# generated using pymatgen
 data_Cr7Fe3Ni44
_symmetry_space_group_name_H-M   'P 1'
_cell_length_a   7.45935993
_cell_length_b   7.45935993
_cell_length_c   10.54912797
_cell_angle_alpha   90.00000000
_cell_angle_beta   90.00000000
_cell_angle_gamma   90.00000000
_symmetry_Int_Tables_number   1
_chemical_formula_structural   Cr7Fe3Ni44
_chemical_formula_sum   'Cr7 Fe3 Ni44'
_cell_volume   586.97511136
_cell_formula_units_Z   1
loop_
 _symmetry_equiv_pos_site_id
 _symmetry_equiv_pos_as_xyz
  1  'x, y, z'
loop_
 _atom_site_type_symbol
 _atom_site_label
 _atom_site_symmetry_multiplicity
 _atom_site_fract_x
 _atom_site_fract_y
 _atom_site_fract_z
 _atom_site_occupancy
  Ni  Ni0  1  0.00062242  0.99969810  0.00184794  1
  Ni  Ni1  1  0.16862692  0.16719728  0.16753068  1
  Ni  Ni2  1  0.00400460  0.99907045  0.33500068  1
  Ni  Ni3  1  1.00027116  0.33551074  0.00068240  1
  Ni  Ni4  1  0.16685257  0.50055584  0.16648300  1
  Ni  Ni5  1  0.00239786  0.33557279  0.33448352  1
  Ni  Ni6  1  0.99903453  0.66621822  0.00118294  1
  Ni  Ni7  1  0.16674443  0.83370856  0.16764486  1
  Ni  Ni8  1  0.99931504  0.66704318  0.33337763  1
  Ni  Ni9  1  0.33523500  0.00062728  0.00298687  1
  Ni  Ni10  1  0.49811007  0.16856945  0.16589139  1
  Ni  Ni11  1  0.33129354  1.00032697  0.33249506  1
  Ni  Ni12  1  0.33502503  0.33449249  0.00121130  1
  Ni  Ni13  1  0.50091715  0.50033338  0.16798620  1
  Ni  Ni14  1  0.33265521  0.33370774  0.33253653  1
  Ni  Ni15  1  0.33531953  0.66636494  0.00145077  1
  Ni  Ni16  1  0.49967680  0.83258870  0.16664487  1
  Fe  Fe17  1  0.33289606  0.66645043  0.33389895  1
  Fe  Fe18  1  0.66681067  0.99997935  0.99968653  1
  Cr  Cr19  1  0.83457028  0.16918252  0.16755986  1
  Cr  Cr20  1  0.66678386  0.99756681  0.33360168  1
  Ni  Ni21  1  0.66620810  0.33621471  0.99977289  1
  Ni  Ni22  1  0.83361887  0.50233915  0.16736906  1
  Ni  Ni23  1  0.66661057  0.33844578  0.33381269  1
  Ni  Ni24  1  0.66721970  0.66637228  0.00101113  1
  Ni  Ni25  1  0.83501273  0.83107321  0.16610725  1
  Ni  Ni26  1  0.66795279  0.66549729  0.33352919  1
  Ni  Ni27  1  0.16532094  0.16830704  0.49917395  1
  Ni  Ni28  1  0.99716962  1.00047858  0.66442160  1
  Cr  Cr29  1  0.16632548  0.16964430  0.83490847  1
  Ni  Ni30  1  0.16658620  0.50031359  0.50145254  1
  Ni  Ni31  1  0.99970855  0.33511209  0.66626291  1
  Ni  Ni32  1  0.16713286  0.50067063  0.83348335  1
  Ni  Ni33  1  0.16550994  0.83277915  0.49956173  1
  Ni  Ni34  1  0.00053068  0.66599052  0.66699001  1
  Cr  Cr35  1  0.16590799  0.82998690  0.83414529  1
  Cr  Cr36  1  0.50071900  0.16997511  0.50063763  1
  Cr  Cr37  1  0.33469787  0.99941750  0.66636934  1
  Ni  Ni38  1  0.50353232  0.16852928  0.83522437  1
  Ni  Ni39  1  0.50008599  0.50088214  0.49949220  1
  Ni  Ni40  1  0.33386751  0.33705377  0.66782965  1
  Ni  Ni41  1  0.49977944  0.49949294  0.83396524  1
  Ni  Ni42  1  0.50013114  0.83163062  0.49966004  1
  Ni  Ni43  1  0.33338278  0.66429456  0.66561376  1
  Ni  Ni44  1  0.50225399  0.83355266  0.83537098  1
  Fe  Fe45  1  0.83571083  0.16849237  0.50107512  1
  Ni  Ni46  1  0.66968720  0.00074092  0.66894935  1
  Ni  Ni47  1  0.83211128  0.16744927  0.83239328  1
  Ni  Ni48  1  0.83472056  0.50050189  0.49917688  1
  Ni  Ni49  1  0.66819273  0.33391879  0.66762671  1
  Ni  Ni50  1  0.83465006  0.49956032  0.83510681  1
  Ni  Ni51  1  0.83574241  0.83286200  0.50081473  1
  Cr  Cr52  1  0.66725443  0.66685365  0.66733090  1
  Ni  Ni53  1  0.83332915  0.83462821  0.83500373  1
" 