3447,Ni81Cr19_6,-207.102561498493, 160.382566301658,Ni81Cr19,"# generated using pymatgen
 data_Cr43Ni11
_symmetry_space_group_name_H-M   'P 1'
_cell_length_a   7.58390724
_cell_length_b   7.58390724
_cell_length_c   10.72526447
_cell_angle_alpha   90.00000000
_cell_angle_beta   90.00000000
_cell_angle_gamma   90.00000000
_symmetry_Int_Tables_number   1
_chemical_formula_structural   Cr43Ni11
_chemical_formula_sum   'Cr43 Ni11'
_cell_volume   616.87054604
_cell_formula_units_Z   1
loop_
 _symmetry_equiv_pos_site_id
 _symmetry_equiv_pos_as_xyz
  1  'x, y, z'
loop_
 _atom_site_type_symbol
 _atom_site_label
 _atom_site_symmetry_multiplicity
 _atom_site_fract_x
 _atom_site_fract_y
 _atom_site_fract_z
 _atom_site_occupancy
  Cr  Cr0  1  0.99170926  0.99180519  -0.00575439  1
  Cr  Cr1  1  0.15991260  0.16025148  0.15781454  1
  Cr  Cr2  1  0.99190665  -0.00764348  0.32477828  1
  Ni  Ni3  1  -0.00431677  0.32878770  0.99108300  1
  Cr  Cr4  1  0.15929993  0.49300725  0.15685778  1
  Cr  Cr5  1  0.99205741  0.32476139  0.32661146  1
  Ni  Ni6  1  -0.00744581  0.65625462  0.99224802  1
  Cr  Cr7  1  0.15867733  0.82359836  0.16036293  1
  Cr  Cr8  1  -0.00761381  0.65978251  0.32465226  1
  Cr  Cr9  1  0.32729107  0.99217130  -0.00769744  1
  Cr  Cr10  1  0.49134895  0.15907005  0.15735833  1
  Cr  Cr11  1  0.32639132  0.98928204  0.32501285  1
  Ni  Ni12  1  0.32170935  0.32696473  0.99117372  1
  Cr  Cr13  1  0.49064525  0.49282478  0.16011323  1
  Cr  Cr14  1  0.32617980  0.32775977  0.32687616  1
  Cr  Cr15  1  0.32579307  0.65879736  0.99080333  1
  Ni  Ni16  1  0.49356785  0.82480847  0.16023103  1
  Ni  Ni17  1  0.32898112  0.66003714  0.32713895  1
  Cr  Cr18  1  0.65787268  0.98933000  -0.00658439  1
  Cr  Cr19  1  0.82558698  0.15854710  0.15880069  1
  Cr  Cr20  1  0.65867446  0.98984248  0.32350596  1
  Cr  Cr21  1  0.65910035  0.32603940  -0.00703064  1
  Cr  Cr22  1  0.82694033  0.49408893  0.15713917  1
  Cr  Cr23  1  0.65866907  0.32726260  0.32706170  1
  Cr  Cr24  1  0.65949776  0.66155682  -0.00642933  1
  Ni  Ni25  1  0.82464026  0.82475410  0.15787358  1
  Cr  Cr26  1  0.65576483  0.65987120  0.32504401  1
  Cr  Cr27  1  0.15923092  0.15795594  0.49159702  1
  Cr  Cr28  1  0.99151519  -0.00695873  0.65783957  1
  Cr  Cr29  1  0.15990122  0.16152037  0.82749093  1
  Cr  Cr30  1  0.16130221  0.49425597  0.49114033  1
  Cr  Cr31  1  -0.00669283  0.32617854  0.65923244  1
  Ni  Ni32  1  0.15798781  0.49125242  0.82885912  1
  Cr  Cr33  1  0.16084066  0.82465507  0.49097936  1
  Cr  Cr34  1  -0.00679289  0.65762287  0.66061026  1
  Cr  Cr35  1  0.15911227  0.82277313  0.82553705  1
  Cr  Cr36  1  0.49345243  0.15855755  0.49352183  1
  Cr  Cr37  1  0.32795177  0.99041044  0.65954520  1
  Cr  Cr38  1  0.49262215  0.15757182  0.82596815  1
  Ni  Ni39  1  0.49105507  0.49537976  0.49101395  1
  Cr  Cr40  1  0.32492257  0.32742650  0.65931286  1
  Cr  Cr41  1  0.49018541  0.49211286  0.82645148  1
  Ni  Ni42  1  0.49233550  0.82352410  0.49229976  1
  Cr  Cr43  1  0.32747816  0.65896720  0.65850434  1
  Ni  Ni44  1  0.49321271  0.82669586  0.82421358  1
  Cr  Cr45  1  0.82420703  0.15794466  0.49384129  1
  Ni  Ni46  1  0.65678088  0.99006248  0.65889883  1
  Cr  Cr47  1  0.82435625  0.15864642  0.82419037  1
  Cr  Cr48  1  0.82376139  0.49254275  0.49227970  1
  Cr  Cr49  1  0.65865859  0.32584491  0.65694257  1
  Cr  Cr50  1  0.82861269  0.49295503  0.82754474  1
  Cr  Cr51  1  0.82439907  0.82643796  0.49378877  1
  Cr  Cr52  1  0.65617308  0.66067682  0.65830789  1
  Cr  Cr53  1  0.82454923  0.82533384  0.82500369  1
" 