202,Ni81Fe13Cr4_13,-239.058473266382, 192.2958209489,Ni81Fe13Cr4,"# generated using pymatgen
 data_Cr4Fe7Ni43
_symmetry_space_group_name_H-M   'P 1'
_cell_length_a   7.44261086
_cell_length_b   7.44261086
_cell_length_c   10.52544121
_cell_angle_alpha   90.00000000
_cell_angle_beta   90.00000000
_cell_angle_gamma   90.00000000
_symmetry_Int_Tables_number   1
_chemical_formula_structural   Cr4Fe7Ni43
_chemical_formula_sum   'Cr4 Fe7 Ni43'
_cell_volume   583.03004326
_cell_formula_units_Z   1
loop_
 _symmetry_equiv_pos_site_id
 _symmetry_equiv_pos_as_xyz
  1  'x, y, z'
loop_
 _atom_site_type_symbol
 _atom_site_label
 _atom_site_symmetry_multiplicity
 _atom_site_fract_x
 _atom_site_fract_y
 _atom_site_fract_z
 _atom_site_occupancy
  Ni  Ni0  1  1.00043089  0.00166701  0.00190616  1
  Ni  Ni1  1  0.16691198  0.16559338  0.16837413  1
  Ni  Ni2  1  0.00254081  1.00054910  0.33360217  1
  Ni  Ni3  1  0.00270792  0.33381993  1.00122546  1
  Fe  Fe4  1  0.16698598  0.50311348  0.16631615  1
  Ni  Ni5  1  0.00189926  0.33551195  0.33399815  1
  Ni  Ni6  1  0.00182226  0.66949685  1.00026904  1
  Ni  Ni7  1  0.16874846  0.83564105  0.16808327  1
  Ni  Ni8  1  0.00195330  0.66885310  0.33570110  1
  Fe  Fe9  1  0.33470438  1.00143329  0.00295441  1
  Ni  Ni10  1  0.50254351  0.16768550  0.16749180  1
  Ni  Ni11  1  0.33501247  1.00069958  0.33527793  1
  Ni  Ni12  1  0.33476186  0.33572144  1.00147361  1
  Ni  Ni13  1  0.50408987  0.50331716  0.16754481  1
  Cr  Cr14  1  0.33499634  0.33544030  0.33383705  1
  Ni  Ni15  1  0.33540703  0.66719985  0.00165983  1
  Ni  Ni16  1  0.50048426  0.83393559  0.16960304  1
  Ni  Ni17  1  0.33498111  0.66957551  0.33509823  1
  Ni  Ni18  1  0.66963936  1.00095063  1.00156821  1
  Ni  Ni19  1  0.83539298  0.16926653  0.16901253  1
  Ni  Ni20  1  0.66738133  1.00080928  0.33410800  1
  Ni  Ni21  1  0.66740727  0.33435345  1.00140222  1
  Ni  Ni22  1  0.83361796  0.50134839  0.16834058  1
  Ni  Ni23  1  0.66782533  0.33550904  0.33393611  1
  Ni  Ni24  1  0.66764643  0.66960248  1.00155221  1
  Ni  Ni25  1  0.83560682  0.83426375  0.16915803  1
  Ni  Ni26  1  0.66796645  0.66871349  0.33486227  1
  Ni  Ni27  1  0.16985341  0.16577409  0.50140709  1
  Cr  Cr28  1  1.00012824  0.99998519  0.66990652  1
  Ni  Ni29  1  0.16873289  0.16854546  0.83523368  1
  Fe  Fe30  1  0.16767728  0.50121708  0.50300729  1
  Ni  Ni31  1  0.00370817  0.33643468  0.66925260  1
  Ni  Ni32  1  0.16889188  0.50194821  0.83400708  1
  Ni  Ni33  1  0.17006241  0.83423836  0.50095227  1
  Ni  Ni34  1  0.00413763  0.66733882  0.66869655  1
  Ni  Ni35  1  0.17039994  0.83444956  0.83599408  1
  Ni  Ni36  1  0.50076630  0.16842271  0.50322394  1
  Fe  Fe37  1  0.33553436  1.00151908  0.66772203  1
  Fe  Fe38  1  0.50171201  0.16865819  0.83524792  1
  Ni  Ni39  1  0.50326021  0.50191549  0.50146685  1
  Ni  Ni40  1  0.33510611  0.33560841  0.66839677  1
  Ni  Ni41  1  0.50089484  0.50183685  0.83572745  1
  Fe  Fe42  1  0.50071007  0.83602964  0.50061959  1
  Ni  Ni43  1  0.33367130  0.66701728  0.66793114  1
  Ni  Ni44  1  0.49938317  0.83486515  0.83509235  1
  Cr  Cr45  1  0.83449932  0.17147319  0.49950756  1
  Ni  Ni46  1  0.66610891  0.00277914  0.66946078  1
  Ni  Ni47  1  0.83488953  0.17008910  0.83576038  1
  Ni  Ni48  1  0.83442006  0.50211278  0.50135458  1
  Ni  Ni49  1  0.66624040  0.33363480  0.66968318  1
  Ni  Ni50  1  0.83523160  0.49984463  0.83534089  1
  Fe  Fe51  1  0.83528173  0.83432686  0.49987001  1
  Cr  Cr52  1  0.66886575  0.66961546  0.66918621  1
  Ni  Ni53  1  0.83501748  0.83489932  0.83624539  1
" 