2851,Ni81Fe3Cr15_4,-232.558925086531, 157.158680466965,Ni81Fe3Cr15,"# generated using pymatgen
 data_Cr10FeNi43
_symmetry_space_group_name_H-M   'P 1'
_cell_length_a   7.47323939
_cell_length_b   7.47323939
_cell_length_c   10.56875650
_cell_angle_alpha   90.00000000
_cell_angle_beta   90.00000000
_cell_angle_gamma   90.00000000
_symmetry_Int_Tables_number   1
_chemical_formula_structural   Cr10FeNi43
_chemical_formula_sum   'Cr10 Fe1 Ni43'
_cell_volume   590.25772686
_cell_formula_units_Z   1
loop_
 _symmetry_equiv_pos_site_id
 _symmetry_equiv_pos_as_xyz
  1  'x, y, z'
loop_
 _atom_site_type_symbol
 _atom_site_label
 _atom_site_symmetry_multiplicity
 _atom_site_fract_x
 _atom_site_fract_y
 _atom_site_fract_z
 _atom_site_occupancy
  Ni  Ni0  1  -0.00029025  0.00007109  -0.00029759  1
  Ni  Ni1  1  0.16536884  0.16739016  0.16382438  1
  Ni  Ni2  1  0.99646851  0.99952086  0.33421831  1
  Ni  Ni3  1  0.00183465  0.33290762  0.00182649  1
  Ni  Ni4  1  0.16546451  0.49846738  0.16407548  1
  Cr  Cr5  1  0.99938636  0.33168162  0.33211469  1
  Ni  Ni6  1  -0.00028943  0.66577863  0.00017170  1
  Cr  Cr7  1  0.16511292  0.83344195  0.16488145  1
  Fe  Fe8  1  0.99715784  0.66791131  0.33302315  1
  Ni  Ni9  1  0.33340163  0.00055444  0.99907950  1
  Ni  Ni10  1  0.50150415  0.16698827  0.16507550  1
  Cr  Cr11  1  0.33386102  -0.00000293  0.33379257  1
  Ni  Ni12  1  0.33199109  0.33313843  -0.00009529  1
  Ni  Ni13  1  0.50167804  0.49913775  0.16485860  1
  Cr  Cr14  1  0.33267659  0.33257757  0.33231753  1
  Ni  Ni15  1  0.33363108  0.66506456  0.99885071  1
  Ni  Ni16  1  0.50296695  0.83263137  0.16499768  1
  Cr  Cr17  1  0.33370541  0.66618260  0.33296779  1
  Ni  Ni18  1  0.66564677  0.99843093  0.00099264  1
  Ni  Ni19  1  0.83188436  0.16610162  0.16609292  1
  Ni  Ni20  1  0.66869038  0.99881672  0.33321940  1
  Ni  Ni21  1  0.66493149  0.33313790  0.00181837  1
  Ni  Ni22  1  0.83161389  0.49992955  0.16579722  1
  Ni  Ni23  1  0.66722923  0.33172209  0.33150318  1
  Ni  Ni24  1  0.66541593  0.66718802  0.00076287  1
  Ni  Ni25  1  0.83121374  0.83272659  0.16668451  1
  Ni  Ni26  1  0.66758780  0.66821782  0.33109309  1
  Ni  Ni27  1  0.16619633  0.16414917  0.50107757  1
  Ni  Ni28  1  0.00029931  0.99723132  0.66483722  1
  Ni  Ni29  1  0.16899239  0.16517622  0.83385608  1
  Ni  Ni30  1  0.16629122  0.50130755  0.50117378  1
  Cr  Cr31  1  0.00194086  0.33211790  0.66549943  1
  Ni  Ni32  1  0.16899093  0.50078863  0.83350811  1
  Ni  Ni33  1  0.16434170  0.83330254  0.50137139  1
  Ni  Ni34  1  0.00136394  0.66920923  0.66519348  1
  Ni  Ni35  1  0.16629078  0.83279247  0.83241738  1
  Ni  Ni36  1  0.50110298  0.16480803  0.50123712  1
  Ni  Ni37  1  0.33301259  0.99952825  0.66563328  1
  Ni  Ni38  1  0.49767272  0.16658852  0.83244411  1
  Cr  Cr39  1  0.49994070  0.49893942  0.50144201  1
  Ni  Ni40  1  0.33341477  0.33254805  0.66652159  1
  Ni  Ni41  1  0.49784584  0.49954886  0.83264575  1
  Ni  Ni42  1  0.50075420  0.83484583  0.50090312  1
  Ni  Ni43  1  0.33218018  0.66668063  0.66668780  1
  Ni  Ni44  1  0.49913474  0.83262001  0.83285555  1
  Ni  Ni45  1  0.83145741  0.16285859  0.49915738  1
  Ni  Ni46  1  0.66544545  0.99846655  0.66454469  1
  Cr  Cr47  1  0.83208803  0.16434823  0.83352043  1
  Cr  Cr48  1  0.83222401  0.50067304  0.49972652  1
  Ni  Ni49  1  0.66291289  0.33148101  0.66543549  1
  Cr  Cr50  1  0.83168614  0.50153814  0.83332100  1
  Ni  Ni51  1  0.83366093  0.83494096  0.49945347  1
  Ni  Ni52  1  0.66521334  0.66880831  0.66690043  1
  Ni  Ni53  1  0.83333188  0.83261840  0.83261872  1
" 