3199,Ni81Fe6Cr11_16,-235.727457890189, 175.056908057245,Ni81Fe6Cr11,"# generated using pymatgen
 data_Cr7Fe3Ni44
_symmetry_space_group_name_H-M   'P 1'
_cell_length_a   7.45673003
_cell_length_b   7.45673003
_cell_length_c   10.54540873
_cell_angle_alpha   90.00000000
_cell_angle_beta   90.00000000
_cell_angle_gamma   90.00000000
_symmetry_Int_Tables_number   1
_chemical_formula_structural   Cr7Fe3Ni44
_chemical_formula_sum   'Cr7 Fe3 Ni44'
_cell_volume   586.35449181
_cell_formula_units_Z   1
loop_
 _symmetry_equiv_pos_site_id
 _symmetry_equiv_pos_as_xyz
  1  'x, y, z'
loop_
 _atom_site_type_symbol
 _atom_site_label
 _atom_site_symmetry_multiplicity
 _atom_site_fract_x
 _atom_site_fract_y
 _atom_site_fract_z
 _atom_site_occupancy
  Ni  Ni0  1  0.00178202  0.00075150  0.00132898  1
  Ni  Ni1  1  0.16626553  0.16749175  0.16713143  1
  Ni  Ni2  1  0.99914019  1.00001102  0.33335719  1
  Ni  Ni3  1  0.00269093  0.33284717  0.00161459  1
  Ni  Ni4  1  0.16895988  0.50062014  0.16772046  1
  Ni  Ni5  1  0.00267151  0.33326025  0.33361963  1
  Fe  Fe6  1  0.00183653  0.66870784  0.99992128  1
  Ni  Ni7  1  0.16733779  0.83397128  0.16763523  1
  Ni  Ni8  1  0.00242222  0.66875901  0.33509109  1
  Ni  Ni9  1  0.33261025  0.99887286  1.00018246  1
  Cr  Cr10  1  0.49946781  0.16672126  0.16598342  1
  Fe  Fe11  1  0.33399061  0.99866152  0.33387558  1
  Ni  Ni12  1  0.33246527  0.33554169  0.99898575  1
  Ni  Ni13  1  0.49809221  0.50308553  0.16645729  1
  Ni  Ni14  1  0.33235821  0.33713788  0.33468438  1
  Ni  Ni15  1  0.33458083  0.66759768  0.00127145  1
  Ni  Ni16  1  0.50083092  0.83236932  0.16758858  1
  Ni  Ni17  1  0.33409910  0.66703675  0.33363280  1
  Ni  Ni18  1  0.66775078  0.99849847  0.00076585  1
  Ni  Ni19  1  0.83650210  0.16479722  0.16680782  1
  Ni  Ni20  1  0.66925495  0.99818550  0.33480582  1
  Ni  Ni21  1  0.66696992  0.33498444  0.99974771  1
  Cr  Cr22  1  0.83441617  0.50244519  0.16618421  1
  Cr  Cr23  1  0.66808907  0.33334113  0.33536913  1
  Ni  Ni24  1  0.66472440  0.66865464  0.99976433  1
  Ni  Ni25  1  0.83388020  0.83526553  0.16732768  1
  Ni  Ni26  1  0.66555929  0.67028160  0.33514065  1
  Cr  Cr27  1  0.16872440  0.16575697  0.50017180  1
  Ni  Ni28  1  0.00099395  0.99800653  0.66738057  1
  Ni  Ni29  1  0.17016088  0.16621399  0.83504876  1
  Ni  Ni30  1  0.16694358  0.50257840  0.49856189  1
  Cr  Cr31  1  1.00012583  0.33565314  0.66667663  1
  Ni  Ni32  1  0.16703287  0.50100289  0.83592729  1
  Ni  Ni33  1  0.16634037  0.83303553  0.50008628  1
  Ni  Ni34  1  1.00016117  0.66885245  0.66771968  1
  Ni  Ni35  1  0.16656120  0.83492019  0.83461974  1
  Ni  Ni36  1  0.50135146  0.16639553  0.50231526  1
  Ni  Ni37  1  0.33485490  0.99984581  0.66810749  1
  Ni  Ni38  1  0.49877833  0.16707624  0.83347515  1
  Ni  Ni39  1  0.50085055  0.50085144  0.50043107  1
  Fe  Fe40  1  0.33600399  0.33395227  0.66811252  1
  Ni  Ni41  1  0.50191595  0.49992994  0.83508370  1
  Ni  Ni42  1  0.50155795  0.83483128  0.49942184  1
  Cr  Cr43  1  0.33394213  0.66805254  0.66750051  1
  Ni  Ni44  1  0.50159823  0.83500964  0.83513693  1
  Ni  Ni45  1  0.83270029  0.16534578  0.50004436  1
  Ni  Ni46  1  0.66632889  0.99993365  0.66646951  1
  Cr  Cr47  1  0.83284717  0.16606464  0.83510523  1
  Ni  Ni48  1  0.83420065  0.50323279  0.50091255  1
  Ni  Ni49  1  0.66571323  0.33481214  0.66653540  1
  Ni  Ni50  1  0.83322490  0.50345821  0.83460244  1
  Ni  Ni51  1  0.83414023  0.83346186  0.50121512  1
  Ni  Ni52  1  0.66766062  0.66725895  0.66702720  1
  Ni  Ni53  1  0.83389643  0.83192788  0.83367513  1
" 