2016,Ni81Fe13Cr4_18,-239.127130735349, 193.551287911467,Ni81Fe13Cr4,"# generated using pymatgen
 data_Cr4Fe7Ni43
_symmetry_space_group_name_H-M   'P 1'
_cell_length_a   7.44063307
_cell_length_b   7.44063307
_cell_length_c   10.52264419
_cell_angle_alpha   90.00000000
_cell_angle_beta   90.00000000
_cell_angle_gamma   90.00000000
_symmetry_Int_Tables_number   1
_chemical_formula_structural   Cr4Fe7Ni43
_chemical_formula_sum   'Cr4 Fe7 Ni43'
_cell_volume   582.56536530
_cell_formula_units_Z   1
loop_
 _symmetry_equiv_pos_site_id
 _symmetry_equiv_pos_as_xyz
  1  'x, y, z'
loop_
 _atom_site_type_symbol
 _atom_site_label
 _atom_site_symmetry_multiplicity
 _atom_site_fract_x
 _atom_site_fract_y
 _atom_site_fract_z
 _atom_site_occupancy
  Ni  Ni0  1  0.00254623  1.00130366  1.00060515  1
  Ni  Ni1  1  0.16843061  0.16888187  0.16687126  1
  Cr  Cr2  1  0.00274018  1.00141198  0.33591134  1
  Ni  Ni3  1  1.00092781  0.33412412  0.00196530  1
  Fe  Fe4  1  0.16937347  0.50125024  0.16875300  1
  Ni  Ni5  1  0.00196046  0.33697294  0.33600195  1
  Ni  Ni6  1  1.00077127  0.66989645  0.00252811  1
  Ni  Ni7  1  0.16924542  0.83439480  0.16762276  1
  Ni  Ni8  1  1.00168584  0.66705322  0.33544556  1
  Ni  Ni9  1  0.33464367  1.00171584  0.00194835  1
  Ni  Ni10  1  0.50217462  0.16866915  0.16864740  1
  Ni  Ni11  1  0.33680308  0.00177567  0.33498121  1
  Ni  Ni12  1  0.33626421  0.33371003  0.00212342  1
  Ni  Ni13  1  0.50195692  0.50177186  0.16818734  1
  Ni  Ni14  1  0.33550558  0.33466465  0.33568588  1
  Ni  Ni15  1  0.33600434  0.66989569  1.00133557  1
  Ni  Ni16  1  0.50108076  0.83488363  0.16864737  1
  Ni  Ni17  1  0.33530574  0.66888279  0.33647776  1
  Ni  Ni18  1  0.66813326  1.00156167  1.00096794  1
  Ni  Ni19  1  0.83471747  0.16975654  0.16804807  1
  Ni  Ni20  1  0.66602715  1.00150198  0.33612134  1
  Ni  Ni21  1  0.66813470  0.33548510  1.00114925  1
  Fe  Fe22  1  0.83472860  0.50121344  0.16849544  1
  Ni  Ni23  1  0.66785881  0.33547267  0.33548010  1
  Ni  Ni24  1  0.66854811  0.66828012  1.00111027  1
  Fe  Fe25  1  0.83370517  0.83525131  0.16758676  1
  Ni  Ni26  1  0.66833269  0.66835410  0.33552047  1
  Ni  Ni27  1  0.16833684  0.17035534  0.50223467  1
  Ni  Ni28  1  1.00134498  0.00290938  0.66882527  1
  Fe  Fe29  1  0.16746481  0.16753647  0.83585134  1
  Ni  Ni30  1  0.16856218  0.50067323  0.50006083  1
  Ni  Ni31  1  1.00081236  0.33258118  0.66734973  1
  Cr  Cr32  1  0.16920614  0.50143937  0.83598824  1
  Ni  Ni33  1  0.16856469  0.83429057  0.50088122  1
  Cr  Cr34  1  0.99998135  0.66981513  0.66738420  1
  Ni  Ni35  1  0.16794280  0.83633235  0.83682531  1
  Ni  Ni36  1  0.50213444  0.16938610  0.49988651  1
  Cr  Cr37  1  0.33414827  0.00201242  0.66849268  1
  Ni  Ni38  1  0.50350936  0.16946125  0.83679544  1
  Ni  Ni39  1  0.50176129  0.50149949  0.50249045  1
  Ni  Ni40  1  0.33655794  0.33490803  0.66750721  1
  Ni  Ni41  1  0.50334715  0.50149731  0.83464798  1
  Ni  Ni42  1  0.50273285  0.83443797  0.50063341  1
  Fe  Fe43  1  0.33732352  0.66705818  0.66757642  1
  Ni  Ni44  1  0.50247813  0.83436410  0.83604753  1
  Fe  Fe45  1  0.83455390  0.16953852  0.50251706  1
  Fe  Fe46  1  0.67024889  0.00234310  0.66867558  1
  Ni  Ni47  1  0.83492122  0.16837798  0.83438481  1
  Ni  Ni48  1  0.83500182  0.50127193  0.50072475  1
  Ni  Ni49  1  0.66795919  0.33653150  0.66869568  1
  Ni  Ni50  1  0.83295777  0.50046071  0.83642673  1
  Ni  Ni51  1  0.83403164  0.83466927  0.50154228  1
  Ni  Ni52  1  0.66745544  0.66747669  0.66869863  1
  Ni  Ni53  1  0.83490592  0.83648799  0.83648874  1
" 