4549,Ni81Fe6Cr11_1,-235.692731425779, 175.941678934278,Ni81Fe6Cr11,"# generated using pymatgen
 data_Cr7Fe3Ni44
_symmetry_space_group_name_H-M   'P 1'
_cell_length_a   7.45624957
_cell_length_b   7.45624957
_cell_length_c   10.54472927
_cell_angle_alpha   90.00000000
_cell_angle_beta   90.00000000
_cell_angle_gamma   90.00000000
_symmetry_Int_Tables_number   1
_chemical_formula_structural   Cr7Fe3Ni44
_chemical_formula_sum   'Cr7 Fe3 Ni44'
_cell_volume   586.24115861
_cell_formula_units_Z   1
loop_
 _symmetry_equiv_pos_site_id
 _symmetry_equiv_pos_as_xyz
  1  'x, y, z'
loop_
 _atom_site_type_symbol
 _atom_site_label
 _atom_site_symmetry_multiplicity
 _atom_site_fract_x
 _atom_site_fract_y
 _atom_site_fract_z
 _atom_site_occupancy
  Fe  Fe0  1  1.00057355  0.00115534  1.00066203  1
  Ni  Ni1  1  0.16850383  0.16672538  0.16828127  1
  Ni  Ni2  1  0.00163959  0.00170690  0.33419452  1
  Cr  Cr3  1  0.99983625  0.33405473  0.00136222  1
  Ni  Ni4  1  0.16700029  0.50127847  0.16761727  1
  Ni  Ni5  1  0.00216221  0.33391414  0.33419382  1
  Ni  Ni6  1  1.00055288  0.66670936  1.00036366  1
  Ni  Ni7  1  0.16862943  0.83410143  0.16763441  1
  Ni  Ni8  1  0.00185265  0.66659454  0.33529769  1
  Ni  Ni9  1  0.33590842  0.00125560  0.00179602  1
  Ni  Ni10  1  0.49945835  0.16537512  0.16636701  1
  Ni  Ni11  1  0.33329227  0.00139904  0.33314856  1
  Ni  Ni12  1  0.33440274  0.33221561  0.99934876  1
  Cr  Cr13  1  0.50042349  0.50135966  0.16686121  1
  Ni  Ni14  1  0.33128079  0.33260518  0.33520069  1
  Ni  Ni15  1  0.33391664  0.66852189  0.00084909  1
  Ni  Ni16  1  0.49917084  0.83552660  0.16697330  1
  Ni  Ni17  1  0.33176853  0.66815369  0.33370413  1
  Ni  Ni18  1  0.66550636  0.00170751  0.99916975  1
  Ni  Ni19  1  0.83425726  0.16701694  0.16709878  1
  Ni  Ni20  1  0.66726040  0.00111767  0.33463513  1
  Ni  Ni21  1  0.66742571  0.33239394  1.00007715  1
  Ni  Ni22  1  0.83579364  0.50109216  0.16755142  1
  Cr  Cr23  1  0.66937882  0.33237906  0.33399470  1
  Ni  Ni24  1  0.66776968  0.66805612  0.99892849  1
  Cr  Cr25  1  0.83383046  0.83366989  0.16728102  1
  Ni  Ni26  1  0.66857223  0.66856410  0.33499112  1
  Ni  Ni27  1  0.16713642  0.16740242  0.50083767  1
  Ni  Ni28  1  1.00045812  0.00158743  0.66715648  1
  Ni  Ni29  1  0.16838192  0.16771153  0.83304249  1
  Ni  Ni30  1  0.16641948  0.49923046  0.50064701  1
  Ni  Ni31  1  0.99981031  0.33346275  0.66706418  1
  Fe  Fe32  1  0.16716846  0.49887693  0.83379246  1
  Ni  Ni33  1  0.16442723  0.83550880  0.49934547  1
  Ni  Ni34  1  0.99757500  0.66703792  0.66639830  1
  Cr  Cr35  1  0.16604854  0.83608917  0.83496733  1
  Ni  Ni36  1  0.49937371  0.16894444  0.50181637  1
  Ni  Ni37  1  0.33355878  0.00364931  0.66723577  1
  Ni  Ni38  1  0.50012778  0.16840447  0.83398498  1
  Ni  Ni39  1  0.50082765  0.49877795  0.50079967  1
  Ni  Ni40  1  0.33439066  0.33160865  0.66767154  1
  Ni  Ni41  1  0.50249621  0.49934006  0.83500614  1
  Cr  Cr42  1  0.50158068  0.83489218  0.49953565  1
  Cr  Cr43  1  0.33437032  0.66689388  0.66748709  1
  Ni  Ni44  1  0.50268955  0.83443607  0.83548330  1
  Ni  Ni45  1  0.83564759  0.16679989  0.50157648  1
  Fe  Fe46  1  0.66831568  0.00187864  0.66830940  1
  Ni  Ni47  1  0.83376424  0.16727662  0.83341259  1
  Ni  Ni48  1  0.83484935  0.50140554  0.50117245  1
  Ni  Ni49  1  0.66792345  0.33438180  0.66780856  1
  Ni  Ni50  1  0.83219818  0.50131310  0.83353153  1
  Ni  Ni51  1  0.83637945  0.83400259  0.50147897  1
  Ni  Ni52  1  0.66995121  0.66609373  0.66842466  1
  Ni  Ni53  1  0.83306373  0.83344463  0.83353125  1
" 