5537,Ni81Cr19_2,-206.977755070143, 160.120545293328,Ni81Cr19,"# generated using pymatgen
 data_Cr43Ni11
_symmetry_space_group_name_H-M   'P 1'
_cell_length_a   7.58366282
_cell_length_b   7.58366282
_cell_length_c   10.72491881
_cell_angle_alpha   90.00000000
_cell_angle_beta   90.00000000
_cell_angle_gamma   90.00000000
_symmetry_Int_Tables_number   1
_chemical_formula_structural   Cr43Ni11
_chemical_formula_sum   'Cr43 Ni11'
_cell_volume   616.81090577
_cell_formula_units_Z   1
loop_
 _symmetry_equiv_pos_site_id
 _symmetry_equiv_pos_as_xyz
  1  'x, y, z'
loop_
 _atom_site_type_symbol
 _atom_site_label
 _atom_site_symmetry_multiplicity
 _atom_site_fract_x
 _atom_site_fract_y
 _atom_site_fract_z
 _atom_site_occupancy
  Cr  Cr0  1  -0.00692999  0.99117622  -0.00757472  1
  Cr  Cr1  1  0.15841301  0.15922413  0.15966320  1
  Ni  Ni2  1  0.99008913  -0.00600429  0.32591597  1
  Cr  Cr3  1  -0.00698135  0.32636095  -0.00717759  1
  Cr  Cr4  1  0.15954992  0.49206656  0.15738788  1
  Ni  Ni5  1  0.99082560  0.32270595  0.32646564  1
  Cr  Cr6  1  -0.00583829  0.65939808  -0.00757600  1
  Ni  Ni7  1  0.15897925  0.82564207  0.15846563  1
  Cr  Cr8  1  0.99194269  0.65934745  0.32416363  1
  Cr  Cr9  1  0.32541372  0.99174495  -0.00700202  1
  Cr  Cr10  1  0.49192789  0.15860331  0.15760701  1
  Cr  Cr11  1  0.32508052  0.99140548  0.32473674  1
  Ni  Ni12  1  0.32580119  0.32780173  0.99195954  1
  Cr  Cr13  1  0.49136246  0.49325851  0.15777525  1
  Cr  Cr14  1  0.32512905  0.32616665  0.32662900  1
  Ni  Ni15  1  0.32469724  0.65780771  -0.00705705  1
  Cr  Cr16  1  0.49255423  0.82507294  0.15966697  1
  Cr  Cr17  1  0.32672624  0.65935922  0.32640779  1
  Cr  Cr18  1  0.65845028  -0.00711658  0.99224744  1
  Cr  Cr19  1  0.82659059  0.15802987  0.16164152  1
  Ni  Ni20  1  0.66218328  0.99141186  0.32640388  1
  Cr  Cr21  1  0.65792921  0.32522384  0.99124116  1
  Cr  Cr22  1  0.82602316  0.49269222  0.15989272  1
  Cr  Cr23  1  0.66047893  0.32560779  0.32761592  1
  Cr  Cr24  1  0.65850139  0.65882712  0.99224799  1
  Cr  Cr25  1  0.82540484  0.82621223  0.16125359  1
  Ni  Ni26  1  0.65843926  0.66004692  0.32653217  1
  Cr  Cr27  1  0.15550269  0.15856612  0.49185852  1
  Ni  Ni28  1  0.99130944  -0.00668728  0.65813744  1
  Cr  Cr29  1  0.15920798  0.15921610  0.82541195  1
  Cr  Cr30  1  0.15994494  0.49112606  0.49185439  1
  Cr  Cr31  1  0.98981179  0.32395753  0.65824789  1
  Cr  Cr32  1  0.16034740  0.49207280  0.82769339  1
  Cr  Cr33  1  0.15771405  0.82724167  0.49329656  1
  Cr  Cr34  1  -0.00739382  0.66040753  0.66034656  1
  Cr  Cr35  1  0.15864029  0.82564731  0.82487959  1
  Cr  Cr36  1  0.49445936  0.16020818  0.49276336  1
  Cr  Cr37  1  0.32421519  0.99201622  0.65919797  1
  Cr  Cr38  1  0.49207170  0.16034627  0.82656293  1
  Ni  Ni39  1  0.49420230  0.49219792  0.49272359  1
  Cr  Cr40  1  0.32810427  0.32616586  0.65787155  1
  Cr  Cr41  1  0.49151111  0.49151823  0.82639216  1
  Cr  Cr42  1  0.49395887  0.82387784  0.49071774  1
  Cr  Cr43  1  0.32587301  0.65875043  0.65752621  1
  Cr  Cr44  1  0.49208507  0.82506996  0.82655445  1
  Ni  Ni45  1  0.82641365  0.15836472  0.49168968  1
  Cr  Cr46  1  0.66066439  -0.00519184  0.65939591  1
  Cr  Cr47  1  0.82565294  0.15863596  0.82366278  1
  Cr  Cr48  1  0.82361973  0.49063133  0.49162378  1
  Ni  Ni49  1  0.65914983  0.32547211  0.65752808  1
  Cr  Cr50  1  0.82507710  0.49208270  0.82541970  1
  Cr  Cr51  1  0.82526383  0.82831456  0.49107058  1
  Cr  Cr52  1  0.65845741  0.65651905  0.65824368  1
  Cr  Cr53  1  0.82620869  0.82621642  0.82461296  1
" 