7720,Ni81Fe12Cr5_13,-238.642052264285, 186.493017041856,Ni81Fe12Cr5,"# generated using pymatgen
 data_Cr2Fe3Ni22
_symmetry_space_group_name_H-M   'P 1'
_cell_length_a   7.44285204
_cell_length_b   7.44285204
_cell_length_c   10.52578230
_cell_angle_alpha   90.00000000
_cell_angle_beta   90.00000000
_cell_angle_gamma   90.00000000
_symmetry_Int_Tables_number   1
_chemical_formula_structural   Cr2Fe3Ni22
_chemical_formula_sum   'Cr4 Fe6 Ni44'
_cell_volume   583.08672534
_cell_formula_units_Z   2
loop_
 _symmetry_equiv_pos_site_id
 _symmetry_equiv_pos_as_xyz
  1  'x, y, z'
loop_
 _atom_site_type_symbol
 _atom_site_label
 _atom_site_symmetry_multiplicity
 _atom_site_fract_x
 _atom_site_fract_y
 _atom_site_fract_z
 _atom_site_occupancy
  Ni  Ni0  1  0.00171856  1.00117638  1.00133030  1
  Fe  Fe1  1  0.16843299  0.16780430  0.16886112  1
  Ni  Ni2  1  0.00278059  1.00126503  0.33578340  1
  Fe  Fe3  1  1.00136374  0.33449959  0.00171649  1
  Ni  Ni4  1  0.16849636  0.50216402  0.16771028  1
  Ni  Ni5  1  0.00201347  0.33428216  0.33403162  1
  Fe  Fe6  1  0.00178199  0.66917521  0.00186622  1
  Ni  Ni7  1  0.16840297  0.83448379  0.16881622  1
  Ni  Ni8  1  1.00091917  0.66925514  0.33342715  1
  Ni  Ni9  1  0.33411284  1.00139071  0.00163659  1
  Ni  Ni10  1  0.50016255  0.16829571  0.16607056  1
  Ni  Ni11  1  0.33334772  1.00143073  0.33484607  1
  Ni  Ni12  1  0.33552462  0.33562431  1.00154530  1
  Ni  Ni13  1  0.50036130  0.50216090  0.16786588  1
  Ni  Ni14  1  0.33433251  0.33448403  0.33416133  1
  Ni  Ni15  1  0.33482860  0.66786038  1.00140235  1
  Ni  Ni16  1  0.50013894  0.83438619  0.16684560  1
  Ni  Ni17  1  0.33552934  0.66893787  0.33408639  1
  Ni  Ni18  1  0.66896745  0.00181953  1.00147318  1
  Ni  Ni19  1  0.83639948  0.16828766  0.16649871  1
  Cr  Cr20  1  0.66814705  1.00078615  0.33407779  1
  Ni  Ni21  1  0.66798460  0.33538116  0.00182426  1
  Ni  Ni22  1  0.83611421  0.50194176  0.16773703  1
  Cr  Cr23  1  0.66760103  0.33572055  0.33479494  1
  Ni  Ni24  1  0.66811131  0.66768423  1.00129813  1
  Ni  Ni25  1  0.83635505  0.83464494  0.16716372  1
  Ni  Ni26  1  0.66841238  0.66815805  0.33543661  1
  Ni  Ni27  1  0.16826264  0.16699222  0.50172070  1
  Ni  Ni28  1  1.00136433  0.00235995  0.66774114  1
  Fe  Fe29  1  0.16876466  0.16717046  0.83407730  1
  Cr  Cr30  1  0.16898304  0.50103375  0.50067092  1
  Ni  Ni31  1  1.00036289  0.33328590  0.66940714  1
  Fe  Fe32  1  0.16966511  0.50100458  0.83566085  1
  Ni  Ni33  1  0.16925613  0.83711176  0.50059129  1
  Cr  Cr34  1  0.00182040  0.66982435  0.66948047  1
  Ni  Ni35  1  0.16922612  0.83601501  0.83555760  1
  Ni  Ni36  1  0.49963050  0.16820301  0.50347169  1
  Ni  Ni37  1  0.33492878  1.00109108  0.66835088  1
  Ni  Ni38  1  0.50208391  0.16853003  0.83527314  1
  Ni  Ni39  1  0.50181675  0.50222816  0.50247609  1
  Ni  Ni40  1  0.33625256  0.33464163  0.66898434  1
  Ni  Ni41  1  0.50174754  0.50087516  0.83478169  1
  Ni  Ni42  1  0.50015966  0.83448018  0.50276329  1
  Ni  Ni43  1  0.33635316  0.66903878  0.66928828  1
  Ni  Ni44  1  0.50064311  0.83547995  0.83539937  1
  Ni  Ni45  1  0.83687084  0.16846936  0.50359468  1
  Ni  Ni46  1  0.66857647  0.00242311  0.66909364  1
  Ni  Ni47  1  0.83466791  0.16855899  0.83483931  1
  Ni  Ni48  1  0.83413190  0.50112900  0.50148158  1
  Ni  Ni49  1  0.66829407  0.33461055  0.66818515  1
  Ni  Ni50  1  0.83400564  0.49984397  0.83597553  1
  Ni  Ni51  1  0.83532420  0.83534715  0.50167633  1
  Fe  Fe52  1  0.66720149  0.66854330  0.66881633  1
  Ni  Ni53  1  0.83503820  0.83638098  0.83610691  1
" 