4487,Ni81Fe13Cr4_10,-238.804273939518, 190.244681442734,Ni81Fe13Cr4,"# generated using pymatgen
 data_Cr4Fe7Ni43
_symmetry_space_group_name_H-M   'P 1'
_cell_length_a   7.44170612
_cell_length_b   7.44170612
_cell_length_c   10.52416172
_cell_angle_alpha   90.00000000
_cell_angle_beta   90.00000000
_cell_angle_gamma   90.00000000
_symmetry_Int_Tables_number   1
_chemical_formula_structural   Cr4Fe7Ni43
_chemical_formula_sum   'Cr4 Fe7 Ni43'
_cell_volume   582.81744688
_cell_formula_units_Z   1
loop_
 _symmetry_equiv_pos_site_id
 _symmetry_equiv_pos_as_xyz
  1  'x, y, z'
loop_
 _atom_site_type_symbol
 _atom_site_label
 _atom_site_symmetry_multiplicity
 _atom_site_fract_x
 _atom_site_fract_y
 _atom_site_fract_z
 _atom_site_occupancy
  Ni  Ni0  1  0.00237954  0.00189483  0.00195022  1
  Ni  Ni1  1  0.16819913  0.16889604  0.16753721  1
  Ni  Ni2  1  0.00219314  1.00141119  0.33444425  1
  Ni  Ni3  1  0.99999665  0.33387025  0.00244604  1
  Ni  Ni4  1  0.16766538  0.50146063  0.16891162  1
  Ni  Ni5  1  0.00353211  0.33472344  0.33547851  1
  Ni  Ni6  1  1.00157655  0.66934231  0.00229104  1
  Ni  Ni7  1  0.16665984  0.83474961  0.16823767  1
  Ni  Ni8  1  0.00232894  0.66897107  0.33522030  1
  Ni  Ni9  1  0.33403136  1.00163728  1.00021006  1
  Ni  Ni10  1  0.50114882  0.16895811  0.16741135  1
  Ni  Ni11  1  0.33403893  0.00207681  0.33649891  1
  Fe  Fe12  1  0.33606111  0.33415460  0.00310699  1
  Ni  Ni13  1  0.50094821  0.50067026  0.16673179  1
  Ni  Ni14  1  0.33378674  0.33513926  0.33474533  1
  Ni  Ni15  1  0.33525535  0.66918366  0.00186508  1
  Cr  Cr16  1  0.50205462  0.83576802  0.16939385  1
  Ni  Ni17  1  0.33431801  0.66789122  0.33595795  1
  Ni  Ni18  1  0.66869770  0.00320772  1.00086442  1
  Ni  Ni19  1  0.83575988  0.16794596  0.16783708  1
  Ni  Ni20  1  0.66888047  1.00087894  0.33598721  1
  Ni  Ni21  1  0.66853283  0.33509232  1.00150838  1
  Ni  Ni22  1  0.83649480  0.50221184  0.16716036  1
  Cr  Cr23  1  0.66821504  0.33511866  0.33468142  1
  Ni  Ni24  1  0.66828001  0.66680685  1.00062340  1
  Ni  Ni25  1  0.83655090  0.83494918  0.16764006  1
  Ni  Ni26  1  0.66846167  0.66922735  0.33602449  1
  Ni  Ni27  1  0.16920741  0.16894992  0.50265873  1
  Ni  Ni28  1  0.00209713  0.00200424  0.66871166  1
  Fe  Fe29  1  0.16786967  0.16653928  0.83485645  1
  Ni  Ni30  1  0.16687010  0.50050836  0.50057860  1
  Ni  Ni31  1  1.00050907  0.33337290  0.66718413  1
  Cr  Cr32  1  0.16584400  0.50166229  0.83559446  1
  Ni  Ni33  1  0.16753276  0.83565149  0.50090000  1
  Ni  Ni34  1  0.99943247  0.66972918  0.66759857  1
  Ni  Ni35  1  0.16851391  0.83661015  0.83596668  1
  Ni  Ni36  1  0.50022583  0.16727916  0.50252881  1
  Fe  Fe37  1  0.33475801  0.00328127  0.66829749  1
  Ni  Ni38  1  0.50268614  0.16703647  0.83516954  1
  Ni  Ni39  1  0.50188810  0.50150971  0.50250231  1
  Ni  Ni40  1  0.33653540  0.33272539  0.66761370  1
  Fe  Fe41  1  0.50462284  0.50112282  0.83564233  1
  Ni  Ni42  1  0.50289577  0.83631674  0.50077752  1
  Cr  Cr43  1  0.33602777  0.66911796  0.66683265  1
  Ni  Ni44  1  0.50184777  0.83707193  0.83564156  1
  Fe  Fe45  1  0.83623724  0.16761424  0.50250206  1
  Fe  Fe46  1  0.66861524  0.00211411  0.66840159  1
  Ni  Ni47  1  0.83389484  0.16935466  0.83473798  1
  Ni  Ni48  1  0.83635479  0.50317837  0.50308398  1
  Ni  Ni49  1  0.66806578  0.33539042  0.66862780  1
  Ni  Ni50  1  0.83435428  0.50101230  0.83486496  1
  Ni  Ni51  1  0.83467937  0.83398359  0.50225341  1
  Ni  Ni52  1  0.66939942  0.66745437  0.66846375  1
  Fe  Fe53  1  0.83493113  0.83511525  0.83518833  1
" 