8123,Ni81Fe3Cr15_0,-232.76122449721, 162.349414135116,Ni81Fe3Cr15,"# generated using pymatgen
 data_Cr10FeNi43
_symmetry_space_group_name_H-M   'P 1'
_cell_length_a   7.47116755
_cell_length_b   7.47116755
_cell_length_c   10.56582648
_cell_angle_alpha   90.00000000
_cell_angle_beta   90.00000000
_cell_angle_gamma   90.00000000
_symmetry_Int_Tables_number   1
_chemical_formula_structural   Cr10FeNi43
_chemical_formula_sum   'Cr10 Fe1 Ni43'
_cell_volume   589.76694325
_cell_formula_units_Z   1
loop_
 _symmetry_equiv_pos_site_id
 _symmetry_equiv_pos_as_xyz
  1  'x, y, z'
loop_
 _atom_site_type_symbol
 _atom_site_label
 _atom_site_symmetry_multiplicity
 _atom_site_fract_x
 _atom_site_fract_y
 _atom_site_fract_z
 _atom_site_occupancy
  Ni  Ni0  1  0.00143029  0.99921598  0.00023147  1
  Ni  Ni1  1  0.16628421  0.16465376  0.16688664  1
  Ni  Ni2  1  0.00066297  0.00196698  0.33200383  1
  Ni  Ni3  1  0.99955723  0.33228591  0.99746704  1
  Cr  Cr4  1  0.16903087  0.49843955  0.16537324  1
  Ni  Ni5  1  0.00033105  0.32887470  0.33488899  1
  Ni  Ni6  1  0.99955746  0.66767011  0.99758938  1
  Ni  Ni7  1  0.16721260  0.83583923  0.16571410  1
  Cr  Cr8  1  0.99965137  0.66811099  0.33329471  1
  Ni  Ni9  1  0.33099360  -0.00017643  0.99949572  1
  Ni  Ni10  1  0.49801342  0.16634991  0.16627078  1
  Ni  Ni11  1  0.33258438  0.99957774  0.33341581  1
  Ni  Ni12  1  0.33311447  0.33192478  0.00016520  1
  Ni  Ni13  1  0.49892975  0.50089368  0.16599037  1
  Ni  Ni14  1  0.33315524  0.33150901  0.33286299  1
  Ni  Ni15  1  0.33250664  0.66742492  0.99955858  1
  Ni  Ni16  1  0.49930032  0.83193017  0.16780455  1
  Ni  Ni17  1  0.33632032  0.66808670  0.33371643  1
  Cr  Cr18  1  0.66618138  0.00025268  0.99955955  1
  Ni  Ni19  1  0.83487510  0.16428226  0.16688463  1
  Ni  Ni20  1  0.66592542  0.99880408  0.33263507  1
  Ni  Ni21  1  0.66650143  0.33380108  0.99959058  1
  Cr  Cr22  1  0.83146504  0.49994648  0.16466880  1
  Cr  Cr23  1  0.66540060  0.33250267  0.33376503  1
  Ni  Ni24  1  0.66710822  0.66554999  0.00013074  1
  Ni  Ni25  1  0.83266027  0.83492566  0.16648879  1
  Ni  Ni26  1  0.66329384  0.66775478  0.33314354  1
  Ni  Ni27  1  0.16615295  0.16519866  0.49911690  1
  Ni  Ni28  1  0.00066351  0.00170977  0.66693719  1
  Ni  Ni29  1  0.16598617  0.16638196  0.83316973  1
  Cr  Cr30  1  0.16826721  0.49819773  0.49952494  1
  Fe  Fe31  1  0.99903975  0.33007119  0.66719605  1
  Ni  Ni32  1  0.16521353  0.49928822  0.83396363  1
  Ni  Ni33  1  0.16997159  0.83600195  0.49971209  1
  Cr  Cr34  1  0.00145190  0.66683311  0.66832280  1
  Ni  Ni35  1  0.16680961  0.83350162  0.83374681  1
  Ni  Ni36  1  0.49911561  0.16589795  0.50093027  1
  Ni  Ni37  1  0.33282909  0.00023729  0.66626163  1
  Ni  Ni38  1  0.49911653  0.16552315  0.83197012  1
  Ni  Ni39  1  0.49971129  0.50008351  0.49906876  1
  Ni  Ni40  1  0.33398824  0.33105985  0.66614500  1
  Cr  Cr41  1  0.49867727  0.49911685  0.83454118  1
  Ni  Ni42  1  0.49740811  0.83319175  0.49873967  1
  Ni  Ni43  1  0.33246826  0.66787719  0.66589803  1
  Ni  Ni44  1  0.49819293  0.83446129  0.83262835  1
  Ni  Ni45  1  0.83390544  0.16750339  0.50046760  1
  Ni  Ni46  1  0.66568007  0.00322951  0.66704155  1
  Ni  Ni47  1  0.83407027  0.16711791  0.83182129  1
  Ni  Ni48  1  0.83109300  0.49626203  0.49975409  1
  Ni  Ni49  1  0.66673579  0.33027948  0.66536629  1
  Ni  Ni50  1  0.83502942  0.49836301  0.83474448  1
  Cr  Cr51  1  0.83178353  0.83575541  0.49819069  1
  Cr  Cr52  1  0.66553251  0.66587981  0.66592799  1
  Ni  Ni53  1  0.83416986  0.83368997  0.83432725  1
" 