5556,Ni81Fe13Cr4_12,-239.239544295484, 191.012956639533,Ni81Fe13Cr4,"# generated using pymatgen
 data_Cr4Fe7Ni43
_symmetry_space_group_name_H-M   'P 1'
_cell_length_a   7.44134071
_cell_length_b   7.44134071
_cell_length_c   10.52364496
_cell_angle_alpha   90.00000000
_cell_angle_beta   90.00000000
_cell_angle_gamma   90.00000000
_symmetry_Int_Tables_number   1
_chemical_formula_structural   Cr4Fe7Ni43
_chemical_formula_sum   'Cr4 Fe7 Ni43'
_cell_volume   582.73159702
_cell_formula_units_Z   1
loop_
 _symmetry_equiv_pos_site_id
 _symmetry_equiv_pos_as_xyz
  1  'x, y, z'
loop_
 _atom_site_type_symbol
 _atom_site_label
 _atom_site_symmetry_multiplicity
 _atom_site_fract_x
 _atom_site_fract_y
 _atom_site_fract_z
 _atom_site_occupancy
  Ni  Ni0  1  0.00175572  0.99918549  1.00157600  1
  Ni  Ni1  1  0.16947469  0.16728488  0.16885460  1
  Ni  Ni2  1  0.00238285  0.99994776  0.33397080  1
  Fe  Fe3  1  0.00176945  0.33217888  0.00403716  1
  Ni  Ni4  1  0.16912166  0.50300243  0.16697591  1
  Ni  Ni5  1  0.00297871  0.33685924  0.33212863  1
  Ni  Ni6  1  0.00243413  0.66942152  0.00238718  1
  Ni  Ni7  1  0.16796506  0.83463546  0.16863318  1
  Ni  Ni8  1  0.00177436  0.66837087  0.33555447  1
  Ni  Ni9  1  0.33552891  0.00274996  0.00246313  1
  Ni  Ni10  1  0.50145735  0.16927548  0.16862389  1
  Ni  Ni11  1  0.33440378  1.00060447  0.33352159  1
  Ni  Ni12  1  0.33633027  0.33534523  1.00131416  1
  Ni  Ni13  1  0.50111912  0.50048660  0.16849493  1
  Ni  Ni14  1  0.33425178  0.33658810  0.33442451  1
  Fe  Fe15  1  0.33574855  0.66976939  0.00189246  1
  Fe  Fe16  1  0.50171699  0.83543083  0.16862500  1
  Ni  Ni17  1  0.33496303  0.66791354  0.33388169  1
  Ni  Ni18  1  0.66825592  0.00221187  1.00152153  1
  Ni  Ni19  1  0.83429630  0.16763688  0.16794442  1
  Ni  Ni20  1  0.66854324  0.99924820  0.33240080  1
  Ni  Ni21  1  0.66613231  0.33446391  0.00256905  1
  Ni  Ni22  1  0.83491828  0.50236586  0.16851619  1
  Ni  Ni23  1  0.66791090  0.33730167  0.33318054  1
  Fe  Fe24  1  0.66720665  0.67026681  0.00236548  1
  Ni  Ni25  1  0.83718537  0.83490527  0.16811557  1
  Ni  Ni26  1  0.66859435  0.66849979  0.33476334  1
  Fe  Fe27  1  0.16873587  0.16754287  0.49989590  1
  Ni  Ni28  1  0.00285830  0.99935356  0.66988826  1
  Fe  Fe29  1  0.16995755  0.16586218  0.83689912  1
  Ni  Ni30  1  0.16987209  0.50433303  0.50132077  1
  Cr  Cr31  1  0.00376654  0.33512462  0.66912140  1
  Fe  Fe32  1  0.17019134  0.50419305  0.83623910  1
  Ni  Ni33  1  0.16896545  0.83428620  0.50165908  1
  Ni  Ni34  1  0.00257141  0.67043041  0.66718636  1
  Ni  Ni35  1  0.16853076  0.83459306  0.83504033  1
  Cr  Cr36  1  0.50098766  0.16812820  0.50156637  1
  Ni  Ni37  1  0.33428334  1.00091943  0.66940890  1
  Ni  Ni38  1  0.50182188  0.16882814  0.83463794  1
  Ni  Ni39  1  0.50075895  0.50295475  0.50237279  1
  Ni  Ni40  1  0.33573333  0.33590234  0.66944964  1
  Ni  Ni41  1  0.49981978  0.50108198  0.83432453  1
  Ni  Ni42  1  0.50023250  0.83386519  0.50146209  1
  Ni  Ni43  1  0.33521815  0.66846160  0.66941896  1
  Ni  Ni44  1  0.50002546  0.83571772  0.83552029  1
  Cr  Cr45  1  0.83390915  0.16702111  0.50022397  1
  Ni  Ni46  1  0.66808592  0.99928376  0.67119105  1
  Ni  Ni47  1  0.83351509  0.16651076  0.83653655  1
  Ni  Ni48  1  0.83475737  0.50352794  0.50045762  1
  Ni  Ni49  1  0.66659765  0.33624905  0.66935561  1
  Cr  Cr50  1  0.83376514  0.50302325  0.83622868  1
  Ni  Ni51  1  0.83600803  0.83400678  0.50282953  1
  Ni  Ni52  1  0.66738224  0.66970988  0.66803863  1
  Ni  Ni53  1  0.83670366  0.83641312  0.83426469  1
" 