7944,Ni81Fe3Cr15_16,-232.835860671505, 163.342880054644,Ni81Fe3Cr15,"# generated using pymatgen
 data_Cr10FeNi43
_symmetry_space_group_name_H-M   'P 1'
_cell_length_a   7.47083009
_cell_length_b   7.47083009
_cell_length_c   10.56534924
_cell_angle_alpha   90.00000000
_cell_angle_beta   90.00000000
_cell_angle_gamma   90.00000000
_symmetry_Int_Tables_number   1
_chemical_formula_structural   Cr10FeNi43
_chemical_formula_sum   'Cr10 Fe1 Ni43'
_cell_volume   589.68703085
_cell_formula_units_Z   1
loop_
 _symmetry_equiv_pos_site_id
 _symmetry_equiv_pos_as_xyz
  1  'x, y, z'
loop_
 _atom_site_type_symbol
 _atom_site_label
 _atom_site_symmetry_multiplicity
 _atom_site_fract_x
 _atom_site_fract_y
 _atom_site_fract_z
 _atom_site_occupancy
  Cr  Cr0  1  0.99917159  0.00046348  0.00086393  1
  Ni  Ni1  1  0.16719676  0.16370167  0.16709554  1
  Ni  Ni2  1  0.00091178  0.99861003  0.33280578  1
  Ni  Ni3  1  0.99728779  0.33420335  0.99806706  1
  Cr  Cr4  1  0.16657351  0.50098316  0.16510138  1
  Cr  Cr5  1  0.99852077  0.33257672  0.33363539  1
  Ni  Ni6  1  0.99775022  0.66462669  -0.00020525  1
  Ni  Ni7  1  0.16751842  0.83409086  0.16760536  1
  Ni  Ni8  1  0.99969682  0.66832990  0.33287967  1
  Ni  Ni9  1  0.33559246  0.99873643  0.00080059  1
  Ni  Ni10  1  0.50086023  0.16539160  0.16674910  1
  Ni  Ni11  1  0.33217893  0.00054584  0.33165098  1
  Cr  Cr12  1  0.33295624  0.33082884  -0.00002820  1
  Ni  Ni13  1  0.50227817  0.50064687  0.16789705  1
  Ni  Ni14  1  0.33579679  0.33197781  0.33449432  1
  Ni  Ni15  1  0.33399091  0.66893574  0.00024986  1
  Ni  Ni16  1  0.49973433  0.83317010  0.16561048  1
  Ni  Ni17  1  0.33306000  0.66669496  0.33347247  1
  Ni  Ni18  1  0.66459714  0.99936574  0.99913664  1
  Ni  Ni19  1  0.83124682  0.16623792  0.16642071  1
  Ni  Ni20  1  0.66618679  0.00141137  0.33136509  1
  Ni  Ni21  1  0.66914579  0.33261819  0.00111733  1
  Ni  Ni22  1  0.83025802  0.50033639  0.16487045  1
  Ni  Ni23  1  0.66448622  0.33319973  0.33308971  1
  Ni  Ni24  1  0.66746320  0.66725358  0.00040678  1
  Ni  Ni25  1  0.83197615  0.83265158  0.16705706  1
  Ni  Ni26  1  0.66648315  0.66464151  0.33137127  1
  Ni  Ni27  1  0.16618774  0.16671273  0.49995038  1
  Ni  Ni28  1  0.99813209  0.00318361  0.66576362  1
  Ni  Ni29  1  0.16450110  0.16899814  0.83220531  1
  Ni  Ni30  1  0.16866998  0.49934248  0.50080825  1
  Ni  Ni31  1  -0.00023549  0.33159003  0.66721292  1
  Ni  Ni32  1  0.16520951  0.49744591  0.83286249  1
  Ni  Ni33  1  0.16656413  0.83319212  0.49769489  1
  Cr  Cr34  1  0.99939840  0.66489851  0.66622801  1
  Cr  Cr35  1  0.16774904  0.83219754  0.83395169  1
  Ni  Ni36  1  0.50053702  0.16934621  0.49945806  1
  Cr  Cr37  1  0.33323298  0.00109846  0.66695081  1
  Fe  Fe38  1  0.50192365  0.16538624  0.83315046  1
  Ni  Ni39  1  0.49932682  0.49791647  0.49957457  1
  Ni  Ni40  1  0.33209795  0.33384378  0.66512428  1
  Cr  Cr41  1  0.49999091  0.50138553  0.83210368  1
  Cr  Cr42  1  0.49956998  0.83192772  0.49951092  1
  Ni  Ni43  1  0.33394478  0.66386238  0.66553875  1
  Ni  Ni44  1  0.50238889  0.83329854  0.83413035  1
  Ni  Ni45  1  0.83255127  0.16731487  0.50096068  1
  Ni  Ni46  1  0.66800011  0.00144145  0.66873323  1
  Ni  Ni47  1  0.83304806  0.16714259  0.83182692  1
  Ni  Ni48  1  0.83123630  0.49767651  0.50001595  1
  Ni  Ni49  1  0.66740344  0.33238947  0.66507197  1
  Ni  Ni50  1  0.83353642  0.49816761  0.83433169  1
  Cr  Cr51  1  0.83352513  0.83500746  0.49926236  1
  Ni  Ni52  1  0.66574362  0.66544682  0.66749356  1
  Ni  Ni53  1  0.82917708  0.83388666  0.83283351  1
" 