7541,Ni81Fe13Cr4_2,-238.93592676123, 192.351256205045,Ni81Fe13Cr4,"# generated using pymatgen
 data_Cr4Fe7Ni43
_symmetry_space_group_name_H-M   'P 1'
_cell_length_a   7.43870405
_cell_length_b   7.43870405
_cell_length_c   10.51991615
_cell_angle_alpha   90.00000000
_cell_angle_beta   90.00000000
_cell_angle_gamma   90.00000000
_symmetry_Int_Tables_number   1
_chemical_formula_structural   Cr4Fe7Ni43
_chemical_formula_sum   'Cr4 Fe7 Ni43'
_cell_volume   582.11238508
_cell_formula_units_Z   1
loop_
 _symmetry_equiv_pos_site_id
 _symmetry_equiv_pos_as_xyz
  1  'x, y, z'
loop_
 _atom_site_type_symbol
 _atom_site_label
 _atom_site_symmetry_multiplicity
 _atom_site_fract_x
 _atom_site_fract_y
 _atom_site_fract_z
 _atom_site_occupancy
  Ni  Ni0  1  1.00164308  0.00205010  1.00169334  1
  Ni  Ni1  1  0.16700338  0.16897539  0.16858967  1
  Ni  Ni2  1  0.00282514  0.00217716  0.33590188  1
  Ni  Ni3  1  0.00362838  0.33471376  0.00209910  1
  Ni  Ni4  1  0.16833338  0.50192078  0.16788637  1
  Ni  Ni5  1  1.00087184  0.33476599  0.33481352  1
  Ni  Ni6  1  0.00234977  0.66895201  0.00225372  1
  Ni  Ni7  1  0.16878010  0.83482021  0.16906788  1
  Ni  Ni8  1  0.00207413  0.66877251  0.33534219  1
  Fe  Fe9  1  0.33410013  1.00076355  1.00104787  1
  Cr  Cr10  1  0.50110910  0.16769743  0.16902076  1
  Ni  Ni11  1  0.33326283  1.00122861  0.33496205  1
  Ni  Ni12  1  0.33308363  0.33649335  1.00142130  1
  Ni  Ni13  1  0.50125098  0.50466288  0.16995784  1
  Fe  Fe14  1  0.33376506  0.33630483  0.33593056  1
  Ni  Ni15  1  0.33557366  0.66838676  0.00198309  1
  Ni  Ni16  1  0.50197155  0.83323846  0.16792346  1
  Ni  Ni17  1  0.33498135  0.66875213  0.33455030  1
  Ni  Ni18  1  0.66957058  0.99955890  1.00152381  1
  Ni  Ni19  1  0.83770831  0.16825487  0.16931427  1
  Fe  Fe20  1  0.67062893  1.00147510  0.33522257  1
  Cr  Cr21  1  0.66935830  0.33574009  1.00075485  1
  Ni  Ni22  1  0.83612872  0.50289003  0.16931241  1
  Ni  Ni23  1  0.66960595  0.33648301  0.33649610  1
  Ni  Ni24  1  0.66779243  0.67036945  0.00193720  1
  Ni  Ni25  1  0.83496452  0.83456855  0.16853302  1
  Ni  Ni26  1  0.66866047  0.66680031  0.33410555  1
  Ni  Ni27  1  0.16975977  0.16823485  0.50094075  1
  Ni  Ni28  1  0.00203389  0.99945774  0.66811994  1
  Ni  Ni29  1  0.16972716  0.16769250  0.83618600  1
  Ni  Ni30  1  0.16850797  0.50247875  0.50145123  1
  Cr  Cr31  1  1.00133659  0.33504077  0.66902530  1
  Fe  Fe32  1  0.16928842  0.50251506  0.83634516  1
  Ni  Ni33  1  0.16702520  0.83500256  0.50201578  1
  Ni  Ni34  1  0.00198579  0.67074613  0.66811907  1
  Ni  Ni35  1  0.16865639  0.83570624  0.83463331  1
  Ni  Ni36  1  0.50169184  0.17007266  0.50256457  1
  Ni  Ni37  1  0.33499847  0.00275380  0.66988437  1
  Ni  Ni38  1  0.50080104  0.16824825  0.83389186  1
  Fe  Fe39  1  0.50214101  0.49983021  0.50166768  1
  Ni  Ni40  1  0.33798764  0.33470959  0.66790653  1
  Ni  Ni41  1  0.50175567  0.50227062  0.83393524  1
  Cr  Cr42  1  0.50178807  0.83609320  0.50192185  1
  Fe  Fe43  1  0.33417804  0.66846517  0.66942730  1
  Ni  Ni44  1  0.50182390  0.83519672  0.83595977  1
  Ni  Ni45  1  0.83426316  0.16858431  0.50118967  1
  Ni  Ni46  1  0.66868421  0.00320084  0.66897146  1
  Ni  Ni47  1  0.83518748  0.16762264  0.83521245  1
  Ni  Ni48  1  0.83521285  0.50242954  0.50099931  1
  Ni  Ni49  1  0.66618911  0.33475899  0.66854594  1
  Ni  Ni50  1  0.83467798  0.50334149  0.83540544  1
  Ni  Ni51  1  0.83705011  0.83469886  0.50226508  1
  Fe  Fe52  1  0.66986545  0.66815843  0.66973068  1
  Ni  Ni53  1  0.83523471  0.83475150  0.83491722  1
" 