3778,Ni81Cr19_13,-207.292272832759, 164.820650271661,Ni81Cr19,"# generated using pymatgen
 data_Cr43Ni11
_symmetry_space_group_name_H-M   'P 1'
_cell_length_a   7.57530982
_cell_length_b   7.57530982
_cell_length_c   10.71310589
_cell_angle_alpha   90.00000000
_cell_angle_beta   90.00000000
_cell_angle_gamma   90.00000000
_symmetry_Int_Tables_number   1
_chemical_formula_structural   Cr43Ni11
_chemical_formula_sum   'Cr43 Ni11'
_cell_volume   614.77499809
_cell_formula_units_Z   1
loop_
 _symmetry_equiv_pos_site_id
 _symmetry_equiv_pos_as_xyz
  1  'x, y, z'
loop_
 _atom_site_type_symbol
 _atom_site_label
 _atom_site_symmetry_multiplicity
 _atom_site_fract_x
 _atom_site_fract_y
 _atom_site_fract_z
 _atom_site_occupancy
  Cr  Cr0  1  0.99135071  -0.00482452  0.99229787  1
  Cr  Cr1  1  0.16081734  0.15939265  0.15870757  1
  Cr  Cr2  1  0.99214105  0.99115014  0.32445761  1
  Ni  Ni3  1  0.98952062  0.32349207  0.99239256  1
  Cr  Cr4  1  0.15723402  0.49289558  0.15949225  1
  Cr  Cr5  1  0.99078787  0.32588584  0.32566214  1
  Cr  Cr6  1  -0.00615997  0.66177633  -0.00499563  1
  Ni  Ni7  1  0.15985823  0.82651754  0.16276246  1
  Ni  Ni8  1  -0.00558054  0.66176865  0.32534483  1
  Cr  Cr9  1  0.32498588  0.99170285  -0.00466294  1
  Ni  Ni10  1  0.49517715  0.15907613  0.16278727  1
  Ni  Ni11  1  0.32831011  0.99250166  0.32365158  1
  Cr  Cr12  1  0.32921408  0.32810448  -0.00601781  1
  Ni  Ni13  1  0.49433293  0.49189115  0.15758288  1
  Cr  Cr14  1  0.32951270  0.32629491  0.32471474  1
  Cr  Cr15  1  0.32894298  0.65848153  -0.00673856  1
  Cr  Cr16  1  0.49349370  0.82840181  0.15999783  1
  Cr  Cr17  1  0.32438547  0.66003183  0.32443770  1
  Cr  Cr18  1  0.66189153  -0.00477679  -0.00641480  1
  Ni  Ni19  1  0.82368095  0.15946078  0.15911393  1
  Ni  Ni20  1  0.65745082  -0.00473989  0.32387982  1
  Cr  Cr21  1  0.65942330  0.32618817  -0.00549358  1
  Cr  Cr22  1  0.82662731  0.49284055  0.15882030  1
  Cr  Cr23  1  0.65845455  0.32386914  0.32376010  1
  Ni  Ni24  1  0.65690440  0.65631498  0.99230161  1
  Cr  Cr25  1  0.82494122  0.82510485  0.16057729  1
  Cr  Cr26  1  0.65922569  0.65831600  0.32565270  1
  Cr  Cr27  1  0.16238028  0.15977377  0.49332222  1
  Cr  Cr28  1  0.99113193  -0.00678844  0.66217818  1
  Cr  Cr29  1  0.15824194  0.16191516  0.82654338  1
  Cr  Cr30  1  0.15710068  0.49200049  0.49189778  1
  Cr  Cr31  1  0.99062645  0.32402960  0.66021780  1
  Cr  Cr32  1  0.15881609  0.49032366  0.82693798  1
  Cr  Cr33  1  0.16044388  0.82678889  0.49042058  1
  Cr  Cr34  1  -0.00632407  0.66149485  0.65691190  1
  Cr  Cr35  1  0.16038767  0.82665619  0.82692007  1
  Cr  Cr36  1  0.49171436  0.15599598  0.49005344  1
  Cr  Cr37  1  0.32477469  0.99162244  0.65951206  1
  Cr  Cr38  1  0.49274651  0.15942239  0.82534609  1
  Cr  Cr39  1  0.49337986  0.49253693  0.49385473  1
  Cr  Cr40  1  0.32840985  0.32863237  0.65974035  1
  Ni  Ni41  1  0.49472745  0.49360970  0.82761423  1
  Cr  Cr42  1  0.49402976  0.82985846  0.49189746  1
  Cr  Cr43  1  0.32704247  0.65813858  0.66120060  1
  Cr  Cr44  1  0.49491436  0.82484549  0.82664765  1
  Cr  Cr45  1  0.82445664  0.15890174  0.49224203  1
  Cr  Cr46  1  0.66249448  -0.00544437  0.66009709  1
  Ni  Ni47  1  0.82695399  0.16167999  0.82756295  1
  Cr  Cr48  1  0.82800010  0.49444683  0.49113177  1
  Cr  Cr49  1  0.65944671  0.32629435  0.66036427  1
  Cr  Cr50  1  0.82581888  0.49229432  0.82850453  1
  Cr  Cr51  1  0.82401082  0.82504391  0.49076540  1
  Cr  Cr52  1  0.65793045  0.65758646  0.66115833  1
  Cr  Cr53  1  0.82355031  0.82535251  0.82701607  1
" 