7570,Ni81Cr19_1,-207.100330297763, 163.103082421127,Ni81Cr19,"# generated using pymatgen
 data_Cr43Ni11
_symmetry_space_group_name_H-M   'P 1'
_cell_length_a   7.58221133
_cell_length_b   7.58221133
_cell_length_c   10.72286609
_cell_angle_alpha   90.00000000
_cell_angle_beta   90.00000000
_cell_angle_gamma   90.00000000
_symmetry_Int_Tables_number   1
_chemical_formula_structural   Cr43Ni11
_chemical_formula_sum   'Cr43 Ni11'
_cell_volume   616.45680657
_cell_formula_units_Z   1
loop_
 _symmetry_equiv_pos_site_id
 _symmetry_equiv_pos_as_xyz
  1  'x, y, z'
loop_
 _atom_site_type_symbol
 _atom_site_label
 _atom_site_symmetry_multiplicity
 _atom_site_fract_x
 _atom_site_fract_y
 _atom_site_fract_z
 _atom_site_occupancy
  Cr  Cr0  1  0.99139986  0.98927690  -0.00525886  1
  Cr  Cr1  1  0.16079384  0.16001362  0.15799704  1
  Cr  Cr2  1  0.99100569  0.99129536  0.32378595  1
  Cr  Cr3  1  0.99062700  0.32636905  0.99144058  1
  Cr  Cr4  1  0.15982629  0.49012073  0.15863183  1
  Cr  Cr5  1  0.98911037  0.32431601  0.32828355  1
  Cr  Cr6  1  0.99235118  0.66169638  -0.00667954  1
  Ni  Ni7  1  0.15932361  0.82564144  0.15890450  1
  Cr  Cr8  1  0.99235827  0.66171756  0.32262487  1
  Cr  Cr9  1  0.32589527  0.98817737  -0.00617447  1
  Cr  Cr10  1  0.49089985  0.15893325  0.15712447  1
  Cr  Cr11  1  0.32696633  0.98989994  0.32531466  1
  Ni  Ni12  1  0.32588497  0.32629388  0.99236708  1
  Cr  Cr13  1  0.49291034  0.49222657  0.15967707  1
  Cr  Cr14  1  0.32920998  0.32657128  0.33009635  1
  Cr  Cr15  1  0.32605423  0.66054679  -0.00616191  1
  Ni  Ni16  1  0.49418631  0.82453556  0.16038387  1
  Cr  Cr17  1  0.32828897  0.66044921  0.32490478  1
  Cr  Cr18  1  0.65998301  0.98990843  -0.00626726  1
  Cr  Cr19  1  0.82526156  0.15890860  0.15930543  1
  Cr  Cr20  1  0.65915410  0.99237898  0.32542150  1
  Cr  Cr21  1  0.65883087  0.32640173  0.99157387  1
  Cr  Cr22  1  0.82433913  0.49413850  0.16061813  1
  Cr  Cr23  1  0.65872107  0.32639115  0.33007713  1
  Cr  Cr24  1  0.65891157  0.66098727  -0.00512851  1
  Ni  Ni25  1  0.82365129  0.82430950  0.16044831  1
  Ni  Ni26  1  0.65780297  0.66084529  0.32462198  1
  Cr  Cr27  1  0.15936612  0.15807845  0.49093927  1
  Cr  Cr28  1  0.99060573  -0.00637006  0.65830547  1
  Cr  Cr29  1  0.16108422  0.15985720  0.82886368  1
  Cr  Cr30  1  0.15864333  0.49412525  0.49279274  1
  Cr  Cr31  1  0.99013540  0.32594804  0.65780996  1
  Cr  Cr32  1  0.15870705  0.49186806  0.82599789  1
  Cr  Cr33  1  0.15737036  0.82484384  0.49395795  1
  Ni  Ni34  1  0.98920972  0.65880435  0.65918841  1
  Cr  Cr35  1  0.15781945  0.82534491  0.82214401  1
  Ni  Ni36  1  0.49664120  0.15933364  0.49408730  1
  Cr  Cr37  1  0.32845991  -0.00669988  0.65760324  1
  Cr  Cr38  1  0.49182506  0.15771257  0.82747367  1
  Ni  Ni39  1  0.49628348  0.49368168  0.49269654  1
  Cr  Cr40  1  0.32845244  0.32629544  0.65708687  1
  Cr  Cr41  1  0.49293991  0.49294457  0.82693010  1
  Cr  Cr42  1  0.49584272  0.82487590  0.49356778  1
  Cr  Cr43  1  0.32654947  0.65765224  0.65838443  1
  Cr  Cr44  1  0.49593563  0.82624403  0.82256471  1
  Ni  Ni45  1  0.82129593  0.15724961  0.49399953  1
  Ni  Ni46  1  0.65923104  -0.00747221  0.65652182  1
  Cr  Cr47  1  0.82420192  0.15677265  0.82513367  1
  Cr  Cr48  1  0.82441112  0.49664865  0.49204672  1
  Cr  Cr49  1  0.65862986  0.32485676  0.65691321  1
  Cr  Cr50  1  0.82512679  0.49578460  0.82420437  1
  Cr  Cr51  1  0.82424881  0.82522705  0.49446936  1
  Ni  Ni52  1  0.65961483  0.65921344  0.65728486  1
  Cr  Cr53  1  0.82352643  0.82473476  0.82100590  1
" 