5832,Ni81Fe3Cr15_14,-232.573548952994, 158.768170441494,Ni81Fe3Cr15,"# generated using pymatgen
 data_Cr10FeNi43
_symmetry_space_group_name_H-M   'P 1'
_cell_length_a   7.47222255
_cell_length_b   7.47222255
_cell_length_c   10.56731847
_cell_angle_alpha   90.00000000
_cell_angle_beta   90.00000000
_cell_angle_gamma   90.00000000
_symmetry_Int_Tables_number   1
_chemical_formula_structural   Cr10FeNi43
_chemical_formula_sum   'Cr10 Fe1 Ni43'
_cell_volume   590.01682005
_cell_formula_units_Z   1
loop_
 _symmetry_equiv_pos_site_id
 _symmetry_equiv_pos_as_xyz
  1  'x, y, z'
loop_
 _atom_site_type_symbol
 _atom_site_label
 _atom_site_symmetry_multiplicity
 _atom_site_fract_x
 _atom_site_fract_y
 _atom_site_fract_z
 _atom_site_occupancy
  Ni  Ni0  1  0.99948381  0.00120847  -0.00029939  1
  Ni  Ni1  1  0.16741480  0.16498522  0.16581514  1
  Cr  Cr2  1  0.00157744  0.00086594  0.33384951  1
  Ni  Ni3  1  0.99878163  0.33212642  0.99926223  1
  Cr  Cr4  1  0.16499231  0.49992316  0.16621324  1
  Ni  Ni5  1  0.99874584  0.33429279  0.33392047  1
  Ni  Ni6  1  0.99895495  0.66562606  0.99907065  1
  Ni  Ni7  1  0.16908346  0.83450334  0.16578490  1
  Ni  Ni8  1  -0.00003689  0.66403118  0.33490595  1
  Ni  Ni9  1  0.33392134  -0.00011208  0.00127425  1
  Ni  Ni10  1  0.49877744  0.16533161  0.16532673  1
  Ni  Ni11  1  0.33263783  0.99837465  0.33217459  1
  Ni  Ni12  1  0.33270582  0.33152489  0.99773646  1
  Cr  Cr13  1  0.50135371  0.49947799  0.16715198  1
  Ni  Ni14  1  0.33141900  0.33180614  0.33327730  1
  Ni  Ni15  1  0.33385025  0.66754785  0.99928665  1
  Ni  Ni16  1  0.49699583  0.83427116  0.16598588  1
  Ni  Ni17  1  0.33246728  0.66877968  0.33372309  1
  Ni  Ni18  1  0.66555576  0.00006219  0.99912305  1
  Ni  Ni19  1  0.83276898  0.16942458  0.16493813  1
  Cr  Cr20  1  0.66477121  -0.00017368  0.33283752  1
  Ni  Ni21  1  0.66747411  0.33205506  0.99942117  1
  Ni  Ni22  1  0.83253729  0.49769081  0.16680617  1
  Ni  Ni23  1  0.66879685  0.33412339  0.33199909  1
  Ni  Ni24  1  0.66615557  0.66684449  0.99787161  1
  Cr  Cr25  1  0.83341022  0.83144996  0.16396745  1
  Ni  Ni26  1  0.66653106  0.66524767  0.33426680  1
  Ni  Ni27  1  0.16546796  0.16653053  0.50056454  1
  Ni  Ni28  1  0.00021810  0.00082376  0.66516572  1
  Ni  Ni29  1  0.16619747  0.16812206  0.83258077  1
  Ni  Ni30  1  0.16378092  0.49905483  0.49889830  1
  Ni  Ni31  1  -0.00017551  0.33270426  0.66577851  1
  Ni  Ni32  1  0.16642037  0.49664973  0.83366348  1
  Ni  Ni33  1  0.16609313  0.83337477  0.49920480  1
  Ni  Ni34  1  0.99717103  0.66543296  0.66498413  1
  Cr  Cr35  1  0.16502213  0.83423730  0.83419701  1
  Cr  Cr36  1  0.49797621  0.16684351  0.49986940  1
  Ni  Ni37  1  0.33136280  0.00128489  0.66551272  1
  Fe  Fe38  1  0.49905739  0.16761742  0.83412355  1
  Cr  Cr39  1  0.50069139  0.49996978  0.49840399  1
  Ni  Ni40  1  0.33088127  0.33136468  0.66794868  1
  Ni  Ni41  1  0.50066412  0.49918345  0.83362660  1
  Ni  Ni42  1  0.49877838  0.83209637  0.49830408  1
  Cr  Cr43  1  0.33303975  0.66600290  0.66625385  1
  Ni  Ni44  1  0.50156798  0.83204441  0.83467198  1
  Ni  Ni45  1  0.83576027  0.16845427  0.50016421  1
  Cr  Cr46  1  0.66727829  0.99842237  0.66672111  1
  Ni  Ni47  1  0.83402051  0.16721607  0.83385837  1
  Ni  Ni48  1  0.83448052  0.50010086  0.49922945  1
  Ni  Ni49  1  0.66825619  0.33441418  0.66754220  1
  Ni  Ni50  1  0.83187563  0.49947436  0.83292594  1
  Ni  Ni51  1  0.83408941  0.83040723  0.50116557  1
  Ni  Ni52  1  0.66871621  0.66591433  0.66682367  1
  Ni  Ni53  1  0.83148213  0.83227076  0.83342769  1
" 