6655,Ni81Fe6Cr11_15,-235.627451224711, 170.732740580244,Ni81Fe6Cr11,"# generated using pymatgen
 data_Cr7Fe3Ni44
_symmetry_space_group_name_H-M   'P 1'
_cell_length_a   7.45831486
_cell_length_b   7.45831486
_cell_length_c   10.54765003
_cell_angle_alpha   90.00000000
_cell_angle_beta   90.00000000
_cell_angle_gamma   90.00000000
_symmetry_Int_Tables_number   1
_chemical_formula_structural   Cr7Fe3Ni44
_chemical_formula_sum   'Cr7 Fe3 Ni44'
_cell_volume   586.72843851
_cell_formula_units_Z   1
loop_
 _symmetry_equiv_pos_site_id
 _symmetry_equiv_pos_as_xyz
  1  'x, y, z'
loop_
 _atom_site_type_symbol
 _atom_site_label
 _atom_site_symmetry_multiplicity
 _atom_site_fract_x
 _atom_site_fract_y
 _atom_site_fract_z
 _atom_site_occupancy
  Ni  Ni0  1  1.00026665  0.00138830  0.00101965  1
  Ni  Ni1  1  0.16791673  0.16510719  0.16675347  1
  Ni  Ni2  1  1.00025008  0.00117490  0.33404586  1
  Ni  Ni3  1  0.00129502  0.33241106  0.99905435  1
  Cr  Cr4  1  0.17036658  0.49994111  0.16576798  1
  Cr  Cr5  1  0.00129308  0.33004993  0.33509307  1
  Ni  Ni6  1  1.00007090  0.66795911  0.99854923  1
  Fe  Fe7  1  0.16846378  0.83705844  0.16636833  1
  Cr  Cr8  1  0.00094282  0.67055650  0.33485440  1
  Ni  Ni9  1  0.33395393  0.00110992  0.00104360  1
  Ni  Ni10  1  0.50006912  0.16671156  0.16720348  1
  Ni  Ni11  1  0.33422353  0.00098192  0.33345423  1
  Ni  Ni12  1  0.33345747  0.33322320  0.99986161  1
  Ni  Ni13  1  0.50026217  0.50118553  0.16814898  1
  Ni  Ni14  1  0.33651764  0.33316804  0.33534330  1
  Ni  Ni15  1  0.33496044  0.66742434  0.99990114  1
  Ni  Ni16  1  0.50129108  0.83385980  0.16761800  1
  Ni  Ni17  1  0.33705055  0.66760767  0.33496992  1
  Ni  Ni18  1  0.66753678  0.99988625  0.00072537  1
  Ni  Ni19  1  0.83376887  0.16407871  0.16702847  1
  Ni  Ni20  1  0.66728313  0.00064387  0.33428302  1
  Fe  Fe21  1  0.66672815  0.33333437  1.00000557  1
  Cr  Cr22  1  0.83104258  0.50087904  0.16553752  1
  Ni  Ni23  1  0.66372316  0.33224029  0.33350254  1
  Ni  Ni24  1  0.66672558  0.66845345  1.00017486  1
  Ni  Ni25  1  0.83228970  0.83674927  0.16669155  1
  Ni  Ni26  1  0.66353240  0.66887135  0.33383165  1
  Ni  Ni27  1  0.16792199  0.16658183  0.49916053  1
  Ni  Ni28  1  0.99826934  0.99895230  0.66669058  1
  Ni  Ni29  1  0.16645790  0.16762765  0.83584257  1
  Ni  Ni30  1  0.17192772  0.50119180  0.50185234  1
  Cr  Cr31  1  0.00172274  0.33343675  0.66743363  1
  Ni  Ni32  1  0.16832492  0.50097459  0.83433304  1
  Ni  Ni33  1  0.16706173  0.83398413  0.50003743  1
  Ni  Ni34  1  0.00108297  0.66933122  0.66823729  1
  Ni  Ni35  1  0.16648639  0.83315517  0.83525346  1
  Ni  Ni36  1  0.50107621  0.16836986  0.49984554  1
  Cr  Cr37  1  0.33421705  0.00060558  0.66759557  1
  Fe  Fe38  1  0.50121951  0.16793931  0.83449283  1
  Ni  Ni39  1  0.49825432  0.50058483  0.49981747  1
  Ni  Ni40  1  0.33531161  0.33617628  0.66655048  1
  Ni  Ni41  1  0.50024707  0.50134226  0.83379034  1
  Ni  Ni42  1  0.50133060  0.83280188  0.49935262  1
  Ni  Ni43  1  0.33394983  0.66501477  0.66688694  1
  Ni  Ni44  1  0.50150711  0.83220606  0.83478627  1
  Ni  Ni45  1  0.83275848  0.16350669  0.50001829  1
  Ni  Ni46  1  0.66942787  1.00031233  0.66674694  1
  Ni  Ni47  1  0.83413171  0.16636791  0.83470903  1
  Cr  Cr48  1  0.83149852  0.50145897  0.50121047  1
  Ni  Ni49  1  0.66511030  0.33336053  0.66816491  1
  Ni  Ni50  1  0.83318352  0.50131429  0.83515998  1
  Ni  Ni51  1  0.83336481  0.83680560  0.50164558  1
  Ni  Ni52  1  0.66672438  0.66808214  0.66775012  1
  Ni  Ni53  1  0.83376310  0.83407376  0.83341822  1
" 