7179,Ni81Fe3Cr15_2,-232.594854948968, 158.749192601678,Ni81Fe3Cr15,"# generated using pymatgen
 data_Cr10FeNi43
_symmetry_space_group_name_H-M   'P 1'
_cell_length_a   7.47031594
_cell_length_b   7.47031594
_cell_length_c   10.56462211
_cell_angle_alpha   90.00000000
_cell_angle_beta   90.00000000
_cell_angle_gamma   90.00000000
_symmetry_Int_Tables_number   1
_chemical_formula_structural   Cr10FeNi43
_chemical_formula_sum   'Cr10 Fe1 Ni43'
_cell_volume   589.56528934
_cell_formula_units_Z   1
loop_
 _symmetry_equiv_pos_site_id
 _symmetry_equiv_pos_as_xyz
  1  'x, y, z'
loop_
 _atom_site_type_symbol
 _atom_site_label
 _atom_site_symmetry_multiplicity
 _atom_site_fract_x
 _atom_site_fract_y
 _atom_site_fract_z
 _atom_site_occupancy
  Ni  Ni0  1  0.99896291  0.00260725  0.00046734  1
  Ni  Ni1  1  0.16692586  0.16693446  0.16529937  1
  Cr  Cr2  1  0.00055566  0.00078294  0.33270912  1
  Ni  Ni3  1  0.00098414  0.32992375  0.00037701  1
  Ni  Ni4  1  0.16657985  0.49964867  0.16717379  1
  Ni  Ni5  1  0.00030471  0.33411427  0.33294374  1
  Cr  Cr6  1  0.00124283  0.66672578  0.00159106  1
  Ni  Ni7  1  0.16786549  0.83275989  0.16672245  1
  Ni  Ni8  1  0.00118611  0.66468967  0.33184726  1
  Ni  Ni9  1  0.33346458  0.00088533  0.00061373  1
  Ni  Ni10  1  0.50035671  0.16622898  0.16632949  1
  Ni  Ni11  1  0.33405499  0.99860480  0.33288344  1
  Ni  Ni12  1  0.33275730  0.33295627  0.99930430  1
  Ni  Ni13  1  0.49964941  0.49930070  0.16691269  1
  Ni  Ni14  1  0.33154925  0.33354736  0.33165205  1
  Ni  Ni15  1  0.33381495  0.66550222  0.00037702  1
  Ni  Ni16  1  0.49906992  0.83381306  0.16775164  1
  Ni  Ni17  1  0.33260636  0.66719134  0.33259398  1
  Ni  Ni18  1  0.66691509  0.00154402  0.99940972  1
  Ni  Ni19  1  0.83206127  0.16751558  0.16564344  1
  Ni  Ni20  1  0.66498710  0.99948523  0.33188634  1
  Ni  Ni21  1  0.66560242  0.33027604  0.00061307  1
  Ni  Ni22  1  0.83311452  0.49836146  0.16881001  1
  Ni  Ni23  1  0.66748965  0.33266375  0.33065510  1
  Cr  Cr24  1  0.66380845  0.66698023  0.00054379  1
  Ni  Ni25  1  0.83240823  0.83346773  0.16656568  1
  Ni  Ni26  1  0.66555172  0.66719497  0.33085094  1
  Ni  Ni27  1  0.16618713  0.16755995  0.50029645  1
  Cr  Cr28  1  0.99967791  0.00176617  0.66609240  1
  Ni  Ni29  1  0.16688898  0.16849960  0.83374776  1
  Ni  Ni30  1  0.16552232  0.50023530  0.50047400  1
  Ni  Ni31  1  0.00137057  0.33329966  0.66602260  1
  Ni  Ni32  1  0.16834142  0.49788829  0.83169594  1
  Ni  Ni33  1  0.16966791  0.83154863  0.49969369  1
  Ni  Ni34  1  0.00129132  0.66458217  0.66597352  1
  Cr  Cr35  1  0.16830581  0.83304211  0.83363603  1
  Cr  Cr36  1  0.49998829  0.16455506  0.49958580  1
  Ni  Ni37  1  0.33487785  0.99943601  0.66584704  1
  Ni  Ni38  1  0.50059239  0.16599340  0.83289055  1
  Cr  Cr39  1  0.49905848  0.50107733  0.49998347  1
  Ni  Ni40  1  0.33131572  0.33378228  0.66838598  1
  Ni  Ni41  1  0.49808738  0.49933946  0.83213269  1
  Ni  Ni42  1  0.49768967  0.83366337  0.50006846  1
  Ni  Ni43  1  0.33342521  0.66612541  0.66637311  1
  Ni  Ni44  1  0.50024378  0.83401099  0.83152273  1
  Ni  Ni45  1  0.83343121  0.16814269  0.50006705  1
  Ni  Ni46  1  0.66511410  0.99935430  0.66804743  1
  Ni  Ni47  1  0.83186160  0.16634380  0.83363384  1
  Cr  Cr48  1  0.83465402  0.49807897  0.49943599  1
  Ni  Ni49  1  0.66665707  0.33184484  0.66807315  1
  Cr  Cr50  1  0.83331617  0.49792546  0.83094890  1
  Cr  Cr51  1  0.83163595  0.83254557  0.50048983  1
  Ni  Ni52  1  0.66462733  0.66814660  0.66802675  1
  Fe  Fe53  1  0.83048819  0.83569406  0.83251455  1
" 