3587,Ni81Fe13Cr4_8,-239.346521603178, 192.123888579039,Ni81Fe13Cr4,"# generated using pymatgen
 data_Cr4Fe7Ni43
_symmetry_space_group_name_H-M   'P 1'
_cell_length_a   7.44201313
_cell_length_b   7.44201313
_cell_length_c   10.52459590
_cell_angle_alpha   90.00000000
_cell_angle_beta   90.00000000
_cell_angle_gamma   90.00000000
_symmetry_Int_Tables_number   1
_chemical_formula_structural   Cr4Fe7Ni43
_chemical_formula_sum   'Cr4 Fe7 Ni43'
_cell_volume   582.88958172
_cell_formula_units_Z   1
loop_
 _symmetry_equiv_pos_site_id
 _symmetry_equiv_pos_as_xyz
  1  'x, y, z'
loop_
 _atom_site_type_symbol
 _atom_site_label
 _atom_site_symmetry_multiplicity
 _atom_site_fract_x
 _atom_site_fract_y
 _atom_site_fract_z
 _atom_site_occupancy
  Ni  Ni0  1  0.00292139  1.00099990  0.00177949  1
  Ni  Ni1  1  0.16934093  0.16714950  0.16666279  1
  Ni  Ni2  1  1.00166466  0.99920342  0.33500589  1
  Ni  Ni3  1  1.00101250  0.33574310  0.00186636  1
  Ni  Ni4  1  0.16959086  0.50285911  0.16764171  1
  Cr  Cr5  1  1.00101276  0.33566841  0.33504768  1
  Ni  Ni6  1  0.00233121  0.66830226  0.00233147  1
  Ni  Ni7  1  0.16782847  0.83503713  0.16813414  1
  Ni  Ni8  1  0.00190215  0.67047503  0.33489182  1
  Ni  Ni9  1  0.33386147  1.00105100  0.00215009  1
  Ni  Ni10  1  0.50099097  0.16973702  0.16909792  1
  Ni  Ni11  1  0.33526104  1.00097593  0.33439979  1
  Ni  Ni12  1  0.33550251  0.33541824  0.00221797  1
  Ni  Ni13  1  0.50145914  0.50098645  0.16813310  1
  Ni  Ni14  1  0.33767471  0.33498593  0.33500574  1
  Ni  Ni15  1  0.33413180  0.66857654  1.00158939  1
  Ni  Ni16  1  0.50063252  0.83431852  0.16861358  1
  Ni  Ni17  1  0.33463702  0.66908435  0.33538976  1
  Cr  Cr18  1  0.66781151  0.00250860  0.00212968  1
  Ni  Ni19  1  0.83471396  0.16797547  0.16832755  1
  Fe  Fe20  1  0.66824367  0.00209328  0.33506184  1
  Ni  Ni21  1  0.66853081  0.33601203  0.00191277  1
  Ni  Ni22  1  0.83399415  0.50250064  0.16666160  1
  Ni  Ni23  1  0.66673385  0.33474531  0.33487189  1
  Fe  Fe24  1  0.66840907  0.66669583  0.00170626  1
  Ni  Ni25  1  0.83658478  0.83456875  0.16909610  1
  Fe  Fe26  1  0.66837801  0.66794682  0.33521179  1
  Ni  Ni27  1  0.16852722  0.16796331  0.50279452  1
  Ni  Ni28  1  0.99935146  0.00312265  0.66826159  1
  Fe  Fe29  1  0.16742883  0.16914901  0.83587586  1
  Ni  Ni30  1  0.17081242  0.50231172  0.50209540  1
  Ni  Ni31  1  1.00087836  0.33364850  0.66813154  1
  Ni  Ni32  1  0.17059536  0.50209586  0.83530855  1
  Ni  Ni33  1  0.16726234  0.83477072  0.50010127  1
  Cr  Cr34  1  0.00210489  0.66796087  0.66746770  1
  Ni  Ni35  1  0.16729427  0.83426772  0.83681107  1
  Ni  Ni36  1  0.50258838  0.17030290  0.50093608  1
  Cr  Cr37  1  0.33525292  1.00132949  0.66874026  1
  Ni  Ni38  1  0.50266815  0.17095909  0.83501190  1
  Ni  Ni39  1  0.50107734  0.50074652  0.50219133  1
  Ni  Ni40  1  0.33560454  0.33676284  0.66782277  1
  Ni  Ni41  1  0.50058029  0.50078261  0.83472303  1
  Fe  Fe42  1  0.50204786  0.83409535  0.50093600  1
  Ni  Ni43  1  0.33667036  0.66676899  0.66806659  1
  Fe  Fe44  1  0.50144167  0.83348245  0.83515532  1
  Ni  Ni45  1  0.83392973  0.16675516  0.50320661  1
  Ni  Ni46  1  0.67006165  0.00206055  0.66768953  1
  Ni  Ni47  1  0.83483529  0.16765775  0.83351135  1
  Ni  Ni48  1  0.83315508  0.50201088  0.50265535  1
  Ni  Ni49  1  0.66856284  0.33468687  0.66826044  1
  Fe  Fe50  1  0.83434269  0.50058362  0.83569023  1
  Ni  Ni51  1  0.83549562  0.83627912  0.50122742  1
  Ni  Ni52  1  0.66695086  0.66829749  0.66849501  1
  Ni  Ni53  1  0.83615003  0.83635574  0.83472145  1
" 