4679,Ni81Fe12Cr5_2,-238.766373142045, 188.419942418084,Ni81Fe12Cr5,"# generated using pymatgen
 data_Cr2Fe3Ni22
_symmetry_space_group_name_H-M   'P 1'
_cell_length_a   7.44321230
_cell_length_b   7.44321230
_cell_length_c   10.52629178
_cell_angle_alpha   90.00000000
_cell_angle_beta   90.00000000
_cell_angle_gamma   90.00000000
_symmetry_Int_Tables_number   1
_chemical_formula_structural   Cr2Fe3Ni22
_chemical_formula_sum   'Cr4 Fe6 Ni44'
_cell_volume   583.17139991
_cell_formula_units_Z   2
loop_
 _symmetry_equiv_pos_site_id
 _symmetry_equiv_pos_as_xyz
  1  'x, y, z'
loop_
 _atom_site_type_symbol
 _atom_site_label
 _atom_site_symmetry_multiplicity
 _atom_site_fract_x
 _atom_site_fract_y
 _atom_site_fract_z
 _atom_site_occupancy
  Ni  Ni0  1  0.00174508  1.00151997  0.00164413  1
  Ni  Ni1  1  0.16848277  0.16771663  0.16778924  1
  Ni  Ni2  1  0.00260144  0.99949170  0.33463559  1
  Ni  Ni3  1  1.00154654  0.33579495  0.00294112  1
  Ni  Ni4  1  0.16853453  0.50114664  0.16773947  1
  Fe  Fe5  1  1.00114290  0.33537680  0.33342889  1
  Ni  Ni6  1  0.00256803  0.66743918  1.00117492  1
  Fe  Fe7  1  0.16707296  0.83432901  0.16787482  1
  Ni  Ni8  1  0.00393839  0.66733883  0.33547164  1
  Ni  Ni9  1  0.33467972  1.00158887  0.00214662  1
  Ni  Ni10  1  0.50007894  0.16958000  0.16729918  1
  Ni  Ni11  1  0.33337321  1.00025467  0.33297120  1
  Ni  Ni12  1  0.33500458  0.33573355  0.00160351  1
  Ni  Ni13  1  0.50140466  0.50164342  0.16851202  1
  Fe  Fe14  1  0.33510014  0.33545148  0.33288065  1
  Ni  Ni15  1  0.33390801  0.66746773  0.00175459  1
  Fe  Fe16  1  0.50110987  0.83436342  0.16672862  1
  Ni  Ni17  1  0.33211171  0.66671319  0.33388372  1
  Ni  Ni18  1  0.66818670  0.00270135  0.00172652  1
  Ni  Ni19  1  0.83616887  0.16812918  0.16726589  1
  Cr  Cr20  1  0.66920236  0.00614245  0.33480296  1
  Ni  Ni21  1  0.66827776  0.33475665  0.00165439  1
  Ni  Ni22  1  0.83502365  0.50276441  0.16838022  1
  Ni  Ni23  1  0.66827249  0.33668616  0.33498172  1
  Ni  Ni24  1  0.66816247  0.66714592  0.00268665  1
  Ni  Ni25  1  0.83615721  0.83400648  0.16733537  1
  Fe  Fe26  1  0.66965948  0.66794658  0.33405003  1
  Cr  Cr27  1  0.16889335  0.16822652  0.50183413  1
  Ni  Ni28  1  0.00298119  1.00106173  0.66839595  1
  Ni  Ni29  1  0.16776194  0.16824730  0.83569341  1
  Ni  Ni30  1  0.16877753  0.50276440  0.50156896  1
  Ni  Ni31  1  0.99916938  0.33686471  0.66840887  1
  Ni  Ni32  1  0.16783289  0.50132854  0.83552194  1
  Ni  Ni33  1  0.16688719  0.83382318  0.50112961  1
  Ni  Ni34  1  0.00327733  0.66700187  0.66790882  1
  Ni  Ni35  1  0.16803819  0.83528149  0.83517725  1
  Ni  Ni36  1  0.50004987  0.17198042  0.50162873  1
  Ni  Ni37  1  0.33351700  1.00028349  0.66971462  1
  Ni  Ni38  1  0.50006247  0.16911436  0.83596916  1
  Ni  Ni39  1  0.50094648  0.49989267  0.50092261  1
  Fe  Fe40  1  0.33470965  0.33645038  0.67040366  1
  Ni  Ni41  1  0.50201629  0.50234818  0.83507914  1
  Cr  Cr42  1  0.49997566  0.83298355  0.50147591  1
  Ni  Ni43  1  0.33309125  0.66756525  0.66904065  1
  Ni  Ni44  1  0.50123871  0.83341082  0.83698090  1
  Ni  Ni45  1  0.83609813  0.17002219  0.50101003  1
  Cr  Cr46  1  0.66916253  0.00418444  0.66917788  1
  Ni  Ni47  1  0.83669286  0.16916802  0.83671856  1
  Ni  Ni48  1  0.83504990  0.50211824  0.50029614  1
  Ni  Ni49  1  0.66890625  0.33643494  0.66802761  1
  Ni  Ni50  1  0.83480717  0.50226262  0.83589603  1
  Ni  Ni51  1  0.83865749  0.83284597  0.50216393  1
  Ni  Ni52  1  0.66877748  0.66434436  0.66765595  1
  Ni  Ni53  1  0.83556912  0.83322292  0.83529766  1
" 