1035,Ni81Fe13Cr4_1,-238.977164764815, 191.529966448944,Ni81Fe13Cr4,"# generated using pymatgen
 data_Cr4Fe7Ni43
_symmetry_space_group_name_H-M   'P 1'
_cell_length_a   7.44071625
_cell_length_b   7.44071625
_cell_length_c   10.52276184
_cell_angle_alpha   90.00000000
_cell_angle_beta   90.00000000
_cell_angle_gamma   90.00000000
_symmetry_Int_Tables_number   1
_chemical_formula_structural   Cr4Fe7Ni43
_chemical_formula_sum   'Cr4 Fe7 Ni43'
_cell_volume   582.58490493
_cell_formula_units_Z   1
loop_
 _symmetry_equiv_pos_site_id
 _symmetry_equiv_pos_as_xyz
  1  'x, y, z'
loop_
 _atom_site_type_symbol
 _atom_site_label
 _atom_site_symmetry_multiplicity
 _atom_site_fract_x
 _atom_site_fract_y
 _atom_site_fract_z
 _atom_site_occupancy
  Ni  Ni0  1  1.00120535  0.00205521  1.00113197  1
  Ni  Ni1  1  0.16820786  0.16890341  0.16890867  1
  Ni  Ni2  1  1.00030622  0.00197571  0.33566364  1
  Fe  Fe3  1  1.00153476  0.33630359  0.00187730  1
  Ni  Ni4  1  0.16686749  0.50123977  0.16842229  1
  Ni  Ni5  1  0.00202730  0.33416183  0.33382217  1
  Ni  Ni6  1  1.00154937  0.67049408  1.00147403  1
  Fe  Fe7  1  0.16711549  0.83539504  0.16824583  1
  Ni  Ni8  1  0.00192010  0.66920263  0.33505456  1
  Fe  Fe9  1  0.33401259  0.00242751  0.00184981  1
  Ni  Ni10  1  0.50114777  0.16640461  0.16845048  1
  Fe  Fe11  1  0.33525456  0.00190760  0.33563152  1
  Ni  Ni12  1  0.33522349  0.33412326  1.00051130  1
  Cr  Cr13  1  0.50176224  0.50204124  0.16935836  1
  Ni  Ni14  1  0.33349604  0.33354966  0.33536692  1
  Ni  Ni15  1  0.33355427  0.66706466  1.00174870  1
  Ni  Ni16  1  0.50184963  0.83672260  0.16913546  1
  Ni  Ni17  1  0.33321625  0.66937230  0.33455606  1
  Fe  Fe18  1  0.66968053  0.00208142  0.00273756  1
  Ni  Ni19  1  0.83591734  0.16796247  0.16813867  1
  Ni  Ni20  1  0.66951222  0.00214556  0.33418724  1
  Ni  Ni21  1  0.66790120  0.33376313  1.00070303  1
  Ni  Ni22  1  0.83744778  0.50206239  0.16919975  1
  Ni  Ni23  1  0.66975858  0.33207746  0.33535281  1
  Ni  Ni24  1  0.67014020  0.66775003  0.00187994  1
  Ni  Ni25  1  0.83487078  0.83540099  0.16857243  1
  Ni  Ni26  1  0.67013437  0.67109058  0.33520470  1
  Fe  Fe27  1  0.16708992  0.16859997  0.50199070  1
  Ni  Ni28  1  1.00103523  0.00205440  0.66857687  1
  Ni  Ni29  1  0.16812107  0.16827466  0.83430289  1
  Ni  Ni30  1  0.16558447  0.50111577  0.50070518  1
  Ni  Ni31  1  0.00266677  0.33452481  0.66920140  1
  Ni  Ni32  1  0.16724424  0.50080347  0.83614348  1
  Ni  Ni33  1  0.16716250  0.83557674  0.50082935  1
  Ni  Ni34  1  0.99988109  0.66870755  0.66877066  1
  Ni  Ni35  1  0.16568121  0.83631001  0.83611175  1
  Ni  Ni36  1  0.50214598  0.16628826  0.50176005  1
  Ni  Ni37  1  0.33437498  0.00504978  0.66760399  1
  Ni  Ni38  1  0.50152089  0.16997066  0.83492544  1
  Cr  Cr39  1  0.50267440  0.50074257  0.50094924  1
  Ni  Ni40  1  0.33411813  0.33233990  0.66964223  1
  Ni  Ni41  1  0.50248478  0.49941299  0.83569049  1
  Ni  Ni42  1  0.50253472  0.83819313  0.50050441  1
  Cr  Cr43  1  0.33311982  0.66743279  0.66928140  1
  Cr  Cr44  1  0.50284661  0.83598748  0.83555685  1
  Ni  Ni45  1  0.83509623  0.16806465  0.50142948  1
  Ni  Ni46  1  0.66978148  0.00266377  0.66845580  1
  Ni  Ni47  1  0.83576412  0.16800924  0.83564389  1
  Ni  Ni48  1  0.83820668  0.50146736  0.50103125  1
  Fe  Fe49  1  0.67026712  0.33374165  0.66923458  1
  Ni  Ni50  1  0.83567804  0.50207913  0.83491919  1
  Ni  Ni51  1  0.83567134  0.83580012  0.50227197  1
  Ni  Ni52  1  0.67192910  0.66934227  0.66842654  1
  Ni  Ni53  1  0.83725342  0.83531628  0.83440387  1
" 