6561,Ni81Fe12Cr5_9,-238.641645290756, 188.640014717639,Ni81Fe12Cr5,"# generated using pymatgen
 data_Cr2Fe3Ni22
_symmetry_space_group_name_H-M   'P 1'
_cell_length_a   7.44308813
_cell_length_b   7.44308813
_cell_length_c   10.52611618
_cell_angle_alpha   90.00000000
_cell_angle_beta   90.00000000
_cell_angle_gamma   90.00000000
_symmetry_Int_Tables_number   1
_chemical_formula_structural   Cr2Fe3Ni22
_chemical_formula_sum   'Cr4 Fe6 Ni44'
_cell_volume   583.14221513
_cell_formula_units_Z   2
loop_
 _symmetry_equiv_pos_site_id
 _symmetry_equiv_pos_as_xyz
  1  'x, y, z'
loop_
 _atom_site_type_symbol
 _atom_site_label
 _atom_site_symmetry_multiplicity
 _atom_site_fract_x
 _atom_site_fract_y
 _atom_site_fract_z
 _atom_site_occupancy
  Ni  Ni0  1  1.00116774  0.00180536  0.00262037  1
  Ni  Ni1  1  0.16848619  0.16756375  0.16669493  1
  Cr  Cr2  1  0.00160997  0.00166885  0.33482329  1
  Ni  Ni3  1  0.99858959  0.33441451  0.00244389  1
  Cr  Cr4  1  0.16713993  0.50313131  0.16703688  1
  Fe  Fe5  1  0.99974571  0.33547080  0.33574877  1
  Ni  Ni6  1  0.99940060  0.66863391  1.00080761  1
  Fe  Fe7  1  0.16899834  0.83537910  0.16735165  1
  Ni  Ni8  1  0.99946112  0.66799108  0.33503165  1
  Ni  Ni9  1  0.33593446  1.00128455  0.00379611  1
  Ni  Ni10  1  0.50249671  0.16663815  0.16681421  1
  Ni  Ni11  1  0.33684905  1.00127493  0.33454489  1
  Fe  Fe12  1  0.33559974  0.33599867  1.00096430  1
  Ni  Ni13  1  0.50386249  0.50306685  0.16745483  1
  Cr  Cr14  1  0.33620234  0.33356405  0.33619105  1
  Ni  Ni15  1  0.33753617  0.66995605  1.00116785  1
  Ni  Ni16  1  0.50264502  0.83491563  0.16916288  1
  Ni  Ni17  1  0.33669194  0.66949414  0.33532807  1
  Fe  Fe18  1  0.66908108  0.99933378  1.00132444  1
  Ni  Ni19  1  0.83401849  0.16860746  0.16737942  1
  Ni  Ni20  1  0.66747445  1.00153693  0.33414591  1
  Fe  Fe21  1  0.66859239  0.33549579  1.00086685  1
  Ni  Ni22  1  0.83349752  0.50210012  0.16894482  1
  Fe  Fe23  1  0.66886408  0.33475349  0.33545671  1
  Ni  Ni24  1  0.66808665  0.66689004  0.00177233  1
  Ni  Ni25  1  0.83278679  0.83392651  0.16710008  1
  Ni  Ni26  1  0.66859699  0.66817755  0.33474008  1
  Ni  Ni27  1  0.16850197  0.16829289  0.50369340  1
  Ni  Ni28  1  1.00034314  1.00058618  0.66781333  1
  Cr  Cr29  1  0.16793828  0.16846563  0.83358487  1
  Ni  Ni30  1  0.16736320  0.50296886  0.50317949  1
  Ni  Ni31  1  1.00003137  0.33590541  0.66637852  1
  Ni  Ni32  1  0.16770594  0.50341019  0.83472215  1
  Ni  Ni33  1  0.16935989  0.83361140  0.50150591  1
  Ni  Ni34  1  1.00105863  0.66828568  0.66911817  1
  Ni  Ni35  1  0.16868504  0.83349555  0.83602848  1
  Ni  Ni36  1  0.50257260  0.16645268  0.50279947  1
  Ni  Ni37  1  0.33602239  1.00090366  0.66627540  1
  Ni  Ni38  1  0.50303067  0.16730611  0.83535653  1
  Ni  Ni39  1  0.50231627  0.50323279  0.50238452  1
  Ni  Ni40  1  0.33678871  0.33608840  0.66862367  1
  Ni  Ni41  1  0.50158799  0.50238405  0.83523344  1
  Ni  Ni42  1  0.50228432  0.83517598  0.50106762  1
  Ni  Ni43  1  0.33549267  0.66791226  0.66825563  1
  Ni  Ni44  1  0.50169519  0.83504336  0.83441418  1
  Ni  Ni45  1  0.83365660  0.16856284  0.50254648  1
  Ni  Ni46  1  0.66847666  0.00195776  0.66912180  1
  Ni  Ni47  1  0.83373607  0.16805717  0.83492698  1
  Ni  Ni48  1  0.83513067  0.50234281  0.50069300  1
  Ni  Ni49  1  0.66805118  0.33536171  0.66830239  1
  Ni  Ni50  1  0.83544203  0.50174319  0.83507647  1
  Ni  Ni51  1  0.83330295  0.83407354  0.50293174  1
  Ni  Ni52  1  0.66830929  0.66751670  0.66834628  1
  Ni  Ni53  1  0.83461436  0.83470346  0.83481983  1
" 