2078,Ni81Cr19_9,-207.319595769424, 163.505764647201,Ni81Cr19,"# generated using pymatgen
 data_Cr43Ni11
_symmetry_space_group_name_H-M   'P 1'
_cell_length_a   7.57575210
_cell_length_b   7.57575210
_cell_length_c   10.71373136
_cell_angle_alpha   90.00000000
_cell_angle_beta   90.00000000
_cell_angle_gamma   90.00000000
_symmetry_Int_Tables_number   1
_chemical_formula_structural   Cr43Ni11
_chemical_formula_sum   'Cr43 Ni11'
_cell_volume   614.88268240
_cell_formula_units_Z   1
loop_
 _symmetry_equiv_pos_site_id
 _symmetry_equiv_pos_as_xyz
  1  'x, y, z'
loop_
 _atom_site_type_symbol
 _atom_site_label
 _atom_site_symmetry_multiplicity
 _atom_site_fract_x
 _atom_site_fract_y
 _atom_site_fract_z
 _atom_site_occupancy
  Cr  Cr0  1  0.99210714  0.99205217  -0.00625528  1
  Cr  Cr1  1  0.15892589  0.16163042  0.15824872  1
  Cr  Cr2  1  0.99217879  0.99057666  0.32581481  1
  Cr  Cr3  1  0.99122147  0.32811706  0.99090870  1
  Cr  Cr4  1  0.16057760  0.49416987  0.16210519  1
  Cr  Cr5  1  0.98933169  0.32735303  0.32690246  1
  Cr  Cr6  1  0.98971937  0.65781981  0.99247693  1
  Cr  Cr7  1  0.15936173  0.82253940  0.16189135  1
  Ni  Ni8  1  0.99260857  0.65713609  0.32756336  1
  Cr  Cr9  1  0.32629673  0.99258012  0.99250877  1
  Cr  Cr10  1  0.49563681  0.16089284  0.15979473  1
  Cr  Cr11  1  0.32611148  0.99155558  0.32745043  1
  Cr  Cr12  1  0.32886957  0.32885976  -0.00713884  1
  Ni  Ni13  1  0.49530295  0.49493510  0.16057053  1
  Cr  Cr14  1  0.33004475  0.32771861  0.32372641  1
  Cr  Cr15  1  0.32919587  0.65668754  -0.00706403  1
  Cr  Cr16  1  0.49455459  0.82363737  0.15837518  1
  Ni  Ni17  1  0.32672846  0.65743809  0.32464129  1
  Ni  Ni18  1  0.65891786  0.99069642  -0.00702604  1
  Cr  Cr19  1  0.82380713  0.15996544  0.15870719  1
  Cr  Cr20  1  0.66006020  -0.00544255  0.32672502  1
  Cr  Cr21  1  0.65856915  0.33062728  -0.00628430  1
  Cr  Cr22  1  0.82525767  0.49408973  0.16076006  1
  Ni  Ni23  1  0.65988638  0.33059671  0.32604033  1
  Ni  Ni24  1  0.65814125  0.65743758  0.99097666  1
  Cr  Cr25  1  0.82426297  0.82467483  0.15738295  1
  Cr  Cr26  1  0.66026239  0.65683639  0.32694408  1
  Cr  Cr27  1  0.15894093  0.16308677  0.49550022  1
  Cr  Cr28  1  0.99228143  -0.00712288  0.65880889  1
  Cr  Cr29  1  0.15827791  0.16156019  0.82456345  1
  Cr  Cr30  1  0.15755181  0.49310488  0.49150580  1
  Ni  Ni31  1  0.98871476  0.33029814  0.65995605  1
  Cr  Cr32  1  0.15794380  0.49229281  0.82490143  1
  Cr  Cr33  1  0.16015222  0.82205397  0.49064792  1
  Cr  Cr34  1  0.98841657  0.65743152  0.65943661  1
  Cr  Cr35  1  0.15958428  0.82471519  0.82618563  1
  Cr  Cr36  1  0.49430085  0.16134315  0.49180589  1
  Cr  Cr37  1  0.32609302  0.99222202  0.65848234  1
  Cr  Cr38  1  0.49505242  0.15970286  0.82657599  1
  Cr  Cr39  1  0.49390328  0.49383417  0.49159143  1
  Cr  Cr40  1  0.32778629  0.32774044  0.66207268  1
  Ni  Ni41  1  0.49836720  0.49530744  0.82685583  1
  Cr  Cr42  1  0.49341113  0.82329175  0.49398528  1
  Cr  Cr43  1  0.32969243  0.65813329  0.66076552  1
  Cr  Cr44  1  0.49575016  0.82431232  0.82604364  1
  Cr  Cr45  1  0.82539470  0.16390164  0.49246329  1
  Cr  Cr46  1  0.66006827  0.99036104  0.65816047  1
  Cr  Cr47  1  0.82522142  0.16117691  0.82686187  1
  Ni  Ni48  1  0.82562306  0.49315270  0.49316003  1
  Cr  Cr49  1  0.66087096  0.33061966  0.65852612  1
  Ni  Ni50  1  0.82181020  0.49402687  0.82449519  1
  Cr  Cr51  1  0.82516129  0.82180370  0.49276375  1
  Ni  Ni52  1  0.66130853  0.65484717  0.66122548  1
  Cr  Cr53  1  0.82295955  0.82419783  0.82848948  1
" 