3762,Ni81Fe6Cr11_6,-235.553535653845, 173.018324441755,Ni81Fe6Cr11,"# generated using pymatgen
 data_Cr7Fe3Ni44
_symmetry_space_group_name_H-M   'P 1'
_cell_length_a   7.45974765
_cell_length_b   7.45974765
_cell_length_c   10.54967630
_cell_angle_alpha   90.00000000
_cell_angle_beta   90.00000000
_cell_angle_gamma   90.00000000
_symmetry_Int_Tables_number   1
_chemical_formula_structural   Cr7Fe3Ni44
_chemical_formula_sum   'Cr7 Fe3 Ni44'
_cell_volume   587.06664619
_cell_formula_units_Z   1
loop_
 _symmetry_equiv_pos_site_id
 _symmetry_equiv_pos_as_xyz
  1  'x, y, z'
loop_
 _atom_site_type_symbol
 _atom_site_label
 _atom_site_symmetry_multiplicity
 _atom_site_fract_x
 _atom_site_fract_y
 _atom_site_fract_z
 _atom_site_occupancy
  Ni  Ni0  1  0.00071906  0.00206308  0.00112483  1
  Ni  Ni1  1  0.16563773  0.16737295  0.16773747  1
  Ni  Ni2  1  0.00056639  0.00231741  0.33452744  1
  Ni  Ni3  1  0.00073890  0.33261769  0.00056506  1
  Ni  Ni4  1  0.16715610  0.49899561  0.16551969  1
  Ni  Ni5  1  0.99978001  0.33078681  0.33259278  1
  Fe  Fe6  1  0.00092923  0.66589578  0.00104355  1
  Ni  Ni7  1  0.16707667  0.83509974  0.16594441  1
  Cr  Cr8  1  0.99857169  0.66810758  0.33262242  1
  Fe  Fe9  1  0.33254043  0.99915142  1.00043937  1
  Cr  Cr10  1  0.50045566  0.16712512  0.16768542  1
  Ni  Ni11  1  0.33196417  0.00208407  0.33338706  1
  Ni  Ni12  1  0.33156697  0.33651266  0.00056325  1
  Ni  Ni13  1  0.50112194  0.50162787  0.16682657  1
  Ni  Ni14  1  0.33376421  0.33203331  0.33407183  1
  Ni  Ni15  1  0.33445508  0.66699075  1.00014940  1
  Ni  Ni16  1  0.50154920  0.83281425  0.16617946  1
  Cr  Cr17  1  0.33535048  0.66710863  0.33257686  1
  Ni  Ni18  1  0.66896665  0.99917176  0.00140036  1
  Ni  Ni19  1  0.83547271  0.16694299  0.16707764  1
  Ni  Ni20  1  0.66893595  0.00053609  0.33360819  1
  Ni  Ni21  1  0.66916298  0.33528824  1.00015373  1
  Ni  Ni22  1  0.83318761  0.50018968  0.16669254  1
  Ni  Ni23  1  0.66792405  0.33437047  0.33485638  1
  Ni  Ni24  1  0.66506975  0.66700699  0.00152457  1
  Ni  Ni25  1  0.83284101  0.83433111  0.16708302  1
  Ni  Ni26  1  0.66768895  0.66655975  0.33306019  1
  Ni  Ni27  1  0.16753561  0.16564920  0.49998532  1
  Fe  Fe28  1  0.00142770  0.00125266  0.66629637  1
  Ni  Ni29  1  0.16592134  0.16765514  0.83374713  1
  Cr  Cr30  1  0.16721603  0.49908705  0.50172438  1
  Ni  Ni31  1  0.99973506  0.33346676  0.66830659  1
  Ni  Ni32  1  0.16735663  0.50039109  0.83385430  1
  Ni  Ni33  1  0.16544806  0.83708762  0.50220318  1
  Ni  Ni34  1  0.00092569  0.66698308  0.66746660  1
  Ni  Ni35  1  0.16907717  0.83342213  0.83332320  1
  Ni  Ni36  1  0.50043564  0.16866363  0.50028778  1
  Ni  Ni37  1  0.33237805  0.99977209  0.66751552  1
  Cr  Cr38  1  0.50085384  0.16712375  0.83385323  1
  Ni  Ni39  1  0.50301025  0.49784587  0.50110671  1
  Ni  Ni40  1  0.33336829  0.33390506  0.66683330  1
  Ni  Ni41  1  0.50015397  0.50200930  0.83353606  1
  Cr  Cr42  1  0.50145151  0.83459428  0.50108683  1
  Ni  Ni43  1  0.33342587  0.66778956  0.66904049  1
  Ni  Ni44  1  0.49886750  0.83223348  0.83403567  1
  Ni  Ni45  1  0.83349648  0.16702420  0.50039527  1
  Ni  Ni46  1  0.66755496  0.00096329  0.66645741  1
  Ni  Ni47  1  0.83514498  0.16894057  0.83399925  1
  Ni  Ni48  1  0.83136757  0.49993533  0.50125204  1
  Ni  Ni49  1  0.66836642  0.33451120  0.66645930  1
  Ni  Ni50  1  0.83395519  0.49885325  0.83352105  1
  Ni  Ni51  1  0.83438471  0.83450954  0.50082047  1
  Ni  Ni52  1  0.66711771  0.66599304  0.66688313  1
  Cr  Cr53  1  0.83325181  0.83365763  0.83341761  1
" 