3835,Ni81Fe6Cr11_3,-235.566043844924, 172.402709137234,Ni81Fe6Cr11,"# generated using pymatgen
 data_Cr7Fe3Ni44
_symmetry_space_group_name_H-M   'P 1'
_cell_length_a   7.45867454
_cell_length_b   7.45867454
_cell_length_c   10.54815869
_cell_angle_alpha   90.00000000
_cell_angle_beta   90.00000000
_cell_angle_gamma   90.00000000
_symmetry_Int_Tables_number   1
_chemical_formula_structural   Cr7Fe3Ni44
_chemical_formula_sum   'Cr7 Fe3 Ni44'
_cell_volume   586.81332798
_cell_formula_units_Z   1
loop_
 _symmetry_equiv_pos_site_id
 _symmetry_equiv_pos_as_xyz
  1  'x, y, z'
loop_
 _atom_site_type_symbol
 _atom_site_label
 _atom_site_symmetry_multiplicity
 _atom_site_fract_x
 _atom_site_fract_y
 _atom_site_fract_z
 _atom_site_occupancy
  Fe  Fe0  1  0.00120110  1.00001697  0.00137446  1
  Ni  Ni1  1  0.16758738  0.16761206  0.16702788  1
  Ni  Ni2  1  0.00091387  1.00056034  0.33380657  1
  Ni  Ni3  1  0.00136964  0.33551688  0.00056273  1
  Ni  Ni4  1  0.16680540  0.49944506  0.16753240  1
  Ni  Ni5  1  0.00072530  0.33395608  0.33444484  1
  Ni  Ni6  1  0.99883745  0.66627518  0.99964074  1
  Ni  Ni7  1  0.16694696  0.83462703  0.16804787  1
  Ni  Ni8  1  0.00110215  0.66716741  0.33406370  1
  Ni  Ni9  1  0.33474986  0.00254192  0.99974434  1
  Ni  Ni10  1  0.50055762  0.16746880  0.16603164  1
  Ni  Ni11  1  0.33395947  1.00037906  0.33406152  1
  Ni  Ni12  1  0.33275212  0.33067969  0.00064089  1
  Ni  Ni13  1  0.50144797  0.49969702  0.16861111  1
  Ni  Ni14  1  0.33382052  0.33380986  0.33393069  1
  Cr  Cr15  1  0.33238615  0.66852124  0.00134315  1
  Ni  Ni16  1  0.50145004  0.83451729  0.16778108  1
  Ni  Ni17  1  0.33362563  0.66749548  0.33412338  1
  Ni  Ni18  1  0.66536923  1.00000811  0.00063270  1
  Ni  Ni19  1  0.83353789  0.16761138  0.16765839  1
  Ni  Ni20  1  0.66681050  0.00075589  0.33444437  1
  Ni  Ni21  1  0.66756201  0.33340116  0.00210361  1
  Ni  Ni22  1  0.83343047  0.50033784  0.16626196  1
  Ni  Ni23  1  0.66713861  0.33362248  0.33374021  1
  Ni  Ni24  1  0.67020542  0.66827161  0.00056891  1
  Ni  Ni25  1  0.83328657  0.83373515  0.16677908  1
  Ni  Ni26  1  0.66695703  0.66730638  0.33393356  1
  Ni  Ni27  1  0.16603539  0.16797552  0.49966569  1
  Ni  Ni28  1  0.99953551  0.99951378  0.66687878  1
  Ni  Ni29  1  0.16737021  0.16765825  0.83499396  1
  Ni  Ni30  1  0.16556144  0.50003968  0.49990997  1
  Ni  Ni31  1  0.00117412  0.33505509  0.66667785  1
  Ni  Ni32  1  0.16375993  0.49916296  0.83423927  1
  Ni  Ni33  1  0.16647287  0.83366911  0.49947853  1
  Ni  Ni34  1  0.99864168  0.66711443  0.66797788  1
  Ni  Ni35  1  0.16574172  0.83486179  0.83416034  1
  Ni  Ni36  1  0.50139506  0.16598091  0.49924896  1
  Cr  Cr37  1  0.33398127  1.00042642  0.66770685  1
  Fe  Fe38  1  0.49955998  0.16450866  0.83661283  1
  Fe  Fe39  1  0.50140821  0.50143022  0.49761928  1
  Cr  Cr40  1  0.33117965  0.33287056  0.66697273  1
  Cr  Cr41  1  0.50208919  0.50119759  0.83512311  1
  Ni  Ni42  1  0.50229076  0.83432665  0.49966653  1
  Cr  Cr43  1  0.33253132  0.66838547  0.66652214  1
  Ni  Ni44  1  0.50293386  0.83574698  0.83423614  1
  Ni  Ni45  1  0.83425379  0.16689415  0.50011854  1
  Ni  Ni46  1  0.66823892  0.99778864  0.66660513  1
  Cr  Cr47  1  0.83503660  0.16675033  0.83397669  1
  Ni  Ni48  1  0.83491286  0.50093536  0.50093897  1
  Cr  Cr49  1  0.66920227  0.33355077  0.66551979  1
  Ni  Ni50  1  0.83607264  0.50296459  0.83447932  1
  Ni  Ni51  1  0.83292101  0.83385557  0.50183212  1
  Ni  Ni52  1  0.67046952  0.67017275  0.66718324  1
  Ni  Ni53  1  0.83300391  0.83213644  0.83307364  1
" 