8783,Ni81Fe12Cr5_19,-238.570578335978, 188.124588664283,Ni81Fe12Cr5,"# generated using pymatgen
 data_Cr2Fe3Ni22
_symmetry_space_group_name_H-M   'P 1'
_cell_length_a   7.44162880
_cell_length_b   7.44162880
_cell_length_c   10.52405237
_cell_angle_alpha   90.00000000
_cell_angle_beta   90.00000000
_cell_angle_gamma   90.00000000
_symmetry_Int_Tables_number   1
_chemical_formula_structural   Cr2Fe3Ni22
_chemical_formula_sum   'Cr4 Fe6 Ni44'
_cell_volume   582.79927923
_cell_formula_units_Z   2
loop_
 _symmetry_equiv_pos_site_id
 _symmetry_equiv_pos_as_xyz
  1  'x, y, z'
loop_
 _atom_site_type_symbol
 _atom_site_label
 _atom_site_symmetry_multiplicity
 _atom_site_fract_x
 _atom_site_fract_y
 _atom_site_fract_z
 _atom_site_occupancy
  Ni  Ni0  1  0.00264251  1.00123642  1.00115719  1
  Ni  Ni1  1  0.16883840  0.16873336  0.16859864  1
  Ni  Ni2  1  0.00217099  0.00256242  0.33428544  1
  Ni  Ni3  1  0.00281378  0.33459302  0.00277197  1
  Ni  Ni4  1  0.16807662  0.50069896  0.16870037  1
  Ni  Ni5  1  1.00135496  0.33550764  0.33448115  1
  Ni  Ni6  1  1.00129808  0.66926099  0.00236953  1
  Fe  Fe7  1  0.16811974  0.83565864  0.16904260  1
  Ni  Ni8  1  0.00312168  0.66704719  0.33407479  1
  Ni  Ni9  1  0.33401938  1.00099719  0.00251907  1
  Ni  Ni10  1  0.50041901  0.16837628  0.16899506  1
  Ni  Ni11  1  0.33583953  1.00153981  0.33582250  1
  Ni  Ni12  1  0.33435306  0.33526731  0.00281903  1
  Ni  Ni13  1  0.50125305  0.50160418  0.16789558  1
  Ni  Ni14  1  0.33563524  0.33553075  0.33456960  1
  Fe  Fe15  1  0.33379203  0.66733772  0.00193995  1
  Ni  Ni16  1  0.50176644  0.83504641  0.16862693  1
  Ni  Ni17  1  0.33490032  0.66804082  0.33437202  1
  Fe  Fe18  1  0.66983620  1.00162720  0.00313752  1
  Ni  Ni19  1  0.83604818  0.16850093  0.16827097  1
  Ni  Ni20  1  0.66721881  0.00335474  0.33317637  1
  Ni  Ni21  1  0.66807655  0.33645075  0.00289529  1
  Ni  Ni22  1  0.83549072  0.50209273  0.16901470  1
  Ni  Ni23  1  0.66816476  0.33452252  0.33540424  1
  Ni  Ni24  1  0.66764105  0.66903803  0.00282558  1
  Ni  Ni25  1  0.83516332  0.83454793  0.16847799  1
  Fe  Fe26  1  0.66699554  0.66718571  0.33399245  1
  Ni  Ni27  1  0.16854956  0.16768617  0.50168524  1
  Ni  Ni28  1  0.00406465  0.00274608  0.66970524  1
  Ni  Ni29  1  0.16739903  0.16839036  0.83481856  1
  Fe  Fe30  1  0.16878293  0.50187770  0.50126050  1
  Ni  Ni31  1  0.00352982  0.33434867  0.66762409  1
  Ni  Ni32  1  0.16980224  0.50129068  0.83480446  1
  Ni  Ni33  1  0.17005659  0.83559543  0.50149030  1
  Ni  Ni34  1  0.00338564  0.66804102  0.66847046  1
  Ni  Ni35  1  0.16848961  0.83531427  0.83508964  1
  Ni  Ni36  1  0.49950544  0.16943525  0.50013706  1
  Ni  Ni37  1  0.33308497  1.00087152  0.66695541  1
  Cr  Cr38  1  0.49935341  0.17034999  0.83616303  1
  Ni  Ni39  1  0.50174330  0.50205351  0.50196853  1
  Ni  Ni40  1  0.33354761  0.33631263  0.66747776  1
  Ni  Ni41  1  0.49981517  0.50370835  0.83541910  1
  Ni  Ni42  1  0.49846551  0.83367909  0.50085634  1
  Ni  Ni43  1  0.33550929  0.66810141  0.66960288  1
  Ni  Ni44  1  0.50024894  0.83240496  0.83588250  1
  Ni  Ni45  1  0.83702084  0.17086470  0.50086097  1
  Cr  Cr46  1  0.66814403  1.00103874  0.66930336  1
  Ni  Ni47  1  0.83875020  0.16780497  0.83616449  1
  Ni  Ni48  1  0.83503297  0.50051483  0.50120977  1
  Fe  Fe49  1  0.66811097  0.33618999  0.66653160  1
  Cr  Cr50  1  0.83505424  0.50151353  0.83460753  1
  Cr  Cr51  1  0.83711539  0.83349543  0.50034587  1
  Ni  Ni52  1  0.66638008  0.66735783  0.66772464  1
  Ni  Ni53  1  0.83623313  0.83487874  0.83582965  1
" 