3858,Ni81Fe13Cr4_11,-238.971996961616, 190.980977269117,Ni81Fe13Cr4,"# generated using pymatgen
 data_Cr4Fe7Ni43
_symmetry_space_group_name_H-M   'P 1'
_cell_length_a   7.44034332
_cell_length_b   7.44034332
_cell_length_c   10.52223442
_cell_angle_alpha   90.00000000
_cell_angle_beta   90.00000000
_cell_angle_gamma   90.00000000
_symmetry_Int_Tables_number   1
_chemical_formula_structural   Cr4Fe7Ni43
_chemical_formula_sum   'Cr4 Fe7 Ni43'
_cell_volume   582.49730982
_cell_formula_units_Z   1
loop_
 _symmetry_equiv_pos_site_id
 _symmetry_equiv_pos_as_xyz
  1  'x, y, z'
loop_
 _atom_site_type_symbol
 _atom_site_label
 _atom_site_symmetry_multiplicity
 _atom_site_fract_x
 _atom_site_fract_y
 _atom_site_fract_z
 _atom_site_occupancy
  Fe  Fe0  1  0.99802403  1.00117561  1.00121855  1
  Ni  Ni1  1  0.16935752  0.16927637  0.16920959  1
  Ni  Ni2  1  1.00127458  1.00092370  0.33478838  1
  Cr  Cr3  1  1.00173556  0.33602019  0.00225046  1
  Ni  Ni4  1  0.17036766  0.50187557  0.16820526  1
  Cr  Cr5  1  0.00220607  0.33557382  0.33548331  1
  Ni  Ni6  1  1.00076779  0.66804295  1.00162150  1
  Cr  Cr7  1  0.16662752  0.83412383  0.16963562  1
  Ni  Ni8  1  1.00160118  0.66933128  0.33545568  1
  Cr  Cr9  1  0.33673489  0.00308956  1.00164213  1
  Ni  Ni10  1  0.50272366  0.16974838  0.16916321  1
  Fe  Fe11  1  0.33625994  0.00234099  0.33620534  1
  Fe  Fe12  1  0.33721937  0.33686974  0.00182506  1
  Ni  Ni13  1  0.50166776  0.50135484  0.16816226  1
  Ni  Ni14  1  0.33611882  0.33519808  0.33373240  1
  Fe  Fe15  1  0.33676581  0.66568256  0.00190502  1
  Ni  Ni16  1  0.50456246  0.83427935  0.16895398  1
  Ni  Ni17  1  0.33579547  0.66762379  0.33545510  1
  Ni  Ni18  1  0.66853493  1.00137781  0.00196239  1
  Ni  Ni19  1  0.83330241  0.16637527  0.16785435  1
  Ni  Ni20  1  0.66805411  1.00124772  0.33439969  1
  Ni  Ni21  1  0.66734398  0.33525236  0.00207837  1
  Ni  Ni22  1  0.83335361  0.50371983  0.16814393  1
  Ni  Ni23  1  0.66634814  0.33487351  0.33464614  1
  Ni  Ni24  1  0.66903724  0.66875233  0.00247798  1
  Ni  Ni25  1  0.83382487  0.83528734  0.16836925  1
  Ni  Ni26  1  0.66798755  0.66926302  0.33434133  1
  Ni  Ni27  1  0.16935925  0.16731935  0.50258126  1
  Ni  Ni28  1  0.00277682  0.00198753  0.66948979  1
  Ni  Ni29  1  0.16880980  0.16840322  0.83359250  1
  Ni  Ni30  1  0.16936393  0.50293121  0.50248010  1
  Ni  Ni31  1  0.00263037  0.33554608  0.66840128  1
  Ni  Ni32  1  0.16971136  0.50256830  0.83469637  1
  Ni  Ni33  1  0.16798934  0.83513256  0.50205869  1
  Ni  Ni34  1  1.00153174  0.66784951  0.66830609  1
  Fe  Fe35  1  0.16681404  0.83448525  0.83382733  1
  Ni  Ni36  1  0.50165056  0.16857617  0.50172820  1
  Ni  Ni37  1  0.33507129  0.00268955  0.66761616  1
  Ni  Ni38  1  0.50228806  0.16960649  0.83449016  1
  Ni  Ni39  1  0.50165148  0.50167735  0.50162567  1
  Ni  Ni40  1  0.33441390  0.33403840  0.66928071  1
  Ni  Ni41  1  0.50134167  0.50131548  0.83559312  1
  Ni  Ni42  1  0.50176787  0.83512894  0.50193137  1
  Fe  Fe43  1  0.33513837  0.66803927  0.66758016  1
  Fe  Fe44  1  0.50355504  0.83478223  0.83440785  1
  Ni  Ni45  1  0.83437367  0.16720043  0.50303867  1
  Ni  Ni46  1  0.66753574  1.00159016  0.66902138  1
  Ni  Ni47  1  0.83428307  0.16656019  0.83449362  1
  Ni  Ni48  1  0.83436818  0.50304995  0.50294667  1
  Ni  Ni49  1  0.66833972  0.33528705  0.66865915  1
  Ni  Ni50  1  0.83433576  0.50346023  0.83429572  1
  Ni  Ni51  1  0.83562727  0.83513331  0.50122090  1
  Ni  Ni52  1  0.66904244  0.66850705  0.66856399  1
  Ni  Ni53  1  0.83553861  0.83536122  0.83579311  1
" 