1128,Ni81Fe3Cr15_8,-232.55360163343, 157.879701681061,Ni81Fe3Cr15,"# generated using pymatgen
 data_Cr10FeNi43
_symmetry_space_group_name_H-M   'P 1'
_cell_length_a   7.47278518
_cell_length_b   7.47278518
_cell_length_c   10.56811415
_cell_angle_alpha   90.00000000
_cell_angle_beta   90.00000000
_cell_angle_gamma   90.00000000
_symmetry_Int_Tables_number   1
_chemical_formula_structural   Cr10FeNi43
_chemical_formula_sum   'Cr10 Fe1 Ni43'
_cell_volume   590.15010875
_cell_formula_units_Z   1
loop_
 _symmetry_equiv_pos_site_id
 _symmetry_equiv_pos_as_xyz
  1  'x, y, z'
loop_
 _atom_site_type_symbol
 _atom_site_label
 _atom_site_symmetry_multiplicity
 _atom_site_fract_x
 _atom_site_fract_y
 _atom_site_fract_z
 _atom_site_occupancy
  Ni  Ni0  1  0.99898794  0.00056149  0.00056063  1
  Ni  Ni1  1  0.16491653  0.16693047  0.16561925  1
  Ni  Ni2  1  0.99717369  0.00080495  0.33150116  1
  Ni  Ni3  1  0.00075576  0.33221075  0.99821057  1
  Ni  Ni4  1  0.16859800  0.50021857  0.16603750  1
  Ni  Ni5  1  -0.00011886  0.33224580  0.33403690  1
  Ni  Ni6  1  -0.00010055  0.66607613  0.99918100  1
  Ni  Ni7  1  0.16502333  0.83170002  0.16572347  1
  Ni  Ni8  1  -0.00005929  0.66579761  0.33330366  1
  Cr  Cr9  1  0.33057029  0.00022398  0.00194810  1
  Ni  Ni10  1  0.50031054  0.16820306  0.16692089  1
  Cr  Cr11  1  0.33384613  -0.00025290  0.33189950  1
  Ni  Ni12  1  0.33202113  0.33608118  0.00062807  1
  Ni  Ni13  1  0.49754433  0.49986135  0.16543670  1
  Fe  Fe14  1  0.33288831  0.33481018  0.33294928  1
  Ni  Ni15  1  0.33328887  0.66261611  0.00145223  1
  Ni  Ni16  1  0.49984743  0.83078494  0.16702525  1
  Ni  Ni17  1  0.33410544  0.66435984  0.33165122  1
  Cr  Cr18  1  0.66936018  0.99949506  0.00166328  1
  Ni  Ni19  1  0.83362038  0.16462688  0.16681200  1
  Ni  Ni20  1  0.66756861  0.99953493  0.33315686  1
  Ni  Ni21  1  0.66607123  0.33516957  0.99912422  1
  Cr  Cr22  1  0.83271869  0.49944929  0.16621231  1
  Ni  Ni23  1  0.66613210  0.33224641  0.33379325  1
  Ni  Ni24  1  0.66566017  0.66438544  0.99932767  1
  Ni  Ni25  1  0.83397797  0.83446521  0.16682646  1
  Ni  Ni26  1  0.66480222  0.66706706  0.33382961  1
  Ni  Ni27  1  0.16580628  0.16859302  0.50130933  1
  Ni  Ni28  1  0.99838354  0.00182369  0.66678615  1
  Ni  Ni29  1  0.16363959  0.16868687  0.83191923  1
  Ni  Ni30  1  0.16544451  0.49754275  0.49901061  1
  Ni  Ni31  1  0.00015371  0.33222893  0.66660161  1
  Ni  Ni32  1  0.16514891  0.49742035  0.83380003  1
  Cr  Cr33  1  0.16461401  0.83272335  0.50030169  1
  Ni  Ni34  1  0.99820056  0.66479537  0.66636439  1
  Cr  Cr35  1  0.16343332  0.83315609  0.83274331  1
  Ni  Ni36  1  0.50072060  0.16691062  0.50116648  1
  Ni  Ni37  1  0.33304350  0.00328311  0.66482648  1
  Cr  Cr38  1  0.49959309  0.16931451  0.83077908  1
  Ni  Ni39  1  0.49981248  0.49795442  0.49809761  1
  Ni  Ni40  1  0.33177874  0.33127544  0.66527107  1
  Ni  Ni41  1  0.49993744  0.49782696  0.83531522  1
  Ni  Ni42  1  0.50212112  0.83398315  0.49905426  1
  Cr  Cr43  1  0.33250918  0.66420535  0.66567318  1
  Cr  Cr44  1  0.50055159  0.83178669  0.83253274  1
  Ni  Ni45  1  0.83232130  0.16628525  0.49975816  1
  Ni  Ni46  1  0.66742186  0.00132543  0.66420972  1
  Ni  Ni47  1  0.83544979  0.16735220  0.83227875  1
  Ni  Ni48  1  0.83359073  0.49894334  0.49936079  1
  Ni  Ni49  1  0.66691575  0.33145969  0.66593117  1
  Ni  Ni50  1  0.83376164  0.49893287  0.83359043  1
  Ni  Ni51  1  0.83190802  0.83362013  0.49907440  1
  Cr  Cr52  1  0.66845474  0.66560324  0.66573498  1
  Ni  Ni53  1  0.83504293  0.83256334  0.83294760  1
" 