8811,Ni81Fe3Cr15_19,-232.719800582592, 162.135910388928,Ni81Fe3Cr15,"# generated using pymatgen
 data_Cr10FeNi43
_symmetry_space_group_name_H-M   'P 1'
_cell_length_a   7.47162821
_cell_length_b   7.47162821
_cell_length_c   10.56647795
_cell_angle_alpha   90.00000000
_cell_angle_beta   90.00000000
_cell_angle_gamma   90.00000000
_symmetry_Int_Tables_number   1
_chemical_formula_structural   Cr10FeNi43
_chemical_formula_sum   'Cr10 Fe1 Ni43'
_cell_volume   589.87604213
_cell_formula_units_Z   1
loop_
 _symmetry_equiv_pos_site_id
 _symmetry_equiv_pos_as_xyz
  1  'x, y, z'
loop_
 _atom_site_type_symbol
 _atom_site_label
 _atom_site_symmetry_multiplicity
 _atom_site_fract_x
 _atom_site_fract_y
 _atom_site_fract_z
 _atom_site_occupancy
  Ni  Ni0  1  -0.00020757  0.00088392  0.99945896  1
  Ni  Ni1  1  0.16526386  0.16539273  0.16707032  1
  Ni  Ni2  1  0.99916432  0.00049620  0.33356618  1
  Ni  Ni3  1  0.99815465  0.33193252  0.99969310  1
  Cr  Cr4  1  0.16401391  0.49933086  0.16730089  1
  Ni  Ni5  1  0.99933562  0.33251952  0.33315731  1
  Ni  Ni6  1  0.00032907  0.66626398  0.00004474  1
  Cr  Cr7  1  0.16639907  0.83419600  0.16624965  1
  Ni  Ni8  1  0.99950271  0.66606411  0.33427184  1
  Ni  Ni9  1  0.33407164  0.99928875  0.99887191  1
  Ni  Ni10  1  0.50140039  0.16375864  0.16706954  1
  Ni  Ni11  1  0.33407195  0.00090145  0.33338466  1
  Cr  Cr12  1  0.33269543  0.33098450  0.99781447  1
  Cr  Cr13  1  0.50035616  0.49855125  0.16730599  1
  Ni  Ni14  1  0.33301083  0.33122400  0.33482728  1
  Fe  Fe15  1  0.33218752  0.66900800  0.99699419  1
  Ni  Ni16  1  0.50011842  0.83663408  0.16592986  1
  Ni  Ni17  1  0.33244124  0.66695591  0.33469505  1
  Ni  Ni18  1  0.66521625  0.00146301  0.00089242  1
  Ni  Ni19  1  0.83241596  0.16645897  0.16564410  1
  Ni  Ni20  1  0.66584410  0.00106709  0.33213199  1
  Ni  Ni21  1  0.66791373  0.33029142  -0.00017098  1
  Ni  Ni22  1  0.83453965  0.49789644  0.16603837  1
  Ni  Ni23  1  0.66673457  0.33088835  0.33302143  1
  Cr  Cr24  1  0.66614187  0.66716537  0.00054165  1
  Ni  Ni25  1  0.83290691  0.83472456  0.16627569  1
  Cr  Cr26  1  0.66756010  0.66736772  0.33420311  1
  Ni  Ni27  1  0.16629873  0.16642209  0.49975544  1
  Ni  Ni28  1  0.00234856  0.00010141  0.66605459  1
  Ni  Ni29  1  0.16586237  0.16559909  0.83225461  1
  Ni  Ni30  1  0.16630048  0.49999457  0.49965625  1
  Ni  Ni31  1  0.00252254  0.33268189  0.66623007  1
  Ni  Ni32  1  0.16758003  0.50051459  0.83243840  1
  Ni  Ni33  1  0.16612638  0.83266365  0.49983083  1
  Ni  Ni34  1  0.00119577  0.66629727  0.66476145  1
  Ni  Ni35  1  0.16846642  0.83296827  0.83332500  1
  Ni  Ni36  1  0.49828296  0.16659670  0.49757226  1
  Ni  Ni37  1  0.33124313  0.99944553  0.66682380  1
  Ni  Ni38  1  0.49871949  0.16577335  0.83443761  1
  Ni  Ni39  1  0.49828221  0.49982117  0.50006723  1
  Ni  Ni40  1  0.33124211  0.33351206  0.66644922  1
  Ni  Ni41  1  0.49699736  0.50033720  0.83202331  1
  Ni  Ni42  1  0.49828100  0.83266262  0.49969183  1
  Ni  Ni43  1  0.33322465  0.66612335  0.66753004  1
  Ni  Ni44  1  0.49593750  0.83297117  0.83346003  1
  Ni  Ni45  1  0.83449974  0.16642262  0.49809631  1
  Cr  Cr46  1  0.66577828  0.99844409  0.66573533  1
  Ni  Ni47  1  0.83449991  0.16665908  0.83534056  1
  Ni  Ni48  1  0.83449820  0.49999239  0.49949166  1
  Cr  Cr49  1  0.66538029  0.33409765  0.66613645  1
  Cr  Cr50  1  0.83428166  0.49779169  0.83310195  1
  Ni  Ni51  1  0.83467317  0.83266504  0.49966650  1
  Ni  Ni52  1  0.66465838  0.66629755  0.66476054  1
  Cr  Cr53  1  0.83468353  0.83488177  0.83247222  1
" 