6084,Ni81Cr19_4,-206.922583524208, 155.659543478895,Ni81Cr19,"# generated using pymatgen
 data_Cr43Ni11
_symmetry_space_group_name_H-M   'P 1'
_cell_length_a   7.58526237
_cell_length_b   7.58526237
_cell_length_c   10.72718091
_cell_angle_alpha   90.00000000
_cell_angle_beta   90.00000000
_cell_angle_gamma   90.00000000
_symmetry_Int_Tables_number   1
_chemical_formula_structural   Cr43Ni11
_chemical_formula_sum   'Cr43 Ni11'
_cell_volume   617.20128217
_cell_formula_units_Z   1
loop_
 _symmetry_equiv_pos_site_id
 _symmetry_equiv_pos_as_xyz
  1  'x, y, z'
loop_
 _atom_site_type_symbol
 _atom_site_label
 _atom_site_symmetry_multiplicity
 _atom_site_fract_x
 _atom_site_fract_y
 _atom_site_fract_z
 _atom_site_occupancy
  Cr  Cr0  1  0.99088686  0.99078497  0.98994472  1
  Cr  Cr1  1  0.15711595  0.16131261  0.16008919  1
  Cr  Cr2  1  -0.00628202  0.99083019  0.32682003  1
  Cr  Cr3  1  0.99010893  0.32560620  0.99144924  1
  Cr  Cr4  1  0.15754272  0.49237475  0.16047636  1
  Ni  Ni5  1  -0.00739592  0.32834492  0.32545338  1
  Cr  Cr6  1  0.99104029  0.66039350  0.98901636  1
  Cr  Cr7  1  0.15908919  0.82300544  0.16038913  1
  Ni  Ni8  1  -0.00420147  0.65783884  0.32666682  1
  Cr  Cr9  1  0.32503630  -0.00747075  0.99132613  1
  Cr  Cr10  1  0.49361716  0.15625533  0.15598412  1
  Cr  Cr11  1  0.32419050  0.99036884  0.32651821  1
  Cr  Cr12  1  0.32708798  0.32470026  0.99190347  1
  Cr  Cr13  1  0.49041825  0.49447864  0.15959408  1
  Cr  Cr14  1  0.32686734  0.32662309  0.32556484  1
  Cr  Cr15  1  0.32386097  0.65960532  -0.00763288  1
  Cr  Cr16  1  0.49326422  0.82580462  0.15798302  1
  Ni  Ni17  1  0.32278943  0.65843544  0.32793988  1
  Ni  Ni18  1  0.66049620  -0.00650622  0.98853070  1
  Cr  Cr19  1  0.82601069  0.15851726  0.15993383  1
  Cr  Cr20  1  0.65870482  -0.00735156  0.32483806  1
  Cr  Cr21  1  0.65943817  0.32488925  0.99050577  1
  Cr  Cr22  1  0.82873576  0.49247174  0.16086319  1
  Cr  Cr23  1  0.65849488  0.32668668  0.32676391  1
  Cr  Cr24  1  0.66161373  0.65886368  0.99080708  1
  Cr  Cr25  1  0.82422195  0.82569510  0.15874440  1
  Cr  Cr26  1  0.65786545  0.65722469  0.32652892  1
  Cr  Cr27  1  0.15703001  0.15975535  0.49158300  1
  Cr  Cr28  1  -0.00716510  0.98956019  0.65992319  1
  Cr  Cr29  1  0.15939492  0.15922196  0.82522104  1
  Cr  Cr30  1  0.15848241  0.49292331  0.49051309  1
  Cr  Cr31  1  0.98944998  0.32526477  0.66102655  1
  Cr  Cr32  1  0.15779443  0.49277786  0.82630144  1
  Ni  Ni33  1  0.15887870  0.82241853  0.48986050  1
  Cr  Cr34  1  0.99181329  0.66182178  0.66197934  1
  Ni  Ni35  1  0.15664409  0.82599577  0.82522997  1
  Cr  Cr36  1  0.49268525  0.15868910  0.49386848  1
  Cr  Cr37  1  0.32308624  0.99107224  0.65867694  1
  Ni  Ni38  1  0.49630225  0.15734471  0.82682199  1
  Ni  Ni39  1  0.49045200  0.49371775  0.49062418  1
  Cr  Cr40  1  0.32857804  0.32553224  0.65886097  1
  Cr  Cr41  1  0.49204885  0.49214332  0.82479381  1
  Cr  Cr42  1  0.49120079  0.82361833  0.49115270  1
  Cr  Cr43  1  0.32413783  0.66003261  0.65696178  1
  Cr  Cr44  1  0.49339577  0.82765317  0.82710973  1
  Cr  Cr45  1  0.82702830  0.15954821  0.49087346  1
  Cr  Cr46  1  0.66077569  -0.00686212  0.66072011  1
  Ni  Ni47  1  0.82231236  0.15744299  0.82680177  1
  Cr  Cr48  1  0.82720205  0.49219206  0.49094920  1
  Cr  Cr49  1  0.65858027  0.32661629  0.65948184  1
  Ni  Ni50  1  0.82527807  0.49204158  0.82568266  1
  Cr  Cr51  1  0.82665792  0.82488564  0.49126114  1
  Cr  Cr52  1  0.66046148  0.65678640  0.65907859  1
  Ni  Ni53  1  0.82608633  0.82723372  0.82685111  1
" 