4445,Ni81Cr19_0,-207.204434479726, 163.195483038884,Ni81Cr19,"# generated using pymatgen
 data_Cr43Ni11
_symmetry_space_group_name_H-M   'P 1'
_cell_length_a   7.57811239
_cell_length_b   7.57811239
_cell_length_c   10.71706932
_cell_angle_alpha   90.00000000
_cell_angle_beta   90.00000000
_cell_angle_gamma   90.00000000
_symmetry_Int_Tables_number   1
_chemical_formula_structural   Cr43Ni11
_chemical_formula_sum   'Cr43 Ni11'
_cell_volume   615.45757877
_cell_formula_units_Z   1
loop_
 _symmetry_equiv_pos_site_id
 _symmetry_equiv_pos_as_xyz
  1  'x, y, z'
loop_
 _atom_site_type_symbol
 _atom_site_label
 _atom_site_symmetry_multiplicity
 _atom_site_fract_x
 _atom_site_fract_y
 _atom_site_fract_z
 _atom_site_occupancy
  Cr  Cr0  1  0.99097443  0.98905264  0.99009160  1
  Cr  Cr1  1  0.15931732  0.16003004  0.15811973  1
  Cr  Cr2  1  0.99212163  0.99057428  0.32715210  1
  Cr  Cr3  1  0.99226032  0.33007015  -0.00587665  1
  Ni  Ni4  1  0.15993494  0.49217710  0.15941596  1
  Cr  Cr5  1  0.99241745  0.32952652  0.32460084  1
  Cr  Cr6  1  0.99072274  0.65869876  -0.00607687  1
  Cr  Cr7  1  0.16060212  0.82614780  0.15971887  1
  Cr  Cr8  1  0.99180052  0.65776441  0.32371151  1
  Cr  Cr9  1  0.32831169  -0.00694789  -0.00574468  1
  Ni  Ni10  1  0.49292085  0.16217057  0.15981477  1
  Cr  Cr11  1  0.32877145  -0.00554655  0.32623420  1
  Cr  Cr12  1  0.32893159  0.32866464  -0.00549829  1
  Ni  Ni13  1  0.49541541  0.49320934  0.15889070  1
  Cr  Cr14  1  0.32884232  0.32681932  0.32442070  1
  Cr  Cr15  1  0.32732820  0.65607003  -0.00659851  1
  Cr  Cr16  1  0.49443686  0.82393237  0.15963324  1
  Cr  Cr17  1  0.32605612  0.65665447  0.32438331  1
  Cr  Cr18  1  0.65899604  0.99121591  0.99183139  1
  Cr  Cr19  1  0.82563574  0.16111821  0.15894419  1
  Cr  Cr20  1  0.65718547  -0.00595005  0.32707093  1
  Cr  Cr21  1  0.65682158  0.32895269  -0.00581122  1
  Ni  Ni22  1  0.82267435  0.49488777  0.15954628  1
  Cr  Cr23  1  0.65677726  0.32683048  0.32497696  1
  Ni  Ni24  1  0.65914377  0.65661392  0.99265725  1
  Cr  Cr25  1  0.82291809  0.82403141  0.15935295  1
  Ni  Ni26  1  0.65879336  0.65641313  0.32336793  1
  Cr  Cr27  1  0.15959097  0.16037934  0.49294846  1
  Cr  Cr28  1  0.99070128  0.99013532  0.66052787  1
  Cr  Cr29  1  0.15908534  0.16040879  0.82696775  1
  Cr  Cr30  1  0.16062761  0.49311826  0.49413101  1
  Cr  Cr31  1  0.99163500  0.32727716  0.65903823  1
  Cr  Cr32  1  0.16250334  0.49232674  0.82426081  1
  Cr  Cr33  1  0.16189396  0.82464992  0.49275864  1
  Cr  Cr34  1  0.99207078  0.66052677  0.65985479  1
  Cr  Cr35  1  0.16142476  0.82558117  0.82554295  1
  Ni  Ni36  1  0.49252316  0.15977709  0.49229914  1
  Cr  Cr37  1  0.32808206  0.99202330  0.65786918  1
  Cr  Cr38  1  0.49221106  0.16116841  0.82682876  1
  Cr  Cr39  1  0.49412135  0.49560525  0.49481330  1
  Cr  Cr40  1  0.32895541  0.32732570  0.65950273  1
  Ni  Ni41  1  0.49437696  0.49638822  0.82507099  1
  Cr  Cr42  1  0.49359760  0.82265738  0.49266753  1
  Ni  Ni43  1  0.32968809  0.65836453  0.66065074  1
  Cr  Cr44  1  0.49445200  0.82132900  0.82584992  1
  Cr  Cr45  1  0.82569097  0.16108207  0.49252350  1
  Cr  Cr46  1  0.65936104  0.99211959  0.65913064  1
  Cr  Cr47  1  0.82667760  0.15968457  0.82653066  1
  Cr  Cr48  1  0.82316029  0.49403636  0.49188354  1
  Cr  Cr49  1  0.65732875  0.32618578  0.65917567  1
  Cr  Cr50  1  0.82182874  0.49410248  0.82568700  1
  Cr  Cr51  1  0.82256564  0.82303041  0.49174816  1
  Ni  Ni52  1  0.65738076  0.65951716  0.66184462  1
  Ni  Ni53  1  0.82264198  0.82230587  0.82585238  1
" 