7184,Ni81Fe3Cr15_18,-232.698970406503, 158.9834019476,Ni81Fe3Cr15,"# generated using pymatgen
 data_Cr10FeNi43
_symmetry_space_group_name_H-M   'P 1'
_cell_length_a   7.47248120
_cell_length_b   7.47248120
_cell_length_c   10.56768426
_cell_angle_alpha   90.00000000
_cell_angle_beta   90.00000000
_cell_angle_gamma   90.00000000
_symmetry_Int_Tables_number   1
_chemical_formula_structural   Cr10FeNi43
_chemical_formula_sum   'Cr10 Fe1 Ni43'
_cell_volume   590.07809290
_cell_formula_units_Z   1
loop_
 _symmetry_equiv_pos_site_id
 _symmetry_equiv_pos_as_xyz
  1  'x, y, z'
loop_
 _atom_site_type_symbol
 _atom_site_label
 _atom_site_symmetry_multiplicity
 _atom_site_fract_x
 _atom_site_fract_y
 _atom_site_fract_z
 _atom_site_occupancy
  Ni  Ni0  1  0.99748348  0.99666665  -0.00005653  1
  Ni  Ni1  1  0.16559380  0.16589534  0.16852346  1
  Ni  Ni2  1  -0.00021723  -0.00036270  0.33247910  1
  Cr  Cr3  1  0.99623474  0.33266361  0.00128786  1
  Ni  Ni4  1  0.16671933  0.50093090  0.16738053  1
  Ni  Ni5  1  -0.00027830  0.33267265  0.33269951  1
  Ni  Ni6  1  0.99841771  0.66960989  -0.00005579  1
  Ni  Ni7  1  0.16369043  0.83208376  0.16605327  1
  Ni  Ni8  1  -0.00027837  0.66659940  0.33242030  1
  Cr  Cr9  1  0.33163199  0.99714742  0.99956664  1
  Ni  Ni10  1  0.50096251  0.16885371  0.16749813  1
  Ni  Ni11  1  0.33226999  0.00057374  0.33418065  1
  Cr  Cr12  1  0.33468207  0.33450499  0.00334629  1
  Ni  Ni13  1  0.49994015  0.49807728  0.16626906  1
  Ni  Ni14  1  0.33326708  0.33267254  0.33244928  1
  Ni  Ni15  1  0.33279713  0.66789039  0.00009645  1
  Cr  Cr16  1  0.50047412  0.83191449  0.16701720  1
  Ni  Ni17  1  0.33232997  0.66566277  0.33295972  1
  Fe  Fe18  1  0.66999290  0.99898746  -0.00011404  1
  Ni  Ni19  1  0.83235474  0.16582075  0.16615284  1
  Ni  Ni20  1  0.66685751  0.00057451  0.33289160  1
  Ni  Ni21  1  0.66789688  0.33362364  0.00082043  1
  Ni  Ni22  1  0.83225056  0.49998292  0.16630244  1
  Ni  Ni23  1  0.66592051  0.33273344  0.33247839  1
  Ni  Ni24  1  0.66769419  0.66576365  0.99863718  1
  Ni  Ni25  1  0.83520728  0.83310521  0.16564787  1
  Ni  Ni26  1  0.66685734  0.66560195  0.33415244  1
  Ni  Ni27  1  0.16693609  0.16630283  0.50049383  1
  Ni  Ni28  1  0.00106585  0.99947022  0.66648655  1
  Cr  Cr29  1  0.16410748  0.16421505  0.82945862  1
  Ni  Ni30  1  0.16581360  0.49851293  0.49912038  1
  Ni  Ni31  1  0.99796413  0.33267182  0.66545319  1
  Cr  Cr32  1  0.16411418  0.50169638  0.83214280  1
  Ni  Ni33  1  0.16581258  0.83409329  0.49940008  1
  Ni  Ni34  1  0.99718005  0.66676696  0.66654498  1
  Ni  Ni35  1  0.16451367  0.83320676  0.83345587  1
  Ni  Ni36  1  0.49820006  0.16723926  0.49918877  1
  Ni  Ni37  1  0.33101724  0.00007412  0.66521139  1
  Cr  Cr38  1  0.50147128  0.16599171  0.83214552  1
  Ni  Ni39  1  0.50044232  0.49869628  0.49918674  1
  Ni  Ni40  1  0.33280837  0.33075866  0.66337745  1
  Cr  Cr41  1  0.50254752  0.50100391  0.83323408  1
  Ni  Ni42  1  0.49950648  0.83297323  0.49867404  1
  Cr  Cr43  1  0.33334701  0.66843395  0.66547800  1
  Ni  Ni44  1  0.50044396  0.83197826  0.83383035  1
  Ni  Ni45  1  0.83377323  0.16723847  0.49933496  1
  Cr  Cr46  1  0.66668006  0.99859436  0.66604394  1
  Ni  Ni47  1  0.83301260  0.16605331  0.83342277  1
  Ni  Ni48  1  0.83265336  0.49981998  0.50070603  1
  Ni  Ni49  1  0.66813651  0.33464398  0.66561006  1
  Ni  Ni50  1  0.83178493  0.50086865  0.83190091  1
  Ni  Ni51  1  0.83359004  0.83185074  0.49903223  1
  Ni  Ni52  1  0.66873912  0.66497495  0.66612050  1
  Ni  Ni53  1  0.83395280  0.83198662  0.83422871  1
" 