5072,Ni81Fe3Cr15_3,-232.492176883152, 158.147433202544,Ni81Fe3Cr15,"# generated using pymatgen
 data_Cr10FeNi43
_symmetry_space_group_name_H-M   'P 1'
_cell_length_a   7.47204027
_cell_length_b   7.47204027
_cell_length_c   10.56706068
_cell_angle_alpha   90.00000000
_cell_angle_beta   90.00000000
_cell_angle_gamma   90.00000000
_symmetry_Int_Tables_number   1
_chemical_formula_structural   Cr10FeNi43
_chemical_formula_sum   'Cr10 Fe1 Ni43'
_cell_volume   589.97364135
_cell_formula_units_Z   1
loop_
 _symmetry_equiv_pos_site_id
 _symmetry_equiv_pos_as_xyz
  1  'x, y, z'
loop_
 _atom_site_type_symbol
 _atom_site_label
 _atom_site_symmetry_multiplicity
 _atom_site_fract_x
 _atom_site_fract_y
 _atom_site_fract_z
 _atom_site_occupancy
  Ni  Ni0  1  0.99914596  0.99845999  0.00043076  1
  Cr  Cr1  1  0.16542283  0.16588299  0.16673323  1
  Ni  Ni2  1  0.99929892  0.99884794  0.33359082  1
  Ni  Ni3  1  0.99549257  0.33345745  0.00010841  1
  Ni  Ni4  1  0.16559155  0.50206750  0.16742506  1
  Ni  Ni5  1  0.99929671  0.33359341  0.33406833  1
  Ni  Ni6  1  -0.00007573  0.66708051  0.00150430  1
  Ni  Ni7  1  0.16449808  0.83081924  0.16550575  1
  Ni  Ni8  1  0.00169986  0.66655643  0.33299944  1
  Ni  Ni9  1  0.33339860  0.99689721  0.99839744  1
  Ni  Ni10  1  0.50234821  0.16766574  0.16701517  1
  Ni  Ni11  1  0.33286704  0.00002210  0.33466135  1
  Cr  Cr12  1  0.33557654  0.33338776  0.00064721  1
  Ni  Ni13  1  0.49956054  0.49811185  0.16586580  1
  Ni  Ni14  1  0.33303349  0.33258331  0.33319099  1
  Ni  Ni15  1  0.33271503  0.66854682  0.99939171  1
  Cr  Cr16  1  0.49933879  0.83344916  0.16552212  1
  Ni  Ni17  1  0.32945574  0.66639240  0.33283370  1
  Ni  Ni18  1  0.66645375  0.00132711  0.99945088  1
  Ni  Ni19  1  0.83144424  0.16657083  0.16589001  1
  Ni  Ni20  1  0.66683242  0.00242514  0.33417503  1
  Ni  Ni21  1  0.66792058  0.33277481  0.99964909  1
  Ni  Ni22  1  0.83384499  0.49882050  0.16459885  1
  Ni  Ni23  1  0.66666779  0.33018199  0.33165841  1
  Ni  Ni24  1  0.66635856  0.66489530  0.99929260  1
  Ni  Ni25  1  0.83539997  0.83360631  0.16562807  1
  Cr  Cr26  1  0.66807250  0.66616049  0.33283443  1
  Ni  Ni27  1  0.16599475  0.16808831  0.49852882  1
  Cr  Cr28  1  0.99882119  0.99965840  0.66478855  1
  Cr  Cr29  1  0.16493153  0.16610855  0.83380995  1
  Ni  Ni30  1  0.16465901  0.49956039  0.49975104  1
  Ni  Ni31  1  0.99800401  0.33500624  0.66482034  1
  Cr  Cr32  1  0.16618009  0.50133762  0.83161288  1
  Ni  Ni33  1  0.16599561  0.83134921  0.49830336  1
  Ni  Ni34  1  -0.00030079  0.66433078  0.66449383  1
  Ni  Ni35  1  0.16809750  0.83114861  0.83518992  1
  Ni  Ni36  1  0.50043416  0.16518976  0.49898491  1
  Cr  Cr37  1  0.33485926  0.99904461  0.66614467  1
  Ni  Ni38  1  0.50314479  0.16654055  0.83299826  1
  Cr  Cr39  1  0.49843196  0.49926482  0.50030975  1
  Ni  Ni40  1  0.33398170  0.33409111  0.66533939  1
  Ni  Ni41  1  0.50123160  0.50061843  0.83240477  1
  Ni  Ni42  1  0.49991935  0.83476289  0.50051813  1
  Ni  Ni43  1  0.33313119  0.66609001  0.66677172  1
  Ni  Ni44  1  0.49917705  0.83183814  0.83348742  1
  Ni  Ni45  1  0.83256893  0.16652617  0.49909654  1
  Ni  Ni46  1  0.66525226  0.00051006  0.66537291  1
  Ni  Ni47  1  0.83048859  0.16805054  0.83401117  1
  Ni  Ni48  1  0.83598087  0.49904574  0.50150489  1
  Ni  Ni49  1  0.66701097  0.33259884  0.66768914  1
  Fe  Fe50  1  0.83100678  0.49825721  0.83294471  1
  Ni  Ni51  1  0.83308272  0.83342583  0.49958426  1
  Ni  Ni52  1  0.66616733  0.66588922  0.66664568  1
  Cr  Cr53  1  0.83204723  0.83304286  0.83378322  1
" 