5163,Ni81Fe12Cr5_3,-238.813350048092, 189.172994416267,Ni81Fe12Cr5,"# generated using pymatgen
 data_Cr2Fe3Ni22
_symmetry_space_group_name_H-M   'P 1'
_cell_length_a   7.44247655
_cell_length_b   7.44247655
_cell_length_c   10.52525127
_cell_angle_alpha   90.00000000
_cell_angle_beta   90.00000000
_cell_angle_gamma   90.00000000
_symmetry_Int_Tables_number   1
_chemical_formula_structural   Cr2Fe3Ni22
_chemical_formula_sum   'Cr4 Fe6 Ni44'
_cell_volume   582.99847925
_cell_formula_units_Z   2
loop_
 _symmetry_equiv_pos_site_id
 _symmetry_equiv_pos_as_xyz
  1  'x, y, z'
loop_
 _atom_site_type_symbol
 _atom_site_label
 _atom_site_symmetry_multiplicity
 _atom_site_fract_x
 _atom_site_fract_y
 _atom_site_fract_z
 _atom_site_occupancy
  Ni  Ni0  1  0.00311348  0.00299136  0.00177859  1
  Ni  Ni1  1  0.16816119  0.16779794  0.16886666  1
  Ni  Ni2  1  0.00208093  0.00189597  0.33611113  1
  Ni  Ni3  1  1.00137680  0.33533989  0.00219212  1
  Fe  Fe4  1  0.16866994  0.50108496  0.16881658  1
  Ni  Ni5  1  1.00092183  0.33545870  0.33445637  1
  Ni  Ni6  1  0.00338846  0.66646186  1.00152354  1
  Ni  Ni7  1  0.16974927  0.83598987  0.16796931  1
  Ni  Ni8  1  0.00344362  0.66749405  0.33634646  1
  Ni  Ni9  1  0.33560301  1.00148852  0.00196966  1
  Ni  Ni10  1  0.50063960  0.16892262  0.16875045  1
  Ni  Ni11  1  0.33468219  1.00151068  0.33391689  1
  Ni  Ni12  1  0.33552479  0.33507706  0.00181560  1
  Ni  Ni13  1  0.50206401  0.50165926  0.16848633  1
  Ni  Ni14  1  0.33546474  0.33559666  0.33558374  1
  Ni  Ni15  1  0.33508820  0.66838718  0.00168528  1
  Ni  Ni16  1  0.49951933  0.83436962  0.16765090  1
  Ni  Ni17  1  0.33337378  0.66793555  0.33389177  1
  Ni  Ni18  1  0.66628667  0.00359114  0.00174075  1
  Ni  Ni19  1  0.83607610  0.17024514  0.16743628  1
  Ni  Ni20  1  0.66821030  0.00425994  0.33467872  1
  Ni  Ni21  1  0.66809997  0.33472527  1.00115833  1
  Ni  Ni22  1  0.83444492  0.50005253  0.16809678  1
  Ni  Ni23  1  0.66858852  0.33423258  0.33510367  1
  Ni  Ni24  1  0.66674014  0.66666795  0.00235087  1
  Cr  Cr25  1  0.83527350  0.83488230  0.16900737  1
  Fe  Fe26  1  0.66771214  0.66628451  0.33452429  1
  Ni  Ni27  1  0.16821391  0.16738361  0.50062542  1
  Ni  Ni28  1  0.00224961  1.00091916  0.66721423  1
  Ni  Ni29  1  0.16911234  0.16733581  0.83553340  1
  Ni  Ni30  1  0.16937393  0.50202549  0.50095937  1
  Cr  Cr31  1  1.00124302  0.33535585  0.66847816  1
  Fe  Fe32  1  0.16952362  0.50105504  0.83528489  1
  Ni  Ni33  1  0.16813391  0.83562686  0.50244631  1
  Ni  Ni34  1  0.00268383  0.66879633  0.66723430  1
  Fe  Fe35  1  0.16942955  0.83548328  0.83507020  1
  Fe  Fe36  1  0.50085344  0.17028466  0.50149701  1
  Ni  Ni37  1  0.33465407  0.00196136  0.66903931  1
  Ni  Ni38  1  0.50033458  0.16868494  0.83405012  1
  Ni  Ni39  1  0.50172037  0.50135629  0.50209555  1
  Ni  Ni40  1  0.33669924  0.33525988  0.66741691  1
  Ni  Ni41  1  0.50204407  0.50222030  0.83435977  1
  Cr  Cr42  1  0.50073286  0.83412603  0.50135326  1
  Ni  Ni43  1  0.33425744  0.66781910  0.66943697  1
  Ni  Ni44  1  0.50023036  0.83415047  0.83576029  1
  Ni  Ni45  1  0.83557739  0.16830374  0.50120177  1
  Ni  Ni46  1  0.66816861  0.00351187  0.66840626  1
  Ni  Ni47  1  0.83555165  0.16920330  0.83636714  1
  Ni  Ni48  1  0.83389300  0.50146816  0.50112290  1
  Ni  Ni49  1  0.66715579  0.33477695  0.66856413  1
  Ni  Ni50  1  0.83357202  0.50142194  0.83575680  1
  Fe  Fe51  1  0.83679547  0.83473021  0.50191807  1
  Ni  Ni52  1  0.66828175  0.66684746  0.66772268  1
  Cr  Cr53  1  0.83435627  0.83462832  0.83431583  1
" 