8904,Ni81Cr19_19,-207.050743913983, 161.25680158442,Ni81Cr19,"# generated using pymatgen
 data_Cr43Ni11
_symmetry_space_group_name_H-M   'P 1'
_cell_length_a   7.58678775
_cell_length_b   7.58678775
_cell_length_c   10.72933812
_cell_angle_alpha   90.00000000
_cell_angle_beta   90.00000000
_cell_angle_gamma   90.00000000
_symmetry_Int_Tables_number   1
_chemical_formula_structural   Cr43Ni11
_chemical_formula_sum   'Cr43 Ni11'
_cell_volume   617.57371001
_cell_formula_units_Z   1
loop_
 _symmetry_equiv_pos_site_id
 _symmetry_equiv_pos_as_xyz
  1  'x, y, z'
loop_
 _atom_site_type_symbol
 _atom_site_label
 _atom_site_symmetry_multiplicity
 _atom_site_fract_x
 _atom_site_fract_y
 _atom_site_fract_z
 _atom_site_occupancy
  Cr  Cr0  1  -0.00761887  0.99158764  -0.00671481  1
  Cr  Cr1  1  0.15838799  0.15900888  0.15790535  1
  Cr  Cr2  1  -0.00737569  0.99017405  0.32428540  1
  Ni  Ni3  1  -0.00672096  0.32875642  0.99071627  1
  Ni  Ni4  1  0.15893148  0.49389193  0.15656973  1
  Cr  Cr5  1  -0.00612466  0.32827860  0.32546893  1
  Cr  Cr6  1  -0.00473542  0.65590723  0.99176944  1
  Ni  Ni7  1  0.16004520  0.82286141  0.15759656  1
  Cr  Cr8  1  -0.00671715  0.65787180  0.32492929  1
  Cr  Cr9  1  0.32637120  0.99069338  -0.00583868  1
  Ni  Ni10  1  0.49176455  0.15851987  0.15908292  1
  Cr  Cr11  1  0.32760116  -0.00732008  0.32548878  1
  Cr  Cr12  1  0.32399006  0.32742380  -0.00672225  1
  Cr  Cr13  1  0.49121058  0.49306336  0.15877296  1
  Cr  Cr14  1  0.32578823  0.32513502  0.32617772  1
  Ni  Ni15  1  0.32189447  0.65767332  -0.00707645  1
  Cr  Cr16  1  0.49066783  0.82348914  0.15816969  1
  Cr  Cr17  1  0.32378061  0.65853477  0.32511227  1
  Cr  Cr18  1  0.65753565  -0.00634274  -0.00737535  1
  Cr  Cr19  1  0.82627015  0.15964947  0.15780610  1
  Cr  Cr20  1  0.65612589  -0.00778333  0.32606330  1
  Cr  Cr21  1  0.65997179  0.32446224  0.99174501  1
  Cr  Cr22  1  0.82530605  0.49180507  0.15963627  1
  Cr  Cr23  1  0.65666252  0.32431549  0.32517271  1
  Cr  Cr24  1  0.65906386  0.65821859  0.99056217  1
  Cr  Cr25  1  0.82594909  0.82486528  0.16067712  1
  Ni  Ni26  1  0.65802962  0.66008586  0.32688493  1
  Cr  Cr27  1  0.15928020  0.15985014  0.49312351  1
  Cr  Cr28  1  0.99169466  0.99110222  0.65877104  1
  Cr  Cr29  1  0.15720416  0.16025281  0.82530118  1
  Ni  Ni30  1  0.15922958  0.49196026  0.49236801  1
  Cr  Cr31  1  -0.00705746  0.32908286  0.66003453  1
  Ni  Ni32  1  0.15644889  0.49203089  0.82739677  1
  Cr  Cr33  1  0.16002169  0.82537974  0.49240591  1
  Cr  Cr34  1  -0.00700435  0.65614303  0.65965771  1
  Cr  Cr35  1  0.16020622  0.82467155  0.82640607  1
  Ni  Ni36  1  0.49198537  0.15668512  0.49204956  1
  Cr  Cr37  1  0.32794872  -0.00754713  0.65663961  1
  Cr  Cr38  1  0.49145272  0.15916201  0.82536682  1
  Cr  Cr39  1  0.49189888  0.49372345  0.49094084  1
  Cr  Cr40  1  0.32487919  0.32597780  0.65687741  1
  Cr  Cr41  1  0.49153334  0.49391164  0.82663038  1
  Ni  Ni42  1  0.49311379  0.82646999  0.49133479  1
  Cr  Cr43  1  0.32352363  0.65794501  0.65858482  1
  Cr  Cr44  1  0.49093868  0.82324508  0.82592518  1
  Cr  Cr45  1  0.82591113  0.15874176  0.49217389  1
  Cr  Cr46  1  0.65669009  -0.00750901  0.65759196  1
  Cr  Cr47  1  0.82768204  0.16082539  0.82633099  1
  Cr  Cr48  1  0.82488718  0.49292291  0.49070686  1
  Cr  Cr49  1  0.65851796  0.32469354  0.65943487  1
  Ni  Ni50  1  0.82848299  0.49093142  0.82630970  1
  Cr  Cr51  1  0.82333439  0.82463527  0.49093563  1
  Cr  Cr52  1  0.65981780  0.65916067  0.65897768  1
  Cr  Cr53  1  0.82518988  0.82459170  0.82472548  1
" 