693,Ni81Fe3Cr15_5,-232.742011328215, 159.163807996633,Ni81Fe3Cr15,"# generated using pymatgen
 data_Cr10FeNi43
_symmetry_space_group_name_H-M   'P 1'
_cell_length_a   7.46925435
_cell_length_b   7.46925435
_cell_length_c   10.56312080
_cell_angle_alpha   90.00000000
_cell_angle_beta   90.00000000
_cell_angle_gamma   90.00000000
_symmetry_Int_Tables_number   1
_chemical_formula_structural   Cr10FeNi43
_chemical_formula_sum   'Cr10 Fe1 Ni43'
_cell_volume   589.31397973
_cell_formula_units_Z   1
loop_
 _symmetry_equiv_pos_site_id
 _symmetry_equiv_pos_as_xyz
  1  'x, y, z'
loop_
 _atom_site_type_symbol
 _atom_site_label
 _atom_site_symmetry_multiplicity
 _atom_site_fract_x
 _atom_site_fract_y
 _atom_site_fract_z
 _atom_site_occupancy
  Fe  Fe0  1  0.99865302  0.00168812  0.99782862  1
  Ni  Ni1  1  0.16383241  0.16657331  0.16659244  1
  Ni  Ni2  1  0.99797302  0.00426172  0.33362519  1
  Ni  Ni3  1  0.99792091  0.33321555  0.00067692  1
  Ni  Ni4  1  0.16435000  0.49857217  0.16651621  1
  Ni  Ni5  1  0.99701761  0.33008986  0.33207994  1
  Ni  Ni6  1  0.99784272  0.66394284  0.99728908  1
  Cr  Cr7  1  0.16734151  0.83519689  0.16695778  1
  Cr  Cr8  1  0.99638604  0.66437567  0.33416424  1
  Ni  Ni9  1  0.33400370  0.99975467  0.99786494  1
  Cr  Cr10  1  0.50357360  0.16445896  0.16549819  1
  Ni  Ni11  1  0.33457765  -0.00004520  0.33399204  1
  Cr  Cr12  1  0.33245196  0.33188538  0.99808288  1
  Ni  Ni13  1  0.50362496  0.50140548  0.16715153  1
  Cr  Cr14  1  0.33309550  0.33327128  0.33285982  1
  Cr  Cr15  1  0.33418645  0.66666107  0.99938915  1
  Ni  Ni16  1  0.50078602  0.83273150  0.16750351  1
  Ni  Ni17  1  0.33740039  0.66736489  0.33150339  1
  Ni  Ni18  1  0.66632104  0.00001531  0.99767694  1
  Ni  Ni19  1  0.83458023  0.16884993  0.16626075  1
  Ni  Ni20  1  0.66715833  0.00006334  0.33517900  1
  Ni  Ni21  1  0.67007269  0.33321043  0.99900455  1
  Ni  Ni22  1  0.83193199  0.49777890  0.16549633  1
  Ni  Ni23  1  0.66957056  0.33336372  0.33367938  1
  Ni  Ni24  1  0.66806758  0.66659126  0.99888731  1
  Cr  Cr25  1  0.83011870  0.83515469  0.16495681  1
  Ni  Ni26  1  0.66443188  0.66640711  0.33393778  1
  Ni  Ni27  1  0.16552775  0.16544221  0.50067871  1
  Ni  Ni28  1  0.99804292  0.00126505  0.66773720  1
  Ni  Ni29  1  0.16558365  0.16567291  0.83199599  1
  Cr  Cr30  1  0.16540705  0.49732052  0.50240274  1
  Ni  Ni31  1  0.99820171  0.33150823  0.66706928  1
  Ni  Ni32  1  0.16351130  0.49875686  0.83178138  1
  Cr  Cr33  1  0.16574710  0.83602925  0.50006203  1
  Ni  Ni34  1  0.99587222  0.66665419  0.66888689  1
  Ni  Ni35  1  0.16457890  0.83501457  0.83321793  1
  Ni  Ni36  1  0.50128436  0.16608075  0.50143621  1
  Ni  Ni37  1  0.33428041  0.00242961  0.66753331  1
  Ni  Ni38  1  0.50117890  0.16572561  0.83194583  1
  Ni  Ni39  1  0.50380381  0.49931022  0.49995613  1
  Ni  Ni40  1  0.33406465  0.33013872  0.66816723  1
  Ni  Ni41  1  0.50340386  0.49846380  0.83226165  1
  Ni  Ni42  1  0.50257036  0.83434676  0.49809338  1
  Cr  Cr43  1  0.33584870  0.66700085  0.66895541  1
  Ni  Ni44  1  0.50189845  0.83536757  0.83382679  1
  Ni  Ni45  1  0.83266257  0.16670633  0.49945019  1
  Ni  Ni46  1  0.66694985  0.00003583  0.66633320  1
  Ni  Ni47  1  0.83254917  0.16687320  0.83386198  1
  Ni  Ni48  1  0.82992179  0.49846485  0.50118014  1
  Ni  Ni49  1  0.66719857  0.33238699  0.66679308  1
  Ni  Ni50  1  0.83285513  0.49958214  0.83302727  1
  Ni  Ni51  1  0.83043594  0.83437731  0.50132761  1
  Ni  Ni52  1  0.66863031  0.66707920  0.66650072  1
  Ni  Ni53  1  0.83274316  0.83315065  0.83288601  1
" 