6943,Ni81Fe6Cr11_9,-235.65658898017, 176.721521651763,Ni81Fe6Cr11,"# generated using pymatgen
 data_Cr7Fe3Ni44
_symmetry_space_group_name_H-M   'P 1'
_cell_length_a   7.45597254
_cell_length_b   7.45597254
_cell_length_c   10.54433749
_cell_angle_alpha   90.00000000
_cell_angle_beta   90.00000000
_cell_angle_gamma   90.00000000
_symmetry_Int_Tables_number   1
_chemical_formula_structural   Cr7Fe3Ni44
_chemical_formula_sum   'Cr7 Fe3 Ni44'
_cell_volume   586.17581716
_cell_formula_units_Z   1
loop_
 _symmetry_equiv_pos_site_id
 _symmetry_equiv_pos_as_xyz
  1  'x, y, z'
loop_
 _atom_site_type_symbol
 _atom_site_label
 _atom_site_symmetry_multiplicity
 _atom_site_fract_x
 _atom_site_fract_y
 _atom_site_fract_z
 _atom_site_occupancy
  Ni  Ni0  1  1.00039138  0.00201031  0.00230362  1
  Ni  Ni1  1  0.16777504  0.16671668  0.16659378  1
  Fe  Fe2  1  0.00157472  0.99985956  0.33317234  1
  Ni  Ni3  1  0.99918763  0.33328453  1.00065924  1
  Ni  Ni4  1  0.16869698  0.50053076  0.16730440  1
  Cr  Cr5  1  0.99998604  0.33473610  0.33456739  1
  Cr  Cr6  1  0.00154921  0.66732184  0.00090227  1
  Ni  Ni7  1  0.16616623  0.83498074  0.16833951  1
  Ni  Ni8  1  0.00189764  0.66766874  0.33325706  1
  Ni  Ni9  1  0.33402028  1.00033967  1.00028710  1
  Ni  Ni10  1  0.50066252  0.16914477  0.16753275  1
  Ni  Ni11  1  0.33382539  0.00111909  0.33552811  1
  Fe  Fe12  1  0.33521635  0.33466829  0.00153187  1
  Ni  Ni13  1  0.50083747  0.49919836  0.16750954  1
  Ni  Ni14  1  0.33571599  0.33393074  0.33380806  1
  Ni  Ni15  1  0.33430668  0.66714527  0.99987312  1
  Cr  Cr16  1  0.50130111  0.83352342  0.16756502  1
  Ni  Ni17  1  0.33262697  0.66717620  0.33500058  1
  Ni  Ni18  1  0.66781738  0.00271583  0.99929035  1
  Ni  Ni19  1  0.83379160  0.16661439  0.16634290  1
  Ni  Ni20  1  0.66667921  0.00270014  0.33430356  1
  Ni  Ni21  1  0.66802522  0.33356914  0.00127260  1
  Ni  Ni22  1  0.83269505  0.50081058  0.16758386  1
  Ni  Ni23  1  0.66619009  0.33375445  0.33395145  1
  Ni  Ni24  1  0.66635996  0.66594340  0.99957020  1
  Ni  Ni25  1  0.83512627  0.83480440  0.16813084  1
  Ni  Ni26  1  0.66770422  0.66577211  0.33430401  1
  Ni  Ni27  1  0.16877268  0.16694607  0.50178946  1
  Ni  Ni28  1  0.00094780  1.00034027  0.66719144  1
  Cr  Cr29  1  0.16740713  0.16760111  0.83387517  1
  Ni  Ni30  1  0.16770161  0.50030505  0.50107716  1
  Fe  Fe31  1  0.00125742  0.33462565  0.66687109  1
  Ni  Ni32  1  0.16740771  0.50091074  0.83384571  1
  Ni  Ni33  1  0.16838781  0.83497678  0.49981704  1
  Ni  Ni34  1  1.00043337  0.66691258  0.66827909  1
  Ni  Ni35  1  0.16740294  0.83398227  0.83407617  1
  Ni  Ni36  1  0.49939414  0.16676730  0.49997320  1
  Ni  Ni37  1  0.33422365  0.00166015  0.66641439  1
  Ni  Ni38  1  0.50153424  0.16625047  0.83471890  1
  Ni  Ni39  1  0.50056266  0.50058539  0.49877123  1
  Ni  Ni40  1  0.33332585  0.33305276  0.66668068  1
  Ni  Ni41  1  0.50101595  0.50148248  0.83594464  1
  Ni  Ni42  1  0.50005040  0.83487653  0.50040902  1
  Cr  Cr43  1  0.33347728  0.66783330  0.66742239  1
  Ni  Ni44  1  0.50211156  0.83449523  0.83446234  1
  Ni  Ni45  1  0.83406416  0.16745617  0.50092010  1
  Ni  Ni46  1  0.66705785  0.00085077  0.66863270  1
  Ni  Ni47  1  0.83329046  0.16624545  0.83496732  1
  Ni  Ni48  1  0.83396550  0.50096177  0.50090078  1
  Cr  Cr49  1  0.66732913  0.33359934  0.66670321  1
  Ni  Ni50  1  0.83380601  0.50148313  0.83374276  1
  Cr  Cr51  1  0.83335773  0.83355766  0.50054485  1
  Ni  Ni52  1  0.66897903  0.66780899  0.66835373  1
  Ni  Ni53  1  0.83271493  0.83449877  0.83323558  1
" 