3772,Ni81Fe6Cr11_8,-235.69074007433, 173.393022665989,Ni81Fe6Cr11,"# generated using pymatgen
 data_Cr7Fe3Ni44
_symmetry_space_group_name_H-M   'P 1'
_cell_length_a   7.46117967
_cell_length_b   7.46117967
_cell_length_c   10.55170149
_cell_angle_alpha   90.00000000
_cell_angle_beta   90.00000000
_cell_angle_gamma   90.00000000
_symmetry_Int_Tables_number   1
_chemical_formula_structural   Cr7Fe3Ni44
_chemical_formula_sum   'Cr7 Fe3 Ni44'
_cell_volume   587.40480282
_cell_formula_units_Z   1
loop_
 _symmetry_equiv_pos_site_id
 _symmetry_equiv_pos_as_xyz
  1  'x, y, z'
loop_
 _atom_site_type_symbol
 _atom_site_label
 _atom_site_symmetry_multiplicity
 _atom_site_fract_x
 _atom_site_fract_y
 _atom_site_fract_z
 _atom_site_occupancy
  Ni  Ni0  1  0.99953015  0.99978726  0.00135417  1
  Ni  Ni1  1  0.16737258  0.16459147  0.16785525  1
  Ni  Ni2  1  0.00118164  0.00039476  0.33354809  1
  Cr  Cr3  1  0.00050927  0.33281113  0.99850416  1
  Cr  Cr4  1  0.16816274  0.50091658  0.16797840  1
  Ni  Ni5  1  0.00266200  0.33127898  0.33391630  1
  Ni  Ni6  1  0.99890695  0.66893421  0.00098031  1
  Ni  Ni7  1  0.16784692  0.83613988  0.16761794  1
  Ni  Ni8  1  0.00275126  0.66958352  0.33355133  1
  Ni  Ni9  1  0.33438528  0.00114336  0.00195635  1
  Fe  Fe10  1  0.49930565  0.16687722  0.16463196  1
  Fe  Fe11  1  0.33175151  0.99955636  0.33390568  1
  Ni  Ni12  1  0.33585848  0.33297347  0.99933090  1
  Ni  Ni13  1  0.50003263  0.50091873  0.16557246  1
  Ni  Ni14  1  0.33280532  0.33335652  0.33453099  1
  Ni  Ni15  1  0.33542681  0.66703063  1.00034079  1
  Ni  Ni16  1  0.49854647  0.83307014  0.16536463  1
  Ni  Ni17  1  0.33303261  0.66726932  0.33467555  1
  Ni  Ni18  1  0.66717142  1.00006991  1.00014103  1
  Ni  Ni19  1  0.83508165  0.16611186  0.16643491  1
  Cr  Cr20  1  0.66734171  0.99991775  0.33439271  1
  Ni  Ni21  1  0.66547750  0.33360331  0.00093067  1
  Ni  Ni22  1  0.83231310  0.50044548  0.16656317  1
  Cr  Cr23  1  0.66560982  0.33227241  0.33241389  1
  Ni  Ni24  1  0.66675575  0.66747083  0.00077076  1
  Ni  Ni25  1  0.83462292  0.83473702  0.16551503  1
  Cr  Cr26  1  0.66569892  0.66891674  0.33299750  1
  Ni  Ni27  1  0.16632034  0.16698902  0.50019760  1
  Ni  Ni28  1  0.99976219  0.00122652  0.66629827  1
  Ni  Ni29  1  0.16824765  0.16712954  0.83300361  1
  Ni  Ni30  1  0.16936125  0.49966652  0.50034151  1
  Ni  Ni31  1  0.00188404  0.33263337  0.66753484  1
  Ni  Ni32  1  0.16854717  0.49961767  0.83228007  1
  Ni  Ni33  1  0.16769190  0.83449951  0.49951266  1
  Ni  Ni34  1  0.00101244  0.66734614  0.66662426  1
  Cr  Cr35  1  0.16804709  0.83474263  0.83449503  1
  Fe  Fe36  1  0.49899232  0.16733360  0.50299594  1
  Ni  Ni37  1  0.33423586  0.00107990  0.66570282  1
  Ni  Ni38  1  0.50053682  0.16681260  0.83388629  1
  Ni  Ni39  1  0.49712630  0.50082808  0.50182138  1
  Ni  Ni40  1  0.33319042  0.33393474  0.66736963  1
  Ni  Ni41  1  0.50081845  0.50036995  0.83387295  1
  Ni  Ni42  1  0.49847897  0.83313450  0.50237140  1
  Ni  Ni43  1  0.33435621  0.66618335  0.66607817  1
  Ni  Ni44  1  0.50186891  0.83400044  0.83367592  1
  Ni  Ni45  1  0.83599985  0.16549486  0.50200388  1
  Ni  Ni46  1  0.66706464  1.00006354  0.66705751  1
  Ni  Ni47  1  0.83243298  0.16617517  0.83264797  1
  Cr  Cr48  1  0.83500284  0.49944214  0.50124571  1
  Ni  Ni49  1  0.66596060  0.33275973  0.66781708  1
  Ni  Ni50  1  0.83184660  0.50082196  0.83316603  1
  Ni  Ni51  1  0.83488847  0.83619750  0.50210572  1
  Ni  Ni52  1  0.66579087  0.66831541  0.66767754  1
  Ni  Ni53  1  0.83162824  0.83425728  0.83367578  1
" 