7065,Ni81Fe6Cr11_2,-235.544668050752, 172.518627487294,Ni81Fe6Cr11,"# generated using pymatgen
 data_Cr7Fe3Ni44
_symmetry_space_group_name_H-M   'P 1'
_cell_length_a   7.45801475
_cell_length_b   7.45801475
_cell_length_c   10.54722561
_cell_angle_alpha   90.00000000
_cell_angle_beta   90.00000000
_cell_angle_gamma   90.00000000
_symmetry_Int_Tables_number   1
_chemical_formula_structural   Cr7Fe3Ni44
_chemical_formula_sum   'Cr7 Fe3 Ni44'
_cell_volume   586.65761485
_cell_formula_units_Z   1
loop_
 _symmetry_equiv_pos_site_id
 _symmetry_equiv_pos_as_xyz
  1  'x, y, z'
loop_
 _atom_site_type_symbol
 _atom_site_label
 _atom_site_symmetry_multiplicity
 _atom_site_fract_x
 _atom_site_fract_y
 _atom_site_fract_z
 _atom_site_occupancy
  Ni  Ni0  1  0.99786892  0.00258427  0.00087667  1
  Ni  Ni1  1  0.16615564  0.16812829  0.16522186  1
  Ni  Ni2  1  0.99938103  0.99984849  0.33450763  1
  Ni  Ni3  1  0.00067404  0.33400914  0.99976323  1
  Ni  Ni4  1  0.16627037  0.50035729  0.16644161  1
  Cr  Cr5  1  1.00043248  0.33393297  0.33432007  1
  Ni  Ni6  1  0.99828379  0.66532727  0.00122476  1
  Cr  Cr7  1  0.16699415  0.83429654  0.16623282  1
  Ni  Ni8  1  0.99903186  0.66805705  0.33469973  1
  Ni  Ni9  1  0.33537600  0.00194545  0.99886763  1
  Cr  Cr10  1  0.50146012  0.16590106  0.16839969  1
  Ni  Ni11  1  0.33373053  1.00056436  0.33656337  1
  Ni  Ni12  1  0.33214720  0.33389441  0.99929005  1
  Cr  Cr13  1  0.50083140  0.50138775  0.16808150  1
  Ni  Ni14  1  0.33184958  0.33253931  0.33466649  1
  Ni  Ni15  1  0.33513321  0.66607156  0.99913080  1
  Ni  Ni16  1  0.50235807  0.83371376  0.16701196  1
  Ni  Ni17  1  0.33271697  0.66873726  0.33524400  1
  Ni  Ni18  1  0.66845732  0.99945813  0.99974244  1
  Ni  Ni19  1  0.83430521  0.16664335  0.16601443  1
  Ni  Ni20  1  0.66870052  0.99896440  0.33510402  1
  Ni  Ni21  1  0.66918061  0.33383963  0.99887494  1
  Ni  Ni22  1  0.83441350  0.50113860  0.16595419  1
  Ni  Ni23  1  0.66939658  0.33288390  0.33515190  1
  Ni  Ni24  1  0.66847251  0.66865331  0.99958229  1
  Ni  Ni25  1  0.83261259  0.83401638  0.16680729  1
  Ni  Ni26  1  0.67002781  0.66976581  0.33385952  1
  Ni  Ni27  1  0.16667889  0.16500968  0.50108209  1
  Ni  Ni28  1  0.99915102  0.00082437  0.66637163  1
  Ni  Ni29  1  0.16588698  0.16860044  0.83528699  1
  Ni  Ni30  1  0.16563172  0.50299621  0.50038984  1
  Fe  Fe31  1  0.99953734  0.33346331  0.66759561  1
  Ni  Ni32  1  0.16599338  0.50066823  0.83499426  1
  Ni  Ni33  1  0.16653568  0.83370525  0.50148339  1
  Ni  Ni34  1  0.99931447  0.66698270  0.66597237  1
  Cr  Cr35  1  0.16531949  0.83401875  0.83382665  1
  Ni  Ni36  1  0.50241350  0.16514226  0.49968486  1
  Ni  Ni37  1  0.33480644  1.00036717  0.66659655  1
  Ni  Ni38  1  0.50260519  0.16636239  0.83464304  1
  Cr  Cr39  1  0.50270132  0.50104215  0.49858031  1
  Cr  Cr40  1  0.33356621  0.33225551  0.66755146  1
  Fe  Fe41  1  0.50166804  0.50080469  0.83441536  1
  Ni  Ni42  1  0.50099240  0.83529210  0.50112318  1
  Ni  Ni43  1  0.33368980  0.66839090  0.66721686  1
  Ni  Ni44  1  0.50251860  0.83425937  0.83380342  1
  Ni  Ni45  1  0.83257297  0.16629375  0.50189618  1
  Ni  Ni46  1  0.66773818  1.00050802  0.66722233  1
  Ni  Ni47  1  0.83324968  0.16700658  0.83386125  1
  Ni  Ni48  1  0.83456194  0.50140842  0.50238518  1
  Ni  Ni49  1  0.66940093  0.33273180  0.66787525  1
  Fe  Fe50  1  0.83432967  0.50089691  0.83384456  1
  Ni  Ni51  1  0.83429065  0.83395470  0.50084416  1
  Ni  Ni52  1  0.66891451  0.66856138  0.66835524  1
  Ni  Ni53  1  0.83237037  0.83449456  0.83416447  1
" 