5426,Ni81Fe6Cr11_12,-235.685656539339, 173.21978878215,Ni81Fe6Cr11,"# generated using pymatgen
 data_Cr7Fe3Ni44
_symmetry_space_group_name_H-M   'P 1'
_cell_length_a   7.45847629
_cell_length_b   7.45847629
_cell_length_c   10.54787832
_cell_angle_alpha   90.00000000
_cell_angle_beta   90.00000000
_cell_angle_gamma   90.00000000
_symmetry_Int_Tables_number   1
_chemical_formula_structural   Cr7Fe3Ni44
_chemical_formula_sum   'Cr7 Fe3 Ni44'
_cell_volume   586.76653632
_cell_formula_units_Z   1
loop_
 _symmetry_equiv_pos_site_id
 _symmetry_equiv_pos_as_xyz
  1  'x, y, z'
loop_
 _atom_site_type_symbol
 _atom_site_label
 _atom_site_symmetry_multiplicity
 _atom_site_fract_x
 _atom_site_fract_y
 _atom_site_fract_z
 _atom_site_occupancy
  Cr  Cr0  1  0.00187463  0.00111885  0.99967974  1
  Ni  Ni1  1  0.16803096  0.16944023  0.16729078  1
  Cr  Cr2  1  0.00159851  0.00092062  0.33340824  1
  Ni  Ni3  1  0.00185782  0.33436848  0.00206977  1
  Ni  Ni4  1  0.16714802  0.49988076  0.16755152  1
  Ni  Ni5  1  0.00117425  0.33339593  0.33361736  1
  Ni  Ni6  1  0.00311410  0.66614556  0.00219002  1
  Ni  Ni7  1  0.16928854  0.83199395  0.16817069  1
  Fe  Fe8  1  0.00060277  0.66422161  0.33508296  1
  Ni  Ni9  1  0.33316203  1.00023656  1.00024316  1
  Cr  Cr10  1  0.50036878  0.16809442  0.16859477  1
  Fe  Fe11  1  0.33462989  0.00148731  0.33579957  1
  Ni  Ni12  1  0.33329117  0.33535219  0.99964270  1
  Ni  Ni13  1  0.50021505  0.50047747  0.16687313  1
  Ni  Ni14  1  0.33300084  0.33727380  0.33527145  1
  Ni  Ni15  1  0.33290898  0.66603468  0.99977837  1
  Cr  Cr16  1  0.49916662  0.83307709  0.16692150  1
  Ni  Ni17  1  0.33350439  0.66581842  0.33438839  1
  Ni  Ni18  1  0.66678637  0.00165997  0.99741221  1
  Ni  Ni19  1  0.83376232  0.17022391  0.16682668  1
  Ni  Ni20  1  0.66871643  0.00109013  0.33734162  1
  Ni  Ni21  1  0.66675904  0.33434081  0.00132447  1
  Ni  Ni22  1  0.83406165  0.49831028  0.16815829  1
  Ni  Ni23  1  0.66759850  0.33522218  0.33475332  1
  Ni  Ni24  1  0.66589871  0.66574047  0.99935440  1
  Cr  Cr25  1  0.83211460  0.83132870  0.16675420  1
  Ni  Ni26  1  0.66475168  0.66563783  0.33595331  1
  Ni  Ni27  1  0.16774164  0.16815279  0.50157098  1
  Ni  Ni28  1  0.00088198  1.00037765  0.66766027  1
  Ni  Ni29  1  0.16876031  0.16827525  0.83270870  1
  Ni  Ni30  1  0.16752619  0.49971852  0.50131831  1
  Ni  Ni31  1  0.00279330  0.33236735  0.66596532  1
  Ni  Ni32  1  0.16869414  0.50028133  0.83302129  1
  Ni  Ni33  1  0.16896790  0.83340619  0.50070523  1
  Ni  Ni34  1  0.00237481  0.66874766  0.66455016  1
  Ni  Ni35  1  0.16856703  0.83298934  0.83276271  1
  Fe  Fe36  1  0.49957365  0.16718721  0.50033041  1
  Ni  Ni37  1  0.33309208  0.99992826  0.66615615  1
  Ni  Ni38  1  0.49874002  0.16607050  0.83400044  1
  Ni  Ni39  1  0.49924683  0.50251120  0.49980172  1
  Ni  Ni40  1  0.33181136  0.33494044  0.66726626  1
  Ni  Ni41  1  0.49832626  0.50126650  0.83514969  1
  Ni  Ni42  1  0.50049898  0.83362809  0.50039499  1
  Ni  Ni43  1  0.33406212  0.66705816  0.66758933  1
  Ni  Ni44  1  0.50008024  0.83445092  0.83413050  1
  Ni  Ni45  1  0.83493732  0.16729530  0.50082382  1
  Ni  Ni46  1  0.66775705  0.99906551  0.66730329  1
  Ni  Ni47  1  0.83380012  0.16655311  0.83396084  1
  Ni  Ni48  1  0.83443417  0.50065212  0.49923322  1
  Cr  Cr49  1  0.66501157  0.33465263  0.66592976  1
  Cr  Cr50  1  0.83688508  0.50178468  0.83372279  1
  Ni  Ni51  1  0.83251135  0.83325145  0.50219522  1
  Ni  Ni52  1  0.66551924  0.66951793  0.66610179  1
  Ni  Ni53  1  0.83304712  0.83400622  0.83222273  1
" 