4946,Ni81Fe3Cr15_6,-232.621243450446, 159.643843407161,Ni81Fe3Cr15,"# generated using pymatgen
 data_Cr10FeNi43
_symmetry_space_group_name_H-M   'P 1'
_cell_length_a   7.47183104
_cell_length_b   7.47183104
_cell_length_c   10.56676480
_cell_angle_alpha   90.00000000
_cell_angle_beta   90.00000000
_cell_angle_gamma   90.00000000
_symmetry_Int_Tables_number   1
_chemical_formula_structural   Cr10FeNi43
_chemical_formula_sum   'Cr10 Fe1 Ni43'
_cell_volume   589.92408348
_cell_formula_units_Z   1
loop_
 _symmetry_equiv_pos_site_id
 _symmetry_equiv_pos_as_xyz
  1  'x, y, z'
loop_
 _atom_site_type_symbol
 _atom_site_label
 _atom_site_symmetry_multiplicity
 _atom_site_fract_x
 _atom_site_fract_y
 _atom_site_fract_z
 _atom_site_occupancy
  Ni  Ni0  1  0.00111869  0.00160169  -0.00019326  1
  Ni  Ni1  1  0.16473279  0.16637894  0.16705552  1
  Ni  Ni2  1  0.00111650  0.00161160  0.33300080  1
  Ni  Ni3  1  0.99895413  0.33301341  0.00054745  1
  Ni  Ni4  1  0.16364489  0.49880350  0.16597178  1
  Ni  Ni5  1  0.00079973  0.33281029  0.33245632  1
  Ni  Ni6  1  0.00147537  0.66442525  0.00016434  1
  Ni  Ni7  1  0.16471605  0.83385701  0.16549401  1
  Ni  Ni8  1  0.99962642  0.66461792  0.33282212  1
  Ni  Ni9  1  0.33181002  0.99907969  0.99823628  1
  Cr  Cr10  1  0.49826887  0.16604180  0.16553261  1
  Ni  Ni11  1  0.33149713  0.00103561  0.33465608  1
  Ni  Ni12  1  0.33162729  0.33319002  0.99841305  1
  Cr  Cr13  1  0.49934714  0.49913813  0.16445700  1
  Ni  Ni14  1  0.32956769  0.33113956  0.33475213  1
  Ni  Ni15  1  0.33162975  0.66677008  0.99803052  1
  Cr  Cr16  1  0.49988353  0.83386074  0.16600193  1
  Cr  Cr17  1  0.33140444  0.66660705  0.33394789  1
  Ni  Ni18  1  0.66611104  0.00160219  0.99861649  1
  Ni  Ni19  1  0.83572296  0.16660422  0.16573004  1
  Ni  Ni20  1  0.66642355  -0.00013535  0.33427584  1
  Ni  Ni21  1  0.66845718  0.33283318  0.99767311  1
  Ni  Ni22  1  0.83572581  0.49966426  0.16597252  1
  Cr  Cr23  1  0.66867131  0.33281062  0.33473205  1
  Ni  Ni24  1  0.66593445  0.66460435  0.99841045  1
  Cr  Cr25  1  0.83427067  0.83278274  0.16660634  1
  Ni  Ni26  1  0.66809455  0.66654592  0.33466073  1
  Ni  Ni27  1  0.16827276  0.16505812  0.49823090  1
  Ni  Ni28  1  0.00316959  0.99957078  0.66623229  1
  Ni  Ni29  1  0.16779027  0.16505931  0.83375365  1
  Ni  Ni30  1  0.16718928  0.49988527  0.49907149  1
  Cr  Cr31  1  0.99878644  0.33280466  0.66629474  1
  Ni  Ni32  1  0.16778911  0.50072523  0.83399563  1
  Ni  Ni33  1  0.16628956  0.83409606  0.50063466  1
  Ni  Ni34  1  0.00167983  0.66625114  0.66605334  1
  Ni  Ni35  1  0.16778037  0.83325489  0.83290964  1
  Ni  Ni36  1  0.49774204  0.16726671  0.49933485  1
  Ni  Ni37  1  0.33130008  0.99898683  0.66614883  1
  Ni  Ni38  1  0.49882329  0.16745840  0.83396757  1
  Ni  Ni39  1  0.49990798  0.49875931  0.50150084  1
  Ni  Ni40  1  0.33490391  0.33339469  0.66587447  1
  Ni  Ni41  1  0.49990741  0.49940934  0.83288431  1
  Fe  Fe42  1  0.49804996  0.83301367  0.49985366  1
  Ni  Ni43  1  0.33296671  0.66665783  0.66653206  1
  Ni  Ni44  1  0.49751981  0.83217117  0.83373092  1
  Ni  Ni45  1  0.83302570  0.16636534  0.49847085  1
  Cr  Cr46  1  0.66504097  0.00197564  0.66646843  1
  Ni  Ni47  1  0.83242721  0.16744903  0.83483942  1
  Ni  Ni48  1  0.83194220  0.50074403  0.49931255  1
  Ni  Ni49  1  0.66497645  0.33488497  0.66643603  1
  Ni  Ni50  1  0.83134295  0.49942019  0.83375458  1
  Cr  Cr51  1  0.83464392  0.83194175  0.49873741  1
  Ni  Ni52  1  0.66439235  0.66264802  0.66596994  1
  Cr  Cr53  1  0.83442260  0.83216792  0.83369748  1
" 