7952,Ni81Fe3Cr15_9,-232.596953041987, 159.943341755223,Ni81Fe3Cr15,"# generated using pymatgen
 data_Cr10FeNi43
_symmetry_space_group_name_H-M   'P 1'
_cell_length_a   7.47229338
_cell_length_b   7.47229338
_cell_length_c   10.56741863
_cell_angle_alpha   90.00000000
_cell_angle_beta   90.00000000
_cell_angle_gamma   90.00000000
_symmetry_Int_Tables_number   1
_chemical_formula_structural   Cr10FeNi43
_chemical_formula_sum   'Cr10 Fe1 Ni43'
_cell_volume   590.03359800
_cell_formula_units_Z   1
loop_
 _symmetry_equiv_pos_site_id
 _symmetry_equiv_pos_as_xyz
  1  'x, y, z'
loop_
 _atom_site_type_symbol
 _atom_site_label
 _atom_site_symmetry_multiplicity
 _atom_site_fract_x
 _atom_site_fract_y
 _atom_site_fract_z
 _atom_site_occupancy
  Ni  Ni0  1  0.00139008  0.99791579  0.99938955  1
  Ni  Ni1  1  0.16571727  0.16504825  0.16746464  1
  Ni  Ni2  1  0.99883781  0.00088930  0.33174300  1
  Cr  Cr3  1  0.99945559  0.33236227  0.99905767  1
  Ni  Ni4  1  0.16609292  0.50020679  0.16649454  1
  Ni  Ni5  1  0.99891110  0.33178657  0.33270962  1
  Ni  Ni6  1  0.00000208  0.66830570  0.99955479  1
  Ni  Ni7  1  0.16547620  0.83369140  0.16488764  1
  Ni  Ni8  1  0.99644804  0.66627149  0.33112497  1
  Ni  Ni9  1  0.32880429  0.99845592  0.00037163  1
  Cr  Cr10  1  0.49913165  0.16695462  0.16667337  1
  Ni  Ni11  1  0.33264413  0.00134024  0.33319141  1
  Ni  Ni12  1  0.33306855  0.33489717  0.99953124  1
  Ni  Ni13  1  0.50057738  0.50058671  0.16512984  1
  Ni  Ni14  1  0.33247968  0.33124083  0.33304184  1
  Ni  Ni15  1  0.33236638  0.66559435  0.00001375  1
  Ni  Ni16  1  0.49935165  0.83146990  0.16649769  1
  Cr  Cr17  1  0.33471743  0.66596088  0.33139607  1
  Cr  Cr18  1  0.66890209  0.99922513  0.00021907  1
  Ni  Ni19  1  0.83449911  0.16627341  0.16769953  1
  Ni  Ni20  1  0.66746423  0.99887910  0.33423883  1
  Ni  Ni21  1  0.66603861  0.33628672  0.99936614  1
  Ni  Ni22  1  0.83227668  0.50082702  0.16724665  1
  Ni  Ni23  1  0.66755602  0.33362995  0.33364372  1
  Ni  Ni24  1  0.66657861  0.66404489  0.00036892  1
  Ni  Ni25  1  0.83411819  0.83184675  0.16753024  1
  Ni  Ni26  1  0.66800919  0.66643797  0.33310603  1
  Ni  Ni27  1  0.16717026  0.16660598  0.49892902  1
  Cr  Cr28  1  0.99885527  0.00220501  0.66806675  1
  Ni  Ni29  1  0.16585867  0.16601823  0.83255324  1
  Cr  Cr30  1  0.16535341  0.49726454  0.49969345  1
  Ni  Ni31  1  0.99910034  0.33197322  0.66697754  1
  Ni  Ni32  1  0.16724252  0.50001565  0.83252084  1
  Cr  Cr33  1  0.16758464  0.83466628  0.49907824  1
  Cr  Cr34  1  0.99861821  0.66475849  0.66808576  1
  Ni  Ni35  1  0.16591600  0.83291298  0.83496813  1
  Ni  Ni36  1  0.50011871  0.16543615  0.49987367  1
  Ni  Ni37  1  0.33395387  0.00040786  0.66538476  1
  Cr  Cr38  1  0.49934408  0.16818490  0.83241318  1
  Ni  Ni39  1  0.50267307  0.49916962  0.50087802  1
  Ni  Ni40  1  0.33308061  0.33314470  0.66637424  1
  Ni  Ni41  1  0.49979689  0.49969203  0.83293934  1
  Ni  Ni42  1  0.50162720  0.83434087  0.50074715  1
  Ni  Ni43  1  0.33580438  0.66539430  0.66758615  1
  Cr  Cr44  1  0.49863459  0.83135257  0.83212073  1
  Ni  Ni45  1  0.83165805  0.16765461  0.49915363  1
  Ni  Ni46  1  0.66596470  -0.00034237  0.66450189  1
  Ni  Ni47  1  0.83413448  0.16724338  0.83209332  1
  Ni  Ni48  1  0.83043340  0.49828353  0.49892738  1
  Ni  Ni49  1  0.66676605  0.33382056  0.66593692  1
  Ni  Ni50  1  0.83190802  0.49963331  0.83277138  1
  Fe  Fe51  1  0.82928200  0.83324095  0.49797641  1
  Ni  Ni52  1  0.66479256  0.66546834  0.66547289  1
  Ni  Ni53  1  0.83445830  0.83207046  0.83332878  1
" 