3369,Ni81Fe3Cr15_10,-232.747192094256, 161.933323427028,Ni81Fe3Cr15,"# generated using pymatgen
 data_Cr10FeNi43
_symmetry_space_group_name_H-M   'P 1'
_cell_length_a   7.46922471
_cell_length_b   7.46922471
_cell_length_c   10.56307888
_cell_angle_alpha   90.00000000
_cell_angle_beta   90.00000000
_cell_angle_gamma   90.00000000
_symmetry_Int_Tables_number   1
_chemical_formula_structural   Cr10FeNi43
_chemical_formula_sum   'Cr10 Fe1 Ni43'
_cell_volume   589.30696409
_cell_formula_units_Z   1
loop_
 _symmetry_equiv_pos_site_id
 _symmetry_equiv_pos_as_xyz
  1  'x, y, z'
loop_
 _atom_site_type_symbol
 _atom_site_label
 _atom_site_symmetry_multiplicity
 _atom_site_fract_x
 _atom_site_fract_y
 _atom_site_fract_z
 _atom_site_occupancy
  Ni  Ni0  1  0.99847039  0.99981018  0.99980523  1
  Ni  Ni1  1  0.16908417  0.16716857  0.16566449  1
  Ni  Ni2  1  0.00086459  0.99872561  0.33441974  1
  Ni  Ni3  1  0.00025863  0.33489434  0.99904099  1
  Ni  Ni4  1  0.16720585  0.49888399  0.16505133  1
  Cr  Cr5  1  0.00028411  0.33419774  0.33451934  1
  Ni  Ni6  1  0.99820408  0.66485923  -0.00011248  1
  Cr  Cr7  1  0.16589059  0.83359337  0.16656525  1
  Ni  Ni8  1  0.99961917  0.66688463  0.33317139  1
  Ni  Ni9  1  0.33538152  0.00097278  0.00078329  1
  Ni  Ni10  1  0.49795541  0.16677422  0.16653319  1
  Ni  Ni11  1  0.33391258  0.00054349  0.33424233  1
  Ni  Ni12  1  0.33341613  0.33355306  0.00057505  1
  Ni  Ni13  1  0.50001257  0.49945636  0.16647717  1
  Ni  Ni14  1  0.33484367  0.33270738  0.33331344  1
  Ni  Ni15  1  0.33430873  0.66503637  0.99907348  1
  Ni  Ni16  1  0.50165392  0.83333233  0.16623696  1
  Ni  Ni17  1  0.33391219  0.66631183  0.33486136  1
  Ni  Ni18  1  0.66571005  0.99891877  0.99816920  1
  Cr  Cr19  1  0.83243001  0.16561214  0.16559757  1
  Ni  Ni20  1  0.66478596  0.99965763  0.33373076  1
  Ni  Ni21  1  0.66588709  0.33382159  0.99908195  1
  Ni  Ni22  1  0.83234418  0.50258297  0.16581998  1
  Ni  Ni23  1  0.66421312  0.33395336  0.33430715  1
  Ni  Ni24  1  0.66705054  0.66682338  0.99956484  1
  Ni  Ni25  1  0.83195053  0.83145380  0.16633253  1
  Ni  Ni26  1  0.66603156  0.66595204  0.33248239  1
  Ni  Ni27  1  0.16702613  0.16725989  0.49910463  1
  Cr  Cr28  1  0.99783057  0.00209834  0.66528677  1
  Cr  Cr29  1  0.16690260  0.16969729  0.83504084  1
  Ni  Ni30  1  0.16803794  0.49942936  0.50097189  1
  Ni  Ni31  1  0.00077001  0.33427215  0.66572080  1
  Ni  Ni32  1  0.16677001  0.49855852  0.83353818  1
  Ni  Ni33  1  0.16862065  0.83287262  0.49751014  1
  Cr  Cr34  1  0.00026991  0.66329415  0.66631649  1
  Cr  Cr35  1  0.16704785  0.83111382  0.83532990  1
  Ni  Ni36  1  0.49958248  0.16653938  0.49818346  1
  Cr  Cr37  1  0.33636933  0.99925968  0.66459665  1
  Ni  Ni38  1  0.50137343  0.16630076  0.83484705  1
  Ni  Ni39  1  0.49874503  0.50032346  0.49948971  1
  Ni  Ni40  1  0.33203654  0.33582053  0.66567446  1
  Ni  Ni41  1  0.49958424  0.50052414  0.83359599  1
  Ni  Ni42  1  0.49888232  0.83269951  0.49996526  1
  Ni  Ni43  1  0.33551119  0.66407305  0.66562744  1
  Ni  Ni44  1  0.50338008  0.83273700  0.83336070  1
  Ni  Ni45  1  0.83295379  0.16712054  0.50034017  1
  Ni  Ni46  1  0.66550154  0.99899927  0.66766463  1
  Fe  Fe47  1  0.83111714  0.16675501  0.83447784  1
  Ni  Ni48  1  0.83277946  0.49872920  0.49907416  1
  Cr  Cr49  1  0.66682632  0.33310687  0.66612320  1
  Ni  Ni50  1  0.83320856  0.50056610  0.83466846  1
  Cr  Cr51  1  0.83178242  0.83325437  0.49780329  1
  Ni  Ni52  1  0.66395126  0.66737101  0.66751557  1
  Ni  Ni53  1  0.82958800  0.83287296  0.83499455  1
" 