7264,Ni81Cr19_3,-207.240715625768, 164.8279761245,Ni81Cr19,"# generated using pymatgen
 data_Cr43Ni11
_symmetry_space_group_name_H-M   'P 1'
_cell_length_a   7.57742781
_cell_length_b   7.57742781
_cell_length_c   10.71610118
_cell_angle_alpha   90.00000000
_cell_angle_beta   90.00000000
_cell_angle_gamma   90.00000000
_symmetry_Int_Tables_number   1
_chemical_formula_structural   Cr43Ni11
_chemical_formula_sum   'Cr43 Ni11'
_cell_volume   615.29079835
_cell_formula_units_Z   1
loop_
 _symmetry_equiv_pos_site_id
 _symmetry_equiv_pos_as_xyz
  1  'x, y, z'
loop_
 _atom_site_type_symbol
 _atom_site_label
 _atom_site_symmetry_multiplicity
 _atom_site_fract_x
 _atom_site_fract_y
 _atom_site_fract_z
 _atom_site_occupancy
  Ni  Ni0  1  -0.00657410  0.99163305  -0.00604707  1
  Cr  Cr1  1  0.15862568  0.15735787  0.15829282  1
  Cr  Cr2  1  0.99181884  0.99215001  0.32669703  1
  Cr  Cr3  1  0.99235037  0.32416137  0.99271611  1
  Cr  Cr4  1  0.16084356  0.49431630  0.15971609  1
  Cr  Cr5  1  -0.00652756  0.32520895  0.32684681  1
  Cr  Cr6  1  0.99238373  0.66131153  -0.00694372  1
  Ni  Ni7  1  0.15867164  0.82659944  0.15833994  1
  Cr  Cr8  1  -0.00709780  0.66079017  0.32740439  1
  Cr  Cr9  1  0.32452366  0.99098446  0.99211483  1
  Cr  Cr10  1  0.49370224  0.16010955  0.16107507  1
  Cr  Cr11  1  0.32604777  0.99271476  0.32609204  1
  Cr  Cr12  1  0.32674633  0.32694867  -0.00563330  1
  Ni  Ni13  1  0.49326760  0.49361012  0.15831305  1
  Cr  Cr14  1  0.32608987  0.32634104  0.32530103  1
  Cr  Cr15  1  0.32839907  0.66021647  -0.00581809  1
  Cr  Cr16  1  0.49261726  0.82482148  0.15957115  1
  Cr  Cr17  1  0.32609598  0.65909271  0.32345130  1
  Cr  Cr18  1  0.66015001  0.99101386  0.99173531  1
  Cr  Cr19  1  0.82581943  0.15788662  0.15882040  1
  Ni  Ni20  1  0.66052134  0.99173887  0.32700020  1
  Cr  Cr21  1  0.65905198  0.32804541  -0.00642310  1
  Cr  Cr22  1  0.82416183  0.49322978  0.15825595  1
  Cr  Cr23  1  0.65858658  0.32525651  0.32462610  1
  Ni  Ni24  1  0.65798223  0.65939550  -0.00725540  1
  Cr  Cr25  1  0.82691177  0.82703223  0.15919428  1
  Cr  Cr26  1  0.65915469  0.66074643  0.32623991  1
  Ni  Ni27  1  0.16077922  0.15936977  0.49463526  1
  Cr  Cr28  1  -0.00605786  -0.00710121  0.65806339  1
  Cr  Cr29  1  0.16021772  0.15854809  0.82521986  1
  Cr  Cr30  1  0.15971454  0.49105072  0.49374176  1
  Cr  Cr31  1  -0.00658767  0.32553660  0.65858860  1
  Cr  Cr32  1  0.15966523  0.49218665  0.82468938  1
  Cr  Cr33  1  0.15861501  0.82742169  0.49290776  1
  Cr  Cr34  1  0.99173044  0.65971507  0.65768966  1
  Cr  Cr35  1  0.16074330  0.82741355  0.82698609  1
  Cr  Cr36  1  0.49139924  0.15911405  0.49407178  1
  Ni  Ni37  1  0.32612589  -0.00491491  0.65945218  1
  Cr  Cr38  1  0.49192133  0.15859062  0.82299480  1
  Cr  Cr39  1  0.49248938  0.49102174  0.49370361  1
  Ni  Ni40  1  0.32686212  0.32332326  0.65824324  1
  Cr  Cr41  1  0.49361342  0.49327758  0.82540507  1
  Cr  Cr42  1  0.49414569  0.82801446  0.49275561  1
  Cr  Cr43  1  0.32689007  0.66027260  0.66051300  1
  Ni  Ni44  1  0.49281234  0.82595351  0.82614462  1
  Cr  Cr45  1  0.82535109  0.15802142  0.49182104  1
  Cr  Cr46  1  0.65788828  0.99230041  0.65900840  1
  Cr  Cr47  1  0.82600745  0.15967135  0.82750637  1
  Cr  Cr48  1  0.82594659  0.49380354  0.49384877  1
  Ni  Ni49  1  0.65717529  0.32613215  0.65945072  1
  Cr  Cr50  1  0.82487202  0.49275635  0.82604683  1
  Ni  Ni51  1  0.82559435  0.82703897  0.49160473  1
  Cr  Cr52  1  0.65953066  0.65974017  0.65998325  1
  Cr  Cr53  1  0.82492257  0.82572031  0.82793276  1
" 