7273,Ni81Fe6Cr11_17,-235.647731641702, 175.698133602667,Ni81Fe6Cr11,"# generated using pymatgen
 data_Cr7Fe3Ni44
_symmetry_space_group_name_H-M   'P 1'
_cell_length_a   7.45641272
_cell_length_b   7.45641272
_cell_length_c   10.54495999
_cell_angle_alpha   90.00000000
_cell_angle_beta   90.00000000
_cell_angle_gamma   90.00000000
_symmetry_Int_Tables_number   1
_chemical_formula_structural   Cr7Fe3Ni44
_chemical_formula_sum   'Cr7 Fe3 Ni44'
_cell_volume   586.27964160
_cell_formula_units_Z   1
loop_
 _symmetry_equiv_pos_site_id
 _symmetry_equiv_pos_as_xyz
  1  'x, y, z'
loop_
 _atom_site_type_symbol
 _atom_site_label
 _atom_site_symmetry_multiplicity
 _atom_site_fract_x
 _atom_site_fract_y
 _atom_site_fract_z
 _atom_site_occupancy
  Ni  Ni0  1  0.99965966  0.00112840  1.00065153  1
  Cr  Cr1  1  0.16676022  0.16840671  0.16657211  1
  Ni  Ni2  1  0.99813004  0.99993429  0.33497739  1
  Ni  Ni3  1  0.99951610  0.33395615  0.99904566  1
  Ni  Ni4  1  0.16764202  0.50235232  0.16754346  1
  Ni  Ni5  1  0.00122916  0.33457680  0.33532595  1
  Ni  Ni6  1  0.99927629  0.66705297  0.00118194  1
  Ni  Ni7  1  0.16663577  0.83159069  0.16668796  1
  Ni  Ni8  1  1.00029010  0.66762933  0.33425916  1
  Ni  Ni9  1  0.33408324  1.00034260  0.00071407  1
  Ni  Ni10  1  0.50226361  0.16742603  0.16596487  1
  Cr  Cr11  1  0.33431835  1.00041939  0.33540598  1
  Ni  Ni12  1  0.33447775  0.33498214  0.00088616  1
  Ni  Ni13  1  0.49975694  0.50145904  0.16655724  1
  Ni  Ni14  1  0.33336600  0.33631668  0.33468394  1
  Ni  Ni15  1  0.33550021  0.66681441  0.00107174  1
  Ni  Ni16  1  0.50153904  0.83325142  0.16644853  1
  Ni  Ni17  1  0.33408742  0.66566294  0.33431599  1
  Fe  Fe18  1  0.66823490  0.99989573  0.00152189  1
  Ni  Ni19  1  0.83307033  0.16642030  0.16662913  1
  Ni  Ni20  1  0.66949815  0.99922273  0.33403623  1
  Ni  Ni21  1  0.66815025  0.33536901  0.00095310  1
  Ni  Ni22  1  0.83474028  0.50162157  0.16650834  1
  Cr  Cr23  1  0.66696430  0.33439282  0.33414130  1
  Ni  Ni24  1  0.66736352  0.66666293  1.00041871  1
  Ni  Ni25  1  0.83396469  0.83409207  0.16765250  1
  Ni  Ni26  1  0.66776125  0.66876796  0.33418552  1
  Ni  Ni27  1  0.16770282  0.16886220  0.50095761  1
  Cr  Cr28  1  1.00018682  0.00112348  0.66653996  1
  Ni  Ni29  1  0.16659369  0.16976844  0.83480055  1
  Ni  Ni30  1  0.16752699  0.50078690  0.50064388  1
  Fe  Fe31  1  0.00155376  0.33539571  0.66743846  1
  Ni  Ni32  1  0.16712460  0.49927274  0.83394703  1
  Ni  Ni33  1  0.16745048  0.83249372  0.50062032  1
  Ni  Ni34  1  0.00096019  0.66529829  0.66669879  1
  Cr  Cr35  1  0.16842755  0.83306058  0.83484594  1
  Ni  Ni36  1  0.50058986  0.16698831  0.50233223  1
  Ni  Ni37  1  0.33562506  0.00175633  0.66585422  1
  Cr  Cr38  1  0.50035066  0.16694432  0.83405236  1
  Ni  Ni39  1  0.49870728  0.50060369  0.50059647  1
  Ni  Ni40  1  0.33346702  0.33440367  0.66657141  1
  Ni  Ni41  1  0.49987751  0.50153320  0.83498513  1
  Ni  Ni42  1  0.50065507  0.83455080  0.50111576  1
  Ni  Ni43  1  0.33378008  0.66597822  0.66674893  1
  Ni  Ni44  1  0.50144731  0.83333701  0.83457289  1
  Ni  Ni45  1  0.83384989  0.16691012  0.50057705  1
  Ni  Ni46  1  0.66670327  0.00141893  0.66679573  1
  Ni  Ni47  1  0.83489167  0.16820311  0.83492995  1
  Ni  Ni48  1  0.83591033  0.50085520  0.50080779  1
  Fe  Fe49  1  0.66739539  0.33347826  0.66688179  1
  Ni  Ni50  1  0.83514001  0.50006442  0.83481973  1
  Ni  Ni51  1  0.83403293  0.83437258  0.49885216  1
  Cr  Cr52  1  0.66764694  0.66742693  0.66754546  1
  Ni  Ni53  1  0.83263260  0.83387481  0.83563740  1
" 