4026,Ni82Fe8Cr9_3,-236.844026961719, 179.730139878695,Ni82Fe8Cr9,"# generated using pymatgen
 data_Cr3(FeNi11)2
_symmetry_space_group_name_H-M   'P 1'
_cell_length_a   7.45261452
_cell_length_b   7.45261452
_cell_length_c   10.53958853
_cell_angle_alpha   90.00000000
_cell_angle_beta   90.00000000
_cell_angle_gamma   90.00000000
_symmetry_Int_Tables_number   1
_chemical_formula_structural   Cr3(FeNi11)2
_chemical_formula_sum   'Cr6 Fe4 Ni44'
_cell_volume   585.38416859
_cell_formula_units_Z   2
loop_
 _symmetry_equiv_pos_site_id
 _symmetry_equiv_pos_as_xyz
  1  'x, y, z'
loop_
 _atom_site_type_symbol
 _atom_site_label
 _atom_site_symmetry_multiplicity
 _atom_site_fract_x
 _atom_site_fract_y
 _atom_site_fract_z
 _atom_site_occupancy
  Ni  Ni0  1  1.00082903  0.00099467  0.00178873  1
  Fe  Fe1  1  0.16789424  0.16968906  0.16737998  1
  Fe  Fe2  1  1.00050629  0.99981597  0.33539169  1
  Ni  Ni3  1  0.00105631  0.33536756  1.00016510  1
  Ni  Ni4  1  0.16844222  0.50196005  0.16784446  1
  Ni  Ni5  1  0.00345457  0.33578739  0.33515047  1
  Ni  Ni6  1  0.00104956  0.66654442  0.00242930  1
  Ni  Ni7  1  0.16596440  0.83158853  0.16712666  1
  Ni  Ni8  1  0.00247419  0.66706230  0.33403778  1
  Cr  Cr9  1  0.33435056  0.00113853  1.00062924  1
  Ni  Ni10  1  0.50075025  0.16823768  0.16679094  1
  Cr  Cr11  1  0.33521529  0.00098869  0.33422870  1
  Ni  Ni12  1  0.33446180  0.33545898  0.00193897  1
  Ni  Ni13  1  0.49812020  0.50089859  0.16577753  1
  Ni  Ni14  1  0.33209902  0.33506463  0.33390555  1
  Ni  Ni15  1  0.33439769  0.66638261  0.00163884  1
  Ni  Ni16  1  0.50171864  0.83377096  0.16637711  1
  Ni  Ni17  1  0.33203943  0.66673973  0.33408940  1
  Ni  Ni18  1  0.66754947  0.00105749  0.00175789  1
  Cr  Cr19  1  0.83410010  0.16605870  0.16631652  1
  Ni  Ni20  1  0.66767659  1.00012592  0.33489870  1
  Ni  Ni21  1  0.66738743  0.33524225  1.00029010  1
  Ni  Ni22  1  0.83634418  0.50292816  0.16529663  1
  Cr  Cr23  1  0.66719937  0.33387924  0.33551384  1
  Ni  Ni24  1  0.66745812  0.66660116  0.00253716  1
  Ni  Ni25  1  0.83522048  0.83421908  0.16716597  1
  Cr  Cr26  1  0.66822079  0.66910131  0.33425597  1
  Ni  Ni27  1  0.16685141  0.16854373  0.50118406  1
  Ni  Ni28  1  0.00206853  0.00190675  0.66615893  1
  Ni  Ni29  1  0.16714672  0.16876842  0.83417759  1
  Ni  Ni30  1  0.16802787  0.50118526  0.50049309  1
  Ni  Ni31  1  1.00051774  0.33427729  0.66758952  1
  Ni  Ni32  1  0.16840134  0.50063114  0.83456685  1
  Ni  Ni33  1  0.16659944  0.83317529  0.50225705  1
  Ni  Ni34  1  0.00149004  0.66671830  0.66643836  1
  Fe  Fe35  1  0.16797039  0.83345171  0.83346193  1
  Ni  Ni36  1  0.50129975  0.16742292  0.50240595  1
  Ni  Ni37  1  0.33442427  1.00092648  0.66761840  1
  Ni  Ni38  1  0.50148623  0.16876926  0.83370738  1
  Ni  Ni39  1  0.49874826  0.50093741  0.50231412  1
  Ni  Ni40  1  0.33436425  0.33364648  0.66705744  1
  Ni  Ni41  1  0.49998724  0.50037823  0.83481661  1
  Ni  Ni42  1  0.50130639  0.83454298  0.50275857  1
  Ni  Ni43  1  0.33437054  0.66833078  0.66717647  1
  Fe  Fe44  1  0.50063511  0.83340322  0.83341392  1
  Ni  Ni45  1  0.83475236  0.16599359  0.50223095  1
  Ni  Ni46  1  0.66641214  0.00190020  0.66624475  1
  Ni  Ni47  1  0.83427088  0.16822476  0.83438503  1
  Ni  Ni48  1  0.83612827  0.50118963  0.50284801  1
  Ni  Ni49  1  0.66802336  0.33422515  0.66752374  1
  Ni  Ni50  1  0.83451600  0.49967092  0.83476572  1
  Ni  Ni51  1  0.83499818  0.83572091  0.50073418  1
  Ni  Ni52  1  0.66704513  0.66677610  0.66636756  1
  Cr  Cr53  1  0.83446743  0.83486891  0.83487006  1
" 