587,Ni82Fe8Cr9_18,-236.748204775669, 180.483965840172,Ni82Fe8Cr9,"# generated using pymatgen
 data_Cr3(FeNi11)2
_symmetry_space_group_name_H-M   'P 1'
_cell_length_a   7.45235534
_cell_length_b   7.45235534
_cell_length_c   10.53922199
_cell_angle_alpha   90.00000000
_cell_angle_beta   90.00000000
_cell_angle_gamma   90.00000000
_symmetry_Int_Tables_number   1
_chemical_formula_structural   Cr3(FeNi11)2
_chemical_formula_sum   'Cr6 Fe4 Ni44'
_cell_volume   585.32309586
_cell_formula_units_Z   2
loop_
 _symmetry_equiv_pos_site_id
 _symmetry_equiv_pos_as_xyz
  1  'x, y, z'
loop_
 _atom_site_type_symbol
 _atom_site_label
 _atom_site_symmetry_multiplicity
 _atom_site_fract_x
 _atom_site_fract_y
 _atom_site_fract_z
 _atom_site_occupancy
  Cr  Cr0  1  0.99987030  0.99959226  0.99960125  1
  Cr  Cr1  1  0.16974961  0.16811818  0.16844827  1
  Ni  Ni2  1  0.99979455  1.00049642  0.33587244  1
  Fe  Fe3  1  1.00029536  0.33612576  1.00032725  1
  Ni  Ni4  1  0.16751139  0.50240111  0.16737858  1
  Ni  Ni5  1  0.99951686  0.33288110  0.33291446  1
  Ni  Ni6  1  0.00133654  0.66668838  0.00121601  1
  Ni  Ni7  1  0.16839298  0.83217670  0.16852895  1
  Fe  Fe8  1  0.00144363  0.66892669  0.33281510  1
  Ni  Ni9  1  0.33608793  0.99987905  1.00051317  1
  Ni  Ni10  1  0.50231667  0.16726047  0.16743899  1
  Ni  Ni11  1  0.33414360  0.99834246  0.33417895  1
  Ni  Ni12  1  0.33654408  0.33631365  1.00010953  1
  Ni  Ni13  1  0.50094112  0.50093835  0.16827169  1
  Ni  Ni14  1  0.33556749  0.33660103  0.33423965  1
  Ni  Ni15  1  0.33432154  0.66680176  0.00107924  1
  Ni  Ni16  1  0.50118071  0.83485650  0.16719083  1
  Ni  Ni17  1  0.33528001  0.66800754  0.33339335  1
  Ni  Ni18  1  0.66682765  0.00162066  1.00090798  1
  Ni  Ni19  1  0.83180111  0.16822294  0.16870766  1
  Ni  Ni20  1  0.66908242  1.00093711  0.33345443  1
  Ni  Ni21  1  0.66697239  0.33490444  0.00144971  1
  Ni  Ni22  1  0.83443526  0.50127360  0.16729718  1
  Ni  Ni23  1  0.66774987  0.33461638  0.33275337  1
  Ni  Ni24  1  0.66727939  0.66651356  0.00118848  1
  Ni  Ni25  1  0.83326551  0.83360008  0.16848353  1
  Fe  Fe26  1  0.66568589  0.66845818  0.33349199  1
  Ni  Ni27  1  0.16713977  0.16709606  0.50024506  1
  Cr  Cr28  1  0.00109099  0.00110623  0.66709420  1
  Ni  Ni29  1  0.16992675  0.16924518  0.83374954  1
  Cr  Cr30  1  0.16845694  0.50055192  0.50140758  1
  Ni  Ni31  1  0.99998382  0.33389498  0.66971996  1
  Ni  Ni32  1  0.16722978  0.50138261  0.83458743  1
  Ni  Ni33  1  0.16865452  0.83473739  0.49995690  1
  Ni  Ni34  1  0.00166526  0.66782167  0.66886520  1
  Ni  Ni35  1  0.16952970  0.83251154  0.83440534  1
  Cr  Cr36  1  0.50090365  0.16744211  0.50103134  1
  Ni  Ni37  1  0.33449184  0.99886302  0.66829333  1
  Ni  Ni38  1  0.50103530  0.16699917  0.83486020  1
  Ni  Ni39  1  0.50116021  0.50283518  0.50099588  1
  Fe  Fe40  1  0.33494873  0.33459557  0.66934405  1
  Ni  Ni41  1  0.50137921  0.50132514  0.83367157  1
  Ni  Ni42  1  0.50119050  0.83342808  0.50114946  1
  Ni  Ni43  1  0.33527347  0.66861217  0.66846405  1
  Ni  Ni44  1  0.50133310  0.83458615  0.83451994  1
  Ni  Ni45  1  0.83472902  0.16735479  0.50010318  1
  Ni  Ni46  1  0.66715789  1.00075311  0.66863212  1
  Ni  Ni47  1  0.83208154  0.16944006  0.83419766  1
  Cr  Cr48  1  0.83287387  0.50132282  0.50125436  1
  Ni  Ni49  1  0.66818126  0.33474657  0.66880466  1
  Ni  Ni50  1  0.83435299  0.50167991  0.83443951  1
  Ni  Ni51  1  0.83300623  0.83478989  0.50049324  1
  Ni  Ni52  1  0.66595573  0.66753122  0.66782013  1
  Ni  Ni53  1  0.83210440  0.83202344  0.83387241  1
" 