3689,Ni82Fe13Cr3_16,-240.072869922323, 195.194421928589,Ni82Fe13Cr3,"# generated using pymatgen
 data_Cr3Fe7Ni44
_symmetry_space_group_name_H-M   'P 1'
_cell_length_a   7.43964274
_cell_length_b   7.43964274
_cell_length_c   10.52124366
_cell_angle_alpha   90.00000000
_cell_angle_beta   90.00000000
_cell_angle_gamma   90.00000000
_symmetry_Int_Tables_number   1
_chemical_formula_structural   Cr3Fe7Ni44
_chemical_formula_sum   'Cr3 Fe7 Ni44'
_cell_volume   582.33278250
_cell_formula_units_Z   1
loop_
 _symmetry_equiv_pos_site_id
 _symmetry_equiv_pos_as_xyz
  1  'x, y, z'
loop_
 _atom_site_type_symbol
 _atom_site_label
 _atom_site_symmetry_multiplicity
 _atom_site_fract_x
 _atom_site_fract_y
 _atom_site_fract_z
 _atom_site_occupancy
  Ni  Ni0  1  1.00164026  0.00195657  0.00257692  1
  Ni  Ni1  1  0.16985151  0.16990963  0.16724916  1
  Cr  Cr2  1  0.00227612  1.00139097  0.33519424  1
  Ni  Ni3  1  1.00147602  0.33541807  0.00260079  1
  Ni  Ni4  1  0.16774433  0.50105395  0.16835250  1
  Ni  Ni5  1  1.00022413  0.33765059  0.33556307  1
  Ni  Ni6  1  0.00225943  0.66835838  0.00230388  1
  Ni  Ni7  1  0.16738310  0.83445010  0.16617587  1
  Ni  Ni8  1  0.00365532  0.66652873  0.33527044  1
  Ni  Ni9  1  0.33465684  0.00253617  1.00124017  1
  Ni  Ni10  1  0.50069399  0.17012325  0.16800479  1
  Ni  Ni11  1  0.33608831  1.00118826  0.33641661  1
  Ni  Ni12  1  0.33564015  0.33559879  0.00297718  1
  Ni  Ni13  1  0.50200688  0.50000551  0.16762587  1
  Fe  Fe14  1  0.33356585  0.33363512  0.33433333  1
  Ni  Ni15  1  0.33431374  0.66747020  1.00086120  1
  Cr  Cr16  1  0.50270943  0.83582396  0.16852976  1
  Ni  Ni17  1  0.33224307  0.66900333  0.33484214  1
  Ni  Ni18  1  0.66916294  0.00328376  1.00153826  1
  Fe  Fe19  1  0.83469743  0.16961210  0.16772223  1
  Ni  Ni20  1  0.66726429  0.00460827  0.33650963  1
  Ni  Ni21  1  0.66832322  0.33482118  0.00197252  1
  Ni  Ni22  1  0.83573155  0.50274307  0.16794202  1
  Ni  Ni23  1  0.66983179  0.33381410  0.33410017  1
  Ni  Ni24  1  0.66898308  0.66714372  0.00193735  1
  Ni  Ni25  1  0.83602299  0.83316749  0.16724965  1
  Fe  Fe26  1  0.67117545  0.66883660  0.33511664  1
  Ni  Ni27  1  0.16910617  0.16996589  0.50316903  1
  Ni  Ni28  1  1.00146407  0.00198738  0.66803938  1
  Ni  Ni29  1  0.16838682  0.17032824  0.83509345  1
  Ni  Ni30  1  0.16652315  0.50138593  0.50200022  1
  Ni  Ni31  1  1.00132547  0.33524712  0.66762170  1
  Fe  Fe32  1  0.16810670  0.50107721  0.83508373  1
  Ni  Ni33  1  0.16922254  0.83408239  0.50368899  1
  Ni  Ni34  1  0.00216269  0.66838518  0.66786471  1
  Fe  Fe35  1  0.16804523  0.83788716  0.83516533  1
  Ni  Ni36  1  0.50156361  0.16701286  0.50250049  1
  Ni  Ni37  1  0.33573307  1.00155024  0.66773977  1
  Ni  Ni38  1  0.50090042  0.16796249  0.83508402  1
  Cr  Cr39  1  0.50182237  0.50175441  0.50138817  1
  Ni  Ni40  1  0.33474258  0.33459301  0.66813507  1
  Fe  Fe41  1  0.50250744  0.50092401  0.83543534  1
  Ni  Ni42  1  0.50215436  0.83656206  0.50216239  1
  Ni  Ni43  1  0.33437668  0.66951629  0.66947990  1
  Ni  Ni44  1  0.50320158  0.83492243  0.83503976  1
  Ni  Ni45  1  0.83471878  0.16973136  0.50314100  1
  Ni  Ni46  1  0.66833897  0.00238011  0.66783597  1
  Ni  Ni47  1  0.83623477  0.16782713  0.83580531  1
  Ni  Ni48  1  0.83718556  0.50194724  0.50268409  1
  Ni  Ni49  1  0.66941076  0.33369209  0.66944138  1
  Fe  Fe50  1  0.83490140  0.50099595  0.83517942  1
  Ni  Ni51  1  0.83428743  0.83395474  0.50287159  1
  Ni  Ni52  1  0.66900703  0.66917325  0.66823984  1
  Ni  Ni53  1  0.83440708  0.83447990  0.83536150  1
" 