5658,Ni82Fe3Cr13_14,-233.407099385455, 160.286333500989,Ni82Fe3Cr13,"# generated using pymatgen
 data_Cr9FeNi44
_symmetry_space_group_name_H-M   'P 1'
_cell_length_a   7.47144834
_cell_length_b   7.47144834
_cell_length_c   10.56622358
_cell_angle_alpha   90.00000000
_cell_angle_beta   90.00000000
_cell_angle_gamma   90.00000000
_symmetry_Int_Tables_number   1
_chemical_formula_structural   Cr9FeNi44
_chemical_formula_sum   'Cr9 Fe1 Ni44'
_cell_volume   589.83344171
_cell_formula_units_Z   1
loop_
 _symmetry_equiv_pos_site_id
 _symmetry_equiv_pos_as_xyz
  1  'x, y, z'
loop_
 _atom_site_type_symbol
 _atom_site_label
 _atom_site_symmetry_multiplicity
 _atom_site_fract_x
 _atom_site_fract_y
 _atom_site_fract_z
 _atom_site_occupancy
  Ni  Ni0  1  0.99891700  0.00026225  0.00026005  1
  Ni  Ni1  1  0.16637158  0.16672470  0.16660506  1
  Ni  Ni2  1  0.00092134  0.99825842  0.33294916  1
  Ni  Ni3  1  -0.00021455  0.33335060  0.99879309  1
  Ni  Ni4  1  0.16550699  0.49884109  0.16710367  1
  Ni  Ni5  1  0.00252295  0.33250510  0.33123465  1
  Ni  Ni6  1  0.99709328  0.66550337  0.00025327  1
  Ni  Ni7  1  0.16550825  0.83355060  0.16760476  1
  Ni  Ni8  1  -0.00017119  0.66835226  0.33151224  1
  Ni  Ni9  1  0.33384619  0.00225805  0.00005836  1
  Ni  Ni10  1  0.49883915  0.16585722  0.16539585  1
  Ni  Ni11  1  0.33238121  0.99952527  0.33355350  1
  Ni  Ni12  1  0.33211304  0.33049098  0.00039814  1
  Ni  Ni13  1  0.49970363  0.49970830  0.16697161  1
  Ni  Ni14  1  0.33199158  0.33245125  0.33257702  1
  Cr  Cr15  1  0.33282636  0.66636819  0.00084528  1
  Ni  Ni16  1  0.50056969  0.83355110  0.16712695  1
  Ni  Ni17  1  0.33341846  0.66714020  0.33334209  1
  Ni  Ni18  1  0.66635334  0.99956556  0.99896506  1
  Ni  Ni19  1  0.83390610  0.16585828  0.16560438  1
  Ni  Ni20  1  0.66581372  0.99683145  0.33291247  1
  Ni  Ni21  1  0.66721758  0.33231502  0.00003770  1
  Ni  Ni22  1  0.83390588  0.50057143  0.16537219  1
  Cr  Cr23  1  0.66442807  0.33323220  0.33161407  1
  Ni  Ni24  1  0.66921343  0.66723630  0.00022662  1
  Ni  Ni25  1  0.83303879  0.83268647  0.16660465  1
  Ni  Ni26  1  0.66586949  0.66873977  0.33274565  1
  Ni  Ni27  1  0.16886732  0.16537367  0.49918005  1
  Cr  Cr28  1  -0.00003553  0.00072902  0.66593064  1
  Ni  Ni29  1  0.16674213  0.16907279  0.83333084  1
  Cr  Cr30  1  0.16827242  0.49870451  0.49917267  1
  Ni  Ni31  1  0.00102293  0.33296662  0.66908786  1
  Ni  Ni32  1  0.16401955  0.49619064  0.83275184  1
  Ni  Ni33  1  0.16821657  0.83481402  0.49791520  1
  Cr  Cr34  1  0.99844594  0.66585818  0.66757428  1
  Cr  Cr35  1  0.16739693  0.83376832  0.83413846  1
  Ni  Ni36  1  0.49711563  0.16523805  0.50102354  1
  Ni  Ni37  1  0.33577443  0.00134032  0.66550464  1
  Ni  Ni38  1  0.49985072  0.16466906  0.83269679  1
  Ni  Ni39  1  0.49880125  0.50083623  0.50056932  1
  Ni  Ni40  1  0.33330853  0.33102875  0.66614149  1
  Cr  Cr41  1  0.50047532  0.49915305  0.83191040  1
  Ni  Ni42  1  0.49967294  0.83304302  0.50030231  1
  Fe  Fe43  1  0.33595210  0.66686462  0.66513738  1
  Ni  Ni44  1  0.50241086  0.83561484  0.83168735  1
  Cr  Cr45  1  0.83328085  0.16511907  0.49958089  1
  Ni  Ni46  1  0.66319072  0.99852701  0.66723880  1
  Ni  Ni47  1  0.83252366  0.16747209  0.83344987  1
  Cr  Cr48  1  0.83158913  0.50061769  0.49977526  1
  Ni  Ni49  1  0.66478554  0.33297151  0.66714663  1
  Ni  Ni50  1  0.83428754  0.49875134  0.83352812  1
  Ni  Ni51  1  0.83122761  0.83312584  0.49813833  1
  Ni  Ni52  1  0.66512730  0.66761829  0.66614331  1
  Ni  Ni53  1  0.82988302  0.83289283  0.83437302  1
" 