8770,Ni82Fe9Cr8_16,-237.647747546258, 183.019027848272,Ni82Fe9Cr8,"# generated using pymatgen
 data_Cr5Fe5Ni44
_symmetry_space_group_name_H-M   'P 1'
_cell_length_a   7.44770587
_cell_length_b   7.44770587
_cell_length_c   10.53264665
_cell_angle_alpha   90.00000000
_cell_angle_beta   90.00000000
_cell_angle_gamma   90.00000000
_symmetry_Int_Tables_number   1
_chemical_formula_structural   Cr5Fe5Ni44
_chemical_formula_sum   'Cr5 Fe5 Ni44'
_cell_volume   584.22824307
_cell_formula_units_Z   1
loop_
 _symmetry_equiv_pos_site_id
 _symmetry_equiv_pos_as_xyz
  1  'x, y, z'
loop_
 _atom_site_type_symbol
 _atom_site_label
 _atom_site_symmetry_multiplicity
 _atom_site_fract_x
 _atom_site_fract_y
 _atom_site_fract_z
 _atom_site_occupancy
  Ni  Ni0  1  1.00077732  0.00140722  0.00223139  1
  Ni  Ni1  1  0.16667695  0.16835418  0.16838438  1
  Ni  Ni2  1  1.00039073  1.00118282  0.33410299  1
  Fe  Fe3  1  0.00234634  0.33447639  1.00127490  1
  Ni  Ni4  1  0.16735663  0.50200221  0.16780842  1
  Ni  Ni5  1  1.00086560  0.33517363  0.33435812  1
  Ni  Ni6  1  0.00230530  0.66756170  1.00059753  1
  Ni  Ni7  1  0.16777688  0.83364524  0.16687208  1
  Ni  Ni8  1  0.00175236  0.66754982  0.33443424  1
  Ni  Ni9  1  0.33461934  0.00241395  1.00105572  1
  Ni  Ni10  1  0.50174436  0.16921705  0.16590220  1
  Cr  Cr11  1  0.33341658  0.00218062  0.33524803  1
  Ni  Ni12  1  0.33467939  0.33495396  0.00185821  1
  Ni  Ni13  1  0.50048959  0.50055509  0.16967832  1
  Ni  Ni14  1  0.33496312  0.33702067  0.33470427  1
  Ni  Ni15  1  0.33334445  0.66648159  0.00158204  1
  Ni  Ni16  1  0.49889195  0.83400620  0.16714359  1
  Ni  Ni17  1  0.33391008  0.66581167  0.33350948  1
  Ni  Ni18  1  0.66852310  0.00286698  1.00096343  1
  Ni  Ni19  1  0.83555871  0.16949618  0.16691491  1
  Cr  Cr20  1  0.66970294  0.00231014  0.33396066  1
  Fe  Fe21  1  0.66758137  0.33397889  0.00140268  1
  Ni  Ni22  1  0.83616776  0.49936914  0.16938490  1
  Ni  Ni23  1  0.66803484  0.33551840  0.33376200  1
  Cr  Cr24  1  0.66801591  0.66720286  0.00145648  1
  Fe  Fe25  1  0.83685142  0.83446080  0.16731739  1
  Fe  Fe26  1  0.66793046  0.66584671  0.33538794  1
  Fe  Fe27  1  0.16764256  0.17036810  0.50114513  1
  Cr  Cr28  1  1.00121279  1.00102253  0.66700931  1
  Ni  Ni29  1  0.16881247  0.16849396  0.83476679  1
  Ni  Ni30  1  0.16658978  0.50157031  0.50029087  1
  Ni  Ni31  1  1.00117370  0.33650489  0.66836839  1
  Ni  Ni32  1  0.16672346  0.50047907  0.83592275  1
  Ni  Ni33  1  0.16728034  0.83261685  0.50039062  1
  Ni  Ni34  1  0.99931972  0.66612357  0.66863910  1
  Ni  Ni35  1  0.16806219  0.83493567  0.83681143  1
  Ni  Ni36  1  0.50268998  0.16977353  0.50336952  1
  Ni  Ni37  1  0.33644392  0.00337668  0.66827921  1
  Ni  Ni38  1  0.50149500  0.16764527  0.83477892  1
  Ni  Ni39  1  0.50201078  0.49987516  0.49982370  1
  Ni  Ni40  1  0.33478894  0.33363938  0.66737228  1
  Ni  Ni41  1  0.50136935  0.49928054  0.83452538  1
  Ni  Ni42  1  0.50139378  0.83417240  0.50262121  1
  Cr  Cr43  1  0.33378140  0.66694304  0.66961973  1
  Ni  Ni44  1  0.50111262  0.83679266  0.83429681  1
  Ni  Ni45  1  0.83367647  0.17017592  0.50120379  1
  Ni  Ni46  1  0.66719824  0.00151757  0.66853781  1
  Ni  Ni47  1  0.83366929  0.16881601  0.83567556  1
  Ni  Ni48  1  0.83530738  0.50034807  0.50163389  1
  Ni  Ni49  1  0.66792670  0.33474968  0.66879029  1
  Ni  Ni50  1  0.83588700  0.50032830  0.83285527  1
  Ni  Ni51  1  0.83527637  0.83318505  0.50059486  1
  Ni  Ni52  1  0.66977870  0.66755227  0.66690094  1
  Ni  Ni53  1  0.83482278  0.83478855  0.83459934  1
" 