1518,Ni82Fe18_7,-231.787038322912, 178.741849700164,Ni82Fe18,"# generated using pymatgen
 data_Fe22Ni5
_symmetry_space_group_name_H-M   'P 1'
_cell_length_a   7.40182042
_cell_length_b   7.40182042
_cell_length_c   10.46775483
_cell_angle_alpha   90.00000000
_cell_angle_beta   90.00000000
_cell_angle_gamma   90.00000000
_symmetry_Int_Tables_number   1
_chemical_formula_structural   Fe22Ni5
_chemical_formula_sum   'Fe44 Ni10'
_cell_volume   573.49631380
_cell_formula_units_Z   2
loop_
 _symmetry_equiv_pos_site_id
 _symmetry_equiv_pos_as_xyz
  1  'x, y, z'
loop_
 _atom_site_type_symbol
 _atom_site_label
 _atom_site_symmetry_multiplicity
 _atom_site_fract_x
 _atom_site_fract_y
 _atom_site_fract_z
 _atom_site_occupancy
  Ni  Ni0  1  1.00439362  0.00467211  0.00488763  1
  Fe  Fe1  1  0.16967784  0.17101610  0.17138326  1
  Fe  Fe2  1  1.00423987  0.00490174  0.33720757  1
  Fe  Fe3  1  1.00413214  0.33735102  0.00510580  1
  Fe  Fe4  1  0.16978594  0.50429770  0.17160572  1
  Ni  Ni5  1  0.00453945  0.33753828  0.33747250  1
  Fe  Fe6  1  1.00418873  0.67151920  0.00473744  1
  Fe  Fe7  1  0.16989932  0.83790455  0.17073589  1
  Fe  Fe8  1  1.00429726  0.67057534  0.33751703  1
  Fe  Fe9  1  0.33735068  0.00440693  1.00435062  1
  Fe  Fe10  1  0.50552881  0.17095967  0.17101589  1
  Fe  Fe11  1  0.33726254  0.00493966  0.33796179  1
  Fe  Fe12  1  0.33759428  0.33753896  1.00407052  1
  Fe  Fe13  1  0.50552739  0.50446350  0.17095738  1
  Fe  Fe14  1  0.33724254  0.33790458  0.33835074  1
  Fe  Fe15  1  0.33748079  0.67127280  1.00418537  1
  Fe  Fe16  1  0.50547218  0.83779540  0.17113180  1
  Fe  Fe17  1  0.33737166  0.67037381  0.33806844  1
  Fe  Fe18  1  0.67173732  0.00446345  0.00479470  1
  Ni  Ni19  1  0.83814934  0.17047343  0.17093963  1
  Fe  Fe20  1  0.67171638  0.00477309  0.33735174  1
  Fe  Fe21  1  0.67149179  0.33748125  0.00451492  1
  Ni  Ni22  1  0.83761236  0.50453157  0.17094283  1
  Fe  Fe23  1  0.67151370  0.33784830  0.33745814  1
  Fe  Fe24  1  0.67154862  0.67127425  1.00414647  1
  Ni  Ni25  1  0.83788106  0.83821393  0.17066896  1
  Fe  Fe26  1  0.67155098  0.67059806  0.33794142  1
  Ni  Ni27  1  0.17078218  0.17113440  0.50446306  1
  Fe  Fe28  1  1.00414643  1.00414786  0.67138939  1
  Fe  Fe29  1  0.17132910  0.17121774  0.83753658  1
  Ni  Ni30  1  0.17194460  0.50385711  0.50480296  1
  Fe  Fe31  1  1.00436894  0.33804891  0.67031618  1
  Fe  Fe32  1  0.17145927  0.50440532  0.83742892  1
  Fe  Fe33  1  0.17155252  0.83742939  0.50446299  1
  Fe  Fe34  1  1.00418062  0.67102066  0.67096395  1
  Fe  Fe35  1  0.17132998  0.83759565  0.83802088  1
  Fe  Fe36  1  0.50359303  0.17165895  0.50440577  1
  Fe  Fe37  1  0.33793989  1.00420566  0.67090616  1
  Fe  Fe38  1  0.50434966  0.17140542  0.83779687  1
  Ni  Ni39  1  0.50395967  0.50476322  0.50438674  1
  Fe  Fe40  1  0.33816531  0.33843753  0.67079858  1
  Ni  Ni41  1  0.50427800  0.50467831  0.83781896  1
  Fe  Fe42  1  0.50378140  0.83730002  0.50457047  1
  Fe  Fe43  1  0.33829515  0.67057467  0.67096566  1
  Fe  Fe44  1  0.50451577  0.83724150  0.83751617  1
  Fe  Fe45  1  0.83829311  0.17197302  0.50392963  1
  Fe  Fe46  1  0.67113153  1.00401754  0.67107100  1
  Fe  Fe47  1  0.83753964  0.17127509  0.83827380  1
  Fe  Fe48  1  0.83816327  0.50403964  0.50409604  1
  Fe  Fe49  1  0.67068327  0.33840574  0.67124437  1
  Fe  Fe50  1  0.83718398  0.50457205  0.83788358  1
  Fe  Fe51  1  0.83788406  0.83720570  0.50437585  1
  Ni  Ni52  1  0.67052319  0.67086071  0.67101068  1
  Fe  Fe53  1  0.83737239  0.83737206  0.83799314  1
" 