6973,Ni82Fe8Cr9_14,-236.692904106142, 179.80235074264,Ni82Fe8Cr9,"# generated using pymatgen
 data_Cr3(FeNi11)2
_symmetry_space_group_name_H-M   'P 1'
_cell_length_a   7.45184563
_cell_length_b   7.45184563
_cell_length_c   10.53850116
_cell_angle_alpha   90.00000000
_cell_angle_beta   90.00000000
_cell_angle_gamma   90.00000000
_symmetry_Int_Tables_number   1
_chemical_formula_structural   Cr3(FeNi11)2
_chemical_formula_sum   'Cr6 Fe4 Ni44'
_cell_volume   585.20300468
_cell_formula_units_Z   2
loop_
 _symmetry_equiv_pos_site_id
 _symmetry_equiv_pos_as_xyz
  1  'x, y, z'
loop_
 _atom_site_type_symbol
 _atom_site_label
 _atom_site_symmetry_multiplicity
 _atom_site_fract_x
 _atom_site_fract_y
 _atom_site_fract_z
 _atom_site_occupancy
  Ni  Ni0  1  0.00150044  0.00120710  1.00073690  1
  Ni  Ni1  1  0.16684023  0.16809809  0.16795860  1
  Ni  Ni2  1  0.00199349  0.00204336  0.33390257  1
  Ni  Ni3  1  0.00153954  0.33425355  0.00115082  1
  Ni  Ni4  1  0.16631468  0.50017436  0.16670993  1
  Ni  Ni5  1  1.00091983  0.33434608  0.33448181  1
  Ni  Ni6  1  0.00272440  0.66759233  1.00086381  1
  Ni  Ni7  1  0.16608544  0.83479222  0.16688340  1
  Ni  Ni8  1  0.99977508  0.66667496  0.33376561  1
  Ni  Ni9  1  0.33339223  1.00011698  1.00032856  1
  Cr  Cr10  1  0.50034512  0.16784265  0.16710375  1
  Ni  Ni11  1  0.33354506  0.00162662  0.33537604  1
  Ni  Ni12  1  0.33326249  0.33524192  1.00021402  1
  Ni  Ni13  1  0.50142863  0.50060227  0.16820458  1
  Ni  Ni14  1  0.33331290  0.33345875  0.33530148  1
  Ni  Ni15  1  0.33312666  0.66769518  1.00046022  1
  Ni  Ni16  1  0.50185985  0.83459058  0.16766000  1
  Cr  Cr17  1  0.33488497  0.66825528  0.33424153  1
  Ni  Ni18  1  0.66818496  0.00133914  0.99971767  1
  Fe  Fe19  1  0.83592295  0.16768823  0.16762160  1
  Ni  Ni20  1  0.66753439  1.00047030  0.33464176  1
  Ni  Ni21  1  0.66829326  0.33401174  0.99956058  1
  Ni  Ni22  1  0.83533666  0.50136925  0.16844600  1
  Ni  Ni23  1  0.66883620  0.33567490  0.33583295  1
  Cr  Cr24  1  0.66696551  0.66803931  0.00171080  1
  Ni  Ni25  1  0.83511497  0.83403409  0.16882810  1
  Ni  Ni26  1  0.66844698  0.66692349  0.33330619  1
  Ni  Ni27  1  0.16927912  0.16764949  0.49997817  1
  Ni  Ni28  1  0.00240855  0.99987853  0.66841456  1
  Ni  Ni29  1  0.16850879  0.16750031  0.83512918  1
  Ni  Ni30  1  0.16693543  0.50080216  0.50087618  1
  Cr  Cr31  1  0.00121057  0.33380559  0.66756712  1
  Ni  Ni32  1  0.16878166  0.50193760  0.83547805  1
  Ni  Ni33  1  0.16828712  0.83459078  0.50214840  1
  Ni  Ni34  1  0.00296740  0.66858814  0.66843952  1
  Ni  Ni35  1  0.16675778  0.83361943  0.83402535  1
  Ni  Ni36  1  0.50111993  0.16763734  0.50160313  1
  Ni  Ni37  1  0.33434095  0.00118442  0.66734821  1
  Ni  Ni38  1  0.50186644  0.16827617  0.83399027  1
  Fe  Fe39  1  0.50100339  0.49867625  0.50079560  1
  Ni  Ni40  1  0.33578168  0.33372126  0.66755001  1
  Ni  Ni41  1  0.49908111  0.49868290  0.83417585  1
  Ni  Ni42  1  0.49990118  0.83692203  0.50070309  1
  Fe  Fe43  1  0.33277144  0.66825042  0.66832484  1
  Ni  Ni44  1  0.50033684  0.83609668  0.83470318  1
  Ni  Ni45  1  0.83266631  0.16892488  0.49977987  1
  Ni  Ni46  1  0.66630323  0.00266855  0.66867198  1
  Ni  Ni47  1  0.83268767  0.16623092  0.83535437  1
  Ni  Ni48  1  0.83495292  0.49958500  0.49964014  1
  Ni  Ni49  1  0.66580077  0.33315735  0.66764416  1
  Fe  Fe50  1  0.83521631  0.50022798  0.83512230  1
  Cr  Cr51  1  0.83531215  0.83476377  0.50016698  1
  Cr  Cr52  1  0.66736351  0.66713673  0.66834729  1
  Ni  Ni53  1  0.83595153  0.83640335  0.83409369  1
" 