2712,Ni82Fe8Cr9_1,-236.6346647843, 179.040659611633,Ni82Fe8Cr9,"# generated using pymatgen
 data_Cr3(FeNi11)2
_symmetry_space_group_name_H-M   'P 1'
_cell_length_a   7.45495523
_cell_length_b   7.45495523
_cell_length_c   10.54289879
_cell_angle_alpha   90.00000000
_cell_angle_beta   90.00000000
_cell_angle_gamma   90.00000000
_symmetry_Int_Tables_number   1
_chemical_formula_structural   Cr3(FeNi11)2
_chemical_formula_sum   'Cr6 Fe4 Ni44'
_cell_volume   585.93591131
_cell_formula_units_Z   2
loop_
 _symmetry_equiv_pos_site_id
 _symmetry_equiv_pos_as_xyz
  1  'x, y, z'
loop_
 _atom_site_type_symbol
 _atom_site_label
 _atom_site_symmetry_multiplicity
 _atom_site_fract_x
 _atom_site_fract_y
 _atom_site_fract_z
 _atom_site_occupancy
  Ni  Ni0  1  0.00281923  0.00101854  0.00095315  1
  Ni  Ni1  1  0.16671405  0.16801733  0.16602255  1
  Ni  Ni2  1  0.99897882  0.00154265  0.33435545  1
  Ni  Ni3  1  0.00086024  0.33442317  0.00098548  1
  Ni  Ni4  1  0.16569834  0.50063309  0.16785081  1
  Ni  Ni5  1  0.99994227  0.33391314  0.33384072  1
  Ni  Ni6  1  0.00092733  0.66699093  0.00154302  1
  Ni  Ni7  1  0.16680946  0.83378217  0.16648117  1
  Fe  Fe8  1  0.99988137  0.66764308  0.33425749  1
  Ni  Ni9  1  0.33262132  1.00049083  0.00084966  1
  Ni  Ni10  1  0.50089208  0.16697974  0.16763730  1
  Cr  Cr11  1  0.33345225  1.00066344  0.33264280  1
  Ni  Ni12  1  0.33291960  0.33329338  0.00090153  1
  Cr  Cr13  1  0.50116171  0.50081328  0.16718250  1
  Fe  Fe14  1  0.33375411  0.33452692  0.33519007  1
  Ni  Ni15  1  0.33338003  0.66864786  0.99994186  1
  Ni  Ni16  1  0.50107330  0.83454030  0.16753888  1
  Ni  Ni17  1  0.33346081  0.66640860  0.33440549  1
  Cr  Cr18  1  0.66727119  1.00059885  0.00156162  1
  Ni  Ni19  1  0.83482725  0.16809349  0.16883166  1
  Ni  Ni20  1  0.66982108  0.00132089  0.33317558  1
  Ni  Ni21  1  0.66865058  0.33518548  0.99979986  1
  Ni  Ni22  1  0.83558413  0.50081736  0.16714384  1
  Ni  Ni23  1  0.66925456  0.33374096  0.33541769  1
  Ni  Ni24  1  0.66812378  0.66668949  1.00019698  1
  Ni  Ni25  1  0.83454883  0.83352301  0.16849348  1
  Ni  Ni26  1  0.66816517  0.66737372  0.33397085  1
  Ni  Ni27  1  0.16736472  0.16840774  0.50223703  1
  Ni  Ni28  1  0.00313112  0.00085204  0.66712404  1
  Ni  Ni29  1  0.16809239  0.16743581  0.83417047  1
  Ni  Ni30  1  0.16735706  0.50045564  0.50072805  1
  Ni  Ni31  1  0.00116385  0.33408316  0.66760648  1
  Ni  Ni32  1  0.16688283  0.50089094  0.83385268  1
  Ni  Ni33  1  0.16466919  0.83356885  0.50249665  1
  Ni  Ni34  1  0.00304859  0.66749843  0.66651618  1
  Ni  Ni35  1  0.16801984  0.83410598  0.83345279  1
  Ni  Ni36  1  0.50049726  0.17117544  0.50087533  1
  Ni  Ni37  1  0.33129725  0.00152967  0.66853498  1
  Ni  Ni38  1  0.49930417  0.16853866  0.83391685  1
  Ni  Ni39  1  0.50051662  0.49770913  0.50068698  1
  Ni  Ni40  1  0.33384304  0.33398877  0.66624286  1
  Fe  Fe41  1  0.49998328  0.49992534  0.83469704  1
  Cr  Cr42  1  0.50042454  0.83377133  0.49993602  1
  Ni  Ni43  1  0.33127924  0.66691442  0.66808938  1
  Ni  Ni44  1  0.49844499  0.83393330  0.83517943  1
  Fe  Fe45  1  0.83541349  0.16873328  0.49977524  1
  Cr  Cr46  1  0.66818338  0.00292411  0.66778936  1
  Ni  Ni47  1  0.83503799  0.16967206  0.83341852  1
  Ni  Ni48  1  0.83455676  0.50040296  0.50005507  1
  Ni  Ni49  1  0.66742591  0.33406670  0.66721441  1
  Ni  Ni50  1  0.83486171  0.50003450  0.83523637  1
  Ni  Ni51  1  0.83732641  0.83354421  0.49909887  1
  Cr  Cr52  1  0.66810757  0.66523464  0.66885202  1
  Ni  Ni53  1  0.83596954  0.83272683  0.83484105  1
" 