7811,Ni82Fe2Cr14_9,-233.483510863781, 163.106852274205,Ni82Fe2Cr14,"# generated using pymatgen
 data_Cr9FeNi44
_symmetry_space_group_name_H-M   'P 1'
_cell_length_a   7.47071960
_cell_length_b   7.47071960
_cell_length_c   10.56519298
_cell_angle_alpha   90.00000000
_cell_angle_beta   90.00000000
_cell_angle_gamma   90.00000000
_symmetry_Int_Tables_number   1
_chemical_formula_structural   Cr9FeNi44
_chemical_formula_sum   'Cr9 Fe1 Ni44'
_cell_volume   589.66086742
_cell_formula_units_Z   1
loop_
 _symmetry_equiv_pos_site_id
 _symmetry_equiv_pos_as_xyz
  1  'x, y, z'
loop_
 _atom_site_type_symbol
 _atom_site_label
 _atom_site_symmetry_multiplicity
 _atom_site_fract_x
 _atom_site_fract_y
 _atom_site_fract_z
 _atom_site_occupancy
  Ni  Ni0  1  0.99870311  0.00057378  0.00067212  1
  Ni  Ni1  1  0.16622830  0.16710329  0.16743344  1
  Ni  Ni2  1  -0.00007933  0.00030018  0.33269113  1
  Ni  Ni3  1  0.99925926  0.33159889  0.99964252  1
  Ni  Ni4  1  0.16677574  0.49859019  0.16699965  1
  Ni  Ni5  1  0.00067997  0.33202122  0.33421363  1
  Ni  Ni6  1  0.99870076  0.66709181  0.00101768  1
  Ni  Ni7  1  0.16404744  0.83356798  0.16709580  1
  Ni  Ni8  1  0.00095066  0.66694392  0.33372092  1
  Cr  Cr9  1  0.33269772  0.00076419  0.99936149  1
  Ni  Ni10  1  0.50040381  0.16710370  0.16764195  1
  Ni  Ni11  1  0.33238080  0.00058426  0.33240841  1
  Ni  Ni12  1  0.33394632  0.33280049  0.00107580  1
  Ni  Ni13  1  0.49865518  0.49738252  0.16540619  1
  Ni  Ni14  1  0.33134394  0.33146056  0.33079428  1
  Cr  Cr15  1  0.33410698  0.66596606  0.00080019  1
  Ni  Ni16  1  0.50138116  0.83477444  0.16657668  1
  Cr  Cr17  1  0.33123108  0.66703826  0.33184441  1
  Ni  Ni18  1  0.66764052  0.00039886  0.00107403  1
  Ni  Ni19  1  0.83263002  0.16437928  0.16640857  1
  Ni  Ni20  1  0.66696243  0.00085811  0.33189330  1
  Ni  Ni21  1  0.66605717  0.33280142  0.99878463  1
  Cr  Cr22  1  0.83406686  0.49956884  0.16503866  1
  Ni  Ni23  1  0.66723775  0.33043152  0.33214962  1
  Ni  Ni24  1  0.66644374  0.66606250  0.99961943  1
  Ni  Ni25  1  0.83383411  0.83531633  0.16602791  1
  Cr  Cr26  1  0.66726913  0.66768801  0.33309049  1
  Ni  Ni27  1  0.16424634  0.16607309  0.49975520  1
  Ni  Ni28  1  0.00117392  0.00071674  0.66590339  1
  Ni  Ni29  1  0.16599938  0.16554368  0.83207355  1
  Ni  Ni30  1  0.16303722  0.49981531  0.50001730  1
  Ni  Ni31  1  0.99885233  0.33240380  0.66540694  1
  Cr  Cr32  1  0.16547688  0.49930097  0.83252188  1
  Ni  Ni33  1  0.16570704  0.83337345  0.50072481  1
  Ni  Ni34  1  0.00014390  0.66614564  0.66452724  1
  Ni  Ni35  1  0.16660278  0.83474538  0.83143962  1
  Cr  Cr36  1  0.49983544  0.16472345  0.49914787  1
  Ni  Ni37  1  0.33234574  0.99822212  0.66727079  1
  Ni  Ni38  1  0.50059582  0.16729502  0.83226715  1
  Cr  Cr39  1  0.49983357  0.49948085  0.50119488  1
  Ni  Ni40  1  0.33233850  0.33257159  0.66739175  1
  Ni  Ni41  1  0.50234730  0.49880356  0.83243855  1
  Ni  Ni42  1  0.49934147  0.83458214  0.50158821  1
  Ni  Ni43  1  0.33354260  0.66846914  0.66643777  1
  Ni  Ni44  1  0.49982568  0.83316444  0.83109621  1
  Ni  Ni45  1  0.83476069  0.16698370  0.49958306  1
  Ni  Ni46  1  0.66574557  0.99951583  0.66629746  1
  Ni  Ni47  1  0.83266705  0.16806870  0.83327114  1
  Ni  Ni48  1  0.83597435  0.49890448  0.50092330  1
  Ni  Ni49  1  0.66807146  0.33359992  0.66832423  1
  Ni  Ni50  1  0.83108446  0.49820225  0.83290536  1
  Fe  Fe51  1  0.83458342  0.83385847  0.50018971  1
  Ni  Ni52  1  0.66557664  0.66614802  0.66672434  1
  Cr  Cr53  1  0.83346488  0.83284669  0.83382438  1
" 