5437,Ni82Fe3Cr13_1,-233.557283772039, 163.895027022436,Ni82Fe3Cr13,"# generated using pymatgen
 data_Cr9FeNi44
_symmetry_space_group_name_H-M   'P 1'
_cell_length_a   7.46906555
_cell_length_b   7.46906555
_cell_length_c   10.56285380
_cell_angle_alpha   90.00000000
_cell_angle_beta   90.00000000
_cell_angle_gamma   90.00000000
_symmetry_Int_Tables_number   1
_chemical_formula_structural   Cr9FeNi44
_chemical_formula_sum   'Cr9 Fe1 Ni44'
_cell_volume   589.26929402
_cell_formula_units_Z   1
loop_
 _symmetry_equiv_pos_site_id
 _symmetry_equiv_pos_as_xyz
  1  'x, y, z'
loop_
 _atom_site_type_symbol
 _atom_site_label
 _atom_site_symmetry_multiplicity
 _atom_site_fract_x
 _atom_site_fract_y
 _atom_site_fract_z
 _atom_site_occupancy
  Cr  Cr0  1  0.99917230  0.00130285  0.99904416  1
  Ni  Ni1  1  0.16718560  0.16792746  0.16730024  1
  Ni  Ni2  1  0.99807381  0.00145534  0.33237397  1
  Ni  Ni3  1  0.99893055  0.33356729  0.00130869  1
  Ni  Ni4  1  0.16613015  0.49989973  0.16699560  1
  Ni  Ni5  1  0.00014465  0.33230256  0.33270059  1
  Ni  Ni6  1  0.99868500  0.66624759  0.00140288  1
  Ni  Ni7  1  0.16542964  0.83205753  0.16737319  1
  Ni  Ni8  1  0.00046100  0.66588031  0.33187543  1
  Ni  Ni9  1  0.33275420  -0.00000079  0.00064928  1
  Ni  Ni10  1  0.50044482  0.16857350  0.16674556  1
  Fe  Fe11  1  0.33292205  0.00203408  0.33254664  1
  Ni  Ni12  1  0.33309669  0.33339109  0.00133105  1
  Ni  Ni13  1  0.49900522  0.49722538  0.16484716  1
  Ni  Ni14  1  0.33320407  0.33399100  0.33382472  1
  Ni  Ni15  1  0.33370166  0.66625687  0.00004759  1
  Cr  Cr16  1  0.49993880  0.83475535  0.16581222  1
  Ni  Ni17  1  0.33236242  0.66353395  0.33299883  1
  Ni  Ni18  1  0.66707125  0.99985753  0.00022241  1
  Ni  Ni19  1  0.83195989  0.16768825  0.16738826  1
  Ni  Ni20  1  0.66870868  0.00203150  0.33402892  1
  Ni  Ni21  1  0.66756295  0.33430587  0.00166303  1
  Ni  Ni22  1  0.83443033  0.49867142  0.16553536  1
  Ni  Ni23  1  0.66626633  0.33118693  0.33297549  1
  Ni  Ni24  1  0.66712696  0.66550806  0.99895779  1
  Ni  Ni25  1  0.83486516  0.83326374  0.16695994  1
  Cr  Cr26  1  0.66677968  0.66453979  0.33403645  1
  Ni  Ni27  1  0.16643093  0.16819908  0.49838539  1
  Ni  Ni28  1  0.99702046  0.99943977  0.66777954  1
  Ni  Ni29  1  0.16609851  0.16606510  0.83399792  1
  Ni  Ni30  1  0.16600685  0.49823373  0.49780143  1
  Cr  Cr31  1  0.99967550  0.33105336  0.66578162  1
  Cr  Cr32  1  0.16573243  0.49948088  0.83462471  1
  Cr  Cr33  1  0.16335467  0.83220456  0.49714727  1
  Ni  Ni34  1  0.99640594  0.66791724  0.66615544  1
  Ni  Ni35  1  0.16528856  0.83326837  0.83455895  1
  Ni  Ni36  1  0.50133939  0.16759989  0.49853676  1
  Cr  Cr37  1  0.33225652  0.00154273  0.66699405  1
  Cr  Cr38  1  0.50156037  0.16847594  0.83508948  1
  Ni  Ni39  1  0.50025677  0.49753633  0.50029107  1
  Ni  Ni40  1  0.33509356  0.33308881  0.66455395  1
  Ni  Ni41  1  0.50266372  0.50033500  0.83419431  1
  Ni  Ni42  1  0.50232848  0.83444179  0.49894797  1
  Cr  Cr43  1  0.33625879  0.66465792  0.66615363  1
  Ni  Ni44  1  0.50208710  0.83247904  0.83518404  1
  Ni  Ni45  1  0.83206607  0.16604030  0.49918417  1
  Ni  Ni46  1  0.66892267  0.99914200  0.66552067  1
  Ni  Ni47  1  0.83238522  0.16701029  0.83298741  1
  Ni  Ni48  1  0.83351678  0.49954324  0.49981729  1
  Ni  Ni49  1  0.66618862  0.33425296  0.66504782  1
  Ni  Ni50  1  0.83091367  0.50052348  0.83416233  1
  Ni  Ni51  1  0.83219547  0.83412355  0.50070419  1
  Ni  Ni52  1  0.66807316  0.66642053  0.66631399  1
  Ni  Ni53  1  0.83217125  0.83217524  0.83184444  1
" 