2708,Ni82Fe2Cr14_3,-233.478403901604, 162.332214509005,Ni82Fe2Cr14,"# generated using pymatgen
 data_Cr9FeNi44
_symmetry_space_group_name_H-M   'P 1'
_cell_length_a   7.46979753
_cell_length_b   7.46979753
_cell_length_c   10.56388898
_cell_angle_alpha   90.00000000
_cell_angle_beta   90.00000000
_cell_angle_gamma   90.00000000
_symmetry_Int_Tables_number   1
_chemical_formula_structural   Cr9FeNi44
_chemical_formula_sum   'Cr9 Fe1 Ni44'
_cell_volume   589.44255849
_cell_formula_units_Z   1
loop_
 _symmetry_equiv_pos_site_id
 _symmetry_equiv_pos_as_xyz
  1  'x, y, z'
loop_
 _atom_site_type_symbol
 _atom_site_label
 _atom_site_symmetry_multiplicity
 _atom_site_fract_x
 _atom_site_fract_y
 _atom_site_fract_z
 _atom_site_occupancy
  Ni  Ni0  1  -0.00003507  0.99960789  0.99940637  1
  Ni  Ni1  1  0.16787548  0.16796592  0.16592795  1
  Cr  Cr2  1  0.00096472  0.00031211  0.33306214  1
  Ni  Ni3  1  0.00268525  0.33171216  0.00103413  1
  Ni  Ni4  1  0.16607999  0.49954176  0.16646719  1
  Ni  Ni5  1  0.00241836  0.33388446  0.33239684  1
  Ni  Ni6  1  0.00280682  0.66810632  0.00101063  1
  Ni  Ni7  1  0.16798443  0.83191787  0.16609360  1
  Ni  Ni8  1  0.00186340  0.66519290  0.33121909  1
  Ni  Ni9  1  0.33253600  0.99977983  -0.00014142  1
  Ni  Ni10  1  0.49777785  0.16409479  0.16666328  1
  Ni  Ni11  1  0.33361607  0.00059188  0.33257014  1
  Ni  Ni12  1  0.33146166  0.33335156  0.00003627  1
  Ni  Ni13  1  0.49686891  0.50089738  0.16829813  1
  Ni  Ni14  1  0.33161596  0.33333311  0.33301012  1
  Ni  Ni15  1  0.33123141  0.66630705  0.99939647  1
  Ni  Ni16  1  0.49901558  0.83449133  0.16758937  1
  Ni  Ni17  1  0.33204423  0.66548897  0.33254174  1
  Ni  Ni18  1  0.66695623  -0.00004959  0.00006019  1
  Ni  Ni19  1  0.83386110  0.16593598  0.16578725  1
  Ni  Ni20  1  0.66505297  -0.00004792  0.33093209  1
  Cr  Cr21  1  0.66479523  0.33122531  0.00027175  1
  Ni  Ni22  1  0.83645564  0.50080611  0.16786890  1
  Cr  Cr23  1  0.66557868  0.33204275  0.33243226  1
  Cr  Cr24  1  0.66533720  0.66876761  0.00103754  1
  Ni  Ni25  1  0.83252272  0.83272380  0.16680669  1
  Ni  Ni26  1  0.66546329  0.66708804  0.33011957  1
  Ni  Ni27  1  0.16729364  0.16734804  0.49962414  1
  Ni  Ni28  1  0.00054822  0.00043217  0.66721949  1
  Ni  Ni29  1  0.16598453  0.16585693  0.83395704  1
  Ni  Ni30  1  0.16621597  0.50031156  0.49872263  1
  Ni  Ni31  1  0.99970075  0.33095565  0.66611062  1
  Ni  Ni32  1  0.16715460  0.50059199  0.83428207  1
  Ni  Ni33  1  0.16839935  0.83174923  0.50099673  1
  Ni  Ni34  1  0.00262165  0.66803712  0.66727945  1
  Ni  Ni35  1  0.16715460  0.83299420  0.83237157  1
  Ni  Ni36  1  0.49946640  0.16531158  0.49960199  1
  Ni  Ni37  1  0.33185670  0.99881685  0.66698112  1
  Ni  Ni38  1  0.49962506  0.16403254  0.83315319  1
  Fe  Fe39  1  0.49772473  0.49973671  0.49976687  1
  Cr  Cr40  1  0.33329937  0.33321215  0.66647405  1
  Ni  Ni41  1  0.49709177  0.50088995  0.83109638  1
  Cr  Cr42  1  0.49820427  0.83444058  0.49926239  1
  Ni  Ni43  1  0.33205746  0.66727173  0.66742654  1
  Ni  Ni44  1  0.49877702  0.83455369  0.83222855  1
  Ni  Ni45  1  0.83268642  0.16753677  0.50213584  1
  Ni  Ni46  1  0.66702336  0.00175799  0.66840668  1
  Ni  Ni47  1  0.83380911  0.16412053  0.83149987  1
  Cr  Cr48  1  0.83509320  0.49941925  0.50082196  1
  Ni  Ni49  1  0.66627020  0.33120994  0.66635297  1
  Cr  Cr50  1  0.83611296  0.49932500  0.83132539  1
  Cr  Cr51  1  0.83287571  0.83311118  0.50080624  1
  Ni  Ni52  1  0.66463758  0.66645931  0.66832427  1
  Ni  Ni53  1  0.83354150  0.83550823  0.83193390  1
" 