5825,Ni82Fe7Cr9_5,-236.560142763313, 177.14896285905,Ni82Fe7Cr9,"# generated using pymatgen
 data_Cr3(FeNi11)2
_symmetry_space_group_name_H-M   'P 1'
_cell_length_a   7.45517741
_cell_length_b   7.45517741
_cell_length_c   10.54321300
_cell_angle_alpha   90.00000000
_cell_angle_beta   90.00000000
_cell_angle_gamma   90.00000000
_symmetry_Int_Tables_number   1
_chemical_formula_structural   Cr3(FeNi11)2
_chemical_formula_sum   'Cr6 Fe4 Ni44'
_cell_volume   585.98830163
_cell_formula_units_Z   2
loop_
 _symmetry_equiv_pos_site_id
 _symmetry_equiv_pos_as_xyz
  1  'x, y, z'
loop_
 _atom_site_type_symbol
 _atom_site_label
 _atom_site_symmetry_multiplicity
 _atom_site_fract_x
 _atom_site_fract_y
 _atom_site_fract_z
 _atom_site_occupancy
  Ni  Ni0  1  0.00091845  0.00145256  1.00078746  1
  Ni  Ni1  1  0.16635776  0.16489161  0.16680744  1
  Ni  Ni2  1  0.00164808  0.99861667  0.33340636  1
  Ni  Ni3  1  0.99943290  0.33364684  1.00059087  1
  Ni  Ni4  1  0.16654988  0.50327920  0.16710196  1
  Cr  Cr5  1  1.00004440  0.33444205  0.33284300  1
  Ni  Ni6  1  0.00118000  0.66728888  1.00013575  1
  Ni  Ni7  1  0.16766077  0.83421898  0.16821643  1
  Ni  Ni8  1  1.00071583  0.66936964  0.33509987  1
  Ni  Ni9  1  0.33375805  0.99931425  1.00035613  1
  Ni  Ni10  1  0.50229876  0.16600426  0.16843629  1
  Ni  Ni11  1  0.33408528  0.99947778  0.33475393  1
  Cr  Cr12  1  0.33386888  0.33452691  0.00094671  1
  Ni  Ni13  1  0.50236420  0.50242437  0.16798073  1
  Cr  Cr14  1  0.33587953  0.33413054  0.33401842  1
  Ni  Ni15  1  0.33395234  0.66897376  0.00104687  1
  Ni  Ni16  1  0.50013996  0.83396029  0.16772690  1
  Ni  Ni17  1  0.33435872  0.66916884  0.33373564  1
  Ni  Ni18  1  0.66771236  0.00106070  1.00039348  1
  Ni  Ni19  1  0.83373228  0.16711430  0.16693033  1
  Ni  Ni20  1  0.66665665  1.00003026  0.33370943  1
  Ni  Ni21  1  0.66939687  0.33384102  1.00078920  1
  Ni  Ni22  1  0.83347422  0.50111976  0.16706739  1
  Ni  Ni23  1  0.66645599  0.33467715  0.33351173  1
  Ni  Ni24  1  0.66725598  0.66748653  1.00033374  1
  Ni  Ni25  1  0.83458751  0.83415424  0.16817974  1
  Ni  Ni26  1  0.66731523  0.66768144  0.33485037  1
  Ni  Ni27  1  0.17080928  0.16575506  0.50059022  1
  Cr  Cr28  1  1.00049862  0.99885094  0.66851807  1
  Ni  Ni29  1  0.16786322  0.16661009  0.83499296  1
  Fe  Fe30  1  0.16842353  0.50363125  0.50155036  1
  Cr  Cr31  1  0.00128624  0.33594689  0.66869693  1
  Ni  Ni32  1  0.16702446  0.50252379  0.83350960  1
  Fe  Fe33  1  0.16842132  0.83315138  0.49956224  1
  Ni  Ni34  1  0.00137883  0.66708846  0.66715213  1
  Ni  Ni35  1  0.16813258  0.83325359  0.83461861  1
  Ni  Ni36  1  0.49909396  0.16686477  0.50170158  1
  Fe  Fe37  1  0.33655150  1.00036405  0.66764228  1
  Ni  Ni38  1  0.50165208  0.16661119  0.83225242  1
  Ni  Ni39  1  0.50184027  0.50184490  0.50152073  1
  Fe  Fe40  1  0.33648216  0.33468533  0.66757154  1
  Ni  Ni41  1  0.50163635  0.50167003  0.83288776  1
  Ni  Ni42  1  0.50073724  0.83367849  0.50066524  1
  Ni  Ni43  1  0.33455370  0.66688976  0.66760553  1
  Ni  Ni44  1  0.50052677  0.83410648  0.83399632  1
  Cr  Cr45  1  0.83206565  0.16680742  0.49926151  1
  Ni  Ni46  1  0.66478385  1.00045879  0.66828404  1
  Ni  Ni47  1  0.83287505  0.16772015  0.83583189  1
  Ni  Ni48  1  0.83247081  0.50457788  0.50077351  1
  Ni  Ni49  1  0.66458674  0.33463853  0.66808689  1
  Ni  Ni50  1  0.83372894  0.50139931  0.83454763  1
  Ni  Ni51  1  0.83357723  0.83094840  0.49991567  1
  Ni  Ni52  1  0.66645903  0.66729152  0.66720444  1
  Ni  Ni53  1  0.83372934  0.83326835  0.83429337  1
" 