8964,Ni82Fe2Cr14_6,-233.482628388692, 163.432221340267,Ni82Fe2Cr14,"# generated using pymatgen
 data_Cr9FeNi44
_symmetry_space_group_name_H-M   'P 1'
_cell_length_a   7.46978091
_cell_length_b   7.46978091
_cell_length_c   10.56386547
_cell_angle_alpha   90.00000000
_cell_angle_beta   90.00000000
_cell_angle_gamma   90.00000000
_symmetry_Int_Tables_number   1
_chemical_formula_structural   Cr9FeNi44
_chemical_formula_sum   'Cr9 Fe1 Ni44'
_cell_volume   589.43862368
_cell_formula_units_Z   1
loop_
 _symmetry_equiv_pos_site_id
 _symmetry_equiv_pos_as_xyz
  1  'x, y, z'
loop_
 _atom_site_type_symbol
 _atom_site_label
 _atom_site_symmetry_multiplicity
 _atom_site_fract_x
 _atom_site_fract_y
 _atom_site_fract_z
 _atom_site_occupancy
  Ni  Ni0  1  0.99975980  -0.00012202  0.99974197  1
  Ni  Ni1  1  0.16919025  0.16515199  0.16573702  1
  Cr  Cr2  1  0.00059770  0.99917034  0.33332811  1
  Ni  Ni3  1  0.99976396  0.33124408  0.99862649  1
  Cr  Cr4  1  0.16831113  0.49895981  0.16783274  1
  Ni  Ni5  1  0.00076148  0.33416083  0.33521039  1
  Cr  Cr6  1  0.99960362  0.66832041  0.99819860  1
  Ni  Ni7  1  0.16857559  0.83487807  0.16623908  1
  Ni  Ni8  1  0.00131280  0.66613379  0.33488427  1
  Ni  Ni9  1  0.33282475  0.00017876  0.00211883  1
  Ni  Ni10  1  0.49809151  0.16576976  0.16647015  1
  Ni  Ni11  1  0.33428316  0.00028945  0.33257959  1
  Ni  Ni12  1  0.33489304  0.33301472  -0.00006471  1
  Ni  Ni13  1  0.49881361  0.49953466  0.16514295  1
  Ni  Ni14  1  0.33365455  0.33240456  0.33364716  1
  Ni  Ni15  1  0.33476557  0.66625788  0.00004698  1
  Ni  Ni16  1  0.49882012  0.83414732  0.16620088  1
  Ni  Ni17  1  0.33196662  0.66675819  0.33344237  1
  Ni  Ni18  1  0.66686624  0.00000433  0.00022049  1
  Cr  Cr19  1  0.83260463  0.16605788  0.16578147  1
  Ni  Ni20  1  0.66441075  0.00084516  0.33361564  1
  Ni  Ni21  1  0.66479441  0.33318576  0.99803320  1
  Cr  Cr22  1  0.83193551  0.49962698  0.16719691  1
  Ni  Ni23  1  0.66503503  0.33184849  0.33468927  1
  Ni  Ni24  1  0.66509656  0.66626109  0.00014251  1
  Ni  Ni25  1  0.83205464  0.83415650  0.16537617  1
  Cr  Cr26  1  0.66612846  0.66711040  0.33297065  1
  Ni  Ni27  1  0.16830156  0.16627138  0.49921620  1
  Ni  Ni28  1  0.99895422  0.99678036  0.66623557  1
  Cr  Cr29  1  0.16721354  0.16554231  0.83428726  1
  Ni  Ni30  1  0.16726732  0.50106538  0.49868274  1
  Cr  Cr31  1  0.99918340  0.33378424  0.66584182  1
  Ni  Ni32  1  0.16788308  0.50156102  0.83309292  1
  Ni  Ni33  1  0.16652676  0.83211529  0.50073154  1
  Ni  Ni34  1  0.99981609  0.66865621  0.66636367  1
  Ni  Ni35  1  0.16520347  0.83199844  0.83247890  1
  Ni  Ni36  1  0.50004894  0.16701066  0.49969775  1
  Ni  Ni37  1  0.33294538  0.99967351  0.66475051  1
  Ni  Ni38  1  0.50177488  0.16856717  0.83328330  1
  Ni  Ni39  1  0.49901380  0.49825398  0.50061834  1
  Ni  Ni40  1  0.33583821  0.33401353  0.66586821  1
  Ni  Ni41  1  0.50000930  0.49815989  0.83368850  1
  Fe  Fe42  1  0.49895319  0.83406371  0.50031316  1
  Ni  Ni43  1  0.33208320  0.66576410  0.66596172  1
  Cr  Cr44  1  0.49961539  0.83313716  0.83259757  1
  Ni  Ni45  1  0.83110063  0.16627137  0.49971768  1
  Ni  Ni46  1  0.66755128  0.00053555  0.66561463  1
  Ni  Ni47  1  0.83083351  0.16588839  0.83413047  1
  Ni  Ni48  1  0.83317024  0.50002980  0.49937263  1
  Ni  Ni49  1  0.66465971  0.33315130  0.66673042  1
  Ni  Ni50  1  0.83155969  0.49979787  0.83326532  1
  Ni  Ni51  1  0.83391125  0.83315005  0.50142169  1
  Ni  Ni52  1  0.66755134  0.66576446  0.66609639  1
  Ni  Ni53  1  0.83423543  0.83376398  0.83265223  1
" 