8131,Ni82Fe8Cr9_19,-236.711789361193, 179.100762880761,Ni82Fe8Cr9,"# generated using pymatgen
 data_Cr3(FeNi11)2
_symmetry_space_group_name_H-M   'P 1'
_cell_length_a   7.45494905
_cell_length_b   7.45494905
_cell_length_c   10.54289005
_cell_angle_alpha   90.00000000
_cell_angle_beta   90.00000000
_cell_angle_gamma   90.00000000
_symmetry_Int_Tables_number   1
_chemical_formula_structural   Cr3(FeNi11)2
_chemical_formula_sum   'Cr6 Fe4 Ni44'
_cell_volume   585.93445510
_cell_formula_units_Z   2
loop_
 _symmetry_equiv_pos_site_id
 _symmetry_equiv_pos_as_xyz
  1  'x, y, z'
loop_
 _atom_site_type_symbol
 _atom_site_label
 _atom_site_symmetry_multiplicity
 _atom_site_fract_x
 _atom_site_fract_y
 _atom_site_fract_z
 _atom_site_occupancy
  Ni  Ni0  1  0.00136983  1.00062627  0.99979397  1
  Ni  Ni1  1  0.16875883  0.16813082  0.16702055  1
  Ni  Ni2  1  1.00031289  0.00258878  0.33508017  1
  Cr  Cr3  1  0.00120837  0.33393881  0.00089289  1
  Ni  Ni4  1  0.16754831  0.49934956  0.16886594  1
  Ni  Ni5  1  1.00061302  0.33389966  0.33448411  1
  Ni  Ni6  1  0.99932309  0.66722097  1.00033782  1
  Cr  Cr7  1  0.16525490  0.83576224  0.16794111  1
  Ni  Ni8  1  1.00062440  0.66592030  0.33529514  1
  Ni  Ni9  1  0.33382068  0.00275316  0.99966726  1
  Ni  Ni10  1  0.49840673  0.16796538  0.16937601  1
  Ni  Ni11  1  0.33487086  0.00087496  0.33522194  1
  Ni  Ni12  1  0.33365929  0.33251128  0.00101128  1
  Ni  Ni13  1  0.50069013  0.50011908  0.16801176  1
  Fe  Fe14  1  0.33314338  0.33346808  0.33440040  1
  Cr  Cr15  1  0.33587530  0.66698945  0.99992706  1
  Ni  Ni16  1  0.50146454  0.83428364  0.16881886  1
  Ni  Ni17  1  0.33404436  0.66811570  0.33483645  1
  Cr  Cr18  1  0.66733456  0.99962806  0.00177311  1
  Ni  Ni19  1  0.83538654  0.16651910  0.16978382  1
  Ni  Ni20  1  0.66717902  0.00108206  0.33449551  1
  Cr  Cr21  1  0.66674384  0.33528602  0.00123811  1
  Ni  Ni22  1  0.83425513  0.50273276  0.16905273  1
  Ni  Ni23  1  0.66970596  0.33297544  0.33307315  1
  Ni  Ni24  1  0.66899155  0.66762055  0.00104104  1
  Ni  Ni25  1  0.83410631  0.83292889  0.16736140  1
  Ni  Ni26  1  0.66763413  0.66831006  0.33252842  1
  Ni  Ni27  1  0.16750292  0.16715868  0.50178803  1
  Ni  Ni28  1  1.00064479  1.00056696  0.66723147  1
  Fe  Fe29  1  0.16676072  0.16483465  0.83287021  1
  Ni  Ni30  1  0.16603969  0.50081294  0.50139751  1
  Ni  Ni31  1  1.00067069  0.33423939  0.66676049  1
  Fe  Fe32  1  0.16682324  0.50126695  0.83225742  1
  Ni  Ni33  1  0.16723865  0.83435156  0.50117857  1
  Ni  Ni34  1  0.00130089  0.66735168  0.66682432  1
  Ni  Ni35  1  0.16660316  0.83445216  0.83326244  1
  Ni  Ni36  1  0.50095555  0.16630445  0.50130907  1
  Ni  Ni37  1  0.33416634  1.00030184  0.66716142  1
  Ni  Ni38  1  0.49836552  0.16819022  0.83222772  1
  Cr  Cr39  1  0.50252650  0.50004213  0.50204152  1
  Ni  Ni40  1  0.33275912  0.33329850  0.66825556  1
  Fe  Fe41  1  0.50253177  0.50166652  0.83213117  1
  Ni  Ni42  1  0.50061180  0.83541277  0.50130434  1
  Ni  Ni43  1  0.33294040  0.66872428  0.66757228  1
  Ni  Ni44  1  0.50018477  0.83571274  0.83224589  1
  Ni  Ni45  1  0.83396223  0.16799831  0.50163244  1
  Ni  Ni46  1  0.66734453  1.00073535  0.66681182  1
  Ni  Ni47  1  0.83377402  0.16714570  0.83107254  1
  Ni  Ni48  1  0.83535657  0.50060899  0.50109505  1
  Ni  Ni49  1  0.66871151  0.33281520  0.66826511  1
  Ni  Ni50  1  0.83481666  0.50235156  0.83203207  1
  Ni  Ni51  1  0.83456307  0.83384721  0.50115592  1
  Ni  Ni52  1  0.66842749  0.66922231  0.66863888  1
  Ni  Ni53  1  0.83590945  0.83280386  0.83396476  1
" 