35,Ni82Fe3Cr14_19,-233.450534532276, 161.811573202144,Ni82Fe3Cr14,"# generated using pymatgen
 data_Cr9FeNi44
_symmetry_space_group_name_H-M   'P 1'
_cell_length_a   7.47096886
_cell_length_b   7.47096886
_cell_length_c   10.56554549
_cell_angle_alpha   90.00000000
_cell_angle_beta   90.00000000
_cell_angle_gamma   90.00000000
_symmetry_Int_Tables_number   1
_chemical_formula_structural   Cr9FeNi44
_chemical_formula_sum   'Cr9 Fe1 Ni44'
_cell_volume   589.71989195
_cell_formula_units_Z   1
loop_
 _symmetry_equiv_pos_site_id
 _symmetry_equiv_pos_as_xyz
  1  'x, y, z'
loop_
 _atom_site_type_symbol
 _atom_site_label
 _atom_site_symmetry_multiplicity
 _atom_site_fract_x
 _atom_site_fract_y
 _atom_site_fract_z
 _atom_site_occupancy
  Ni  Ni0  1  0.99889317  0.99852971  0.99885689  1
  Ni  Ni1  1  0.16600380  0.16486978  0.16875698  1
  Ni  Ni2  1  0.99909355  0.00232589  0.33411378  1
  Cr  Cr3  1  0.99761574  0.33227008  0.99882230  1
  Cr  Cr4  1  0.16697666  0.49942541  0.16719220  1
  Ni  Ni5  1  0.99821996  0.32935468  0.33290621  1
  Ni  Ni6  1  0.99754164  0.66835782  0.99791070  1
  Cr  Cr7  1  0.16701011  0.83469101  0.16600050  1
  Cr  Cr8  1  0.99642200  0.66800403  0.33417276  1
  Ni  Ni9  1  0.33305704  0.99779818  -0.00003144  1
  Ni  Ni10  1  0.50134608  0.16565208  0.16778264  1
  Ni  Ni11  1  0.33295925  0.00196550  0.33295713  1
  Cr  Cr12  1  0.33506039  0.33231936  -0.00008950  1
  Ni  Ni13  1  0.50244266  0.50059483  0.16748457  1
  Ni  Ni14  1  0.33494130  0.33093653  0.33300302  1
  Ni  Ni15  1  0.33506728  0.66836189  0.99768915  1
  Ni  Ni16  1  0.50178994  0.83294452  0.16631391  1
  Ni  Ni17  1  0.33664765  0.66634153  0.33301174  1
  Ni  Ni18  1  0.66724368  0.99837473  0.00082898  1
  Ni  Ni19  1  0.83187569  0.16556282  0.16706736  1
  Ni  Ni20  1  0.66714954  0.00055788  0.33193516  1
  Ni  Ni21  1  0.66732917  0.33424339  0.00081559  1
  Ni  Ni22  1  0.82939289  0.49939377  0.16698609  1
  Ni  Ni23  1  0.66593260  0.33313669  0.33282474  1
  Ni  Ni24  1  0.66659156  0.66661347  -0.00005471  1
  Ni  Ni25  1  0.83021731  0.83420738  0.16557142  1
  Ni  Ni26  1  0.66544891  0.66547736  0.33212291  1
  Ni  Ni27  1  0.16552166  0.16529931  0.49950521  1
  Ni  Ni28  1  -0.00009892  0.00147297  0.66625627  1
  Ni  Ni29  1  0.16423167  0.16484930  0.83096004  1
  Cr  Cr30  1  0.16890043  0.49823296  0.49918842  1
  Ni  Ni31  1  0.99911661  0.33026620  0.66745261  1
  Ni  Ni32  1  0.16716375  0.50098225  0.83235248  1
  Ni  Ni33  1  0.16601143  0.83610994  0.49971367  1
  Cr  Cr34  1  0.99858110  0.66798860  0.66716316  1
  Ni  Ni35  1  0.16708039  0.83336423  0.83370836  1
  Ni  Ni36  1  0.50045819  0.16855620  0.49952006  1
  Ni  Ni37  1  0.33117032  0.00008525  0.66632570  1
  Cr  Cr38  1  0.50193550  0.16524875  0.83159760  1
  Ni  Ni39  1  0.50077832  0.49812985  0.49971506  1
  Ni  Ni40  1  0.33316565  0.33286901  0.66623334  1
  Ni  Ni41  1  0.50041568  0.50255709  0.83199437  1
  Cr  Cr42  1  0.50009046  0.83287099  0.50001958  1
  Ni  Ni43  1  0.33479616  0.66628721  0.66846622  1
  Ni  Ni44  1  0.49975286  0.83087939  0.83318729  1
  Ni  Ni45  1  0.83316567  0.16567918  0.49992861  1
  Ni  Ni46  1  0.66812947  0.99973632  0.66647837  1
  Ni  Ni47  1  0.83414989  0.16557267  0.83222836  1
  Fe  Fe48  1  0.82988037  0.49742066  0.49977489  1
  Ni  Ni49  1  0.66688699  0.33397318  0.66558495  1
  Ni  Ni50  1  0.83160008  0.49966237  0.83270070  1
  Ni  Ni51  1  0.83288495  0.83598840  0.49950349  1
  Ni  Ni52  1  0.66540089  0.66548264  0.66718211  1
  Ni  Ni53  1  0.83238948  0.83395338  0.83413663  1
" 