3697,Ni82Fe9Cr8_9,-237.594637345963, 183.185627122733,Ni82Fe9Cr8,"# generated using pymatgen
 data_Cr5Fe5Ni44
_symmetry_space_group_name_H-M   'P 1'
_cell_length_a   7.44765278
_cell_length_b   7.44765278
_cell_length_c   10.53257157
_cell_angle_alpha   90.00000000
_cell_angle_beta   90.00000000
_cell_angle_gamma   90.00000000
_symmetry_Int_Tables_number   1
_chemical_formula_structural   Cr5Fe5Ni44
_chemical_formula_sum   'Cr5 Fe5 Ni44'
_cell_volume   584.21574947
_cell_formula_units_Z   1
loop_
 _symmetry_equiv_pos_site_id
 _symmetry_equiv_pos_as_xyz
  1  'x, y, z'
loop_
 _atom_site_type_symbol
 _atom_site_label
 _atom_site_symmetry_multiplicity
 _atom_site_fract_x
 _atom_site_fract_y
 _atom_site_fract_z
 _atom_site_occupancy
  Ni  Ni0  1  0.00273681  1.00126086  1.00069393  1
  Ni  Ni1  1  0.16888723  0.16852366  0.16809840  1
  Ni  Ni2  1  0.00203338  1.00084580  0.33559009  1
  Ni  Ni3  1  0.00159805  0.33413411  1.00069467  1
  Ni  Ni4  1  0.16733618  0.50197583  0.16886991  1
  Ni  Ni5  1  0.00290284  0.33397669  0.33426450  1
  Fe  Fe6  1  0.00160609  0.66735670  0.00136797  1
  Ni  Ni7  1  0.16868503  0.83340456  0.16815599  1
  Ni  Ni8  1  0.00327065  0.66908499  0.33304962  1
  Ni  Ni9  1  0.33265855  1.00011193  1.00069321  1
  Cr  Cr10  1  0.49970811  0.16725843  0.16819558  1
  Ni  Ni11  1  0.33326974  1.00063806  0.33503669  1
  Ni  Ni12  1  0.33366946  0.33515837  1.00069469  1
  Fe  Fe13  1  0.50014184  0.50267547  0.16752663  1
  Ni  Ni14  1  0.33354416  0.33533002  0.33515275  1
  Ni  Ni15  1  0.33638553  0.66863772  0.00157122  1
  Ni  Ni16  1  0.50024510  0.83410285  0.16779264  1
  Ni  Ni17  1  0.33338066  0.66793982  0.33469893  1
  Fe  Fe18  1  0.66735808  0.99975123  0.99938685  1
  Cr  Cr19  1  0.83518484  0.16865135  0.16881890  1
  Ni  Ni20  1  0.66860074  1.00100736  0.33614574  1
  Ni  Ni21  1  0.66863597  0.33786423  0.99955468  1
  Ni  Ni22  1  0.83605232  0.50255528  0.16736734  1
  Ni  Ni23  1  0.66745776  0.33409155  0.33563430  1
  Ni  Ni24  1  0.66748860  0.66750188  0.00183538  1
  Ni  Ni25  1  0.83497702  0.83254878  0.16728515  1
  Cr  Cr26  1  0.66720334  0.66863207  0.33381807  1
  Ni  Ni27  1  0.16904827  0.16783657  0.50077040  1
  Ni  Ni28  1  1.00115791  0.00146104  0.66762139  1
  Ni  Ni29  1  0.16888843  0.16852360  0.83503640  1
  Ni  Ni30  1  0.17022421  0.50219328  0.50119022  1
  Ni  Ni31  1  0.00202672  0.33336029  0.66894902  1
  Ni  Ni32  1  0.16733285  0.50158925  0.83384575  1
  Ni  Ni33  1  0.16790393  0.83387695  0.50119019  1
  Ni  Ni34  1  0.00353313  0.66908594  0.66928878  1
  Ni  Ni35  1  0.16868566  0.83379057  0.83455886  1
  Ni  Ni36  1  0.50195895  0.16842310  0.50117346  1
  Ni  Ni37  1  0.33414398  1.00125219  0.66817539  1
  Ni  Ni38  1  0.50178372  0.16744895  0.83434908  1
  Ni  Ni39  1  0.49774155  0.49855310  0.50098014  1
  Ni  Ni40  1  0.33441827  0.33471331  0.66805701  1
  Fe  Fe41  1  0.50045818  0.50038840  0.83514135  1
  Fe  Fe42  1  0.49905562  0.83683824  0.50123817  1
  Ni  Ni43  1  0.33311503  0.66794181  0.66763625  1
  Ni  Ni44  1  0.50043786  0.83642401  0.83513319  1
  Ni  Ni45  1  0.83289861  0.16610768  0.50117361  1
  Ni  Ni46  1  0.66860290  0.00276020  0.66820778  1
  Ni  Ni47  1  0.83323223  0.16879889  0.83409713  1
  Cr  Cr48  1  0.83679765  0.49974854  0.50125785  1
  Ni  Ni49  1  0.66746003  0.33233764  0.66871566  1
  Ni  Ni50  1  0.83586374  0.50024241  0.83555747  1
  Ni  Ni51  1  0.83653549  0.83809759  0.50098011  1
  Cr  Cr52  1  0.66720632  0.66863548  0.66835388  1
  Ni  Ni53  1  0.83478280  0.83486354  0.83563976  1
" 