490,Ni82Fe2Cr14_15,-233.44004312381, 162.579682526377,Ni82Fe2Cr14,"# generated using pymatgen
 data_Cr9FeNi44
_symmetry_space_group_name_H-M   'P 1'
_cell_length_a   7.46894756
_cell_length_b   7.46894756
_cell_length_c   10.56268694
_cell_angle_alpha   90.00000000
_cell_angle_beta   90.00000000
_cell_angle_gamma   90.00000000
_symmetry_Int_Tables_number   1
_chemical_formula_structural   Cr9FeNi44
_chemical_formula_sum   'Cr9 Fe1 Ni44'
_cell_volume   589.24136770
_cell_formula_units_Z   1
loop_
 _symmetry_equiv_pos_site_id
 _symmetry_equiv_pos_as_xyz
  1  'x, y, z'
loop_
 _atom_site_type_symbol
 _atom_site_label
 _atom_site_symmetry_multiplicity
 _atom_site_fract_x
 _atom_site_fract_y
 _atom_site_fract_z
 _atom_site_occupancy
  Ni  Ni0  1  0.00030800  0.00080541  0.99718748  1
  Ni  Ni1  1  0.16865418  0.16841457  0.16662649  1
  Ni  Ni2  1  0.99973102  0.99978312  0.33541817  1
  Ni  Ni3  1  0.00117538  0.33332698  0.99932997  1
  Ni  Ni4  1  0.16590937  0.49723837  0.16623110  1
  Ni  Ni5  1  0.00077028  0.33358449  0.33185175  1
  Ni  Ni6  1  0.00035268  0.66548548  0.99872550  1
  Cr  Cr7  1  0.16700465  0.83404949  0.16634338  1
  Ni  Ni8  1  0.99924953  0.66625026  0.33405169  1
  Fe  Fe9  1  0.33320858  0.99982536  0.00032651  1
  Ni  Ni10  1  0.49794441  0.16672990  0.16748987  1
  Ni  Ni11  1  0.33397225  0.00228927  0.33144440  1
  Ni  Ni12  1  0.33221980  0.33435961  0.00108151  1
  Ni  Ni13  1  0.50068736  0.49892175  0.16606628  1
  Ni  Ni14  1  0.33397237  0.33211687  0.33267479  1
  Ni  Ni15  1  0.33419375  0.66560639  0.99875722  1
  Ni  Ni16  1  0.50061224  0.83396784  0.16563771  1
  Cr  Cr17  1  0.33299840  0.66501823  0.33380857  1
  Ni  Ni18  1  0.66610303  0.99883077  0.99916411  1
  Cr  Cr19  1  0.83339494  0.16827910  0.16676632  1
  Ni  Ni20  1  0.66591578  0.00076916  0.33442609  1
  Ni  Ni21  1  0.66622304  0.33431283  0.00009493  1
  Ni  Ni22  1  0.83302176  0.49990625  0.16668875  1
  Ni  Ni23  1  0.66487664  0.33259768  0.33328180  1
  Ni  Ni24  1  0.66507201  0.66647441  0.99949331  1
  Cr  Cr25  1  0.83178487  0.83107190  0.16734865  1
  Ni  Ni26  1  0.66738320  0.66625116  0.33185144  1
  Cr  Cr27  1  0.16613916  0.16726803  0.49884849  1
  Ni  Ni28  1  0.99727747  0.99904912  0.66701343  1
  Ni  Ni29  1  0.16374907  0.16713075  0.83438827  1
  Ni  Ni30  1  0.16745044  0.50078833  0.50058158  1
  Ni  Ni31  1  0.00000380  0.33296763  0.66843736  1
  Ni  Ni32  1  0.16634451  0.50005722  0.83280683  1
  Ni  Ni33  1  0.16326112  0.83180218  0.49977622  1
  Ni  Ni34  1  0.00115464  0.66760147  0.66684175  1
  Ni  Ni35  1  0.16542938  0.83243038  0.83352467  1
  Ni  Ni36  1  0.50215823  0.16871429  0.49841725  1
  Cr  Cr37  1  0.33243519  0.99889872  0.66735270  1
  Cr  Cr38  1  0.50063951  0.16742836  0.83344801  1
  Ni  Ni39  1  0.49896123  0.49741940  0.50091041  1
  Ni  Ni40  1  0.33342690  0.33684553  0.66586225  1
  Ni  Ni41  1  0.49988328  0.50173773  0.83264242  1
  Cr  Cr42  1  0.50125250  0.83324811  0.49982599  1
  Ni  Ni43  1  0.33243750  0.66388628  0.66720059  1
  Ni  Ni44  1  0.50079860  0.83075095  0.83438830  1
  Ni  Ni45  1  0.83152482  0.16452600  0.50016401  1
  Ni  Ni46  1  0.66990229  0.00003800  0.66602840  1
  Ni  Ni47  1  0.83506993  0.16621564  0.83262166  1
  Cr  Cr48  1  0.83320624  0.50008005  0.49924565  1
  Ni  Ni49  1  0.66618798  0.33296709  0.66624106  1
  Ni  Ni50  1  0.83339055  0.50005803  0.83372313  1
  Ni  Ni51  1  0.83489170  0.83499800  0.49961313  1
  Ni  Ni52  1  0.66602582  0.66661308  0.66827452  1
  Ni  Ni53  1  0.83339036  0.83334474  0.83278586  1
" 