1264,Ni82Fe9Cr8_15,-237.963840226464, 184.925369595261,Ni82Fe9Cr8,"# generated using pymatgen
 data_Cr5Fe5Ni44
_symmetry_space_group_name_H-M   'P 1'
_cell_length_a   7.44863012
_cell_length_b   7.44863012
_cell_length_c   10.53395374
_cell_angle_alpha   90.00000000
_cell_angle_beta   90.00000000
_cell_angle_gamma   90.00000000
_symmetry_Int_Tables_number   1
_chemical_formula_structural   Cr5Fe5Ni44
_chemical_formula_sum   'Cr5 Fe5 Ni44'
_cell_volume   584.44577703
_cell_formula_units_Z   1
loop_
 _symmetry_equiv_pos_site_id
 _symmetry_equiv_pos_as_xyz
  1  'x, y, z'
loop_
 _atom_site_type_symbol
 _atom_site_label
 _atom_site_symmetry_multiplicity
 _atom_site_fract_x
 _atom_site_fract_y
 _atom_site_fract_z
 _atom_site_occupancy
  Ni  Ni0  1  1.00020778  1.00066232  0.00134095  1
  Fe  Fe1  1  0.16845540  0.16809638  0.16806625  1
  Ni  Ni2  1  0.00131515  0.00320287  0.33566471  1
  Ni  Ni3  1  0.99972358  0.33555716  0.00194660  1
  Ni  Ni4  1  0.16854527  0.50057975  0.16671610  1
  Ni  Ni5  1  1.00072411  0.33292980  0.33498629  1
  Ni  Ni6  1  1.00081106  0.66742225  0.99995891  1
  Ni  Ni7  1  0.16801730  0.83503238  0.16675527  1
  Cr  Cr8  1  1.00062455  0.66715006  0.33580922  1
  Ni  Ni9  1  0.33626034  1.00060370  0.00205004  1
  Ni  Ni10  1  0.50134450  0.16807890  0.16738378  1
  Ni  Ni11  1  0.33413163  1.00071026  0.33370669  1
  Ni  Ni12  1  0.33623912  0.33521059  1.00094312  1
  Ni  Ni13  1  0.50112335  0.50030970  0.16834714  1
  Ni  Ni14  1  0.33412295  0.33510470  0.33481636  1
  Ni  Ni15  1  0.33529722  0.66801443  1.00048059  1
  Ni  Ni16  1  0.50162878  0.83532522  0.16833066  1
  Ni  Ni17  1  0.33645474  0.66801957  0.33547934  1
  Ni  Ni18  1  0.66723033  0.00167391  0.99987700  1
  Fe  Fe19  1  0.83357359  0.16756346  0.16779981  1
  Ni  Ni20  1  0.66835692  1.00087050  0.33488154  1
  Ni  Ni21  1  0.66776095  0.33456126  1.00051134  1
  Ni  Ni22  1  0.83402304  0.50078948  0.16700005  1
  Ni  Ni23  1  0.66880851  0.33535391  0.33431398  1
  Ni  Ni24  1  0.66758670  0.66744887  0.00143006  1
  Ni  Ni25  1  0.83404746  0.83533928  0.16702327  1
  Ni  Ni26  1  0.66617704  0.66741835  0.33484462  1
  Ni  Ni27  1  0.16568455  0.16888778  0.49934388  1
  Ni  Ni28  1  0.99957332  0.00335502  0.66659385  1
  Cr  Cr29  1  0.16693627  0.16893383  0.83627446  1
  Ni  Ni30  1  0.16959071  0.49923706  0.50148402  1
  Ni  Ni31  1  0.99916739  0.33347986  0.66660938  1
  Ni  Ni32  1  0.16843514  0.50201835  0.83547889  1
  Ni  Ni33  1  0.16870286  0.83574344  0.50029507  1
  Cr  Cr34  1  1.00105367  0.66774072  0.66807109  1
  Ni  Ni35  1  0.16757811  0.83317099  0.83664885  1
  Cr  Cr36  1  0.50224627  0.16888272  0.50117221  1
  Cr  Cr37  1  0.33441056  0.99879097  0.66835980  1
  Ni  Ni38  1  0.50389233  0.16885238  0.83549795  1
  Ni  Ni39  1  0.50129599  0.50270650  0.50058822  1
  Fe  Fe40  1  0.33326162  0.33777057  0.66811072  1
  Ni  Ni41  1  0.50135755  0.50128974  0.83475398  1
  Ni  Ni42  1  0.50234639  0.83250326  0.49943164  1
  Ni  Ni43  1  0.33748551  0.66720743  0.66768691  1
  Ni  Ni44  1  0.50249481  0.83370346  0.83598671  1
  Ni  Ni45  1  0.83620035  0.16783438  0.50086945  1
  Fe  Fe46  1  0.67035387  0.99884455  0.66878626  1
  Ni  Ni47  1  0.83331605  0.16784037  0.83467800  1
  Ni  Ni48  1  0.83271151  0.49937360  0.50074872  1
  Fe  Fe49  1  0.66950988  0.33635020  0.66880320  1
  Ni  Ni50  1  0.83391949  0.50050948  0.83591654  1
  Ni  Ni51  1  0.83275152  0.83642205  0.50119783  1
  Ni  Ni52  1  0.66592217  0.66698540  0.66744944  1
  Ni  Ni53  1  0.83397095  0.83529704  0.83545948  1
" 