8320,Ni82Fe13Cr3_4,-240.022700062127, 194.045899049839,Ni82Fe13Cr3,"# generated using pymatgen
 data_Cr3Fe7Ni44
_symmetry_space_group_name_H-M   'P 1'
_cell_length_a   7.43981174
_cell_length_b   7.43981174
_cell_length_c   10.52148266
_cell_angle_alpha   90.00000000
_cell_angle_beta   90.00000000
_cell_angle_gamma   90.00000000
_symmetry_Int_Tables_number   1
_chemical_formula_structural   Cr3Fe7Ni44
_chemical_formula_sum   'Cr3 Fe7 Ni44'
_cell_volume   582.37246851
_cell_formula_units_Z   1
loop_
 _symmetry_equiv_pos_site_id
 _symmetry_equiv_pos_as_xyz
  1  'x, y, z'
loop_
 _atom_site_type_symbol
 _atom_site_label
 _atom_site_symmetry_multiplicity
 _atom_site_fract_x
 _atom_site_fract_y
 _atom_site_fract_z
 _atom_site_occupancy
  Ni  Ni0  1  1.00151446  1.00105712  0.00373244  1
  Ni  Ni1  1  0.16853720  0.16869250  0.16874506  1
  Ni  Ni2  1  1.00164208  1.00075102  0.33541748  1
  Fe  Fe3  1  1.00090502  0.33613105  0.00210034  1
  Ni  Ni4  1  0.16859033  0.50173648  0.16802675  1
  Fe  Fe5  1  1.00138218  0.33477627  0.33477549  1
  Ni  Ni6  1  0.00286516  0.66870654  0.00242738  1
  Ni  Ni7  1  0.16822269  0.83506522  0.16762415  1
  Ni  Ni8  1  1.00164791  0.67090298  0.33481942  1
  Ni  Ni9  1  0.33537908  1.00105349  0.00313293  1
  Ni  Ni10  1  0.50131659  0.16838861  0.16778662  1
  Fe  Fe11  1  0.33457418  1.00182436  0.33522986  1
  Ni  Ni12  1  0.33694348  0.33626220  0.00285025  1
  Ni  Ni13  1  0.50125906  0.50203463  0.16825247  1
  Ni  Ni14  1  0.33734030  0.33519706  0.33459825  1
  Ni  Ni15  1  0.33456093  0.66817411  1.00182866  1
  Ni  Ni16  1  0.50192999  0.83506643  0.16799502  1
  Ni  Ni17  1  0.33515752  0.66846857  0.33406948  1
  Ni  Ni18  1  0.66859766  0.00343507  0.00281674  1
  Ni  Ni19  1  0.83563767  0.16802049  0.16764063  1
  Fe  Fe20  1  0.66854198  0.00188614  0.33516103  1
  Ni  Ni21  1  0.66807117  0.33491468  1.00119836  1
  Ni  Ni22  1  0.83564418  0.50234965  0.16809489  1
  Ni  Ni23  1  0.66760905  0.33519395  0.33568354  1
  Ni  Ni24  1  0.66806743  0.66714202  0.00359709  1
  Ni  Ni25  1  0.83533726  0.83512304  0.16843882  1
  Fe  Fe26  1  0.66854694  0.66790526  0.33528301  1
  Ni  Ni27  1  0.16848542  0.16677179  0.50188909  1
  Ni  Ni28  1  1.00176549  0.00224799  0.66634498  1
  Cr  Cr29  1  0.16885870  0.16916347  0.83500972  1
  Cr  Cr30  1  0.16879596  0.50101953  0.50210182  1
  Ni  Ni31  1  0.99965091  0.33429495  0.66803040  1
  Ni  Ni32  1  0.16881085  0.50282412  0.83528622  1
  Ni  Ni33  1  0.16828234  0.83716054  0.50290872  1
  Fe  Fe34  1  1.00158752  0.66813645  0.66825623  1
  Fe  Fe35  1  0.17051263  0.83354270  0.83540374  1
  Ni  Ni36  1  0.50149336  0.16824559  0.50263928  1
  Ni  Ni37  1  0.33512776  1.00061972  0.66694372  1
  Ni  Ni38  1  0.50296559  0.16818431  0.83506459  1
  Ni  Ni39  1  0.50326317  0.50196362  0.50233015  1
  Ni  Ni40  1  0.33695540  0.33564362  0.66804349  1
  Ni  Ni41  1  0.50114382  0.50227734  0.83490894  1
  Ni  Ni42  1  0.50210598  0.83528126  0.50233308  1
  Ni  Ni43  1  0.33620120  0.66922632  0.66959547  1
  Ni  Ni44  1  0.50079353  0.83502768  0.83516244  1
  Ni  Ni45  1  0.83551172  0.16793022  0.50278857  1
  Ni  Ni46  1  0.66859894  0.00300287  0.66750997  1
  Ni  Ni47  1  0.83376601  0.16976754  0.83505837  1
  Ni  Ni48  1  0.83362965  0.50216439  0.50248966  1
  Ni  Ni49  1  0.66888414  0.33537925  0.66860968  1
  Ni  Ni50  1  0.83553875  0.50065154  0.83490458  1
  Ni  Ni51  1  0.83510027  0.83539615  0.50189077  1
  Ni  Ni52  1  0.66725310  0.66710926  0.66674101  1
  Cr  Cr53  1  0.83393865  0.83555120  0.83527151  1
" 