7942,Ni82Fe3Cr14_16,-233.391545879265, 160.905011389749,Ni82Fe3Cr14,"# generated using pymatgen
 data_Cr9FeNi44
_symmetry_space_group_name_H-M   'P 1'
_cell_length_a   7.47114107
_cell_length_b   7.47114107
_cell_length_c   10.56578902
_cell_angle_alpha   90.00000000
_cell_angle_beta   90.00000000
_cell_angle_gamma   90.00000000
_symmetry_Int_Tables_number   1
_chemical_formula_structural   Cr9FeNi44
_chemical_formula_sum   'Cr9 Fe1 Ni44'
_cell_volume   589.76067080
_cell_formula_units_Z   1
loop_
 _symmetry_equiv_pos_site_id
 _symmetry_equiv_pos_as_xyz
  1  'x, y, z'
loop_
 _atom_site_type_symbol
 _atom_site_label
 _atom_site_symmetry_multiplicity
 _atom_site_fract_x
 _atom_site_fract_y
 _atom_site_fract_z
 _atom_site_occupancy
  Ni  Ni0  1  -0.00005135  -0.00027300  0.99947806  1
  Ni  Ni1  1  0.16820543  0.16580545  0.16585823  1
  Ni  Ni2  1  0.99971676  0.00171450  0.33318616  1
  Ni  Ni3  1  0.00147142  0.33328219  0.99952588  1
  Fe  Fe4  1  0.16676752  0.49834680  0.16661838  1
  Ni  Ni5  1  0.00049788  0.33207680  0.33378418  1
  Ni  Ni6  1  0.99611898  0.66616844  0.00088632  1
  Ni  Ni7  1  0.16658470  0.83491470  0.16609814  1
  Cr  Cr8  1  0.99890856  0.66569682  0.33236254  1
  Ni  Ni9  1  0.33363087  0.00240407  0.00029362  1
  Ni  Ni10  1  0.49628273  0.16620159  0.16667614  1
  Ni  Ni11  1  0.33402323  0.00079951  0.33178470  1
  Ni  Ni12  1  0.33087516  0.32937304  0.00108702  1
  Ni  Ni13  1  0.49988510  0.50021494  0.16816613  1
  Ni  Ni14  1  0.33306685  0.33281527  0.33292988  1
  Cr  Cr15  1  0.33403564  0.66753769  0.00242291  1
  Ni  Ni16  1  0.49966356  0.83276089  0.16691476  1
  Ni  Ni17  1  0.33573772  0.66556220  0.33248736  1
  Ni  Ni18  1  0.66559794  0.99705072  0.99844167  1
  Cr  Cr19  1  0.83401140  0.16583204  0.16778810  1
  Ni  Ni20  1  0.66543739  0.99904306  0.33387223  1
  Cr  Cr21  1  0.66641516  0.33293282  0.99891678  1
  Ni  Ni22  1  0.83253289  0.50183776  0.16568505  1
  Ni  Ni23  1  0.66561360  0.33379137  0.33420062  1
  Ni  Ni24  1  0.66950748  0.66892140  0.00047088  1
  Ni  Ni25  1  0.83292995  0.83131231  0.16498116  1
  Ni  Ni26  1  0.66470078  0.66634355  0.33266139  1
  Ni  Ni27  1  0.16680164  0.16737732  0.49898342  1
  Ni  Ni28  1  0.99832436  0.99937170  0.66651480  1
  Ni  Ni29  1  0.16707281  0.16541924  0.83433569  1
  Ni  Ni30  1  0.16820267  0.49814580  0.49954674  1
  Cr  Cr31  1  0.99895053  0.33250521  0.66561550  1
  Cr  Cr32  1  0.16526801  0.49860017  0.83314388  1
  Cr  Cr33  1  0.16699033  0.83385772  0.50121083  1
  Ni  Ni34  1  0.99743985  0.66703415  0.66623864  1
  Cr  Cr35  1  0.16555015  0.83518122  0.83161579  1
  Ni  Ni36  1  0.49975801  0.16721685  0.49986730  1
  Ni  Ni37  1  0.33483246  0.00099281  0.66709875  1
  Ni  Ni38  1  0.49890134  0.16420422  0.83263406  1
  Ni  Ni39  1  0.49964136  0.49958979  0.49983789  1
  Ni  Ni40  1  0.33451658  0.33171142  0.66516155  1
  Cr  Cr41  1  0.50120055  0.49953086  0.83099552  1
  Ni  Ni42  1  0.50102846  0.83237141  0.49974508  1
  Ni  Ni43  1  0.33465998  0.66647270  0.66443516  1
  Ni  Ni44  1  0.50228675  0.83562123  0.83251878  1
  Ni  Ni45  1  0.83261863  0.16598924  0.49877648  1
  Ni  Ni46  1  0.66602118  0.99923275  0.66686529  1
  Ni  Ni47  1  0.83320366  0.16477653  0.83307804  1
  Ni  Ni48  1  0.83133505  0.49941704  0.50003563  1
  Ni  Ni49  1  0.66545756  0.33259573  0.66567363  1
  Ni  Ni50  1  0.83296892  0.50128762  0.83345667  1
  Ni  Ni51  1  0.83117515  0.83377277  0.50068400  1
  Ni  Ni52  1  0.66707856  0.66734972  0.66604592  1
  Ni  Ni53  1  0.83175476  0.83311446  0.83351334  1
" 