1358,Ni82Fe3Cr13_11,-233.402925884717, 160.296727225864,Ni82Fe3Cr13,"# generated using pymatgen
 data_Cr9FeNi44
_symmetry_space_group_name_H-M   'P 1'
_cell_length_a   7.46839901
_cell_length_b   7.46839901
_cell_length_c   10.56191116
_cell_angle_alpha   90.00000000
_cell_angle_beta   90.00000000
_cell_angle_gamma   90.00000000
_symmetry_Int_Tables_number   1
_chemical_formula_structural   Cr9FeNi44
_chemical_formula_sum   'Cr9 Fe1 Ni44'
_cell_volume   589.11154685
_cell_formula_units_Z   1
loop_
 _symmetry_equiv_pos_site_id
 _symmetry_equiv_pos_as_xyz
  1  'x, y, z'
loop_
 _atom_site_type_symbol
 _atom_site_label
 _atom_site_symmetry_multiplicity
 _atom_site_fract_x
 _atom_site_fract_y
 _atom_site_fract_z
 _atom_site_occupancy
  Ni  Ni0  1  0.00139344  0.00092158  0.00111308  1
  Ni  Ni1  1  0.16656971  0.16630597  0.16662553  1
  Ni  Ni2  1  0.99958302  0.99920722  0.33157073  1
  Ni  Ni3  1  0.00059719  0.33275698  0.99908567  1
  Ni  Ni4  1  0.16476823  0.49989513  0.16711296  1
  Ni  Ni5  1  0.99937695  0.33367282  0.33235824  1
  Ni  Ni6  1  0.00184050  0.66588149  0.00072640  1
  Ni  Ni7  1  0.16619966  0.83350127  0.16708257  1
  Ni  Ni8  1  0.00196729  0.66673226  0.33363077  1
  Ni  Ni9  1  0.33189883  0.99904450  0.99986698  1
  Ni  Ni10  1  0.49948218  0.16485637  0.16714642  1
  Ni  Ni11  1  0.33369220  0.99885099  0.33257834  1
  Ni  Ni12  1  0.32991341  0.33204308  0.00112466  1
  Cr  Cr13  1  0.49862238  0.49875828  0.16493781  1
  Ni  Ni14  1  0.33284045  0.33308541  0.33284226  1
  Ni  Ni15  1  0.33087088  0.66879347  0.00013150  1
  Ni  Ni16  1  0.49890811  0.83578963  0.16484464  1
  Ni  Ni17  1  0.33078669  0.66757228  0.33397047  1
  Ni  Ni18  1  0.66639857  0.00014282  0.00172357  1
  Ni  Ni19  1  0.83370001  0.16622778  0.16679782  1
  Ni  Ni20  1  0.66650631  0.00133678  0.33367159  1
  Ni  Ni21  1  0.66949526  0.33179773  0.00109392  1
  Ni  Ni22  1  0.83595004  0.49938381  0.16522769  1
  Ni  Ni23  1  0.66734277  0.33075437  0.33442303  1
  Ni  Ni24  1  0.66726217  0.66790178  0.00083895  1
  Ni  Ni25  1  0.83462991  0.83406128  0.16601612  1
  Cr  Cr26  1  0.66671434  0.66734247  0.33427861  1
  Cr  Cr27  1  0.16673480  0.16733440  0.49814365  1
  Cr  Cr28  1  0.99899411  0.00058851  0.66741407  1
  Ni  Ni29  1  0.16577764  0.16756320  0.83422043  1
  Ni  Ni30  1  0.16646902  0.50121455  0.49970370  1
  Ni  Ni31  1  0.00198138  0.33486033  0.66804124  1
  Ni  Ni32  1  0.16529818  0.50001380  0.83300101  1
  Ni  Ni33  1  0.16680504  0.83078126  0.49884525  1
  Ni  Ni34  1  0.00340773  0.66496226  0.66544160  1
  Ni  Ni35  1  0.16816404  0.83229877  0.83371090  1
  Ni  Ni36  1  0.50027763  0.16578342  0.49870155  1
  Fe  Fe37  1  0.33284049  0.99879120  0.66645151  1
  Cr  Cr38  1  0.49911290  0.16483864  0.83385902  1
  Ni  Ni39  1  0.49685994  0.49891349  0.49870976  1
  Ni  Ni40  1  0.33089713  0.33508109  0.66585516  1
  Cr  Cr41  1  0.49872698  0.50151485  0.83691660  1
  Ni  Ni42  1  0.49796947  0.83515975  0.50051736  1
  Ni  Ni43  1  0.33092671  0.66697414  0.66573089  1
  Ni  Ni44  1  0.49732757  0.83432304  0.83394927  1
  Ni  Ni45  1  0.83221030  0.16609203  0.49813114  1
  Ni  Ni46  1  0.66524568  0.99978308  0.66444693  1
  Ni  Ni47  1  0.83493935  0.16751600  0.83491245  1
  Ni  Ni48  1  0.83671094  0.49911862  0.49914145  1
  Cr  Cr49  1  0.66892164  0.33175023  0.66436737  1
  Ni  Ni50  1  0.83732216  0.49863602  0.83516514  1
  Ni  Ni51  1  0.83456683  0.83422576  0.49864119  1
  Cr  Cr52  1  0.66630158  0.66773277  0.66439071  1
  Cr  Cr53  1  0.83301471  0.83264563  0.83588472  1
" 