5380,Ni82Fe9Cr8_13,-237.742781845331, 181.597296116183,Ni82Fe9Cr8,"# generated using pymatgen
 data_Cr5Fe5Ni44
_symmetry_space_group_name_H-M   'P 1'
_cell_length_a   7.45080560
_cell_length_b   7.45080560
_cell_length_c   10.53703034
_cell_angle_alpha   90.00000000
_cell_angle_beta   90.00000000
_cell_angle_gamma   90.00000000
_symmetry_Int_Tables_number   1
_chemical_formula_structural   Cr5Fe5Ni44
_chemical_formula_sum   'Cr5 Fe5 Ni44'
_cell_volume   584.95801433
_cell_formula_units_Z   1
loop_
 _symmetry_equiv_pos_site_id
 _symmetry_equiv_pos_as_xyz
  1  'x, y, z'
loop_
 _atom_site_type_symbol
 _atom_site_label
 _atom_site_symmetry_multiplicity
 _atom_site_fract_x
 _atom_site_fract_y
 _atom_site_fract_z
 _atom_site_occupancy
  Ni  Ni0  1  0.00174679  0.00131581  0.99991333  1
  Ni  Ni1  1  0.16959523  0.16747310  0.16797433  1
  Ni  Ni2  1  1.00017637  1.00056308  0.33381494  1
  Ni  Ni3  1  0.00265080  0.33461195  1.00011343  1
  Fe  Fe4  1  0.16834793  0.50051664  0.16810519  1
  Ni  Ni5  1  0.00133668  0.33597107  0.33497312  1
  Fe  Fe6  1  1.00096650  0.66823642  1.00049555  1
  Fe  Fe7  1  0.16834304  0.83500349  0.16777688  1
  Ni  Ni8  1  1.00012022  0.66673229  0.33339779  1
  Ni  Ni9  1  0.33455230  0.00115940  0.00112673  1
  Ni  Ni10  1  0.49796507  0.16760366  0.16818501  1
  Ni  Ni11  1  0.33624888  0.00118871  0.33227395  1
  Ni  Ni12  1  0.33343897  0.33455482  1.00073576  1
  Ni  Ni13  1  0.50118772  0.50151884  0.16776560  1
  Ni  Ni14  1  0.33488703  0.33514921  0.33402420  1
  Ni  Ni15  1  0.33573464  0.66755587  1.00076102  1
  Ni  Ni16  1  0.50105999  0.83414631  0.16790239  1
  Ni  Ni17  1  0.33548372  0.66692963  0.33395275  1
  Ni  Ni18  1  0.66696834  0.99901725  1.00001777  1
  Cr  Cr19  1  0.83495767  0.16774443  0.16792565  1
  Ni  Ni20  1  0.66684791  0.99997227  0.33590126  1
  Fe  Fe21  1  0.66608745  0.33517911  1.00051842  1
  Ni  Ni22  1  0.83432055  0.50335902  0.16808264  1
  Ni  Ni23  1  0.66704670  0.33520810  0.33496069  1
  Ni  Ni24  1  0.66702619  0.66845734  1.00100190  1
  Ni  Ni25  1  0.83445227  0.83231389  0.16822639  1
  Ni  Ni26  1  0.66767241  0.66809098  0.33486222  1
  Cr  Cr27  1  0.16712107  0.17001125  0.50044904  1
  Ni  Ni28  1  0.99734014  0.00138709  0.66954707  1
  Ni  Ni29  1  0.16759560  0.16832351  0.83501426  1
  Ni  Ni30  1  0.16687858  0.49993798  0.50025226  1
  Ni  Ni31  1  1.00036211  0.33533907  0.66818247  1
  Ni  Ni32  1  0.16676266  0.49964021  0.83484890  1
  Cr  Cr33  1  0.16601383  0.83324934  0.49964320  1
  Ni  Ni34  1  0.99838083  0.66654458  0.66899983  1
  Ni  Ni35  1  0.16566561  0.83530789  0.83637768  1
  Ni  Ni36  1  0.50337600  0.16874645  0.49975347  1
  Cr  Cr37  1  0.33616475  0.00226444  0.66960733  1
  Ni  Ni38  1  0.50042060  0.16845424  0.83533037  1
  Ni  Ni39  1  0.50204560  0.50018499  0.50047934  1
  Ni  Ni40  1  0.33475425  0.33552907  0.66850862  1
  Ni  Ni41  1  0.50179528  0.50003727  0.83502532  1
  Ni  Ni42  1  0.50479786  0.83433834  0.49937661  1
  Cr  Cr43  1  0.33547848  0.66532385  0.66837124  1
  Ni  Ni44  1  0.50276195  0.83477818  0.83598433  1
  Ni  Ni45  1  0.83294809  0.16764681  0.50147582  1
  Ni  Ni46  1  0.66981180  1.00086519  0.66734888  1
  Fe  Fe47  1  0.83479519  0.16743260  0.83377429  1
  Ni  Ni48  1  0.83434634  0.50135311  0.50086078  1
  Ni  Ni49  1  0.66815163  0.33449905  0.66808899  1
  Ni  Ni50  1  0.83470933  0.50197262  0.83432550  1
  Ni  Ni51  1  0.83269730  0.83426926  0.50111185  1
  Ni  Ni52  1  0.66961955  0.66790661  0.66740398  1
  Ni  Ni53  1  0.83484147  0.83394160  0.83392694  1
" 