5235,Ni82Fe8Cr9_2,-236.761782720302, 177.970135311922,Ni82Fe8Cr9,"# generated using pymatgen
 data_Cr3(FeNi11)2
_symmetry_space_group_name_H-M   'P 1'
_cell_length_a   7.45279193
_cell_length_b   7.45279193
_cell_length_c   10.53983943
_cell_angle_alpha   90.00000000
_cell_angle_beta   90.00000000
_cell_angle_gamma   90.00000000
_symmetry_Int_Tables_number   1
_chemical_formula_structural   Cr3(FeNi11)2
_chemical_formula_sum   'Cr6 Fe4 Ni44'
_cell_volume   585.42597556
_cell_formula_units_Z   2
loop_
 _symmetry_equiv_pos_site_id
 _symmetry_equiv_pos_as_xyz
  1  'x, y, z'
loop_
 _atom_site_type_symbol
 _atom_site_label
 _atom_site_symmetry_multiplicity
 _atom_site_fract_x
 _atom_site_fract_y
 _atom_site_fract_z
 _atom_site_occupancy
  Ni  Ni0  1  0.00105603  0.99918486  0.00124911  1
  Ni  Ni1  1  0.16964362  0.16775120  0.16810840  1
  Ni  Ni2  1  0.00439423  0.99982046  0.33571329  1
  Fe  Fe3  1  0.00125529  0.33527829  0.00114936  1
  Ni  Ni4  1  0.16792736  0.50077743  0.16733213  1
  Ni  Ni5  1  0.00155745  0.33466299  0.33405365  1
  Fe  Fe6  1  0.00134991  0.66845361  0.00128392  1
  Ni  Ni7  1  0.16758089  0.83435278  0.16766882  1
  Ni  Ni8  1  0.99925891  0.66841211  0.33270042  1
  Ni  Ni9  1  0.33349456  0.99940860  0.00310589  1
  Ni  Ni10  1  0.49832865  0.16873531  0.16621702  1
  Ni  Ni11  1  0.33091011  0.00097397  0.33292237  1
  Ni  Ni12  1  0.33451435  0.33627166  0.00296515  1
  Ni  Ni13  1  0.50087743  0.50060818  0.16810821  1
  Ni  Ni14  1  0.33397031  0.33372665  0.33210141  1
  Ni  Ni15  1  0.33456605  0.66717661  0.00105160  1
  Ni  Ni16  1  0.50023952  0.83353212  0.16640036  1
  Fe  Fe17  1  0.33489572  0.66830302  0.33336950  1
  Ni  Ni18  1  0.66831670  0.99915133  1.00084656  1
  Cr  Cr19  1  0.83438972  0.16787386  0.16704644  1
  Cr  Cr20  1  0.66762001  0.99877738  0.33394013  1
  Ni  Ni21  1  0.66707198  0.33632417  0.00127539  1
  Ni  Ni22  1  0.83407727  0.50266526  0.16768619  1
  Ni  Ni23  1  0.66736224  0.33881529  0.33432961  1
  Ni  Ni24  1  0.66733218  0.66741857  0.00127270  1
  Ni  Ni25  1  0.83506126  0.83180512  0.16688281  1
  Ni  Ni26  1  0.66850269  0.66533394  0.33431597  1
  Ni  Ni27  1  0.16556263  0.16593715  0.50083805  1
  Ni  Ni28  1  1.00032052  1.00025857  0.66591743  1
  Cr  Cr29  1  0.16634570  0.16785019  0.83364039  1
  Cr  Cr30  1  0.16769014  0.50107379  0.50110126  1
  Ni  Ni31  1  0.99947660  0.33396373  0.66773650  1
  Ni  Ni32  1  0.16836704  0.50287995  0.83428410  1
  Ni  Ni33  1  0.16713358  0.83620832  0.50130930  1
  Ni  Ni34  1  1.00030809  0.66868113  0.66908730  1
  Ni  Ni35  1  0.16714603  0.83180888  0.83391727  1
  Cr  Cr36  1  0.50038237  0.16877340  0.50235033  1
  Ni  Ni37  1  0.33288979  0.99825454  0.66681849  1
  Cr  Cr38  1  0.50307624  0.16741905  0.83447689  1
  Ni  Ni39  1  0.50301123  0.50245539  0.50100141  1
  Ni  Ni40  1  0.33409737  0.33625664  0.66777288  1
  Ni  Ni41  1  0.50020184  0.50265597  0.83374761  1
  Ni  Ni42  1  0.50053083  0.83186300  0.50240436  1
  Ni  Ni43  1  0.33521144  0.66833486  0.66834946  1
  Ni  Ni44  1  0.50154373  0.83204822  0.83406127  1
  Ni  Ni45  1  0.83684349  0.16837928  0.50240250  1
  Ni  Ni46  1  0.66965937  0.99912941  0.66823474  1
  Ni  Ni47  1  0.83400859  0.16688354  0.83371668  1
  Ni  Ni48  1  0.83255071  0.50086977  0.50109178  1
  Ni  Ni49  1  0.66929948  0.33627370  0.66727512  1
  Fe  Fe50  1  0.83371469  0.50162079  0.83374971  1
  Ni  Ni51  1  0.83520023  0.83362757  0.50165828  1
  Ni  Ni52  1  0.66734039  0.66749186  0.66726133  1
  Ni  Ni53  1  0.83417893  0.83505198  0.83434470  1
" 