775,Ni82Fe2Cr14_5,-233.441449899224, 161.707492039416,Ni82Fe2Cr14,"# generated using pymatgen
 data_Cr9FeNi44
_symmetry_space_group_name_H-M   'P 1'
_cell_length_a   7.47013989
_cell_length_b   7.47013989
_cell_length_c   10.56437314
_cell_angle_alpha   90.00000000
_cell_angle_beta   90.00000000
_cell_angle_gamma   90.00000000
_symmetry_Int_Tables_number   1
_chemical_formula_structural   Cr9FeNi44
_chemical_formula_sum   'Cr9 Fe1 Ni44'
_cell_volume   589.52360834
_cell_formula_units_Z   1
loop_
 _symmetry_equiv_pos_site_id
 _symmetry_equiv_pos_as_xyz
  1  'x, y, z'
loop_
 _atom_site_type_symbol
 _atom_site_label
 _atom_site_symmetry_multiplicity
 _atom_site_fract_x
 _atom_site_fract_y
 _atom_site_fract_z
 _atom_site_occupancy
  Ni  Ni0  1  0.99954498  0.00132698  0.99907719  1
  Ni  Ni1  1  0.16686883  0.16722979  0.16577351  1
  Ni  Ni2  1  0.99846665  0.00025162  0.33326708  1
  Ni  Ni3  1  0.99967620  0.33391028  -0.00002828  1
  Ni  Ni4  1  0.16647550  0.49787098  0.16489774  1
  Cr  Cr5  1  0.99902256  0.33269522  0.33210803  1
  Ni  Ni6  1  0.99972458  0.66414155  0.99851787  1
  Cr  Cr7  1  0.16672072  0.83434086  0.16645366  1
  Cr  Cr8  1  0.99938403  0.66651375  0.33408193  1
  Ni  Ni9  1  0.33425376  0.00002541  0.99854153  1
  Ni  Ni10  1  0.49979997  0.16518587  0.16681002  1
  Ni  Ni11  1  0.33525353  -0.00016377  0.33344052  1
  Fe  Fe12  1  0.33117815  0.33138655  0.00012654  1
  Cr  Cr13  1  0.50011935  0.50017103  0.16688130  1
  Ni  Ni14  1  0.33458075  0.33323409  0.33276133  1
  Ni  Ni15  1  0.33192538  0.66759174  0.99910271  1
  Ni  Ni16  1  0.50153038  0.83449336  0.16653618  1
  Ni  Ni17  1  0.33475594  0.66630862  0.33520993  1
  Ni  Ni18  1  0.66557916  0.00007596  -0.00002851  1
  Ni  Ni19  1  0.83271074  0.16567569  0.16606028  1
  Ni  Ni20  1  0.66565712  0.00007662  0.33285079  1
  Ni  Ni21  1  0.66903202  0.33158181  0.99955494  1
  Ni  Ni22  1  0.83292564  0.49960375  0.16462534  1
  Ni  Ni23  1  0.66531069  0.33197742  0.33475637  1
  Ni  Ni24  1  0.66772864  0.66772156  -0.00002535  1
  Ni  Ni25  1  0.83088230  0.83409973  0.16586306  1
  Ni  Ni26  1  0.66489632  0.66732555  0.33386079  1
  Cr  Cr27  1  0.16694001  0.16335983  0.49872349  1
  Ni  Ni28  1  0.99889949  0.99738373  0.66703590  1
  Ni  Ni29  1  0.16650992  0.16436011  0.83489286  1
  Ni  Ni30  1  0.16777572  0.50266928  0.49871128  1
  Cr  Cr31  1  0.99745052  0.33444692  0.66707427  1
  Ni  Ni32  1  0.16395952  0.50074105  0.83576914  1
  Ni  Ni33  1  0.16634266  0.83287240  0.50017269  1
  Ni  Ni34  1  0.99832391  0.66768902  0.66657926  1
  Ni  Ni35  1  0.16553473  0.83427697  0.83314606  1
  Ni  Ni36  1  0.50212274  0.16652355  0.49913409  1
  Ni  Ni37  1  0.33421971  0.99879571  0.66739854  1
  Ni  Ni38  1  0.50019838  0.16413862  0.83343508  1
  Ni  Ni39  1  0.50154170  0.49975476  0.49781643  1
  Cr  Cr40  1  0.33440198  0.33162576  0.66667966  1
  Cr  Cr41  1  0.50200296  0.49974398  0.83443479  1
  Ni  Ni42  1  0.50028558  0.83310067  0.49871733  1
  Cr  Cr43  1  0.33198788  0.66897831  0.66514732  1
  Ni  Ni44  1  0.50009718  0.83557417  0.83412536  1
  Ni  Ni45  1  0.82983624  0.16509093  0.49973033  1
  Ni  Ni46  1  0.66625956  0.00011522  0.66655666  1
  Ni  Ni47  1  0.83267167  0.16571532  0.83358831  1
  Ni  Ni48  1  0.83006198  0.50083049  0.50104753  1
  Ni  Ni49  1  0.66775734  0.33197310  0.66506714  1
  Ni  Ni50  1  0.83397016  0.50063930  0.83370487  1
  Ni  Ni51  1  0.83275099  0.83345753  0.50062662  1
  Ni  Ni52  1  0.66916933  0.66729044  0.66554295  1
  Ni  Ni53  1  0.83374753  0.83302415  0.83288886  1
" 