3679,Ni82Fe2Cr14_14,-233.446513302365, 162.439579702806,Ni82Fe2Cr14,"# generated using pymatgen
 data_Cr9FeNi44
_symmetry_space_group_name_H-M   'P 1'
_cell_length_a   7.46934476
_cell_length_b   7.46934476
_cell_length_c   10.56324866
_cell_angle_alpha   90.00000000
_cell_angle_beta   90.00000000
_cell_angle_gamma   90.00000000
_symmetry_Int_Tables_number   1
_chemical_formula_structural   Cr9FeNi44
_chemical_formula_sum   'Cr9 Fe1 Ni44'
_cell_volume   589.33538001
_cell_formula_units_Z   1
loop_
 _symmetry_equiv_pos_site_id
 _symmetry_equiv_pos_as_xyz
  1  'x, y, z'
loop_
 _atom_site_type_symbol
 _atom_site_label
 _atom_site_symmetry_multiplicity
 _atom_site_fract_x
 _atom_site_fract_y
 _atom_site_fract_z
 _atom_site_occupancy
  Ni  Ni0  1  0.99906610  0.99858104  0.99884039  1
  Cr  Cr1  1  0.16465782  0.16693377  0.16649806  1
  Ni  Ni2  1  0.99740609  0.99895678  0.33450585  1
  Ni  Ni3  1  0.99906149  0.33429777  0.99906624  1
  Ni  Ni4  1  0.16451837  0.50207921  0.16737894  1
  Ni  Ni5  1  0.99819883  0.33382663  0.33291337  1
  Ni  Ni6  1  0.00006980  0.66665994  0.00042737  1
  Ni  Ni7  1  0.16567995  0.83036468  0.16600176  1
  Ni  Ni8  1  0.99920464  0.66675543  0.33188744  1
  Ni  Ni9  1  0.33422338  0.99719967  0.99887802  1
  Ni  Ni10  1  0.50245357  0.16454111  0.16779016  1
  Cr  Cr11  1  0.33438470  0.99927426  0.33417519  1
  Cr  Cr12  1  0.33194323  0.33296607  0.99882103  1
  Cr  Cr13  1  0.49921303  0.50139109  0.16834172  1
  Ni  Ni14  1  0.33340529  0.33328038  0.33318862  1
  Ni  Ni15  1  0.33187674  0.66938393  0.99923364  1
  Ni  Ni16  1  0.50090438  0.83345671  0.16577627  1
  Ni  Ni17  1  0.33206586  0.66696672  0.33216201  1
  Ni  Ni18  1  0.66624949  0.99820901  0.00059481  1
  Ni  Ni19  1  0.83241336  0.16570375  0.16739720  1
  Ni  Ni20  1  0.66772247  0.00029601  0.33258496  1
  Cr  Cr21  1  0.66853791  0.33197445  0.99906290  1
  Ni  Ni22  1  0.83550490  0.50053118  0.16795093  1
  Ni  Ni23  1  0.66793417  0.33148309  0.33327092  1
  Ni  Ni24  1  0.66759213  0.66937823  0.99867341  1
  Ni  Ni25  1  0.83295433  0.83330364  0.16661782  1
  Ni  Ni26  1  0.66826836  0.66775925  0.33347518  1
  Ni  Ni27  1  0.16500685  0.16575152  0.50114653  1
  Ni  Ni28  1  0.00197639  0.00163450  0.66619101  1
  Ni  Ni29  1  0.16541519  0.16627915  0.83161015  1
  Cr  Cr30  1  0.16709232  0.49885473  0.49842720  1
  Ni  Ni31  1  0.99935347  0.33092521  0.66755946  1
  Ni  Ni32  1  0.16697418  0.49939923  0.83376963  1
  Ni  Ni33  1  0.16601147  0.83494591  0.49978718  1
  Cr  Cr34  1  0.99903044  0.66743732  0.66707729  1
  Ni  Ni35  1  0.16742542  0.83386108  0.83374958  1
  Ni  Ni36  1  0.50018366  0.16692279  0.49939647  1
  Ni  Ni37  1  0.33170070  0.00025857  0.66647180  1
  Ni  Ni38  1  0.49899513  0.16644111  0.83235307  1
  Cr  Cr39  1  0.50063791  0.50022641  0.50019918  1
  Ni  Ni40  1  0.33340630  0.33138360  0.66795405  1
  Ni  Ni41  1  0.49977434  0.50157603  0.83101164  1
  Ni  Ni42  1  0.50035061  0.83260348  0.49978895  1
  Ni  Ni43  1  0.33477999  0.66789723  0.66814284  1
  Ni  Ni44  1  0.49916100  0.83152098  0.83397264  1
  Ni  Ni45  1  0.83434783  0.16624963  0.49878589  1
  Cr  Cr46  1  0.66609746  -0.00013592  0.66632814  1
  Ni  Ni47  1  0.83512871  0.16689301  0.83335557  1
  Fe  Fe48  1  0.83223778  0.49901258  0.49901428  1
  Ni  Ni49  1  0.66677911  0.33400536  0.66720150  1
  Ni  Ni50  1  0.83278895  0.49956500  0.83257794  1
  Ni  Ni51  1  0.83317591  0.83428117  0.49794856  1
  Ni  Ni52  1  0.66540234  0.66527249  0.66739046  1
  Ni  Ni53  1  0.83295247  0.83308036  0.83497114  1
" 