7087,Ni82Fe13Cr3_11,-239.817157996724, 193.206394008344,Ni82Fe13Cr3,"# generated using pymatgen
 data_Cr3Fe7Ni44
_symmetry_space_group_name_H-M   'P 1'
_cell_length_a   7.43929681
_cell_length_b   7.43929681
_cell_length_c   10.52075444
_cell_angle_alpha   90.00000000
_cell_angle_beta   90.00000000
_cell_angle_gamma   90.00000000
_symmetry_Int_Tables_number   1
_chemical_formula_structural   Cr3Fe7Ni44
_chemical_formula_sum   'Cr3 Fe7 Ni44'
_cell_volume   582.25155435
_cell_formula_units_Z   1
loop_
 _symmetry_equiv_pos_site_id
 _symmetry_equiv_pos_as_xyz
  1  'x, y, z'
loop_
 _atom_site_type_symbol
 _atom_site_label
 _atom_site_symmetry_multiplicity
 _atom_site_fract_x
 _atom_site_fract_y
 _atom_site_fract_z
 _atom_site_occupancy
  Ni  Ni0  1  1.00128739  0.00280435  1.00025888  1
  Cr  Cr1  1  0.16860085  0.16748050  0.16987462  1
  Ni  Ni2  1  1.00164449  0.00232880  0.33662895  1
  Ni  Ni3  1  0.00187588  0.33605590  1.00054965  1
  Ni  Ni4  1  0.16860827  0.50255869  0.16891785  1
  Ni  Ni5  1  1.00062414  0.33573593  0.33715181  1
  Ni  Ni6  1  0.00385991  0.66653169  1.00016254  1
  Ni  Ni7  1  0.17037296  0.83390258  0.16704252  1
  Ni  Ni8  1  0.00299661  0.66727318  0.33604587  1
  Ni  Ni9  1  0.33654786  1.00138723  1.00038191  1
  Ni  Ni10  1  0.50254607  0.16878911  0.16791799  1
  Ni  Ni11  1  0.33607062  1.00122674  0.33655170  1
  Ni  Ni12  1  0.33456830  0.33630463  1.00068330  1
  Ni  Ni13  1  0.50080781  0.50043905  0.16921888  1
  Ni  Ni14  1  0.33604585  0.33610032  0.33649447  1
  Ni  Ni15  1  0.33395102  0.66766050  1.00166075  1
  Ni  Ni16  1  0.49967131  0.83637219  0.17058678  1
  Ni  Ni17  1  0.33507173  0.66821555  0.33479333  1
  Ni  Ni18  1  0.66781276  0.00355542  1.00022259  1
  Ni  Ni19  1  0.83366721  0.17023816  0.16825543  1
  Ni  Ni20  1  0.66807220  0.00352031  0.33698831  1
  Fe  Fe21  1  0.66833746  0.33463028  1.00183144  1
  Ni  Ni22  1  0.83600571  0.49960686  0.16952157  1
  Ni  Ni23  1  0.66869658  0.33495984  0.33396793  1
  Cr  Cr24  1  0.66680264  0.66886196  0.00210864  1
  Cr  Cr25  1  0.83770157  0.83591997  0.17031298  1
  Ni  Ni26  1  0.66762039  0.66731764  0.33668853  1
  Ni  Ni27  1  0.16938650  0.16716674  0.50195124  1
  Ni  Ni28  1  0.00194336  0.00241800  0.66887460  1
  Ni  Ni29  1  0.16921916  0.16844082  0.83450114  1
  Fe  Fe30  1  0.16861306  0.50150122  0.50159908  1
  Fe  Fe31  1  1.00175325  0.33439015  0.66805166  1
  Ni  Ni32  1  0.16911383  0.50094477  0.83401584  1
  Ni  Ni33  1  0.16816147  0.83624040  0.50186816  1
  Fe  Fe34  1  0.00226451  0.66961678  0.66885043  1
  Ni  Ni35  1  0.16865564  0.83621676  0.83635687  1
  Ni  Ni36  1  0.50150699  0.17067795  0.50272876  1
  Ni  Ni37  1  0.33397939  0.00200163  0.66867112  1
  Fe  Fe38  1  0.50064303  0.16836795  0.83402667  1
  Ni  Ni39  1  0.50274295  0.50092624  0.50209601  1
  Ni  Ni40  1  0.33493340  0.33574850  0.66812169  1
  Ni  Ni41  1  0.50148262  0.50094603  0.83459900  1
  Fe  Fe42  1  0.50237462  0.83581518  0.50262238  1
  Ni  Ni43  1  0.33537427  0.66782681  0.66898107  1
  Ni  Ni44  1  0.50128664  0.83522927  0.83288405  1
  Ni  Ni45  1  0.83478998  0.16885630  0.50207894  1
  Ni  Ni46  1  0.66991044  0.00202835  0.66819873  1
  Fe  Fe47  1  0.83595340  0.16834800  0.83481341  1
  Ni  Ni48  1  0.83270444  0.50214681  0.50208263  1
  Ni  Ni49  1  0.66851383  0.33564716  0.66972704  1
  Ni  Ni50  1  0.83500683  0.50169436  0.83408624  1
  Ni  Ni51  1  0.83646811  0.83462199  0.50227027  1
  Ni  Ni52  1  0.66840296  0.66794365  0.66810205  1
  Ni  Ni53  1  0.83566578  0.83517891  0.83373979  1
" 