6722,Ni82Fe13Cr3_2,-239.643769218398, 191.886446403882,Ni82Fe13Cr3,"# generated using pymatgen
 data_Cr3Fe7Ni44
_symmetry_space_group_name_H-M   'P 1'
_cell_length_a   7.43974974
_cell_length_b   7.43974974
_cell_length_c   10.52139498
_cell_angle_alpha   90.00000000
_cell_angle_beta   90.00000000
_cell_angle_gamma   90.00000000
_symmetry_Int_Tables_number   1
_chemical_formula_structural   Cr3Fe7Ni44
_chemical_formula_sum   'Cr3 Fe7 Ni44'
_cell_volume   582.35790995
_cell_formula_units_Z   1
loop_
 _symmetry_equiv_pos_site_id
 _symmetry_equiv_pos_as_xyz
  1  'x, y, z'
loop_
 _atom_site_type_symbol
 _atom_site_label
 _atom_site_symmetry_multiplicity
 _atom_site_fract_x
 _atom_site_fract_y
 _atom_site_fract_z
 _atom_site_occupancy
  Ni  Ni0  1  0.00186072  0.00234622  0.00236318  1
  Ni  Ni1  1  0.16814733  0.16670040  0.16861169  1
  Ni  Ni2  1  0.00193647  0.00310103  0.33415299  1
  Ni  Ni3  1  1.00091441  0.33359334  1.00117530  1
  Cr  Cr4  1  0.16816182  0.50171165  0.16657761  1
  Fe  Fe5  1  1.00174431  0.33437757  0.33568405  1
  Ni  Ni6  1  0.99950201  0.66949549  1.00129573  1
  Ni  Ni7  1  0.16900850  0.83682558  0.16869612  1
  Ni  Ni8  1  1.00103310  0.66876228  0.33472376  1
  Ni  Ni9  1  0.33474391  0.00272727  0.00274386  1
  Ni  Ni10  1  0.50199581  0.16840478  0.16830631  1
  Ni  Ni11  1  0.33445209  0.00403240  0.33419098  1
  Ni  Ni12  1  0.33631115  0.33343062  1.00118006  1
  Ni  Ni13  1  0.50408745  0.50162803  0.16841267  1
  Ni  Ni14  1  0.33649696  0.33409848  0.33568805  1
  Ni  Ni15  1  0.33742461  0.66943676  1.00118959  1
  Ni  Ni16  1  0.50098166  0.83530390  0.16814616  1
  Ni  Ni17  1  0.33557797  0.66734886  0.33489413  1
  Fe  Fe18  1  0.66771916  1.00113896  1.00158311  1
  Ni  Ni19  1  0.83535179  0.16970530  0.16752575  1
  Ni  Ni20  1  0.66906938  0.00371580  0.33295187  1
  Fe  Fe21  1  0.66832086  0.33596979  1.00137161  1
  Ni  Ni22  1  0.83366454  0.50093235  0.16882549  1
  Fe  Fe23  1  0.66817544  0.33456379  0.33563322  1
  Ni  Ni24  1  0.66869579  0.66820615  0.00247464  1
  Fe  Fe25  1  0.83514782  0.83545350  0.16819565  1
  Ni  Ni26  1  0.66881799  0.66665829  0.33345217  1
  Ni  Ni27  1  0.16834416  0.16840717  0.50124159  1
  Ni  Ni28  1  0.00264391  0.00303795  0.66917488  1
  Ni  Ni29  1  0.16864113  0.16798077  0.83560542  1
  Ni  Ni30  1  0.16803137  0.50172916  0.50286778  1
  Ni  Ni31  1  1.00182485  0.33486860  0.66825453  1
  Fe  Fe32  1  0.16928238  0.50204712  0.83536064  1
  Ni  Ni33  1  0.16823536  0.83535935  0.50175962  1
  Ni  Ni34  1  0.00203883  0.66750227  0.66957566  1
  Ni  Ni35  1  0.16823413  0.83663501  0.83501369  1
  Ni  Ni36  1  0.50190268  0.16992604  0.50200343  1
  Ni  Ni37  1  0.33403069  0.00379872  0.66868151  1
  Ni  Ni38  1  0.50035829  0.16869599  0.83499825  1
  Ni  Ni39  1  0.50217770  0.50015823  0.50170615  1
  Ni  Ni40  1  0.33554097  0.33476762  0.66859446  1
  Ni  Ni41  1  0.50355790  0.50147840  0.83529291  1
  Cr  Cr42  1  0.50025411  0.83589611  0.50328696  1
  Ni  Ni43  1  0.33475946  0.66695094  0.66942608  1
  Ni  Ni44  1  0.50165079  0.83531362  0.83484615  1
  Ni  Ni45  1  0.83528227  0.17018955  0.50297023  1
  Ni  Ni46  1  0.66872667  0.00400496  0.67105483  1
  Fe  Fe47  1  0.83516929  0.16794420  0.83468304  1
  Ni  Ni48  1  0.83532044  0.50017405  0.50155083  1
  Ni  Ni49  1  0.66814969  0.33546212  0.66812665  1
  Ni  Ni50  1  0.83512613  0.50192343  0.83488018  1
  Cr  Cr51  1  0.83608043  0.83521344  0.50255195  1
  Ni  Ni52  1  0.66880035  0.66607653  0.66983019  1
  Ni  Ni53  1  0.83556112  0.83385825  0.83568481  1
" 