4169,Ni82Fe2Cr14_17,-233.272002468165, 159.751335148911,Ni82Fe2Cr14,"# generated using pymatgen
 data_Cr9FeNi44
_symmetry_space_group_name_H-M   'P 1'
_cell_length_a   7.47285493
_cell_length_b   7.47285493
_cell_length_c   10.56821279
_cell_angle_alpha   90.00000000
_cell_angle_beta   90.00000000
_cell_angle_gamma   90.00000000
_symmetry_Int_Tables_number   1
_chemical_formula_structural   Cr9FeNi44
_chemical_formula_sum   'Cr9 Fe1 Ni44'
_cell_volume   590.16663289
_cell_formula_units_Z   1
loop_
 _symmetry_equiv_pos_site_id
 _symmetry_equiv_pos_as_xyz
  1  'x, y, z'
loop_
 _atom_site_type_symbol
 _atom_site_label
 _atom_site_symmetry_multiplicity
 _atom_site_fract_x
 _atom_site_fract_y
 _atom_site_fract_z
 _atom_site_occupancy
  Ni  Ni0  1  0.99938693  0.99563420  0.99720006  1
  Cr  Cr1  1  0.16863452  0.16679980  0.16707424  1
  Ni  Ni2  1  0.99878646  0.99902446  0.33548935  1
  Cr  Cr3  1  0.00023709  0.33423782  0.00086720  1
  Ni  Ni4  1  0.16702560  0.50046905  0.16703484  1
  Ni  Ni5  1  -0.00030826  0.33454913  0.33461122  1
  Ni  Ni6  1  0.99926984  0.66901193  0.00063488  1
  Cr  Cr7  1  0.16620186  0.83142777  0.16619757  1
  Ni  Ni8  1  0.99884712  0.66526053  0.33313296  1
  Ni  Ni9  1  0.33499441  0.99948333  0.99782737  1
  Ni  Ni10  1  0.49998717  0.16678791  0.16553606  1
  Ni  Ni11  1  0.33394801  0.99885025  0.33311738  1
  Ni  Ni12  1  0.33667694  0.33292975  0.99936735  1
  Ni  Ni13  1  0.49970028  0.49909127  0.16584333  1
  Ni  Ni14  1  0.33268821  0.33436984  0.33223960  1
  Ni  Ni15  1  0.33385033  0.66642120  0.99937132  1
  Ni  Ni16  1  0.50136647  0.83295550  0.16644094  1
  Ni  Ni17  1  0.33370820  0.66561441  0.33397198  1
  Ni  Ni18  1  0.66445387  0.99846247  0.99961074  1
  Cr  Cr19  1  0.83057906  0.16545078  0.16748399  1
  Ni  Ni20  1  0.66610029  0.99800532  0.33265044  1
  Ni  Ni21  1  0.66186307  0.33304614  0.00039136  1
  Ni  Ni22  1  0.83210753  0.50184976  0.16695925  1
  Ni  Ni23  1  0.66645436  0.33430999  0.33253682  1
  Fe  Fe24  1  0.66514442  0.66751676  0.00051647  1
  Ni  Ni25  1  0.83135384  0.83110732  0.16566467  1
  Ni  Ni26  1  0.66627906  0.66651883  0.33223521  1
  Ni  Ni27  1  0.16308484  0.16718246  0.49897710  1
  Ni  Ni28  1  0.99842349  0.99902884  0.66614514  1
  Ni  Ni29  1  0.16823731  0.16407801  0.83304270  1
  Ni  Ni30  1  0.16601006  0.49962466  0.49947047  1
  Ni  Ni31  1  0.00009377  0.33222235  0.66359080  1
  Cr  Cr32  1  0.16866035  0.50059941  0.83212735  1
  Ni  Ni33  1  0.16510516  0.83202731  0.49897665  1
  Ni  Ni34  1  0.99924366  0.66758310  0.66506692  1
  Ni  Ni35  1  0.16547806  0.83429484  0.83411623  1
  Cr  Cr36  1  0.50086459  0.16693949  0.49835965  1
  Cr  Cr37  1  0.33221320  0.99866451  0.66755250  1
  Ni  Ni38  1  0.49856669  0.16701450  0.83470389  1
  Ni  Ni39  1  0.49937187  0.50129128  0.50020910  1
  Ni  Ni40  1  0.33292738  0.33497174  0.66722666  1
  Ni  Ni41  1  0.49904638  0.49909079  0.83278235  1
  Ni  Ni42  1  0.50027665  0.83035867  0.49859341  1
  Ni  Ni43  1  0.33395069  0.66500700  0.66549142  1
  Ni  Ni44  1  0.49995455  0.83272887  0.83379921  1
  Ni  Ni45  1  0.83512073  0.16627798  0.49985360  1
  Ni  Ni46  1  0.66838985  0.99800527  0.66657284  1
  Cr  Cr47  1  0.83213871  0.16407746  0.83150905  1
  Ni  Ni48  1  0.83345222  0.49927142  0.49958383  1
  Ni  Ni49  1  0.66581314  0.33415209  0.66590601  1
  Cr  Cr50  1  0.83076314  0.50156366  0.83197498  1
  Ni  Ni51  1  0.83345294  0.83328496  0.49985333  1
  Ni  Ni52  1  0.66563987  0.66667685  0.66620977  1
  Ni  Ni53  1  0.83340176  0.83381467  0.83331615  1
" 