7190,Ni82Fe3Cr13_2,-233.502987173663, 165.328503600684,Ni82Fe3Cr13,"# generated using pymatgen
 data_Cr9FeNi44
_symmetry_space_group_name_H-M   'P 1'
_cell_length_a   7.47047994
_cell_length_b   7.47047994
_cell_length_c   10.56485404
_cell_angle_alpha   90.00000000
_cell_angle_beta   90.00000000
_cell_angle_gamma   90.00000000
_symmetry_Int_Tables_number   1
_chemical_formula_structural   Cr9FeNi44
_chemical_formula_sum   'Cr9 Fe1 Ni44'
_cell_volume   589.60411912
_cell_formula_units_Z   1
loop_
 _symmetry_equiv_pos_site_id
 _symmetry_equiv_pos_as_xyz
  1  'x, y, z'
loop_
 _atom_site_type_symbol
 _atom_site_label
 _atom_site_symmetry_multiplicity
 _atom_site_fract_x
 _atom_site_fract_y
 _atom_site_fract_z
 _atom_site_occupancy
  Ni  Ni0  1  0.99966644  0.99848250  0.00022718  1
  Ni  Ni1  1  0.16577313  0.16408653  0.16655704  1
  Ni  Ni2  1  0.99955210  0.00010856  0.33263299  1
  Cr  Cr3  1  0.99899529  0.33249059  0.99910153  1
  Cr  Cr4  1  0.16646053  0.50014117  0.16798894  1
  Ni  Ni5  1  0.99971464  0.33114901  0.33318131  1
  Ni  Ni6  1  0.99891813  0.66894915  0.99849370  1
  Ni  Ni7  1  0.16529829  0.83508742  0.16678144  1
  Ni  Ni8  1  0.99971002  0.66805448  0.33271362  1
  Ni  Ni9  1  0.33242259  0.00056643  0.99863921  1
  Cr  Cr10  1  0.49976318  0.16670966  0.16561203  1
  Ni  Ni11  1  0.33209859  0.99877050  0.33376641  1
  Ni  Ni12  1  0.33396681  0.33049582  0.99897382  1
  Ni  Ni13  1  0.50146802  0.49943395  0.16792927  1
  Ni  Ni14  1  0.33293782  0.33348689  0.33449502  1
  Cr  Cr15  1  0.33223759  0.66764344  0.00050878  1
  Ni  Ni16  1  0.49975021  0.83306870  0.16762783  1
  Ni  Ni17  1  0.33427882  0.66705228  0.33384728  1
  Ni  Ni18  1  0.66722022  0.00065379  0.99868618  1
  Ni  Ni19  1  0.83356563  0.16580173  0.16717102  1
  Ni  Ni20  1  0.66766001  0.99876596  0.33386103  1
  Ni  Ni21  1  0.66651489  0.33124857  0.99972944  1
  Ni  Ni22  1  0.83154445  0.49991524  0.16721031  1
  Ni  Ni23  1  0.66665947  0.33332942  0.33265335  1
  Cr  Cr24  1  0.66810745  0.66702750  0.00093098  1
  Ni  Ni25  1  0.83426166  0.83359334  0.16672530  1
  Ni  Ni26  1  0.66532145  0.66721587  0.33200597  1
  Ni  Ni27  1  0.16763023  0.16714384  0.49925644  1
  Cr  Cr28  1  0.00063124  0.00015843  0.66593427  1
  Fe  Fe29  1  0.16790381  0.16612036  0.83320306  1
  Ni  Ni30  1  0.16816019  0.49973190  0.50028151  1
  Ni  Ni31  1  0.00057874  0.33456117  0.66732407  1
  Ni  Ni32  1  0.16436984  0.50055563  0.83124273  1
  Ni  Ni33  1  0.16745727  0.83243551  0.49897819  1
  Ni  Ni34  1  0.00067077  0.66497364  0.66810412  1
  Ni  Ni35  1  0.16608076  0.83239257  0.83355157  1
  Ni  Ni36  1  0.49881767  0.16714593  0.49950239  1
  Ni  Ni37  1  0.33342646  0.99944694  0.66690333  1
  Ni  Ni38  1  0.49960825  0.16565229  0.83420036  1
  Ni  Ni39  1  0.49789683  0.49933830  0.49962173  1
  Ni  Ni40  1  0.33225507  0.33318329  0.66584028  1
  Cr  Cr41  1  0.49972665  0.49752465  0.83174824  1
  Ni  Ni42  1  0.49859474  0.83282661  0.49936686  1
  Ni  Ni43  1  0.33249982  0.66668124  0.66556867  1
  Ni  Ni44  1  0.49855775  0.83633367  0.83231889  1
  Ni  Ni45  1  0.83286392  0.16644831  0.49796995  1
  Cr  Cr46  1  0.66520957  0.99937210  0.66612102  1
  Ni  Ni47  1  0.83143636  0.16736712  0.83416614  1
  Cr  Cr48  1  0.83342111  0.49979806  0.50050879  1
  Ni  Ni49  1  0.66647869  0.33363164  0.66692866  1
  Ni  Ni50  1  0.83538030  0.49950391  0.83173099  1
  Ni  Ni51  1  0.83325836  0.83335589  0.49835861  1
  Ni  Ni52  1  0.66614056  0.66614182  0.66659222  1
  Ni  Ni53  1  0.83467240  0.83244148  0.83422072  1
" 