5321,Ni82Fe3Cr14_15,-233.428716954842, 163.165281231566,Ni82Fe3Cr14,"# generated using pymatgen
 data_Cr9FeNi44
_symmetry_space_group_name_H-M   'P 1'
_cell_length_a   7.46989622
_cell_length_b   7.46989622
_cell_length_c   10.56402854
_cell_angle_alpha   90.00000000
_cell_angle_beta   90.00000000
_cell_angle_gamma   90.00000000
_symmetry_Int_Tables_number   1
_chemical_formula_structural   Cr9FeNi44
_chemical_formula_sum   'Cr9 Fe1 Ni44'
_cell_volume   589.46592023
_cell_formula_units_Z   1
loop_
 _symmetry_equiv_pos_site_id
 _symmetry_equiv_pos_as_xyz
  1  'x, y, z'
loop_
 _atom_site_type_symbol
 _atom_site_label
 _atom_site_symmetry_multiplicity
 _atom_site_fract_x
 _atom_site_fract_y
 _atom_site_fract_z
 _atom_site_occupancy
  Ni  Ni0  1  0.00136226  -0.00007918  0.00025797  1
  Ni  Ni1  1  0.16732641  0.16741669  0.16563270  1
  Ni  Ni2  1  0.99863610  0.99909724  0.33365130  1
  Ni  Ni3  1  0.00202842  0.33247740  0.99870086  1
  Ni  Ni4  1  0.16865815  0.49831471  0.16627563  1
  Ni  Ni5  1  0.00009350  0.33259139  0.33390544  1
  Cr  Cr6  1  0.00037806  0.66704746  0.99903146  1
  Ni  Ni7  1  0.16595657  0.83369668  0.16623853  1
  Ni  Ni8  1  0.99763416  0.66774049  0.33300789  1
  Ni  Ni9  1  0.33354900  0.00021717  0.99962252  1
  Ni  Ni10  1  0.49852911  0.16719630  0.16574261  1
  Cr  Cr11  1  0.33309254  0.00140509  0.33298952  1
  Ni  Ni12  1  0.33272000  0.33201606  0.00103180  1
  Ni  Ni13  1  0.49819549  0.49953389  0.16620305  1
  Ni  Ni14  1  0.33409481  0.33242320  0.33207397  1
  Ni  Ni15  1  0.33408612  0.66719459  0.00084441  1
  Ni  Ni16  1  0.50111725  0.83269711  0.16446677  1
  Cr  Cr17  1  0.33370314  0.66582994  0.33162585  1
  Ni  Ni18  1  0.66451638  0.99855376  -0.00013185  1
  Cr  Cr19  1  0.83349857  0.16456112  0.16659392  1
  Ni  Ni20  1  0.66777180  0.99934162  0.33384495  1
  Ni  Ni21  1  0.66467985  0.33301459  0.00005268  1
  Cr  Cr22  1  0.83251068  0.50040155  0.16739461  1
  Ni  Ni23  1  0.66524008  0.33342166  0.33473237  1
  Ni  Ni24  1  0.66497900  0.66785991  -0.00013381  1
  Ni  Ni25  1  0.83235244  0.83402737  0.16746192  1
  Ni  Ni26  1  0.66794082  0.66666488  0.33390456  1
  Ni  Ni27  1  0.16547783  0.16653756  0.50058265  1
  Ni  Ni28  1  0.00111559  0.99872562  0.66551887  1
  Ni  Ni29  1  0.16750555  0.16686556  0.83321314  1
  Cr  Cr30  1  0.16624027  0.49854642  0.50058706  1
  Ni  Ni31  1  0.00157811  0.33359015  0.66682210  1
  Ni  Ni32  1  0.16543720  0.49886846  0.83256836  1
  Fe  Fe33  1  0.16481911  0.83480001  0.50147120  1
  Ni  Ni34  1  0.99911963  0.66711344  0.66738503  1
  Ni  Ni35  1  0.16713613  0.83369371  0.83183157  1
  Ni  Ni36  1  0.49978772  0.16619729  0.49974983  1
  Ni  Ni37  1  0.33305586  0.99972437  0.66676139  1
  Ni  Ni38  1  0.49738452  0.16394519  0.83393608  1
  Ni  Ni39  1  0.50115810  0.50012472  0.49923137  1
  Ni  Ni40  1  0.33143146  0.33142733  0.66632255  1
  Cr  Cr41  1  0.49874531  0.50108261  0.83382037  1
  Ni  Ni42  1  0.50249723  0.83310561  0.50174915  1
  Ni  Ni43  1  0.33289007  0.66827740  0.66670403  1
  Ni  Ni44  1  0.49997495  0.83439516  0.83321287  1
  Ni  Ni45  1  0.83416152  0.16520047  0.49864376  1
  Ni  Ni46  1  0.66525586  0.99726625  0.66571562  1
  Cr  Cr47  1  0.83408588  0.16561884  0.83438554  1
  Ni  Ni48  1  0.83246294  0.50079148  0.49916344  1
  Cr  Cr49  1  0.66663926  0.33318523  0.66487379  1
  Ni  Ni50  1  0.83523671  0.50145813  0.83280810  1
  Ni  Ni51  1  0.83212215  0.83343723  0.49941856  1
  Ni  Ni52  1  0.66741803  0.66873708  0.66565773  1
  Ni  Ni53  1  0.83231597  0.83232572  0.83254791  1
" 