7288,Ni82Fe13Cr3_13,-239.696730234497, 192.250542217906,Ni82Fe13Cr3,"# generated using pymatgen
 data_Cr3Fe7Ni44
_symmetry_space_group_name_H-M   'P 1'
_cell_length_a   7.44190039
_cell_length_b   7.44190039
_cell_length_c   10.52443646
_cell_angle_alpha   90.00000000
_cell_angle_beta   90.00000000
_cell_angle_gamma   90.00000000
_symmetry_Int_Tables_number   1
_chemical_formula_structural   Cr3Fe7Ni44
_chemical_formula_sum   'Cr3 Fe7 Ni44'
_cell_volume   582.86309254
_cell_formula_units_Z   1
loop_
 _symmetry_equiv_pos_site_id
 _symmetry_equiv_pos_as_xyz
  1  'x, y, z'
loop_
 _atom_site_type_symbol
 _atom_site_label
 _atom_site_symmetry_multiplicity
 _atom_site_fract_x
 _atom_site_fract_y
 _atom_site_fract_z
 _atom_site_occupancy
  Ni  Ni0  1  0.99987930  0.00252116  0.99996901  1
  Cr  Cr1  1  0.16879133  0.16936601  0.16898661  1
  Ni  Ni2  1  0.99988997  0.00234964  0.33639148  1
  Ni  Ni3  1  1.00067881  0.33517013  1.00131477  1
  Ni  Ni4  1  0.16853189  0.50212991  0.16866936  1
  Ni  Ni5  1  0.00246012  0.33517291  0.33523968  1
  Fe  Fe6  1  0.00256842  0.66727239  1.00019925  1
  Cr  Cr7  1  0.16869323  0.83402327  0.16878739  1
  Fe  Fe8  1  1.00136172  0.66755692  0.33645684  1
  Ni  Ni9  1  0.33617181  1.00121434  1.00022117  1
  Ni  Ni10  1  0.50292773  0.16786791  0.16777621  1
  Ni  Ni11  1  0.33617480  1.00104114  0.33613954  1
  Ni  Ni12  1  0.33537258  0.33647667  1.00156882  1
  Ni  Ni13  1  0.50135108  0.50223114  0.16777317  1
  Ni  Ni14  1  0.33360328  0.33647994  0.33498548  1
  Ni  Ni15  1  0.33644315  0.66737606  1.00101813  1
  Fe  Fe16  1  0.50284715  0.83462682  0.16886982  1
  Ni  Ni17  1  0.33642955  0.66754579  0.33534074  1
  Fe  Fe18  1  0.66789094  0.00272044  1.00137357  1
  Ni  Ni19  1  0.83371437  0.16786886  0.16777021  1
  Ni  Ni20  1  0.66900371  0.99952087  0.33412714  1
  Fe  Fe21  1  0.66789187  0.33449982  1.00155696  1
  Ni  Ni22  1  0.83518731  0.50212894  0.16776993  1
  Cr  Cr23  1  0.66878378  0.33525761  0.33528361  1
  Fe  Fe24  1  0.66790707  0.66784909  1.00135961  1
  Fe  Fe25  1  0.83336519  0.83523572  0.16886878  1
  Ni  Ni26  1  0.66770008  0.67011798  0.33462677  1
  Ni  Ni27  1  0.16839273  0.16791980  0.50091973  1
  Ni  Ni28  1  1.00124120  0.00180918  0.66871193  1
  Ni  Ni29  1  0.16839315  0.16768042  0.83548088  1
  Ni  Ni30  1  0.16844767  0.50179180  0.50060408  1
  Ni  Ni31  1  1.00105508  0.33494532  0.66851466  1
  Ni  Ni32  1  0.16844834  0.50203056  0.83579519  1
  Ni  Ni33  1  0.16844784  0.83535685  0.50173336  1
  Ni  Ni34  1  1.00124390  0.66831339  0.66871189  1
  Ni  Ni35  1  0.16844810  0.83535720  0.83491230  1
  Ni  Ni36  1  0.50081628  0.16731857  0.50200685  1
  Ni  Ni37  1  0.33503435  1.00129619  0.66871232  1
  Ni  Ni38  1  0.50138955  0.16813130  0.83528232  1
  Ni  Ni39  1  0.50101282  0.50264387  0.50225009  1
  Ni  Ni40  1  0.33522012  0.33545915  0.66851523  1
  Ni  Ni41  1  0.50159245  0.50183342  0.83504640  1
  Ni  Ni42  1  0.50161281  0.83510569  0.50078769  1
  Ni  Ni43  1  0.33554432  0.66831347  0.66871151  1
  Ni  Ni44  1  0.50114366  0.83510390  0.83545721  1
  Ni  Ni45  1  0.83585886  0.16731948  0.50205282  1
  Ni  Ni46  1  0.66879340  1.00148486  0.66847348  1
  Ni  Ni47  1  0.83527958  0.16813044  0.83524240  1
  Ni  Ni48  1  0.83560900  0.50258957  0.50230529  1
  Ni  Ni49  1  0.66879353  0.33545624  0.66884561  1
  Ni  Ni50  1  0.83502987  0.50177837  0.83499601  1
  Ni  Ni51  1  0.83500887  0.83515955  0.50084345  1
  Ni  Ni52  1  0.66827997  0.66812755  0.66847321  1
  Ni  Ni53  1  0.83547907  0.83515911  0.83540677  1
" 