7399,Ni82Fe2Cr14_10,-233.323844231412, 159.715297321189,Ni82Fe2Cr14,"# generated using pymatgen
 data_Cr9FeNi44
_symmetry_space_group_name_H-M   'P 1'
_cell_length_a   7.47218442
_cell_length_b   7.47218442
_cell_length_c   10.56726455
_cell_angle_alpha   90.00000000
_cell_angle_beta   90.00000000
_cell_angle_gamma   90.00000000
_symmetry_Int_Tables_number   1
_chemical_formula_structural   Cr9FeNi44
_chemical_formula_sum   'Cr9 Fe1 Ni44'
_cell_volume   590.00778871
_cell_formula_units_Z   1
loop_
 _symmetry_equiv_pos_site_id
 _symmetry_equiv_pos_as_xyz
  1  'x, y, z'
loop_
 _atom_site_type_symbol
 _atom_site_label
 _atom_site_symmetry_multiplicity
 _atom_site_fract_x
 _atom_site_fract_y
 _atom_site_fract_z
 _atom_site_occupancy
  Ni  Ni0  1  0.99930603  0.00001770  0.00048202  1
  Ni  Ni1  1  0.16594560  0.16815043  0.16439561  1
  Cr  Cr2  1  0.99960181  0.99858704  0.33217115  1
  Ni  Ni3  1  0.99889799  0.33139560  0.00053592  1
  Ni  Ni4  1  0.16594302  0.49975513  0.16694932  1
  Ni  Ni5  1  0.00073529  0.33422767  0.33155437  1
  Ni  Ni6  1  0.99781437  0.66755638  0.00161697  1
  Ni  Ni7  1  0.16464707  0.83106351  0.16441967  1
  Ni  Ni8  1  0.99964908  0.66616453  0.33239720  1
  Ni  Ni9  1  0.33142437  0.00217827  0.00010524  1
  Ni  Ni10  1  0.50056380  0.16864242  0.16555855  1
  Cr  Cr11  1  0.33259310  0.00072543  0.33427922  1
  Ni  Ni12  1  0.33416525  0.33157165  0.00071410  1
  Ni  Ni13  1  0.49940675  0.49810418  0.16630829  1
  Ni  Ni14  1  0.33377158  0.33439966  0.33329286  1
  Ni  Ni15  1  0.33309243  0.66521858  0.00179881  1
  Cr  Cr16  1  0.49992006  0.83238949  0.16510960  1
  Ni  Ni17  1  0.33269654  0.66383868  0.33412566  1
  Ni  Ni18  1  0.66823796  0.00109156  0.00012289  1
  Ni  Ni19  1  0.83245996  0.16734577  0.16553519  1
  Fe  Fe20  1  0.66642087  0.99964960  0.33308993  1
  Ni  Ni21  1  0.66590599  0.33306068  0.99946817  1
  Ni  Ni22  1  0.83361869  0.49939981  0.16628435  1
  Ni  Ni23  1  0.66446408  0.33387376  0.33113759  1
  Ni  Ni24  1  0.66805998  0.66481712  0.99922801  1
  Ni  Ni25  1  0.83411152  0.83222319  0.16555891  1
  Ni  Ni26  1  0.66662328  0.66544425  0.33329350  1
  Ni  Ni27  1  0.16922115  0.16859129  0.50098863  1
  Cr  Cr28  1  0.00008551  0.99942813  0.66649848  1
  Ni  Ni29  1  0.16678429  0.16730882  0.83358541  1
  Ni  Ni30  1  0.16813707  0.50015548  0.49951060  1
  Ni  Ni31  1  0.00057622  0.33343258  0.66687656  1
  Cr  Cr32  1  0.16589852  0.49836027  0.83253387  1
  Ni  Ni33  1  0.16791667  0.83022331  0.50060802  1
  Ni  Ni34  1  0.99841479  0.66612190  0.66495682  1
  Cr  Cr35  1  0.16643512  0.83346053  0.83442112  1
  Ni  Ni36  1  0.49832697  0.16617378  0.50072220  1
  Ni  Ni37  1  0.33429805  0.00157189  0.66456204  1
  Ni  Ni38  1  0.50023709  0.16769231  0.83268680  1
  Ni  Ni39  1  0.49718000  0.50033166  0.49973291  1
  Ni  Ni40  1  0.33412910  0.33177187  0.66496130  1
  Ni  Ni41  1  0.50188376  0.49790106  0.83292799  1
  Ni  Ni42  1  0.49980901  0.83246270  0.50089988  1
  Ni  Ni43  1  0.33413230  0.66562517  0.66304584  1
  Cr  Cr44  1  0.50059345  0.83319271  0.83314763  1
  Cr  Cr45  1  0.83147211  0.16699622  0.49923456  1
  Ni  Ni46  1  0.66476193  0.99941374  0.66537812  1
  Ni  Ni47  1  0.83194852  0.16747323  0.83378773  1
  Cr  Cr48  1  0.83404864  0.50043112  0.49990976  1
  Ni  Ni49  1  0.66426507  0.33326346  0.66836081  1
  Ni  Ni50  1  0.83138083  0.49919894  0.83271101  1
  Ni  Ni51  1  0.83123973  0.83137885  0.49982297  1
  Ni  Ni52  1  0.66642173  0.66628947  0.66644891  1
  Ni  Ni53  1  0.83176449  0.83229605  0.83358558  1
" 