1361,Ni82Fe7Cr9_15,-236.696180000914, 176.635736457456,Ni82Fe7Cr9,"# generated using pymatgen
 data_Cr3(FeNi11)2
_symmetry_space_group_name_H-M   'P 1'
_cell_length_a   7.45552136
_cell_length_b   7.45552136
_cell_length_c   10.54369942
_cell_angle_alpha   90.00000000
_cell_angle_beta   90.00000000
_cell_angle_gamma   90.00000000
_symmetry_Int_Tables_number   1
_chemical_formula_structural   Cr3(FeNi11)2
_chemical_formula_sum   'Cr6 Fe4 Ni44'
_cell_volume   586.06940950
_cell_formula_units_Z   2
loop_
 _symmetry_equiv_pos_site_id
 _symmetry_equiv_pos_as_xyz
  1  'x, y, z'
loop_
 _atom_site_type_symbol
 _atom_site_label
 _atom_site_symmetry_multiplicity
 _atom_site_fract_x
 _atom_site_fract_y
 _atom_site_fract_z
 _atom_site_occupancy
  Ni  Ni0  1  0.00109167  1.00039997  0.99985640  1
  Ni  Ni1  1  0.16711128  0.16481782  0.16574331  1
  Ni  Ni2  1  0.00103424  0.99831299  0.33407227  1
  Ni  Ni3  1  1.00001266  0.33429253  1.00067054  1
  Ni  Ni4  1  0.16641617  0.50227211  0.16465056  1
  Cr  Cr5  1  0.99927081  0.33547238  0.33205114  1
  Ni  Ni6  1  0.00164078  0.66763003  1.00072425  1
  Ni  Ni7  1  0.16630938  0.83511510  0.16786721  1
  Ni  Ni8  1  0.99990382  0.66903907  0.33414473  1
  Ni  Ni9  1  0.33395310  0.99934218  0.00103381  1
  Ni  Ni10  1  0.49958697  0.16615744  0.16507339  1
  Ni  Ni11  1  0.33354094  0.99899540  0.33330734  1
  Fe  Fe12  1  0.33427586  0.33439587  0.99953636  1
  Ni  Ni13  1  0.50234017  0.50259286  0.16495578  1
  Cr  Cr14  1  0.33541399  0.33368340  0.33251014  1
  Ni  Ni15  1  0.33323619  0.66894935  0.99985347  1
  Ni  Ni16  1  0.50097868  0.83352829  0.16560652  1
  Cr  Cr17  1  0.33425552  0.66844877  0.33435619  1
  Ni  Ni18  1  0.66725595  0.00101912  1.00030366  1
  Ni  Ni19  1  0.83544354  0.16577067  0.16498704  1
  Cr  Cr20  1  0.66657370  1.00036873  0.33299184  1
  Ni  Ni21  1  0.66868185  0.33352870  1.00057906  1
  Ni  Ni22  1  0.83373054  0.50354903  0.16603267  1
  Cr  Cr23  1  0.66773309  0.33530321  0.33500797  1
  Ni  Ni24  1  0.66741282  0.66775656  1.00054771  1
  Ni  Ni25  1  0.83507752  0.83292164  0.16698003  1
  Ni  Ni26  1  0.66893890  0.66816444  0.33406691  1
  Cr  Cr27  1  0.16727975  0.16612503  0.50252005  1
  Fe  Fe28  1  0.99970218  0.99995204  0.67012030  1
  Ni  Ni29  1  0.16743725  0.16716019  0.83412259  1
  Ni  Ni30  1  0.16598658  0.50258326  0.50340543  1
  Ni  Ni31  1  0.99950599  0.33570484  0.66881327  1
  Ni  Ni32  1  0.16696287  0.50103930  0.83375828  1
  Fe  Fe33  1  0.16713893  0.83333820  0.50206382  1
  Ni  Ni34  1  0.00104595  0.66652861  0.66784977  1
  Ni  Ni35  1  0.16764231  0.83406816  0.83325184  1
  Ni  Ni36  1  0.50099818  0.16528133  0.50337747  1
  Ni  Ni37  1  0.33588359  0.99913936  0.66827075  1
  Ni  Ni38  1  0.50077498  0.16690190  0.83330374  1
  Ni  Ni39  1  0.50199189  0.50309228  0.50405090  1
  Ni  Ni40  1  0.33440659  0.33469668  0.66887252  1
  Ni  Ni41  1  0.50157618  0.50165195  0.83303717  1
  Ni  Ni42  1  0.50116853  0.83388247  0.50220869  1
  Ni  Ni43  1  0.33345965  0.66838862  0.66794494  1
  Ni  Ni44  1  0.50099169  0.83381474  0.83447037  1
  Ni  Ni45  1  0.83452188  0.16612751  0.50373099  1
  Ni  Ni46  1  0.66652884  1.00067840  0.66836953  1
  Ni  Ni47  1  0.83406088  0.16758221  0.83370672  1
  Ni  Ni48  1  0.83443494  0.50295316  0.50216547  1
  Ni  Ni49  1  0.66832157  0.33340247  0.66682547  1
  Ni  Ni50  1  0.83383449  0.50125683  0.83409808  1
  Fe  Fe51  1  0.83352644  0.83305869  0.50190382  1
  Ni  Ni52  1  0.66776010  0.66818426  0.66784055  1
  Ni  Ni53  1  0.83357972  0.83332189  0.83414923  1
" 