5899,Ni82Fe18_2,-231.448924575845, 180.428266412055,Ni82Fe18,"# generated using pymatgen
 data_Fe22Ni5
_symmetry_space_group_name_H-M   'P 1'
_cell_length_a   7.39755624
_cell_length_b   7.39755624
_cell_length_c   10.46172436
_cell_angle_alpha   90.00000000
_cell_angle_beta   90.00000000
_cell_angle_gamma   90.00000000
_symmetry_Int_Tables_number   1
_chemical_formula_structural   Fe22Ni5
_chemical_formula_sum   'Fe44 Ni10'
_cell_volume   572.50571227
_cell_formula_units_Z   2
loop_
 _symmetry_equiv_pos_site_id
 _symmetry_equiv_pos_as_xyz
  1  'x, y, z'
loop_
 _atom_site_type_symbol
 _atom_site_label
 _atom_site_symmetry_multiplicity
 _atom_site_fract_x
 _atom_site_fract_y
 _atom_site_fract_z
 _atom_site_occupancy
  Fe  Fe0  1  1.00425100  0.00506383  0.00500442  1
  Fe  Fe1  1  0.17136558  0.17083125  0.17144393  1
  Fe  Fe2  1  0.00557943  1.00373722  0.33811073  1
  Ni  Ni3  1  1.00329447  0.33907212  1.00442158  1
  Fe  Fe4  1  0.17105858  0.50545664  0.17113924  1
  Fe  Fe5  1  0.00571968  0.33794854  0.33760000  1
  Ni  Ni6  1  1.00454758  0.67101373  0.00507549  1
  Ni  Ni7  1  0.17136190  0.83792905  0.17137077  1
  Fe  Fe8  1  0.00565759  0.67240555  0.33759993  1
  Fe  Fe9  1  0.33751850  0.00475669  0.00469761  1
  Fe  Fe10  1  0.50426547  0.17085264  0.17144212  1
  Ni  Ni11  1  0.33820923  1.00356627  0.33847729  1
  Fe  Fe12  1  0.33751743  0.33862162  1.00410339  1
  Fe  Fe13  1  0.50426744  0.50512541  0.17152692  1
  Fe  Fe14  1  0.33811025  0.33811248  0.33870770  1
  Fe  Fe15  1  0.33757916  0.67071263  0.00529076  1
  Fe  Fe16  1  0.50362912  0.83811225  0.17138183  1
  Ni  Ni17  1  0.33782818  0.67287860  0.33869197  1
  Fe  Fe18  1  0.67232117  0.00500002  1.00438998  1
  Fe  Fe19  1  0.83845891  0.17146805  0.17083133  1
  Fe  Fe20  1  0.67070892  1.00396101  0.33833625  1
  Ni  Ni21  1  0.67226859  0.33781798  1.00421225  1
  Fe  Fe22  1  0.83876295  0.50481939  0.17052480  1
  Fe  Fe23  1  0.67026057  0.33803016  0.33743362  1
  Fe  Fe24  1  0.67217940  0.67054648  1.00430834  1
  Fe  Fe25  1  0.83878746  0.83780345  0.17173142  1
  Fe  Fe26  1  0.67054511  0.67209976  0.33850049  1
  Fe  Fe27  1  0.17145054  0.17070647  0.50508446  1
  Fe  Fe28  1  0.00535371  0.00506100  0.67097482  1
  Fe  Fe29  1  0.17217966  0.17107799  0.83756161  1
  Fe  Fe30  1  0.17114096  0.50512606  0.50478061  1
  Fe  Fe31  1  0.00582155  0.33743888  0.67179624  1
  Fe  Fe32  1  0.17156691  0.50498293  0.83817422  1
  Fe  Fe33  1  0.17142594  0.83825794  0.50380130  1
  Fe  Fe34  1  0.00541284  0.67159135  0.67156842  1
  Fe  Fe35  1  0.17189789  0.83803133  0.83862605  1
  Fe  Fe36  1  0.50461255  0.17070697  0.50492007  1
  Ni  Ni37  1  0.33841273  0.00487542  0.67091544  1
  Fe  Fe38  1  0.50446938  0.17105340  0.83772563  1
  Fe  Fe39  1  0.50491876  0.50512466  0.50461574  1
  Ni  Ni40  1  0.33841143  0.33698930  0.67118664  1
  Fe  Fe41  1  0.50477690  0.50469527  0.83794846  1
  Fe  Fe42  1  0.50463321  0.83825790  0.50498591  1
  Fe  Fe43  1  0.33833574  0.67142544  0.67115920  1
  Ni  Ni44  1  0.50460356  0.83803066  0.83802510  1
  Fe  Fe45  1  0.83802973  0.17099774  0.50461245  1
  Fe  Fe46  1  0.67048516  1.00467392  0.67136358  1
  Fe  Fe47  1  0.83744071  0.17138418  0.83864346  1
  Fe  Fe48  1  0.83803170  0.50514664  0.50469700  1
  Fe  Fe49  1  0.67032379  0.33752067  0.67179371  1
  Fe  Fe50  1  0.83774596  0.50498538  0.83886688  1
  Ni  Ni51  1  0.83802744  0.83813216  0.50459191  1
  Fe  Fe52  1  0.67034289  0.67189542  0.67128106  1
  Fe  Fe53  1  0.83772804  0.83772145  0.83757919  1
" 