3558,Ni82Fe13Cr3_15,-239.837118898473, 193.166785447376,Ni82Fe13Cr3,"# generated using pymatgen
 data_Cr3Fe7Ni44
_symmetry_space_group_name_H-M   'P 1'
_cell_length_a   7.44006071
_cell_length_b   7.44006071
_cell_length_c   10.52183476
_cell_angle_alpha   90.00000000
_cell_angle_beta   90.00000000
_cell_angle_gamma   90.00000000
_symmetry_Int_Tables_number   1
_chemical_formula_structural   Cr3Fe7Ni44
_chemical_formula_sum   'Cr3 Fe7 Ni44'
_cell_volume   582.43093802
_cell_formula_units_Z   1
loop_
 _symmetry_equiv_pos_site_id
 _symmetry_equiv_pos_as_xyz
  1  'x, y, z'
loop_
 _atom_site_type_symbol
 _atom_site_label
 _atom_site_symmetry_multiplicity
 _atom_site_fract_x
 _atom_site_fract_y
 _atom_site_fract_z
 _atom_site_occupancy
  Ni  Ni0  1  1.00140573  1.00134310  1.00112604  1
  Ni  Ni1  1  0.16844996  0.16714862  0.16916098  1
  Ni  Ni2  1  0.00205005  0.00243792  0.33504519  1
  Cr  Cr3  1  1.00034660  0.33436060  0.00231774  1
  Ni  Ni4  1  0.16868174  0.50310115  0.17050156  1
  Ni  Ni5  1  0.00181803  0.33505188  0.33534874  1
  Ni  Ni6  1  1.00159866  0.67047670  0.00265853  1
  Ni  Ni7  1  0.17058663  0.83509770  0.16824644  1
  Ni  Ni8  1  0.00192402  0.66799268  0.33445196  1
  Fe  Fe9  1  0.33569584  1.00036796  0.00225319  1
  Fe  Fe10  1  0.50215443  0.16831689  0.16914721  1
  Ni  Ni11  1  0.33535694  1.00168714  0.33481198  1
  Fe  Fe12  1  0.33657878  0.33506665  0.00252063  1
  Fe  Fe13  1  0.50124306  0.50205025  0.16884198  1
  Ni  Ni14  1  0.33472566  0.33514099  0.33450302  1
  Ni  Ni15  1  0.33649810  0.66908154  0.00201275  1
  Ni  Ni16  1  0.50140942  0.83481039  0.16919702  1
  Ni  Ni17  1  0.33548478  0.66854086  0.33625140  1
  Ni  Ni18  1  0.66859383  0.00213638  0.00181541  1
  Ni  Ni19  1  0.83426448  0.16894757  0.16994742  1
  Ni  Ni20  1  0.66816784  1.00173312  0.33542374  1
  Ni  Ni21  1  0.66723478  0.33475878  1.00104316  1
  Ni  Ni22  1  0.83381003  0.50155982  0.16896289  1
  Ni  Ni23  1  0.66879218  0.33526898  0.33552979  1
  Ni  Ni24  1  0.66735640  0.66858933  0.00200793  1
  Fe  Fe25  1  0.83638560  0.83580873  0.16840032  1
  Ni  Ni26  1  0.66811167  0.66846957  0.33424887  1
  Ni  Ni27  1  0.16762869  0.16870396  0.50041588  1
  Ni  Ni28  1  0.99987594  0.00220755  0.66922932  1
  Ni  Ni29  1  0.16851225  0.16656786  0.83584761  1
  Fe  Fe30  1  0.16828228  0.50171103  0.50146446  1
  Ni  Ni31  1  1.00160506  0.33379160  0.66757031  1
  Cr  Cr32  1  0.16874496  0.50361393  0.83341572  1
  Ni  Ni33  1  0.16771517  0.83488893  0.50075608  1
  Ni  Ni34  1  1.00012678  0.66942770  0.66831686  1
  Ni  Ni35  1  0.16803391  0.83583794  0.83649279  1
  Ni  Ni36  1  0.50244468  0.16965724  0.49979500  1
  Cr  Cr37  1  0.33643428  1.00144658  0.66865009  1
  Ni  Ni38  1  0.50313290  0.16913806  0.83677780  1
  Ni  Ni39  1  0.50268019  0.50201944  0.50115126  1
  Ni  Ni40  1  0.33589337  0.33543944  0.66844284  1
  Ni  Ni41  1  0.50372050  0.50214124  0.83593517  1
  Ni  Ni42  1  0.50264106  0.83382415  0.50085231  1
  Ni  Ni43  1  0.33710066  0.66722162  0.66733239  1
  Ni  Ni44  1  0.50272644  0.83405717  0.83546072  1
  Ni  Ni45  1  0.83542832  0.16895926  0.50167848  1
  Ni  Ni46  1  0.66992322  1.00109428  0.66829916  1
  Ni  Ni47  1  0.83397826  0.16780931  0.83354387  1
  Ni  Ni48  1  0.83425436  0.50181738  0.50168307  1
  Fe  Fe49  1  0.66816711  0.33538740  0.66818374  1
  Ni  Ni50  1  0.83220142  0.50262948  0.83452104  1
  Ni  Ni51  1  0.83514620  0.83472041  0.50047856  1
  Ni  Ni52  1  0.66806450  0.66940592  0.66938745  1
  Ni  Ni53  1  0.83474776  0.83507135  0.83647765  1
" 