3484,Ni82Fe9Cr8_14,-237.616662789909, 183.278119659694,Ni82Fe9Cr8,"# generated using pymatgen
 data_Cr5Fe5Ni44
_symmetry_space_group_name_H-M   'P 1'
_cell_length_a   7.44631791
_cell_length_b   7.44631791
_cell_length_c   10.53068377
_cell_angle_alpha   90.00000000
_cell_angle_beta   90.00000000
_cell_angle_gamma   90.00000000
_symmetry_Int_Tables_number   1
_chemical_formula_structural   Cr5Fe5Ni44
_chemical_formula_sum   'Cr5 Fe5 Ni44'
_cell_volume   583.90167167
_cell_formula_units_Z   1
loop_
 _symmetry_equiv_pos_site_id
 _symmetry_equiv_pos_as_xyz
  1  'x, y, z'
loop_
 _atom_site_type_symbol
 _atom_site_label
 _atom_site_symmetry_multiplicity
 _atom_site_fract_x
 _atom_site_fract_y
 _atom_site_fract_z
 _atom_site_occupancy
  Ni  Ni0  1  0.99986012  1.00127322  0.00291057  1
  Fe  Fe1  1  0.16745086  0.16871200  0.16914295  1
  Fe  Fe2  1  0.00178809  0.00161790  0.33484307  1
  Ni  Ni3  1  1.00083427  0.33551497  0.00244439  1
  Ni  Ni4  1  0.16814777  0.50235623  0.16709197  1
  Ni  Ni5  1  0.00180957  0.33508227  0.33436261  1
  Ni  Ni6  1  0.00150301  0.66738580  1.00107995  1
  Ni  Ni7  1  0.16682771  0.83229852  0.16889248  1
  Ni  Ni8  1  1.00128698  0.66678944  0.33427527  1
  Cr  Cr9  1  0.33514874  1.00089178  0.00220032  1
  Ni  Ni10  1  0.50357829  0.16959341  0.16907115  1
  Ni  Ni11  1  0.33522732  0.00204762  0.33518341  1
  Ni  Ni12  1  0.33469811  0.33592342  0.00281451  1
  Ni  Ni13  1  0.49987675  0.50034375  0.16946614  1
  Ni  Ni14  1  0.33372320  0.33381773  0.33390782  1
  Ni  Ni15  1  0.33378889  0.66679671  0.00148690  1
  Ni  Ni16  1  0.50094126  0.83453310  0.17050727  1
  Ni  Ni17  1  0.33411321  0.66830497  0.33378593  1
  Fe  Fe18  1  0.66903839  0.00233399  0.00218316  1
  Ni  Ni19  1  0.83421923  0.16812755  0.16771227  1
  Ni  Ni20  1  0.66733286  0.00152187  0.33368032  1
  Fe  Fe21  1  0.66848476  0.33503971  0.00189391  1
  Ni  Ni22  1  0.83601500  0.50046025  0.16986191  1
  Ni  Ni23  1  0.66877392  0.33436807  0.33461268  1
  Cr  Cr24  1  0.66833480  0.66825610  0.00194241  1
  Ni  Ni25  1  0.83636275  0.83587185  0.16913940  1
  Ni  Ni26  1  0.66876518  0.66831132  0.33483137  1
  Ni  Ni27  1  0.16757787  0.16875452  0.50059660  1
  Ni  Ni28  1  0.00184560  1.00111099  0.66669462  1
  Cr  Cr29  1  0.16670112  0.16938920  0.83275872  1
  Ni  Ni30  1  0.16899508  0.50189364  0.50189712  1
  Ni  Ni31  1  1.00066663  0.33556273  0.66699528  1
  Ni  Ni32  1  0.16834177  0.50296835  0.83523725  1
  Ni  Ni33  1  0.16762801  0.83343126  0.50203543  1
  Ni  Ni34  1  0.00232533  0.66763315  0.66900775  1
  Ni  Ni35  1  0.16660117  0.83228131  0.83358310  1
  Ni  Ni36  1  0.50166315  0.16975538  0.50098212  1
  Ni  Ni37  1  0.33401646  1.00113967  0.66668470  1
  Ni  Ni38  1  0.50320031  0.17074435  0.83472411  1
  Ni  Ni39  1  0.49911925  0.50001686  0.49958213  1
  Ni  Ni40  1  0.33505634  0.33505236  0.66708528  1
  Ni  Ni41  1  0.49927198  0.49936437  0.83494236  1
  Ni  Ni42  1  0.49978162  0.83421404  0.49891453  1
  Ni  Ni43  1  0.33370835  0.66797481  0.66901894  1
  Ni  Ni44  1  0.49951182  0.83425169  0.83466938  1
  Ni  Ni45  1  0.83489279  0.16837188  0.50098181  1
  Cr  Cr46  1  0.66747222  0.00172488  0.66931531  1
  Ni  Ni47  1  0.83410352  0.16884599  0.83611069  1
  Fe  Fe48  1  0.83581981  0.50053238  0.50004504  1
  Ni  Ni49  1  0.66853028  0.33473126  0.66848934  1
  Ni  Ni50  1  0.83663266  0.49939281  0.83402805  1
  Ni  Ni51  1  0.83690594  0.83601083  0.49883558  1
  Cr  Cr52  1  0.66876066  0.66640497  0.66640635  1
  Ni  Ni53  1  0.83810416  0.83603770  0.83621917  1
" 