4721,Ni82Fe3Cr13_8,-233.442272380476, 164.243303819373,Ni82Fe3Cr13,"# generated using pymatgen
 data_Cr9FeNi44
_symmetry_space_group_name_H-M   'P 1'
_cell_length_a   7.47030197
_cell_length_b   7.47030197
_cell_length_c   10.56460237
_cell_angle_alpha   90.00000000
_cell_angle_beta   90.00000000
_cell_angle_gamma   90.00000000
_symmetry_Int_Tables_number   1
_chemical_formula_structural   Cr9FeNi44
_chemical_formula_sum   'Cr9 Fe1 Ni44'
_cell_volume   589.56198322
_cell_formula_units_Z   1
loop_
 _symmetry_equiv_pos_site_id
 _symmetry_equiv_pos_as_xyz
  1  'x, y, z'
loop_
 _atom_site_type_symbol
 _atom_site_label
 _atom_site_symmetry_multiplicity
 _atom_site_fract_x
 _atom_site_fract_y
 _atom_site_fract_z
 _atom_site_occupancy
  Cr  Cr0  1  0.99879756  0.99921412  0.00100095  1
  Ni  Ni1  1  0.16659460  0.16786001  0.16656733  1
  Cr  Cr2  1  0.99954261  0.99942661  0.33255774  1
  Ni  Ni3  1  -0.00005768  0.33459942  -0.00015874  1
  Ni  Ni4  1  0.16759938  0.49976232  0.16648905  1
  Ni  Ni5  1  0.00100310  0.33352570  0.33355945  1
  Ni  Ni6  1  0.00060935  0.66551401  0.99895695  1
  Ni  Ni7  1  0.16806235  0.83172454  0.16682039  1
  Ni  Ni8  1  0.00227289  0.66595481  0.33392736  1
  Ni  Ni9  1  0.33482523  0.99840507  0.99962049  1
  Cr  Cr10  1  0.49962223  0.16605808  0.16626362  1
  Ni  Ni11  1  0.33287695  0.00012203  0.33310053  1
  Ni  Ni12  1  0.33247785  0.33423620  0.00102005  1
  Ni  Ni13  1  0.49750934  0.50061796  0.16617827  1
  Ni  Ni14  1  0.33251246  0.33405923  0.33368249  1
  Ni  Ni15  1  0.33263851  0.66670512  0.00083023  1
  Ni  Ni16  1  0.49903001  0.83285152  0.16547614  1
  Ni  Ni17  1  0.33098463  0.66516443  0.33207290  1
  Ni  Ni18  1  0.66573418  0.99907299  0.99918110  1
  Ni  Ni19  1  0.83310990  0.16634010  0.16687757  1
  Ni  Ni20  1  0.66661990  0.00139329  0.33262480  1
  Ni  Ni21  1  0.66692536  0.33241261  0.99884983  1
  Cr  Cr22  1  0.83407486  0.49916766  0.16528159  1
  Ni  Ni23  1  0.66583178  0.33163268  0.33493800  1
  Ni  Ni24  1  0.66609816  0.66786084  -0.00012447  1
  Ni  Ni25  1  0.83225415  0.83385572  0.16577545  1
  Cr  Cr26  1  0.66608452  0.66647657  0.33271992  1
  Ni  Ni27  1  0.16715562  0.16668597  0.49942864  1
  Ni  Ni28  1  0.99892916  0.99850487  0.66550187  1
  Cr  Cr29  1  0.16686835  0.16647403  0.83351119  1
  Ni  Ni30  1  0.16495773  0.49994427  0.49873394  1
  Ni  Ni31  1  0.99740683  0.33382423  0.66594598  1
  Ni  Ni32  1  0.16348976  0.50200550  0.83412573  1
  Ni  Ni33  1  0.16541802  0.83271636  0.50071319  1
  Ni  Ni34  1  0.99966591  0.66701794  0.66646175  1
  Ni  Ni35  1  0.16732820  0.83102421  0.83181132  1
  Ni  Ni36  1  0.49999615  0.16738070  0.49908476  1
  Ni  Ni37  1  0.33295333  0.99806312  0.66662537  1
  Ni  Ni38  1  0.50225153  0.16363938  0.83382653  1
  Ni  Ni39  1  0.50037145  0.49743099  0.49926582  1
  Cr  Cr40  1  0.33348912  0.33347261  0.66504521  1
  Cr  Cr41  1  0.50088164  0.50038832  0.83394999  1
  Cr  Cr42  1  0.49904691  0.83434606  0.50055557  1
  Ni  Ni43  1  0.33146395  0.66821220  0.66644404  1
  Ni  Ni44  1  0.49994996  0.83522810  0.83331831  1
  Fe  Fe45  1  0.83255407  0.16767103  0.50055166  1
  Ni  Ni46  1  0.66746468  0.00032116  0.66754006  1
  Ni  Ni47  1  0.83054414  0.16747654  0.83208606  1
  Ni  Ni48  1  0.83401626  0.49916434  0.50090201  1
  Ni  Ni49  1  0.66865939  0.33233479  0.66555920  1
  Ni  Ni50  1  0.83474633  0.49970414  0.83299931  1
  Ni  Ni51  1  0.83471091  0.83233754  0.50115329  1
  Ni  Ni52  1  0.66821485  0.66668892  0.66659091  1
  Ni  Ni53  1  0.83206930  0.83216676  0.83241701  1
" 