5450,Ni82Fe18_17,-231.567386773843, 175.94841476122,Ni82Fe18,"# generated using pymatgen
 data_Fe22Ni5
_symmetry_space_group_name_H-M   'P 1'
_cell_length_a   7.39933928
_cell_length_b   7.39933928
_cell_length_c   10.46424596
_cell_angle_alpha   90.00000000
_cell_angle_beta   90.00000000
_cell_angle_gamma   90.00000000
_symmetry_Int_Tables_number   1
_chemical_formula_structural   Fe22Ni5
_chemical_formula_sum   'Fe44 Ni10'
_cell_volume   572.91978628
_cell_formula_units_Z   2
loop_
 _symmetry_equiv_pos_site_id
 _symmetry_equiv_pos_as_xyz
  1  'x, y, z'
loop_
 _atom_site_type_symbol
 _atom_site_label
 _atom_site_symmetry_multiplicity
 _atom_site_fract_x
 _atom_site_fract_y
 _atom_site_fract_z
 _atom_site_occupancy
  Fe  Fe0  1  1.00431067  1.00421998  1.00421849  1
  Fe  Fe1  1  0.17142913  0.17158279  0.17177114  1
  Fe  Fe2  1  1.00362754  0.00561354  0.33807856  1
  Fe  Fe3  1  1.00431232  0.33808040  0.00481077  1
  Fe  Fe4  1  0.17088468  0.50431119  0.17200505  1
  Ni  Ni5  1  0.00514952  0.33756682  0.33801384  1
  Ni  Ni6  1  1.00435095  0.67166447  1.00392624  1
  Fe  Fe7  1  0.17097757  0.83782974  0.17042058  1
  Fe  Fe8  1  1.00404860  0.66944072  0.33775369  1
  Fe  Fe9  1  0.33722772  1.00379919  0.00466914  1
  Fe  Fe10  1  0.50438949  0.17167843  0.17167542  1
  Fe  Fe11  1  0.33885457  0.00551697  0.33798572  1
  Fe  Fe12  1  0.33758093  0.33885814  0.00481086  1
  Fe  Fe13  1  0.50493189  0.50421681  0.17125893  1
  Ni  Ni14  1  0.33765834  0.33712430  0.33844859  1
  Fe  Fe15  1  0.33755176  0.67107029  1.00412473  1
  Fe  Fe16  1  0.50474580  0.83783095  0.17200589  1
  Fe  Fe17  1  0.33853050  0.66943680  0.33843694  1
  Fe  Fe18  1  0.67218922  1.00424725  1.00421909  1
  Fe  Fe19  1  0.83790734  0.17177239  0.17099289  1
  Fe  Fe20  1  0.67124374  0.00523528  0.33843395  1
  Fe  Fe21  1  0.67183205  0.33840677  1.00435656  1
  Fe  Fe22  1  0.83790906  0.50466875  0.17167875  1
  Ni  Ni23  1  0.67091847  0.33857859  0.33856891  1
  Fe  Fe24  1  0.67140910  0.67107153  0.00490349  1
  Fe  Fe25  1  0.83800268  0.83728702  0.17164873  1
  Ni  Ni26  1  0.67135796  0.67162668  0.33813583  1
  Fe  Fe27  1  0.17133500  0.17101587  0.50404704  1
  Fe  Fe28  1  1.00395345  0.00466846  0.67142935  1
  Fe  Fe29  1  0.17140082  0.17174094  0.83790827  1
  Ni  Ni30  1  0.17168261  0.50352515  0.50390886  1
  Fe  Fe31  1  0.00466498  0.33772091  0.67074313  1
  Fe  Fe32  1  0.17091108  0.50424642  0.83757914  1
  Fe  Fe33  1  0.17124064  0.83746964  0.50485277  1
  Fe  Fe34  1  0.00476042  0.67133411  0.67139435  1
  Fe  Fe35  1  0.17097948  0.83773931  0.83845058  1
  Fe  Fe36  1  0.50438843  0.17105779  0.50404976  1
  Fe  Fe37  1  0.33817328  1.00421752  0.67107016  1
  Fe  Fe38  1  0.50510586  0.17186654  0.83800399  1
  Fe  Fe39  1  0.50490231  0.50552241  0.50446791  1
  Fe  Fe40  1  0.33781759  0.33853024  0.67083606  1
  Ni  Ni41  1  0.50356535  0.50505035  0.83812150  1
  Ni  Ni42  1  0.50580680  0.83792872  0.50403260  1
  Fe  Fe43  1  0.33817218  0.67097795  0.67116230  1
  Fe  Fe44  1  0.50507422  0.83806576  0.83731653  1
  Fe  Fe45  1  0.83800254  0.17115591  0.50482658  1
  Fe  Fe46  1  0.67160087  1.00431602  0.67107310  1
  Ni  Ni47  1  0.83859134  0.17055112  0.83855728  1
  Fe  Fe48  1  0.83767922  0.50561942  0.50368942  1
  Fe  Fe49  1  0.67124349  0.33772293  0.67174253  1
  Fe  Fe50  1  0.83754534  0.50421422  0.83835758  1
  Ni  Ni51  1  0.83667349  0.83880496  0.50403306  1
  Fe  Fe52  1  0.67079147  0.67168908  0.67038761  1
  Fe  Fe53  1  0.83767210  0.83757844  0.83767172  1
" 