2733,Ni82Fe3Cr13_16,-233.473328721397, 162.304307929406,Ni82Fe3Cr13,"# generated using pymatgen
 data_Cr9FeNi44
_symmetry_space_group_name_H-M   'P 1'
_cell_length_a   7.46965835
_cell_length_b   7.46965835
_cell_length_c   10.56369215
_cell_angle_alpha   90.00000000
_cell_angle_beta   90.00000000
_cell_angle_gamma   90.00000000
_symmetry_Int_Tables_number   1
_chemical_formula_structural   Cr9FeNi44
_chemical_formula_sum   'Cr9 Fe1 Ni44'
_cell_volume   589.40961073
_cell_formula_units_Z   1
loop_
 _symmetry_equiv_pos_site_id
 _symmetry_equiv_pos_as_xyz
  1  'x, y, z'
loop_
 _atom_site_type_symbol
 _atom_site_label
 _atom_site_symmetry_multiplicity
 _atom_site_fract_x
 _atom_site_fract_y
 _atom_site_fract_z
 _atom_site_occupancy
  Ni  Ni0  1  0.00268339  0.99852456  0.00122535  1
  Ni  Ni1  1  0.16523219  0.16563042  0.16444973  1
  Cr  Cr2  1  0.00000364  0.99964860  0.33246977  1
  Ni  Ni3  1  0.00162342  0.33269870  0.00017304  1
  Cr  Cr4  1  0.16632386  0.49980383  0.16704079  1
  Ni  Ni5  1  0.99871361  0.33355932  0.33367568  1
  Ni  Ni6  1  0.99903404  0.66825179  0.99878786  1
  Ni  Ni7  1  0.16558529  0.83424183  0.16515289  1
  Ni  Ni8  1  0.99888597  0.66602859  0.33385188  1
  Ni  Ni9  1  0.32818775  0.00063701  0.99910655  1
  Cr  Cr10  1  0.49856298  0.16737780  0.16811866  1
  Ni  Ni11  1  0.33309302  -0.00011251  0.33450086  1
  Ni  Ni12  1  0.33170950  0.33304840  0.99805732  1
  Ni  Ni13  1  0.50083747  0.50060690  0.16655839  1
  Ni  Ni14  1  0.33376218  0.33317493  0.33432095  1
  Ni  Ni15  1  0.33219090  0.66579113  0.99925877  1
  Cr  Cr16  1  0.49886186  0.83120194  0.16731556  1
  Ni  Ni17  1  0.33358940  0.66641370  0.33449573  1
  Cr  Cr18  1  0.66858306  0.99832283  0.00001824  1
  Ni  Ni19  1  0.83567743  0.16725109  0.16740831  1
  Ni  Ni20  1  0.66661685  0.00005926  0.33493596  1
  Cr  Cr21  1  0.66569928  0.33688261  0.00024516  1
  Ni  Ni22  1  0.83265772  0.50025413  0.16679448  1
  Ni  Ni23  1  0.66700058  0.33405590  0.33346564  1
  Ni  Ni24  1  0.66825269  0.66473312  0.00005708  1
  Ni  Ni25  1  0.83467266  0.83197013  0.16557010  1
  Ni  Ni26  1  0.66700062  0.66536024  0.33309030  1
  Ni  Ni27  1  0.16824935  0.16824262  0.50004063  1
  Cr  Cr28  1  0.00043619  0.99843131  0.66574230  1
  Fe  Fe29  1  0.16884980  0.16775319  0.83424639  1
  Ni  Ni30  1  0.16614056  0.49983947  0.49994895  1
  Ni  Ni31  1  0.00024245  0.33554722  0.66562535  1
  Ni  Ni32  1  0.16637668  0.50023851  0.83314609  1
  Ni  Ni33  1  0.16860023  0.83139409  0.49957441  1
  Ni  Ni34  1  0.99945596  0.66520895  0.66683816  1
  Ni  Ni35  1  0.16598667  0.83161560  0.83474916  1
  Ni  Ni36  1  0.50001577  0.16560805  0.50012499  1
  Ni  Ni37  1  0.33426558  0.00083326  0.66586664  1
  Ni  Ni38  1  0.49700045  0.16784066  0.83143906  1
  Ni  Ni39  1  0.49943348  0.49978271  0.49963075  1
  Ni  Ni40  1  0.33387587  0.33304433  0.66709664  1
  Ni  Ni41  1  0.49841592  0.49857427  0.83328656  1
  Ni  Ni42  1  0.49960874  0.83408507  0.49980665  1
  Ni  Ni43  1  0.33255079  0.66559932  0.66572305  1
  Cr  Cr44  1  0.49915806  0.83323912  0.83240425  1
  Ni  Ni45  1  0.83121144  0.16806648  0.49937643  1
  Ni  Ni46  1  0.66496882  0.00004591  0.66470165  1
  Cr  Cr47  1  0.83309597  0.16729313  0.83220048  1
  Ni  Ni48  1  0.83390145  0.49943253  0.49998232  1
  Ni  Ni49  1  0.66535790  0.33383250  0.66593313  1
  Ni  Ni50  1  0.83468333  0.50182118  0.83269964  1
  Ni  Ni51  1  0.83126664  0.83197637  0.50015633  1
  Ni  Ni52  1  0.66746988  0.66559711  0.66632801  1
  Ni  Ni53  1  0.83490381  0.83020393  0.83375007  1
" 