4314,Ni82Fe2Cr14_18,-233.61729856888, 163.432451386705,Ni82Fe2Cr14,"# generated using pymatgen
 data_Cr9FeNi44
_symmetry_space_group_name_H-M   'P 1'
_cell_length_a   7.46786553
_cell_length_b   7.46786553
_cell_length_c   10.56115671
_cell_angle_alpha   90.00000000
_cell_angle_beta   90.00000000
_cell_angle_gamma   90.00000000
_symmetry_Int_Tables_number   1
_chemical_formula_structural   Cr9FeNi44
_chemical_formula_sum   'Cr9 Fe1 Ni44'
_cell_volume   588.98531325
_cell_formula_units_Z   1
loop_
 _symmetry_equiv_pos_site_id
 _symmetry_equiv_pos_as_xyz
  1  'x, y, z'
loop_
 _atom_site_type_symbol
 _atom_site_label
 _atom_site_symmetry_multiplicity
 _atom_site_fract_x
 _atom_site_fract_y
 _atom_site_fract_z
 _atom_site_occupancy
  Fe  Fe0  1  0.00165860  0.00013569  0.99988734  1
  Ni  Ni1  1  0.16945592  0.16753593  0.16606971  1
  Cr  Cr2  1  0.00217106  0.99784235  0.33253961  1
  Ni  Ni3  1  0.00124363  0.33341900  0.99913898  1
  Ni  Ni4  1  0.16949498  0.49943123  0.16767296  1
  Ni  Ni5  1  0.00442589  0.33561480  0.33414530  1
  Cr  Cr6  1  0.00276032  0.66618941  0.99986931  1
  Ni  Ni7  1  0.16922466  0.83311301  0.16634274  1
  Ni  Ni8  1  0.00269713  0.66627739  0.33442154  1
  Ni  Ni9  1  0.33498394  0.99932637  0.00070060  1
  Ni  Ni10  1  0.49717948  0.16561458  0.16620946  1
  Ni  Ni11  1  0.33462849  -0.00001593  0.33347295  1
  Ni  Ni12  1  0.33387303  0.33332358  0.00104311  1
  Ni  Ni13  1  0.49594314  0.50028968  0.16449618  1
  Ni  Ni14  1  0.33157344  0.33285554  0.33292960  1
  Ni  Ni15  1  0.33433532  0.66717091  0.99975515  1
  Ni  Ni16  1  0.49855767  0.83381356  0.16589657  1
  Ni  Ni17  1  0.33147893  0.66701264  0.33266573  1
  Ni  Ni18  1  0.66364186  0.00015320  0.00046434  1
  Cr  Cr19  1  0.83286504  0.16608962  0.16438684  1
  Ni  Ni20  1  0.66289024  0.99830514  0.33321489  1
  Ni  Ni21  1  0.66472941  0.33265104  0.99778877  1
  Cr  Cr22  1  0.83356422  0.50041984  0.16669572  1
  Cr  Cr23  1  0.66246527  0.33238904  0.33470578  1
  Ni  Ni24  1  0.66401819  0.66701590  0.00003237  1
  Ni  Ni25  1  0.83215249  0.83408554  0.16619601  1
  Cr  Cr26  1  0.66569131  0.66873814  0.33391342  1
  Ni  Ni27  1  0.16925632  0.16744663  0.50044643  1
  Ni  Ni28  1  0.00115878  0.99898495  0.66686509  1
  Cr  Cr29  1  0.16770276  0.16636928  0.83272945  1
  Ni  Ni30  1  0.16746545  0.50020485  0.49956765  1
  Ni  Ni31  1  0.00028516  0.33509492  0.66667454  1
  Ni  Ni32  1  0.16811778  0.50036727  0.83247300  1
  Ni  Ni33  1  0.16809208  0.83230619  0.50120036  1
  Ni  Ni34  1  0.00106177  0.66582746  0.66528983  1
  Ni  Ni35  1  0.16991356  0.83218730  0.83211279  1
  Ni  Ni36  1  0.49698236  0.16564738  0.50067492  1
  Ni  Ni37  1  0.33423265  0.99921520  0.66562905  1
  Ni  Ni38  1  0.50103938  0.16636981  0.83306360  1
  Ni  Ni39  1  0.49743409  0.50050353  0.50155864  1
  Ni  Ni40  1  0.33427692  0.33384277  0.66570978  1
  Ni  Ni41  1  0.49937395  0.50035623  0.83386394  1
  Ni  Ni42  1  0.49857905  0.83356264  0.50073432  1
  Ni  Ni43  1  0.33304013  0.66672113  0.66740102  1
  Ni  Ni44  1  0.49832748  0.83308443  0.83326722  1
  Cr  Cr45  1  0.83344814  0.16668846  0.50198515  1
  Ni  Ni46  1  0.66448904  0.00010955  0.66615373  1
  Ni  Ni47  1  0.83174017  0.16817650  0.83351683  1
  Ni  Ni48  1  0.83493719  0.50171085  0.50187180  1
  Ni  Ni49  1  0.66543911  0.33387712  0.66803760  1
  Ni  Ni50  1  0.83239224  0.49800696  0.83211554  1
  Ni  Ni51  1  0.83310483  0.83179495  0.50104094  1
  Ni  Ni52  1  0.66567783  0.66570804  0.66609017  1
  Cr  Cr53  1  0.83177094  0.83408121  0.83231449  1
" 