5615,Ni82Fe8Cr9_10,-236.669187065806, 177.594470574911,Ni82Fe8Cr9,"# generated using pymatgen
 data_Cr3(FeNi11)2
_symmetry_space_group_name_H-M   'P 1'
_cell_length_a   7.45442100
_cell_length_b   7.45442100
_cell_length_c   10.54214327
_cell_angle_alpha   90.00000000
_cell_angle_beta   90.00000000
_cell_angle_gamma   90.00000000
_symmetry_Int_Tables_number   1
_chemical_formula_structural   Cr3(FeNi11)2
_chemical_formula_sum   'Cr6 Fe4 Ni44'
_cell_volume   585.80995377
_cell_formula_units_Z   2
loop_
 _symmetry_equiv_pos_site_id
 _symmetry_equiv_pos_as_xyz
  1  'x, y, z'
loop_
 _atom_site_type_symbol
 _atom_site_label
 _atom_site_symmetry_multiplicity
 _atom_site_fract_x
 _atom_site_fract_y
 _atom_site_fract_z
 _atom_site_occupancy
  Cr  Cr0  1  1.00072900  0.00162465  0.00280858  1
  Ni  Ni1  1  0.16839484  0.16806411  0.16794161  1
  Ni  Ni2  1  1.00032827  0.00147467  0.33397833  1
  Ni  Ni3  1  1.00012469  0.33654313  0.00101759  1
  Ni  Ni4  1  0.16734275  0.50107383  0.16688785  1
  Ni  Ni5  1  0.00146741  0.33336805  0.33396793  1
  Ni  Ni6  1  0.99966933  0.66469702  0.00123527  1
  Ni  Ni7  1  0.16819455  0.83340273  0.16842717  1
  Ni  Ni8  1  0.00201596  0.66769646  0.33445823  1
  Ni  Ni9  1  0.33506866  0.99993334  0.00349623  1
  Ni  Ni10  1  0.50006538  0.16817901  0.16831758  1
  Ni  Ni11  1  0.33424353  0.00121581  0.33387819  1
  Ni  Ni12  1  0.33395339  0.33622197  0.00187039  1
  Ni  Ni13  1  0.50000460  0.49984532  0.16590817  1
  Ni  Ni14  1  0.33337670  0.33390223  0.33449679  1
  Ni  Ni15  1  0.33577622  0.66638527  0.00147194  1
  Ni  Ni16  1  0.49903675  0.83451520  0.16689426  1
  Ni  Ni17  1  0.33308745  0.66742198  0.33423933  1
  Cr  Cr18  1  0.66715199  0.99937003  1.00083409  1
  Ni  Ni19  1  0.83408033  0.16903219  0.16877968  1
  Ni  Ni20  1  0.66796940  0.00176364  0.33472616  1
  Ni  Ni21  1  0.66846249  0.33725151  0.00195783  1
  Ni  Ni22  1  0.83519313  0.50004599  0.16634339  1
  Fe  Fe23  1  0.66722179  0.33194206  0.33388639  1
  Ni  Ni24  1  0.66709470  0.66580769  1.00022591  1
  Ni  Ni25  1  0.83530949  0.83346198  0.16794614  1
  Cr  Cr26  1  0.66693518  0.66821493  0.33351434  1
  Ni  Ni27  1  0.16733365  0.16771737  0.50119072  1
  Ni  Ni28  1  0.99928757  0.00193475  0.66592223  1
  Cr  Cr29  1  0.16703775  0.16995349  0.83379862  1
  Ni  Ni30  1  0.16833712  0.50096718  0.50109202  1
  Ni  Ni31  1  0.99980634  0.33329684  0.66755539  1
  Ni  Ni32  1  0.16725609  0.50088488  0.83456145  1
  Ni  Ni33  1  0.16721253  0.83385458  0.50063192  1
  Fe  Fe34  1  1.00070134  0.66643292  0.66692629  1
  Cr  Cr35  1  0.16843832  0.83195818  0.83375919  1
  Ni  Ni36  1  0.50104322  0.16791749  0.50077139  1
  Ni  Ni37  1  0.33419262  0.99970277  0.66516844  1
  Cr  Cr38  1  0.50132682  0.16848065  0.83353666  1
  Ni  Ni39  1  0.49908990  0.49981935  0.50211103  1
  Ni  Ni40  1  0.33395346  0.33580577  0.66617601  1
  Ni  Ni41  1  0.50132256  0.50263773  0.83452140  1
  Ni  Ni42  1  0.50001801  0.83480378  0.50216155  1
  Ni  Ni43  1  0.33664434  0.66703116  0.66683048  1
  Ni  Ni44  1  0.50207821  0.83131695  0.83348211  1
  Ni  Ni45  1  0.83416275  0.16679190  0.50112998  1
  Fe  Fe46  1  0.66806327  1.00039789  0.66628653  1
  Ni  Ni47  1  0.83411066  0.16943547  0.83262938  1
  Fe  Fe48  1  0.83505259  0.49992808  0.50181322  1
  Ni  Ni49  1  0.66878141  0.33574889  0.66661408  1
  Ni  Ni50  1  0.83396333  0.50087929  0.83435738  1
  Ni  Ni51  1  0.83531126  0.83580660  0.50189337  1
  Ni  Ni52  1  0.66655202  0.66754973  0.66860448  1
  Ni  Ni53  1  0.83235864  0.83222527  0.83269908  1
" 