4275,Ni82Fe8Cr9_17,-236.76535035599, 179.485178110324,Ni82Fe8Cr9,"# generated using pymatgen
 data_Cr3(FeNi11)2
_symmetry_space_group_name_H-M   'P 1'
_cell_length_a   7.45007845
_cell_length_b   7.45007845
_cell_length_c   10.53600199
_cell_angle_alpha   90.00000000
_cell_angle_beta   90.00000000
_cell_angle_gamma   90.00000000
_symmetry_Int_Tables_number   1
_chemical_formula_structural   Cr3(FeNi11)2
_chemical_formula_sum   'Cr6 Fe4 Ni44'
_cell_volume   584.78676595
_cell_formula_units_Z   2
loop_
 _symmetry_equiv_pos_site_id
 _symmetry_equiv_pos_as_xyz
  1  'x, y, z'
loop_
 _atom_site_type_symbol
 _atom_site_label
 _atom_site_symmetry_multiplicity
 _atom_site_fract_x
 _atom_site_fract_y
 _atom_site_fract_z
 _atom_site_occupancy
  Ni  Ni0  1  0.00237245  1.00112229  0.00116360  1
  Ni  Ni1  1  0.16612447  0.16697812  0.16604688  1
  Ni  Ni2  1  0.00237742  0.00165454  0.33470700  1
  Ni  Ni3  1  0.00203553  0.33538752  0.00137036  1
  Ni  Ni4  1  0.16754423  0.50182678  0.16718316  1
  Ni  Ni5  1  0.00234223  0.33424614  0.33333814  1
  Ni  Ni6  1  0.00156056  0.66687983  1.00079045  1
  Ni  Ni7  1  0.17027806  0.83458545  0.16827361  1
  Ni  Ni8  1  0.00215521  0.66753477  0.33434891  1
  Ni  Ni9  1  0.33351279  1.00050296  0.00221970  1
  Fe  Fe10  1  0.50091646  0.16673288  0.16699238  1
  Ni  Ni11  1  0.33448308  1.00057407  0.33474811  1
  Ni  Ni12  1  0.33354838  0.33558421  0.00159752  1
  Ni  Ni13  1  0.50142843  0.50285451  0.16669784  1
  Cr  Cr14  1  0.33374794  0.33443181  0.33458730  1
  Ni  Ni15  1  0.33451994  0.66726875  0.00136034  1
  Ni  Ni16  1  0.49916560  0.83388344  0.16737673  1
  Ni  Ni17  1  0.33498505  0.66846091  0.33476208  1
  Ni  Ni18  1  0.66749479  1.00005782  0.00174091  1
  Ni  Ni19  1  0.83500312  0.16927536  0.16810784  1
  Ni  Ni20  1  0.66651321  1.00028496  0.33482156  1
  Ni  Ni21  1  0.66780888  0.33633144  0.00375822  1
  Ni  Ni22  1  0.83453779  0.49884967  0.16759605  1
  Fe  Fe23  1  0.66744901  0.33487730  0.33317704  1
  Ni  Ni24  1  0.66737014  0.66686195  0.99930323  1
  Cr  Cr25  1  0.83505654  0.83434834  0.16769990  1
  Ni  Ni26  1  0.66640273  0.66848919  0.33494821  1
  Ni  Ni27  1  0.16865351  0.16687213  0.50303294  1
  Ni  Ni28  1  0.00269358  0.99852367  0.66763227  1
  Fe  Fe29  1  0.16839615  0.16742572  0.83472580  1
  Ni  Ni30  1  0.16897401  0.50229771  0.50159371  1
  Fe  Fe31  1  0.00331139  0.33587661  0.66841990  1
  Ni  Ni32  1  0.16831153  0.50209679  0.83451689  1
  Ni  Ni33  1  0.16840665  0.83438339  0.50006463  1
  Ni  Ni34  1  0.00159091  0.66944013  0.66828719  1
  Ni  Ni35  1  0.16845683  0.83368979  0.83512089  1
  Ni  Ni36  1  0.50036764  0.16672604  0.50131792  1
  Ni  Ni37  1  0.33344226  1.00098819  0.66654430  1
  Cr  Cr38  1  0.50021146  0.16760618  0.83505591  1
  Ni  Ni39  1  0.49996340  0.50222147  0.50245180  1
  Ni  Ni40  1  0.33421518  0.33522592  0.66705274  1
  Ni  Ni41  1  0.50043680  0.50214783  0.83432694  1
  Ni  Ni42  1  0.50037835  0.83450553  0.50155856  1
  Ni  Ni43  1  0.33418673  0.66721001  0.66726621  1
  Ni  Ni44  1  0.49994622  0.83326438  0.83443940  1
  Cr  Cr45  1  0.83450054  0.16653374  0.50108666  1
  Ni  Ni46  1  0.66739708  0.99870142  0.66677967  1
  Cr  Cr47  1  0.83496553  0.16790734  0.83415968  1
  Cr  Cr48  1  0.83493458  0.50284862  0.50063675  1
  Ni  Ni49  1  0.66495981  0.33633917  0.66687259  1
  Ni  Ni50  1  0.83470572  0.50186461  0.83500626  1
  Ni  Ni51  1  0.83462763  0.83487689  0.50151940  1
  Ni  Ni52  1  0.66772014  0.66838574  0.66906117  1
  Ni  Ni53  1  0.83501069  0.83365427  0.83425105  1
" 