5693,Ni82Fe2Cr14_11,-233.586901135499, 164.203630651999,Ni82Fe2Cr14,"# generated using pymatgen
 data_Cr9FeNi44
_symmetry_space_group_name_H-M   'P 1'
_cell_length_a   7.46586651
_cell_length_b   7.46586651
_cell_length_c   10.55832968
_cell_angle_alpha   90.00000000
_cell_angle_beta   90.00000000
_cell_angle_gamma   90.00000000
_symmetry_Int_Tables_number   1
_chemical_formula_structural   Cr9FeNi44
_chemical_formula_sum   'Cr9 Fe1 Ni44'
_cell_volume   588.51245644
_cell_formula_units_Z   1
loop_
 _symmetry_equiv_pos_site_id
 _symmetry_equiv_pos_as_xyz
  1  'x, y, z'
loop_
 _atom_site_type_symbol
 _atom_site_label
 _atom_site_symmetry_multiplicity
 _atom_site_fract_x
 _atom_site_fract_y
 _atom_site_fract_z
 _atom_site_occupancy
  Ni  Ni0  1  0.99953343  0.00114845  0.00121208  1
  Ni  Ni1  1  0.16492689  0.16835754  0.16658322  1
  Ni  Ni2  1  0.00043246  0.00032315  0.33347979  1
  Ni  Ni3  1  0.00120103  0.33294483  0.99917447  1
  Ni  Ni4  1  0.16686474  0.49996148  0.16709007  1
  Ni  Ni5  1  0.00207158  0.33213191  0.33324810  1
  Ni  Ni6  1  0.00208048  0.66624040  0.00030631  1
  Ni  Ni7  1  0.16472157  0.83199576  0.16644523  1
  Ni  Ni8  1  0.00353026  0.66783279  0.33325642  1
  Cr  Cr9  1  0.33281856  0.00058643  0.99928158  1
  Ni  Ni10  1  0.50079268  0.16807739  0.16570794  1
  Cr  Cr11  1  0.33229453  0.99987931  0.33342272  1
  Ni  Ni12  1  0.33207209  0.33434435  0.99963684  1
  Cr  Cr13  1  0.49712172  0.49873572  0.16707459  1
  Ni  Ni14  1  0.33173852  0.33387690  0.33411943  1
  Ni  Ni15  1  0.33215159  0.66584779  0.99965866  1
  Ni  Ni16  1  0.49993428  0.83286124  0.16433221  1
  Ni  Ni17  1  0.33047057  0.66602705  0.33411619  1
  Ni  Ni18  1  0.66730835  0.00097855  0.00159151  1
  Ni  Ni19  1  0.83451921  0.16577443  0.16612784  1
  Cr  Cr20  1  0.66793416  0.00098150  0.33305013  1
  Ni  Ni21  1  0.66703137  0.33177000  0.99828461  1
  Cr  Cr22  1  0.83522162  0.49909899  0.16541707  1
  Ni  Ni23  1  0.66632132  0.33088990  0.33468419  1
  Ni  Ni24  1  0.66610348  0.66735974  0.99893718  1
  Ni  Ni25  1  0.83562223  0.83512778  0.16537456  1
  Cr  Cr26  1  0.66616947  0.66816529  0.33506182  1
  Ni  Ni27  1  0.16593479  0.16745725  0.50127976  1
  Ni  Ni28  1  0.00244325  0.00121370  0.66554296  1
  Ni  Ni29  1  0.16559637  0.16777053  0.83234096  1
  Ni  Ni30  1  0.16859315  0.49996744  0.49937748  1
  Ni  Ni31  1  0.00123112  0.33302083  0.66777904  1
  Ni  Ni32  1  0.16793362  0.49998476  0.83379379  1
  Ni  Ni33  1  0.16573267  0.83281248  0.50135803  1
  Ni  Ni34  1  0.00218802  0.66604317  0.66649919  1
  Ni  Ni35  1  0.16698159  0.83240819  0.83234853  1
  Ni  Ni36  1  0.49886460  0.16973887  0.50089877  1
  Ni  Ni37  1  0.33176997  0.00022824  0.66718407  1
  Ni  Ni38  1  0.50014791  0.16899864  0.83354337  1
  Ni  Ni39  1  0.49743576  0.49887842  0.50079902  1
  Ni  Ni40  1  0.33284879  0.33370700  0.66665929  1
  Ni  Ni41  1  0.49921537  0.49980450  0.83320213  1
  Ni  Ni42  1  0.49786572  0.83145125  0.50229707  1
  Ni  Ni43  1  0.33298155  0.66627663  0.66659567  1
  Ni  Ni44  1  0.49891397  0.83134433  0.83355487  1
  Ni  Ni45  1  0.83545509  0.16676112  0.49976139  1
  Cr  Cr46  1  0.66549345  0.00111156  0.66508375  1
  Ni  Ni47  1  0.83440551  0.16828038  0.83429169  1
  Cr  Cr48  1  0.83446463  0.49905682  0.50147522  1
  Ni  Ni49  1  0.66621622  0.33418536  0.66739253  1
  Fe  Fe50  1  0.83375075  0.49901163  0.83330361  1
  Ni  Ni51  1  0.83659046  0.83421710  0.50056254  1
  Ni  Ni52  1  0.66520142  0.66511131  0.66672008  1
  Cr  Cr53  1  0.83502745  0.83411123  0.83395183  1
" 