3182,Ni82Fe13Cr3_5,-239.649837103396, 193.779508899838,Ni82Fe13Cr3,"# generated using pymatgen
 data_Cr3Fe7Ni44
_symmetry_space_group_name_H-M   'P 1'
_cell_length_a   7.43518261
_cell_length_b   7.43518261
_cell_length_c   10.51493608
_cell_angle_alpha   90.00000000
_cell_angle_beta   90.00000000
_cell_angle_gamma   90.00000000
_symmetry_Int_Tables_number   1
_chemical_formula_structural   Cr3Fe7Ni44
_chemical_formula_sum   'Cr3 Fe7 Ni44'
_cell_volume   581.28606986
_cell_formula_units_Z   1
loop_
 _symmetry_equiv_pos_site_id
 _symmetry_equiv_pos_as_xyz
  1  'x, y, z'
loop_
 _atom_site_type_symbol
 _atom_site_label
 _atom_site_symmetry_multiplicity
 _atom_site_fract_x
 _atom_site_fract_y
 _atom_site_fract_z
 _atom_site_occupancy
  Ni  Ni0  1  0.00250180  0.00258545  0.00268423  1
  Fe  Fe1  1  0.16699783  0.16886254  0.16833314  1
  Ni  Ni2  1  1.00155175  0.00274803  0.33511650  1
  Ni  Ni3  1  1.00196925  0.33459187  1.00213227  1
  Ni  Ni4  1  0.16890950  0.50330577  0.16893049  1
  Ni  Ni5  1  0.00259192  0.33475932  0.33506661  1
  Ni  Ni6  1  0.00319111  0.66925192  0.00235635  1
  Ni  Ni7  1  0.16891442  0.83436397  0.16854243  1
  Ni  Ni8  1  0.00304918  0.66892031  0.33511589  1
  Ni  Ni9  1  0.33412704  1.00142105  1.00112610  1
  Cr  Cr10  1  0.50295998  0.16898509  0.16847379  1
  Ni  Ni11  1  0.33517604  1.00164117  0.33672122  1
  Ni  Ni12  1  0.33493799  0.33603279  1.00134379  1
  Ni  Ni13  1  0.49967757  0.50169910  0.16899614  1
  Ni  Ni14  1  0.33441278  0.33614506  0.33590372  1
  Ni  Ni15  1  0.33488124  0.66897523  0.00294591  1
  Ni  Ni16  1  0.49939503  0.83569286  0.16936292  1
  Ni  Ni17  1  0.33506289  0.66864289  0.33457944  1
  Fe  Fe18  1  0.66995044  0.00285486  1.00158418  1
  Ni  Ni19  1  0.83651242  0.16904104  0.16904102  1
  Ni  Ni20  1  0.66970040  1.00209825  0.33557502  1
  Ni  Ni21  1  0.66952126  0.33534346  1.00182252  1
  Ni  Ni22  1  0.83784153  0.49975722  0.16872035  1
  Fe  Fe23  1  0.66974912  0.33450805  0.33634248  1
  Cr  Cr24  1  0.66866703  0.66850408  0.00221821  1
  Ni  Ni25  1  0.83811873  0.83763039  0.16908711  1
  Cr  Cr26  1  0.66843374  0.66970715  0.33540430  1
  Fe  Fe27  1  0.16867959  0.16860919  0.50229656  1
  Ni  Ni28  1  1.00107290  0.00214474  0.66862789  1
  Ni  Ni29  1  0.16832490  0.16890034  0.83583422  1
  Fe  Fe30  1  0.16886077  0.50262239  0.50201880  1
  Ni  Ni31  1  1.00211863  0.33493415  0.66922983  1
  Ni  Ni32  1  0.16926109  0.50200539  0.83539247  1
  Ni  Ni33  1  0.16899471  0.83535172  0.50200458  1
  Ni  Ni34  1  1.00146502  0.66934998  0.66895613  1
  Ni  Ni35  1  0.16920898  0.83552236  0.83588164  1
  Ni  Ni36  1  0.50266454  0.16925368  0.50250015  1
  Fe  Fe37  1  0.33546230  1.00164050  0.66881136  1
  Fe  Fe38  1  0.50211207  0.16931751  0.83525199  1
  Ni  Ni39  1  0.50122119  0.50049465  0.50249564  1
  Ni  Ni40  1  0.33585302  0.33608297  0.66918135  1
  Ni  Ni41  1  0.50088319  0.50121943  0.83493602  1
  Ni  Ni42  1  0.50022740  0.83667939  0.50240356  1
  Ni  Ni43  1  0.33655874  0.66825087  0.66890267  1
  Ni  Ni44  1  0.50060391  0.83598043  0.83466282  1
  Ni  Ni45  1  0.83483124  0.16920265  0.50166147  1
  Ni  Ni46  1  0.66955289  1.00143808  0.66924795  1
  Ni  Ni47  1  0.83582738  0.16917864  0.83572559  1
  Ni  Ni48  1  0.83616032  0.50042909  0.50303935  1
  Ni  Ni49  1  0.66845649  0.33569210  0.66831376  1
  Ni  Ni50  1  0.83628526  0.50033468  0.83466875  1
  Ni  Ni51  1  0.83720533  0.83679527  0.50294071  1
  Ni  Ni52  1  0.66840486  0.66929812  0.66880181  1
  Ni  Ni53  1  0.83661536  0.83691680  0.83440084  1
" 