4659,Ni82Fe18_5,-231.492450052039, 177.434116507554,Ni82Fe18,"# generated using pymatgen
 data_Fe22Ni5
_symmetry_space_group_name_H-M   'P 1'
_cell_length_a   7.39810281
_cell_length_b   7.39810281
_cell_length_c   10.46249733
_cell_angle_alpha   90.00000000
_cell_angle_beta   90.00000000
_cell_angle_gamma   90.00000000
_symmetry_Int_Tables_number   1
_chemical_formula_structural   Fe22Ni5
_chemical_formula_sum   'Fe44 Ni10'
_cell_volume   572.63262098
_cell_formula_units_Z   2
loop_
 _symmetry_equiv_pos_site_id
 _symmetry_equiv_pos_as_xyz
  1  'x, y, z'
loop_
 _atom_site_type_symbol
 _atom_site_label
 _atom_site_symmetry_multiplicity
 _atom_site_fract_x
 _atom_site_fract_y
 _atom_site_fract_z
 _atom_site_occupancy
  Fe  Fe0  1  0.00532515  0.00514118  1.00465694  1
  Fe  Fe1  1  0.17199850  0.17149403  0.17070490  1
  Fe  Fe2  1  0.00523369  1.00330498  0.33772069  1
  Fe  Fe3  1  0.00516883  0.33790352  1.00399214  1
  Fe  Fe4  1  0.17196996  0.50433441  0.17215286  1
  Fe  Fe5  1  0.00539739  0.33941874  0.33882477  1
  Fe  Fe6  1  0.00514385  0.67093401  0.00533011  1
  Fe  Fe7  1  0.17180898  0.83814914  0.17183326  1
  Ni  Ni8  1  0.00562332  0.67099295  0.33832607  1
  Fe  Fe9  1  0.33806317  0.00551378  0.00500352  1
  Ni  Ni10  1  0.50474897  0.17134921  0.17044413  1
  Fe  Fe11  1  0.33784173  1.00400442  0.33781028  1
  Ni  Ni12  1  0.33809533  0.33810165  0.00466000  1
  Fe  Fe13  1  0.50424131  0.50414983  0.17104933  1
  Fe  Fe14  1  0.33802073  0.33906695  0.33783423  1
  Fe  Fe15  1  0.33824535  0.67056172  0.00479867  1
  Fe  Fe16  1  0.50449903  0.83843063  0.17148757  1
  Ni  Ni17  1  0.33735599  0.67099575  0.33746892  1
  Fe  Fe18  1  0.67059111  0.00548670  1.00442735  1
  Fe  Fe19  1  0.83748522  0.17123694  0.17123802  1
  Fe  Fe20  1  0.67090555  1.00402466  0.33847868  1
  Fe  Fe21  1  0.67021781  0.33808489  0.00484370  1
  Fe  Fe22  1  0.83776744  0.50433888  0.17149050  1
  Fe  Fe23  1  0.67056101  0.33888080  0.33805927  1
  Fe  Fe24  1  0.67059089  0.67040687  1.00422351  1
  Fe  Fe25  1  0.83767128  0.83840239  0.17148832  1
  Fe  Fe26  1  0.67125719  0.67107077  0.33806226  1
  Fe  Fe27  1  0.17206608  0.17275956  0.50509668  1
  Fe  Fe28  1  1.00405909  0.00516678  0.67160139  1
  Fe  Fe29  1  0.17172018  0.17240979  0.83817785  1
  Ni  Ni30  1  0.17130901  0.50564863  0.50496604  1
  Ni  Ni31  1  0.00512266  0.33856722  0.67142083  1
  Fe  Fe32  1  0.17174665  0.50415461  0.83750953  1
  Fe  Fe33  1  0.17256718  0.83688982  0.50396783  1
  Fe  Fe34  1  1.00424731  0.67132838  0.67058697  1
  Fe  Fe35  1  0.17190249  0.83741631  0.83817626  1
  Ni  Ni36  1  0.50521836  0.17172862  0.50544717  1
  Fe  Fe37  1  0.33808522  0.00548697  0.67116508  1
  Fe  Fe38  1  0.50465819  0.17165046  0.83817754  1
  Ni  Ni39  1  0.50380191  0.50381012  0.50398885  1
  Fe  Fe40  1  0.33857029  0.33784006  0.67148413  1
  Ni  Ni41  1  0.50455026  0.50420733  0.83832927  1
  Fe  Fe42  1  0.50408459  0.83750801  0.50475252  1
  Fe  Fe43  1  0.33824995  0.67065318  0.67058966  1
  Fe  Fe44  1  0.50500130  0.83764537  0.83773747  1
  Fe  Fe45  1  0.83748665  0.17247295  0.50535162  1
  Ni  Ni46  1  0.67076107  1.00452465  0.67154278  1
  Fe  Fe47  1  0.83759942  0.17180970  0.83739157  1
  Fe  Fe48  1  0.83810996  0.50399552  0.50456624  1
  Fe  Fe49  1  0.67116255  0.33764979  0.67107389  1
  Fe  Fe50  1  0.83783186  0.50449724  0.83792377  1
  Fe  Fe51  1  0.83732555  0.83751005  0.50465994  1
  Fe  Fe52  1  0.67148007  0.67083674  0.67169157  1
  Fe  Fe53  1  0.83707320  0.83767220  0.83783341  1
" 