616,Ni82Fe3Cr13_13,-233.094369391158, 157.352574216205,Ni82Fe3Cr13,"# generated using pymatgen
 data_Cr9FeNi44
_symmetry_space_group_name_H-M   'P 1'
_cell_length_a   7.47377983
_cell_length_b   7.47377983
_cell_length_c   10.56952080
_cell_angle_alpha   90.00000000
_cell_angle_beta   90.00000000
_cell_angle_gamma   90.00000000
_symmetry_Int_Tables_number   1
_chemical_formula_structural   Cr9FeNi44
_chemical_formula_sum   'Cr9 Fe1 Ni44'
_cell_volume   590.38579297
_cell_formula_units_Z   1
loop_
 _symmetry_equiv_pos_site_id
 _symmetry_equiv_pos_as_xyz
  1  'x, y, z'
loop_
 _atom_site_type_symbol
 _atom_site_label
 _atom_site_symmetry_multiplicity
 _atom_site_fract_x
 _atom_site_fract_y
 _atom_site_fract_z
 _atom_site_occupancy
  Ni  Ni0  1  0.99867079  0.99914371  0.99857222  1
  Ni  Ni1  1  0.16459258  0.16647458  0.16796115  1
  Ni  Ni2  1  0.00066330  0.00217511  0.33374409  1
  Fe  Fe3  1  0.99916287  0.33321653  -0.00038922  1
  Ni  Ni4  1  0.16669546  0.49929042  0.16585790  1
  Ni  Ni5  1  0.99943932  0.33076725  0.33208251  1
  Ni  Ni6  1  0.00046341  0.66654848  0.99800000  1
  Ni  Ni7  1  0.16821700  0.83288426  0.16599213  1
  Cr  Cr8  1  0.00041418  0.66563935  0.33452093  1
  Cr  Cr9  1  0.33282334  0.99827925  0.99889797  1
  Ni  Ni10  1  0.50023138  0.16552231  0.16868303  1
  Ni  Ni11  1  0.33286508  -0.00026860  0.33283717  1
  Cr  Cr12  1  0.33241669  0.33434497  0.99927144  1
  Ni  Ni13  1  0.49917969  0.50129446  0.16786429  1
  Ni  Ni14  1  0.33326560  0.33238840  0.33315556  1
  Ni  Ni15  1  0.33205774  0.66649454  -0.00020445  1
  Ni  Ni16  1  0.49860860  0.83183206  0.16679465  1
  Ni  Ni17  1  0.33448542  0.66652903  0.33212073  1
  Ni  Ni18  1  0.66775147  0.99880085  0.99839980  1
  Ni  Ni19  1  0.83382556  0.16704520  0.16690779  1
  Ni  Ni20  1  0.66512070  0.00095514  0.33334428  1
  Cr  Cr21  1  0.66706263  0.33263455  -0.00009787  1
  Ni  Ni22  1  0.83277345  0.49766882  0.16609120  1
  Ni  Ni23  1  0.66594368  0.33238818  0.33292037  1
  Ni  Ni24  1  0.66612746  0.66706065  0.99837166  1
  Cr  Cr25  1  0.83164822  0.83392203  0.16514680  1
  Ni  Ni26  1  0.66349891  0.66530502  0.33371722  1
  Ni  Ni27  1  0.16615170  0.16756469  0.49808192  1
  Cr  Cr28  1  -0.00020427  0.99875116  0.66567043  1
  Ni  Ni29  1  0.16485537  0.16768500  0.83260446  1
  Ni  Ni30  1  0.16615349  0.49797211  0.49995572  1
  Ni  Ni31  1  0.99947335  0.33495192  0.66697072  1
  Ni  Ni32  1  0.16486191  0.49948903  0.83283580  1
  Ni  Ni33  1  0.16598232  0.83311220  0.49790613  1
  Ni  Ni34  1  0.99785186  0.66412792  0.66653284  1
  Ni  Ni35  1  0.16458530  0.83147584  0.83474833  1
  Ni  Ni36  1  0.49937836  0.16756142  0.49831691  1
  Cr  Cr37  1  0.33273150  0.00121056  0.66661726  1
  Ni  Ni38  1  0.50020059  0.16673455  0.83164978  1
  Ni  Ni39  1  0.50042822  0.49902758  0.49890417  1
  Ni  Ni40  1  0.33306664  0.33299281  0.66647725  1
  Ni  Ni41  1  0.50019630  0.50044192  0.83188114  1
  Ni  Ni42  1  0.50060437  0.83205994  0.49685477  1
  Cr  Cr43  1  0.33232997  0.66500250  0.66641716  1
  Ni  Ni44  1  0.50142407  0.83147267  0.83499795  1
  Ni  Ni45  1  0.83311873  0.16739066  0.49767648  1
  Cr  Cr46  1  0.66612181  -0.00009826  0.66682029  1
  Ni  Ni47  1  0.83359300  0.16645953  0.83406436  1
  Ni  Ni48  1  0.83206644  0.49919584  0.50083610  1
  Ni  Ni49  1  0.66610880  0.33478147  0.66630517  1
  Ni  Ni50  1  0.83358985  0.50071117  0.83172333  1
  Ni  Ni51  1  0.83206214  0.83206146  0.49933471  1
  Ni  Ni52  1  0.66830236  0.66372822  0.66656022  1
  Ni  Ni53  1  0.83264027  0.83147853  0.83437224  1
" 