6950,Ni82Fe3Cr13_6,-233.377512387259, 160.243239320255,Ni82Fe3Cr13,"# generated using pymatgen
 data_Cr9FeNi44
_symmetry_space_group_name_H-M   'P 1'
_cell_length_a   7.46801008
_cell_length_b   7.46801008
_cell_length_c   10.56136115
_cell_angle_alpha   90.00000000
_cell_angle_beta   90.00000000
_cell_angle_gamma   90.00000000
_symmetry_Int_Tables_number   1
_chemical_formula_structural   Cr9FeNi44
_chemical_formula_sum   'Cr9 Fe1 Ni44'
_cell_volume   589.01951673
_cell_formula_units_Z   1
loop_
 _symmetry_equiv_pos_site_id
 _symmetry_equiv_pos_as_xyz
  1  'x, y, z'
loop_
 _atom_site_type_symbol
 _atom_site_label
 _atom_site_symmetry_multiplicity
 _atom_site_fract_x
 _atom_site_fract_y
 _atom_site_fract_z
 _atom_site_occupancy
  Cr  Cr0  1  0.00123322  0.00247522  0.00054336  1
  Ni  Ni1  1  0.16836808  0.16836278  0.16592620  1
  Cr  Cr2  1  0.99920510  0.99909019  0.33235901  1
  Ni  Ni3  1  0.99992899  0.33260376  0.99959030  1
  Ni  Ni4  1  0.16680922  0.49902946  0.16737124  1
  Ni  Ni5  1  0.99910583  0.33561112  0.33208742  1
  Cr  Cr6  1  0.00223231  0.66474965  0.00129737  1
  Ni  Ni7  1  0.16892102  0.83240891  0.16721202  1
  Ni  Ni8  1  0.00176196  0.66518850  0.33342448  1
  Ni  Ni9  1  0.33382806  0.99909020  0.00063745  1
  Ni  Ni10  1  0.50016578  0.16611844  0.16698045  1
  Ni  Ni11  1  0.33541913  0.99908059  0.33228892  1
  Ni  Ni12  1  0.33251366  0.33399803  0.00088087  1
  Ni  Ni13  1  0.49835225  0.49790514  0.16587797  1
  Ni  Ni14  1  0.33412615  0.33419870  0.33229362  1
  Ni  Ni15  1  0.33376356  0.66672642  0.99965640  1
  Ni  Ni16  1  0.49853152  0.83577865  0.16568920  1
  Ni  Ni17  1  0.33134767  0.66652171  0.33301571  1
  Ni  Ni18  1  0.66492991  0.00160461  0.00205437  1
  Ni  Ni19  1  0.83126657  0.16820428  0.16560654  1
  Ni  Ni20  1  0.66524041  0.00173504  0.33321411  1
  Ni  Ni21  1  0.66736533  0.33255764  0.00089775  1
  Ni  Ni22  1  0.83463296  0.49739375  0.16727613  1
  Ni  Ni23  1  0.66657351  0.33153980  0.33321647  1
  Cr  Cr24  1  0.66342495  0.66523597  0.00088762  1
  Ni  Ni25  1  0.83236162  0.83422074  0.16768306  1
  Cr  Cr26  1  0.66628976  0.66613826  0.33299782  1
  Cr  Cr27  1  0.16911642  0.16871279  0.49971620  1
  Cr  Cr28  1  0.00062037  0.00028677  0.66688273  1
  Ni  Ni29  1  0.16721583  0.16857291  0.83366235  1
  Ni  Ni30  1  0.16591087  0.50178172  0.50004118  1
  Ni  Ni31  1  0.99887478  0.33573059  0.66809773  1
  Ni  Ni32  1  0.16655459  0.49857926  0.83239561  1
  Ni  Ni33  1  0.16800414  0.82968825  0.50023060  1
  Ni  Ni34  1  0.00064572  0.66435017  0.66529384  1
  Ni  Ni35  1  0.17048151  0.83267499  0.83237705  1
  Ni  Ni36  1  0.50202828  0.16611561  0.49956904  1
  Ni  Ni37  1  0.33472638  0.99785048  0.66686647  1
  Cr  Cr38  1  0.49930967  0.16613039  0.83325257  1
  Ni  Ni39  1  0.49944026  0.49878850  0.50134142  1
  Ni  Ni40  1  0.33339183  0.33523162  0.66661667  1
  Ni  Ni41  1  0.49935064  0.50040317  0.83258897  1
  Ni  Ni42  1  0.49963491  0.83489016  0.50153775  1
  Ni  Ni43  1  0.33358385  0.66672056  0.66712909  1
  Ni  Ni44  1  0.49763457  0.83310703  0.83259350  1
  Ni  Ni45  1  0.82925094  0.16820233  0.50070467  1
  Ni  Ni46  1  0.66511406  0.99959074  0.66454015  1
  Fe  Fe47  1  0.83316513  0.17025782  0.83330180  1
  Ni  Ni48  1  0.83443878  0.49940612  0.50106882  1
  Ni  Ni49  1  0.66752734  0.33460094  0.66568216  1
  Ni  Ni50  1  0.83390968  0.49708401  0.83148167  1
  Ni  Ni51  1  0.83218057  0.83222163  0.50068680  1
  Ni  Ni52  1  0.66558206  0.66563558  0.66618751  1
  Cr  Cr53  1  0.83112853  0.83233856  0.83170804  1
" 