3983,Ni82Fe2Cr14_2,-233.6095350516, 162.821364962977,Ni82Fe2Cr14,"# generated using pymatgen
 data_Cr9FeNi44
_symmetry_space_group_name_H-M   'P 1'
_cell_length_a   7.46652658
_cell_length_b   7.46652658
_cell_length_c   10.55926316
_cell_angle_alpha   90.00000000
_cell_angle_beta   90.00000000
_cell_angle_gamma   90.00000000
_symmetry_Int_Tables_number   1
_chemical_formula_structural   Cr9FeNi44
_chemical_formula_sum   'Cr9 Fe1 Ni44'
_cell_volume   588.66856437
_cell_formula_units_Z   1
loop_
 _symmetry_equiv_pos_site_id
 _symmetry_equiv_pos_as_xyz
  1  'x, y, z'
loop_
 _atom_site_type_symbol
 _atom_site_label
 _atom_site_symmetry_multiplicity
 _atom_site_fract_x
 _atom_site_fract_y
 _atom_site_fract_z
 _atom_site_occupancy
  Ni  Ni0  1  0.99930182  0.99744561  0.99881845  1
  Cr  Cr1  1  0.16755842  0.16481139  0.16733230  1
  Ni  Ni2  1  0.99930008  0.99886647  0.33435241  1
  Cr  Cr3  1  0.99842476  0.33364260  0.99967309  1
  Ni  Ni4  1  0.16459788  0.50059192  0.16877350  1
  Ni  Ni5  1  0.99894591  0.33439237  0.33493175  1
  Ni  Ni6  1  0.99764389  0.66896319  0.00118352  1
  Ni  Ni7  1  0.16466393  0.83391687  0.16732559  1
  Ni  Ni8  1  0.00020965  0.66674855  0.33268922  1
  Ni  Ni9  1  0.33448827  0.00050091  0.99915559  1
  Ni  Ni10  1  0.50094325  0.16495353  0.16649528  1
  Ni  Ni11  1  0.33434816  0.99890787  0.33398140  1
  Ni  Ni12  1  0.33477105  0.32988544  0.99983603  1
  Cr  Cr13  1  0.50120196  0.49868332  0.16730595  1
  Ni  Ni14  1  0.33256504  0.33216200  0.33411437  1
  Cr  Cr15  1  0.33165934  0.67046010  0.00164448  1
  Ni  Ni16  1  0.50183433  0.83600335  0.16765665  1
  Ni  Ni17  1  0.33152203  0.66901053  0.33339635  1
  Ni  Ni18  1  0.66629151  0.00016063  0.00013605  1
  Fe  Fe19  1  0.83225672  0.16490696  0.16762365  1
  Ni  Ni20  1  0.66626609  0.00017363  0.33346129  1
  Ni  Ni21  1  0.66713754  0.33121981  0.00030803  1
  Ni  Ni22  1  0.83360758  0.50188139  0.16724373  1
  Ni  Ni23  1  0.66851282  0.33133126  0.33280155  1
  Ni  Ni24  1  0.66967280  0.66861521  0.99941928  1
  Ni  Ni25  1  0.83342071  0.83307377  0.16649449  1
  Ni  Ni26  1  0.66841238  0.66856360  0.33372991  1
  Ni  Ni27  1  0.16628508  0.16615958  0.50070591  1
  Ni  Ni28  1  0.99983884  0.00156719  0.66693768  1
  Ni  Ni29  1  0.16707763  0.16371241  0.83219974  1
  Ni  Ni30  1  0.16594569  0.49890002  0.49864280  1
  Ni  Ni31  1  0.00039689  0.33102466  0.66564216  1
  Cr  Cr32  1  0.16672298  0.49883355  0.83265673  1
  Ni  Ni33  1  0.16672043  0.83508519  0.49886470  1
  Cr  Cr34  1  0.99919898  0.66761965  0.66615646  1
  Ni  Ni35  1  0.16593851  0.83740486  0.83401032  1
  Ni  Ni36  1  0.49902570  0.16438529  0.49891306  1
  Ni  Ni37  1  0.33370545  0.99971131  0.66693630  1
  Ni  Ni38  1  0.49924026  0.16422115  0.83460494  1
  Cr  Cr39  1  0.49973910  0.50142898  0.49960391  1
  Ni  Ni40  1  0.33138579  0.33030404  0.66604286  1
  Cr  Cr41  1  0.50163713  0.50049950  0.83317121  1
  Ni  Ni42  1  0.50069727  0.83523397  0.50001865  1
  Ni  Ni43  1  0.33344687  0.67013868  0.66549603  1
  Ni  Ni44  1  0.50156826  0.83615123  0.83247332  1
  Ni  Ni45  1  0.83469057  0.16495001  0.49845299  1
  Ni  Ni46  1  0.66648326  0.99893823  0.66652276  1
  Ni  Ni47  1  0.83368915  0.16412874  0.83400228  1
  Ni  Ni48  1  0.83465124  0.50049033  0.49856056  1
  Cr  Cr49  1  0.66951259  0.33034433  0.66651852  1
  Ni  Ni50  1  0.83243099  0.50116854  0.83427956  1
  Ni  Ni51  1  0.83272319  0.83462615  0.49944559  1
  Ni  Ni52  1  0.66696945  0.67019320  0.66695298  1
  Ni  Ni53  1  0.83260490  0.83479107  0.83418817  1
" 