4084,Ni82Fe9Cr8_18,-237.840549756493, 185.551030822722,Ni82Fe9Cr8,"# generated using pymatgen
 data_Cr5Fe5Ni44
_symmetry_space_group_name_H-M   'P 1'
_cell_length_a   7.44941207
_cell_length_b   7.44941207
_cell_length_c   10.53505959
_cell_angle_alpha   90.00000000
_cell_angle_beta   90.00000000
_cell_angle_gamma   90.00000000
_symmetry_Int_Tables_number   1
_chemical_formula_structural   Cr5Fe5Ni44
_chemical_formula_sum   'Cr5 Fe5 Ni44'
_cell_volume   584.62985995
_cell_formula_units_Z   1
loop_
 _symmetry_equiv_pos_site_id
 _symmetry_equiv_pos_as_xyz
  1  'x, y, z'
loop_
 _atom_site_type_symbol
 _atom_site_label
 _atom_site_symmetry_multiplicity
 _atom_site_fract_x
 _atom_site_fract_y
 _atom_site_fract_z
 _atom_site_occupancy
  Cr  Cr0  1  0.00242382  1.00096421  1.00099010  1
  Ni  Ni1  1  0.17053353  0.16941680  0.16885490  1
  Ni  Ni2  1  0.00281887  0.00224307  0.33582375  1
  Cr  Cr3  1  1.00086376  0.33480822  1.00037768  1
  Ni  Ni4  1  0.16776012  0.50136860  0.16862626  1
  Ni  Ni5  1  0.00118757  0.33448876  0.33459408  1
  Ni  Ni6  1  0.00217885  0.66708873  1.00021023  1
  Ni  Ni7  1  0.17066826  0.83274017  0.16920108  1
  Ni  Ni8  1  0.00171743  0.66667335  0.33496882  1
  Ni  Ni9  1  0.33666032  1.00076400  1.00116526  1
  Ni  Ni10  1  0.50130951  0.16774572  0.16732707  1
  Ni  Ni11  1  0.33392330  0.00220640  0.33317393  1
  Ni  Ni12  1  0.33636666  0.33465205  0.00121026  1
  Fe  Fe13  1  0.50097250  0.50128558  0.16710664  1
  Ni  Ni14  1  0.33517232  0.33449439  0.33438620  1
  Ni  Ni15  1  0.33470137  0.66784757  1.00114808  1
  Ni  Ni16  1  0.50001855  0.83562605  0.16714683  1
  Ni  Ni17  1  0.33418185  0.66704590  0.33405420  1
  Ni  Ni18  1  0.66581749  0.00237158  1.00050810  1
  Ni  Ni19  1  0.83204598  0.17040514  0.17079838  1
  Ni  Ni20  1  0.66724871  0.00280552  0.33457568  1
  Ni  Ni21  1  0.66616016  0.33438496  0.00134961  1
  Ni  Ni22  1  0.83472191  0.50023929  0.16716825  1
  Ni  Ni23  1  0.66737918  0.33514281  0.33468299  1
  Ni  Ni24  1  0.66614892  0.66706668  0.99950539  1
  Cr  Cr25  1  0.83296590  0.83310137  0.16906558  1
  Ni  Ni26  1  0.66725415  0.66564433  0.33484662  1
  Ni  Ni27  1  0.16990646  0.16923193  0.50216558  1
  Ni  Ni28  1  0.00157508  0.00225795  0.66743449  1
  Fe  Fe29  1  0.17042078  0.16700401  0.83300225  1
  Ni  Ni30  1  0.16714391  0.49936410  0.50040128  1
  Ni  Ni31  1  0.00135159  0.33293336  0.66849889  1
  Ni  Ni32  1  0.16982090  0.50062505  0.83439827  1
  Ni  Ni33  1  0.16737709  0.83481068  0.49989075  1
  Cr  Cr34  1  0.00137957  0.66843687  0.66834462  1
  Ni  Ni35  1  0.16958653  0.83235244  0.83445190  1
  Ni  Ni36  1  0.50103942  0.16955575  0.50156008  1
  Ni  Ni37  1  0.33402853  0.00179140  0.66934419  1
  Ni  Ni38  1  0.50241330  0.16840661  0.83457323  1
  Fe  Fe39  1  0.50018100  0.50070875  0.50198321  1
  Ni  Ni40  1  0.33492205  0.33440397  0.66793025  1
  Ni  Ni41  1  0.49933375  0.50018772  0.83382197  1
  Cr  Cr42  1  0.50117711  0.83691462  0.50209181  1
  Ni  Ni43  1  0.33506885  0.66708673  0.66811652  1
  Ni  Ni44  1  0.50135383  0.83485495  0.83446982  1
  Fe  Fe45  1  0.83557801  0.16746698  0.50131026  1
  Ni  Ni46  1  0.66848905  0.00194548  0.66863614  1
  Ni  Ni47  1  0.83136457  0.16805807  0.83193336  1
  Ni  Ni48  1  0.83463041  0.50015482  0.50133431  1
  Ni  Ni49  1  0.66726850  0.33448661  0.66728214  1
  Fe  Fe50  1  0.83161825  0.50155962  0.83440398  1
  Ni  Ni51  1  0.83434179  0.83369621  0.50029939  1
  Ni  Ni52  1  0.66658946  0.66713505  0.66889879  1
  Ni  Ni53  1  0.83275831  0.83586807  0.83447565  1
" 