5910,Ni82Fe2Cr14_12,-233.50443182953, 163.48340847642,Ni82Fe2Cr14,"# generated using pymatgen
 data_Cr9FeNi44
_symmetry_space_group_name_H-M   'P 1'
_cell_length_a   7.46691025
_cell_length_b   7.46691025
_cell_length_c   10.55980575
_cell_angle_alpha   90.00000000
_cell_angle_beta   90.00000000
_cell_angle_gamma   90.00000000
_symmetry_Int_Tables_number   1
_chemical_formula_structural   Cr9FeNi44
_chemical_formula_sum   'Cr9 Fe1 Ni44'
_cell_volume   588.75931607
_cell_formula_units_Z   1
loop_
 _symmetry_equiv_pos_site_id
 _symmetry_equiv_pos_as_xyz
  1  'x, y, z'
loop_
 _atom_site_type_symbol
 _atom_site_label
 _atom_site_symmetry_multiplicity
 _atom_site_fract_x
 _atom_site_fract_y
 _atom_site_fract_z
 _atom_site_occupancy
  Ni  Ni0  1  0.99821894  0.99845738  0.99962830  1
  Ni  Ni1  1  0.16675109  0.16600333  0.16787275  1
  Ni  Ni2  1  0.99955231  0.00194563  0.33134123  1
  Cr  Cr3  1  0.99919584  0.33245055  0.00008901  1
  Ni  Ni4  1  0.16523609  0.50009758  0.16580471  1
  Ni  Ni5  1  0.99818181  0.33318109  0.33362751  1
  Ni  Ni6  1  0.99965350  0.66779942  0.99962691  1
  Ni  Ni7  1  0.16419687  0.83381277  0.16655901  1
  Ni  Ni8  1  0.99842339  0.66490633  0.33188937  1
  Cr  Cr9  1  0.33274644  0.00022667  0.00109179  1
  Ni  Ni10  1  0.50100380  0.16718738  0.16647051  1
  Ni  Ni11  1  0.33446473  0.00076409  0.33311962  1
  Ni  Ni12  1  0.33453241  0.33472710  0.99944643  1
  Ni  Ni13  1  0.50240266  0.49909555  0.16445520  1
  Cr  Cr14  1  0.33343788  0.33272510  0.33381790  1
  Ni  Ni15  1  0.33273838  0.66465047  0.00137502  1
  Ni  Ni16  1  0.50238337  0.83384607  0.16741347  1
  Cr  Cr17  1  0.33530452  0.66790523  0.33212492  1
  Ni  Ni18  1  0.66905520  0.00061594  0.00080943  1
  Fe  Fe19  1  0.83241966  0.16631600  0.16727764  1
  Ni  Ni20  1  0.66601452  0.00069261  0.33245602  1
  Ni  Ni21  1  0.66556747  0.33333896  0.99977559  1
  Ni  Ni22  1  0.83235477  0.50161070  0.16797257  1
  Ni  Ni23  1  0.66847646  0.33321411  0.33341638  1
  Ni  Ni24  1  0.66756455  0.66614408  0.00079533  1
  Ni  Ni25  1  0.83349244  0.83263998  0.16626191  1
  Ni  Ni26  1  0.66746306  0.66612305  0.33298753  1
  Ni  Ni27  1  0.16681608  0.16669756  0.50005132  1
  Ni  Ni28  1  0.99945461  0.00079614  0.66901408  1
  Ni  Ni29  1  0.16779671  0.16595056  0.83220944  1
  Ni  Ni30  1  0.16462992  0.49805377  0.49975810  1
  Cr  Cr31  1  0.99879030  0.33328289  0.66616384  1
  Ni  Ni32  1  0.16739448  0.50045255  0.83446746  1
  Cr  Cr33  1  0.16538384  0.83551900  0.49993025  1
  Ni  Ni34  1  0.99832608  0.66623139  0.66865884  1
  Ni  Ni35  1  0.16316875  0.83355274  0.83358401  1
  Ni  Ni36  1  0.50083528  0.16628569  0.50118227  1
  Ni  Ni37  1  0.33364805  0.00283222  0.66587523  1
  Ni  Ni38  1  0.50079292  0.16945826  0.83245033  1
  Ni  Ni39  1  0.50320341  0.49827774  0.50096536  1
  Ni  Ni40  1  0.33466777  0.33188483  0.66714139  1
  Ni  Ni41  1  0.50115263  0.49704655  0.83461345  1
  Ni  Ni42  1  0.50213787  0.83557231  0.49932005  1
  Cr  Cr43  1  0.33370159  0.66506813  0.66612199  1
  Cr  Cr44  1  0.50219567  0.83348629  0.83312796  1
  Ni  Ni45  1  0.83234846  0.16736179  0.49842485  1
  Ni  Ni46  1  0.66702922  0.00177915  0.66671229  1
  Ni  Ni47  1  0.83131153  0.16505943  0.83399991  1
  Ni  Ni48  1  0.83224905  0.49927603  0.49905751  1
  Ni  Ni49  1  0.66571631  0.33305829  0.66672912  1
  Ni  Ni50  1  0.83134964  0.50171518  0.83307143  1
  Cr  Cr51  1  0.83254506  0.83293540  0.50067976  1
  Ni  Ni52  1  0.66804027  0.66519389  0.66634943  1
  Ni  Ni53  1  0.83497896  0.83319173  0.83333091  1
" 