4595,Ni82Fe18_11,-231.958492565563, 176.206498875554,Ni82Fe18,"# generated using pymatgen
 data_Fe22Ni5
_symmetry_space_group_name_H-M   'P 1'
_cell_length_a   7.40491716
_cell_length_b   7.40491716
_cell_length_c   10.47213427
_cell_angle_alpha   90.00000000
_cell_angle_beta   90.00000000
_cell_angle_gamma   90.00000000
_symmetry_Int_Tables_number   1
_chemical_formula_structural   Fe22Ni5
_chemical_formula_sum   'Fe44 Ni10'
_cell_volume   574.21642444
_cell_formula_units_Z   2
loop_
 _symmetry_equiv_pos_site_id
 _symmetry_equiv_pos_as_xyz
  1  'x, y, z'
loop_
 _atom_site_type_symbol
 _atom_site_label
 _atom_site_symmetry_multiplicity
 _atom_site_fract_x
 _atom_site_fract_y
 _atom_site_fract_z
 _atom_site_occupancy
  Fe  Fe0  1  1.00362724  1.00419367  0.00475654  1
  Fe  Fe1  1  0.16967873  0.17000436  0.17110510  1
  Ni  Ni2  1  1.00400727  0.00499671  0.33671399  1
  Fe  Fe3  1  0.00427751  0.33769306  1.00411122  1
  Fe  Fe4  1  0.16978862  0.50411630  0.17007749  1
  Fe  Fe5  1  1.00332739  0.33709162  0.33736419  1
  Fe  Fe6  1  0.00427781  0.67069949  1.00411094  1
  Fe  Fe7  1  0.16967836  0.83846879  0.17102236  1
  Fe  Fe8  1  1.00328946  0.67185132  0.33728143  1
  Fe  Fe9  1  0.33777331  0.00427546  0.00419573  1
  Fe  Fe10  1  0.50505453  0.17032708  0.17053333  1
  Fe  Fe11  1  0.33758123  1.00373924  0.33728230  1
  Fe  Fe12  1  0.33728564  0.33777469  1.00395713  1
  Fe  Fe13  1  0.50558969  0.50443589  0.17172717  1
  Fe  Fe14  1  0.33776824  0.33785472  0.33769017  1
  Fe  Fe15  1  0.33720401  0.67053583  1.00325405  1
  Fe  Fe16  1  0.50537874  0.83781714  0.17085915  1
  Fe  Fe17  1  0.33771119  0.67099162  0.33831174  1
  Fe  Fe18  1  0.67118496  0.00427513  0.00458860  1
  Ni  Ni19  1  0.83752931  0.16931330  0.17063810  1
  Fe  Fe20  1  0.67233286  1.00369877  0.33736357  1
  Fe  Fe21  1  0.67102532  0.33712041  0.00435640  1
  Fe  Fe22  1  0.83720230  0.50443903  0.17085922  1
  Fe  Fe23  1  0.67148082  0.33722689  0.33778129  1
  Fe  Fe24  1  0.67110728  0.67118919  0.00505990  1
  Ni  Ni25  1  0.83752496  0.83897502  0.17065106  1
  Ni  Ni26  1  0.67026206  0.67016857  0.33744677  1
  Fe  Fe27  1  0.16988385  0.17028718  0.50411045  1
  Ni  Ni28  1  1.00387268  0.00500182  0.67157314  1
  Fe  Fe29  1  0.17069983  0.17110537  0.83737045  1
  Fe  Fe30  1  0.17066740  0.50435952  0.50505975  1
  Fe  Fe31  1  0.00480951  0.33758158  0.67110618  1
  Ni  Ni32  1  0.17212076  0.50429732  0.83723133  1
  Fe  Fe33  1  0.17020704  0.83794345  0.50452685  1
  Fe  Fe34  1  0.00485176  0.67135790  0.67119070  1
  Fe  Fe35  1  0.17102586  0.83704076  0.83703711  1
  Fe  Fe36  1  0.50513822  0.17097656  0.50427751  1
  Fe  Fe37  1  0.33712145  1.00370156  0.67110754  1
  Fe  Fe38  1  0.50357860  0.17139731  0.83777500  1
  Ni  Ni39  1  0.50248815  0.50439324  0.50487036  1
  Fe  Fe40  1  0.33698864  0.33803732  0.67094066  1
  Fe  Fe41  1  0.50348128  0.50443813  0.83674473  1
  Fe  Fe42  1  0.50513940  0.83692298  0.50427741  1
  Ni  Ni43  1  0.33842707  0.66995597  0.67096407  1
  Fe  Fe44  1  0.50325694  0.83674715  0.83744938  1
  Ni  Ni45  1  0.83787315  0.16897258  0.50422455  1
  Fe  Fe46  1  0.67129826  1.00374004  0.67063043  1
  Fe  Fe47  1  0.83830671  0.17132195  0.83728572  1
  Fe  Fe48  1  0.83653761  0.50435751  0.50395103  1
  Fe  Fe49  1  0.67078332  0.33736283  0.67045028  1
  Fe  Fe50  1  0.83801913  0.50411612  0.83777474  1
  Ni  Ni51  1  0.83787086  0.83921941  0.50431344  1
  Fe  Fe52  1  0.67083814  0.67148123  0.66983142  1
  Fe  Fe53  1  0.83830719  0.83715155  0.83736851  1
" 