426,Ni82Fe18_14,-231.807903669178, 174.111651586391,Ni82Fe18,"# generated using pymatgen
 data_Fe22Ni5
_symmetry_space_group_name_H-M   'P 1'
_cell_length_a   7.40392479
_cell_length_b   7.40392479
_cell_length_c   10.47073085
_cell_angle_alpha   90.00000000
_cell_angle_beta   90.00000000
_cell_angle_gamma   90.00000000
_symmetry_Int_Tables_number   1
_chemical_formula_structural   Fe22Ni5
_chemical_formula_sum   'Fe44 Ni10'
_cell_volume   573.98559445
_cell_formula_units_Z   2
loop_
 _symmetry_equiv_pos_site_id
 _symmetry_equiv_pos_as_xyz
  1  'x, y, z'
loop_
 _atom_site_type_symbol
 _atom_site_label
 _atom_site_symmetry_multiplicity
 _atom_site_fract_x
 _atom_site_fract_y
 _atom_site_fract_z
 _atom_site_occupancy
  Fe  Fe0  1  1.00363021  1.00295691  0.00434168  1
  Fe  Fe1  1  0.16991002  0.17109864  0.17101290  1
  Fe  Fe2  1  1.00359422  0.00468692  0.33760192  1
  Fe  Fe3  1  1.00354592  0.33778105  0.00497718  1
  Fe  Fe4  1  0.16930149  0.50473021  0.17110035  1
  Ni  Ni5  1  0.00488632  0.33863387  0.33818197  1
  Ni  Ni6  1  1.00354088  0.66956666  1.00417556  1
  Fe  Fe7  1  0.16979812  0.83696068  0.17042393  1
  Fe  Fe8  1  1.00329840  0.67090219  0.33654608  1
  Ni  Ni9  1  0.33890436  0.00482189  1.00405541  1
  Fe  Fe10  1  0.50553522  0.17026521  0.17067903  1
  Fe  Fe11  1  0.33770410  0.00464743  0.33745830  1
  Fe  Fe12  1  0.33814795  0.33757014  1.00418085  1
  Fe  Fe13  1  0.50547882  0.50489573  0.17076312  1
  Fe  Fe14  1  0.33756870  0.33704429  0.33767716  1
  Fe  Fe15  1  0.33839959  0.67223413  1.00384492  1
  Fe  Fe16  1  0.50581114  0.83763022  0.17051474  1
  Fe  Fe17  1  0.33784765  0.67109656  0.33827181  1
  Ni  Ni18  1  0.66939788  1.00347095  1.00353191  1
  Fe  Fe19  1  0.83734125  0.17075844  0.17143841  1
  Ni  Ni20  1  0.67010113  1.00372015  0.33812690  1
  Fe  Fe21  1  0.67109564  0.33793108  0.00434218  1
  Ni  Ni22  1  0.83809923  0.50457728  0.17083167  1
  Fe  Fe23  1  0.67168374  0.33734504  0.33751619  1
  Ni  Ni24  1  0.67208242  0.67171539  1.00417199  1
  Ni  Ni25  1  0.83727543  0.83688841  0.17070898  1
  Fe  Fe26  1  0.67164171  0.67104105  0.33696650  1
  Fe  Fe27  1  0.17123348  0.17071002  0.50409816  1
  Fe  Fe28  1  0.00434601  0.00443019  0.67084468  1
  Fe  Fe29  1  0.17181312  0.17021435  0.83767856  1
  Fe  Fe30  1  0.17131744  0.50457077  0.50409823  1
  Fe  Fe31  1  1.00426051  0.33751152  0.67029124  1
  Fe  Fe32  1  0.17123271  0.50497767  0.83759066  1
  Fe  Fe33  1  0.17151292  0.83751064  0.50443302  1
  Fe  Fe34  1  0.00434365  0.67084658  0.67148382  1
  Fe  Fe35  1  0.17142787  0.83759537  0.83793014  1
  Fe  Fe36  1  0.50451141  0.17017916  0.50401455  1
  Fe  Fe37  1  0.33792982  1.00375852  0.67148176  1
  Fe  Fe38  1  0.50417936  0.17002054  0.83809338  1
  Fe  Fe39  1  0.50409567  0.50476608  0.50443310  1
  Fe  Fe40  1  0.33751266  0.33768044  0.67093043  1
  Fe  Fe41  1  0.50442940  0.50484508  0.83759184  1
  Ni  Ni42  1  0.50416493  0.83799542  0.50383138  1
  Fe  Fe43  1  0.33810177  0.67135037  0.67067246  1
  Ni  Ni44  1  0.50416679  0.83789457  0.83835066  1
  Fe  Fe45  1  0.83704361  0.17037779  0.50393217  1
  Fe  Fe46  1  0.67051133  1.00384068  0.67075844  1
  Fe  Fe47  1  0.83679433  0.17021237  0.83741847  1
  Fe  Fe48  1  0.83737745  0.50448531  0.50363156  1
  Fe  Fe49  1  0.67101540  0.33768289  0.67093033  1
  Fe  Fe50  1  0.83712873  0.50522408  0.83847592  1
  Fe  Fe51  1  0.83684448  0.83792726  0.50354638  1
  Fe  Fe52  1  0.67034213  0.67126550  0.67139617  1
  Fe  Fe53  1  0.83693240  0.83734721  0.83881173  1
" 