2186,Ni82Fe2Cr14_13,-233.317844171552, 160.009848357867,Ni82Fe2Cr14,"# generated using pymatgen
 data_Cr9FeNi44
_symmetry_space_group_name_H-M   'P 1'
_cell_length_a   7.47135234
_cell_length_b   7.47135234
_cell_length_c   10.56608781
_cell_angle_alpha   90.00000000
_cell_angle_beta   90.00000000
_cell_angle_gamma   90.00000000
_symmetry_Int_Tables_number   1
_chemical_formula_structural   Cr9FeNi44
_chemical_formula_sum   'Cr9 Fe1 Ni44'
_cell_volume   589.81070535
_cell_formula_units_Z   1
loop_
 _symmetry_equiv_pos_site_id
 _symmetry_equiv_pos_as_xyz
  1  'x, y, z'
loop_
 _atom_site_type_symbol
 _atom_site_label
 _atom_site_symmetry_multiplicity
 _atom_site_fract_x
 _atom_site_fract_y
 _atom_site_fract_z
 _atom_site_occupancy
  Ni  Ni0  1  0.99786084  -0.00021629  0.99940260  1
  Ni  Ni1  1  0.16583022  0.16737689  0.16654545  1
  Cr  Cr2  1  0.00067060  0.99906723  0.33240260  1
  Ni  Ni3  1  0.00033297  0.33221175  0.00103740  1
  Fe  Fe4  1  0.16433249  0.49950113  0.16632487  1
  Ni  Ni5  1  0.00052321  0.33550828  0.33188675  1
  Ni  Ni6  1  0.00172885  0.66714004  0.00107348  1
  Ni  Ni7  1  0.16442833  0.83178315  0.16637860  1
  Ni  Ni8  1  0.00090487  0.66463024  0.33286361  1
  Cr  Cr9  1  0.33246353  0.00047939  0.99916449  1
  Ni  Ni10  1  0.50080019  0.16743558  0.16755684  1
  Ni  Ni11  1  0.33404853  0.00085909  0.33397698  1
  Ni  Ni12  1  0.33223239  0.33393216  0.99871178  1
  Cr  Cr13  1  0.49858395  0.49705151  0.16577955  1
  Ni  Ni14  1  0.33242372  0.33175799  0.33387846  1
  Ni  Ni15  1  0.32998223  0.66456876  0.99802811  1
  Cr  Cr16  1  0.49833020  0.83504952  0.16738330  1
  Ni  Ni17  1  0.33017906  0.66651861  0.33433497  1
  Ni  Ni18  1  0.66914264  0.00203134  0.99931981  1
  Ni  Ni19  1  0.83250610  0.16759778  0.16500991  1
  Ni  Ni20  1  0.66430138  0.00124157  0.33242473  1
  Ni  Ni21  1  0.66657003  0.33006339  -0.00001501  1
  Ni  Ni22  1  0.83604371  0.49777912  0.16696469  1
  Ni  Ni23  1  0.66618942  0.33163994  0.33277205  1
  Cr  Cr24  1  0.66681190  0.66737780  0.99875150  1
  Ni  Ni25  1  0.83610095  0.83375924  0.16536860  1
  Cr  Cr26  1  0.66819894  0.66658935  0.33500806  1
  Ni  Ni27  1  0.16970264  0.16642319  0.49966083  1
  Ni  Ni28  1  0.00038106  0.99711369  0.66775011  1
  Ni  Ni29  1  0.16640401  0.16623233  0.83292972  1
  Ni  Ni30  1  0.16713017  0.50091641  0.49797602  1
  Cr  Cr31  1  0.00146181  0.33266433  0.66599542  1
  Ni  Ni32  1  0.16930824  0.50072560  0.83494815  1
  Ni  Ni33  1  0.16729475  0.83179636  0.50027982  1
  Ni  Ni34  1  -0.00011886  0.66914034  0.66519808  1
  Ni  Ni35  1  0.16572486  0.83217747  0.83247753  1
  Ni  Ni36  1  0.49809892  0.16664594  0.49888171  1
  Ni  Ni37  1  0.33306982  0.99968820  0.66579407  1
  Ni  Ni38  1  0.50061014  0.16746639  0.83269716  1
  Ni  Ni39  1  0.49903223  0.49905682  0.50086604  1
  Ni  Ni40  1  0.33479553  0.33288007  0.66654551  1
  Ni  Ni41  1  0.49707814  0.49886405  0.83228258  1
  Ni  Ni42  1  0.49864467  0.83343317  0.50002645  1
  Ni  Ni43  1  0.33356813  0.66656750  0.66677209  1
  Ni  Ni44  1  0.49942781  0.83280502  0.83171718  1
  Cr  Cr45  1  0.83173562  0.16673550  0.49989935  1
  Ni  Ni46  1  0.66568546  0.99834135  0.66739165  1
  Ni  Ni47  1  0.83212167  0.16388249  0.83474544  1
  Ni  Ni48  1  0.83297304  0.50146311  0.49907768  1
  Ni  Ni49  1  0.66311252  0.33337909  0.66637821  1
  Cr  Cr50  1  0.83281437  0.49932563  0.83268530  1
  Ni  Ni51  1  0.83319607  0.83086142  0.50124055  1
  Ni  Ni52  1  0.66568646  0.66741496  0.66536547  1
  Ni  Ni53  1  0.83398301  0.83570856  0.83252723  1
" 