5652,Ni82Fe7Cr9_12,-236.594303955043, 176.735549639984,Ni82Fe7Cr9,"# generated using pymatgen
 data_Cr3(FeNi11)2
_symmetry_space_group_name_H-M   'P 1'
_cell_length_a   7.45216453
_cell_length_b   7.45216453
_cell_length_c   10.53895215
_cell_angle_alpha   90.00000000
_cell_angle_beta   90.00000000
_cell_angle_gamma   90.00000000
_symmetry_Int_Tables_number   1
_chemical_formula_structural   Cr3(FeNi11)2
_chemical_formula_sum   'Cr6 Fe4 Ni44'
_cell_volume   585.27813908
_cell_formula_units_Z   2
loop_
 _symmetry_equiv_pos_site_id
 _symmetry_equiv_pos_as_xyz
  1  'x, y, z'
loop_
 _atom_site_type_symbol
 _atom_site_label
 _atom_site_symmetry_multiplicity
 _atom_site_fract_x
 _atom_site_fract_y
 _atom_site_fract_z
 _atom_site_occupancy
  Ni  Ni0  1  0.00280922  1.00017724  0.99907116  1
  Ni  Ni1  1  0.17053418  0.16782667  0.16855480  1
  Ni  Ni2  1  0.00429314  0.00250329  0.33547640  1
  Cr  Cr3  1  0.00180397  0.33404084  1.00087517  1
  Ni  Ni4  1  0.16949166  0.50088580  0.16761081  1
  Ni  Ni5  1  0.00158767  0.33409027  0.33406163  1
  Ni  Ni6  1  0.00243144  0.66856245  0.99985977  1
  Fe  Fe7  1  0.16906475  0.83372556  0.16759150  1
  Ni  Ni8  1  0.00275285  0.66640946  0.33313453  1
  Fe  Fe9  1  0.33467202  0.00110681  1.00064010  1
  Ni  Ni10  1  0.49820634  0.16775641  0.16677333  1
  Ni  Ni11  1  0.33453773  1.00091825  0.33342379  1
  Ni  Ni12  1  0.33587045  0.33466574  1.00050157  1
  Ni  Ni13  1  0.49971127  0.50106035  0.16771363  1
  Ni  Ni14  1  0.33497179  0.33339409  0.33390825  1
  Ni  Ni15  1  0.33501308  0.66746712  0.00100311  1
  Ni  Ni16  1  0.49991387  0.83424921  0.16727341  1
  Ni  Ni17  1  0.33541628  0.66855056  0.33380028  1
  Ni  Ni18  1  0.66598046  0.00109805  0.99802267  1
  Cr  Cr19  1  0.83269165  0.16717576  0.16877210  1
  Ni  Ni20  1  0.66427900  0.00207417  0.33622812  1
  Ni  Ni21  1  0.66499689  0.33495436  1.00055786  1
  Ni  Ni22  1  0.83390917  0.50264444  0.16874749  1
  Ni  Ni23  1  0.66644384  0.33500592  0.33470280  1
  Ni  Ni24  1  0.66596148  0.66707530  1.00009999  1
  Cr  Cr25  1  0.83310576  0.83350641  0.16723418  1
  Ni  Ni26  1  0.66514386  0.66603485  0.33438370  1
  Ni  Ni27  1  0.16819317  0.16622076  0.50094935  1
  Ni  Ni28  1  0.00296856  0.00248764  0.66838622  1
  Ni  Ni29  1  0.16889528  0.16644995  0.83323647  1
  Cr  Cr30  1  0.16849685  0.50087313  0.50305919  1
  Ni  Ni31  1  0.99944054  0.33290077  0.66877752  1
  Fe  Fe32  1  0.16898145  0.50160997  0.83401923  1
  Ni  Ni33  1  0.16951199  0.83555593  0.50031688  1
  Ni  Ni34  1  0.00334547  0.66741460  0.67033277  1
  Ni  Ni35  1  0.16774845  0.83465483  0.83484385  1
  Ni  Ni36  1  0.50033704  0.16768652  0.50109825  1
  Ni  Ni37  1  0.33412646  1.00002503  0.66781492  1
  Ni  Ni38  1  0.50035191  0.16837560  0.83479993  1
  Ni  Ni39  1  0.50107105  0.50002721  0.49999562  1
  Fe  Fe40  1  0.33550956  0.33263085  0.66842283  1
  Ni  Ni41  1  0.50006200  0.50020300  0.83507167  1
  Ni  Ni42  1  0.49813951  0.83522162  0.50031766  1
  Ni  Ni43  1  0.33380782  0.66985452  0.66843999  1
  Ni  Ni44  1  0.49979295  0.83456046  0.83516009  1
  Ni  Ni45  1  0.83450153  0.16907860  0.50108388  1
  Ni  Ni46  1  0.66593800  0.00408116  0.66867789  1
  Ni  Ni47  1  0.83402571  0.16683160  0.83355505  1
  Ni  Ni48  1  0.83422761  0.49877971  0.49919247  1
  Ni  Ni49  1  0.66834388  0.33296191  0.66769405  1
  Ni  Ni50  1  0.83372473  0.50134532  0.83504165  1
  Cr  Cr51  1  0.83556396  0.83505286  0.50060656  1
  Cr  Cr52  1  0.66567416  0.66710821  0.66779792  1
  Ni  Ni53  1  0.83554955  0.83497185  0.83520890  1
" 