3083,Ni82Fe3Cr13_5,-233.486300756447, 161.869190327691,Ni82Fe3Cr13,"# generated using pymatgen
 data_Cr9FeNi44
_symmetry_space_group_name_H-M   'P 1'
_cell_length_a   7.46735780
_cell_length_b   7.46735780
_cell_length_c   10.56043868
_cell_angle_alpha   90.00000000
_cell_angle_beta   90.00000000
_cell_angle_gamma   90.00000000
_symmetry_Int_Tables_number   1
_chemical_formula_structural   Cr9FeNi44
_chemical_formula_sum   'Cr9 Fe1 Ni44'
_cell_volume   588.86518909
_cell_formula_units_Z   1
loop_
 _symmetry_equiv_pos_site_id
 _symmetry_equiv_pos_as_xyz
  1  'x, y, z'
loop_
 _atom_site_type_symbol
 _atom_site_label
 _atom_site_symmetry_multiplicity
 _atom_site_fract_x
 _atom_site_fract_y
 _atom_site_fract_z
 _atom_site_occupancy
  Ni  Ni0  1  0.99786248  0.00040408  0.00166258  1
  Ni  Ni1  1  0.16579322  0.16786068  0.16858585  1
  Ni  Ni2  1  0.00099447  0.99905614  0.33172451  1
  Ni  Ni3  1  0.99932150  0.33426700  0.00046510  1
  Ni  Ni4  1  0.16588975  0.49918355  0.16556852  1
  Ni  Ni5  1  0.00084937  0.33327864  0.33158978  1
  Ni  Ni6  1  0.00038275  0.66545843  0.00100668  1
  Ni  Ni7  1  0.16432110  0.83275502  0.16615952  1
  Ni  Ni8  1  0.99750214  0.66769636  0.33202996  1
  Cr  Cr9  1  0.33187736  0.99637377  0.00233772  1
  Ni  Ni10  1  0.49974952  0.16638437  0.16703046  1
  Ni  Ni11  1  0.33299322  0.00107305  0.33323793  1
  Ni  Ni12  1  0.33247670  0.33605370  0.00231136  1
  Ni  Ni13  1  0.49978701  0.50037535  0.16479607  1
  Ni  Ni14  1  0.33272210  0.33103190  0.33236546  1
  Ni  Ni15  1  0.33364515  0.66441528  0.99942261  1
  Ni  Ni16  1  0.50222911  0.83310507  0.16631515  1
  Cr  Cr17  1  0.33401076  0.66835584  0.33105140  1
  Ni  Ni18  1  0.66795641  0.99928083  0.00193896  1
  Ni  Ni19  1  0.83414608  0.16550726  0.16474389  1
  Ni  Ni20  1  0.66586695  0.99804114  0.33227684  1
  Fe  Fe21  1  0.66793363  0.33495010  0.00097640  1
  Ni  Ni22  1  0.83451172  0.50162439  0.16637952  1
  Cr  Cr23  1  0.66625252  0.33540940  0.33255096  1
  Ni  Ni24  1  0.66600093  0.66627183  0.00105764  1
  Ni  Ni25  1  0.83300144  0.83320096  0.16737696  1
  Ni  Ni26  1  0.66818999  0.66835078  0.33400251  1
  Ni  Ni27  1  0.16853892  0.16513615  0.49957671  1
  Ni  Ni28  1  0.00092229  0.99899893  0.66645418  1
  Cr  Cr29  1  0.16523101  0.16717506  0.83148937  1
  Cr  Cr30  1  0.16558478  0.49918229  0.49972802  1
  Ni  Ni31  1  0.00063916  0.33440156  0.66765289  1
  Ni  Ni32  1  0.16683072  0.50131136  0.83366289  1
  Ni  Ni33  1  0.16548782  0.83511371  0.50102210  1
  Ni  Ni34  1  0.99992828  0.66666822  0.66682557  1
  Ni  Ni35  1  0.16684110  0.83011290  0.83266038  1
  Ni  Ni36  1  0.49695209  0.16477897  0.49963913  1
  Ni  Ni37  1  0.33313431  0.99753795  0.66459116  1
  Cr  Cr38  1  0.50152062  0.16536967  0.83397431  1
  Ni  Ni39  1  0.49995059  0.50142370  0.50073753  1
  Ni  Ni40  1  0.33311062  0.33431598  0.66523091  1
  Ni  Ni41  1  0.49892405  0.50243904  0.83439294  1
  Ni  Ni42  1  0.50108296  0.83390542  0.50101847  1
  Ni  Ni43  1  0.33393102  0.66775836  0.66882535  1
  Ni  Ni44  1  0.49981234  0.83042708  0.83255513  1
  Cr  Cr45  1  0.83572590  0.16437405  0.50029082  1
  Ni  Ni46  1  0.66596119  0.99794255  0.66590699  1
  Ni  Ni47  1  0.83444917  0.16736030  0.83490606  1
  Ni  Ni48  1  0.83365920  0.50395809  0.49970733  1
  Cr  Cr49  1  0.66794141  0.33565969  0.66722167  1
  Ni  Ni50  1  0.83449078  0.50058887  0.83406653  1
  Ni  Ni51  1  0.83317161  0.83157897  0.49926648  1
  Ni  Ni52  1  0.66593539  0.66740536  0.66508699  1
  Cr  Cr53  1  0.83285370  0.83418928  0.83342415  1
" 