5515,Ni82Fe13Cr3_9,-240.05916008611, 195.052606702216,Ni82Fe13Cr3,"# generated using pymatgen
 data_Cr3Fe7Ni44
_symmetry_space_group_name_H-M   'P 1'
_cell_length_a   7.43975225
_cell_length_b   7.43975225
_cell_length_c   10.52139853
_cell_angle_alpha   90.00000000
_cell_angle_beta   90.00000000
_cell_angle_gamma   90.00000000
_symmetry_Int_Tables_number   1
_chemical_formula_structural   Cr3Fe7Ni44
_chemical_formula_sum   'Cr3 Fe7 Ni44'
_cell_volume   582.35849894
_cell_formula_units_Z   1
loop_
 _symmetry_equiv_pos_site_id
 _symmetry_equiv_pos_as_xyz
  1  'x, y, z'
loop_
 _atom_site_type_symbol
 _atom_site_label
 _atom_site_symmetry_multiplicity
 _atom_site_fract_x
 _atom_site_fract_y
 _atom_site_fract_z
 _atom_site_occupancy
  Ni  Ni0  1  1.00068290  0.00260708  0.00206631  1
  Fe  Fe1  1  0.16757031  0.16805000  0.16748687  1
  Ni  Ni2  1  1.00136041  1.00162411  0.33583652  1
  Ni  Ni3  1  0.00184111  0.33525485  1.00129889  1
  Ni  Ni4  1  0.16769158  0.50351930  0.16700926  1
  Ni  Ni5  1  0.99972265  0.33534648  0.33578992  1
  Ni  Ni6  1  1.00088386  0.66763781  0.00200254  1
  Ni  Ni7  1  0.16980184  0.83501928  0.16891470  1
  Ni  Ni8  1  1.00161744  0.66853134  0.33594668  1
  Ni  Ni9  1  0.33641702  0.00250537  0.00206543  1
  Fe  Fe10  1  0.50277296  0.16806970  0.16761108  1
  Ni  Ni11  1  0.33556620  0.99972877  0.33603998  1
  Ni  Ni12  1  0.33540669  0.33550915  1.00072013  1
  Ni  Ni13  1  0.50264434  0.50331608  0.16768148  1
  Cr  Cr14  1  0.33527580  0.33571347  0.33582516  1
  Ni  Ni15  1  0.33646628  0.66749033  0.00258066  1
  Ni  Ni16  1  0.50006871  0.83475629  0.16827892  1
  Ni  Ni17  1  0.33556205  0.67017313  0.33556826  1
  Ni  Ni18  1  0.66840360  1.00154971  1.00100909  1
  Ni  Ni19  1  0.83542987  0.16954196  0.16848034  1
  Ni  Ni20  1  0.66857667  1.00162368  0.33578699  1
  Ni  Ni21  1  0.66825546  0.33530344  1.00155219  1
  Ni  Ni22  1  0.83516710  0.50015011  0.16874106  1
  Ni  Ni23  1  0.67021761  0.33534181  0.33573909  1
  Ni  Ni24  1  0.66815171  0.66864803  1.00094646  1
  Fe  Fe25  1  0.83523184  0.83424982  0.16843158  1
  Ni  Ni26  1  0.66832345  0.66853584  0.33589697  1
  Ni  Ni27  1  0.16767863  0.16718018  0.50241579  1
  Ni  Ni28  1  1.00067368  0.00281660  0.66760187  1
  Ni  Ni29  1  0.16848928  0.16938017  0.83560550  1
  Ni  Ni30  1  0.16687828  0.50212130  0.50203602  1
  Ni  Ni31  1  0.00188954  0.33494961  0.66841254  1
  Fe  Fe32  1  0.16760358  0.49911098  0.83601000  1
  Ni  Ni33  1  0.16819967  0.83620018  0.50039301  1
  Ni  Ni34  1  0.99902002  0.66773493  0.66755302  1
  Cr  Cr35  1  0.16805840  0.83663498  0.83617439  1
  Ni  Ni36  1  0.50217012  0.16764393  0.50232913  1
  Ni  Ni37  1  0.33625161  0.00461867  0.66740004  1
  Ni  Ni38  1  0.50132420  0.16883505  0.83575179  1
  Ni  Ni39  1  0.50323345  0.50192199  0.50122066  1
  Ni  Ni40  1  0.33524168  0.33335251  0.66878776  1
  Ni  Ni41  1  0.50317150  0.50093831  0.83660195  1
  Ni  Ni42  1  0.50145043  0.83593797  0.50088280  1
  Cr  Cr43  1  0.33602185  0.66764628  0.66729785  1
  Ni  Ni44  1  0.50345402  0.83572933  0.83633935  1
  Ni  Ni45  1  0.83565635  0.16896425  0.50175345  1
  Fe  Fe46  1  0.66879439  0.00204769  0.66857478  1
  Ni  Ni47  1  0.83569060  0.16909672  0.83526896  1
  Ni  Ni48  1  0.83539334  0.50140145  0.50122180  1
  Fe  Fe49  1  0.66872087  0.33493459  0.66848402  1
  Ni  Ni50  1  0.83464275  0.50147527  0.83554177  1
  Ni  Ni51  1  0.83585454  0.83513763  0.50146043  1
  Fe  Fe52  1  0.67028936  0.66852146  0.66862376  1
  Ni  Ni53  1  0.83409743  0.83493006  0.83601004  1
" 