7494,Ni82Fe9Cr8_10,-237.763325241387, 184.032600481025,Ni82Fe9Cr8,"# generated using pymatgen
 data_Cr5Fe5Ni44
_symmetry_space_group_name_H-M   'P 1'
_cell_length_a   7.45000657
_cell_length_b   7.45000657
_cell_length_c   10.53590033
_cell_angle_alpha   90.00000000
_cell_angle_beta   90.00000000
_cell_angle_gamma   90.00000000
_symmetry_Int_Tables_number   1
_chemical_formula_structural   Cr5Fe5Ni44
_chemical_formula_sum   'Cr5 Fe5 Ni44'
_cell_volume   584.76983922
_cell_formula_units_Z   1
loop_
 _symmetry_equiv_pos_site_id
 _symmetry_equiv_pos_as_xyz
  1  'x, y, z'
loop_
 _atom_site_type_symbol
 _atom_site_label
 _atom_site_symmetry_multiplicity
 _atom_site_fract_x
 _atom_site_fract_y
 _atom_site_fract_z
 _atom_site_occupancy
  Ni  Ni0  1  0.00183227  0.00175092  0.00133798  1
  Ni  Ni1  1  0.16772510  0.16748350  0.16838491  1
  Fe  Fe2  1  0.00291475  1.00059183  0.33358149  1
  Fe  Fe3  1  0.00194301  0.33389966  1.00066489  1
  Ni  Ni4  1  0.16655344  0.50126886  0.16770195  1
  Ni  Ni5  1  0.00262485  0.33624862  0.33293893  1
  Ni  Ni6  1  0.00159814  0.66662351  1.00107179  1
  Ni  Ni7  1  0.16782492  0.83438586  0.16780725  1
  Ni  Ni8  1  0.00314365  0.66584790  0.33397160  1
  Ni  Ni9  1  0.33457545  0.00222761  0.00146758  1
  Ni  Ni10  1  0.50019006  0.16773048  0.16702127  1
  Ni  Ni11  1  0.33340024  0.00190506  0.33365549  1
  Fe  Fe12  1  0.33301407  0.33324703  1.00073985  1
  Cr  Cr13  1  0.49921478  0.50158872  0.16748102  1
  Ni  Ni14  1  0.33273214  0.33260506  0.33540704  1
  Ni  Ni15  1  0.33277149  0.66882119  1.00029729  1
  Ni  Ni16  1  0.49906319  0.83550248  0.16529204  1
  Ni  Ni17  1  0.33113341  0.66886681  0.33496545  1
  Ni  Ni18  1  0.66723813  0.00215738  1.00093492  1
  Ni  Ni19  1  0.83560525  0.16852865  0.16664957  1
  Cr  Cr20  1  0.66438852  0.00197510  0.33279578  1
  Fe  Fe21  1  0.66842075  0.33361376  1.00020536  1
  Ni  Ni22  1  0.83643533  0.50025225  0.16690465  1
  Ni  Ni23  1  0.66825190  0.33370884  0.33364519  1
  Ni  Ni24  1  0.66894330  0.66861871  0.99983939  1
  Ni  Ni25  1  0.83675146  0.83441285  0.16577817  1
  Cr  Cr26  1  0.66918962  0.66806793  0.33616706  1
  Ni  Ni27  1  0.16931452  0.16774048  0.50129983  1
  Ni  Ni28  1  0.00332534  0.00262355  0.66868339  1
  Ni  Ni29  1  0.16777674  0.16720813  0.83387767  1
  Ni  Ni30  1  0.16901543  0.50025703  0.50001540  1
  Ni  Ni31  1  0.00207514  0.33424833  0.66954820  1
  Ni  Ni32  1  0.16948655  0.50038734  0.83588944  1
  Ni  Ni33  1  0.16894979  0.83550109  0.49987246  1
  Cr  Cr34  1  0.00259742  0.66627960  0.66875104  1
  Ni  Ni35  1  0.16872826  0.83559823  0.83575601  1
  Ni  Ni36  1  0.49909708  0.16893183  0.50182182  1
  Ni  Ni37  1  0.33460295  0.00136318  0.66826431  1
  Ni  Ni38  1  0.50092425  0.16792386  0.83440354  1
  Ni  Ni39  1  0.49986029  0.50020685  0.50188307  1
  Fe  Fe40  1  0.33428288  0.33446786  0.66781658  1
  Ni  Ni41  1  0.50077109  0.50163323  0.83405762  1
  Ni  Ni42  1  0.49872724  0.83439339  0.50322691  1
  Ni  Ni43  1  0.33535445  0.66842359  0.66806135  1
  Ni  Ni44  1  0.50075129  0.83405640  0.83494259  1
  Cr  Cr45  1  0.83621278  0.16805543  0.50232328  1
  Ni  Ni46  1  0.66574959  0.00125095  0.66942947  1
  Ni  Ni47  1  0.83476576  0.16718482  0.83431269  1
  Ni  Ni48  1  0.83466969  0.50015041  0.50086858  1
  Ni  Ni49  1  0.66777450  0.33504914  0.66863557  1
  Ni  Ni50  1  0.83338452  0.50019595  0.83545772  1
  Ni  Ni51  1  0.83589098  0.83393681  0.50296248  1
  Ni  Ni52  1  0.66620175  0.66698075  0.66798375  1
  Ni  Ni53  1  0.83398992  0.83578063  0.83490676  1
" 