5734,Ni82Fe3Cr13_19,-233.521149673702, 162.968356982671,Ni82Fe3Cr13,"# generated using pymatgen
 data_Cr9FeNi44
_symmetry_space_group_name_H-M   'P 1'
_cell_length_a   7.46950314
_cell_length_b   7.46950314
_cell_length_c   10.56347264
_cell_angle_alpha   90.00000000
_cell_angle_beta   90.00000000
_cell_angle_gamma   90.00000000
_symmetry_Int_Tables_number   1
_chemical_formula_structural   Cr9FeNi44
_chemical_formula_sum   'Cr9 Fe1 Ni44'
_cell_volume   589.37286944
_cell_formula_units_Z   1
loop_
 _symmetry_equiv_pos_site_id
 _symmetry_equiv_pos_as_xyz
  1  'x, y, z'
loop_
 _atom_site_type_symbol
 _atom_site_label
 _atom_site_symmetry_multiplicity
 _atom_site_fract_x
 _atom_site_fract_y
 _atom_site_fract_z
 _atom_site_occupancy
  Ni  Ni0  1  -0.00000308  0.99975422  0.00013815  1
  Ni  Ni1  1  0.16432570  0.16586568  0.16539176  1
  Ni  Ni2  1  0.99870409  0.00044885  0.33393429  1
  Ni  Ni3  1  0.99893094  0.33403147  0.00143353  1
  Ni  Ni4  1  0.16268728  0.50009726  0.16714037  1
  Ni  Ni5  1  0.99774352  0.33360408  0.33213972  1
  Ni  Ni6  1  0.99924811  0.66572154  0.99914033  1
  Ni  Ni7  1  0.16719087  0.83354289  0.16695848  1
  Ni  Ni8  1  0.00051290  0.66545351  0.33351958  1
  Ni  Ni9  1  0.33409018  0.99886827  0.00123502  1
  Ni  Ni10  1  0.50065827  0.16275442  0.16648707  1
  Cr  Cr11  1  0.33256101  0.99912836  0.33145925  1
  Cr  Cr12  1  0.33185843  0.33163522  0.00007570  1
  Cr  Cr13  1  0.50132672  0.50207559  0.16893762  1
  Cr  Cr14  1  0.33297934  0.33386375  0.33355535  1
  Cr  Cr15  1  0.33213965  0.66883955  0.99945128  1
  Ni  Ni16  1  0.49943651  0.83500745  0.16605371  1
  Ni  Ni17  1  0.33168636  0.66633858  0.33266552  1
  Ni  Ni18  1  0.66541972  0.99918589  0.99931728  1
  Ni  Ni19  1  0.83452419  0.16725981  0.16760535  1
  Ni  Ni20  1  0.66804675  0.00159167  0.33255257  1
  Cr  Cr21  1  0.66879346  0.33231820  0.99905402  1
  Ni  Ni22  1  0.83598869  0.49887861  0.16730665  1
  Ni  Ni23  1  0.66893493  0.33253843  0.33383539  1
  Ni  Ni24  1  0.66829299  0.66841584  0.99831251  1
  Cr  Cr25  1  0.83232145  0.83296508  0.16647971  1
  Ni  Ni26  1  0.66730590  0.66537682  0.33344138  1
  Ni  Ni27  1  0.16471968  0.16729391  0.50122069  1
  Ni  Ni28  1  0.99926469  0.99900560  0.66543536  1
  Cr  Cr29  1  0.16571496  0.16627084  0.83280663  1
  Ni  Ni30  1  0.16595758  0.49969171  0.50035684  1
  Ni  Ni31  1  0.99935867  0.33399135  0.66593407  1
  Ni  Ni32  1  0.16508864  0.50147114  0.83200905  1
  Fe  Fe33  1  0.16385813  0.83234148  0.50066894  1
  Ni  Ni34  1  0.00032364  0.66650969  0.66684732  1
  Ni  Ni35  1  0.16597867  0.83216883  0.83219104  1
  Ni  Ni36  1  0.50085159  0.16798882  0.50141955  1
  Ni  Ni37  1  0.33333880  0.00024024  0.66704632  1
  Ni  Ni38  1  0.50120581  0.16457060  0.83159931  1
  Ni  Ni39  1  0.49996632  0.49934819  0.50055602  1
  Ni  Ni40  1  0.33447768  0.33399055  0.66569587  1
  Ni  Ni41  1  0.50064080  0.50131697  0.83016105  1
  Cr  Cr42  1  0.50148878  0.83194696  0.49981888  1
  Ni  Ni43  1  0.33227907  0.66527553  0.66735453  1
  Ni  Ni44  1  0.50104691  0.83361886  0.83344949  1
  Ni  Ni45  1  0.83393592  0.16601003  0.49929785  1
  Ni  Ni46  1  0.66690289  0.00120469  0.66763695  1
  Ni  Ni47  1  0.83232508  0.16546077  0.83260373  1
  Ni  Ni48  1  0.83358259  0.50009174  0.49918207  1
  Ni  Ni49  1  0.66566997  0.33293187  0.66636128  1
  Ni  Ni50  1  0.83377729  0.50131171  0.83301791  1
  Ni  Ni51  1  0.83428043  0.83340534  0.49973391  1
  Ni  Ni52  1  0.66690325  0.66537063  0.66775220  1
  Ni  Ni53  1  0.83248126  0.83273490  0.83334555  1
" 