6679,Ni82Fe18_9,-231.753323458891, 179.30541812461,Ni82Fe18,"# generated using pymatgen
 data_Fe22Ni5
_symmetry_space_group_name_H-M   'P 1'
_cell_length_a   7.40151708
_cell_length_b   7.40151708
_cell_length_c   10.46732583
_cell_angle_alpha   90.00000000
_cell_angle_beta   90.00000000
_cell_angle_gamma   90.00000000
_symmetry_Int_Tables_number   1
_chemical_formula_structural   Fe22Ni5
_chemical_formula_sum   'Fe44 Ni10'
_cell_volume   573.42580664
_cell_formula_units_Z   2
loop_
 _symmetry_equiv_pos_site_id
 _symmetry_equiv_pos_as_xyz
  1  'x, y, z'
loop_
 _atom_site_type_symbol
 _atom_site_label
 _atom_site_symmetry_multiplicity
 _atom_site_fract_x
 _atom_site_fract_y
 _atom_site_fract_z
 _atom_site_occupancy
  Fe  Fe0  1  1.00409208  0.00458764  0.00472995  1
  Fe  Fe1  1  0.17139609  0.17139505  0.17200682  1
  Ni  Ni2  1  0.00543785  0.00543127  0.33757091  1
  Fe  Fe3  1  1.00417877  0.33751153  0.00472696  1
  Fe  Fe4  1  0.17125109  0.50417859  0.17125487  1
  Ni  Ni5  1  1.00409862  0.33728358  0.33746053  1
  Fe  Fe6  1  0.00459674  0.67118069  0.00451043  1
  Fe  Fe7  1  0.17172714  0.83770754  0.17150218  1
  Fe  Fe8  1  0.00481534  0.67197898  0.33800621  1
  Fe  Fe9  1  0.33817162  1.00434162  0.00448120  1
  Fe  Fe10  1  0.50409392  0.17133723  0.17087647  1
  Ni  Ni11  1  0.33727267  1.00409430  0.33746047  1
  Fe  Fe12  1  0.33850463  0.33818032  1.00417835  1
  Ni  Ni13  1  0.50372243  0.50432143  0.17161944  1
  Fe  Fe14  1  0.33696299  0.33696176  0.33751742  1
  Fe  Fe15  1  0.33833195  0.67075824  1.00426401  1
  Fe  Fe16  1  0.50409656  0.83742778  0.17079139  1
  Fe  Fe17  1  0.33682336  0.67125456  0.33734351  1
  Fe  Fe18  1  0.67101874  0.00475894  1.00359598  1
  Fe  Fe19  1  0.83779157  0.17181163  0.17095212  1
  Fe  Fe20  1  0.67197889  0.00481557  0.33800666  1
  Fe  Fe21  1  0.67059632  0.33767658  1.00401453  1
  Fe  Fe22  1  0.83750892  0.50418133  0.17134169  1
  Fe  Fe23  1  0.67125306  0.33682117  0.33734255  1
  Fe  Fe24  1  0.67034746  0.67084365  1.00380057  1
  Fe  Fe25  1  0.83745784  0.83728891  0.17189312  1
  Fe  Fe26  1  0.67164111  0.67164354  0.33831115  1
  Fe  Fe27  1  0.17029819  0.17029695  0.50351354  1
  Fe  Fe28  1  1.00330058  1.00379241  0.67054555  1
  Fe  Fe29  1  0.17219486  0.17109233  0.83775773  1
  Fe  Fe30  1  0.17012569  0.50464167  0.50426519  1
  Fe  Fe31  1  1.00371663  0.33814728  0.67079135  1
  Fe  Fe32  1  0.17204737  0.50379083  0.83775968  1
  Fe  Fe33  1  0.17060368  0.83834274  0.50384513  1
  Fe  Fe34  1  1.00377146  0.67134170  0.67076316  1
  Fe  Fe35  1  0.17222096  0.83839732  0.83793169  1
  Fe  Fe36  1  0.50455693  0.17021011  0.50464339  1
  Fe  Fe37  1  0.33880570  1.00387884  0.67103958  1
  Ni  Ni38  1  0.50505055  0.17149821  0.83805955  1
  Fe  Fe39  1  0.50531067  0.50530963  0.50467281  1
  Fe  Fe40  1  0.33880507  0.33847931  0.67158568  1
  Ni  Ni41  1  0.50370351  0.50475986  0.83742361  1
  Fe  Fe42  1  0.50492395  0.83775921  0.50497646  1
  Fe  Fe43  1  0.33866061  0.67092234  0.67167351  1
  Ni  Ni44  1  0.50410839  0.83702203  0.83765577  1
  Fe  Fe45  1  0.83842693  0.17068713  0.50439524  1
  Fe  Fe46  1  0.67117791  1.00393138  0.67167669  1
  Ni  Ni47  1  0.83819752  0.17069229  0.83725674  1
  Fe  Fe48  1  0.83784235  0.50500794  0.50442658  1
  Fe  Fe49  1  0.67075901  0.33800584  0.67192328  1
  Fe  Fe50  1  0.83600284  0.50409008  0.83751474  1
  Ni  Ni51  1  0.83865986  0.83826566  0.50412567  1
  Ni  Ni52  1  0.67069058  0.67090469  0.67230274  1
  Fe  Fe53  1  0.83591932  0.83800769  0.83696429  1
" 