4598,Ni82Fe7Cr9_8,-236.754521762667, 179.752600527042,Ni82Fe7Cr9,"# generated using pymatgen
 data_Cr3(FeNi11)2
_symmetry_space_group_name_H-M   'P 1'
_cell_length_a   7.45309863
_cell_length_b   7.45309863
_cell_length_c   10.54027316
_cell_angle_alpha   90.00000000
_cell_angle_beta   90.00000000
_cell_angle_gamma   90.00000000
_symmetry_Int_Tables_number   1
_chemical_formula_structural   Cr3(FeNi11)2
_chemical_formula_sum   'Cr6 Fe4 Ni44'
_cell_volume   585.49825144
_cell_formula_units_Z   2
loop_
 _symmetry_equiv_pos_site_id
 _symmetry_equiv_pos_as_xyz
  1  'x, y, z'
loop_
 _atom_site_type_symbol
 _atom_site_label
 _atom_site_symmetry_multiplicity
 _atom_site_fract_x
 _atom_site_fract_y
 _atom_site_fract_z
 _atom_site_occupancy
  Ni  Ni0  1  0.00134671  0.00098016  0.00109365  1
  Ni  Ni1  1  0.16762146  0.16796497  0.16804308  1
  Ni  Ni2  1  0.00172867  0.00283893  0.33350580  1
  Ni  Ni3  1  0.00108005  0.33426051  1.00089659  1
  Ni  Ni4  1  0.16770830  0.49900698  0.16613971  1
  Ni  Ni5  1  0.00094966  0.33301097  0.33463694  1
  Ni  Ni6  1  0.00112336  0.66743895  1.00046859  1
  Ni  Ni7  1  0.16843980  0.83586110  0.16669591  1
  Cr  Cr8  1  0.00182090  0.66680409  0.33363169  1
  Ni  Ni9  1  0.33355130  0.00214892  0.00162681  1
  Ni  Ni10  1  0.50031534  0.16747136  0.16651874  1
  Ni  Ni11  1  0.33397830  0.00237304  0.33382916  1
  Ni  Ni12  1  0.33465228  0.33422475  1.00072837  1
  Ni  Ni13  1  0.50122594  0.50044898  0.16776272  1
  Ni  Ni14  1  0.33533039  0.33416904  0.33422540  1
  Ni  Ni15  1  0.33369403  0.66666598  0.00225144  1
  Ni  Ni16  1  0.50107383  0.83490884  0.16836659  1
  Ni  Ni17  1  0.33482861  0.66636336  0.33333052  1
  Ni  Ni18  1  0.66801846  0.00210139  0.00142324  1
  Fe  Fe19  1  0.83463270  0.16828919  0.16735717  1
  Ni  Ni20  1  0.66728918  0.00332715  0.33252255  1
  Ni  Ni21  1  0.66695175  0.33451852  1.00093310  1
  Ni  Ni22  1  0.83382615  0.49973619  0.16704439  1
  Ni  Ni23  1  0.66660739  0.33402004  0.33435187  1
  Ni  Ni24  1  0.66814478  0.66635140  0.00190870  1
  Ni  Ni25  1  0.83334509  0.83505618  0.16597736  1
  Ni  Ni26  1  0.66625444  0.66547877  0.33291503  1
  Fe  Fe27  1  0.16882538  0.16950270  0.50001472  1
  Cr  Cr28  1  0.00165774  0.00295112  0.66785940  1
  Ni  Ni29  1  0.16673671  0.16860643  0.83428587  1
  Ni  Ni30  1  0.16913156  0.49900555  0.50134441  1
  Ni  Ni31  1  1.00075158  0.33402445  0.66706523  1
  Ni  Ni32  1  0.16808776  0.49931036  0.83531597  1
  Ni  Ni33  1  0.17040177  0.83516717  0.50022924  1
  Cr  Cr34  1  0.00188262  0.66532803  0.66905724  1
  Ni  Ni35  1  0.16937227  0.83499466  0.83593248  1
  Ni  Ni36  1  0.50183143  0.16879163  0.50220154  1
  Ni  Ni37  1  0.33425802  0.00303509  0.66738977  1
  Fe  Fe38  1  0.49991173  0.17000051  0.83471504  1
  Ni  Ni39  1  0.50072409  0.49893432  0.50094957  1
  Ni  Ni40  1  0.33479545  0.33450155  0.66793251  1
  Ni  Ni41  1  0.50124096  0.50058071  0.83406014  1
  Cr  Cr42  1  0.49963052  0.83429640  0.50025425  1
  Ni  Ni43  1  0.33396723  0.66576284  0.66717364  1
  Cr  Cr44  1  0.50034143  0.83402762  0.83380552  1
  Ni  Ni45  1  0.83318698  0.17038376  0.49943545  1
  Ni  Ni46  1  0.66694520  0.00444411  0.66894021  1
  Ni  Ni47  1  0.83427671  0.16943262  0.83540129  1
  Ni  Ni48  1  0.83290101  0.49631859  0.50145667  1
  Ni  Ni49  1  0.66724988  0.33400739  0.66755842  1
  Ni  Ni50  1  0.83343294  0.49782916  0.83445726  1
  Cr  Cr51  1  0.83216587  0.83544229  0.50103958  1
  Ni  Ni52  1  0.66677532  0.66446612  0.66800280  1
  Fe  Fe53  1  0.83451129  0.83356740  0.83646902  1
" 