8452,Ni82Fe9Cr8_12,-237.652734268445, 184.34660458585,Ni82Fe9Cr8,"# generated using pymatgen
 data_Cr5Fe5Ni44
_symmetry_space_group_name_H-M   'P 1'
_cell_length_a   7.44822303
_cell_length_b   7.44822303
_cell_length_c   10.53337803
_cell_angle_alpha   90.00000000
_cell_angle_beta   90.00000000
_cell_angle_gamma   90.00000000
_symmetry_Int_Tables_number   1
_chemical_formula_structural   Cr5Fe5Ni44
_chemical_formula_sum   'Cr5 Fe5 Ni44'
_cell_volume   584.34995731
_cell_formula_units_Z   1
loop_
 _symmetry_equiv_pos_site_id
 _symmetry_equiv_pos_as_xyz
  1  'x, y, z'
loop_
 _atom_site_type_symbol
 _atom_site_label
 _atom_site_symmetry_multiplicity
 _atom_site_fract_x
 _atom_site_fract_y
 _atom_site_fract_z
 _atom_site_occupancy
  Cr  Cr0  1  0.00152259  1.00108061  1.00072067  1
  Ni  Ni1  1  0.16735866  0.16976520  0.16909812  1
  Ni  Ni2  1  1.00103783  1.00120873  0.33455471  1
  Ni  Ni3  1  1.00077456  0.33509534  0.00253985  1
  Ni  Ni4  1  0.16664390  0.50162015  0.16797009  1
  Ni  Ni5  1  0.00363014  0.33388223  0.33424080  1
  Ni  Ni6  1  0.00230892  0.66723200  0.00235211  1
  Ni  Ni7  1  0.16922402  0.83240549  0.16835037  1
  Ni  Ni8  1  0.00164631  0.66870547  0.33397540  1
  Ni  Ni9  1  0.33514243  1.00066032  1.00069292  1
  Cr  Cr10  1  0.50112890  0.16583388  0.16663321  1
  Fe  Fe11  1  0.33342974  0.99997166  0.33553595  1
  Ni  Ni12  1  0.33474675  0.33451152  0.00141534  1
  Fe  Fe13  1  0.49935677  0.50303262  0.16745138  1
  Ni  Ni14  1  0.33186094  0.33583539  0.33528331  1
  Ni  Ni15  1  0.33402219  0.66862242  0.00180684  1
  Ni  Ni16  1  0.50069282  0.83443594  0.16853725  1
  Ni  Ni17  1  0.33472602  0.66761703  0.33445606  1
  Ni  Ni18  1  0.66687445  0.00218928  1.00040167  1
  Ni  Ni19  1  0.83547340  0.16870197  0.16778695  1
  Ni  Ni20  1  0.66937895  0.99835236  0.33505087  1
  Ni  Ni21  1  0.66826813  0.33397530  0.99997537  1
  Ni  Ni22  1  0.83752064  0.50135753  0.16738109  1
  Cr  Cr23  1  0.66829818  0.33536463  0.33533790  1
  Cr  Cr24  1  0.66800936  0.66791988  0.00167825  1
  Ni  Ni25  1  0.83387223  0.83373190  0.17038876  1
  Ni  Ni26  1  0.66741816  0.67023109  0.33430513  1
  Ni  Ni27  1  0.16826493  0.16873178  0.50085339  1
  Ni  Ni28  1  0.00191808  1.00093308  0.66817145  1
  Ni  Ni29  1  0.16918829  0.16724452  0.83384104  1
  Ni  Ni30  1  0.16673328  0.50131794  0.50080972  1
  Ni  Ni31  1  1.00084445  0.33376107  0.66701073  1
  Cr  Cr32  1  0.16677887  0.50161552  0.83483940  1
  Ni  Ni33  1  0.16909214  0.83373859  0.50123724  1
  Ni  Ni34  1  0.99983666  0.66910408  0.66746573  1
  Ni  Ni35  1  0.16918784  0.83496496  0.83420114  1
  Ni  Ni36  1  0.50096620  0.16613920  0.50235271  1
  Ni  Ni37  1  0.33417200  0.00193172  0.66805136  1
  Ni  Ni38  1  0.50188557  0.16726174  0.83477263  1
  Fe  Fe39  1  0.50004047  0.50136711  0.50232108  1
  Ni  Ni40  1  0.33556578  0.33308665  0.66709025  1
  Ni  Ni41  1  0.50248591  0.50033160  0.83389937  1
  Ni  Ni42  1  0.50102460  0.83545642  0.50085581  1
  Fe  Fe43  1  0.33529475  0.66918464  0.66726019  1
  Ni  Ni44  1  0.50063168  0.83620254  0.83440102  1
  Ni  Ni45  1  0.83455851  0.16849411  0.50170647  1
  Ni  Ni46  1  0.66770556  1.00092614  0.66834246  1
  Ni  Ni47  1  0.83271715  0.16910267  0.83429653  1
  Ni  Ni48  1  0.83628053  0.50137619  0.50226295  1
  Ni  Ni49  1  0.66737893  0.33515926  0.66851219  1
  Ni  Ni50  1  0.83395217  0.50032890  0.83414633  1
  Fe  Fe51  1  0.83501550  0.83507227  0.50120294  1
  Ni  Ni52  1  0.66837871  0.66770724  0.66781015  1
  Ni  Ni53  1  0.83397402  0.83435972  0.83260490  1
" 