5314,Ni82Fe13Cr3_8,-239.773029050362, 192.015613381684,Ni82Fe13Cr3,"# generated using pymatgen
 data_Cr3Fe7Ni44
_symmetry_space_group_name_H-M   'P 1'
_cell_length_a   7.44046301
_cell_length_b   7.44046301
_cell_length_c   10.52240370
_cell_angle_alpha   90.00000000
_cell_angle_beta   90.00000000
_cell_angle_gamma   90.00000000
_symmetry_Int_Tables_number   1
_chemical_formula_structural   Cr3Fe7Ni44
_chemical_formula_sum   'Cr3 Fe7 Ni44'
_cell_volume   582.52542310
_cell_formula_units_Z   1
loop_
 _symmetry_equiv_pos_site_id
 _symmetry_equiv_pos_as_xyz
  1  'x, y, z'
loop_
 _atom_site_type_symbol
 _atom_site_label
 _atom_site_symmetry_multiplicity
 _atom_site_fract_x
 _atom_site_fract_y
 _atom_site_fract_z
 _atom_site_occupancy
  Ni  Ni0  1  0.99956320  0.00183393  1.00162500  1
  Fe  Fe1  1  0.16660833  0.16939781  0.16936035  1
  Ni  Ni2  1  1.00177203  0.00233571  0.33471733  1
  Ni  Ni3  1  1.00012512  0.33588135  1.00139134  1
  Ni  Ni4  1  0.16818169  0.50226479  0.16897909  1
  Ni  Ni5  1  1.00129664  0.33566806  0.33514419  1
  Ni  Ni6  1  1.00096702  0.66764588  0.00194302  1
  Ni  Ni7  1  0.16631969  0.83452202  0.16991797  1
  Ni  Ni8  1  0.00236426  0.66735765  0.33466644  1
  Cr  Cr9  1  0.33487399  0.00285220  0.00206904  1
  Ni  Ni10  1  0.50305178  0.16939039  0.16871841  1
  Ni  Ni11  1  0.33601615  1.00082966  0.33521110  1
  Fe  Fe12  1  0.33507708  0.33490326  1.00109839  1
  Ni  Ni13  1  0.50192482  0.50031462  0.16876495  1
  Fe  Fe14  1  0.33491200  0.33537431  0.33565402  1
  Cr  Cr15  1  0.33354799  0.66675798  0.00241558  1
  Fe  Fe16  1  0.50379683  0.83489988  0.17090414  1
  Ni  Ni17  1  0.33542474  0.66886183  0.33516260  1
  Ni  Ni18  1  0.67061673  0.00411324  0.00271910  1
  Ni  Ni19  1  0.83412236  0.16753278  0.16808911  1
  Ni  Ni20  1  0.66757120  0.00189459  0.33471598  1
  Ni  Ni21  1  0.66917113  0.33448335  0.00189159  1
  Ni  Ni22  1  0.83525541  0.50217728  0.16813859  1
  Fe  Fe23  1  0.66886892  0.33516980  0.33496587  1
  Fe  Fe24  1  0.67223719  0.66739600  0.00298264  1
  Ni  Ni25  1  0.83607404  0.83565037  0.16773278  1
  Ni  Ni26  1  0.66757260  0.66838959  0.33466899  1
  Ni  Ni27  1  0.16863899  0.16804322  0.50130852  1
  Ni  Ni28  1  1.00165333  1.00149702  0.66901856  1
  Ni  Ni29  1  0.16787679  0.16910570  0.83511990  1
  Ni  Ni30  1  0.16863952  0.50219875  0.50174405  1
  Ni  Ni31  1  1.00117913  0.33578406  0.66882442  1
  Ni  Ni32  1  0.16788125  0.50109807  0.83463812  1
  Ni  Ni33  1  0.16863016  0.83511737  0.50211602  1
  Ni  Ni34  1  0.00300108  0.66807794  0.66875127  1
  Ni  Ni35  1  0.16492479  0.83515522  0.83332607  1
  Ni  Ni36  1  0.50178334  0.16804833  0.50227288  1
  Ni  Ni37  1  0.33517546  0.00184502  0.66774355  1
  Ni  Ni38  1  0.50242520  0.17102035  0.83437187  1
  Ni  Ni39  1  0.50146343  0.50187372  0.50195380  1
  Ni  Ni40  1  0.33599797  0.33578425  0.66949234  1
  Ni  Ni41  1  0.50205334  0.49881039  0.83464191  1
  Ni  Ni42  1  0.50146691  0.83543707  0.50097466  1
  Ni  Ni43  1  0.33383319  0.66773039  0.66747748  1
  Cr  Cr44  1  0.50321763  0.83564623  0.83361061  1
  Ni  Ni45  1  0.83493673  0.16804001  0.50174311  1
  Ni  Ni46  1  0.66853028  0.00366531  0.66792450  1
  Ni  Ni47  1  0.83505540  0.16806368  0.83552676  1
  Ni  Ni48  1  0.83525729  0.50188167  0.50142349  1
  Ni  Ni49  1  0.66818262  0.33444025  0.66832845  1
  Ni  Ni50  1  0.83542790  0.50176699  0.83579503  1
  Ni  Ni51  1  0.83526372  0.83543795  0.50179642  1
  Fe  Fe52  1  0.66931415  0.66747329  0.66706856  1
  Ni  Ni53  1  0.83734783  0.83552977  0.83583038  1
" 