2373,Ni82Fe8Cr9_6,-236.679378975165, 178.940321538702,Ni82Fe8Cr9,"# generated using pymatgen
 data_Cr3(FeNi11)2
_symmetry_space_group_name_H-M   'P 1'
_cell_length_a   7.45292710
_cell_length_b   7.45292710
_cell_length_c   10.54003058
_cell_angle_alpha   90.00000000
_cell_angle_beta   90.00000000
_cell_angle_gamma   90.00000000
_symmetry_Int_Tables_number   1
_chemical_formula_structural   Cr3(FeNi11)2
_chemical_formula_sum   'Cr6 Fe4 Ni44'
_cell_volume   585.45782766
_cell_formula_units_Z   2
loop_
 _symmetry_equiv_pos_site_id
 _symmetry_equiv_pos_as_xyz
  1  'x, y, z'
loop_
 _atom_site_type_symbol
 _atom_site_label
 _atom_site_symmetry_multiplicity
 _atom_site_fract_x
 _atom_site_fract_y
 _atom_site_fract_z
 _atom_site_occupancy
  Cr  Cr0  1  1.00090119  1.00057797  0.00133766  1
  Ni  Ni1  1  0.16888294  0.16818485  0.16836080  1
  Fe  Fe2  1  1.00046616  1.00092273  0.33433157  1
  Ni  Ni3  1  0.00198927  0.33566821  1.00053734  1
  Ni  Ni4  1  0.16767975  0.50089793  0.16742225  1
  Fe  Fe5  1  0.00106894  0.33310548  0.33487870  1
  Ni  Ni6  1  0.00174401  0.66646459  0.99981964  1
  Ni  Ni7  1  0.16854954  0.83375940  0.16818149  1
  Ni  Ni8  1  0.00103853  0.66875043  0.33474841  1
  Ni  Ni9  1  0.33605265  0.00119404  1.00087709  1
  Ni  Ni10  1  0.50062222  0.16597594  0.16713921  1
  Ni  Ni11  1  0.33345985  0.00121583  0.33320772  1
  Ni  Ni12  1  0.33253415  0.33272797  0.00130432  1
  Cr  Cr13  1  0.50002247  0.50077816  0.16720463  1
  Ni  Ni14  1  0.33284601  0.33324217  0.33394726  1
  Ni  Ni15  1  0.33229089  0.66892236  0.00202090  1
  Ni  Ni16  1  0.50070107  0.83624030  0.16747609  1
  Fe  Fe17  1  0.33470382  0.66870417  0.33488071  1
  Ni  Ni18  1  0.66586334  0.00094746  0.00136298  1
  Ni  Ni19  1  0.83333031  0.16683947  0.16863899  1
  Ni  Ni20  1  0.66824320  1.00013533  0.33300448  1
  Ni  Ni21  1  0.66832086  0.33190198  1.00049188  1
  Cr  Cr22  1  0.83518280  0.50108494  0.16622403  1
  Ni  Ni23  1  0.66787488  0.33334265  0.33506694  1
  Ni  Ni24  1  0.66880646  0.66999394  1.00049172  1
  Ni  Ni25  1  0.83359816  0.83502915  0.16849052  1
  Ni  Ni26  1  0.66901021  0.66936289  0.33611209  1
  Ni  Ni27  1  0.16692774  0.16793662  0.50030912  1
  Cr  Cr28  1  1.00089340  1.00077556  0.66743064  1
  Ni  Ni29  1  0.16933675  0.16918521  0.83417021  1
  Fe  Fe30  1  0.16725276  0.50125620  0.50143966  1
  Ni  Ni31  1  0.00106371  0.33591338  0.66731110  1
  Ni  Ni32  1  0.16547277  0.50089863  0.83426422  1
  Ni  Ni33  1  0.16836873  0.83382975  0.50030233  1
  Ni  Ni34  1  1.00081582  0.66598915  0.66827086  1
  Ni  Ni35  1  0.16916978  0.83275742  0.83435913  1
  Cr  Cr36  1  0.50072228  0.16789468  0.50196222  1
  Ni  Ni37  1  0.33502027  1.00037728  0.66876351  1
  Ni  Ni38  1  0.50078180  0.16592248  0.83448678  1
  Ni  Ni39  1  0.50192234  0.50258336  0.50082048  1
  Ni  Ni40  1  0.33264721  0.33402465  0.66759880  1
  Cr  Cr41  1  0.50135754  0.50075503  0.83452540  1
  Ni  Ni42  1  0.50065836  0.83191984  0.50124884  1
  Ni  Ni43  1  0.33345189  0.66844050  0.66583143  1
  Ni  Ni44  1  0.50077258  0.83619960  0.83411249  1
  Ni  Ni45  1  0.83532806  0.16920055  0.50008929  1
  Ni  Ni46  1  0.66668014  1.00012879  0.66848090  1
  Ni  Ni47  1  0.83272246  0.16962086  0.83411394  1
  Ni  Ni48  1  0.83341942  0.50115232  0.50147146  1
  Ni  Ni49  1  0.66912930  0.33434234  0.66728226  1
  Ni  Ni50  1  0.83616550  0.50088937  0.83436243  1
  Ni  Ni51  1  0.83382030  0.83249090  0.50005408  1
  Ni  Ni52  1  0.66857173  0.66836926  0.66623087  1
  Ni  Ni53  1  0.83289863  0.83233086  0.83430301  1
" 