5742,Ni82Fe3Cr13_9,-233.333157456551, 159.510170393761,Ni82Fe3Cr13,"# generated using pymatgen
 data_Cr9FeNi44
_symmetry_space_group_name_H-M   'P 1'
_cell_length_a   7.47045471
_cell_length_b   7.47045471
_cell_length_c   10.56481837
_cell_angle_alpha   90.00000000
_cell_angle_beta   90.00000000
_cell_angle_gamma   90.00000000
_symmetry_Int_Tables_number   1
_chemical_formula_structural   Cr9FeNi44
_chemical_formula_sum   'Cr9 Fe1 Ni44'
_cell_volume   589.59814635
_cell_formula_units_Z   1
loop_
 _symmetry_equiv_pos_site_id
 _symmetry_equiv_pos_as_xyz
  1  'x, y, z'
loop_
 _atom_site_type_symbol
 _atom_site_label
 _atom_site_symmetry_multiplicity
 _atom_site_fract_x
 _atom_site_fract_y
 _atom_site_fract_z
 _atom_site_occupancy
  Ni  Ni0  1  0.99747764  0.99975332  0.99940980  1
  Ni  Ni1  1  0.16569528  0.16752340  0.16705104  1
  Ni  Ni2  1  0.99956404  0.99956503  0.33318352  1
  Ni  Ni3  1  -0.00013982  0.33230939  0.00002318  1
  Ni  Ni4  1  0.16552881  0.49886232  0.16721738  1
  Ni  Ni5  1  0.00023814  0.33253171  0.33295954  1
  Ni  Ni6  1  0.99870138  0.66725283  0.00027696  1
  Ni  Ni7  1  0.16314403  0.83293036  0.16805645  1
  Ni  Ni8  1  0.00078899  0.66721848  0.33254028  1
  Cr  Cr9  1  0.33225726  0.00130747  0.99896701  1
  Ni  Ni10  1  0.50044390  0.16923455  0.16721733  1
  Ni  Ni11  1  0.33253281  0.00023693  0.33456450  1
  Ni  Ni12  1  0.33347803  0.33347876  0.99905500  1
  Ni  Ni13  1  0.50077733  0.49731984  0.16686262  1
  Ni  Ni14  1  0.33269871  0.33269969  0.33259369  1
  Cr  Cr15  1  0.33230042  0.66438089  0.99946199  1
  Cr  Cr16  1  0.50100580  0.83322706  0.16821483  1
  Ni  Ni17  1  0.33147567  0.66637910  0.33340157  1
  Ni  Ni18  1  0.66952910  0.00097730  0.99827020  1
  Ni  Ni19  1  0.83317688  0.16685118  0.16627273  1
  Ni  Ni20  1  0.66721859  0.00078833  0.33454744  1
  Ni  Ni21  1  0.66597791  0.33225534  0.00063170  1
  Ni  Ni22  1  0.83301002  0.49986771  0.16643828  1
  Ni  Ni23  1  0.66637904  0.33147409  0.33134713  1
  Ni  Ni24  1  0.66835957  0.66608415  0.99899654  1
  Ni  Ni25  1  0.83471909  0.83259684  0.16604800  1
  Ni  Ni26  1  0.66705084  0.66705407  0.33281620  1
  Ni  Ni27  1  0.16799991  0.16639897  0.49844091  1
  Cr  Cr28  1  0.99911833  0.99847609  0.66648828  1
  Ni  Ni29  1  0.16763272  0.16736654  0.83382379  1
  Ni  Ni30  1  0.16683441  0.50037823  0.49959454  1
  Cr  Cr31  1  0.00199816  0.33322892  0.66589654  1
  Ni  Ni32  1  0.16817563  0.49959905  0.83250469  1
  Ni  Ni33  1  0.16715684  0.83253980  0.49904269  1
  Ni  Ni34  1  0.00235842  0.66797392  0.66649928  1
  Ni  Ni35  1  0.16578716  0.83235113  0.83221901  1
  Ni  Ni36  1  0.49890716  0.16368785  0.49926228  1
  Ni  Ni37  1  0.33543103  0.99885662  0.66630898  1
  Ni  Ni38  1  0.49946250  0.16636543  0.83283659  1
  Cr  Cr39  1  0.49780881  0.50039842  0.49904089  1
  Ni  Ni40  1  0.33288782  0.33333612  0.66766756  1
  Ni  Ni41  1  0.49799427  0.49967637  0.83333632  1
  Ni  Ni42  1  0.49982578  0.83517448  0.50031292  1
  Ni  Ni43  1  0.33184439  0.66712360  0.66731212  1
  Ni  Ni44  1  0.50138440  0.83327500  0.83078245  1
  Ni  Ni45  1  0.83240865  0.16400800  0.49758214  1
  Ni  Ni46  1  0.66457852  0.99851153  0.66649796  1
  Ni  Ni47  1  0.83222036  0.16397680  0.83545935  1
  Cr  Cr48  1  0.83487273  0.50102156  0.49844513  1
  Cr  Cr49  1  0.66477058  0.33012533  0.66689119  1
  Cr  Cr50  1  0.83342875  0.50123002  0.83442536  1
  Ni  Ni51  1  0.83233254  0.83401063  0.49934668  1
  Fe  Fe52  1  0.66493245  0.67061622  0.66732329  1
  Ni  Ni53  1  0.83214411  0.83381915  0.83392010  1
" 