4361,Ni82Fe7Cr9_6,-236.741924112381, 178.24341132003,Ni82Fe7Cr9,"# generated using pymatgen
 data_Cr3(FeNi11)2
_symmetry_space_group_name_H-M   'P 1'
_cell_length_a   7.45534046
_cell_length_b   7.45534046
_cell_length_c   10.54344359
_cell_angle_alpha   90.00000000
_cell_angle_beta   90.00000000
_cell_angle_gamma   90.00000000
_symmetry_Int_Tables_number   1
_chemical_formula_structural   Cr3(FeNi11)2
_chemical_formula_sum   'Cr6 Fe4 Ni44'
_cell_volume   586.02675106
_cell_formula_units_Z   2
loop_
 _symmetry_equiv_pos_site_id
 _symmetry_equiv_pos_as_xyz
  1  'x, y, z'
loop_
 _atom_site_type_symbol
 _atom_site_label
 _atom_site_symmetry_multiplicity
 _atom_site_fract_x
 _atom_site_fract_y
 _atom_site_fract_z
 _atom_site_occupancy
  Ni  Ni0  1  0.00104476  1.00044468  1.00032833  1
  Ni  Ni1  1  0.16753244  0.16737153  0.16782995  1
  Ni  Ni2  1  0.00091627  0.00274747  0.33450768  1
  Ni  Ni3  1  0.00093505  0.33431329  0.00119856  1
  Ni  Ni4  1  0.16753504  0.49921362  0.16668299  1
  Ni  Ni5  1  1.00065275  0.33226868  0.33391225  1
  Ni  Ni6  1  0.00093858  0.66759682  1.00021047  1
  Ni  Ni7  1  0.16722596  0.83576877  0.16553879  1
  Cr  Cr8  1  0.99913430  0.66704168  0.33377775  1
  Ni  Ni9  1  0.33325701  0.00130225  0.00190832  1
  Ni  Ni10  1  0.50051866  0.16767803  0.16740083  1
  Ni  Ni11  1  0.33417866  0.00270998  0.33394922  1
  Ni  Ni12  1  0.33411472  0.33420331  1.00032816  1
  Ni  Ni13  1  0.50181226  0.50020540  0.16683685  1
  Ni  Ni14  1  0.33413507  0.33200686  0.33450970  1
  Ni  Ni15  1  0.33325241  0.66684954  0.00119685  1
  Ni  Ni16  1  0.50181598  0.83447291  0.16767542  1
  Cr  Cr17  1  0.33580423  0.66781948  0.33403710  1
  Ni  Ni18  1  0.66805399  0.00130705  0.00119412  1
  Ni  Ni19  1  0.83430422  0.16736954  0.16854525  1
  Ni  Ni20  1  0.66725995  0.00085609  0.33447464  1
  Ni  Ni21  1  0.66730676  0.33430939  1.00020820  1
  Ni  Ni22  1  0.83300863  0.50051099  0.16655752  1
  Ni  Ni23  1  0.66756684  0.33412199  0.33450633  1
  Ni  Ni24  1  0.66816479  0.66673910  0.00219656  1
  Ni  Ni25  1  0.83331471  0.83447426  0.16683551  1
  Ni  Ni26  1  0.66752656  0.66737860  0.33395154  1
  Ni  Ni27  1  0.16836026  0.16654952  0.49896149  1
  Ni  Ni28  1  0.99934310  0.99858837  0.66751949  1
  Ni  Ni29  1  0.16712565  0.16777735  0.83556793  1
  Fe  Fe30  1  0.16833697  0.49995571  0.50182662  1
  Cr  Cr31  1  0.00079250  0.33398733  0.66756836  1
  Ni  Ni32  1  0.16900394  0.50170640  0.83356243  1
  Ni  Ni33  1  0.16535498  0.83553581  0.50253996  1
  Ni  Ni34  1  0.00264579  0.66944673  0.66763246  1
  Ni  Ni35  1  0.16398613  0.83287226  0.83427533  1
  Ni  Ni36  1  0.50074219  0.16954850  0.50067940  1
  Cr  Cr37  1  0.33349625  0.00153723  0.66717685  1
  Ni  Ni38  1  0.50202900  0.17091890  0.83427626  1
  Ni  Ni39  1  0.50158083  0.49833927  0.50124393  1
  Ni  Ni40  1  0.33596384  0.33591238  0.66751503  1
  Ni  Ni41  1  0.49934969  0.49776218  0.83427573  1
  Fe  Fe42  1  0.50166736  0.83494693  0.49953775  1
  Ni  Ni43  1  0.33147051  0.66506778  0.66667952  1
  Cr  Cr44  1  0.50104996  0.83385597  0.83519077  1
  Fe  Fe45  1  0.83324226  0.16656543  0.50001086  1
  Ni  Ni46  1  0.66983403  0.00308440  0.66668620  1
  Ni  Ni47  1  0.83319976  0.16589874  0.83356322  1
  Ni  Ni48  1  0.83218896  0.50134147  0.50023350  1
  Ni  Ni49  1  0.66545067  0.33260775  0.66763940  1
  Fe  Fe50  1  0.83447191  0.50043171  0.83578449  1
  Ni  Ni51  1  0.83518565  0.83469453  0.50124253  1
  Cr  Cr52  1  0.66807009  0.66683346  0.66663439  1
  Ni  Ni53  1  0.83714531  0.83555075  0.83427540  1
" 