4762,Ni82Fe3Cr14_14,-233.583211298471, 161.529950004806,Ni82Fe3Cr14,"# generated using pymatgen
 data_Cr9FeNi44
_symmetry_space_group_name_H-M   'P 1'
_cell_length_a   7.46658810
_cell_length_b   7.46658810
_cell_length_c   10.55935016
_cell_angle_alpha   90.00000000
_cell_angle_beta   90.00000000
_cell_angle_gamma   90.00000000
_symmetry_Int_Tables_number   1
_chemical_formula_structural   Cr9FeNi44
_chemical_formula_sum   'Cr9 Fe1 Ni44'
_cell_volume   588.68311586
_cell_formula_units_Z   1
loop_
 _symmetry_equiv_pos_site_id
 _symmetry_equiv_pos_as_xyz
  1  'x, y, z'
loop_
 _atom_site_type_symbol
 _atom_site_label
 _atom_site_symmetry_multiplicity
 _atom_site_fract_x
 _atom_site_fract_y
 _atom_site_fract_z
 _atom_site_occupancy
  Ni  Ni0  1  0.99931608  0.99941061  0.99865664  1
  Cr  Cr1  1  0.16679835  0.16656534  0.16689804  1
  Ni  Ni2  1  0.99961889  0.99985779  0.33523670  1
  Ni  Ni3  1  0.99897860  0.33420818  0.99837627  1
  Ni  Ni4  1  0.16552759  0.50106883  0.16546853  1
  Ni  Ni5  1  0.99706221  0.33304709  0.33404815  1
  Ni  Ni6  1  0.00059203  0.66646736  0.00073307  1
  Ni  Ni7  1  0.16567667  0.83230999  0.16598377  1
  Ni  Ni8  1  0.99795664  0.66716988  0.33220741  1
  Ni  Ni9  1  0.33332681  0.99787737  0.99995122  1
  Ni  Ni10  1  0.50178859  0.16649132  0.16681663  1
  Ni  Ni11  1  0.33322699  0.99921236  0.33387944  1
  Ni  Ni12  1  0.33341654  0.33543475  0.00057190  1
  Ni  Ni13  1  0.50115370  0.49913899  0.16588203  1
  Fe  Fe14  1  0.33445716  0.33262218  0.33184074  1
  Ni  Ni15  1  0.33331284  0.66675399  0.99927547  1
  Ni  Ni16  1  0.50118526  0.83439229  0.16574513  1
  Cr  Cr17  1  0.33438239  0.66850687  0.33307398  1
  Ni  Ni18  1  0.66745320  0.99951865  0.00123041  1
  Ni  Ni19  1  0.83131453  0.16662821  0.16662376  1
  Ni  Ni20  1  0.66723570  0.99996275  0.33248039  1
  Ni  Ni21  1  0.66772339  0.33417603  0.00088383  1
  Ni  Ni22  1  0.83343456  0.50046555  0.16711523  1
  Ni  Ni23  1  0.66859307  0.33412722  0.33272564  1
  Ni  Ni24  1  0.66616862  0.66639114  0.99978948  1
  Ni  Ni25  1  0.83321301  0.83298916  0.16706315  1
  Ni  Ni26  1  0.66786915  0.66597680  0.33432955  1
  Ni  Ni27  1  0.16312381  0.16469956  0.49882356  1
  Ni  Ni28  1  0.99810442  0.00251649  0.66618165  1
  Ni  Ni29  1  0.16317807  0.16687038  0.83421622  1
  Cr  Cr30  1  0.16420308  0.49829919  0.49781801  1
  Ni  Ni31  1  0.99668040  0.33023085  0.66759266  1
  Ni  Ni32  1  0.16568973  0.49901012  0.83645815  1
  Ni  Ni33  1  0.16462979  0.83714061  0.49812082  1
  Cr  Cr34  1  0.99803577  0.66762186  0.66723842  1
  Ni  Ni35  1  0.16555412  0.83422609  0.83606714  1
  Cr  Cr36  1  0.50178637  0.16661945  0.49798635  1
  Cr  Cr37  1  0.33099158  0.99760185  0.66654573  1
  Cr  Cr38  1  0.50215111  0.16637703  0.83573263  1
  Ni  Ni39  1  0.50480675  0.50108329  0.49981725  1
  Cr  Cr40  1  0.33225976  0.33453937  0.66713689  1
  Ni  Ni41  1  0.50175689  0.50188465  0.83439590  1
  Ni  Ni42  1  0.50310581  0.83264030  0.49978792  1
  Cr  Cr43  1  0.33613610  0.66786992  0.66791073  1
  Ni  Ni44  1  0.50205259  0.83141024  0.83459212  1
  Ni  Ni45  1  0.83524966  0.16652308  0.50070822  1
  Ni  Ni46  1  0.67049445  0.99852534  0.66643740  1
  Ni  Ni47  1  0.83543630  0.16657914  0.83273454  1
  Ni  Ni48  1  0.83067500  0.49949622  0.49935819  1
  Ni  Ni49  1  0.67083193  0.33527232  0.66649752  1
  Ni  Ni50  1  0.83267485  0.49944751  0.83363767  1
  Ni  Ni51  1  0.83235829  0.83408163  0.49917703  1
  Ni  Ni52  1  0.66640763  0.66627538  0.66595994  1
  Ni  Ni53  1  0.83250483  0.83404907  0.83384237  1
" 