254,Ni82Fe9Cr8_0,-237.551946871048, 181.925391866912,Ni82Fe9Cr8,"# generated using pymatgen
 data_Cr5Fe5Ni44
_symmetry_space_group_name_H-M   'P 1'
_cell_length_a   7.44755860
_cell_length_b   7.44755860
_cell_length_c   10.53243838
_cell_angle_alpha   90.00000000
_cell_angle_beta   90.00000000
_cell_angle_gamma   90.00000000
_symmetry_Int_Tables_number   1
_chemical_formula_structural   Cr5Fe5Ni44
_chemical_formula_sum   'Cr5 Fe5 Ni44'
_cell_volume   584.19358638
_cell_formula_units_Z   1
loop_
 _symmetry_equiv_pos_site_id
 _symmetry_equiv_pos_as_xyz
  1  'x, y, z'
loop_
 _atom_site_type_symbol
 _atom_site_label
 _atom_site_symmetry_multiplicity
 _atom_site_fract_x
 _atom_site_fract_y
 _atom_site_fract_z
 _atom_site_occupancy
  Cr  Cr0  1  0.00337060  0.00166604  0.00235714  1
  Ni  Ni1  1  0.16925483  0.17024425  0.16838353  1
  Ni  Ni2  1  0.00237660  1.00059630  0.33225999  1
  Ni  Ni3  1  1.00088031  0.33630318  0.00238124  1
  Ni  Ni4  1  0.16884914  0.50077621  0.16860381  1
  Ni  Ni5  1  1.00095066  0.33641040  0.33329696  1
  Ni  Ni6  1  1.00056910  0.66664352  0.00295870  1
  Ni  Ni7  1  0.16959706  0.83257007  0.16924976  1
  Ni  Ni8  1  0.00148897  0.66705166  0.33434078  1
  Ni  Ni9  1  0.33640399  0.00194552  1.00117845  1
  Ni  Ni10  1  0.50169717  0.16786949  0.16881458  1
  Ni  Ni11  1  0.33540833  1.00078169  0.33350817  1
  Ni  Ni12  1  0.33603515  0.33262287  0.00218212  1
  Fe  Fe13  1  0.50105964  0.50055228  0.16799001  1
  Ni  Ni14  1  0.33574973  0.33492489  0.33397368  1
  Fe  Fe15  1  0.33531086  0.66850841  0.00146147  1
  Ni  Ni16  1  0.50202981  0.83446310  0.16769286  1
  Fe  Fe17  1  0.33500298  0.66793196  0.33552053  1
  Ni  Ni18  1  0.66459780  0.00187816  0.00234107  1
  Ni  Ni19  1  0.83293191  0.16874302  0.16911091  1
  Ni  Ni20  1  0.66606601  0.00151164  0.33363877  1
  Ni  Ni21  1  0.66698550  0.33519855  0.00133208  1
  Fe  Fe22  1  0.83475924  0.50128943  0.16803946  1
  Ni  Ni23  1  0.66724411  0.33551354  0.33492261  1
  Ni  Ni24  1  0.66767336  0.66678688  0.00202433  1
  Ni  Ni25  1  0.83263293  0.83418674  0.16919984  1
  Ni  Ni26  1  0.66777334  0.66686417  0.33395711  1
  Cr  Cr27  1  0.16684049  0.16878323  0.50088396  1
  Ni  Ni28  1  0.00322027  0.00211087  0.66910933  1
  Ni  Ni29  1  0.16927000  0.16859382  0.83463325  1
  Ni  Ni30  1  0.16884263  0.50169676  0.50126139  1
  Ni  Ni31  1  0.99954030  0.33511151  0.66822142  1
  Cr  Cr32  1  0.16862654  0.50055095  0.83376486  1
  Ni  Ni33  1  0.17020406  0.83318445  0.50113250  1
  Ni  Ni34  1  0.00212854  0.66676190  0.66665887  1
  Ni  Ni35  1  0.17079179  0.83478330  0.83350475  1
  Fe  Fe36  1  0.50195600  0.16806898  0.50086220  1
  Ni  Ni37  1  0.33543465  1.00025453  0.66929595  1
  Ni  Ni38  1  0.50151246  0.16842306  0.83416973  1
  Ni  Ni39  1  0.50109447  0.50180213  0.50084677  1
  Ni  Ni40  1  0.33710244  0.33471283  0.66783232  1
  Ni  Ni41  1  0.50254584  0.50112806  0.83533447  1
  Ni  Ni42  1  0.50057577  0.83385356  0.50127566  1
  Ni  Ni43  1  0.33617941  0.66885338  0.66694354  1
  Ni  Ni44  1  0.50035963  0.83439167  0.83495080  1
  Ni  Ni45  1  0.83306818  0.16975437  0.50080520  1
  Ni  Ni46  1  0.66506083  0.00320315  0.66788275  1
  Ni  Ni47  1  0.83318220  0.17052967  0.83395470  1
  Ni  Ni48  1  0.83418391  0.49960520  0.50115047  1
  Ni  Ni49  1  0.66739082  0.33570897  0.66779272  1
  Ni  Ni50  1  0.83293042  0.49947034  0.83494611  1
  Cr  Cr51  1  0.83360961  0.83647647  0.50155320  1
  Ni  Ni52  1  0.66580442  0.66533213  0.66814982  1
  Cr  Cr53  1  0.83249967  0.83367522  0.83301776  1
" 