8830,Ni82Fe3Cr14_13,-233.45384425709, 162.7649943398,Ni82Fe3Cr14,"# generated using pymatgen
 data_Cr9FeNi44
_symmetry_space_group_name_H-M   'P 1'
_cell_length_a   7.47074346
_cell_length_b   7.47074346
_cell_length_c   10.56522672
_cell_angle_alpha   90.00000000
_cell_angle_beta   90.00000000
_cell_angle_gamma   90.00000000
_symmetry_Int_Tables_number   1
_chemical_formula_structural   Cr9FeNi44
_chemical_formula_sum   'Cr9 Fe1 Ni44'
_cell_volume   589.66651654
_cell_formula_units_Z   1
loop_
 _symmetry_equiv_pos_site_id
 _symmetry_equiv_pos_as_xyz
  1  'x, y, z'
loop_
 _atom_site_type_symbol
 _atom_site_label
 _atom_site_symmetry_multiplicity
 _atom_site_fract_x
 _atom_site_fract_y
 _atom_site_fract_z
 _atom_site_occupancy
  Ni  Ni0  1  0.00144914  0.00122209  0.99840767  1
  Ni  Ni1  1  0.16926507  0.16802882  0.16530938  1
  Ni  Ni2  1  0.00043801  0.99849981  0.33507071  1
  Ni  Ni3  1  0.00144297  0.33301424  0.00012804  1
  Ni  Ni4  1  0.16672323  0.49703803  0.16548300  1
  Cr  Cr5  1  0.00060613  0.33395892  0.33344836  1
  Cr  Cr6  1  0.99953513  0.66518445  0.99834990  1
  Cr  Cr7  1  0.16683252  0.83432339  0.16659348  1
  Ni  Ni8  1  0.99776399  0.66676852  0.33440671  1
  Ni  Ni9  1  0.33233837  0.00240186  0.99944341  1
  Ni  Ni10  1  0.49800223  0.16780074  0.16641866  1
  Ni  Ni11  1  0.33315374  0.00294998  0.33420810  1
  Ni  Ni12  1  0.33311788  0.33260905  0.00035454  1
  Fe  Fe13  1  0.50029964  0.49686402  0.16549830  1
  Ni  Ni14  1  0.33467141  0.33104781  0.33242586  1
  Ni  Ni15  1  0.33386019  0.66424102  0.99898266  1
  Cr  Cr16  1  0.50042392  0.83418167  0.16552268  1
  Cr  Cr17  1  0.33267141  0.66512129  0.33446386  1
  Ni  Ni18  1  0.66547316  0.00047765  0.99926279  1
  Cr  Cr19  1  0.83239934  0.16728406  0.16552569  1
  Ni  Ni20  1  0.66566719  0.00028244  0.33526009  1
  Ni  Ni21  1  0.66469666  0.33453603  0.00017734  1
  Ni  Ni22  1  0.83203841  0.49953033  0.16636020  1
  Ni  Ni23  1  0.66415445  0.33372004  0.33347538  1
  Ni  Ni24  1  0.66587960  0.66424038  0.99935595  1
  Cr  Cr25  1  0.83200018  0.83235168  0.16723956  1
  Ni  Ni26  1  0.66860847  0.66525214  0.33412314  1
  Ni  Ni27  1  0.16727793  0.16541407  0.49981776  1
  Ni  Ni28  1  0.00062585  0.99864326  0.66578134  1
  Ni  Ni29  1  0.16777923  0.16642510  0.83413168  1
  Ni  Ni30  1  0.16634470  0.50004019  0.50109944  1
  Ni  Ni31  1  0.00062615  0.33419016  0.66591741  1
  Ni  Ni32  1  0.16716447  0.49922380  0.83267369  1
  Ni  Ni33  1  0.16569958  0.83380335  0.50001689  1
  Ni  Ni34  1  0.99974882  0.66642473  0.66628096  1
  Ni  Ni35  1  0.16578738  0.83361038  0.83288198  1
  Ni  Ni36  1  0.49998236  0.16605897  0.49917557  1
  Ni  Ni37  1  0.33215299  0.00056960  0.66560528  1
  Ni  Ni38  1  0.49823864  0.16780130  0.83366371  1
  Ni  Ni39  1  0.50068593  0.49916693  0.49975804  1
  Ni  Ni40  1  0.33303336  0.33314313  0.66647755  1
  Ni  Ni41  1  0.49967420  0.49866744  0.83419130  1
  Ni  Ni42  1  0.50068642  0.83403078  0.50010964  1
  Ni  Ni43  1  0.33198445  0.66554565  0.66591794  1
  Cr  Cr44  1  0.49960276  0.83291772  0.83340050  1
  Ni  Ni45  1  0.83199792  0.16541432  0.50005340  1
  Ni  Ni46  1  0.66647887  0.99969170  0.66473204  1
  Cr  Cr47  1  0.83312265  0.16668207  0.83335575  1
  Ni  Ni48  1  0.83222715  0.50074450  0.50004821  1
  Ni  Ni49  1  0.66559798  0.33402135  0.66560476  1
  Ni  Ni50  1  0.83241905  0.50066116  0.83284837  1
  Ni  Ni51  1  0.83287151  0.83309895  0.49896486  1
  Ni  Ni52  1  0.66752492  0.66554535  0.66578140  1
  Ni  Ni53  1  0.83379511  0.83217637  0.83305792  1
" 