2023,Ni82Fe8Cr9_8,-236.687354734559, 179.641825984411,Ni82Fe8Cr9,"# generated using pymatgen
 data_Cr3(FeNi11)2
_symmetry_space_group_name_H-M   'P 1'
_cell_length_a   7.45241683
_cell_length_b   7.45241683
_cell_length_c   10.53930896
_cell_angle_alpha   90.00000000
_cell_angle_beta   90.00000000
_cell_angle_gamma   90.00000000
_symmetry_Int_Tables_number   1
_chemical_formula_structural   Cr3(FeNi11)2
_chemical_formula_sum   'Cr6 Fe4 Ni44'
_cell_volume   585.33758649
_cell_formula_units_Z   2
loop_
 _symmetry_equiv_pos_site_id
 _symmetry_equiv_pos_as_xyz
  1  'x, y, z'
loop_
 _atom_site_type_symbol
 _atom_site_label
 _atom_site_symmetry_multiplicity
 _atom_site_fract_x
 _atom_site_fract_y
 _atom_site_fract_z
 _atom_site_occupancy
  Ni  Ni0  1  0.00274186  0.00165008  0.00142035  1
  Ni  Ni1  1  0.16763695  0.16778327  0.16860052  1
  Ni  Ni2  1  1.00057866  0.99948004  0.33438664  1
  Ni  Ni3  1  1.00025012  0.33350010  0.00203028  1
  Ni  Ni4  1  0.16802272  0.50101350  0.16825891  1
  Ni  Ni5  1  1.00004151  0.33480818  0.33261070  1
  Ni  Ni6  1  0.00299152  0.66787236  0.00257668  1
  Ni  Ni7  1  0.16774020  0.83415869  0.16734896  1
  Ni  Ni8  1  0.00135939  0.66858072  0.33379180  1
  Ni  Ni9  1  0.33400947  1.00085192  0.00101450  1
  Ni  Ni10  1  0.50035053  0.16644550  0.16706220  1
  Ni  Ni11  1  0.33524149  0.99935184  0.33342402  1
  Ni  Ni12  1  0.33543666  0.33338921  0.00168436  1
  Ni  Ni13  1  0.49867942  0.50121236  0.16783594  1
  Ni  Ni14  1  0.33553231  0.33460899  0.33343686  1
  Ni  Ni15  1  0.33361342  0.66883557  1.00082533  1
  Ni  Ni16  1  0.50036575  0.83555538  0.16830742  1
  Ni  Ni17  1  0.33432325  0.66907724  0.33403024  1
  Ni  Ni18  1  0.66614214  0.00363664  0.00160942  1
  Ni  Ni19  1  0.83492706  0.16607010  0.16631706  1
  Ni  Ni20  1  0.66702245  1.00041390  0.33501518  1
  Ni  Ni21  1  0.66742989  0.33310407  1.00023885  1
  Ni  Ni22  1  0.83639282  0.50104628  0.16714444  1
  Cr  Cr23  1  0.66774143  0.33354378  0.33373217  1
  Cr  Cr24  1  0.66679046  0.66635529  0.00291339  1
  Ni  Ni25  1  0.83479840  0.83594174  0.16947441  1
  Fe  Fe26  1  0.66740405  0.66852916  0.33422558  1
  Cr  Cr27  1  0.16749019  0.16637203  0.49958689  1
  Ni  Ni28  1  0.00239129  1.00088344  0.66737594  1
  Ni  Ni29  1  0.16743076  0.16631506  0.83418614  1
  Cr  Cr30  1  0.16767803  0.50157591  0.50071258  1
  Ni  Ni31  1  0.99716843  0.33379663  0.66819589  1
  Cr  Cr32  1  0.16702153  0.50111904  0.83410295  1
  Ni  Ni33  1  0.16838648  0.83410455  0.50144129  1
  Ni  Ni34  1  1.00000957  0.66833639  0.66696677  1
  Ni  Ni35  1  0.16911657  0.83586140  0.83414528  1
  Ni  Ni36  1  0.50241138  0.16636825  0.50167989  1
  Ni  Ni37  1  0.33500413  0.99955394  0.66834657  1
  Ni  Ni38  1  0.50134697  0.16713851  0.83423515  1
  Ni  Ni39  1  0.50230154  0.50220583  0.50187762  1
  Fe  Fe40  1  0.33628215  0.33186791  0.66810982  1
  Ni  Ni41  1  0.50177835  0.50054108  0.83287505  1
  Ni  Ni42  1  0.50092659  0.83467310  0.50066298  1
  Fe  Fe43  1  0.33592253  0.67026259  0.66760775  1
  Ni  Ni44  1  0.49940071  0.83519598  0.83381021  1
  Ni  Ni45  1  0.83345615  0.16713785  0.50225055  1
  Ni  Ni46  1  0.66564508  0.00212744  0.66673432  1
  Ni  Ni47  1  0.83421408  0.16870494  0.83432310  1
  Ni  Ni48  1  0.83397864  0.50133220  0.50189558  1
  Ni  Ni49  1  0.66760566  0.33483630  0.66819529  1
  Ni  Ni50  1  0.83363551  0.49910122  0.83365033  1
  Fe  Fe51  1  0.83389522  0.83488844  0.50104687  1
  Ni  Ni52  1  0.66689913  0.66618914  0.66571585  1
  Cr  Cr53  1  0.83404647  0.83570200  0.83396021  1
" 