8910,Ni82Fe7Cr9_4,-236.701354785077, 179.99486602331,Ni82Fe7Cr9,"# generated using pymatgen
 data_Cr3(FeNi11)2
_symmetry_space_group_name_H-M   'P 1'
_cell_length_a   7.45153270
_cell_length_b   7.45153270
_cell_length_c   10.53805860
_cell_angle_alpha   90.00000000
_cell_angle_beta   90.00000000
_cell_angle_gamma   90.00000000
_symmetry_Int_Tables_number   1
_chemical_formula_structural   Cr3(FeNi11)2
_chemical_formula_sum   'Cr6 Fe4 Ni44'
_cell_volume   585.12928147
_cell_formula_units_Z   2
loop_
 _symmetry_equiv_pos_site_id
 _symmetry_equiv_pos_as_xyz
  1  'x, y, z'
loop_
 _atom_site_type_symbol
 _atom_site_label
 _atom_site_symmetry_multiplicity
 _atom_site_fract_x
 _atom_site_fract_y
 _atom_site_fract_z
 _atom_site_occupancy
  Ni  Ni0  1  0.00143794  1.00037722  0.00168902  1
  Ni  Ni1  1  0.16723541  0.16674496  0.16815878  1
  Ni  Ni2  1  0.00149675  0.99901071  0.33403863  1
  Ni  Ni3  1  0.99993097  0.33490334  1.00051134  1
  Ni  Ni4  1  0.16787657  0.50176489  0.16720047  1
  Cr  Cr5  1  1.00057053  0.33355308  0.33344053  1
  Ni  Ni6  1  1.00034383  0.66784292  0.00109221  1
  Ni  Ni7  1  0.16646780  0.83463036  0.16797067  1
  Ni  Ni8  1  1.00028049  0.67051694  0.33354203  1
  Ni  Ni9  1  0.33344942  1.00071452  0.99980256  1
  Fe  Fe10  1  0.50190343  0.16860946  0.16849313  1
  Ni  Ni11  1  0.33318062  0.00184010  0.33545152  1
  Cr  Cr12  1  0.33361092  0.33349139  0.00242423  1
  Ni  Ni13  1  0.50191098  0.50028261  0.16936739  1
  Ni  Ni14  1  0.33677704  0.33352695  0.33357091  1
  Fe  Fe15  1  0.33278349  0.66934137  0.00106849  1
  Cr  Cr16  1  0.50135154  0.83425847  0.16694626  1
  Ni  Ni17  1  0.33434696  0.66775299  0.33370255  1
  Ni  Ni18  1  0.66824060  0.00113193  0.99985601  1
  Ni  Ni19  1  0.83411457  0.16755957  0.16648026  1
  Ni  Ni20  1  0.66844932  0.00144367  0.33516863  1
  Ni  Ni21  1  0.66971103  0.33417474  0.00221901  1
  Ni  Ni22  1  0.83334232  0.50106631  0.16674220  1
  Ni  Ni23  1  0.66565677  0.33475104  0.33397589  1
  Ni  Ni24  1  0.67006005  0.66781913  0.00104428  1
  Ni  Ni25  1  0.83558227  0.83450518  0.16820714  1
  Ni  Ni26  1  0.66849216  0.66693097  0.33533767  1
  Ni  Ni27  1  0.16974695  0.16650223  0.50104546  1
  Cr  Cr28  1  0.00136801  1.00071048  0.66713194  1
  Ni  Ni29  1  0.16838176  0.16797308  0.83392033  1
  Cr  Cr30  1  0.16768277  0.50136784  0.50237576  1
  Ni  Ni31  1  1.00077307  0.33570504  0.66922550  1
  Ni  Ni32  1  0.16480417  0.50114695  0.83370493  1
  Ni  Ni33  1  0.16896255  0.83516745  0.49985895  1
  Ni  Ni34  1  1.00029411  0.66643247  0.66849722  1
  Ni  Ni35  1  0.16869665  0.83401123  0.83528909  1
  Ni  Ni36  1  0.50114515  0.16698156  0.50058850  1
  Ni  Ni37  1  0.33592872  0.00130972  0.66786055  1
  Ni  Ni38  1  0.50120628  0.16491276  0.83399069  1
  Fe  Fe39  1  0.50266656  0.50101153  0.50059734  1
  Ni  Ni40  1  0.33421341  0.33283582  0.66738236  1
  Cr  Cr41  1  0.50207228  0.50180713  0.83298017  1
  Ni  Ni42  1  0.50135458  0.83527711  0.50186827  1
  Ni  Ni43  1  0.33435689  0.66898279  0.66841991  1
  Ni  Ni44  1  0.50128838  0.83668929  0.83411681  1
  Ni  Ni45  1  0.83223284  0.16800773  0.50149754  1
  Ni  Ni46  1  0.66558264  1.00082710  0.66809395  1
  Fe  Fe47  1  0.83378435  0.16828709  0.83531333  1
  Ni  Ni48  1  0.83231730  0.50166481  0.50198220  1
  Ni  Ni49  1  0.66813715  0.33413761  0.66692152  1
  Ni  Ni50  1  0.83621075  0.50121977  0.83439937  1
  Ni  Ni51  1  0.83280952  0.83345429  0.49962166  1
  Ni  Ni52  1  0.66846240  0.66815469  0.66673937  1
  Ni  Ni53  1  0.83313396  0.83309458  0.83529246  1
" 