2918,Ni82Fe13Cr3_12,-239.620192867211, 192.253240398966,Ni82Fe13Cr3,"# generated using pymatgen
 data_Cr3Fe7Ni44
_symmetry_space_group_name_H-M   'P 1'
_cell_length_a   7.44095218
_cell_length_b   7.44095218
_cell_length_c   10.52309549
_cell_angle_alpha   90.00000000
_cell_angle_beta   90.00000000
_cell_angle_gamma   90.00000000
_symmetry_Int_Tables_number   1
_chemical_formula_structural   Cr3Fe7Ni44
_chemical_formula_sum   'Cr3 Fe7 Ni44'
_cell_volume   582.64032445
_cell_formula_units_Z   1
loop_
 _symmetry_equiv_pos_site_id
 _symmetry_equiv_pos_as_xyz
  1  'x, y, z'
loop_
 _atom_site_type_symbol
 _atom_site_label
 _atom_site_symmetry_multiplicity
 _atom_site_fract_x
 _atom_site_fract_y
 _atom_site_fract_z
 _atom_site_occupancy
  Ni  Ni0  1  0.00216027  1.00132707  0.00226766  1
  Ni  Ni1  1  0.16814725  0.16819902  0.16881481  1
  Ni  Ni2  1  0.00265854  0.00316939  0.33496358  1
  Ni  Ni3  1  0.00230306  0.33565227  0.00201129  1
  Ni  Ni4  1  0.16809257  0.50088348  0.16795082  1
  Ni  Ni5  1  0.00286339  0.33371451  0.33517050  1
  Ni  Ni6  1  1.00163479  0.66828156  1.00140420  1
  Ni  Ni7  1  0.16836078  0.83617909  0.16821264  1
  Cr  Cr8  1  0.00306328  0.66858368  0.33484910  1
  Ni  Ni9  1  0.33486502  1.00173150  1.00133493  1
  Ni  Ni10  1  0.50202978  0.16819903  0.16881492  1
  Ni  Ni11  1  0.33486536  0.00262331  0.33553167  1
  Ni  Ni12  1  0.33486497  0.33539211  1.00165988  1
  Ni  Ni13  1  0.50207474  0.50087416  0.16795075  1
  Ni  Ni14  1  0.33486541  0.33446866  0.33515343  1
  Ni  Ni15  1  0.33512841  0.66813750  0.00253483  1
  Ni  Ni16  1  0.50180644  0.83618843  0.16821264  1
  Fe  Fe17  1  0.33503405  0.66835441  0.33530823  1
  Ni  Ni18  1  0.66823498  1.00106339  0.00200483  1
  Fe  Fe19  1  0.83508299  0.16837355  0.16814445  1
  Ni  Ni20  1  0.66773721  0.00290668  0.33522644  1
  Ni  Ni21  1  0.66809254  0.33591629  1.00174800  1
  Ni  Ni22  1  0.83509228  0.50066125  0.16714522  1
  Ni  Ni23  1  0.66753242  0.33397736  0.33543343  1
  Ni  Ni24  1  0.66849631  0.66828072  0.00188196  1
  Ni  Ni25  1  0.83509224  0.83613197  0.16666815  1
  Cr  Cr26  1  0.66687815  0.66858389  0.33435320  1
  Ni  Ni27  1  0.16694487  0.16738401  0.50095436  1
  Ni  Ni28  1  0.00210703  0.00182407  0.66802938  1
  Ni  Ni29  1  0.16683349  0.16716591  0.83549919  1
  Ni  Ni30  1  0.16774114  0.50181599  0.50150635  1
  Ni  Ni31  1  1.00046561  0.33497379  0.66807636  1
  Ni  Ni32  1  0.16664196  0.50270285  0.83581137  1
  Ni  Ni33  1  0.16906598  0.83606227  0.50230370  1
  Fe  Fe34  1  0.00214293  0.66846536  0.66878576  1
  Ni  Ni35  1  0.16877341  0.83539139  0.83474429  1
  Ni  Ni36  1  0.50326838  0.16738191  0.50100615  1
  Ni  Ni37  1  0.33465638  0.99958573  0.66839444  1
  Ni  Ni38  1  0.50337872  0.16716371  0.83544713  1
  Ni  Ni39  1  0.50252119  0.50187053  0.50155359  1
  Cr  Cr40  1  0.33482009  0.33480317  0.66941799  1
  Ni  Ni41  1  0.50362357  0.50275934  0.83576173  1
  Ni  Ni42  1  0.50119738  0.83600845  0.50235146  1
  Ni  Ni43  1  0.33571914  0.67009557  0.66751062  1
  Ni  Ni44  1  0.50149215  0.83533546  0.83469408  1
  Fe  Fe45  1  0.83514033  0.16843164  0.50225111  1
  Ni  Ni46  1  0.66849847  1.00076341  0.66802988  1
  Ni  Ni47  1  0.83504901  0.16930002  0.83495956  1
  Fe  Fe48  1  0.83483721  0.49969203  0.50330739  1
  Ni  Ni49  1  0.67014154  0.33603262  0.66807715  1
  Ni  Ni50  1  0.83499493  0.50082436  0.83452973  1
  Fe  Fe51  1  0.83483609  0.83713978  0.50272494  1
  Ni  Ni52  1  0.66790662  0.66846310  0.66845918  1
  Fe  Fe53  1  0.83483419  0.83539828  0.83575057  1
" 