6311,Ni82Fe13Cr3_0,-239.834998388499, 192.21076291325,Ni82Fe13Cr3,"# generated using pymatgen
 data_Cr3Fe7Ni44
_symmetry_space_group_name_H-M   'P 1'
_cell_length_a   7.43891777
_cell_length_b   7.43891777
_cell_length_c   10.52021841
_cell_angle_alpha   90.00000000
_cell_angle_beta   90.00000000
_cell_angle_gamma   90.00000000
_symmetry_Int_Tables_number   1
_chemical_formula_structural   Cr3Fe7Ni44
_chemical_formula_sum   'Cr3 Fe7 Ni44'
_cell_volume   582.16256121
_cell_formula_units_Z   1
loop_
 _symmetry_equiv_pos_site_id
 _symmetry_equiv_pos_as_xyz
  1  'x, y, z'
loop_
 _atom_site_type_symbol
 _atom_site_label
 _atom_site_symmetry_multiplicity
 _atom_site_fract_x
 _atom_site_fract_y
 _atom_site_fract_z
 _atom_site_occupancy
  Ni  Ni0  1  1.00118189  0.00252591  1.00137108  1
  Ni  Ni1  1  0.16941738  0.16770458  0.16832486  1
  Ni  Ni2  1  0.00295495  0.99920194  0.33494049  1
  Ni  Ni3  1  0.00194749  0.33526338  0.00225748  1
  Ni  Ni4  1  0.16968855  0.50165779  0.16630158  1
  Cr  Cr5  1  0.00276361  0.33793716  0.33361442  1
  Ni  Ni6  1  1.00146412  0.66772806  1.00153105  1
  Ni  Ni7  1  0.16742280  0.83621659  0.16559894  1
  Ni  Ni8  1  1.00090291  0.66961199  0.33526729  1
  Ni  Ni9  1  0.33632912  0.00208418  0.00202950  1
  Ni  Ni10  1  0.50145612  0.16884310  0.16749699  1
  Ni  Ni11  1  0.33637298  0.00266454  0.33489042  1
  Ni  Ni12  1  0.33420149  0.33492140  1.00169359  1
  Ni  Ni13  1  0.50169489  0.50112837  0.16740437  1
  Ni  Ni14  1  0.33758572  0.33367716  0.33659308  1
  Ni  Ni15  1  0.33585900  0.66854893  1.00148894  1
  Ni  Ni16  1  0.50299294  0.83564381  0.16723975  1
  Cr  Cr17  1  0.33329152  0.66936872  0.33470157  1
  Ni  Ni18  1  0.66827838  1.00144994  1.00155505  1
  Ni  Ni19  1  0.83476502  0.16678839  0.16706393  1
  Ni  Ni20  1  0.66664662  0.00208137  0.33455897  1
  Fe  Fe21  1  0.66829197  0.33526606  1.00159005  1
  Ni  Ni22  1  0.83411392  0.50328996  0.16632595  1
  Ni  Ni23  1  0.66679542  0.33508243  0.33365871  1
  Ni  Ni24  1  0.66857031  0.66981218  0.00228111  1
  Ni  Ni25  1  0.83530001  0.83576148  0.16898014  1
  Fe  Fe26  1  0.66906468  0.66834875  0.33486363  1
  Ni  Ni27  1  0.17090922  0.16777382  0.50304251  1
  Fe  Fe28  1  1.00157134  1.00021632  0.66984903  1
  Ni  Ni29  1  0.16735870  0.16964110  0.83474117  1
  Ni  Ni30  1  0.16950354  0.50179259  0.50409840  1
  Ni  Ni31  1  0.00197066  0.33657050  0.66910151  1
  Ni  Ni32  1  0.17004556  0.50075803  0.83554705  1
  Ni  Ni33  1  0.16774021  0.83607358  0.50421091  1
  Ni  Ni34  1  0.00229827  0.66665140  0.66889188  1
  Fe  Fe35  1  0.16887770  0.83498383  0.83598686  1
  Ni  Ni36  1  0.50066615  0.16897646  0.50334917  1
  Ni  Ni37  1  0.33654518  1.00122632  0.66881793  1
  Fe  Fe38  1  0.50131861  0.16798370  0.83554442  1
  Ni  Ni39  1  0.50258640  0.50134950  0.50308549  1
  Fe  Fe40  1  0.33618674  0.33637708  0.66913258  1
  Ni  Ni41  1  0.50098150  0.50383367  0.83529776  1
  Ni  Ni42  1  0.50285147  0.83560933  0.50248332  1
  Ni  Ni43  1  0.33523963  0.67027628  0.66917303  1
  Ni  Ni44  1  0.50329504  0.83346024  0.83548280  1
  Cr  Cr45  1  0.83488018  0.16668059  0.50222095  1
  Ni  Ni46  1  0.66599081  1.00149191  0.66943670  1
  Ni  Ni47  1  0.83644338  0.16734753  0.83573301  1
  Ni  Ni48  1  0.83390295  0.50388375  0.50351857  1
  Ni  Ni49  1  0.66945614  0.33525939  0.67080379  1
  Fe  Fe50  1  0.83534936  0.50284807  0.83513942  1
  Ni  Ni51  1  0.83481380  0.83352606  0.50180024  1
  Ni  Ni52  1  0.66829640  0.66897884  0.66734049  1
  Ni  Ni53  1  0.83366616  0.83592091  0.83464700  1
" 