4474,Ni82Fe9Cr8_4,-237.734810112956, 182.917818778528,Ni82Fe9Cr8,"# generated using pymatgen
 data_Cr5Fe5Ni44
_symmetry_space_group_name_H-M   'P 1'
_cell_length_a   7.44849056
_cell_length_b   7.44849056
_cell_length_c   10.53375637
_cell_angle_alpha   90.00000000
_cell_angle_beta   90.00000000
_cell_angle_gamma   90.00000000
_symmetry_Int_Tables_number   1
_chemical_formula_structural   Cr5Fe5Ni44
_chemical_formula_sum   'Cr5 Fe5 Ni44'
_cell_volume   584.41292575
_cell_formula_units_Z   1
loop_
 _symmetry_equiv_pos_site_id
 _symmetry_equiv_pos_as_xyz
  1  'x, y, z'
loop_
 _atom_site_type_symbol
 _atom_site_label
 _atom_site_symmetry_multiplicity
 _atom_site_fract_x
 _atom_site_fract_y
 _atom_site_fract_z
 _atom_site_occupancy
  Fe  Fe0  1  1.00061330  1.00008341  1.00060790  1
  Cr  Cr1  1  0.16859946  0.16812317  0.16806760  1
  Ni  Ni2  1  1.00051207  0.99980803  0.33501743  1
  Ni  Ni3  1  1.00047065  0.33626574  1.00087643  1
  Ni  Ni4  1  0.16722489  0.50316677  0.16827121  1
  Fe  Fe5  1  1.00037781  0.33490299  0.33510821  1
  Ni  Ni6  1  0.00128264  0.66758554  1.00096254  1
  Ni  Ni7  1  0.16850705  0.83229856  0.16771456  1
  Ni  Ni8  1  0.00314900  0.66864456  0.33480452  1
  Ni  Ni9  1  0.33506372  1.00109314  1.00122151  1
  Ni  Ni10  1  0.50298011  0.16724842  0.16816929  1
  Ni  Ni11  1  0.33491783  1.00069257  0.33573836  1
  Ni  Ni12  1  0.33524395  0.33525007  0.99983201  1
  Fe  Fe13  1  0.50059424  0.50065242  0.16704481  1
  Ni  Ni14  1  0.33574427  0.33515813  0.33548424  1
  Ni  Ni15  1  0.33322886  0.66739119  0.00257911  1
  Ni  Ni16  1  0.50054861  0.83588433  0.16726165  1
  Ni  Ni17  1  0.33215942  0.66788770  0.33422501  1
  Ni  Ni18  1  0.66821161  0.00190492  0.00255553  1
  Ni  Ni19  1  0.83211469  0.16852860  0.16788782  1
  Ni  Ni20  1  0.66830452  0.00339340  0.33470755  1
  Ni  Ni21  1  0.66801980  0.33443091  1.00116325  1
  Ni  Ni22  1  0.83570082  0.50073535  0.16697655  1
  Ni  Ni23  1  0.66754318  0.33252286  0.33446835  1
  Ni  Ni24  1  0.66922432  0.66739800  0.00199188  1
  Ni  Ni25  1  0.83468099  0.83447390  0.16715442  1
  Cr  Cr26  1  0.66832690  0.66820542  0.33461648  1
  Ni  Ni27  1  0.16855905  0.16734785  0.50151493  1
  Ni  Ni28  1  0.00126267  1.00107896  0.66852758  1
  Ni  Ni29  1  0.16898605  0.16833153  0.83436149  1
  Fe  Fe30  1  0.16731196  0.50065453  0.50048185  1
  Ni  Ni31  1  1.00119999  0.33440099  0.66737871  1
  Ni  Ni32  1  0.16649847  0.49984078  0.83489278  1
  Ni  Ni33  1  0.16735458  0.83580550  0.50045214  1
  Ni  Ni34  1  1.00093681  0.66825723  0.66797012  1
  Ni  Ni35  1  0.16519942  0.83556566  0.83557373  1
  Ni  Ni36  1  0.50076841  0.16804456  0.50152950  1
  Ni  Ni37  1  0.33350620  0.00410823  0.66677281  1
  Ni  Ni38  1  0.50013529  0.16988715  0.83403720  1
  Ni  Ni39  1  0.50123292  0.49875851  0.50042239  1
  Ni  Ni40  1  0.33465640  0.33245395  0.66842696  1
  Ni  Ni41  1  0.50167481  0.49733357  0.83677622  1
  Ni  Ni42  1  0.50014707  0.83693512  0.50047675  1
  Cr  Cr43  1  0.33239337  0.66723251  0.66703714  1
  Cr  Cr44  1  0.50151253  0.83623052  0.83550540  1
  Ni  Ni45  1  0.83440902  0.16842965  0.50136401  1
  Ni  Ni46  1  0.66896938  0.00385059  0.66646923  1
  Fe  Fe47  1  0.83461758  0.16848128  0.83431786  1
  Ni  Ni48  1  0.83553895  0.49996586  0.50158355  1
  Ni  Ni49  1  0.66788191  0.33277988  0.66810905  1
  Ni  Ni50  1  0.83556182  0.50112083  0.83517231  1
  Ni  Ni51  1  0.83623421  0.83534265  0.50146843  1
  Cr  Cr52  1  0.67025185  0.66727453  0.66701995  1
  Ni  Ni53  1  0.83712193  0.83402483  0.83511705  1
" 