55,Ni82Fe7Cr9_18,-236.724490320093, 177.701862354226,Ni82Fe7Cr9,"# generated using pymatgen
 data_Cr3(FeNi11)2
_symmetry_space_group_name_H-M   'P 1'
_cell_length_a   7.45547785
_cell_length_b   7.45547785
_cell_length_c   10.54363789
_cell_angle_alpha   90.00000000
_cell_angle_beta   90.00000000
_cell_angle_gamma   90.00000000
_symmetry_Int_Tables_number   1
_chemical_formula_structural   Cr3(FeNi11)2
_chemical_formula_sum   'Cr6 Fe4 Ni44'
_cell_volume   586.05914978
_cell_formula_units_Z   2
loop_
 _symmetry_equiv_pos_site_id
 _symmetry_equiv_pos_as_xyz
  1  'x, y, z'
loop_
 _atom_site_type_symbol
 _atom_site_label
 _atom_site_symmetry_multiplicity
 _atom_site_fract_x
 _atom_site_fract_y
 _atom_site_fract_z
 _atom_site_occupancy
  Ni  Ni0  1  1.00066330  0.99955763  0.99914056  1
  Cr  Cr1  1  0.16911238  0.16678734  0.16684401  1
  Ni  Ni2  1  0.99975784  0.99838364  0.33475368  1
  Ni  Ni3  1  0.00165974  0.33465377  0.99813896  1
  Ni  Ni4  1  0.16960013  0.50374040  0.16719096  1
  Ni  Ni5  1  1.00075585  0.33580095  0.33572362  1
  Ni  Ni6  1  0.00341200  0.66811972  1.00037786  1
  Ni  Ni7  1  0.16772558  0.83239030  0.16743865  1
  Ni  Ni8  1  0.00169267  0.66814444  0.33456221  1
  Ni  Ni9  1  0.33388598  0.99963246  0.00108608  1
  Ni  Ni10  1  0.50111255  0.16752986  0.16762548  1
  Ni  Ni11  1  0.33570382  0.99945142  0.33393584  1
  Ni  Ni12  1  0.33402705  0.33571115  0.00136677  1
  Ni  Ni13  1  0.49837775  0.49947783  0.16787508  1
  Ni  Ni14  1  0.33577549  0.33579970  0.33358793  1
  Ni  Ni15  1  0.33219522  0.66698215  0.00102074  1
  Fe  Fe16  1  0.49902766  0.83474539  0.16874459  1
  Ni  Ni17  1  0.33377118  0.66707637  0.33374623  1
  Ni  Ni18  1  0.66777766  0.00139105  0.00119579  1
  Cr  Cr19  1  0.83192323  0.16633840  0.16728377  1
  Ni  Ni20  1  0.66686458  1.00039110  0.33463323  1
  Ni  Ni21  1  0.66663961  0.33296102  1.00019634  1
  Cr  Cr22  1  0.83471950  0.50117892  0.16795259  1
  Ni  Ni23  1  0.66579630  0.33386700  0.33556075  1
  Cr  Cr24  1  0.66677870  0.66776447  0.99976251  1
  Fe  Fe25  1  0.83520070  0.83468031  0.16828387  1
  Ni  Ni26  1  0.66686298  0.66806932  0.33501327  1
  Cr  Cr27  1  0.16777188  0.16678962  0.50101205  1
  Ni  Ni28  1  0.99979872  1.00007191  0.66843370  1
  Fe  Fe29  1  0.16514492  0.16791590  0.83416314  1
  Ni  Ni30  1  0.16742029  0.50285919  0.50003866  1
  Ni  Ni31  1  0.99980223  0.33483936  0.66846527  1
  Ni  Ni32  1  0.16745836  0.50214309  0.83509845  1
  Ni  Ni33  1  0.16736095  0.83263304  0.50047687  1
  Ni  Ni34  1  1.00074719  0.66741934  0.66738919  1
  Ni  Ni35  1  0.16657111  0.83358421  0.83441303  1
  Ni  Ni36  1  0.50282206  0.16733213  0.49985226  1
  Ni  Ni37  1  0.33416560  0.99908202  0.66730384  1
  Cr  Cr38  1  0.50143840  0.16799154  0.83431039  1
  Ni  Ni39  1  0.50115090  0.50050321  0.50066512  1
  Ni  Ni40  1  0.33423570  0.33590118  0.66736938  1
  Ni  Ni41  1  0.49991934  0.50064545  0.83378663  1
  Ni  Ni42  1  0.50071348  0.83449232  0.50110214  1
  Ni  Ni43  1  0.33427833  0.66734335  0.66756310  1
  Fe  Fe44  1  0.50040673  0.83274657  0.83278190  1
  Ni  Ni45  1  0.83189712  0.16727292  0.50066371  1
  Ni  Ni46  1  0.66836283  1.00002809  0.66650033  1
  Ni  Ni47  1  0.83478551  0.16704829  0.83466327  1
  Ni  Ni48  1  0.83375654  0.50075165  0.50091016  1
  Ni  Ni49  1  0.66828642  0.33494929  0.66657142  1
  Ni  Ni50  1  0.83494819  0.49993121  0.83359943  1
  Ni  Ni51  1  0.83425318  0.83430373  0.50006054  1
  Ni  Ni52  1  0.66730359  0.66734750  0.66746126  1
  Ni  Ni53  1  0.83628084  0.83534763  0.83420325  1
" 