5727,Ni82Fe7Cr9_13,-236.56069215472, 178.195557094294,Ni82Fe7Cr9,"# generated using pymatgen
 data_Cr3(FeNi11)2
_symmetry_space_group_name_H-M   'P 1'
_cell_length_a   7.45175401
_cell_length_b   7.45175401
_cell_length_c   10.53837159
_cell_angle_alpha   90.00000000
_cell_angle_beta   90.00000000
_cell_angle_gamma   90.00000000
_symmetry_Int_Tables_number   1
_chemical_formula_structural   Cr3(FeNi11)2
_chemical_formula_sum   'Cr6 Fe4 Ni44'
_cell_volume   585.18141908
_cell_formula_units_Z   2
loop_
 _symmetry_equiv_pos_site_id
 _symmetry_equiv_pos_as_xyz
  1  'x, y, z'
loop_
 _atom_site_type_symbol
 _atom_site_label
 _atom_site_symmetry_multiplicity
 _atom_site_fract_x
 _atom_site_fract_y
 _atom_site_fract_z
 _atom_site_occupancy
  Ni  Ni0  1  1.00047484  0.00129171  0.99952234  1
  Cr  Cr1  1  0.16809828  0.16658042  0.16756032  1
  Fe  Fe2  1  0.00103874  1.00100195  0.33615607  1
  Ni  Ni3  1  1.00096234  0.33512633  0.99954996  1
  Fe  Fe4  1  0.16790458  0.50230312  0.16772134  1
  Ni  Ni5  1  0.00118992  0.33492909  0.33500585  1
  Ni  Ni6  1  0.00198068  0.66665935  0.99995306  1
  Ni  Ni7  1  0.16958080  0.83315715  0.16757281  1
  Ni  Ni8  1  0.00308315  0.66707863  0.33433365  1
  Ni  Ni9  1  0.33574276  1.00041124  0.99934954  1
  Ni  Ni10  1  0.50199457  0.16821688  0.16776323  1
  Ni  Ni11  1  0.33618132  1.00018101  0.33577090  1
  Ni  Ni12  1  0.33443028  0.33517117  1.00022862  1
  Ni  Ni13  1  0.50184915  0.50116649  0.16808463  1
  Ni  Ni14  1  0.33481623  0.33511630  0.33565187  1
  Ni  Ni15  1  0.33427998  0.66750255  0.00134847  1
  Ni  Ni16  1  0.49894360  0.83373916  0.16773195  1
  Ni  Ni17  1  0.33380408  0.66778678  0.33425730  1
  Ni  Ni18  1  0.66685909  0.00146879  1.00038803  1
  Ni  Ni19  1  0.83313270  0.17017166  0.16791841  1
  Ni  Ni20  1  0.66642350  0.00206596  0.33524571  1
  Fe  Fe21  1  0.66767686  0.33432883  0.00116838  1
  Ni  Ni22  1  0.83363482  0.49958244  0.16759257  1
  Ni  Ni23  1  0.66709088  0.33259359  0.33317334  1
  Ni  Ni24  1  0.66682734  0.66801925  0.99961777  1
  Cr  Cr25  1  0.83473554  0.83375507  0.16798821  1
  Ni  Ni26  1  0.66620085  0.66844441  0.33519596  1
  Ni  Ni27  1  0.16694905  0.16678868  0.50078205  1
  Ni  Ni28  1  0.99958829  0.00296404  0.66721519  1
  Ni  Ni29  1  0.16670702  0.16681759  0.83457838  1
  Ni  Ni30  1  0.16849922  0.49999585  0.49770780  1
  Ni  Ni31  1  1.00050763  0.33121074  0.66854582  1
  Ni  Ni32  1  0.16663840  0.49997534  0.83744876  1
  Ni  Ni33  1  0.16782136  0.83631080  0.49910240  1
  Cr  Cr34  1  1.00080614  0.66838253  0.66901103  1
  Ni  Ni35  1  0.16756929  0.83629470  0.83636746  1
  Ni  Ni36  1  0.50124020  0.16707243  0.49986273  1
  Fe  Fe37  1  0.33465351  0.00129214  0.66765801  1
  Ni  Ni38  1  0.50125627  0.16709029  0.83544235  1
  Ni  Ni39  1  0.50110008  0.50121239  0.49943754  1
  Cr  Cr40  1  0.33385727  0.33380983  0.66707037  1
  Ni  Ni41  1  0.50293802  0.50133253  0.83556068  1
  Ni  Ni42  1  0.50156647  0.83479676  0.50009933  1
  Cr  Cr43  1  0.33563501  0.66815382  0.66748841  1
  Ni  Ni44  1  0.50170520  0.83466310  0.83523712  1
  Ni  Ni45  1  0.83489696  0.16634182  0.50077724  1
  Ni  Ni46  1  0.66865753  0.00116459  0.66746718  1
  Ni  Ni47  1  0.83511479  0.16804438  0.83434616  1
  Cr  Cr48  1  0.83273107  0.50049092  0.50110764  1
  Ni  Ni49  1  0.66830716  0.33242919  0.66880430  1
  Ni  Ni50  1  0.83351913  0.50043769  0.83498824  1
  Ni  Ni51  1  0.83369898  0.83641016  0.50031335  1
  Ni  Ni52  1  0.66672129  0.66948573  0.66828801  1
  Ni  Ni53  1  0.83379119  0.83459603  0.83485556  1
" 