5962,Ni82Fe13Cr3_3,-239.94826770118, 194.595650358872,Ni82Fe13Cr3,"# generated using pymatgen
 data_Cr3Fe7Ni44
_symmetry_space_group_name_H-M   'P 1'
_cell_length_a   7.44107043
_cell_length_b   7.44107043
_cell_length_c   10.52326272
_cell_angle_alpha   90.00000000
_cell_angle_beta   90.00000000
_cell_angle_gamma   90.00000000
_symmetry_Int_Tables_number   1
_chemical_formula_structural   Cr3Fe7Ni44
_chemical_formula_sum   'Cr3 Fe7 Ni44'
_cell_volume   582.66810137
_cell_formula_units_Z   1
loop_
 _symmetry_equiv_pos_site_id
 _symmetry_equiv_pos_as_xyz
  1  'x, y, z'
loop_
 _atom_site_type_symbol
 _atom_site_label
 _atom_site_symmetry_multiplicity
 _atom_site_fract_x
 _atom_site_fract_y
 _atom_site_fract_z
 _atom_site_occupancy
  Fe  Fe0  1  0.00455037  1.00161010  0.00284455  1
  Ni  Ni1  1  0.16849991  0.16866378  0.16805076  1
  Ni  Ni2  1  1.00112940  0.00199290  0.33490489  1
  Ni  Ni3  1  0.00247161  0.33614786  0.00273551  1
  Ni  Ni4  1  0.16768222  0.50181815  0.16808036  1
  Ni  Ni5  1  1.00107086  0.33463075  0.33433081  1
  Fe  Fe6  1  0.00214948  0.66737110  0.00201736  1
  Ni  Ni7  1  0.16899092  0.83475419  0.16854287  1
  Ni  Ni8  1  1.00131677  0.66861268  0.33412701  1
  Ni  Ni9  1  0.33399702  1.00156814  0.00196777  1
  Ni  Ni10  1  0.50124376  0.16837761  0.16869243  1
  Ni  Ni11  1  0.33569417  1.00149862  0.33490441  1
  Ni  Ni12  1  0.33421622  0.33508550  1.00117261  1
  Fe  Fe13  1  0.50125589  0.50179892  0.16788248  1
  Ni  Ni14  1  0.33520103  0.33457666  0.33433355  1
  Ni  Ni15  1  0.33523053  0.66858242  0.00190617  1
  Ni  Ni16  1  0.50080840  0.83498773  0.16917616  1
  Ni  Ni17  1  0.33545403  0.66916086  0.33413065  1
  Cr  Cr18  1  0.66709272  1.00101307  0.00191166  1
  Ni  Ni19  1  0.83549460  0.16968220  0.16939095  1
  Ni  Ni20  1  0.66841392  1.00174332  0.33527572  1
  Ni  Ni21  1  0.66854754  0.33738051  0.00288992  1
  Ni  Ni22  1  0.83572791  0.50138008  0.16816179  1
  Fe  Fe23  1  0.66860158  0.33435476  0.33536869  1
  Ni  Ni24  1  0.66825623  0.66700471  1.00166842  1
  Ni  Ni25  1  0.83544198  0.83417222  0.16862807  1
  Fe  Fe26  1  0.66870550  0.66913868  0.33526852  1
  Ni  Ni27  1  0.16808522  0.16663881  0.50193003  1
  Ni  Ni28  1  0.00260162  1.00150140  0.66750436  1
  Ni  Ni29  1  0.16989530  0.16820835  0.83525356  1
  Cr  Cr30  1  0.16801683  0.50222657  0.50223286  1
  Ni  Ni31  1  1.00096768  0.33524242  0.66817219  1
  Ni  Ni32  1  0.16812112  0.50227603  0.83512438  1
  Ni  Ni33  1  0.16857430  0.83659640  0.50153701  1
  Ni  Ni34  1  1.00100760  0.66848980  0.66959455  1
  Ni  Ni35  1  0.16947680  0.83474993  0.83515768  1
  Ni  Ni36  1  0.50227929  0.16786392  0.50227408  1
  Ni  Ni37  1  0.33532760  1.00121077  0.66836526  1
  Ni  Ni38  1  0.49977070  0.16874071  0.83426965  1
  Ni  Ni39  1  0.50356067  0.50199983  0.50167879  1
  Fe  Fe40  1  0.33598173  0.33416497  0.66928112  1
  Ni  Ni41  1  0.50212955  0.50232908  0.83554729  1
  Ni  Ni42  1  0.50178670  0.83537280  0.50187963  1
  Ni  Ni43  1  0.33590670  0.66979445  0.66920042  1
  Ni  Ni44  1  0.50024519  0.83416646  0.83417929  1
  Ni  Ni45  1  0.83487271  0.16841186  0.50146427  1
  Ni  Ni46  1  0.66730820  1.00125143  0.66767597  1
  Cr  Cr47  1  0.83519599  0.16983822  0.83442170  1
  Ni  Ni48  1  0.83365086  0.50150814  0.50212231  1
  Ni  Ni49  1  0.66861333  0.33582282  0.66764255  1
  Ni  Ni50  1  0.83498787  0.50275113  0.83495642  1
  Ni  Ni51  1  0.83487618  0.83531556  0.50232023  1
  Ni  Ni52  1  0.66832203  0.66816005  0.66836487  1
  Fe  Fe53  1  0.83545213  0.83251905  0.83374395  1
" 