3683,Ni82Fe7Cr9_14,-236.834529948301, 180.379994089245,Ni82Fe7Cr9,"# generated using pymatgen
 data_Cr3(FeNi11)2
_symmetry_space_group_name_H-M   'P 1'
_cell_length_a   7.45266964
_cell_length_b   7.45266964
_cell_length_c   10.53966649
_cell_angle_alpha   90.00000000
_cell_angle_beta   90.00000000
_cell_angle_gamma   90.00000000
_symmetry_Int_Tables_number   1
_chemical_formula_structural   Cr3(FeNi11)2
_chemical_formula_sum   'Cr6 Fe4 Ni44'
_cell_volume   585.39715790
_cell_formula_units_Z   2
loop_
 _symmetry_equiv_pos_site_id
 _symmetry_equiv_pos_as_xyz
  1  'x, y, z'
loop_
 _atom_site_type_symbol
 _atom_site_label
 _atom_site_symmetry_multiplicity
 _atom_site_fract_x
 _atom_site_fract_y
 _atom_site_fract_z
 _atom_site_occupancy
  Ni  Ni0  1  0.00182495  0.00190315  0.00109229  1
  Ni  Ni1  1  0.16805784  0.16737700  0.16782490  1
  Ni  Ni2  1  0.00255732  0.00233628  0.33296568  1
  Ni  Ni3  1  0.00139535  0.33298795  0.00133968  1
  Ni  Ni4  1  0.16744064  0.50113554  0.16747833  1
  Ni  Ni5  1  0.00151054  0.33404994  0.33529521  1
  Ni  Ni6  1  0.00377758  0.66802800  0.00140033  1
  Ni  Ni7  1  0.16746297  0.83433966  0.16763926  1
  Ni  Ni8  1  0.00140270  0.66648290  0.33317797  1
  Ni  Ni9  1  0.33285827  0.99940548  0.00141243  1
  Ni  Ni10  1  0.50078611  0.16746232  0.16758661  1
  Ni  Ni11  1  0.33357796  0.00218371  0.33494385  1
  Fe  Fe12  1  0.33258186  0.33432527  0.00216287  1
  Ni  Ni13  1  0.50007914  0.49984372  0.16782824  1
  Ni  Ni14  1  0.33397811  0.33341990  0.33364411  1
  Ni  Ni15  1  0.33290054  0.66821312  0.00103863  1
  Ni  Ni16  1  0.50000203  0.83549730  0.16900137  1
  Fe  Fe17  1  0.33385083  0.66701305  0.33350222  1
  Ni  Ni18  1  0.66819386  0.00203540  0.00154588  1
  Ni  Ni19  1  0.83401242  0.16749087  0.16793550  1
  Ni  Ni20  1  0.66658458  0.00226326  0.33333668  1
  Ni  Ni21  1  0.66855587  0.33309307  0.00287638  1
  Ni  Ni22  1  0.83526082  0.50040997  0.16916016  1
  Ni  Ni23  1  0.66737695  0.33458242  0.33429741  1
  Cr  Cr24  1  0.66665888  0.66845899  0.00104782  1
  Ni  Ni25  1  0.83539057  0.83500069  0.16774131  1
  Ni  Ni26  1  0.66718755  0.66610360  0.33353750  1
  Ni  Ni27  1  0.16860573  0.16724302  0.50125479  1
  Ni  Ni28  1  0.00241241  0.00168567  0.66874564  1
  Ni  Ni29  1  0.16675150  0.16724486  0.83395211  1
  Ni  Ni30  1  0.16738618  0.50064570  0.50047585  1
  Fe  Fe31  1  0.00227382  0.33264674  0.66655758  1
  Ni  Ni32  1  0.16865905  0.50054842  0.83495462  1
  Ni  Ni33  1  0.16744952  0.83493101  0.50003473  1
  Ni  Ni34  1  0.00284592  0.66807654  0.66812859  1
  Ni  Ni35  1  0.16675375  0.83497755  0.83494719  1
  Ni  Ni36  1  0.50067030  0.16843798  0.50097081  1
  Ni  Ni37  1  0.33253720  0.00239152  0.66668304  1
  Cr  Cr38  1  0.50075252  0.16817363  0.83518212  1
  Ni  Ni39  1  0.50060518  0.49792763  0.49947649  1
  Ni  Ni40  1  0.33372609  0.33364216  0.66779627  1
  Ni  Ni41  1  0.49826148  0.49941597  0.83542625  1
  Fe  Fe42  1  0.50000708  0.83622857  0.49953114  1
  Cr  Cr43  1  0.33297740  0.66764512  0.66727879  1
  Ni  Ni44  1  0.49959393  0.83607400  0.83407982  1
  Ni  Ni45  1  0.83359243  0.16840238  0.50119443  1
  Ni  Ni46  1  0.66791018  0.00330603  0.66806599  1
  Ni  Ni47  1  0.83517737  0.16577348  0.83388271  1
  Ni  Ni48  1  0.83487870  0.49955167  0.50025550  1
  Ni  Ni49  1  0.66687386  0.33296735  0.66580639  1
  Cr  Cr50  1  0.83607228  0.49897645  0.83356235  1
  Cr  Cr51  1  0.83626444  0.83507238  0.50002227  1
  Cr  Cr52  1  0.66719752  0.66718325  0.66832376  1
  Ni  Ni53  1  0.83658729  0.83747776  0.83468758  1
" 