3878,Ni82Fe9Cr8_17,-237.677419176786, 184.048935403266,Ni82Fe9Cr8,"# generated using pymatgen
 data_Cr5Fe5Ni44
_symmetry_space_group_name_H-M   'P 1'
_cell_length_a   7.44731312
_cell_length_b   7.44731312
_cell_length_c   10.53209121
_cell_angle_alpha   90.00000000
_cell_angle_beta   90.00000000
_cell_angle_gamma   90.00000000
_symmetry_Int_Tables_number   1
_chemical_formula_structural   Cr5Fe5Ni44
_chemical_formula_sum   'Cr5 Fe5 Ni44'
_cell_volume   584.13582098
_cell_formula_units_Z   1
loop_
 _symmetry_equiv_pos_site_id
 _symmetry_equiv_pos_as_xyz
  1  'x, y, z'
loop_
 _atom_site_type_symbol
 _atom_site_label
 _atom_site_symmetry_multiplicity
 _atom_site_fract_x
 _atom_site_fract_y
 _atom_site_fract_z
 _atom_site_occupancy
  Ni  Ni0  1  0.00184238  0.00189475  1.00040993  1
  Ni  Ni1  1  0.16812252  0.16703372  0.16896000  1
  Ni  Ni2  1  1.00109568  0.00196854  0.33482131  1
  Ni  Ni3  1  0.99949178  0.33475207  0.00203176  1
  Ni  Ni4  1  0.16700956  0.50165482  0.16935900  1
  Fe  Fe5  1  0.00236039  0.33477210  0.33436114  1
  Ni  Ni6  1  0.00227453  0.66732870  0.99998143  1
  Ni  Ni7  1  0.16935321  0.83528565  0.16783071  1
  Ni  Ni8  1  0.00226077  0.66671040  0.33530446  1
  Ni  Ni9  1  0.33461093  0.99941758  0.00148387  1
  Ni  Ni10  1  0.50125973  0.16748142  0.16898473  1
  Ni  Ni11  1  0.33564215  0.00211221  0.33410774  1
  Cr  Cr12  1  0.33483150  0.33524019  1.00106805  1
  Ni  Ni13  1  0.50249770  0.50133410  0.16880547  1
  Ni  Ni14  1  0.33443964  0.33438043  0.33444208  1
  Ni  Ni15  1  0.33436140  0.66962407  0.00173863  1
  Ni  Ni16  1  0.49970581  0.83516391  0.16836489  1
  Ni  Ni17  1  0.33356093  0.66748403  0.33260921  1
  Ni  Ni18  1  0.66752118  0.00219739  1.00059978  1
  Fe  Fe19  1  0.83434475  0.16951246  0.16725067  1
  Ni  Ni20  1  0.66723519  0.00284636  0.33590323  1
  Ni  Ni21  1  0.66981794  0.33450339  1.00095493  1
  Ni  Ni22  1  0.83446892  0.50009621  0.16783149  1
  Ni  Ni23  1  0.66801083  0.33321462  0.33384266  1
  Ni  Ni24  1  0.66733760  0.66727470  1.00087867  1
  Cr  Cr25  1  0.83497875  0.83411107  0.16744490  1
  Fe  Fe26  1  0.66763016  0.66852340  0.33471803  1
  Ni  Ni27  1  0.16926790  0.16870522  0.50050341  1
  Ni  Ni28  1  0.99983306  1.00014054  0.66874433  1
  Ni  Ni29  1  0.16795907  0.16625596  0.83451005  1
  Ni  Ni30  1  0.16647059  0.49990167  0.50035402  1
  Cr  Cr31  1  0.00198398  0.33492680  0.66754424  1
  Ni  Ni32  1  0.16771823  0.50277180  0.83425980  1
  Cr  Cr33  1  0.16726550  0.83507642  0.50142040  1
  Ni  Ni34  1  1.00106624  0.66905779  0.66868764  1
  Ni  Ni35  1  0.16727982  0.83494603  0.83506771  1
  Ni  Ni36  1  0.50091076  0.16668504  0.50151500  1
  Fe  Fe37  1  0.33588342  0.00200340  0.66881243  1
  Ni  Ni38  1  0.50215016  0.16766428  0.83347468  1
  Cr  Cr39  1  0.50158597  0.50063331  0.50168746  1
  Ni  Ni40  1  0.33555763  0.33472250  0.66826381  1
  Ni  Ni41  1  0.50258653  0.50155841  0.83377998  1
  Ni  Ni42  1  0.50389573  0.83699204  0.50085963  1
  Ni  Ni43  1  0.33453853  0.66704725  0.66963142  1
  Ni  Ni44  1  0.50161549  0.83475235  0.83474963  1
  Fe  Fe45  1  0.83347664  0.16675445  0.50111707  1
  Ni  Ni46  1  0.66831836  1.00116242  0.66747107  1
  Ni  Ni47  1  0.83386631  0.16722608  0.83586280  1
  Ni  Ni48  1  0.83541882  0.50288620  0.50050438  1
  Ni  Ni49  1  0.66630954  0.33349522  0.66918024  1
  Ni  Ni50  1  0.83367041  0.50223634  0.83563488  1
  Ni  Ni51  1  0.83340175  0.83419649  0.50181055  1
  Ni  Ni52  1  0.66837022  0.66931808  0.66797996  1
  Ni  Ni53  1  0.83508020  0.83451237  0.83403147  1
" 