6802,Ni82Fe8Cr9_7,-236.647414732631, 179.32703939259,Ni82Fe8Cr9,"# generated using pymatgen
 data_Cr3(FeNi11)2
_symmetry_space_group_name_H-M   'P 1'
_cell_length_a   7.45234413
_cell_length_b   7.45234413
_cell_length_c   10.53920614
_cell_angle_alpha   90.00000000
_cell_angle_beta   90.00000000
_cell_angle_gamma   90.00000000
_symmetry_Int_Tables_number   1
_chemical_formula_structural   Cr3(FeNi11)2
_chemical_formula_sum   'Cr6 Fe4 Ni44'
_cell_volume   585.32045568
_cell_formula_units_Z   2
loop_
 _symmetry_equiv_pos_site_id
 _symmetry_equiv_pos_as_xyz
  1  'x, y, z'
loop_
 _atom_site_type_symbol
 _atom_site_label
 _atom_site_symmetry_multiplicity
 _atom_site_fract_x
 _atom_site_fract_y
 _atom_site_fract_z
 _atom_site_occupancy
  Ni  Ni0  1  0.99976068  1.00018617  0.00109475  1
  Cr  Cr1  1  0.16788667  0.16648132  0.16768185  1
  Fe  Fe2  1  0.99939260  0.99835191  0.33529282  1
  Ni  Ni3  1  0.99952275  0.33402667  0.99935266  1
  Ni  Ni4  1  0.16928779  0.50435903  0.16737101  1
  Cr  Cr5  1  1.00023304  0.33311037  0.33426084  1
  Ni  Ni6  1  0.00234144  0.66872917  1.00006909  1
  Ni  Ni7  1  0.16797042  0.83211803  0.16798003  1
  Ni  Ni8  1  0.00184252  0.67088754  0.33474953  1
  Ni  Ni9  1  0.33492040  0.99801318  1.00016290  1
  Ni  Ni10  1  0.50344137  0.16693384  0.16856287  1
  Fe  Fe11  1  0.33622836  0.99978453  0.33527725  1
  Cr  Cr12  1  0.33480236  0.33583552  1.00006292  1
  Ni  Ni13  1  0.50015411  0.50173367  0.16946562  1
  Ni  Ni14  1  0.33695175  0.33506603  0.33467200  1
  Ni  Ni15  1  0.33396446  0.66931766  0.00186002  1
  Ni  Ni16  1  0.50089018  0.83425658  0.16727051  1
  Ni  Ni17  1  0.33459682  0.66817577  0.33254509  1
  Ni  Ni18  1  0.66826138  1.00081068  0.00113372  1
  Ni  Ni19  1  0.83136754  0.16559047  0.16671696  1
  Ni  Ni20  1  0.66801908  1.00080915  0.33404603  1
  Ni  Ni21  1  0.66886655  0.33307700  1.00081427  1
  Cr  Cr22  1  0.83364983  0.50176598  0.16631954  1
  Ni  Ni23  1  0.66515750  0.33270514  0.33513802  1
  Ni  Ni24  1  0.66663528  0.66905012  1.00044393  1
  Ni  Ni25  1  0.83412515  0.83547086  0.16806202  1
  Ni  Ni26  1  0.66649107  0.66942621  0.33548669  1
  Ni  Ni27  1  0.16921807  0.16575158  0.50224463  1
  Ni  Ni28  1  1.00094774  0.00198948  0.66669926  1
  Ni  Ni29  1  0.16724288  0.16711775  0.83269261  1
  Cr  Cr30  1  0.16693572  0.50067251  0.50096289  1
  Ni  Ni31  1  1.00040164  0.33239967  0.66872909  1
  Ni  Ni32  1  0.16577078  0.50070631  0.83505080  1
  Ni  Ni33  1  0.16723252  0.83653890  0.49970592  1
  Fe  Fe34  1  0.99844172  0.66862572  0.66839603  1
  Ni  Ni35  1  0.16725216  0.83516308  0.83528193  1
  Ni  Ni36  1  0.50083369  0.16716957  0.50090061  1
  Ni  Ni37  1  0.33368174  0.00237885  0.66721646  1
  Ni  Ni38  1  0.50144581  0.16675174  0.83344045  1
  Fe  Fe39  1  0.50354416  0.50023616  0.50006365  1
  Ni  Ni40  1  0.33421436  0.33198272  0.66802514  1
  Ni  Ni41  1  0.50276416  0.50090777  0.83390977  1
  Ni  Ni42  1  0.50197566  0.83593130  0.50019348  1
  Cr  Cr43  1  0.33581752  0.66877175  0.66921339  1
  Ni  Ni44  1  0.50160809  0.83526268  0.83549177  1
  Ni  Ni45  1  0.83294468  0.16743889  0.50142545  1
  Ni  Ni46  1  0.66830762  1.00069813  0.66779463  1
  Ni  Ni47  1  0.83427671  0.16826057  0.83481216  1
  Ni  Ni48  1  0.83227925  0.50188203  0.50206142  1
  Ni  Ni49  1  0.66834848  0.33424492  0.66702008  1
  Ni  Ni50  1  0.83440070  0.50089591  0.83408577  1
  Ni  Ni51  1  0.83375346  0.83359419  0.50077211  1
  Ni  Ni52  1  0.66881436  0.66802365  0.66702740  1
  Ni  Ni53  1  0.83405629  0.83380256  0.83416117  1
" 