5132,Ni82Fe18_16,-231.456501332182, 178.169502042889,Ni82Fe18,"# generated using pymatgen
 data_Fe22Ni5
_symmetry_space_group_name_H-M   'P 1'
_cell_length_a   7.39827075
_cell_length_b   7.39827075
_cell_length_c   10.46273484
_cell_angle_alpha   90.00000000
_cell_angle_beta   90.00000000
_cell_angle_gamma   90.00000000
_symmetry_Int_Tables_number   1
_chemical_formula_structural   Fe22Ni5
_chemical_formula_sum   'Fe44 Ni10'
_cell_volume   572.67161999
_cell_formula_units_Z   2
loop_
 _symmetry_equiv_pos_site_id
 _symmetry_equiv_pos_as_xyz
  1  'x, y, z'
loop_
 _atom_site_type_symbol
 _atom_site_label
 _atom_site_symmetry_multiplicity
 _atom_site_fract_x
 _atom_site_fract_y
 _atom_site_fract_z
 _atom_site_occupancy
  Fe  Fe0  1  0.00464820  0.00465412  1.00464651  1
  Fe  Fe1  1  0.17131783  0.17131775  0.17131182  1
  Fe  Fe2  1  0.00464903  0.00465494  0.33798151  1
  Ni  Ni3  1  0.00464943  0.33798110  1.00464372  1
  Fe  Fe4  1  0.17131859  0.50465206  0.17131780  1
  Ni  Ni5  1  0.00465380  0.33798361  0.33798757  1
  Fe  Fe6  1  1.00464439  0.67131269  0.00464949  1
  Fe  Fe7  1  0.17132165  0.83797470  0.17131320  1
  Fe  Fe8  1  1.00464524  0.67130594  0.33798613  1
  Fe  Fe9  1  0.33797470  0.00465415  1.00464569  1
  Fe  Fe10  1  0.50465202  0.17131098  0.17131781  1
  Fe  Fe11  1  0.33798065  0.00465575  0.33798232  1
  Fe  Fe12  1  0.33797556  0.33798148  0.00465248  1
  Ni  Ni13  1  0.50464214  0.50464904  0.17131775  1
  Ni  Ni14  1  0.33797501  0.33798360  0.33798030  1
  Fe  Fe15  1  0.33798228  0.67130888  0.00465328  1
  Ni  Ni16  1  0.50465676  0.83797291  0.17131084  1
  Fe  Fe17  1  0.33798443  0.67130513  0.33797772  1
  Fe  Fe18  1  0.67132162  1.00464740  0.00465410  1
  Fe  Fe19  1  0.83797467  0.17131405  0.17131319  1
  Fe  Fe20  1  0.67131483  0.00464824  0.33798151  1
  Fe  Fe21  1  0.67131781  0.33798529  0.00464866  1
  Fe  Fe22  1  0.83797555  0.50465411  0.17131916  1
  Fe  Fe23  1  0.67131403  0.33798743  0.33798233  1
  Fe  Fe24  1  0.67131785  0.67131182  0.00465706  1
  Ni  Ni25  1  0.83797633  0.83798323  0.17131386  1
  Fe  Fe26  1  0.67131484  0.67130885  0.33798152  1
  Fe  Fe27  1  0.17130887  0.17131478  0.50464822  1
  Fe  Fe28  1  0.00464901  1.00464735  0.67131650  1
  Ni  Ni29  1  0.17131363  0.17132216  0.83798271  1
  Fe  Fe30  1  0.17130809  0.50465504  0.50464225  1
  Fe  Fe31  1  0.00464818  0.33798149  0.67131649  1
  Fe  Fe32  1  0.17131188  0.50463926  0.83798447  1
  Fe  Fe33  1  0.17130886  0.83797470  0.50465064  1
  Fe  Fe34  1  1.00464142  0.67131567  0.67130890  1
  Fe  Fe35  1  0.17131566  0.83798747  0.83798068  1
  Fe  Fe36  1  0.50465799  0.17131105  0.50464685  1
  Fe  Fe37  1  0.33798148  0.00464819  0.67131650  1
  Fe  Fe38  1  0.50464221  0.17131484  0.83797985  1
  Fe  Fe39  1  0.50465712  0.50465711  0.50464088  1
  Fe  Fe40  1  0.33797936  0.33797771  0.67131349  1
  Fe  Fe41  1  0.50464137  0.50464136  0.83798748  1
  Ni  Ni42  1  0.50465420  0.83798323  0.50464829  1
  Fe  Fe43  1  0.33798529  0.67131862  0.67131352  1
  Fe  Fe44  1  0.50464054  0.83798830  0.83798069  1
  Fe  Fe45  1  0.83797766  0.17131182  0.50464603  1
  Fe  Fe46  1  0.67131402  1.00464142  0.67130890  1
  Fe  Fe47  1  0.83799042  0.17131863  0.83798529  1
  Ni  Ni48  1  0.83798749  0.50464994  0.50464440  1
  Fe  Fe49  1  0.67131698  0.33798530  0.67131351  1
  Fe  Fe50  1  0.83799127  0.50463758  0.83797767  1
  Ni  Ni51  1  0.83797290  0.83797289  0.50465224  1
  Fe  Fe52  1  0.67131780  0.67131779  0.67130594  1
  Fe  Fe53  1  0.83798831  0.83798830  0.83798150  1
" 