7252,Ni82Fe18_13,-231.324126322895, 178.906585022442,Ni82Fe18,"# generated using pymatgen
 data_Fe22Ni5
_symmetry_space_group_name_H-M   'P 1'
_cell_length_a   7.39762008
_cell_length_b   7.39762008
_cell_length_c   10.46181464
_cell_angle_alpha   90.00000000
_cell_angle_beta   90.00000000
_cell_angle_gamma   90.00000000
_symmetry_Int_Tables_number   1
_chemical_formula_structural   Fe22Ni5
_chemical_formula_sum   'Fe44 Ni10'
_cell_volume   572.52053411
_cell_formula_units_Z   2
loop_
 _symmetry_equiv_pos_site_id
 _symmetry_equiv_pos_as_xyz
  1  'x, y, z'
loop_
 _atom_site_type_symbol
 _atom_site_label
 _atom_site_symmetry_multiplicity
 _atom_site_fract_x
 _atom_site_fract_y
 _atom_site_fract_z
 _atom_site_occupancy
  Fe  Fe0  1  0.00472316  1.00430413  0.00477230  1
  Fe  Fe1  1  0.17226065  0.17267146  0.17184403  1
  Fe  Fe2  1  0.00533423  0.00484492  0.33821106  1
  Fe  Fe3  1  1.00371128  0.33734561  1.00360321  1
  Fe  Fe4  1  0.17234216  0.50440118  0.17134313  1
  Fe  Fe5  1  0.00480525  0.33815187  0.33893546  1
  Fe  Fe6  1  1.00419920  0.67251943  1.00448203  1
  Fe  Fe7  1  0.17208594  0.83704632  0.17053690  1
  Fe  Fe8  1  0.00482741  0.67097078  0.33851310  1
  Fe  Fe9  1  0.33847489  1.00424736  1.00424916  1
  Fe  Fe10  1  0.50464188  0.17185475  0.17154029  1
  Fe  Fe11  1  0.33783270  0.00526809  0.33815475  1
  Fe  Fe12  1  0.33911787  0.33745210  0.00528887  1
  Ni  Ni13  1  0.50477239  0.50448861  0.17118847  1
  Ni  Ni14  1  0.33762827  0.33875325  0.33850638  1
  Fe  Fe15  1  0.33891954  0.67233665  1.00373425  1
  Fe  Fe16  1  0.50494935  0.83744764  0.17030501  1
  Fe  Fe17  1  0.33843877  0.67091649  0.33821127  1
  Ni  Ni18  1  0.67167612  1.00382914  0.00520477  1
  Fe  Fe19  1  0.83714987  0.17174749  0.17079560  1
  Fe  Fe20  1  0.67100489  0.00486914  0.33776410  1
  Fe  Fe21  1  0.67127837  0.33770137  0.00487783  1
  Fe  Fe22  1  0.83781073  0.50467899  0.17206706  1
  Fe  Fe23  1  0.67058327  0.33862812  0.33779111  1
  Fe  Fe24  1  0.67093474  0.67150817  0.00479811  1
  Fe  Fe25  1  0.83705140  0.83754962  0.17237930  1
  Fe  Fe26  1  0.67095246  0.67044074  0.33840395  1
  Fe  Fe27  1  0.17051096  0.17241654  0.50473444  1
  Fe  Fe28  1  0.00634056  0.00470423  0.67123972  1
  Fe  Fe29  1  0.17193879  0.17116527  0.83749182  1
  Fe  Fe30  1  0.17064419  0.50474150  0.50517779  1
  Ni  Ni31  1  1.00456792  0.33761709  0.67112609  1
  Fe  Fe32  1  0.17217327  0.50598881  0.83734694  1
  Fe  Fe33  1  0.17044598  0.83702276  0.50550123  1
  Fe  Fe34  1  0.00576288  0.67011304  0.67107241  1
  Ni  Ni35  1  0.17158491  0.83844217  0.83748420  1
  Fe  Fe36  1  0.50537166  0.17210095  0.50466750  1
  Fe  Fe37  1  0.33729325  0.00519241  0.67165981  1
  Fe  Fe38  1  0.50418054  0.17009856  0.83819686  1
  Fe  Fe39  1  0.50480384  0.50485836  0.50397022  1
  Ni  Ni40  1  0.33741845  0.33911475  0.67154202  1
  Fe  Fe41  1  0.50323782  0.50600437  0.83843067  1
  Fe  Fe42  1  0.50620318  0.83735993  0.50586756  1
  Ni  Ni43  1  0.33860406  0.67128739  0.67056037  1
  Ni  Ni44  1  0.50411916  0.83801397  0.83779708  1
  Fe  Fe45  1  0.83806899  0.17109452  0.50513197  1
  Fe  Fe46  1  0.67048695  0.00494554  0.67223421  1
  Fe  Fe47  1  0.83795990  0.16976231  0.83815894  1
  Ni  Ni48  1  0.83794089  0.50437411  0.50415149  1
  Fe  Fe49  1  0.67080598  0.33927760  0.67122034  1
  Fe  Fe50  1  0.83856741  0.50576931  0.83690084  1
  Ni  Ni51  1  0.83833780  0.83766030  0.50564301  1
  Fe  Fe52  1  0.67103848  0.66985520  0.67101033  1
  Fe  Fe53  1  0.83748357  0.83844373  0.83757883  1
" 