642,Ni82Fe13Cr3_14,-239.479867992227, 191.997556145933,Ni82Fe13Cr3,"# generated using pymatgen
 data_Cr3Fe7Ni44
_symmetry_space_group_name_H-M   'P 1'
_cell_length_a   7.43769021
_cell_length_b   7.43769021
_cell_length_c   10.51848236
_cell_angle_alpha   90.00000000
_cell_angle_beta   90.00000000
_cell_angle_gamma   90.00000000
_symmetry_Int_Tables_number   1
_chemical_formula_structural   Cr3Fe7Ni44
_chemical_formula_sum   'Cr3 Fe7 Ni44'
_cell_volume   581.87440398
_cell_formula_units_Z   1
loop_
 _symmetry_equiv_pos_site_id
 _symmetry_equiv_pos_as_xyz
  1  'x, y, z'
loop_
 _atom_site_type_symbol
 _atom_site_label
 _atom_site_symmetry_multiplicity
 _atom_site_fract_x
 _atom_site_fract_y
 _atom_site_fract_z
 _atom_site_occupancy
  Ni  Ni0  1  0.00201981  0.00358390  0.00228597  1
  Ni  Ni1  1  0.16950873  0.16758208  0.16797765  1
  Ni  Ni2  1  1.00140428  0.99994159  0.33492877  1
  Ni  Ni3  1  0.00254750  0.33369542  0.00216110  1
  Ni  Ni4  1  0.16952247  0.50180748  0.16902762  1
  Cr  Cr5  1  0.00323213  0.33567086  0.33471864  1
  Cr  Cr6  1  1.00196956  0.66864099  1.00186705  1
  Ni  Ni7  1  0.16887748  0.83653201  0.16914798  1
  Ni  Ni8  1  1.00135610  0.67033487  0.33525437  1
  Ni  Ni9  1  0.33479605  0.00317415  0.00338934  1
  Ni  Ni10  1  0.50144122  0.16864317  0.16882082  1
  Fe  Fe11  1  0.33533196  1.00149015  0.33511950  1
  Ni  Ni12  1  0.33538271  0.33522172  1.00181419  1
  Ni  Ni13  1  0.50247909  0.50179572  0.16857592  1
  Ni  Ni14  1  0.33652932  0.33539481  0.33512751  1
  Ni  Ni15  1  0.33637146  0.66752430  0.00343778  1
  Ni  Ni16  1  0.50206150  0.83548193  0.16869590  1
  Fe  Fe17  1  0.33526077  0.66917970  0.33509842  1
  Ni  Ni18  1  0.66910504  0.00259546  0.00287709  1
  Fe  Fe19  1  0.83478549  0.16740753  0.16760581  1
  Ni  Ni20  1  0.66857408  1.00072670  0.33522037  1
  Ni  Ni21  1  0.66798965  0.33527089  0.00275266  1
  Ni  Ni22  1  0.83391994  0.50242587  0.16860887  1
  Fe  Fe23  1  0.66758557  0.33554704  0.33570839  1
  Ni  Ni24  1  0.66757955  0.66805337  0.00292401  1
  Ni  Ni25  1  0.83498134  0.83549337  0.17018362  1
  Ni  Ni26  1  0.66882366  0.66975034  0.33497288  1
  Fe  Fe27  1  0.16973183  0.16802013  0.50294419  1
  Ni  Ni28  1  1.00189203  1.00173223  0.66870545  1
  Ni  Ni29  1  0.16809327  0.16850155  0.83490924  1
  Fe  Fe30  1  0.16978598  0.50259461  0.50299581  1
  Ni  Ni31  1  0.00230929  0.33555052  0.66883195  1
  Ni  Ni32  1  0.16888443  0.50108983  0.83411760  1
  Ni  Ni33  1  0.16885104  0.83552391  0.50192994  1
  Ni  Ni34  1  1.00189560  0.66863819  0.66833357  1
  Ni  Ni35  1  0.16757209  0.83632958  0.83484260  1
  Ni  Ni36  1  0.50258883  0.16864244  0.50223055  1
  Ni  Ni37  1  0.33475543  0.00298753  0.66740119  1
  Ni  Ni38  1  0.50197428  0.17034199  0.83487043  1
  Ni  Ni39  1  0.50284925  0.50175478  0.50197142  1
  Ni  Ni40  1  0.33539918  0.33535422  0.66897842  1
  Ni  Ni41  1  0.50223466  0.50030077  0.83537537  1
  Ni  Ni42  1  0.50086412  0.83552366  0.50184989  1
  Ni  Ni43  1  0.33455641  0.66757921  0.66760191  1
  Cr  Cr44  1  0.50157975  0.83528409  0.83554989  1
  Ni  Ni45  1  0.83435905  0.16878227  0.50252111  1
  Ni  Ni46  1  0.66927251  0.00257309  0.66782347  1
  Ni  Ni47  1  0.83585344  0.16903020  0.83584089  1
  Ni  Ni48  1  0.83436035  0.50187497  0.50298715  1
  Ni  Ni49  1  0.66821490  0.33535061  0.66794576  1
  Ni  Ni50  1  0.83480173  0.50082109  0.83432408  1
  Fe  Fe51  1  0.83434569  0.83535856  0.50176550  1
  Ni  Ni52  1  0.66946824  0.66799710  0.66802357  1
  Ni  Ni53  1  0.83664218  0.83606952  0.83359889  1
" 