6736,Ni82Fe3Cr14_3,-233.61941088582, 163.458643684089,Ni82Fe3Cr14,"# generated using pymatgen
 data_Cr9FeNi44
_symmetry_space_group_name_H-M   'P 1'
_cell_length_a   7.46691693
_cell_length_b   7.46691693
_cell_length_c   10.55981519
_cell_angle_alpha   90.00000000
_cell_angle_beta   90.00000000
_cell_angle_gamma   90.00000000
_symmetry_Int_Tables_number   1
_chemical_formula_structural   Cr9FeNi44
_chemical_formula_sum   'Cr9 Fe1 Ni44'
_cell_volume   588.76089533
_cell_formula_units_Z   1
loop_
 _symmetry_equiv_pos_site_id
 _symmetry_equiv_pos_as_xyz
  1  'x, y, z'
loop_
 _atom_site_type_symbol
 _atom_site_label
 _atom_site_symmetry_multiplicity
 _atom_site_fract_x
 _atom_site_fract_y
 _atom_site_fract_z
 _atom_site_occupancy
  Ni  Ni0  1  0.00242780  0.00103728  0.00150520  1
  Ni  Ni1  1  0.16625291  0.16620563  0.16691136  1
  Ni  Ni2  1  0.00151322  0.00019118  0.33300060  1
  Ni  Ni3  1  0.00077684  0.33237851  0.99833805  1
  Ni  Ni4  1  0.16914325  0.49951671  0.16692506  1
  Ni  Ni5  1  0.00094642  0.33240093  0.33520088  1
  Ni  Ni6  1  0.00205456  0.66660139  0.99966337  1
  Ni  Ni7  1  0.16714340  0.83432651  0.16647684  1
  Ni  Ni8  1  0.00103656  0.66745211  0.33483778  1
  Ni  Ni9  1  0.33136330  0.99966819  0.99958149  1
  Fe  Fe10  1  0.49764448  0.16821316  0.16636341  1
  Ni  Ni11  1  0.33063849  0.99889619  0.33284780  1
  Ni  Ni12  1  0.33319100  0.33381768  0.99990281  1
  Ni  Ni13  1  0.49859187  0.50053764  0.16670599  1
  Ni  Ni14  1  0.33124203  0.33380112  0.33156143  1
  Ni  Ni15  1  0.33333859  0.66653436  0.99970709  1
  Ni  Ni16  1  0.49812537  0.83080552  0.16692336  1
  Ni  Ni17  1  0.33253419  0.66733154  0.33274935  1
  Cr  Cr18  1  0.66612732  0.00080900  0.00034263  1
  Ni  Ni19  1  0.83585227  0.16665438  0.16668143  1
  Cr  Cr20  1  0.66795595  0.99894851  0.33323646  1
  Ni  Ni21  1  0.66604063  0.33436840  0.99892792  1
  Cr  Cr22  1  0.83295950  0.50018792  0.16638781  1
  Ni  Ni23  1  0.66778892  0.33430545  0.33227440  1
  Ni  Ni24  1  0.66470714  0.66490195  0.00010955  1
  Ni  Ni25  1  0.83472206  0.83380352  0.16689956  1
  Ni  Ni26  1  0.66647877  0.66673723  0.33343594  1
  Ni  Ni27  1  0.16551649  0.16738951  0.49912616  1
  Cr  Cr28  1  0.00055595  0.00115427  0.66556221  1
  Ni  Ni29  1  0.16790902  0.16768968  0.83397781  1
  Ni  Ni30  1  0.16451724  0.49990480  0.50022678  1
  Ni  Ni31  1  0.00193971  0.33507709  0.66645204  1
  Ni  Ni32  1  0.16685468  0.49961585  0.83289729  1
  Ni  Ni33  1  0.16740974  0.83271779  0.49902956  1
  Ni  Ni34  1  0.00303506  0.66388045  0.66557505  1
  Ni  Ni35  1  0.16977607  0.83270995  0.83450908  1
  Cr  Cr36  1  0.49753243  0.16519416  0.50011137  1
  Ni  Ni37  1  0.33438049  0.99889249  0.66760719  1
  Ni  Ni38  1  0.49808467  0.16680114  0.83344289  1
  Cr  Cr39  1  0.49800609  0.50129807  0.49762979  1
  Ni  Ni40  1  0.32958791  0.33336747  0.66852644  1
  Ni  Ni41  1  0.49831993  0.49973382  0.83557913  1
  Ni  Ni42  1  0.49841388  0.83351509  0.50066940  1
  Ni  Ni43  1  0.33065325  0.66774805  0.66757895  1
  Ni  Ni44  1  0.49651405  0.83352390  0.83243179  1
  Ni  Ni45  1  0.83603831  0.16748730  0.49929800  1
  Ni  Ni46  1  0.66467196  0.00003599  0.66646864  1
  Ni  Ni47  1  0.83399651  0.16960443  0.83401227  1
  Ni  Ni48  1  0.83693340  0.50009435  0.49828648  1
  Cr  Cr49  1  0.66886386  0.33162258  0.66875802  1
  Ni  Ni50  1  0.83486021  0.49790597  0.83504483  1
  Ni  Ni51  1  0.83421169  0.83244401  0.49862250  1
  Cr  Cr52  1  0.66656779  0.66830014  0.66646032  1
  Cr  Cr53  1  0.83472528  0.83233217  0.83509098  1
" 