679,Ni82Fe2Cr14_7,-233.382671851269, 159.110485956689,Ni82Fe2Cr14,"# generated using pymatgen
 data_Cr9FeNi44
_symmetry_space_group_name_H-M   'P 1'
_cell_length_a   7.47094249
_cell_length_b   7.47094249
_cell_length_c   10.56550819
_cell_angle_alpha   90.00000000
_cell_angle_beta   90.00000000
_cell_angle_gamma   90.00000000
_symmetry_Int_Tables_number   1
_chemical_formula_structural   Cr9FeNi44
_chemical_formula_sum   'Cr9 Fe1 Ni44'
_cell_volume   589.71364616
_cell_formula_units_Z   1
loop_
 _symmetry_equiv_pos_site_id
 _symmetry_equiv_pos_as_xyz
  1  'x, y, z'
loop_
 _atom_site_type_symbol
 _atom_site_label
 _atom_site_symmetry_multiplicity
 _atom_site_fract_x
 _atom_site_fract_y
 _atom_site_fract_z
 _atom_site_occupancy
  Ni  Ni0  1  -0.00017686  0.00006979  0.99965501  1
  Ni  Ni1  1  0.16671636  0.16476439  0.16644898  1
  Ni  Ni2  1  0.99871796  0.99713295  0.33289052  1
  Ni  Ni3  1  0.99813289  0.33333877  0.99940825  1
  Ni  Ni4  1  0.16671657  0.50136888  0.16620958  1
  Cr  Cr5  1  0.99906498  0.33397960  0.33246686  1
  Ni  Ni6  1  0.00157185  0.66580920  0.99935102  1
  Ni  Ni7  1  0.16653353  0.83308480  0.16639186  1
  Ni  Ni8  1  0.00061945  0.66792693  0.33338428  1
  Ni  Ni9  1  0.33327610  0.99819676  0.99961508  1
  Ni  Ni10  1  0.50057947  0.16604678  0.16710133  1
  Ni  Ni11  1  0.33368999  0.99790263  0.33121570  1
  Cr  Cr12  1  0.33193748  0.33217137  0.00050084  1
  Ni  Ni13  1  0.49955751  0.49906476  0.16869566  1
  Ni  Ni14  1  0.33519772  0.33507819  0.33178672  1
  Ni  Ni15  1  0.33024069  0.66896859  0.00008814  1
  Ni  Ni16  1  0.49845750  0.83410716  0.16695944  1
  Ni  Ni17  1  0.33270941  0.66623774  0.33363090  1
  Ni  Ni18  1  0.66611853  0.00163684  0.99916797  1
  Ni  Ni19  1  0.83192255  0.16586387  0.16547605  1
  Ni  Ni20  1  0.66680904  0.99962198  0.33252973  1
  Ni  Ni21  1  0.66927811  0.33030432  0.00027115  1
  Ni  Ni22  1  0.83294462  0.49924668  0.16592450  1
  Ni  Ni23  1  0.66511935  0.33317669  0.33252945  1
  Cr  Cr24  1  0.66723839  0.66760414  0.00123614  1
  Ni  Ni25  1  0.83422675  0.83410726  0.16745198  1
  Fe  Fe26  1  0.66601926  0.66675416  0.33346105  1
  Cr  Cr27  1  0.16485449  0.16449794  0.49782653  1
  Ni  Ni28  1  0.99666974  0.99716583  0.66667226  1
  Ni  Ni29  1  0.16479322  0.16455123  0.83468769  1
  Ni  Ni30  1  0.16760531  0.50428575  0.49938597  1
  Cr  Cr31  1  0.99779473  0.33388559  0.66713343  1
  Ni  Ni32  1  0.16401802  0.50224510  0.83362206  1
  Ni  Ni33  1  0.16522560  0.83017436  0.49920968  1
  Ni  Ni34  1  0.99953379  0.66768493  0.66648310  1
  Ni  Ni35  1  0.16571695  0.83242221  0.83361632  1
  Cr  Cr36  1  0.50262438  0.16709469  0.49845443  1
  Cr  Cr37  1  0.33343980  0.99674917  0.66843371  1
  Ni  Ni38  1  0.50231126  0.16395696  0.83383099  1
  Ni  Ni39  1  0.50037804  0.50196990  0.49910149  1
  Cr  Cr40  1  0.33331632  0.33527387  0.66672121  1
  Cr  Cr41  1  0.50055648  0.50032423  0.83171013  1
  Ni  Ni42  1  0.50037405  0.83010570  0.49949424  1
  Ni  Ni43  1  0.33252526  0.66710071  0.66549917  1
  Ni  Ni44  1  0.49918793  0.83521806  0.83276419  1
  Ni  Ni45  1  0.83130377  0.16476225  0.50031010  1
  Ni  Ni46  1  0.66885493  0.99874190  0.66752092  1
  Ni  Ni47  1  0.83211441  0.16565615  0.83343185  1
  Ni  Ni48  1  0.83123529  0.50136745  0.50034816  1
  Ni  Ni49  1  0.66827073  0.33319889  0.66641853  1
  Ni  Ni50  1  0.83491030  0.49912193  0.83294487  1
  Ni  Ni51  1  0.83361873  0.83308778  0.50016723  1
  Ni  Ni52  1  0.66715821  0.66727670  0.66468911  1
  Ni  Ni53  1  0.83431295  0.83443939  0.83159836  1
" 