1778,Ni82Fe9Cr8_6,-237.711539538509, 183.519242819167,Ni82Fe9Cr8,"# generated using pymatgen
 data_Cr5Fe5Ni44
_symmetry_space_group_name_H-M   'P 1'
_cell_length_a   7.44769486
_cell_length_b   7.44769486
_cell_length_c   10.53263108
_cell_angle_alpha   90.00000000
_cell_angle_beta   90.00000000
_cell_angle_gamma   90.00000000
_symmetry_Int_Tables_number   1
_chemical_formula_structural   Cr5Fe5Ni44
_chemical_formula_sum   'Cr5 Fe5 Ni44'
_cell_volume   584.22565285
_cell_formula_units_Z   1
loop_
 _symmetry_equiv_pos_site_id
 _symmetry_equiv_pos_as_xyz
  1  'x, y, z'
loop_
 _atom_site_type_symbol
 _atom_site_label
 _atom_site_symmetry_multiplicity
 _atom_site_fract_x
 _atom_site_fract_y
 _atom_site_fract_z
 _atom_site_occupancy
  Cr  Cr0  1  0.00135203  0.00146926  0.00147504  1
  Ni  Ni1  1  0.16847710  0.16862234  0.16977566  1
  Ni  Ni2  1  0.00160540  0.00230106  0.33492781  1
  Ni  Ni3  1  0.99947255  0.33471922  0.00295476  1
  Ni  Ni4  1  0.16629153  0.50229655  0.16817355  1
  Ni  Ni5  1  1.00069918  0.33348388  0.33329799  1
  Ni  Ni6  1  1.00116315  0.66757794  0.00345191  1
  Ni  Ni7  1  0.16966094  0.83297898  0.16821507  1
  Ni  Ni8  1  1.00048913  0.66811219  0.33345882  1
  Ni  Ni9  1  0.33630300  0.99956278  1.00129540  1
  Ni  Ni10  1  0.50211170  0.16616569  0.16781560  1
  Ni  Ni11  1  0.33444454  0.00145926  0.33430557  1
  Cr  Cr12  1  0.33486925  0.33389770  0.00202517  1
  Fe  Fe13  1  0.50218148  0.50279568  0.16829939  1
  Fe  Fe14  1  0.33481265  0.33342493  0.33434325  1
  Ni  Ni15  1  0.33574190  0.67016734  0.00204177  1
  Ni  Ni16  1  0.50099179  0.83537149  0.16781850  1
  Ni  Ni17  1  0.33570264  0.66881646  0.33345560  1
  Ni  Ni18  1  0.66643067  1.00125632  1.00129563  1
  Ni  Ni19  1  0.83331142  0.16953681  0.16843887  1
  Ni  Ni20  1  0.66784864  1.00124691  0.33425477  1
  Ni  Ni21  1  0.66902837  0.33416628  0.00232900  1
  Ni  Ni22  1  0.83570309  0.50117458  0.16744564  1
  Fe  Fe23  1  0.66866290  0.33442674  0.33496531  1
  Ni  Ni24  1  0.66699498  0.66847676  0.00203958  1
  Ni  Ni25  1  0.83324545  0.83318757  0.16826594  1
  Ni  Ni26  1  0.66771019  0.66790633  0.33478277  1
  Ni  Ni27  1  0.16847161  0.16608964  0.50147856  1
  Ni  Ni28  1  0.00160724  0.00181547  0.66767167  1
  Ni  Ni29  1  0.16790437  0.16625128  0.83264229  1
  Cr  Cr30  1  0.16778836  0.50182378  0.50238258  1
  Ni  Ni31  1  1.00068683  0.33179752  0.66764202  1
  Cr  Cr32  1  0.16852539  0.50208663  0.83350025  1
  Ni  Ni33  1  0.16768109  0.83614833  0.50164100  1
  Ni  Ni34  1  1.00047891  0.67028537  0.66699010  1
  Ni  Ni35  1  0.16987759  0.83571005  0.83404221  1
  Ni  Ni36  1  0.50143333  0.16835766  0.50210561  1
  Ni  Ni37  1  0.33389115  0.00175248  0.66829318  1
  Fe  Fe38  1  0.50225644  0.16632194  0.83375891  1
  Ni  Ni39  1  0.50311613  0.50086654  0.50151732  1
  Ni  Ni40  1  0.33615332  0.33321163  0.66765143  1
  Ni  Ni41  1  0.50191216  0.50278287  0.83401222  1
  Fe  Fe42  1  0.50161010  0.83497181  0.50118100  1
  Ni  Ni43  1  0.33642551  0.66893305  0.66839663  1
  Ni  Ni44  1  0.50099230  0.83448636  0.83459843  1
  Ni  Ni45  1  0.83399422  0.16777416  0.50148037  1
  Ni  Ni46  1  0.66840093  0.00154628  0.66834433  1
  Ni  Ni47  1  0.83387423  0.16717547  0.83398034  1
  Ni  Ni48  1  0.83251718  0.50165600  0.50183283  1
  Ni  Ni49  1  0.66706041  0.33433788  0.66693104  1
  Cr  Cr50  1  0.83338337  0.50098435  0.83443270  1
  Ni  Ni51  1  0.83478805  0.83446541  0.50164066  1
  Ni  Ni52  1  0.66699421  0.66801439  0.66707128  1
  Ni  Ni53  1  0.83302905  0.83591178  0.83399186  1
" 