3212,Ni82Fe3Cr14_11,-233.45279074824, 162.989704850172,Ni82Fe3Cr14,"# generated using pymatgen
 data_Cr9FeNi44
_symmetry_space_group_name_H-M   'P 1'
_cell_length_a   7.46931825
_cell_length_b   7.46931825
_cell_length_c   10.56321117
_cell_angle_alpha   90.00000000
_cell_angle_beta   90.00000000
_cell_angle_gamma   90.00000000
_symmetry_Int_Tables_number   1
_chemical_formula_structural   Cr9FeNi44
_chemical_formula_sum   'Cr9 Fe1 Ni44'
_cell_volume   589.32910575
_cell_formula_units_Z   1
loop_
 _symmetry_equiv_pos_site_id
 _symmetry_equiv_pos_as_xyz
  1  'x, y, z'
loop_
 _atom_site_type_symbol
 _atom_site_label
 _atom_site_symmetry_multiplicity
 _atom_site_fract_x
 _atom_site_fract_y
 _atom_site_fract_z
 _atom_site_occupancy
  Cr  Cr0  1  0.00120749  0.99882533  0.00089885  1
  Ni  Ni1  1  0.16621165  0.16689209  0.16655830  1
  Ni  Ni2  1  0.99823375  0.00150877  0.33348444  1
  Ni  Ni3  1  0.00154004  0.33532984  -0.00003175  1
  Cr  Cr4  1  0.16707218  0.49922211  0.16591572  1
  Ni  Ni5  1  0.99962375  0.32989670  0.33293616  1
  Ni  Ni6  1  0.99879575  0.66580078  0.99912129  1
  Ni  Ni7  1  0.16739815  0.83365275  0.16616460  1
  Cr  Cr8  1  0.00129318  0.66869565  0.33296553  1
  Ni  Ni9  1  0.33445448  0.99976860  0.99977686  1
  Ni  Ni10  1  0.50049000  0.16619859  0.16633645  1
  Cr  Cr11  1  0.33256717  0.99979635  0.33255986  1
  Ni  Ni12  1  0.33235087  0.33224950  0.99912194  1
  Ni  Ni13  1  0.50002161  0.50001603  0.16757436  1
  Ni  Ni14  1  0.33397551  0.33394256  0.33386546  1
  Ni  Ni15  1  0.33374235  0.66752624  0.99951851  1
  Ni  Ni16  1  0.50032025  0.83332806  0.16470313  1
  Ni  Ni17  1  0.33364131  0.66548905  0.33420399  1
  Ni  Ni18  1  0.66392579  0.99702270  0.00109305  1
  Ni  Ni19  1  0.83284222  0.16659279  0.16934115  1
  Ni  Ni20  1  0.66859474  0.00184134  0.33299909  1
  Cr  Cr21  1  0.66557845  0.33420430  0.00089879  1
  Ni  Ni22  1  0.83251848  0.49882896  0.16512458  1
  Ni  Ni23  1  0.66594521  0.33082142  0.33219235  1
  Ni  Ni24  1  0.66700573  0.66790227  0.99977624  1
  Ni  Ni25  1  0.83182576  0.83412243  0.16593331  1
  Cr  Cr26  1  0.66465248  0.66690368  0.33218073  1
  Ni  Ni27  1  0.16561385  0.16783075  0.50063205  1
  Ni  Ni28  1  0.00051985  0.00052245  0.66490750  1
  Ni  Ni29  1  0.16891776  0.16802483  0.83235317  1
  Ni  Ni30  1  0.16933348  0.49843909  0.49958526  1
  Ni  Ni31  1  0.00119874  0.33147925  0.66663881  1
  Ni  Ni32  1  0.16696360  0.49896603  0.83407608  1
  Ni  Ni33  1  0.16781474  0.83327381  0.50023935  1
  Cr  Cr34  1  0.00021289  0.66771062  0.66768712  1
  Ni  Ni35  1  0.16837040  0.83255363  0.83313952  1
  Ni  Ni36  1  0.50089744  0.16660067  0.50057285  1
  Ni  Ni37  1  0.33313131  0.00014755  0.66705543  1
  Ni  Ni38  1  0.49736721  0.16560209  0.83263420  1
  Fe  Fe39  1  0.49720509  0.49910656  0.50058871  1
  Ni  Ni40  1  0.33337710  0.33277868  0.66655755  1
  Ni  Ni41  1  0.49892933  0.50099466  0.83173058  1
  Ni  Ni42  1  0.49971315  0.83348641  0.50142004  1
  Ni  Ni43  1  0.33476745  0.66661728  0.66582298  1
  Ni  Ni44  1  0.49994433  0.83294634  0.83342109  1
  Ni  Ni45  1  0.83303224  0.16508373  0.49920153  1
  Ni  Ni46  1  0.66589264  0.99913154  0.66545246  1
  Cr  Cr47  1  0.83307901  0.16670526  0.83085839  1
  Cr  Cr48  1  0.83322586  0.49725926  0.50064643  1
  Ni  Ni49  1  0.66496769  0.33311455  0.66620043  1
  Ni  Ni50  1  0.83365083  0.50154197  0.83378030  1
  Ni  Ni51  1  0.83201557  0.83720657  0.50058116  1
  Ni  Ni52  1  0.66459365  0.66729812  0.66776611  1
  Ni  Ni53  1  0.83122858  0.83099153  0.83303000  1
" 