5836,Ni82Fe3Cr13_4,-233.567264941184, 164.705117290795,Ni82Fe3Cr13,"# generated using pymatgen
 data_Cr9FeNi44
_symmetry_space_group_name_H-M   'P 1'
_cell_length_a   7.46817973
_cell_length_b   7.46817973
_cell_length_c   10.56160107
_cell_angle_alpha   90.00000000
_cell_angle_beta   90.00000000
_cell_angle_gamma   90.00000000
_symmetry_Int_Tables_number   1
_chemical_formula_structural   Cr9FeNi44
_chemical_formula_sum   'Cr9 Fe1 Ni44'
_cell_volume   589.05965969
_cell_formula_units_Z   1
loop_
 _symmetry_equiv_pos_site_id
 _symmetry_equiv_pos_as_xyz
  1  'x, y, z'
loop_
 _atom_site_type_symbol
 _atom_site_label
 _atom_site_symmetry_multiplicity
 _atom_site_fract_x
 _atom_site_fract_y
 _atom_site_fract_z
 _atom_site_occupancy
  Ni  Ni0  1  0.99988345  0.00016037  0.99955219  1
  Ni  Ni1  1  0.16640639  0.16495257  0.16600357  1
  Ni  Ni2  1  0.00088568  0.99749121  0.33278714  1
  Ni  Ni3  1  0.99943579  0.33381369  0.99931323  1
  Ni  Ni4  1  0.16426033  0.50085992  0.16747195  1
  Ni  Ni5  1  0.99934091  0.33576708  0.33206975  1
  Ni  Ni6  1  0.99725103  0.66580595  0.00080158  1
  Ni  Ni7  1  0.16605099  0.83396772  0.16759553  1
  Ni  Ni8  1  0.99981874  0.66651338  0.33347552  1
  Ni  Ni9  1  0.33405974  0.00121319  0.00124162  1
  Ni  Ni10  1  0.49986483  0.16514310  0.16655353  1
  Ni  Ni11  1  0.33406044  0.99787273  0.33190225  1
  Cr  Cr12  1  0.33288560  0.33143944  0.99973580  1
  Ni  Ni13  1  0.50219460  0.50083863  0.16747562  1
  Cr  Cr14  1  0.33388008  0.33369438  0.33263536  1
  Cr  Cr15  1  0.33430087  0.66741014  0.00115542  1
  Ni  Ni16  1  0.50022225  0.83379760  0.16705113  1
  Ni  Ni17  1  0.33302212  0.66826522  0.33367377  1
  Ni  Ni18  1  0.66583510  0.99899166  0.99870916  1
  Cr  Cr19  1  0.83322075  0.16696240  0.16724767  1
  Ni  Ni20  1  0.66482277  0.99834932  0.33366394  1
  Ni  Ni21  1  0.66747881  0.33379102  0.99917330  1
  Ni  Ni22  1  0.83331093  0.50119604  0.16613222  1
  Ni  Ni23  1  0.66657265  0.33473129  0.33347817  1
  Ni  Ni24  1  0.66852411  0.66700710  -0.00003379  1
  Ni  Ni25  1  0.83350245  0.83165298  0.16643814  1
  Ni  Ni26  1  0.66693118  0.66669867  0.33307114  1
  Cr  Cr27  1  0.16668430  0.16570747  0.49924011  1
  Ni  Ni28  1  0.99751805  0.99744132  0.66742861  1
  Ni  Ni29  1  0.16513597  0.16790476  0.83444567  1
  Ni  Ni30  1  0.16692435  0.50357021  0.50030532  1
  Cr  Cr31  1  0.00044279  0.33451136  0.66806052  1
  Ni  Ni32  1  0.16655928  0.49877753  0.83201230  1
  Ni  Ni33  1  0.16568212  0.83040325  0.49914956  1
  Ni  Ni34  1  0.99931802  0.66736155  0.66546709  1
  Cr  Cr35  1  0.16510758  0.83273418  0.83305834  1
  Ni  Ni36  1  0.50192087  0.16698320  0.50018625  1
  Cr  Cr37  1  0.33490255  0.00034449  0.66662838  1
  Ni  Ni38  1  0.50214460  0.16739431  0.83304491  1
  Ni  Ni39  1  0.50051850  0.50081150  0.50114498  1
  Ni  Ni40  1  0.33554634  0.33573859  0.66760299  1
  Ni  Ni41  1  0.50087427  0.49948574  0.83117218  1
  Ni  Ni42  1  0.50056701  0.83197600  0.49929260  1
  Ni  Ni43  1  0.33400808  0.66382572  0.66539589  1
  Ni  Ni44  1  0.50350912  0.83290431  0.83343778  1
  Cr  Cr45  1  0.83097388  0.16576750  0.49867073  1
  Ni  Ni46  1  0.66722612  0.99901292  0.66740737  1
  Ni  Ni47  1  0.83248757  0.16528406  0.83383117  1
  Ni  Ni48  1  0.83231824  0.50219375  0.49918339  1
  Ni  Ni49  1  0.66368483  0.33391853  0.66710365  1
  Fe  Fe50  1  0.83204196  0.50043153  0.83420562  1
  Ni  Ni51  1  0.83352287  0.83183935  0.50035801  1
  Ni  Ni52  1  0.66644466  0.66685112  0.66671906  1
  Ni  Ni53  1  0.83182049  0.83434595  0.83297958  1
" 