2327,Ni82Fe3Cr13_10,-233.555568785941, 166.076993556948,Ni82Fe3Cr13,"# generated using pymatgen
 data_Cr9FeNi44
_symmetry_space_group_name_H-M   'P 1'
_cell_length_a   7.46887012
_cell_length_b   7.46887012
_cell_length_c   10.56257742
_cell_angle_alpha   90.00000000
_cell_angle_beta   90.00000000
_cell_angle_gamma   90.00000000
_symmetry_Int_Tables_number   1
_chemical_formula_structural   Cr9FeNi44
_chemical_formula_sum   'Cr9 Fe1 Ni44'
_cell_volume   589.22303908
_cell_formula_units_Z   1
loop_
 _symmetry_equiv_pos_site_id
 _symmetry_equiv_pos_as_xyz
  1  'x, y, z'
loop_
 _atom_site_type_symbol
 _atom_site_label
 _atom_site_symmetry_multiplicity
 _atom_site_fract_x
 _atom_site_fract_y
 _atom_site_fract_z
 _atom_site_occupancy
  Ni  Ni0  1  0.00146437  0.99825452  0.00014328  1
  Cr  Cr1  1  0.16478900  0.16673515  0.16654301  1
  Ni  Ni2  1  0.99664430  0.99814995  0.33304660  1
  Ni  Ni3  1  0.99817625  0.33493625  0.00005626  1
  Ni  Ni4  1  0.16594062  0.50178852  0.16793739  1
  Ni  Ni5  1  0.00002249  0.33493839  0.33304709  1
  Ni  Ni6  1  0.99977635  0.66644194  0.99964822  1
  Ni  Ni7  1  0.16593888  0.83128504  0.16506645  1
  Ni  Ni8  1  0.00032359  0.66654597  0.33354269  1
  Ni  Ni9  1  0.33254593  0.99755699  0.99863395  1
  Ni  Ni10  1  0.50133265  0.16634341  0.16633866  1
  Cr  Cr11  1  0.33482865  0.99851910  0.33284033  1
  Cr  Cr12  1  0.33424160  0.33358867  0.99945560  1
  Ni  Ni13  1  0.49980295  0.50163523  0.16634044  1
  Ni  Ni14  1  0.33321847  0.33663202  0.33356419  1
  Ni  Ni15  1  0.33324133  0.66813020  0.00038846  1
  Ni  Ni16  1  0.50002261  0.83165628  0.16655485  1
  Ni  Ni17  1  0.33291546  0.66485357  0.33302562  1
  Cr  Cr18  1  0.66570335  0.99968870  0.00141783  1
  Ni  Ni19  1  0.83351982  0.16634144  0.16669163  1
  Ni  Ni20  1  0.66808709  0.99845186  0.33356225  1
  Ni  Ni21  1  0.66731328  0.33563281  0.00051587  1
  Ni  Ni22  1  0.83389037  0.50047855  0.16495982  1
  Cr  Cr23  1  0.66647374  0.33260637  0.33283862  1
  Ni  Ni24  1  0.66661604  0.66484524  0.99985419  1
  Ni  Ni25  1  0.83367229  0.83281406  0.16760596  1
  Ni  Ni26  1  0.66639480  0.66822972  0.33302542  1
  Cr  Cr27  1  0.16576922  0.16771329  0.50064828  1
  Ni  Ni28  1  0.99977616  0.99881129  0.66644300  1
  Ni  Ni29  1  0.16765013  0.16616697  0.83244265  1
  Ni  Ni30  1  0.16594049  0.50046741  0.49870827  1
  Ni  Ni31  1  0.99986677  0.33438016  0.66653099  1
  Ni  Ni32  1  0.16513459  0.49916588  0.83298927  1
  Ni  Ni33  1  0.16494708  0.83161550  0.50036365  1
  Ni  Ni34  1  0.99977528  0.66644133  0.66644270  1
  Fe  Fe35  1  0.16607168  0.83383146  0.83408842  1
  Ni  Ni36  1  0.50132908  0.16634338  0.50206881  1
  Ni  Ni37  1  0.33423396  0.00149282  0.66795227  1
  Ni  Ni38  1  0.49735581  0.16611968  0.83122733  1
  Ni  Ni39  1  0.49881161  0.49932460  0.49908948  1
  Ni  Ni40  1  0.33414327  0.33169988  0.66700614  1
  Ni  Ni41  1  0.50020225  0.49954676  0.83420389  1
  Ni  Ni42  1  0.50101305  0.83396612  0.49887559  1
  Cr  Cr43  1  0.33161953  0.66638269  0.66617154  1
  Ni  Ni44  1  0.49926082  0.83396775  0.83420386  1
  Ni  Ni45  1  0.83253130  0.16534990  0.50050004  1
  Ni  Ni46  1  0.66562379  0.00140114  0.66502203  1
  Cr  Cr47  1  0.83443844  0.16727617  0.83244329  1
  Ni  Ni48  1  0.83488198  0.50015134  0.50047067  1
  Ni  Ni49  1  0.66562349  0.33169927  0.66607301  1
  Ni  Ni50  1  0.83429684  0.50107249  0.83420289  1
  Ni  Ni51  1  0.83367264  0.83413200  0.49904019  1
  Cr  Cr52  1  0.66829774  0.66636049  0.66656996  1
  Ni  Ni53  1  0.83424835  0.83145190  0.83298872  1
" 