3791,Ni82Fe2Cr14_4,-233.481204099577, 163.170587848617,Ni82Fe2Cr14,"# generated using pymatgen
 data_Cr9FeNi44
_symmetry_space_group_name_H-M   'P 1'
_cell_length_a   7.47121447
_cell_length_b   7.47121447
_cell_length_c   10.56589283
_cell_angle_alpha   90.00000000
_cell_angle_beta   90.00000000
_cell_angle_gamma   90.00000000
_symmetry_Int_Tables_number   1
_chemical_formula_structural   Cr9FeNi44
_chemical_formula_sum   'Cr9 Fe1 Ni44'
_cell_volume   589.77805381
_cell_formula_units_Z   1
loop_
 _symmetry_equiv_pos_site_id
 _symmetry_equiv_pos_as_xyz
  1  'x, y, z'
loop_
 _atom_site_type_symbol
 _atom_site_label
 _atom_site_symmetry_multiplicity
 _atom_site_fract_x
 _atom_site_fract_y
 _atom_site_fract_z
 _atom_site_occupancy
  Ni  Ni0  1  0.99964700  0.99958417  0.99798977  1
  Cr  Cr1  1  0.16712453  0.16618455  0.16672252  1
  Ni  Ni2  1  0.99965832  0.99940912  0.33443076  1
  Ni  Ni3  1  0.99954998  0.33308253  0.99808410  1
  Ni  Ni4  1  0.16766992  0.49944464  0.16621892  1
  Ni  Ni5  1  0.99966048  0.33336816  0.33443054  1
  Cr  Cr6  1  0.99932112  0.66655885  0.99968628  1
  Ni  Ni7  1  0.16766995  0.83334381  0.16669849  1
  Cr  Cr8  1  0.99949463  0.66638667  0.33234105  1
  Ni  Ni9  1  0.33330201  0.00194161  -0.00026072  1
  Ni  Ni10  1  0.49949823  0.16661132  0.16519039  1
  Ni  Ni11  1  0.33409944  0.99883163  0.33334450  1
  Ni  Ni12  1  0.33339963  0.33072379  -0.00016548  1
  Ni  Ni13  1  0.49973546  0.49903603  0.16798766  1
  Ni  Ni14  1  0.33409722  0.33394577  0.33334432  1
  Cr  Cr15  1  0.33129088  0.66655885  0.00181508  1
  Ni  Ni16  1  0.49949822  0.83351639  0.16775223  1
  Ni  Ni17  1  0.33485592  0.66638595  0.33270849  1
  Ni  Ni18  1  0.66621476  0.00176358  0.99954330  1
  Cr  Cr19  1  0.83247370  0.16654432  0.16636433  1
  Ni  Ni20  1  0.66540577  0.99865218  0.33352414  1
  Ni  Ni21  1  0.66621400  0.33100188  0.99956001  1
  Ni  Ni22  1  0.83175777  0.49944486  0.16669828  1
  Ni  Ni23  1  0.66540581  0.33412322  0.33352410  1
  Cr  Cr24  1  0.66855007  0.66658743  0.00205326  1
  Ni  Ni25  1  0.83199542  0.83310732  0.16646261  1
  Ni  Ni26  1  0.66482659  0.66638790  0.33232442  1
  Ni  Ni27  1  0.16602857  0.16637318  0.49949067  1
  Ni  Ni28  1  -0.00014998  0.99900961  0.66674558  1
  Ni  Ni29  1  0.16586246  0.16572219  0.83364337  1
  Ni  Ni30  1  0.16746895  0.49888318  0.50127052  1
  Ni  Ni31  1  -0.00024771  0.33365643  0.66665098  1
  Fe  Fe32  1  0.16424430  0.49762751  0.83129483  1
  Ni  Ni33  1  0.16746896  0.83390687  0.50079097  1
  Ni  Ni34  1  0.00142284  0.66649660  0.66725300  1
  Ni  Ni35  1  0.16436113  0.83537123  0.83167307  1
  Ni  Ni36  1  0.49973987  0.16661131  0.50018897  1
  Ni  Ni37  1  0.33225821  0.00027784  0.66607948  1
  Ni  Ni38  1  0.49949720  0.16685426  0.83378425  1
  Ni  Ni39  1  0.49889276  0.49923873  0.49859973  1
  Ni  Ni40  1  0.33235602  0.33238774  0.66598454  1
  Cr  Cr41  1  0.49953156  0.49642366  0.83207104  1
  Ni  Ni42  1  0.49865482  0.83331360  0.49883581  1
  Ni  Ni43  1  0.32941386  0.66649706  0.66468814  1
  Cr  Cr44  1  0.49860506  0.83608334  0.83207078  1
  Ni  Ni45  1  0.83339486  0.16661131  0.49997040  1
  Ni  Ni46  1  0.66705550  0.00194912  0.66609620  1
  Ni  Ni47  1  0.83380354  0.16685384  0.83340047  1
  Ni  Ni48  1  0.83280092  0.49779796  0.49970624  1
  Ni  Ni49  1  0.66705431  0.33081637  0.66607939  1
  Ni  Ni50  1  0.83525956  0.49698426  0.83275848  1
  Ni  Ni51  1  0.83303931  0.83475435  0.49994269  1
  Cr  Cr52  1  0.66831709  0.66658778  0.66474029  1
  Ni  Ni53  1  0.83639067  0.83532565  0.83275828  1
" 