6181,Ni82Fe8Cr9_4,-236.685180925898, 177.443283668117,Ni82Fe8Cr9,"# generated using pymatgen
 data_Cr3(FeNi11)2
_symmetry_space_group_name_H-M   'P 1'
_cell_length_a   7.45578980
_cell_length_b   7.45578980
_cell_length_c   10.54407905
_cell_angle_alpha   90.00000000
_cell_angle_beta   90.00000000
_cell_angle_gamma   90.00000000
_symmetry_Int_Tables_number   1
_chemical_formula_structural   Cr3(FeNi11)2
_chemical_formula_sum   'Cr6 Fe4 Ni44'
_cell_volume   586.13271778
_cell_formula_units_Z   2
loop_
 _symmetry_equiv_pos_site_id
 _symmetry_equiv_pos_as_xyz
  1  'x, y, z'
loop_
 _atom_site_type_symbol
 _atom_site_label
 _atom_site_symmetry_multiplicity
 _atom_site_fract_x
 _atom_site_fract_y
 _atom_site_fract_z
 _atom_site_occupancy
  Ni  Ni0  1  0.00161943  0.00265829  1.00003703  1
  Ni  Ni1  1  0.16555248  0.16902200  0.16814051  1
  Ni  Ni2  1  1.00065154  0.00253989  0.33539089  1
  Fe  Fe3  1  1.00069626  0.33402622  1.00075496  1
  Ni  Ni4  1  0.16723817  0.49932305  0.16764638  1
  Ni  Ni5  1  1.00064904  0.33393706  0.33320777  1
  Ni  Ni6  1  0.00161507  0.66577758  0.99978258  1
  Cr  Cr7  1  0.16908679  0.83390389  0.16726276  1
  Ni  Ni8  1  1.00072854  0.66579042  0.33571512  1
  Ni  Ni9  1  0.33330999  1.00065753  0.99872858  1
  Cr  Cr10  1  0.50080340  0.16695931  0.16793793  1
  Ni  Ni11  1  0.33375230  1.00069723  0.33539567  1
  Ni  Ni12  1  0.33353777  0.33494077  1.00004066  1
  Ni  Ni13  1  0.50058046  0.50261500  0.16808741  1
  Ni  Ni14  1  0.33302636  0.33504944  0.33470220  1
  Ni  Ni15  1  0.33442561  0.66666654  0.99983935  1
  Ni  Ni16  1  0.50077762  0.83249468  0.16733608  1
  Ni  Ni17  1  0.33478586  0.66652120  0.33435825  1
  Ni  Ni18  1  0.66733512  0.00176873  0.99984236  1
  Ni  Ni19  1  0.83587160  0.16882626  0.16744755  1
  Ni  Ni20  1  0.66786158  0.00077620  0.33546971  1
  Ni  Ni21  1  0.66822497  0.33494536  0.99978554  1
  Ni  Ni22  1  0.83444640  0.49925967  0.16770687  1
  Ni  Ni23  1  0.66859106  0.33496985  0.33477804  1
  Ni  Ni24  1  0.66622420  0.66555055  0.00095367  1
  Cr  Cr25  1  0.83237584  0.83429641  0.16783733  1
  Ni  Ni26  1  0.66674877  0.66651657  0.33439164  1
  Fe  Fe27  1  0.16886589  0.16938834  0.49975953  1
  Cr  Cr28  1  0.00144824  0.00299057  0.66686033  1
  Ni  Ni29  1  0.16823844  0.16780248  0.83448249  1
  Ni  Ni30  1  0.16750065  0.50067700  0.49983966  1
  Ni  Ni31  1  1.00039582  0.33419083  0.66830307  1
  Ni  Ni32  1  0.16804117  0.50034732  0.83477833  1
  Fe  Fe33  1  0.16974406  0.83350250  0.49921691  1
  Cr  Cr34  1  0.00141169  0.66500604  0.66690580  1
  Ni  Ni35  1  0.17082801  0.83411567  0.83553635  1
  Ni  Ni36  1  0.50148476  0.16606870  0.50109164  1
  Ni  Ni37  1  0.33603307  0.00089104  0.66814155  1
  Ni  Ni38  1  0.50064561  0.16670698  0.83334440  1
  Ni  Ni39  1  0.50034694  0.50139008  0.50069753  1
  Ni  Ni40  1  0.33452536  0.33419364  0.66752241  1
  Ni  Ni41  1  0.50038613  0.50098582  0.83348017  1
  Ni  Ni42  1  0.50054048  0.83480662  0.50075336  1
  Ni  Ni43  1  0.33595363  0.66718262  0.66806579  1
  Ni  Ni44  1  0.49869236  0.83457239  0.83417320  1
  Ni  Ni45  1  0.83308804  0.16791819  0.49983749  1
  Ni  Ni46  1  0.66472509  0.00208405  0.66695239  1
  Ni  Ni47  1  0.83338195  0.16949364  0.83497713  1
  Ni  Ni48  1  0.83441658  0.49972989  0.50003665  1
  Ni  Ni49  1  0.66734563  0.33411343  0.66770008  1
  Ni  Ni50  1  0.83383790  0.49839396  0.83452068  1
  Fe  Fe51  1  0.83120284  0.83358196  0.49882795  1
  Ni  Ni52  1  0.66471924  0.66606507  0.66691891  1
  Cr  Cr53  1  0.83245259  0.83407987  0.83546780  1
" 