8616,Ni82Fe2Cr14_8,-233.484929166543, 165.400510522216,Ni82Fe2Cr14,"# generated using pymatgen
 data_Cr9FeNi44
_symmetry_space_group_name_H-M   'P 1'
_cell_length_a   7.46866105
_cell_length_b   7.46866105
_cell_length_c   10.56228175
_cell_angle_alpha   90.00000000
_cell_angle_beta   90.00000000
_cell_angle_gamma   90.00000000
_symmetry_Int_Tables_number   1
_chemical_formula_structural   Cr9FeNi44
_chemical_formula_sum   'Cr9 Fe1 Ni44'
_cell_volume   589.17356049
_cell_formula_units_Z   1
loop_
 _symmetry_equiv_pos_site_id
 _symmetry_equiv_pos_as_xyz
  1  'x, y, z'
loop_
 _atom_site_type_symbol
 _atom_site_label
 _atom_site_symmetry_multiplicity
 _atom_site_fract_x
 _atom_site_fract_y
 _atom_site_fract_z
 _atom_site_occupancy
  Ni  Ni0  1  0.99980365  0.99869337  0.99966446  1
  Ni  Ni1  1  0.16577080  0.16563348  0.16554637  1
  Ni  Ni2  1  0.00099939  0.00039402  0.33437414  1
  Fe  Fe3  1  0.99969779  0.33357960  0.00164073  1
  Ni  Ni4  1  0.16542974  0.50060527  0.16572705  1
  Ni  Ni5  1  0.99953516  0.33230503  0.33145678  1
  Ni  Ni6  1  0.00017911  0.66775471  0.99942352  1
  Ni  Ni7  1  0.16817707  0.83349084  0.16622402  1
  Ni  Ni8  1  0.00230030  0.66700021  0.33345829  1
  Ni  Ni9  1  0.33242519  0.00025369  0.00164073  1
  Ni  Ni10  1  0.49971049  0.16416518  0.16623624  1
  Ni  Ni11  1  0.33269721  0.99852678  0.33309853  1
  Ni  Ni12  1  0.33449170  0.33369389  0.00134271  1
  Ni  Ni13  1  0.50007670  0.50209756  0.16643869  1
  Cr  Cr14  1  0.33373318  0.33438834  0.33280687  1
  Ni  Ni15  1  0.33239481  0.66571842  0.00191194  1
  Ni  Ni16  1  0.49834301  0.83347250  0.16656646  1
  Ni  Ni17  1  0.33271624  0.66780727  0.33288047  1
  Ni  Ni18  1  0.66741692  0.00079492  0.99987091  1
  Ni  Ni19  1  0.83419268  0.16714004  0.16765450  1
  Ni  Ni20  1  0.66590899  0.00127238  0.33389397  1
  Cr  Cr21  1  0.66528097  0.33381492  -0.00000185  1
  Ni  Ni22  1  0.83419009  0.49943514  0.16731327  1
  Ni  Ni23  1  0.66670446  0.33228708  0.33257404  1
  Ni  Ni24  1  0.66711953  0.66566449  0.99964472  1
  Cr  Cr25  1  0.83179082  0.83324219  0.16750735  1
  Ni  Ni26  1  0.66459809  0.66607539  0.33295498  1
  Ni  Ni27  1  0.16661861  0.16696958  0.49997511  1
  Cr  Cr28  1  0.00013567  0.99744978  0.66552483  1
  Cr  Cr29  1  0.16879172  0.16608071  0.83404631  1
  Ni  Ni30  1  0.16691648  0.50036480  0.50082089  1
  Ni  Ni31  1  0.99879333  0.33377293  0.66621394  1
  Cr  Cr32  1  0.16729691  0.50063982  0.83255064  1
  Ni  Ni33  1  0.16795595  0.83235422  0.49933755  1
  Ni  Ni34  1  0.00012802  0.66693537  0.66681154  1
  Ni  Ni35  1  0.16608064  0.83242101  0.83403388  1
  Ni  Ni36  1  0.49970144  0.16616720  0.50044549  1
  Ni  Ni37  1  0.33285019  0.99982386  0.66500605  1
  Ni  Ni38  1  0.49959124  0.16793617  0.83302169  1
  Ni  Ni39  1  0.49937162  0.50106723  0.50127514  1
  Ni  Ni40  1  0.33554539  0.33363762  0.66504245  1
  Ni  Ni41  1  0.50063433  0.49937487  0.83198420  1
  Ni  Ni42  1  0.49913464  0.83245545  0.49853800  1
  Ni  Ni43  1  0.33280899  0.66620832  0.66480587  1
  Cr  Cr44  1  0.49802038  0.83272664  0.83505808  1
  Ni  Ni45  1  0.83329059  0.16718391  0.49785966  1
  Cr  Cr46  1  0.66714940  0.00064452  0.66637084  1
  Ni  Ni47  1  0.83280487  0.16772560  0.83416992  1
  Cr  Cr48  1  0.83332366  0.49969397  0.49923260  1
  Ni  Ni49  1  0.66534312  0.33398578  0.66744528  1
  Ni  Ni50  1  0.83257921  0.50100993  0.83233304  1
  Ni  Ni51  1  0.83264616  0.83261800  0.49836466  1
  Ni  Ni52  1  0.66674018  0.66457246  0.66720938  1
  Ni  Ni53  1  0.83423035  0.83104074  0.83484032  1
" 