8161,Ni82Fe9Cr8_3,-237.636788610206, 183.717466157711,Ni82Fe9Cr8,"# generated using pymatgen
 data_Cr5Fe5Ni44
_symmetry_space_group_name_H-M   'P 1'
_cell_length_a   7.44691287
_cell_length_b   7.44691287
_cell_length_c   10.53152517
_cell_angle_alpha   90.00000000
_cell_angle_beta   90.00000000
_cell_angle_gamma   90.00000000
_symmetry_Int_Tables_number   1
_chemical_formula_structural   Cr5Fe5Ni44
_chemical_formula_sum   'Cr5 Fe5 Ni44'
_cell_volume   584.04164399
_cell_formula_units_Z   1
loop_
 _symmetry_equiv_pos_site_id
 _symmetry_equiv_pos_as_xyz
  1  'x, y, z'
loop_
 _atom_site_type_symbol
 _atom_site_label
 _atom_site_symmetry_multiplicity
 _atom_site_fract_x
 _atom_site_fract_y
 _atom_site_fract_z
 _atom_site_occupancy
  Cr  Cr0  1  1.00003571  1.00101787  0.00185012  1
  Ni  Ni1  1  0.16803247  0.17028840  0.16895057  1
  Cr  Cr2  1  1.00099260  1.00098574  0.33393114  1
  Ni  Ni3  1  1.00124064  0.33680693  1.00112771  1
  Ni  Ni4  1  0.16694710  0.50073364  0.16722362  1
  Ni  Ni5  1  0.00178249  0.33650882  0.33480167  1
  Ni  Ni6  1  1.00124890  0.66577574  0.00161529  1
  Ni  Ni7  1  0.16922850  0.83286421  0.16899816  1
  Ni  Ni8  1  0.00172837  0.66600967  0.33434864  1
  Cr  Cr9  1  0.33591908  0.00137406  0.00160302  1
  Fe  Fe10  1  0.50263132  0.16743847  0.16912028  1
  Ni  Ni11  1  0.33623444  1.00125916  0.33546505  1
  Fe  Fe12  1  0.33406561  0.33556560  0.99998824  1
  Cr  Cr13  1  0.50238164  0.50210982  0.16870205  1
  Ni  Ni14  1  0.33288118  0.33319901  0.33388761  1
  Fe  Fe15  1  0.33456102  0.66773298  1.00042857  1
  Ni  Ni16  1  0.50216237  0.83452293  0.16899844  1
  Ni  Ni17  1  0.33284091  0.66941717  0.33401589  1
  Ni  Ni18  1  0.66674519  1.00127012  0.00149760  1
  Ni  Ni19  1  0.83408399  0.17005455  0.16717541  1
  Ni  Ni20  1  0.66606562  1.00118906  0.33360215  1
  Ni  Ni21  1  0.66890945  0.33468405  1.00016026  1
  Ni  Ni22  1  0.83570777  0.50077447  0.16849728  1
  Ni  Ni23  1  0.66969505  0.33296141  0.33515074  1
  Ni  Ni24  1  0.66890067  0.66806201  1.00007852  1
  Ni  Ni25  1  0.83268246  0.83303545  0.16717464  1
  Ni  Ni26  1  0.66964930  0.66970481  0.33522288  1
  Ni  Ni27  1  0.16846503  0.16872661  0.50240299  1
  Ni  Ni28  1  1.00104312  1.00119149  0.66882548  1
  Ni  Ni29  1  0.16748496  0.16893696  0.83289157  1
  Ni  Ni30  1  0.16725470  0.50112980  0.50131443  1
  Ni  Ni31  1  0.00156056  0.33468585  0.66777222  1
  Fe  Fe32  1  0.16687955  0.50154803  0.83390621  1
  Ni  Ni33  1  0.16877019  0.83415167  0.50205030  1
  Ni  Ni34  1  0.00152058  0.66825002  0.66770923  1
  Ni  Ni35  1  0.16777113  0.83410323  0.83324053  1
  Ni  Ni36  1  0.50125858  0.16693872  0.50068811  1
  Fe  Fe37  1  0.33503015  0.00150039  0.66791645  1
  Ni  Ni38  1  0.50199503  0.16931222  0.83466399  1
  Cr  Cr39  1  0.50168647  0.50177577  0.50076576  1
  Ni  Ni40  1  0.33439173  0.33444815  0.66951924  1
  Ni  Ni41  1  0.50198300  0.50145329  0.83476739  1
  Ni  Ni42  1  0.50124730  0.83584248  0.50148425  1
  Ni  Ni43  1  0.33407541  0.66817041  0.66951788  1
  Ni  Ni44  1  0.50198684  0.83336985  0.83388210  1
  Ni  Ni45  1  0.83433181  0.16855191  0.50269555  1
  Ni  Ni46  1  0.66799697  0.00151156  0.66908738  1
  Ni  Ni47  1  0.83457769  0.16914737  0.83425436  1
  Ni  Ni48  1  0.83615697  0.50111697  0.50088982  1
  Ni  Ni49  1  0.66795368  0.33380689  0.66883508  1
  Ni  Ni50  1  0.83358550  0.50113024  0.83450840  1
  Ni  Ni51  1  0.83401228  0.83434122  0.50232411  1
  Ni  Ni52  1  0.66830321  0.66876543  0.66887929  1
  Ni  Ni53  1  0.83432553  0.83374913  0.83459412  1
" 