8601,Ni82Fe7Cr9_0,-236.611938892083, 176.740383896422,Ni82Fe7Cr9,"# generated using pymatgen
 data_Cr3(FeNi11)2
_symmetry_space_group_name_H-M   'P 1'
_cell_length_a   7.45435038
_cell_length_b   7.45435038
_cell_length_c   10.54204341
_cell_angle_alpha   90.00000000
_cell_angle_beta   90.00000000
_cell_angle_gamma   90.00000000
_symmetry_Int_Tables_number   1
_chemical_formula_structural   Cr3(FeNi11)2
_chemical_formula_sum   'Cr6 Fe4 Ni44'
_cell_volume   585.79330699
_cell_formula_units_Z   2
loop_
 _symmetry_equiv_pos_site_id
 _symmetry_equiv_pos_as_xyz
  1  'x, y, z'
loop_
 _atom_site_type_symbol
 _atom_site_label
 _atom_site_symmetry_multiplicity
 _atom_site_fract_x
 _atom_site_fract_y
 _atom_site_fract_z
 _atom_site_occupancy
  Ni  Ni0  1  0.00152035  1.00039899  0.00096570  1
  Ni  Ni1  1  0.16736943  0.16827320  0.16630466  1
  Cr  Cr2  1  0.99930252  0.00087542  0.33421820  1
  Ni  Ni3  1  0.00109345  0.33430048  0.00139046  1
  Ni  Ni4  1  0.16624779  0.50120386  0.16878578  1
  Ni  Ni5  1  0.00146454  0.33655256  0.33401452  1
  Ni  Ni6  1  0.00109378  0.66785496  0.00090465  1
  Ni  Ni7  1  0.16746797  0.83307559  0.16571471  1
  Ni  Ni8  1  0.99953926  0.66478779  0.33375527  1
  Ni  Ni9  1  0.33391421  0.99889238  0.00103270  1
  Ni  Ni10  1  0.50103104  0.16618957  0.16884884  1
  Cr  Cr11  1  0.33533729  0.00276670  0.33250665  1
  Cr  Cr12  1  0.33321074  0.33431103  1.00039030  1
  Ni  Ni13  1  0.50086709  0.50200263  0.16934745  1
  Ni  Ni14  1  0.33455082  0.33543372  0.33501505  1
  Ni  Ni15  1  0.33402665  0.66967667  0.00163846  1
  Ni  Ni16  1  0.50172872  0.83436236  0.16627786  1
  Fe  Fe17  1  0.33448663  0.66362019  0.33242626  1
  Ni  Ni18  1  0.66712023  0.99889464  0.00126479  1
  Fe  Fe19  1  0.83422866  0.16752755  0.16746358  1
  Ni  Ni20  1  0.66752506  0.00139520  0.33363768  1
  Cr  Cr21  1  0.66870691  0.33504071  0.00093513  1
  Ni  Ni22  1  0.83544043  0.50190190  0.16818540  1
  Ni  Ni23  1  0.66653957  0.33497185  0.33438297  1
  Ni  Ni24  1  0.66743443  0.66925005  1.00068768  1
  Ni  Ni25  1  0.83335839  0.83324054  0.16695258  1
  Ni  Ni26  1  0.66864582  0.66618827  0.33357123  1
  Ni  Ni27  1  0.16729315  0.17087297  0.50284784  1
  Ni  Ni28  1  1.00083563  0.00164689  0.66776676  1
  Fe  Fe29  1  0.16632268  0.16637803  0.83363582  1
  Ni  Ni30  1  0.16698138  0.49882197  0.50012409  1
  Ni  Ni31  1  1.00063198  0.33420226  0.66715006  1
  Ni  Ni32  1  0.16645833  0.50221809  0.83364476  1
  Cr  Cr33  1  0.16567586  0.83265970  0.50208286  1
  Ni  Ni34  1  1.00048254  0.66670622  0.66789340  1
  Ni  Ni35  1  0.16775899  0.83377427  0.83455825  1
  Ni  Ni36  1  0.50190866  0.16982544  0.50134342  1
  Ni  Ni37  1  0.33409744  0.00205422  0.66923673  1
  Ni  Ni38  1  0.50149421  0.16552190  0.83236179  1
  Ni  Ni39  1  0.50093470  0.49858249  0.50060474  1
  Fe  Fe40  1  0.33451773  0.33444681  0.66678177  1
  Ni  Ni41  1  0.50067592  0.50220096  0.83260266  1
  Cr  Cr42  1  0.50335783  0.83405097  0.50142368  1
  Ni  Ni43  1  0.33421096  0.66654053  0.66866125  1
  Ni  Ni44  1  0.50041618  0.83483286  0.83479675  1
  Ni  Ni45  1  0.83335319  0.16831801  0.50092121  1
  Ni  Ni46  1  0.66762118  0.00190282  0.66765135  1
  Ni  Ni47  1  0.83436077  0.16682333  0.83397880  1
  Ni  Ni48  1  0.83463882  0.50040378  0.50085179  1
  Ni  Ni49  1  0.66745562  0.33431538  0.66703631  1
  Ni  Ni50  1  0.83542038  0.50113929  0.83351738  1
  Ni  Ni51  1  0.83359296  0.83383267  0.50168704  1
  Ni  Ni52  1  0.66786137  0.66633686  0.66829497  1
  Ni  Ni53  1  0.83437971  0.83459242  0.83391588  1
" 