4385,Ni82Fe9Cr8_1,-237.683467727991, 182.488712321133,Ni82Fe9Cr8,"# generated using pymatgen
 data_Cr5Fe5Ni44
_symmetry_space_group_name_H-M   'P 1'
_cell_length_a   7.44763227
_cell_length_b   7.44763227
_cell_length_c   10.53254256
_cell_angle_alpha   90.00000000
_cell_angle_beta   90.00000000
_cell_angle_gamma   90.00000000
_symmetry_Int_Tables_number   1
_chemical_formula_structural   Cr5Fe5Ni44
_chemical_formula_sum   'Cr5 Fe5 Ni44'
_cell_volume   584.21092305
_cell_formula_units_Z   1
loop_
 _symmetry_equiv_pos_site_id
 _symmetry_equiv_pos_as_xyz
  1  'x, y, z'
loop_
 _atom_site_type_symbol
 _atom_site_label
 _atom_site_symmetry_multiplicity
 _atom_site_fract_x
 _atom_site_fract_y
 _atom_site_fract_z
 _atom_site_occupancy
  Ni  Ni0  1  1.00047142  1.00123570  1.00084668  1
  Ni  Ni1  1  0.16798600  0.16812859  0.16786008  1
  Ni  Ni2  1  1.00101505  0.00149844  0.33508355  1
  Ni  Ni3  1  0.00135109  0.33493011  0.00161751  1
  Ni  Ni4  1  0.16540763  0.50026897  0.16678278  1
  Ni  Ni5  1  1.00114472  0.33475201  0.33395597  1
  Ni  Ni6  1  0.00242057  0.66774666  1.00128603  1
  Fe  Fe7  1  0.16651326  0.83550961  0.16718979  1
  Ni  Ni8  1  0.99954080  0.66766020  0.33483984  1
  Fe  Fe9  1  0.33422885  0.00218063  0.00168392  1
  Ni  Ni10  1  0.50091173  0.16572463  0.16815509  1
  Ni  Ni11  1  0.33519838  0.00289845  0.33379545  1
  Ni  Ni12  1  0.33406308  0.33494644  1.00018528  1
  Cr  Cr13  1  0.50207494  0.50049140  0.16758259  1
  Ni  Ni14  1  0.33387333  0.33215903  0.33584202  1
  Ni  Ni15  1  0.33340279  0.66813710  0.99985078  1
  Ni  Ni16  1  0.50271246  0.83717184  0.16693032  1
  Cr  Cr17  1  0.33411586  0.66877339  0.33631561  1
  Ni  Ni18  1  0.66810474  0.00190106  1.00120455  1
  Ni  Ni19  1  0.83500885  0.16725275  0.16785171  1
  Ni  Ni20  1  0.66769562  1.00129547  0.33503492  1
  Ni  Ni21  1  0.66849609  0.33299792  1.00007779  1
  Ni  Ni22  1  0.83667488  0.50206802  0.16811406  1
  Ni  Ni23  1  0.66889206  0.33363024  0.33579734  1
  Fe  Fe24  1  0.66926655  0.66792285  0.00135219  1
  Ni  Ni25  1  0.83426769  0.83458824  0.16793692  1
  Ni  Ni26  1  0.67028683  0.66898492  0.33479665  1
  Ni  Ni27  1  0.16826503  0.16761082  0.49985847  1
  Ni  Ni28  1  0.99960170  0.99956065  0.66798427  1
  Ni  Ni29  1  0.16792386  0.16728350  0.83618623  1
  Ni  Ni30  1  0.16845160  0.50194771  0.50202649  1
  Cr  Cr31  1  0.00135378  0.33447668  0.66824884  1
  Ni  Ni32  1  0.16923791  0.50316194  0.83509930  1
  Ni  Ni33  1  0.16614906  0.83435273  0.50124030  1
  Ni  Ni34  1  0.00348979  0.66965876  0.66778733  1
  Ni  Ni35  1  0.16687203  0.83346773  0.83531540  1
  Ni  Ni36  1  0.50211217  0.16886238  0.50045822  1
  Cr  Cr37  1  0.33462878  0.00133084  0.66781167  1
  Ni  Ni38  1  0.50263713  0.16933772  0.83529389  1
  Ni  Ni39  1  0.50106739  0.49983639  0.50189308  1
  Ni  Ni40  1  0.33642089  0.33672784  0.66788762  1
  Ni  Ni41  1  0.50040087  0.50018702  0.83492312  1
  Ni  Ni42  1  0.50212006  0.83521152  0.50068781  1
  Ni  Ni43  1  0.33291583  0.66622529  0.66790908  1
  Fe  Fe44  1  0.50073236  0.83457595  0.83601419  1
  Ni  Ni45  1  0.83353249  0.16655730  0.50089888  1
  Ni  Ni46  1  0.66954577  0.00307131  0.66767114  1
  Ni  Ni47  1  0.83334894  0.16696754  0.83515930  1
  Ni  Ni48  1  0.83439158  0.50195594  0.49915504  1
  Ni  Ni49  1  0.66610867  0.33284051  0.66804055  1
  Ni  Ni50  1  0.83427404  0.50123844  0.83664217  1
  Ni  Ni51  1  0.83564239  0.83539714  0.50112706  1
  Cr  Cr52  1  0.66761399  0.66778972  0.66786056  1
  Fe  Fe53  1  0.83642332  0.83589861  0.83523726  1
" 