6459,Ni82Fe8Cr9_9,-236.832278893908, 179.333581483322,Ni82Fe8Cr9,"# generated using pymatgen
 data_Cr3(FeNi11)2
_symmetry_space_group_name_H-M   'P 1'
_cell_length_a   7.45479844
_cell_length_b   7.45479844
_cell_length_c   10.54267706
_cell_angle_alpha   90.00000000
_cell_angle_beta   90.00000000
_cell_angle_gamma   90.00000000
_symmetry_Int_Tables_number   1
_chemical_formula_structural   Cr3(FeNi11)2
_chemical_formula_sum   'Cr6 Fe4 Ni44'
_cell_volume   585.89894365
_cell_formula_units_Z   2
loop_
 _symmetry_equiv_pos_site_id
 _symmetry_equiv_pos_as_xyz
  1  'x, y, z'
loop_
 _atom_site_type_symbol
 _atom_site_label
 _atom_site_symmetry_multiplicity
 _atom_site_fract_x
 _atom_site_fract_y
 _atom_site_fract_z
 _atom_site_occupancy
  Ni  Ni0  1  1.00020466  0.00115252  0.99881393  1
  Ni  Ni1  1  0.16805965  0.16891494  0.16827544  1
  Ni  Ni2  1  1.00015635  0.00095511  0.33597920  1
  Ni  Ni3  1  0.00085834  0.33457316  1.00073339  1
  Ni  Ni4  1  0.16703459  0.49962009  0.16834134  1
  Ni  Ni5  1  0.00428355  0.33443454  0.33461106  1
  Ni  Ni6  1  0.99947725  0.66674303  1.00051377  1
  Cr  Cr7  1  0.16747722  0.83402200  0.16677991  1
  Ni  Ni8  1  1.00017219  0.66707655  0.33455362  1
  Ni  Ni9  1  0.33559098  1.00055092  1.00072665  1
  Ni  Ni10  1  0.49945409  0.16621716  0.16682895  1
  Fe  Fe11  1  0.33478494  0.00150741  0.33466671  1
  Cr  Cr12  1  0.33316134  0.33409418  0.00156093  1
  Ni  Ni13  1  0.50071991  0.50256319  0.16760484  1
  Ni  Ni14  1  0.33223042  0.33424617  0.33412375  1
  Ni  Ni15  1  0.33547303  0.66819226  0.99980784  1
  Ni  Ni16  1  0.50268926  0.83368395  0.16722924  1
  Ni  Ni17  1  0.33509748  0.66601095  0.33479278  1
  Ni  Ni18  1  0.66666906  0.99916849  1.00047942  1
  Cr  Cr19  1  0.83540297  0.16664969  0.16683752  1
  Ni  Ni20  1  0.66700879  0.99809059  0.33480299  1
  Fe  Fe21  1  0.66834883  0.33498021  1.00011157  1
  Ni  Ni22  1  0.83471209  0.50285513  0.16588356  1
  Cr  Cr23  1  0.66636984  0.33468713  0.33455358  1
  Ni  Ni24  1  0.66751596  0.66885221  0.00159251  1
  Ni  Ni25  1  0.83201275  0.83266504  0.16753636  1
  Ni  Ni26  1  0.66719580  0.67014289  0.33394104  1
  Ni  Ni27  1  0.16610152  0.16837125  0.49982310  1
  Ni  Ni28  1  1.00060045  0.00111473  0.66767759  1
  Ni  Ni29  1  0.16457313  0.16742645  0.83437269  1
  Ni  Ni30  1  0.16789737  0.50055527  0.50074828  1
  Ni  Ni31  1  0.00117107  0.33412231  0.66711715  1
  Ni  Ni32  1  0.16794559  0.50139905  0.83337676  1
  Ni  Ni33  1  0.16653257  0.83353528  0.50086792  1
  Ni  Ni34  1  0.00092248  0.66723156  0.66739492  1
  Ni  Ni35  1  0.16687124  0.83363831  0.83489420  1
  Ni  Ni36  1  0.50051404  0.16856384  0.50047429  1
  Cr  Cr37  1  0.33266333  0.00084656  0.66759076  1
  Fe  Fe38  1  0.50102193  0.16763294  0.83482044  1
  Ni  Ni39  1  0.50001308  0.50165538  0.50197584  1
  Ni  Ni40  1  0.33413368  0.33609234  0.66699474  1
  Ni  Ni41  1  0.50090980  0.50234145  0.83288526  1
  Ni  Ni42  1  0.50117993  0.83224294  0.49896177  1
  Ni  Ni43  1  0.33426625  0.66513754  0.66786463  1
  Ni  Ni44  1  0.50080849  0.83152495  0.83627516  1
  Ni  Ni45  1  0.83584746  0.16720405  0.50111534  1
  Cr  Cr46  1  0.66914187  1.00046540  0.66673941  1
  Ni  Ni47  1  0.83572232  0.16752838  0.83478929  1
  Ni  Ni48  1  0.83455633  0.50122174  0.50222597  1
  Ni  Ni49  1  0.66716103  0.33577222  0.66789836  1
  Fe  Fe50  1  0.83483448  0.50144518  0.83394279  1
  Ni  Ni51  1  0.83475009  0.83403923  0.49975277  1
  Ni  Ni52  1  0.66727890  0.66570607  0.66692873  1
  Ni  Ni53  1  0.83478461  0.83490045  0.83517430  1
" 