3415,Ni82Fe3Cr14_5,-233.30112411152, 158.973214660322,Ni82Fe3Cr14,"# generated using pymatgen
 data_Cr9FeNi44
_symmetry_space_group_name_H-M   'P 1'
_cell_length_a   7.47028775
_cell_length_b   7.47028775
_cell_length_c   10.56458226
_cell_angle_alpha   90.00000000
_cell_angle_beta   90.00000000
_cell_angle_gamma   90.00000000
_symmetry_Int_Tables_number   1
_chemical_formula_structural   Cr9FeNi44
_chemical_formula_sum   'Cr9 Fe1 Ni44'
_cell_volume   589.55861661
_cell_formula_units_Z   1
loop_
 _symmetry_equiv_pos_site_id
 _symmetry_equiv_pos_as_xyz
  1  'x, y, z'
loop_
 _atom_site_type_symbol
 _atom_site_label
 _atom_site_symmetry_multiplicity
 _atom_site_fract_x
 _atom_site_fract_y
 _atom_site_fract_z
 _atom_site_occupancy
  Ni  Ni0  1  0.00025368  0.99930054  0.99847016  1
  Ni  Ni1  1  0.16726809  0.16852174  0.16686607  1
  Ni  Ni2  1  0.99927075  0.00075938  0.33449519  1
  Ni  Ni3  1  0.00203178  0.33395547  0.00097886  1
  Ni  Ni4  1  0.16674404  0.49763084  0.16648887  1
  Ni  Ni5  1  0.00179293  0.33312668  0.33323004  1
  Ni  Ni6  1  0.99918821  0.66609377  0.99955241  1
  Cr  Cr7  1  0.16704071  0.83318526  0.16704779  1
  Ni  Ni8  1  0.99713907  0.66546325  0.33234666  1
  Ni  Ni9  1  0.33389245  0.00116004  0.99879092  1
  Fe  Fe10  1  0.49751496  0.16588820  0.16550635  1
  Ni  Ni11  1  0.33428322  0.00155094  0.33334683  1
  Ni  Ni12  1  0.33300665  0.33298631  0.99943674  1
  Ni  Ni13  1  0.49895736  0.50126457  0.16562484  1
  Ni  Ni14  1  0.33158346  0.33215887  0.33263732  1
  Ni  Ni15  1  0.33398931  0.66520344  0.99864516  1
  Ni  Ni16  1  0.50147840  0.83226112  0.16686618  1
  Ni  Ni17  1  0.33544788  0.66563927  0.33242497  1
  Ni  Ni18  1  0.66520178  0.99831629  0.99961562  1
  Cr  Cr19  1  0.83427019  0.16581352  0.16501981  1
  Ni  Ni20  1  0.66579542  0.99689728  0.33435153  1
  Ni  Ni21  1  0.66430856  0.33405306  0.00026989  1
  Ni  Ni22  1  0.83364765  0.50161090  0.16582494  1
  Cr  Cr23  1  0.66601292  0.33434049  0.33458864  1
  Ni  Ni24  1  0.66617174  0.66697941  0.00077391  1
  Ni  Ni25  1  0.83095049  0.83173690  0.16651169  1
  Ni  Ni26  1  0.66676257  0.66816135  0.33343212  1
  Ni  Ni27  1  0.16672811  0.16591698  0.49878833  1
  Ni  Ni28  1  -0.00013693  0.99791777  0.66638387  1
  Ni  Ni29  1  0.16894454  0.16548214  0.83369490  1
  Cr  Cr30  1  0.16756768  0.49928745  0.49879333  1
  Cr  Cr31  1  0.00193729  0.33228628  0.66516553  1
  Ni  Ni32  1  0.16935676  0.50070792  0.83412826  1
  Cr  Cr33  1  0.16691079  0.83440357  0.49965074  1
  Ni  Ni34  1  0.99879450  0.66914325  0.66745114  1
  Ni  Ni35  1  0.16664517  0.83315942  0.83292074  1
  Ni  Ni36  1  0.49887873  0.16503291  0.49956059  1
  Ni  Ni37  1  0.33376671  0.00063523  0.66721227  1
  Ni  Ni38  1  0.49708819  0.16566018  0.83434122  1
  Ni  Ni39  1  0.50034357  0.50101574  0.50020798  1
  Ni  Ni40  1  0.33394791  0.33228583  0.66727619  1
  Ni  Ni41  1  0.49673487  0.50058757  0.83351640  1
  Ni  Ni42  1  0.50211900  0.83330054  0.49961840  1
  Ni  Ni43  1  0.33483291  0.66642804  0.66828010  1
  Ni  Ni44  1  0.49927032  0.83310149  0.83286467  1
  Ni  Ni45  1  0.83374249  0.16413840  0.49913737  1
  Ni  Ni46  1  0.66571948  0.99703557  0.66538200  1
  Cr  Cr47  1  0.83278613  0.16364049  0.83478808  1
  Ni  Ni48  1  0.83186920  0.50150032  0.49852776  1
  Cr  Cr49  1  0.66346246  0.33334056  0.66453688  1
  Cr  Cr50  1  0.83283188  0.50203747  0.83493913  1
  Ni  Ni51  1  0.83098717  0.83371161  0.49980151  1
  Ni  Ni52  1  0.66572185  0.66896087  0.66514248  1
  Ni  Ni53  1  0.83343405  0.83351261  0.83303574  1
" 