5835,Ni82Fe3Cr14_8,-233.444206858172, 161.966402293572,Ni82Fe3Cr14,"# generated using pymatgen
 data_Cr9FeNi44
_symmetry_space_group_name_H-M   'P 1'
_cell_length_a   7.47011403
_cell_length_b   7.47011403
_cell_length_c   10.56433657
_cell_angle_alpha   90.00000000
_cell_angle_beta   90.00000000
_cell_angle_gamma   90.00000000
_symmetry_Int_Tables_number   1
_chemical_formula_structural   Cr9FeNi44
_chemical_formula_sum   'Cr9 Fe1 Ni44'
_cell_volume   589.51748541
_cell_formula_units_Z   1
loop_
 _symmetry_equiv_pos_site_id
 _symmetry_equiv_pos_as_xyz
  1  'x, y, z'
loop_
 _atom_site_type_symbol
 _atom_site_label
 _atom_site_symmetry_multiplicity
 _atom_site_fract_x
 _atom_site_fract_y
 _atom_site_fract_z
 _atom_site_occupancy
  Ni  Ni0  1  0.99918641  -0.00011866  -0.00001883  1
  Fe  Fe1  1  0.16596993  0.16522809  0.16538697  1
  Ni  Ni2  1  -0.00004908  0.00064550  0.33260430  1
  Ni  Ni3  1  0.00073486  0.33218024  0.99912040  1
  Ni  Ni4  1  0.16830068  0.50031763  0.16486068  1
  Ni  Ni5  1  0.99797784  0.33141554  0.33346555  1
  Ni  Ni6  1  0.00224508  0.66732311  0.99890639  1
  Ni  Ni7  1  0.16774479  0.83377344  0.16612701  1
  Cr  Cr8  1  0.00057939  0.66709532  0.33395229  1
  Ni  Ni9  1  0.33270536  0.99919340  0.00077998  1
  Ni  Ni10  1  0.50030345  0.16632575  0.16486114  1
  Ni  Ni11  1  0.33193536  0.99643198  0.33179888  1
  Ni  Ni12  1  0.33236252  0.33407269  0.00064615  1
  Ni  Ni13  1  0.49780580  0.49906441  0.16698377  1
  Cr  Cr14  1  0.33294792  0.33512866  0.33146460  1
  Ni  Ni15  1  0.33154189  0.66611727  0.00024541  1
  Ni  Ni16  1  0.49732863  0.83399362  0.16698593  1
  Ni  Ni17  1  0.33501694  0.66787896  0.33320164  1
  Ni  Ni18  1  0.66749216  0.00070295  0.00093277  1
  Ni  Ni19  1  0.83305772  0.16577203  0.16612678  1
  Cr  Cr20  1  0.66748703  0.99879291  0.33232157  1
  Ni  Ni21  1  0.66628737  0.33101594  0.00007173  1
  Cr  Cr22  1  0.83333803  0.49822676  0.16672513  1
  Ni  Ni23  1  0.66805361  0.33449700  0.33337073  1
  Cr  Cr24  1  0.66582545  0.66787010  0.99882245  1
  Ni  Ni25  1  0.83431080  0.83627328  0.16572259  1
  Ni  Ni26  1  0.66384190  0.66590822  0.33452369  1
  Cr  Cr27  1  0.16455009  0.16505133  0.50051325  1
  Ni  Ni28  1  0.00048542  0.99922654  0.66679785  1
  Ni  Ni29  1  0.16491459  0.16628852  0.83330121  1
  Ni  Ni30  1  0.16615375  0.50160765  0.50123606  1
  Ni  Ni31  1  0.99924005  0.33382963  0.66679765  1
  Ni  Ni32  1  0.16615686  0.49988376  0.83328702  1
  Ni  Ni33  1  0.16735921  0.83251943  0.50037396  1
  Ni  Ni34  1  -0.00007170  0.66632828  0.66647403  1
  Ni  Ni35  1  0.16632906  0.83321188  0.83288311  1
  Cr  Cr36  1  0.50028657  0.16709585  0.50098912  1
  Ni  Ni37  1  0.33083053  0.99749784  0.66680488  1
  Cr  Cr38  1  0.49901278  0.16709646  0.83354601  1
  Ni  Ni39  1  0.50121180  0.50224618  0.50014999  1
  Ni  Ni40  1  0.33224876  0.33572896  0.66734118  1
  Ni  Ni41  1  0.49918524  0.50020968  0.83224992  1
  Ni  Ni42  1  0.49794006  0.82981567  0.49928756  1
  Ni  Ni43  1  0.33328550  0.66615614  0.66593709  1
  Ni  Ni44  1  0.49797775  0.83185070  0.83311135  1
  Ni  Ni45  1  0.83472200  0.16852771  0.49934110  1
  Cr  Cr46  1  0.66807598  0.99818039  0.66678274  1
  Ni  Ni47  1  0.83540217  0.16749535  0.83391672  1
  Ni  Ni48  1  0.83201872  0.49875793  0.50034107  1
  Ni  Ni49  1  0.66789639  0.33628436  0.66594175  1
  Ni  Ni50  1  0.83404212  0.49879551  0.83205681  1
  Ni  Ni51  1  0.83408397  0.83209987  0.50020699  1
  Ni  Ni52  1  0.66617031  0.66491101  0.66580332  1
  Ni  Ni53  1  0.83507693  0.83309397  0.83345531  1
" 