1653,Ni82Fe18_12,-231.614234879751, 180.491717692614,Ni82Fe18,"# generated using pymatgen
 data_Fe22Ni5
_symmetry_space_group_name_H-M   'P 1'
_cell_length_a   7.39826155
_cell_length_b   7.39826155
_cell_length_c   10.46272182
_cell_angle_alpha   90.00000000
_cell_angle_beta   90.00000000
_cell_angle_gamma   90.00000000
_symmetry_Int_Tables_number   1
_chemical_formula_structural   Fe22Ni5
_chemical_formula_sum   'Fe44 Ni10'
_cell_volume   572.66948179
_cell_formula_units_Z   2
loop_
 _symmetry_equiv_pos_site_id
 _symmetry_equiv_pos_as_xyz
  1  'x, y, z'
loop_
 _atom_site_type_symbol
 _atom_site_label
 _atom_site_symmetry_multiplicity
 _atom_site_fract_x
 _atom_site_fract_y
 _atom_site_fract_z
 _atom_site_occupancy
  Ni  Ni0  1  0.00476254  1.00423896  0.00465091  1
  Fe  Fe1  1  0.17159184  0.17040170  0.17118030  1
  Fe  Fe2  1  0.00556272  0.00488131  0.33715479  1
  Fe  Fe3  1  0.00499349  0.33731418  1.00370246  1
  Fe  Fe4  1  0.17166201  0.50448364  0.17099644  1
  Fe  Fe5  1  0.00565922  0.33784415  0.33841935  1
  Fe  Fe6  1  0.00464935  0.67181478  0.00483402  1
  Fe  Fe7  1  0.17129028  0.83906024  0.17140754  1
  Fe  Fe8  1  0.00529192  0.67122067  0.33807249  1
  Fe  Fe9  1  0.33756719  0.00506599  0.00521993  1
  Ni  Ni10  1  0.50386738  0.17112540  0.17120505  1
  Ni  Ni11  1  0.33767033  0.00518262  0.33732573  1
  Fe  Fe12  1  0.33706120  0.33734034  0.00506187  1
  Fe  Fe13  1  0.50505964  0.50445781  0.17147556  1
  Ni  Ni14  1  0.33852770  0.33744574  0.33841639  1
  Fe  Fe15  1  0.33715532  0.67154326  1.00411665  1
  Fe  Fe16  1  0.50499286  0.83865110  0.17156856  1
  Fe  Fe17  1  0.33789005  0.67131377  0.33807370  1
  Fe  Fe18  1  0.67216675  0.00471764  0.00499522  1
  Fe  Fe19  1  0.83763452  0.17046387  0.17030419  1
  Fe  Fe20  1  0.67005220  0.00513297  0.33738161  1
  Fe  Fe21  1  0.67188858  0.33690198  1.00407445  1
  Fe  Fe22  1  0.83722550  0.50475830  0.17207654  1
  Fe  Fe23  1  0.67014798  0.33740603  0.33864694  1
  Fe  Fe24  1  0.67214337  0.67232355  0.00508390  1
  Ni  Ni25  1  0.83801561  0.83764894  0.17194366  1
  Fe  Fe26  1  0.67076548  0.67140631  0.33798324  1
  Fe  Fe27  1  0.17124913  0.17170242  0.50453199  1
  Fe  Fe28  1  1.00398538  0.00572800  0.67248834  1
  Ni  Ni29  1  0.17108481  0.17216882  0.83809244  1
  Fe  Fe30  1  0.17097357  0.50457642  0.50487785  1
  Fe  Fe31  1  1.00404931  0.33807083  0.67182308  1
  Ni  Ni32  1  0.17164119  0.50424481  0.83723862  1
  Fe  Fe33  1  0.17099558  0.83766735  0.50439678  1
  Fe  Fe34  1  1.00407564  0.67014803  0.67104001  1
  Fe  Fe35  1  0.17058107  0.83881297  0.83813979  1
  Fe  Fe36  1  0.50496835  0.17214049  0.50363826  1
  Fe  Fe37  1  0.33848420  0.00529738  0.67080888  1
  Fe  Fe38  1  0.50432832  0.17223411  0.83821214  1
  Fe  Fe39  1  0.50533817  0.50423274  0.50474048  1
  Fe  Fe40  1  0.33798243  0.33806914  0.67133687  1
  Fe  Fe41  1  0.50430755  0.50333930  0.83773346  1
  Fe  Fe42  1  0.50487378  0.83757458  0.50457707  1
  Fe  Fe43  1  0.33839427  0.67058268  0.67175313  1
  Fe  Fe44  1  0.50389322  0.83837489  0.83779821  1
  Fe  Fe45  1  0.83773002  0.17216716  0.50575229  1
  Fe  Fe46  1  0.67147629  0.00531914  0.67157101  1
  Ni  Ni47  1  0.83817171  0.17076054  0.83809416  1
  Ni  Ni48  1  0.83798230  0.50505817  0.50476505  1
  Ni  Ni49  1  0.67142886  0.33861673  0.67142704  1
  Fe  Fe50  1  0.83871769  0.50322359  0.83697270  1
  Fe  Fe51  1  0.83807571  0.83729903  0.50397925  1
  Fe  Fe52  1  0.67147922  0.67065289  0.67088203  1
  Fe  Fe53  1  0.83947232  0.83882769  0.83899271  1
" 