7486,Ni82Fe13Cr3_7,-239.67021518094, 192.052041891805,Ni82Fe13Cr3,"# generated using pymatgen
 data_Cr3Fe7Ni44
_symmetry_space_group_name_H-M   'P 1'
_cell_length_a   7.44280559
_cell_length_b   7.44280559
_cell_length_c   10.52571660
_cell_angle_alpha   90.00000000
_cell_angle_beta   90.00000000
_cell_angle_gamma   90.00000000
_symmetry_Int_Tables_number   1
_chemical_formula_structural   Cr3Fe7Ni44
_chemical_formula_sum   'Cr3 Fe7 Ni44'
_cell_volume   583.07580759
_cell_formula_units_Z   1
loop_
 _symmetry_equiv_pos_site_id
 _symmetry_equiv_pos_as_xyz
  1  'x, y, z'
loop_
 _atom_site_type_symbol
 _atom_site_label
 _atom_site_symmetry_multiplicity
 _atom_site_fract_x
 _atom_site_fract_y
 _atom_site_fract_z
 _atom_site_occupancy
  Ni  Ni0  1  1.00074259  1.00084928  0.00218983  1
  Ni  Ni1  1  0.16811277  0.16822454  0.16877147  1
  Ni  Ni2  1  0.00170580  0.00216997  0.33514711  1
  Ni  Ni3  1  1.00050993  0.33616469  0.00255844  1
  Ni  Ni4  1  0.16865876  0.50147670  0.16927058  1
  Ni  Ni5  1  1.00141312  0.33462218  0.33507080  1
  Ni  Ni6  1  1.00159651  0.66783458  1.00073263  1
  Ni  Ni7  1  0.16812669  0.83519809  0.16898366  1
  Ni  Ni8  1  0.00280553  0.66807100  0.33602070  1
  Ni  Ni9  1  0.33639788  1.00092818  0.00248809  1
  Ni  Ni10  1  0.50148416  0.16840663  0.16966029  1
  Ni  Ni11  1  0.33497764  0.00172998  0.33537531  1
  Ni  Ni12  1  0.33611376  0.33553732  0.00170608  1
  Ni  Ni13  1  0.50004161  0.50039844  0.16760500  1
  Ni  Ni14  1  0.33386931  0.33360029  0.33514577  1
  Ni  Ni15  1  0.33506674  0.66844456  1.00114100  1
  Ni  Ni16  1  0.50037217  0.83603895  0.16796674  1
  Ni  Ni17  1  0.33276414  0.66942348  0.33439166  1
  Ni  Ni18  1  0.66769549  0.00198884  1.00079721  1
  Ni  Ni19  1  0.83529373  0.16789053  0.16861770  1
  Ni  Ni20  1  0.66824386  0.00323685  0.33591436  1
  Ni  Ni21  1  0.66829047  0.33480057  1.00118362  1
  Ni  Ni22  1  0.83617678  0.50034116  0.16832040  1
  Ni  Ni23  1  0.66954956  0.33248065  0.33448585  1
  Ni  Ni24  1  0.66822333  0.66807266  1.00137538  1
  Ni  Ni25  1  0.83637196  0.83663215  0.16809832  1
  Cr  Cr26  1  0.66968877  0.66934496  0.33226848  1
  Fe  Fe27  1  0.16730084  0.16753559  0.50113517  1
  Ni  Ni28  1  0.00199682  0.00203271  0.66797328  1
  Cr  Cr29  1  0.16711797  0.16742019  0.83718429  1
  Fe  Fe30  1  0.16599301  0.50278502  0.50153199  1
  Ni  Ni31  1  1.00009201  0.33506343  0.66763940  1
  Ni  Ni32  1  0.16829346  0.50321227  0.83392924  1
  Fe  Fe33  1  0.16720368  0.83472582  0.50198215  1
  Ni  Ni34  1  1.00076129  0.66775199  0.66821283  1
  Ni  Ni35  1  0.16825798  0.83376233  0.83411001  1
  Fe  Fe36  1  0.50379225  0.16663057  0.50095938  1
  Ni  Ni37  1  0.33600239  1.00110172  0.66727862  1
  Ni  Ni38  1  0.50275832  0.16811062  0.83321004  1
  Cr  Cr39  1  0.50079949  0.50238831  0.50141109  1
  Fe  Fe40  1  0.33311118  0.33583019  0.66923156  1
  Ni  Ni41  1  0.50143263  0.50200176  0.83486085  1
  Ni  Ni42  1  0.50028926  0.83626001  0.50218881  1
  Ni  Ni43  1  0.33510370  0.67023378  0.66933576  1
  Ni  Ni44  1  0.50133457  0.83474061  0.83452993  1
  Ni  Ni45  1  0.83666375  0.16804941  0.50154254  1
  Fe  Fe46  1  0.66975564  0.99975672  0.66836213  1
  Ni  Ni47  1  0.83403816  0.16808848  0.83468430  1
  Ni  Ni48  1  0.83653977  0.50045406  0.50212419  1
  Fe  Fe49  1  0.67028781  0.33497697  0.66911094  1
  Ni  Ni50  1  0.83505745  0.50157955  0.83416306  1
  Ni  Ni51  1  0.83551856  0.83609566  0.50240431  1
  Ni  Ni52  1  0.66866034  0.66840096  0.66937748  1
  Ni  Ni53  1  0.83548652  0.83504597  0.83418212  1
" 