1605,Ni82Fe9Cr8_19,-237.672119118754, 184.368391585345,Ni82Fe9Cr8,"# generated using pymatgen
 data_Cr5Fe5Ni44
_symmetry_space_group_name_H-M   'P 1'
_cell_length_a   7.44751285
_cell_length_b   7.44751285
_cell_length_c   10.53237368
_cell_angle_alpha   90.00000000
_cell_angle_beta   90.00000000
_cell_angle_gamma   90.00000000
_symmetry_Int_Tables_number   1
_chemical_formula_structural   Cr5Fe5Ni44
_chemical_formula_sum   'Cr5 Fe5 Ni44'
_cell_volume   584.18282127
_cell_formula_units_Z   1
loop_
 _symmetry_equiv_pos_site_id
 _symmetry_equiv_pos_as_xyz
  1  'x, y, z'
loop_
 _atom_site_type_symbol
 _atom_site_label
 _atom_site_symmetry_multiplicity
 _atom_site_fract_x
 _atom_site_fract_y
 _atom_site_fract_z
 _atom_site_occupancy
  Ni  Ni0  1  0.00159568  0.99955316  0.00207200  1
  Ni  Ni1  1  0.16790351  0.16874422  0.16668158  1
  Ni  Ni2  1  0.00167454  1.00012151  0.33518176  1
  Ni  Ni3  1  1.00095639  0.33605971  0.00234417  1
  Ni  Ni4  1  0.16780164  0.50165187  0.16788204  1
  Ni  Ni5  1  0.00191228  0.33626363  0.33569688  1
  Ni  Ni6  1  1.00021480  0.66826981  0.00237728  1
  Ni  Ni7  1  0.16706142  0.83348992  0.16699457  1
  Ni  Ni8  1  1.00053132  0.66731041  0.33401717  1
  Ni  Ni9  1  0.33574001  1.00048426  0.00211952  1
  Ni  Ni10  1  0.50090415  0.16807058  0.16689415  1
  Cr  Cr11  1  0.33431093  1.00128337  0.33362283  1
  Ni  Ni12  1  0.33636013  0.33453145  0.00371411  1
  Ni  Ni13  1  0.50130970  0.50241136  0.16807579  1
  Fe  Fe14  1  0.33460525  0.33566601  0.33463913  1
  Ni  Ni15  1  0.33570638  0.66895818  0.00304679  1
  Ni  Ni16  1  0.50267708  0.83363803  0.16739207  1
  Fe  Fe17  1  0.33458857  0.66702917  0.33420901  1
  Ni  Ni18  1  0.66641536  0.99952253  1.00089780  1
  Cr  Cr19  1  0.83431090  0.16693322  0.16920701  1
  Ni  Ni20  1  0.66728836  1.00016074  0.33577163  1
  Fe  Fe21  1  0.66751416  0.33555921  1.00081898  1
  Ni  Ni22  1  0.83475637  0.50319941  0.16810521  1
  Ni  Ni23  1  0.66710901  0.33641956  0.33502360  1
  Ni  Ni24  1  0.66796027  0.66795401  1.00128890  1
  Ni  Ni25  1  0.83403301  0.83325434  0.16793990  1
  Ni  Ni26  1  0.66852199  0.66737326  0.33465549  1
  Ni  Ni27  1  0.16665684  0.16929795  0.50261658  1
  Ni  Ni28  1  1.00084972  1.00034695  0.66673191  1
  Cr  Cr29  1  0.16774815  0.16683324  0.83468808  1
  Ni  Ni30  1  0.16776181  0.50123131  0.50177307  1
  Ni  Ni31  1  1.00078804  0.33509799  0.66599315  1
  Cr  Cr32  1  0.16877164  0.50343343  0.83398822  1
  Fe  Fe33  1  0.16689099  0.83394422  0.50234101  1
  Ni  Ni34  1  1.00014056  0.66843762  0.66735188  1
  Ni  Ni35  1  0.16889377  0.83434883  0.83424360  1
  Ni  Ni36  1  0.50138254  0.16703588  0.50152480  1
  Ni  Ni37  1  0.33561108  1.00048765  0.66772480  1
  Ni  Ni38  1  0.50244506  0.16621212  0.83550666  1
  Ni  Ni39  1  0.50025898  0.50341939  0.50069022  1
  Ni  Ni40  1  0.33550265  0.33435196  0.66560270  1
  Ni  Ni41  1  0.50179852  0.50350750  0.83526886  1
  Ni  Ni42  1  0.50317344  0.83359158  0.50220425  1
  Ni  Ni43  1  0.33565980  0.66912886  0.66646364  1
  Ni  Ni44  1  0.50088739  0.83423941  0.83435442  1
  Ni  Ni45  1  0.83572780  0.16642965  0.50010924  1
  Ni  Ni46  1  0.66739134  0.99994005  0.66735895  1
  Ni  Ni47  1  0.83437584  0.16674601  0.83510469  1
  Ni  Ni48  1  0.83564033  0.50286213  0.50042469  1
  Cr  Cr49  1  0.66840281  0.33550261  0.66854915  1
  Ni  Ni50  1  0.83446334  0.50206319  0.83555443  1
  Ni  Ni51  1  0.83356350  0.83464141  0.50132377  1
  Ni  Ni52  1  0.66801152  0.66903401  0.66803082  1
  Fe  Fe53  1  0.83426009  0.83474289  0.83462781  1
" 