1788,Ni82Fe18_1,-231.772589394644, 176.57283449961,Ni82Fe18,"# generated using pymatgen
 data_Fe22Ni5
_symmetry_space_group_name_H-M   'P 1'
_cell_length_a   7.40231770
_cell_length_b   7.40231770
_cell_length_c   10.46845809
_cell_angle_alpha   90.00000000
_cell_angle_beta   90.00000000
_cell_angle_gamma   90.00000000
_symmetry_Int_Tables_number   1
_chemical_formula_structural   Fe22Ni5
_chemical_formula_sum   'Fe44 Ni10'
_cell_volume   573.61191057
_cell_formula_units_Z   2
loop_
 _symmetry_equiv_pos_site_id
 _symmetry_equiv_pos_as_xyz
  1  'x, y, z'
loop_
 _atom_site_type_symbol
 _atom_site_label
 _atom_site_symmetry_multiplicity
 _atom_site_fract_x
 _atom_site_fract_y
 _atom_site_fract_z
 _atom_site_occupancy
  Fe  Fe0  1  1.00360391  0.00496610  1.00419661  1
  Fe  Fe1  1  0.17107171  0.17089723  0.17103909  1
  Fe  Fe2  1  0.00510333  1.00287345  0.33771439  1
  Ni  Ni3  1  1.00377418  0.33782242  1.00396499  1
  Ni  Ni4  1  0.17103394  0.50448323  0.17240746  1
  Fe  Fe5  1  0.00583572  0.33854764  0.33706440  1
  Fe  Fe6  1  0.00463685  0.67018248  0.00527933  1
  Fe  Fe7  1  0.17134612  0.83759148  0.17206501  1
  Ni  Ni8  1  0.00465439  0.67039787  0.33739483  1
  Fe  Fe9  1  0.33782574  0.00501852  0.00484716  1
  Ni  Ni10  1  0.50457090  0.17062508  0.17123978  1
  Ni  Ni11  1  0.33855529  1.00379173  0.33769635  1
  Fe  Fe12  1  0.33684587  0.33805571  0.00462898  1
  Fe  Fe13  1  0.50434537  0.50459572  0.17138125  1
  Fe  Fe14  1  0.33723097  0.33826895  0.33728381  1
  Fe  Fe15  1  0.33688314  0.67004330  1.00432706  1
  Fe  Fe16  1  0.50380531  0.83773475  0.17089060  1
  Ni  Ni17  1  0.33717698  0.67217064  0.33769963  1
  Fe  Fe18  1  0.67168674  0.00493354  1.00428270  1
  Fe  Fe19  1  0.83792996  0.17143854  0.17005007  1
  Fe  Fe20  1  0.67053519  1.00324843  0.33719695  1
  Fe  Fe21  1  0.67154301  0.33702327  1.00437198  1
  Fe  Fe22  1  0.83807296  0.50431695  0.17112940  1
  Fe  Fe23  1  0.67005130  0.33792645  0.33771348  1
  Fe  Fe24  1  0.67159880  0.67116005  1.00419610  1
  Ni  Ni25  1  0.83751042  0.83800435  0.17135218  1
  Fe  Fe26  1  0.67081646  0.67194301  0.33762663  1
  Fe  Fe27  1  0.17129302  0.17060964  0.50429130  1
  Fe  Fe28  1  1.00394208  0.00471113  0.67120617  1
  Fe  Fe29  1  0.17075043  0.17115251  0.83778648  1
  Fe  Fe30  1  0.17095083  0.50488141  0.50395032  1
  Fe  Fe31  1  0.00437245  0.33761786  0.67220001  1
  Ni  Ni32  1  0.17092849  0.50425717  0.83665905  1
  Fe  Fe33  1  0.17129110  0.83762546  0.50360758  1
  Fe  Fe34  1  0.00462646  0.67078617  0.67055231  1
  Fe  Fe35  1  0.17116278  0.83784393  0.83744441  1
  Fe  Fe36  1  0.50411861  0.17087272  0.50346464  1
  Fe  Fe37  1  0.33804918  1.00411847  0.67064287  1
  Fe  Fe38  1  0.50431524  0.17100624  0.83818368  1
  Fe  Fe39  1  0.50437879  0.50454172  0.50429130  1
  Fe  Fe40  1  0.33745193  0.33804610  0.67120390  1
  Fe  Fe41  1  0.50451119  0.50449528  0.83744444  1
  Fe  Fe42  1  0.50377706  0.83770487  0.50469201  1
  Fe  Fe43  1  0.33779296  0.67095306  0.67116115  1
  Ni  Ni44  1  0.50478703  0.83811589  0.83760021  1
  Fe  Fe45  1  0.83770786  0.17121472  0.50528290  1
  Fe  Fe46  1  0.67112599  1.00437115  0.67163711  1
  Ni  Ni47  1  0.83740259  0.17073807  0.83771277  1
  Fe  Fe48  1  0.83778634  0.50453833  0.50420213  1
  Fe  Fe49  1  0.67129139  0.33736191  0.67103110  1
  Fe  Fe50  1  0.83782082  0.50408450  0.83778494  1
  Fe  Fe51  1  0.83804857  0.83736202  0.50355218  1
  Fe  Fe52  1  0.67069892  0.67138348  0.67129410  1
  Fe  Fe53  1  0.83767604  0.83764803  0.83818346  1
" 