3347,Ni82Fe7Cr9_3,-236.751909089778, 179.6717294434,Ni82Fe7Cr9,"# generated using pymatgen
 data_Cr3(FeNi11)2
_symmetry_space_group_name_H-M   'P 1'
_cell_length_a   7.45423109
_cell_length_b   7.45423109
_cell_length_c   10.54187471
_cell_angle_alpha   90.00000000
_cell_angle_beta   90.00000000
_cell_angle_gamma   90.00000000
_symmetry_Int_Tables_number   1
_chemical_formula_structural   Cr3(FeNi11)2
_chemical_formula_sum   'Cr6 Fe4 Ni44'
_cell_volume   585.76518438
_cell_formula_units_Z   2
loop_
 _symmetry_equiv_pos_site_id
 _symmetry_equiv_pos_as_xyz
  1  'x, y, z'
loop_
 _atom_site_type_symbol
 _atom_site_label
 _atom_site_symmetry_multiplicity
 _atom_site_fract_x
 _atom_site_fract_y
 _atom_site_fract_z
 _atom_site_occupancy
  Ni  Ni0  1  1.00031522  0.00181856  1.00023478  1
  Ni  Ni1  1  0.16570390  0.16889045  0.16714754  1
  Ni  Ni2  1  0.99971913  1.00085291  0.33394731  1
  Ni  Ni3  1  0.00113116  0.33380435  0.00151694  1
  Ni  Ni4  1  0.16570100  0.49924967  0.16752529  1
  Fe  Fe5  1  0.99947379  0.33508361  0.33311608  1
  Ni  Ni6  1  1.00050615  0.66695595  0.99954701  1
  Cr  Cr7  1  0.16780972  0.83440415  0.16709888  1
  Ni  Ni8  1  0.00097454  0.66710277  0.33570104  1
  Ni  Ni9  1  0.33336321  0.00162960  0.99981462  1
  Cr  Cr10  1  0.50078245  0.16555543  0.16714387  1
  Ni  Ni11  1  0.33478312  0.99960159  0.33543476  1
  Ni  Ni12  1  0.33279637  0.33424499  0.99919698  1
  Cr  Cr13  1  0.50116044  0.50299251  0.16676865  1
  Fe  Fe14  1  0.33379163  0.33510059  0.33513780  1
  Ni  Ni15  1  0.33361078  0.66670535  1.00041787  1
  Ni  Ni16  1  0.50257801  0.83425355  0.16769223  1
  Ni  Ni17  1  0.33396868  0.66791081  0.33589612  1
  Ni  Ni18  1  0.66890082  0.00100387  0.00131916  1
  Ni  Ni19  1  0.83603210  0.16734567  0.16759271  1
  Ni  Ni20  1  0.66807626  0.00087178  0.33524309  1
  Ni  Ni21  1  0.66865078  0.33405320  0.99866907  1
  Ni  Ni22  1  0.83584528  0.50098623  0.16740093  1
  Ni  Ni23  1  0.66888681  0.33381082  0.33632951  1
  Ni  Ni24  1  0.66846298  0.66752215  0.00135396  1
  Ni  Ni25  1  0.83249225  0.83424810  0.16731329  1
  Ni  Ni26  1  0.66763598  0.66789728  0.33496454  1
  Cr  Cr27  1  0.16743931  0.16735600  0.50060875  1
  Ni  Ni28  1  1.00013589  1.00012050  0.66839472  1
  Ni  Ni29  1  0.16784292  0.16759508  0.83474912  1
  Ni  Ni30  1  0.16703578  0.50222451  0.49971656  1
  Ni  Ni31  1  0.99988035  0.33399323  0.66792548  1
  Ni  Ni32  1  0.16684486  0.49984649  0.83533833  1
  Ni  Ni33  1  0.16696227  0.83314916  0.50023940  1
  Ni  Ni34  1  0.99957588  0.66846682  0.66732998  1
  Ni  Ni35  1  0.16496778  0.83513891  0.83486995  1
  Ni  Ni36  1  0.50239685  0.16754424  0.50111341  1
  Fe  Fe37  1  0.33364047  0.00268705  0.66747547  1
  Ni  Ni38  1  0.50030930  0.16966502  0.83406384  1
  Ni  Ni39  1  0.50185257  0.50034691  0.50018189  1
  Ni  Ni40  1  0.33572985  0.33345017  0.66816901  1
  Ni  Ni41  1  0.50157083  0.49804203  0.83518408  1
  Ni  Ni42  1  0.50159235  0.83468826  0.49899781  1
  Cr  Cr43  1  0.33325282  0.66634110  0.66653071  1
  Cr  Cr44  1  0.50165436  0.83451694  0.83616606  1
  Ni  Ni45  1  0.83214607  0.16747072  0.50056021  1
  Fe  Fe46  1  0.66927959  0.00212085  0.66657064  1
  Ni  Ni47  1  0.83442723  0.16778617  0.83442914  1
  Ni  Ni48  1  0.83368923  0.50141641  0.50090762  1
  Ni  Ni49  1  0.66696821  0.33400999  0.66757880  1
  Ni  Ni50  1  0.83416360  0.50091627  0.83427104  1
  Ni  Ni51  1  0.83402529  0.83369278  0.50089180  1
  Ni  Ni52  1  0.66965189  0.66606473  0.66625910  1
  Ni  Ni53  1  0.83623462  0.83387646  0.83437581  1
" 