4623,Ni82Fe8Cr9_15,-236.606459862811, 178.186547753994,Ni82Fe8Cr9,"# generated using pymatgen
 data_Cr3(FeNi11)2
_symmetry_space_group_name_H-M   'P 1'
_cell_length_a   7.45315064
_cell_length_b   7.45315064
_cell_length_c   10.54034672
_cell_angle_alpha   90.00000000
_cell_angle_beta   90.00000000
_cell_angle_gamma   90.00000000
_symmetry_Int_Tables_number   1
_chemical_formula_structural   Cr3(FeNi11)2
_chemical_formula_sum   'Cr6 Fe4 Ni44'
_cell_volume   585.51050964
_cell_formula_units_Z   2
loop_
 _symmetry_equiv_pos_site_id
 _symmetry_equiv_pos_as_xyz
  1  'x, y, z'
loop_
 _atom_site_type_symbol
 _atom_site_label
 _atom_site_symmetry_multiplicity
 _atom_site_fract_x
 _atom_site_fract_y
 _atom_site_fract_z
 _atom_site_occupancy
  Ni  Ni0  1  0.99970005  0.99936382  1.00063646  1
  Ni  Ni1  1  0.16648937  0.16743347  0.16760179  1
  Ni  Ni2  1  0.99911846  1.00084523  0.33430075  1
  Cr  Cr3  1  1.00033391  0.33446151  1.00065458  1
  Ni  Ni4  1  0.16655519  0.50136879  0.16916631  1
  Ni  Ni5  1  1.00055391  0.33426901  0.33432669  1
  Ni  Ni6  1  0.00140233  0.66905662  0.00098000  1
  Ni  Ni7  1  0.16570123  0.83394314  0.16660659  1
  Ni  Ni8  1  0.00106618  0.66759638  0.33376239  1
  Fe  Fe9  1  0.33386945  1.00022577  0.99996054  1
  Cr  Cr10  1  0.50094093  0.16796347  0.16685482  1
  Cr  Cr11  1  0.33484554  0.99951680  0.33504877  1
  Ni  Ni12  1  0.33395030  0.33539512  0.99886761  1
  Cr  Cr13  1  0.50198717  0.50195105  0.16759622  1
  Ni  Ni14  1  0.33277258  0.33584292  0.33643416  1
  Ni  Ni15  1  0.33331944  0.66797059  1.00078196  1
  Ni  Ni16  1  0.50241729  0.83329571  0.16708211  1
  Ni  Ni17  1  0.33342730  0.66709882  0.33476421  1
  Ni  Ni18  1  0.66887564  1.00005535  1.00048735  1
  Fe  Fe19  1  0.83524456  0.16635940  0.16827419  1
  Ni  Ni20  1  0.66994192  1.00018578  0.33505123  1
  Ni  Ni21  1  0.66745736  0.33347240  0.99919199  1
  Ni  Ni22  1  0.83467824  0.50315242  0.16806217  1
  Ni  Ni23  1  0.66952187  0.33372684  0.33525282  1
  Ni  Ni24  1  0.66806601  0.66911261  0.99914576  1
  Ni  Ni25  1  0.83470075  0.83295554  0.16795544  1
  Ni  Ni26  1  0.66826474  0.66877756  0.33570327  1
  Ni  Ni27  1  0.16669397  0.16765930  0.50224705  1
  Ni  Ni28  1  1.00000925  0.00212886  0.66758469  1
  Ni  Ni29  1  0.16831122  0.16647713  0.83305052  1
  Fe  Fe30  1  0.16688187  0.49962755  0.49981774  1
  Ni  Ni31  1  0.99998344  0.33274655  0.66783054  1
  Ni  Ni32  1  0.16830687  0.49986593  0.83486174  1
  Ni  Ni33  1  0.16593179  0.83657922  0.49976062  1
  Cr  Cr34  1  1.00023186  0.66749433  0.66862457  1
  Ni  Ni35  1  0.16693705  0.83642576  0.83636680  1
  Ni  Ni36  1  0.50120452  0.16908489  0.50191841  1
  Ni  Ni37  1  0.33526092  0.00160957  0.66842050  1
  Ni  Ni38  1  0.50066829  0.16791142  0.83409586  1
  Ni  Ni39  1  0.50286781  0.49944319  0.49966585  1
  Ni  Ni40  1  0.33508858  0.33327524  0.66760501  1
  Ni  Ni41  1  0.50200016  0.49970345  0.83527317  1
  Ni  Ni42  1  0.50254791  0.83408903  0.50042260  1
  Cr  Cr43  1  0.33551892  0.66787494  0.66688363  1
  Ni  Ni44  1  0.50191224  0.83516488  0.83528413  1
  Ni  Ni45  1  0.83496416  0.16797013  0.50005571  1
  Ni  Ni46  1  0.66749659  0.00187828  0.66703965  1
  Ni  Ni47  1  0.83375201  0.16652196  0.83384296  1
  Ni  Ni48  1  0.83270966  0.50018702  0.50014280  1
  Ni  Ni49  1  0.66770694  0.33289772  0.66817425  1
  Ni  Ni50  1  0.83236449  0.50118183  0.83447451  1
  Ni  Ni51  1  0.83443920  0.83453955  0.50024282  1
  Fe  Fe52  1  0.66743479  0.66755532  0.66752513  1
  Ni  Ni53  1  0.83391731  0.83505438  0.83458214  1
" 