5821,Ni82Fe7Cr9_9,-236.526898242531, 179.152800852183,Ni82Fe7Cr9,"# generated using pymatgen
 data_Cr3(FeNi11)2
_symmetry_space_group_name_H-M   'P 1'
_cell_length_a   7.45183838
_cell_length_b   7.45183838
_cell_length_c   10.53849090
_cell_angle_alpha   90.00000000
_cell_angle_beta   90.00000000
_cell_angle_gamma   90.00000000
_symmetry_Int_Tables_number   1
_chemical_formula_structural   Cr3(FeNi11)2
_chemical_formula_sum   'Cr6 Fe4 Ni44'
_cell_volume   585.20129550
_cell_formula_units_Z   2
loop_
 _symmetry_equiv_pos_site_id
 _symmetry_equiv_pos_as_xyz
  1  'x, y, z'
loop_
 _atom_site_type_symbol
 _atom_site_label
 _atom_site_symmetry_multiplicity
 _atom_site_fract_x
 _atom_site_fract_y
 _atom_site_fract_z
 _atom_site_occupancy
  Ni  Ni0  1  0.00152362  1.00066134  0.00136220  1
  Ni  Ni1  1  0.16882653  0.16679586  0.16667148  1
  Ni  Ni2  1  0.00261128  1.00008380  0.33507177  1
  Ni  Ni3  1  1.00086551  0.33385765  0.99776021  1
  Cr  Cr4  1  0.16698101  0.50007539  0.16722530  1
  Ni  Ni5  1  0.00119335  0.33384675  0.33709832  1
  Ni  Ni6  1  0.99892789  0.66852178  0.00129730  1
  Ni  Ni7  1  0.16794372  0.83524215  0.16891358  1
  Ni  Ni8  1  0.00133750  0.66927883  0.33549136  1
  Ni  Ni9  1  0.33468289  0.00216443  0.00205962  1
  Ni  Ni10  1  0.49992816  0.16723691  0.16842770  1
  Ni  Ni11  1  0.33260042  0.00256302  0.33346430  1
  Ni  Ni12  1  0.33583551  0.33285043  0.99959965  1
  Ni  Ni13  1  0.50066958  0.49999230  0.16695091  1
  Ni  Ni14  1  0.33531937  0.33278386  0.33553540  1
  Ni  Ni15  1  0.33612616  0.66795881  1.00084756  1
  Ni  Ni16  1  0.50007419  0.83578494  0.16597744  1
  Ni  Ni17  1  0.33270431  0.66783264  0.33499490  1
  Ni  Ni18  1  0.66698728  1.00038342  0.99919651  1
  Cr  Cr19  1  0.83421361  0.16859271  0.16839389  1
  Ni  Ni20  1  0.66783625  0.00235637  0.33550100  1
  Ni  Ni21  1  0.66646751  0.33554439  1.00097197  1
  Ni  Ni22  1  0.83459647  0.50113294  0.16676256  1
  Ni  Ni23  1  0.66650645  0.33407594  0.33526219  1
  Ni  Ni24  1  0.66799364  0.66718073  1.00029244  1
  Ni  Ni25  1  0.83500136  0.83467512  0.16637338  1
  Cr  Cr26  1  0.66875826  0.66606712  0.33292966  1
  Ni  Ni27  1  0.16766929  0.16874518  0.50157972  1
  Ni  Ni28  1  1.00083244  0.00139632  0.66680352  1
  Fe  Fe29  1  0.16786335  0.16823269  0.83443509  1
  Ni  Ni30  1  0.16790828  0.50071894  0.50151062  1
  Fe  Fe31  1  0.00272373  0.33515690  0.66764415  1
  Ni  Ni32  1  0.16780457  0.50008346  0.83382163  1
  Fe  Fe33  1  0.16671133  0.83460436  0.50097325  1
  Ni  Ni34  1  0.99947086  0.66843603  0.66647794  1
  Cr  Cr35  1  0.16845530  0.83242024  0.83442165  1
  Ni  Ni36  1  0.49988351  0.16777254  0.49960261  1
  Ni  Ni37  1  0.33260025  0.00369663  0.66781849  1
  Ni  Ni38  1  0.50109143  0.16656224  0.83496660  1
  Ni  Ni39  1  0.49840096  0.49990043  0.50089315  1
  Ni  Ni40  1  0.33420751  0.33349620  0.66780367  1
  Ni  Ni41  1  0.49938250  0.50170336  0.83505110  1
  Cr  Cr42  1  0.50047881  0.83528375  0.50320313  1
  Ni  Ni43  1  0.33432034  0.66585740  0.66753412  1
  Ni  Ni44  1  0.50194325  0.83474284  0.83417116  1
  Ni  Ni45  1  0.83552256  0.16633892  0.50024966  1
  Fe  Fe46  1  0.66791677  1.00051932  0.66861652  1
  Ni  Ni47  1  0.83463852  0.16669925  0.83448392  1
  Ni  Ni48  1  0.83693955  0.50103405  0.50065027  1
  Cr  Cr49  1  0.66705514  0.33539577  0.66668955  1
  Ni  Ni50  1  0.83608355  0.50143235  0.83545221  1
  Ni  Ni51  1  0.83605357  0.83563667  0.50225445  1
  Ni  Ni52  1  0.66932808  0.66670092  0.66934370  1
  Ni  Ni53  1  0.83330986  0.83500071  0.83422259  1
" 