8411,Ni82Fe8Cr9_0,-236.705948265842, 179.021465271602,Ni82Fe8Cr9,"# generated using pymatgen
 data_Cr3(FeNi11)2
_symmetry_space_group_name_H-M   'P 1'
_cell_length_a   7.45289094
_cell_length_b   7.45289094
_cell_length_c   10.53997945
_cell_angle_alpha   90.00000000
_cell_angle_beta   90.00000000
_cell_angle_gamma   90.00000000
_symmetry_Int_Tables_number   1
_chemical_formula_structural   Cr3(FeNi11)2
_chemical_formula_sum   'Cr6 Fe4 Ni44'
_cell_volume   585.44930705
_cell_formula_units_Z   2
loop_
 _symmetry_equiv_pos_site_id
 _symmetry_equiv_pos_as_xyz
  1  'x, y, z'
loop_
 _atom_site_type_symbol
 _atom_site_label
 _atom_site_symmetry_multiplicity
 _atom_site_fract_x
 _atom_site_fract_y
 _atom_site_fract_z
 _atom_site_occupancy
  Ni  Ni0  1  0.00126742  0.00237173  0.00117668  1
  Ni  Ni1  1  0.16876096  0.16793297  0.16867297  1
  Ni  Ni2  1  0.99928762  0.00259007  0.33455197  1
  Cr  Cr3  1  1.00003874  0.33266461  0.00204498  1
  Ni  Ni4  1  0.16851812  0.50050695  0.16787789  1
  Ni  Ni5  1  0.00152158  0.33382609  0.33420937  1
  Ni  Ni6  1  0.00193445  0.66662474  1.00079290  1
  Cr  Cr7  1  0.16651547  0.83504984  0.16861325  1
  Ni  Ni8  1  1.00082375  0.66656529  0.33507026  1
  Ni  Ni9  1  0.33523811  1.00091115  1.00050308  1
  Ni  Ni10  1  0.50095109  0.16824058  0.16698705  1
  Fe  Fe11  1  0.33555736  0.00205007  0.33503321  1
  Fe  Fe12  1  0.33494007  0.33250041  0.00248222  1
  Ni  Ni13  1  0.50133792  0.50038937  0.16798372  1
  Ni  Ni14  1  0.33391908  0.33503732  0.33338065  1
  Ni  Ni15  1  0.33442901  0.66860202  1.00091639  1
  Ni  Ni16  1  0.50236586  0.83422762  0.16733110  1
  Ni  Ni17  1  0.33535519  0.66618515  0.33559477  1
  Ni  Ni18  1  0.66631332  0.00275800  0.00135959  1
  Ni  Ni19  1  0.83341514  0.16669980  0.16881302  1
  Ni  Ni20  1  0.66778126  0.00100576  0.33392084  1
  Ni  Ni21  1  0.66795737  0.33260456  0.00182906  1
  Ni  Ni22  1  0.83313765  0.50205214  0.16848791  1
  Ni  Ni23  1  0.66743829  0.33355888  0.33429606  1
  Ni  Ni24  1  0.66650672  0.66750573  0.00335676  1
  Ni  Ni25  1  0.83335627  0.83405923  0.16703058  1
  Ni  Ni26  1  0.66671997  0.66824459  0.33379352  1
  Ni  Ni27  1  0.16850983  0.16770785  0.50069451  1
  Ni  Ni28  1  0.00194489  0.00244539  0.66711341  1
  Ni  Ni29  1  0.16875418  0.16553075  0.83363671  1
  Ni  Ni30  1  0.16638418  0.49916895  0.50093406  1
  Ni  Ni31  1  0.00117503  0.33361236  0.66726133  1
  Fe  Fe32  1  0.16651298  0.50069251  0.83397279  1
  Ni  Ni33  1  0.16560721  0.83600493  0.50050285  1
  Ni  Ni34  1  0.00228725  0.66670937  0.66727838  1
  Ni  Ni35  1  0.16772599  0.83647935  0.83444516  1
  Ni  Ni36  1  0.49986250  0.16857304  0.50177004  1
  Ni  Ni37  1  0.33433655  0.00235192  0.66717591  1
  Ni  Ni38  1  0.50025191  0.16678455  0.83414821  1
  Ni  Ni39  1  0.50144228  0.49767645  0.49898182  1
  Ni  Ni40  1  0.33308920  0.33181855  0.66771954  1
  Cr  Cr41  1  0.50286322  0.49813287  0.83558253  1
  Ni  Ni42  1  0.50132052  0.83692730  0.49930773  1
  Cr  Cr43  1  0.33277083  0.66946737  0.66610507  1
  Ni  Ni44  1  0.49891814  0.83755928  0.83584591  1
  Fe  Fe45  1  0.83435548  0.16748631  0.50051588  1
  Ni  Ni46  1  0.66645865  0.00372983  0.66744037  1
  Ni  Ni47  1  0.83378765  0.16872067  0.83265719  1
  Ni  Ni48  1  0.83501299  0.50060175  0.50032497  1
  Ni  Ni49  1  0.66860727  0.33133174  0.66647844  1
  Ni  Ni50  1  0.83510631  0.49942795  0.83407877  1
  Ni  Ni51  1  0.83593416  0.83441897  0.50014873  1
  Cr  Cr52  1  0.66760747  0.66870345  0.66511409  1
  Cr  Cr53  1  0.83527169  0.83445801  0.83594194  1
" 