4640,Ni82Fe7Cr9_17,-236.647320477682, 178.048818701583,Ni82Fe7Cr9,"# generated using pymatgen
 data_Cr3(FeNi11)2
_symmetry_space_group_name_H-M   'P 1'
_cell_length_a   7.45483769
_cell_length_b   7.45483769
_cell_length_c   10.54273257
_cell_angle_alpha   90.00000000
_cell_angle_beta   90.00000000
_cell_angle_gamma   90.00000000
_symmetry_Int_Tables_number   1
_chemical_formula_structural   Cr3(FeNi11)2
_chemical_formula_sum   'Cr6 Fe4 Ni44'
_cell_volume   585.90819872
_cell_formula_units_Z   2
loop_
 _symmetry_equiv_pos_site_id
 _symmetry_equiv_pos_as_xyz
  1  'x, y, z'
loop_
 _atom_site_type_symbol
 _atom_site_label
 _atom_site_symmetry_multiplicity
 _atom_site_fract_x
 _atom_site_fract_y
 _atom_site_fract_z
 _atom_site_occupancy
  Cr  Cr0  1  1.00006399  0.00145495  0.00165350  1
  Ni  Ni1  1  0.16670659  0.16894675  0.16711429  1
  Ni  Ni2  1  0.99989041  0.00145080  0.33505594  1
  Ni  Ni3  1  1.00036813  0.33676501  0.00212635  1
  Ni  Ni4  1  0.16541802  0.49954256  0.16642540  1
  Ni  Ni5  1  0.99929109  0.33408360  0.33338378  1
  Ni  Ni6  1  0.00119775  0.66403823  0.00099512  1
  Cr  Cr7  1  0.16821610  0.83381776  0.16792719  1
  Ni  Ni8  1  0.99981561  0.66692174  0.33436583  1
  Ni  Ni9  1  0.33742784  0.00082140  0.00105001  1
  Fe  Fe10  1  0.50190133  0.16514751  0.16648018  1
  Ni  Ni11  1  0.33486667  0.99984051  0.33453042  1
  Ni  Ni12  1  0.33392728  0.33434812  0.00088705  1
  Cr  Cr13  1  0.50157731  0.50208111  0.16721444  1
  Cr  Cr14  1  0.33332084  0.33351577  0.33490369  1
  Ni  Ni15  1  0.33392682  0.66728692  0.99912073  1
  Ni  Ni16  1  0.50242938  0.83507502  0.16677402  1
  Ni  Ni17  1  0.33417142  0.66929905  0.33559235  1
  Ni  Ni18  1  0.66491532  0.00165223  0.00191236  1
  Ni  Ni19  1  0.83420675  0.16824206  0.16805790  1
  Ni  Ni20  1  0.66770100  1.00036553  0.33354974  1
  Ni  Ni21  1  0.66816325  0.33326536  0.99983555  1
  Ni  Ni22  1  0.83531319  0.50042809  0.16653929  1
  Ni  Ni23  1  0.67007937  0.33339064  0.33494499  1
  Ni  Ni24  1  0.66733203  0.66753834  0.00126144  1
  Ni  Ni25  1  0.83169835  0.83378483  0.16859987  1
  Ni  Ni26  1  0.66846739  0.66869899  0.33464568  1
  Ni  Ni27  1  0.16667852  0.16586286  0.50168452  1
  Ni  Ni28  1  0.00086952  0.00089201  0.66572127  1
  Cr  Cr29  1  0.16788241  0.16768473  0.83339797  1
  Fe  Fe30  1  0.16664839  0.50166505  0.50165469  1
  Ni  Ni31  1  1.00004018  0.33451209  0.66694353  1
  Ni  Ni32  1  0.16885496  0.50279678  0.83463876  1
  Ni  Ni33  1  0.16751027  0.83494224  0.50110077  1
  Ni  Ni34  1  0.00188390  0.66705115  0.66709305  1
  Ni  Ni35  1  0.16916555  0.83146781  0.83353362  1
  Ni  Ni36  1  0.50115602  0.16748989  0.50135978  1
  Ni  Ni37  1  0.33463362  1.00013599  0.66687629  1
  Ni  Ni38  1  0.50251353  0.16880348  0.83488595  1
  Ni  Ni39  1  0.50212939  0.50165095  0.50175142  1
  Ni  Ni40  1  0.33495236  0.33475983  0.66692814  1
  Ni  Ni41  1  0.50018754  0.50029071  0.83408084  1
  Ni  Ni42  1  0.50032280  0.83331538  0.50106490  1
  Ni  Ni43  1  0.33386767  0.66756206  0.66774598  1
  Fe  Fe44  1  0.49891458  0.83435686  0.83437020  1
  Ni  Ni45  1  0.83462372  0.16767108  0.50115745  1
  Ni  Ni46  1  0.66695188  0.00197927  0.66699394  1
  Ni  Ni47  1  0.83151948  0.16911247  0.83324110  1
  Ni  Ni48  1  0.83299454  0.50081827  0.50101076  1
  Ni  Ni49  1  0.66746288  0.33374723  0.66767774  1
  Fe  Fe50  1  0.83435219  0.49896624  0.83421697  1
  Ni  Ni51  1  0.83462324  0.83396728  0.50020007  1
  Ni  Ni52  1  0.66670490  0.66673089  0.66654779  1
  Cr  Cr53  1  0.83438470  0.83418654  0.83339740  1
" 