2202,Ni82Fe3Cr13_12,-233.264161746885, 160.419486568472,Ni82Fe3Cr13,"# generated using pymatgen
 data_Cr9FeNi44
_symmetry_space_group_name_H-M   'P 1'
_cell_length_a   7.47246678
_cell_length_b   7.47246678
_cell_length_c   10.56766387
_cell_angle_alpha   90.00000000
_cell_angle_beta   90.00000000
_cell_angle_gamma   90.00000000
_symmetry_Int_Tables_number   1
_chemical_formula_structural   Cr9FeNi44
_chemical_formula_sum   'Cr9 Fe1 Ni44'
_cell_volume   590.07467647
_cell_formula_units_Z   1
loop_
 _symmetry_equiv_pos_site_id
 _symmetry_equiv_pos_as_xyz
  1  'x, y, z'
loop_
 _atom_site_type_symbol
 _atom_site_label
 _atom_site_symmetry_multiplicity
 _atom_site_fract_x
 _atom_site_fract_y
 _atom_site_fract_z
 _atom_site_occupancy
  Ni  Ni0  1  -0.00034782  0.00040616  0.00053080  1
  Ni  Ni1  1  0.16618109  0.16605459  0.16640461  1
  Cr  Cr2  1  0.00120576  0.99877795  0.33231838  1
  Ni  Ni3  1  0.99818445  0.33152915  0.00035360  1
  Ni  Ni4  1  0.16404257  0.49987557  0.16866160  1
  Ni  Ni5  1  0.00093146  0.33529862  0.33196126  1
  Ni  Ni6  1  0.99907818  0.66697692  0.00160030  1
  Ni  Ni7  1  0.16618061  0.83298230  0.16629209  1
  Ni  Ni8  1  0.00150512  0.66466872  0.33303225  1
  Ni  Ni9  1  0.33279580  0.99933768  -0.00029893  1
  Ni  Ni10  1  0.49977661  0.16628834  0.16687336  1
  Ni  Ni11  1  0.33260014  0.00001308  0.33295874  1
  Cr  Cr12  1  0.33296950  0.33225068  0.99905642  1
  Ni  Ni13  1  0.50108165  0.49880772  0.16712346  1
  Ni  Ni14  1  0.33288616  0.33293222  0.33305764  1
  Cr  Cr15  1  0.33337474  0.66706929  0.99923190  1
  Ni  Ni16  1  0.49870853  0.83381667  0.16545386  1
  Ni  Ni17  1  0.33124325  0.66596679  0.33281898  1
  Ni  Ni18  1  0.66646418  0.00023079  0.00032840  1
  Ni  Ni19  1  0.83295431  0.16842671  0.16424544  1
  Cr  Cr20  1  0.66474167  0.00010858  0.33272342  1
  Ni  Ni21  1  0.66775866  0.33187752  0.00070514  1
  Ni  Ni22  1  0.83378786  0.49880894  0.16560420  1
  Ni  Ni23  1  0.66509593  0.33394044  0.33188797  1
  Ni  Ni24  1  0.66669068  0.66680411  0.00139797  1
  Ni  Ni25  1  0.83402308  0.83167679  0.16393177  1
  Cr  Cr26  1  0.66632735  0.66521569  0.33277205  1
  Ni  Ni27  1  0.16963273  0.16705655  0.49952549  1
  Cr  Cr28  1  0.00047759  -0.00018636  0.66630220  1
  Ni  Ni29  1  0.16658320  0.16629152  0.83298184  1
  Fe  Fe30  1  0.16648429  0.50001839  0.49963558  1
  Ni  Ni31  1  0.00112168  0.33447102  0.66659735  1
  Ni  Ni32  1  0.16626287  0.49943767  0.83054744  1
  Ni  Ni33  1  0.16780649  0.83177842  0.49946245  1
  Ni  Ni34  1  0.00094557  0.66486885  0.66427999  1
  Ni  Ni35  1  0.16840584  0.83318349  0.83315762  1
  Ni  Ni36  1  0.49691587  0.16712053  0.50035732  1
  Ni  Ni37  1  0.33482818  0.99957533  0.66625268  1
  Ni  Ni38  1  0.49997010  0.16545582  0.83168186  1
  Ni  Ni39  1  0.49988169  0.49901030  0.50052836  1
  Ni  Ni40  1  0.33328835  0.33316878  0.66632933  1
  Ni  Ni41  1  0.49945301  0.49943645  0.83125819  1
  Ni  Ni42  1  0.49767444  0.83278158  0.50160076  1
  Ni  Ni43  1  0.33346354  0.66616802  0.66663139  1
  Ni  Ni44  1  0.49814564  0.83402029  0.83185765  1
  Cr  Cr45  1  0.83217566  0.16907377  0.50070110  1
  Ni  Ni46  1  0.66320409  0.99939730  0.66632868  1
  Ni  Ni47  1  0.83235811  0.16759659  0.83395786  1
  Ni  Ni48  1  0.83336749  0.50083704  0.50032660  1
  Ni  Ni49  1  0.66450405  0.33310322  0.66631954  1
  Cr  Cr50  1  0.83299942  0.49810344  0.83316774  1
  Ni  Ni51  1  0.83343013  0.82881106  0.50140258  1
  Ni  Ni52  1  0.66450515  0.66641128  0.66455645  1
  Cr  Cr53  1  0.83229239  0.83328671  0.83364440  1
" 