6147,Ni82Fe2Cr14_16,-233.454624212148, 159.774221058886,Ni82Fe2Cr14,"# generated using pymatgen
 data_Cr9FeNi44
_symmetry_space_group_name_H-M   'P 1'
_cell_length_a   7.46961635
_cell_length_b   7.46961635
_cell_length_c   10.56363275
_cell_angle_alpha   90.00000000
_cell_angle_beta   90.00000000
_cell_angle_gamma   90.00000000
_symmetry_Int_Tables_number   1
_chemical_formula_structural   Cr9FeNi44
_chemical_formula_sum   'Cr9 Fe1 Ni44'
_cell_volume   589.39966924
_cell_formula_units_Z   1
loop_
 _symmetry_equiv_pos_site_id
 _symmetry_equiv_pos_as_xyz
  1  'x, y, z'
loop_
 _atom_site_type_symbol
 _atom_site_label
 _atom_site_symmetry_multiplicity
 _atom_site_fract_x
 _atom_site_fract_y
 _atom_site_fract_z
 _atom_site_occupancy
  Cr  Cr0  1  0.00047085  0.00196151  0.00259407  1
  Ni  Ni1  1  0.16752550  0.16782693  0.16818060  1
  Ni  Ni2  1  0.00000305  0.00049343  0.33321017  1
  Ni  Ni3  1  -0.00010687  0.33308881  0.00218963  1
  Ni  Ni4  1  0.16734593  0.49811744  0.16704082  1
  Ni  Ni5  1  0.99894496  0.33056835  0.33130981  1
  Cr  Cr6  1  0.00192980  0.66636001  0.00229087  1
  Ni  Ni7  1  0.16897313  0.83316562  0.16901180  1
  Fe  Fe8  1  0.99955807  0.66682602  0.33236288  1
  Ni  Ni9  1  0.33426673  0.00020720  0.00249365  1
  Ni  Ni10  1  0.49966722  0.16632888  0.16715064  1
  Ni  Ni11  1  0.33153651  0.00079097  0.33202862  1
  Ni  Ni12  1  0.33423090  0.33384665  0.00136571  1
  Ni  Ni13  1  0.49962515  0.49952891  0.16693821  1
  Ni  Ni14  1  0.33404137  0.33246464  0.33218828  1
  Ni  Ni15  1  0.33392473  0.66525522  0.00033917  1
  Ni  Ni16  1  0.49982864  0.83349968  0.16638591  1
  Ni  Ni17  1  0.33421372  0.66603922  0.33115819  1
  Ni  Ni18  1  0.66528340  0.00256193  0.00247801  1
  Ni  Ni19  1  0.83222335  0.16785726  0.16690987  1
  Ni  Ni20  1  0.66787831  0.00100994  0.33221365  1
  Ni  Ni21  1  0.66497531  0.33227153  0.00092903  1
  Ni  Ni22  1  0.83242791  0.49833265  0.16792347  1
  Ni  Ni23  1  0.66656119  0.33356658  0.33397987  1
  Ni  Ni24  1  0.66392059  0.66503220  0.00340151  1
  Ni  Ni25  1  0.83092461  0.83338134  0.16898037  1
  Ni  Ni26  1  0.66653521  0.66521977  0.33212694  1
  Ni  Ni27  1  0.16659978  0.16524984  0.49878433  1
  Ni  Ni28  1  0.00018855  0.00057573  0.66426878  1
  Cr  Cr29  1  0.16691472  0.16825927  0.83288479  1
  Cr  Cr30  1  0.16695120  0.49769111  0.49858987  1
  Ni  Ni31  1  0.99923336  0.33198735  0.66567400  1
  Ni  Ni32  1  0.16883139  0.49984180  0.83263243  1
  Ni  Ni33  1  0.16533453  0.83450243  0.49989179  1
  Ni  Ni34  1  0.00206773  0.66708573  0.66432689  1
  Ni  Ni35  1  0.16859432  0.83205437  0.83063201  1
  Ni  Ni36  1  0.49960135  0.16813101  0.49910830  1
  Ni  Ni37  1  0.33214650  0.00122697  0.66506878  1
  Ni  Ni38  1  0.50081030  0.16821498  0.83330956  1
  Ni  Ni39  1  0.50019645  0.49739420  0.49833146  1
  Ni  Ni40  1  0.33497091  0.33297601  0.66574150  1
  Ni  Ni41  1  0.49742077  0.49716186  0.83418917  1
  Cr  Cr42  1  0.49834440  0.83504530  0.49759582  1
  Ni  Ni43  1  0.33067186  0.66527335  0.66766284  1
  Cr  Cr44  1  0.49859436  0.83566699  0.83558721  1
  Ni  Ni45  1  0.83341619  0.16691324  0.50000195  1
  Ni  Ni46  1  0.66727337  0.00411545  0.66489046  1
  Ni  Ni47  1  0.83055602  0.16778585  0.83275004  1
  Ni  Ni48  1  0.83296264  0.49820200  0.49804788  1
  Ni  Ni49  1  0.66541241  0.33030241  0.66492898  1
  Cr  Cr50  1  0.83441003  0.49618715  0.83402405  1
  Ni  Ni51  1  0.83466906  0.83418391  0.49835079  1
  Cr  Cr52  1  0.66498945  0.66299329  0.66406563  1
  Cr  Cr53  1  0.83284401  0.83609062  0.83219388  1
" 