8618,Ni82Fe9Cr8_2,-237.683688911329, 185.452802816911,Ni82Fe9Cr8,"# generated using pymatgen
 data_Cr5Fe5Ni44
_symmetry_space_group_name_H-M   'P 1'
_cell_length_a   7.44636784
_cell_length_b   7.44636784
_cell_length_c   10.53075439
_cell_angle_alpha   90.00000000
_cell_angle_beta   90.00000000
_cell_angle_gamma   90.00000000
_symmetry_Int_Tables_number   1
_chemical_formula_structural   Cr5Fe5Ni44
_chemical_formula_sum   'Cr5 Fe5 Ni44'
_cell_volume   583.91341808
_cell_formula_units_Z   1
loop_
 _symmetry_equiv_pos_site_id
 _symmetry_equiv_pos_as_xyz
  1  'x, y, z'
loop_
 _atom_site_type_symbol
 _atom_site_label
 _atom_site_symmetry_multiplicity
 _atom_site_fract_x
 _atom_site_fract_y
 _atom_site_fract_z
 _atom_site_occupancy
  Ni  Ni0  1  1.00117873  0.00152758  0.00155796  1
  Ni  Ni1  1  0.16797976  0.16712227  0.16820803  1
  Ni  Ni2  1  0.00142966  1.00138110  0.33468861  1
  Ni  Ni3  1  1.00124362  0.33297721  1.00004999  1
  Cr  Cr4  1  0.16776365  0.50138461  0.16825268  1
  Ni  Ni5  1  0.00175036  0.33248576  0.33482508  1
  Ni  Ni6  1  1.00137887  0.66965890  0.99956573  1
  Ni  Ni7  1  0.16751735  0.83592573  0.16814726  1
  Ni  Ni8  1  0.00195354  0.67030006  0.33550024  1
  Fe  Fe9  1  0.33369579  1.00047786  0.00217877  1
  Ni  Ni10  1  0.50206472  0.16847053  0.16833135  1
  Ni  Ni11  1  0.33397365  1.00091813  0.33471149  1
  Ni  Ni12  1  0.33445204  0.33578884  1.00086407  1
  Ni  Ni13  1  0.50299275  0.50091858  0.16830973  1
  Ni  Ni14  1  0.33517862  0.33447972  0.33629379  1
  Ni  Ni15  1  0.33577981  0.66831965  1.00038785  1
  Ni  Ni16  1  0.50232381  0.83477700  0.16769343  1
  Ni  Ni17  1  0.33543786  0.66876873  0.33565761  1
  Ni  Ni18  1  0.66981512  1.00019891  0.00174279  1
  Ni  Ni19  1  0.83412184  0.16779092  0.16787127  1
  Ni  Ni20  1  0.66876203  1.00112103  0.33552912  1
  Ni  Ni21  1  0.66846989  0.33557912  0.00212948  1
  Fe  Fe22  1  0.83289593  0.50134963  0.16775401  1
  Ni  Ni23  1  0.66723427  0.33395429  0.33375648  1
  Ni  Ni24  1  0.66700467  0.66838703  1.00106244  1
  Ni  Ni25  1  0.83432461  0.83499226  0.16854616  1
  Ni  Ni26  1  0.66677255  0.66909149  0.33369607  1
  Ni  Ni27  1  0.16979040  0.16965109  0.50052566  1
  Cr  Cr28  1  1.00118840  0.00204923  0.66765713  1
  Ni  Ni29  1  0.16790603  0.16971083  0.83543385  1
  Ni  Ni30  1  0.16804868  0.50020046  0.50116493  1
  Ni  Ni31  1  0.00239020  0.33447566  0.66929335  1
  Ni  Ni32  1  0.16622837  0.50016614  0.83496655  1
  Ni  Ni33  1  0.16832620  0.83431049  0.49945605  1
  Fe  Fe34  1  1.00044496  0.66711382  0.66895301  1
  Ni  Ni35  1  0.16743413  0.83428935  0.83656060  1
  Ni  Ni36  1  0.50114357  0.16731527  0.50145744  1
  Ni  Ni37  1  0.33516637  0.00183482  0.66767688  1
  Cr  Cr38  1  0.50084763  0.16764747  0.83452719  1
  Fe  Fe39  1  0.50049286  0.50047795  0.50048570  1
  Ni  Ni40  1  0.33349857  0.33459458  0.66700842  1
  Ni  Ni41  1  0.50264445  0.50183181  0.83506271  1
  Ni  Ni42  1  0.50247124  0.83679202  0.50098120  1
  Cr  Cr43  1  0.33538626  0.66785578  0.66801296  1
  Ni  Ni44  1  0.50296617  0.83413967  0.83549259  1
  Ni  Ni45  1  0.83322979  0.16759287  0.50120961  1
  Ni  Ni46  1  0.66792648  1.00016152  0.66689595  1
  Fe  Fe47  1  0.83565536  0.16900873  0.83560631  1
  Cr  Cr48  1  0.83579418  0.50180131  0.50076531  1
  Ni  Ni49  1  0.66827736  0.33494590  0.66827935  1
  Ni  Ni50  1  0.83529061  0.50230601  0.83517675  1
  Ni  Ni51  1  0.83336506  0.83504511  0.50072638  1
  Ni  Ni52  1  0.66780927  0.66905754  0.66940574  1
  Ni  Ni53  1  0.83376530  0.83246108  0.83489030  1
" 