2058,Ni82Fe9Cr8_5,-237.785947372227, 184.068261554897,Ni82Fe9Cr8,"# generated using pymatgen
 data_Cr5Fe5Ni44
_symmetry_space_group_name_H-M   'P 1'
_cell_length_a   7.44673376
_cell_length_b   7.44673376
_cell_length_c   10.53127188
_cell_angle_alpha   90.00000000
_cell_angle_beta   90.00000000
_cell_angle_gamma   90.00000000
_symmetry_Int_Tables_number   1
_chemical_formula_structural   Cr5Fe5Ni44
_chemical_formula_sum   'Cr5 Fe5 Ni44'
_cell_volume   583.99950472
_cell_formula_units_Z   1
loop_
 _symmetry_equiv_pos_site_id
 _symmetry_equiv_pos_as_xyz
  1  'x, y, z'
loop_
 _atom_site_type_symbol
 _atom_site_label
 _atom_site_symmetry_multiplicity
 _atom_site_fract_x
 _atom_site_fract_y
 _atom_site_fract_z
 _atom_site_occupancy
  Ni  Ni0  1  1.00054842  0.00253015  1.00111569  1
  Ni  Ni1  1  0.16693503  0.16754125  0.16646124  1
  Fe  Fe2  1  0.00179079  0.99993925  0.33503492  1
  Ni  Ni3  1  0.00266522  0.33488493  0.00169584  1
  Fe  Fe4  1  0.16702967  0.50151228  0.16743438  1
  Ni  Ni5  1  1.00121627  0.33582329  0.33359535  1
  Ni  Ni6  1  1.00035737  0.66649257  1.00071497  1
  Cr  Cr7  1  0.16846174  0.83407834  0.16917076  1
  Ni  Ni8  1  0.99963934  0.66549000  0.33579424  1
  Ni  Ni9  1  0.33485147  1.00079033  0.00177127  1
  Ni  Ni10  1  0.50111322  0.16644945  0.16797467  1
  Ni  Ni11  1  0.33724360  0.00138679  0.33603181  1
  Fe  Fe12  1  0.33335847  0.33541513  1.00134418  1
  Ni  Ni13  1  0.50224756  0.50411575  0.16756642  1
  Cr  Cr14  1  0.33318775  0.33419450  0.33432509  1
  Ni  Ni15  1  0.33547669  0.66793798  1.00130473  1
  Ni  Ni16  1  0.50192692  0.83394061  0.16771464  1
  Ni  Ni17  1  0.33607197  0.66877291  0.33602473  1
  Ni  Ni18  1  0.66848632  0.99908333  0.00237147  1
  Ni  Ni19  1  0.83603678  0.16771048  0.16933719  1
  Ni  Ni20  1  0.66651636  0.99960541  0.33275014  1
  Cr  Cr21  1  0.67039924  0.33524815  0.00324939  1
  Ni  Ni22  1  0.83482485  0.50233642  0.16941801  1
  Fe  Fe23  1  0.66722611  0.33665555  0.33413488  1
  Ni  Ni24  1  0.66798534  0.66957202  1.00129368  1
  Ni  Ni25  1  0.83392684  0.83376648  0.16689342  1
  Ni  Ni26  1  0.66848532  0.66997185  0.33424778  1
  Ni  Ni27  1  0.16832148  0.16708710  0.50277254  1
  Ni  Ni28  1  0.00231696  1.00056257  0.66833017  1
  Ni  Ni29  1  0.16567109  0.16700024  0.83471293  1
  Ni  Ni30  1  0.16690986  0.50267316  0.50179357  1
  Ni  Ni31  1  0.00274276  0.33591481  0.66901754  1
  Ni  Ni32  1  0.16748970  0.50259223  0.83579875  1
  Ni  Ni33  1  0.16820499  0.83403316  0.50113147  1
  Ni  Ni34  1  0.00157840  0.66748164  0.66782601  1
  Ni  Ni35  1  0.16878589  0.83456776  0.83430842  1
  Ni  Ni36  1  0.50084387  0.16718850  0.50244534  1
  Ni  Ni37  1  0.33403557  1.00034485  0.66630993  1
  Cr  Cr38  1  0.50120089  0.16728823  0.83289689  1
  Ni  Ni39  1  0.50234096  0.50289333  0.50287882  1
  Ni  Ni40  1  0.33279786  0.33574314  0.66803743  1
  Ni  Ni41  1  0.50133148  0.50477054  0.83339207  1
  Ni  Ni42  1  0.50125480  0.83428921  0.50105364  1
  Ni  Ni43  1  0.33439757  0.66816083  0.66719814  1
  Ni  Ni44  1  0.49974857  0.83272609  0.83536535  1
  Cr  Cr45  1  0.83430628  0.16912609  0.50115719  1
  Ni  Ni46  1  0.66788654  0.99900557  0.66860625  1
  Ni  Ni47  1  0.83710101  0.16833061  0.83405714  1
  Ni  Ni48  1  0.83466240  0.50306058  0.50128528  1
  Ni  Ni49  1  0.66832115  0.33647791  0.66644551  1
  Ni  Ni50  1  0.83516203  0.50130877  0.83325159  1
  Ni  Ni51  1  0.83481813  0.83287169  0.50171950  1
  Ni  Ni52  1  0.66811548  0.66859771  0.66828485  1
  Fe  Fe53  1  0.83529859  0.83431144  0.83480574  1
" 