2591,Ni82Fe13Cr3_1,-239.872050351339, 192.6881159017,Ni82Fe13Cr3,"# generated using pymatgen
 data_Cr3Fe7Ni44
_symmetry_space_group_name_H-M   'P 1'
_cell_length_a   7.43985415
_cell_length_b   7.43985415
_cell_length_c   10.52154264
_cell_angle_alpha   90.00000000
_cell_angle_beta   90.00000000
_cell_angle_gamma   90.00000000
_symmetry_Int_Tables_number   1
_chemical_formula_structural   Cr3Fe7Ni44
_chemical_formula_sum   'Cr3 Fe7 Ni44'
_cell_volume   582.38242863
_cell_formula_units_Z   1
loop_
 _symmetry_equiv_pos_site_id
 _symmetry_equiv_pos_as_xyz
  1  'x, y, z'
loop_
 _atom_site_type_symbol
 _atom_site_label
 _atom_site_symmetry_multiplicity
 _atom_site_fract_x
 _atom_site_fract_y
 _atom_site_fract_z
 _atom_site_occupancy
  Fe  Fe0  1  1.00182472  1.00150155  0.00242340  1
  Ni  Ni1  1  0.16944324  0.16936275  0.16738121  1
  Cr  Cr2  1  1.00180395  1.00150223  0.33571915  1
  Ni  Ni3  1  1.00178553  0.33579851  0.00293259  1
  Ni  Ni4  1  0.16812723  0.50151018  0.16854424  1
  Fe  Fe5  1  0.00277759  0.33593967  0.33402569  1
  Ni  Ni6  1  0.00204729  0.66764256  1.00167847  1
  Ni  Ni7  1  0.16938800  0.83460880  0.16737734  1
  Ni  Ni8  1  0.00286609  0.66765497  0.33481922  1
  Ni  Ni9  1  0.33530799  0.00183245  0.00255147  1
  Ni  Ni10  1  0.50187088  0.16829975  0.16843894  1
  Ni  Ni11  1  0.33648717  0.00226975  0.33517258  1
  Ni  Ni12  1  0.33425513  0.33468672  1.00115066  1
  Ni  Ni13  1  0.50207222  0.50145900  0.16829290  1
  Ni  Ni14  1  0.33521721  0.33508744  0.33609580  1
  Ni  Ni15  1  0.33419580  0.66896164  0.00194053  1
  Ni  Ni16  1  0.50187550  0.83572416  0.16843610  1
  Ni  Ni17  1  0.33436882  0.66812666  0.33542075  1
  Ni  Ni18  1  0.66812621  0.00209452  0.00229049  1
  Ni  Ni19  1  0.83416866  0.16955936  0.16758395  1
  Ni  Ni20  1  0.66719615  0.00253264  0.33568257  1
  Ni  Ni21  1  0.66944284  0.33468621  1.00162421  1
  Ni  Ni22  1  0.83528383  0.50151526  0.16816808  1
  Ni  Ni23  1  0.66766403  0.33402155  0.33455803  1
  Ni  Ni24  1  0.66923970  0.66870077  1.00167921  1
  Ni  Ni25  1  0.83421863  0.83440716  0.16758015  1
  Ni  Ni26  1  0.66824833  0.66892973  0.33461655  1
  Ni  Ni27  1  0.17033685  0.16827513  0.50209393  1
  Fe  Fe28  1  1.00130057  0.99919168  0.66776047  1
  Fe  Fe29  1  0.16964092  0.16784031  0.83630743  1
  Ni  Ni30  1  0.17081969  0.50242051  0.50112510  1
  Cr  Cr31  1  0.00198177  0.33561497  0.66807441  1
  Ni  Ni32  1  0.16904221  0.50249006  0.83581249  1
  Ni  Ni33  1  0.16927311  0.83478659  0.50320539  1
  Ni  Ni34  1  0.00307252  0.67022194  0.66898150  1
  Ni  Ni35  1  0.16833731  0.83517534  0.83490144  1
  Ni  Ni36  1  0.50179186  0.16827895  0.50209352  1
  Ni  Ni37  1  0.33547657  1.00108381  0.66776025  1
  Fe  Fe38  1  0.50206915  0.16819561  0.83534431  1
  Ni  Ni39  1  0.50019750  0.50130869  0.50243886  1
  Fe  Fe40  1  0.33736209  0.33613848  0.66793516  1
  Ni  Ni41  1  0.50216677  0.50143756  0.83474999  1
  Ni  Ni42  1  0.50173980  0.83589658  0.50189505  1
  Ni  Ni43  1  0.33436915  0.66947463  0.66812157  1
  Ni  Ni44  1  0.50191254  0.83526867  0.83515089  1
  Ni  Ni45  1  0.83335723  0.16673259  0.50213881  1
  Ni  Ni46  1  0.66799231  0.00213138  0.66751134  1
  Fe  Fe47  1  0.83377007  0.16821321  0.83593908  1
  Cr  Cr48  1  0.83411315  0.50295316  0.50063192  1
  Ni  Ni49  1  0.66724393  0.33386647  0.66929985  1
  Ni  Ni50  1  0.83427737  0.50243958  0.83614118  1
  Ni  Ni51  1  0.83446835  0.83638287  0.50325309  1
  Ni  Ni52  1  0.66804149  0.66948144  0.66918477  1
  Ni  Ni53  1  0.83523084  0.83497167  0.83465181  1
" 