3848,Ni82Fe9Cr8_8,-237.877172283559, 183.131235414044,Ni82Fe9Cr8,"# generated using pymatgen
 data_Cr5Fe5Ni44
_symmetry_space_group_name_H-M   'P 1'
_cell_length_a   7.44950212
_cell_length_b   7.44950212
_cell_length_c   10.53518693
_cell_angle_alpha   90.00000000
_cell_angle_beta   90.00000000
_cell_angle_gamma   90.00000000
_symmetry_Int_Tables_number   1
_chemical_formula_structural   Cr5Fe5Ni44
_chemical_formula_sum   'Cr5 Fe5 Ni44'
_cell_volume   584.65106038
_cell_formula_units_Z   1
loop_
 _symmetry_equiv_pos_site_id
 _symmetry_equiv_pos_as_xyz
  1  'x, y, z'
loop_
 _atom_site_type_symbol
 _atom_site_label
 _atom_site_symmetry_multiplicity
 _atom_site_fract_x
 _atom_site_fract_y
 _atom_site_fract_z
 _atom_site_occupancy
  Ni  Ni0  1  0.00252677  0.00176195  1.00049392  1
  Ni  Ni1  1  0.16745493  0.16783137  0.16811174  1
  Ni  Ni2  1  1.00026248  0.00203369  0.33474276  1
  Ni  Ni3  1  0.00217533  0.33333808  0.00190164  1
  Ni  Ni4  1  0.16873343  0.49973620  0.16724941  1
  Ni  Ni5  1  0.00392113  0.33234444  0.33487548  1
  Fe  Fe6  1  0.00170801  0.66672746  0.00119312  1
  Ni  Ni7  1  0.16875329  0.83558889  0.16558945  1
  Cr  Cr8  1  0.00300295  0.66714416  0.33453158  1
  Ni  Ni9  1  0.33162746  0.00205440  0.00132396  1
  Ni  Ni10  1  0.49889914  0.16801386  0.16683492  1
  Fe  Fe11  1  0.33377211  1.00114291  0.33377871  1
  Ni  Ni12  1  0.33364124  0.33540758  0.00132448  1
  Ni  Ni13  1  0.50040327  0.50223745  0.16632086  1
  Ni  Ni14  1  0.33301357  0.33594678  0.33407324  1
  Ni  Ni15  1  0.33388546  0.66605611  0.00196578  1
  Ni  Ni16  1  0.49991428  0.83339814  0.16930611  1
  Ni  Ni17  1  0.33548790  0.66655652  0.33480282  1
  Cr  Cr18  1  0.66936263  0.00254953  0.00265196  1
  Ni  Ni19  1  0.83691097  0.16828055  0.16776906  1
  Ni  Ni20  1  0.66861604  1.00014067  0.33404056  1
  Ni  Ni21  1  0.66767027  0.33616532  0.99937048  1
  Ni  Ni22  1  0.83453824  0.50079605  0.16587498  1
  Cr  Cr23  1  0.66740677  0.33456801  0.33505638  1
  Ni  Ni24  1  0.66744873  0.66602901  0.00258230  1
  Ni  Ni25  1  0.83469583  0.83422759  0.16787320  1
  Ni  Ni26  1  0.66572328  0.66999638  0.33482597  1
  Ni  Ni27  1  0.16782813  0.16785864  0.50069977  1
  Ni  Ni28  1  0.00139978  0.00164542  0.66822423  1
  Ni  Ni29  1  0.16741254  0.16872434  0.83454268  1
  Ni  Ni30  1  0.16851473  0.50003061  0.50165789  1
  Ni  Ni31  1  0.00368801  0.33410793  0.66676784  1
  Ni  Ni32  1  0.16753474  0.49983120  0.83481880  1
  Ni  Ni33  1  0.16861227  0.83550563  0.50345107  1
  Ni  Ni34  1  0.00204550  0.66784587  0.66863563  1
  Fe  Fe35  1  0.16638111  0.83383016  0.83458526  1
  Ni  Ni36  1  0.49856060  0.16759642  0.50180118  1
  Fe  Fe37  1  0.33189690  0.00162032  0.66779597  1
  Ni  Ni38  1  0.49821135  0.17107437  0.83469455  1
  Ni  Ni39  1  0.50002628  0.50226131  0.50262636  1
  Ni  Ni40  1  0.33363596  0.33557553  0.66812849  1
  Ni  Ni41  1  0.50079323  0.50050306  0.83438021  1
  Ni  Ni42  1  0.49995757  0.83391674  0.49946595  1
  Ni  Ni43  1  0.33349658  0.66472348  0.66669107  1
  Cr  Cr44  1  0.49958248  0.83238144  0.83473953  1
  Ni  Ni45  1  0.83670815  0.16785547  0.50116315  1
  Cr  Cr46  1  0.66957749  0.00253414  0.66740216  1
  Ni  Ni47  1  0.83751823  0.16987193  0.83450059  1
  Ni  Ni48  1  0.83526575  0.50158584  0.50342010  1
  Fe  Fe49  1  0.66873216  0.33674067  0.66849052  1
  Ni  Ni50  1  0.83539847  0.50164443  0.83427785  1
  Ni  Ni51  1  0.83456871  0.83435895  0.50104902  1
  Ni  Ni52  1  0.66780524  0.66754767  0.66616809  1
  Ni  Ni53  1  0.83688444  0.83234724  0.83494908  1
" 