8312,Ni82Fe18_4,-231.175404913961, 174.911024744388,Ni82Fe18,"# generated using pymatgen
 data_Fe22Ni5
_symmetry_space_group_name_H-M   'P 1'
_cell_length_a   7.39708784
_cell_length_b   7.39708784
_cell_length_c   10.46106194
_cell_angle_alpha   90.00000000
_cell_angle_beta   90.00000000
_cell_angle_gamma   90.00000000
_symmetry_Int_Tables_number   1
_chemical_formula_structural   Fe22Ni5
_chemical_formula_sum   'Fe44 Ni10'
_cell_volume   572.39696854
_cell_formula_units_Z   2
loop_
 _symmetry_equiv_pos_site_id
 _symmetry_equiv_pos_as_xyz
  1  'x, y, z'
loop_
 _atom_site_type_symbol
 _atom_site_label
 _atom_site_symmetry_multiplicity
 _atom_site_fract_x
 _atom_site_fract_y
 _atom_site_fract_z
 _atom_site_occupancy
  Fe  Fe0  1  1.00472706  1.00300158  0.00472998  1
  Fe  Fe1  1  0.17199587  0.17157071  0.17108050  1
  Fe  Fe2  1  1.00448818  1.00396112  0.33798841  1
  Fe  Fe3  1  1.00439204  0.33882507  1.00436913  1
  Fe  Fe4  1  0.17193227  0.50568670  0.17096976  1
  Fe  Fe5  1  1.00413094  0.33847181  0.33825327  1
  Ni  Ni6  1  0.00586133  0.67114050  0.00517253  1
  Ni  Ni7  1  0.17080895  0.83842321  0.17093928  1
  Fe  Fe8  1  1.00436894  0.67175644  0.33738731  1
  Fe  Fe9  1  0.33796880  1.00309543  1.00472828  1
  Fe  Fe10  1  0.50439149  0.17106247  0.17132279  1
  Fe  Fe11  1  0.33820543  1.00405501  0.33798949  1
  Fe  Fe12  1  0.33866586  0.33909181  0.00482642  1
  Ni  Ni13  1  0.50588272  0.50494554  0.17137636  1
  Fe  Fe14  1  0.33892746  0.33873640  0.33779488  1
  Ni  Ni15  1  0.33716655  0.67114299  0.00587801  1
  Fe  Fe16  1  0.50472760  0.83709194  0.17096066  1
  Fe  Fe17  1  0.33859042  0.67139593  0.33771936  1
  Ni  Ni18  1  0.67160788  0.00533548  0.00517699  1
  Fe  Fe19  1  0.83780030  0.17113888  0.17132360  1
  Fe  Fe20  1  0.67148986  1.00429541  0.33765062  1
  Fe  Fe21  1  0.67113229  0.33953853  1.00439161  1
  Fe  Fe22  1  0.83796347  0.50603046  0.17132052  1
  Fe  Fe23  1  0.67113169  0.33885655  0.33858974  1
  Ni  Ni24  1  0.67116077  0.67217911  1.00414750  1
  Fe  Fe25  1  0.83745397  0.83702364  0.17095875  1
  Ni  Ni26  1  0.67116273  0.67139927  0.33829746  1
  Fe  Fe27  1  0.17130112  0.17139721  0.50523005  1
  Fe  Fe28  1  0.00508789  0.00508013  0.67146528  1
  Ni  Ni29  1  0.17118269  0.17094601  0.83796219  1
  Fe  Fe30  1  0.17156163  0.50499401  0.50508547  1
  Fe  Fe31  1  0.00506742  0.33830496  0.67156381  1
  Fe  Fe32  1  0.17157272  0.50490163  0.83813535  1
  Fe  Fe33  1  0.17165632  0.83779675  0.50438860  1
  Fe  Fe34  1  1.00464937  0.67079921  0.67180727  1
  Fe  Fe35  1  0.17166634  0.83778531  0.83873347  1
  Fe  Fe36  1  0.50508874  0.17155989  0.50499098  1
  Fe  Fe37  1  0.33830225  0.00515653  0.67146634  1
  Fe  Fe38  1  0.50482586  0.17130155  0.83787374  1
  Fe  Fe39  1  0.50499110  0.50499226  0.50439775  1
  Fe  Fe40  1  0.33833736  0.33823913  0.67156497  1
  Fe  Fe41  1  0.50402713  0.50457065  0.83846356  1
  Fe  Fe42  1  0.50472859  0.83763110  0.50482701  1
  Ni  Ni43  1  0.33715242  0.67164740  0.67071594  1
  Fe  Fe44  1  0.50411893  0.83831536  0.83840083  1
  Fe  Fe45  1  0.83779986  0.17165308  0.50499222  1
  Fe  Fe46  1  0.67079559  0.00473966  0.67190335  1
  Fe  Fe47  1  0.83806072  0.17139492  0.83787195  1
  Fe  Fe48  1  0.83763189  0.50463494  0.50473152  1
  Ni  Ni49  1  0.67197913  0.33682067  0.67096900  1
  Fe  Fe50  1  0.83858589  0.50420419  0.83813248  1
  Fe  Fe51  1  0.83779761  0.83789389  0.50437135  1
  Fe  Fe52  1  0.67085747  0.67075950  0.67111324  1
  Fe  Fe53  1  0.83839822  0.83858718  0.83885817  1
" 