3786,Ni82Fe9Cr8_7,-237.761454856809, 184.37911329655,Ni82Fe9Cr8,"# generated using pymatgen
 data_Cr5Fe5Ni44
_symmetry_space_group_name_H-M   'P 1'
_cell_length_a   7.44798895
_cell_length_b   7.44798895
_cell_length_c   10.53304698
_cell_angle_alpha   90.00000000
_cell_angle_beta   90.00000000
_cell_angle_gamma   90.00000000
_symmetry_Int_Tables_number   1
_chemical_formula_structural   Cr5Fe5Ni44
_chemical_formula_sum   'Cr5 Fe5 Ni44'
_cell_volume   584.29486321
_cell_formula_units_Z   1
loop_
 _symmetry_equiv_pos_site_id
 _symmetry_equiv_pos_as_xyz
  1  'x, y, z'
loop_
 _atom_site_type_symbol
 _atom_site_label
 _atom_site_symmetry_multiplicity
 _atom_site_fract_x
 _atom_site_fract_y
 _atom_site_fract_z
 _atom_site_occupancy
  Ni  Ni0  1  0.99919722  0.00130134  0.99960986  1
  Ni  Ni1  1  0.16619716  0.16863287  0.16866019  1
  Ni  Ni2  1  0.99974147  1.00090585  0.33597426  1
  Ni  Ni3  1  0.99937516  0.33495678  0.00155245  1
  Ni  Ni4  1  0.16543520  0.49957602  0.17019798  1
  Fe  Fe5  1  1.00067858  0.33420728  0.33431224  1
  Ni  Ni6  1  0.99894928  0.66755214  1.00032615  1
  Cr  Cr7  1  0.16756175  0.83611448  0.16840631  1
  Ni  Ni8  1  1.00033089  0.66792591  0.33536705  1
  Ni  Ni9  1  0.33479680  0.00336748  0.00131363  1
  Ni  Ni10  1  0.50262759  0.16677197  0.16899038  1
  Ni  Ni11  1  0.33426830  0.00393830  0.33410061  1
  Cr  Cr12  1  0.33566755  0.33355461  1.00104941  1
  Ni  Ni13  1  0.50372873  0.50144858  0.17016821  1
  Ni  Ni14  1  0.33555324  0.33462022  0.33481052  1
  Cr  Cr15  1  0.33292067  0.66649868  1.00101198  1
  Ni  Ni16  1  0.50364404  0.83568153  0.16894308  1
  Ni  Ni17  1  0.33362803  0.66530925  0.33514718  1
  Ni  Ni18  1  0.66994341  0.00353284  0.00242029  1
  Ni  Ni19  1  0.83494847  0.16844330  0.16782090  1
  Ni  Ni20  1  0.66995535  0.00319183  0.33389061  1
  Ni  Ni21  1  0.66945089  0.33339748  1.00075495  1
  Ni  Ni22  1  0.83470839  0.50060008  0.16748345  1
  Ni  Ni23  1  0.66714628  0.33409951  0.33490413  1
  Fe  Fe24  1  0.67038009  0.66739643  0.00203966  1
  Ni  Ni25  1  0.83308002  0.83473374  0.16839184  1
  Ni  Ni26  1  0.67009308  0.66649040  0.33327475  1
  Ni  Ni27  1  0.16754952  0.16781072  0.50089328  1
  Fe  Fe28  1  1.00110736  0.00139029  0.66780213  1
  Ni  Ni29  1  0.16651333  0.16712153  0.83426770  1
  Ni  Ni30  1  0.16711183  0.50126522  0.50097171  1
  Fe  Fe31  1  1.00105796  0.33515369  0.66828478  1
  Ni  Ni32  1  0.16540990  0.50102793  0.83276254  1
  Ni  Ni33  1  0.16735952  0.83476720  0.50171890  1
  Ni  Ni34  1  0.00130025  0.66844877  0.66811178  1
  Ni  Ni35  1  0.16588582  0.83569154  0.83353516  1
  Ni  Ni36  1  0.50169309  0.16900911  0.50144354  1
  Ni  Ni37  1  0.33295131  0.00394033  0.66843072  1
  Ni  Ni38  1  0.50261446  0.16823141  0.83348856  1
  Ni  Ni39  1  0.50214442  0.50025228  0.50175706  1
  Ni  Ni40  1  0.33510683  0.33432379  0.66804192  1
  Ni  Ni41  1  0.50363199  0.49987301  0.83195423  1
  Cr  Cr42  1  0.50046086  0.83417657  0.50069846  1
  Ni  Ni43  1  0.33141282  0.66555478  0.66773573  1
  Cr  Cr44  1  0.50185581  0.83557041  0.83429341  1
  Ni  Ni45  1  0.83461314  0.16937614  0.50121226  1
  Ni  Ni46  1  0.67041263  0.00400778  0.66759696  1
  Ni  Ni47  1  0.83468370  0.16861318  0.83480605  1
  Ni  Ni48  1  0.83458934  0.50012174  0.50124193  1
  Ni  Ni49  1  0.66761971  0.33380622  0.66819809  1
  Ni  Ni50  1  0.83479853  0.50063707  0.83520440  1
  Fe  Fe51  1  0.83559989  0.83409317  0.50110108  1
  Ni  Ni52  1  0.67145411  0.66588532  0.66852872  1
  Ni  Ni53  1  0.83614456  0.83469222  0.83408712  1
" 