8972,Ni82Fe18_0,-231.508191174314, 176.540876568109,Ni82Fe18,"# generated using pymatgen
 data_Fe22Ni5
_symmetry_space_group_name_H-M   'P 1'
_cell_length_a   7.39803177
_cell_length_b   7.39803177
_cell_length_c   10.46239686
_cell_angle_alpha   90.00000000
_cell_angle_beta   90.00000000
_cell_angle_gamma   90.00000000
_symmetry_Int_Tables_number   1
_chemical_formula_structural   Fe22Ni5
_chemical_formula_sum   'Fe44 Ni10'
_cell_volume   572.61612442
_cell_formula_units_Z   2
loop_
 _symmetry_equiv_pos_site_id
 _symmetry_equiv_pos_as_xyz
  1  'x, y, z'
loop_
 _atom_site_type_symbol
 _atom_site_label
 _atom_site_symmetry_multiplicity
 _atom_site_fract_x
 _atom_site_fract_y
 _atom_site_fract_z
 _atom_site_occupancy
  Fe  Fe0  1  0.00466584  1.00465630  0.00466496  1
  Fe  Fe1  1  0.17132506  0.17133197  0.17133196  1
  Fe  Fe2  1  0.00466662  1.00465546  0.33799731  1
  Fe  Fe3  1  0.00467133  0.33799692  0.00466879  1
  Ni  Ni4  1  0.17132987  0.50466118  0.17133125  1
  Fe  Fe5  1  0.00467133  0.33800374  0.33799264  1
  Fe  Fe6  1  0.00466827  0.67134020  0.00468031  1
  Fe  Fe7  1  0.17132509  0.83798496  0.17133200  1
  Ni  Ni8  1  1.00465441  0.67131481  0.33799724  1
  Ni  Ni9  1  0.33800562  1.00466119  0.00466612  1
  Fe  Fe10  1  0.50466835  0.17132822  0.17132898  1
  Ni  Ni11  1  0.33800040  0.00467159  0.33799130  1
  Fe  Fe12  1  0.33800084  0.33799559  0.00466664  1
  Fe  Fe13  1  0.50466836  0.50467265  0.17132816  1
  Fe  Fe14  1  0.33798880  0.33800088  0.33799647  1
  Ni  Ni15  1  0.33799085  0.67133460  0.00466743  1
  Fe  Fe16  1  0.50466447  0.83799257  0.17132433  1
  Fe  Fe17  1  0.33798797  0.67133245  0.33798962  1
  Ni  Ni18  1  0.67132541  0.00467125  1.00466248  1
  Fe  Fe19  1  0.83800002  0.17133586  0.17132731  1
  Fe  Fe20  1  0.67133503  1.00465630  0.33798879  1
  Fe  Fe21  1  0.67132125  0.33799318  0.00466664  1
  Ni  Ni22  1  0.83800691  0.50467522  0.17133064  1
  Fe  Fe23  1  0.67133330  0.33799997  0.33799647  1
  Fe  Fe24  1  0.67132430  0.67134397  1.00466276  1
  Ni  Ni25  1  0.83799213  0.83799573  0.17133029  1
  Fe  Fe26  1  0.67133791  0.67133716  0.33800035  1
  Fe  Fe27  1  0.17133795  0.17132431  0.50466615  1
  Fe  Fe28  1  1.00466360  1.00465927  0.67133114  1
  Fe  Fe29  1  0.17133629  0.17132514  0.83799531  1
  Fe  Fe30  1  0.17132733  0.50466665  0.50465544  1
  Fe  Fe31  1  0.00466448  0.33799697  0.67133198  1
  Fe  Fe32  1  0.17133328  0.50466663  0.83800683  1
  Fe  Fe33  1  0.17133497  0.83800246  0.50466230  1
  Fe  Fe34  1  1.00466369  0.67133718  0.67132428  1
  Fe  Fe35  1  0.17134094  0.83800165  0.83799912  1
  Fe  Fe36  1  0.50465766  0.17132515  0.50466364  1
  Ni  Ni37  1  0.33799607  0.00467246  0.67133600  1
  Fe  Fe38  1  0.50466147  0.17132217  0.83800080  1
  Fe  Fe39  1  0.50466913  0.50466665  0.50466996  1
  Fe  Fe40  1  0.33800383  0.33799869  0.67133031  1
  Fe  Fe41  1  0.50466532  0.50467045  0.83799530  1
  Fe  Fe42  1  0.50466064  0.83800162  0.50466916  1
  Fe  Fe43  1  0.33800465  0.67133548  0.67133800  1
  Fe  Fe44  1  0.50466066  0.83800080  0.83799994  1
  Fe  Fe45  1  0.83799781  0.17133279  0.50466613  1
  Fe  Fe46  1  0.67132681  1.00465845  0.67133717  1
  Fe  Fe47  1  0.83799566  0.17132982  0.83799998  1
  Fe  Fe48  1  0.83799697  0.50466962  0.50466010  1
  Fe  Fe49  1  0.67132511  0.33799860  0.67133031  1
  Fe  Fe50  1  0.83799481  0.50466581  0.83799752  1
  Fe  Fe51  1  0.83799780  0.83799099  0.50465927  1
  Ni  Ni52  1  0.67134303  0.67132004  0.67133200  1
  Fe  Fe53  1  0.83799183  0.83799780  0.83800217  1
" 