5075,Ni82Fe3Cr14_18,-233.534314375938, 164.033846170444,Ni82Fe3Cr14,"# generated using pymatgen
 data_Cr9FeNi44
_symmetry_space_group_name_H-M   'P 1'
_cell_length_a   7.46596650
_cell_length_b   7.46596650
_cell_length_c   10.55847108
_cell_angle_alpha   90.00000000
_cell_angle_beta   90.00000000
_cell_angle_gamma   90.00000000
_symmetry_Int_Tables_number   1
_chemical_formula_structural   Cr9FeNi44
_chemical_formula_sum   'Cr9 Fe1 Ni44'
_cell_volume   588.53610262
_cell_formula_units_Z   1
loop_
 _symmetry_equiv_pos_site_id
 _symmetry_equiv_pos_as_xyz
  1  'x, y, z'
loop_
 _atom_site_type_symbol
 _atom_site_label
 _atom_site_symmetry_multiplicity
 _atom_site_fract_x
 _atom_site_fract_y
 _atom_site_fract_z
 _atom_site_occupancy
  Ni  Ni0  1  1.00004440  0.00104698  0.99914959  1
  Cr  Cr1  1  0.16553154  0.16546769  0.16712081  1
  Ni  Ni2  1  0.99805605  0.99793791  0.33290803  1
  Ni  Ni3  1  0.99911318  0.33206962  0.00026687  1
  Ni  Ni4  1  0.16686286  0.50162357  0.16895828  1
  Ni  Ni5  1  0.00270239  0.33475305  0.33210395  1
  Cr  Cr6  1  0.00084605  0.66746054  0.00045394  1
  Ni  Ni7  1  0.16718460  0.83178317  0.16613186  1
  Ni  Ni8  1  0.00078648  0.66750678  0.33251567  1
  Ni  Ni9  1  0.33338893  0.99811547  0.99893018  1
  Ni  Ni10  1  0.50166288  0.16646424  0.16696629  1
  Cr  Cr11  1  0.33535699  0.99977651  0.33433135  1
  Cr  Cr12  1  0.33354573  0.33452639  0.99934636  1
  Ni  Ni13  1  0.50027133  0.50251726  0.16659645  1
  Ni  Ni14  1  0.33258417  0.33619821  0.33496099  1
  Ni  Ni15  1  0.33530000  0.66773201  0.00023682  1
  Ni  Ni16  1  0.49991276  0.83130906  0.16663124  1
  Ni  Ni17  1  0.33319203  0.66471531  0.33266190  1
  Cr  Cr18  1  0.66684369  0.99930202  0.00044964  1
  Ni  Ni19  1  0.83386347  0.16684883  0.16636513  1
  Ni  Ni20  1  0.66775060  0.99739603  0.33278566  1
  Fe  Fe21  1  0.66704761  0.33388498  0.00043802  1
  Ni  Ni22  1  0.83312141  0.50012887  0.16651350  1
  Cr  Cr23  1  0.66408215  0.33282300  0.33093740  1
  Ni  Ni24  1  0.66452945  0.66671741  0.00109722  1
  Ni  Ni25  1  0.83312521  0.83328893  0.16920477  1
  Ni  Ni26  1  0.66619721  0.66941441  0.33239474  1
  Ni  Ni27  1  0.16760804  0.16734105  0.50099562  1
  Ni  Ni28  1  0.00051723  0.99900843  0.66811299  1
  Ni  Ni29  1  0.16587755  0.16546103  0.83243703  1
  Ni  Ni30  1  0.16863091  0.50018158  0.49970653  1
  Ni  Ni31  1  0.00322044  0.33267799  0.66795131  1
  Ni  Ni32  1  0.16848009  0.49999860  0.83144902  1
  Ni  Ni33  1  0.16633175  0.83272144  0.50076672  1
  Ni  Ni34  1  0.00186038  0.66859493  0.66658727  1
  Ni  Ni35  1  0.16829378  0.83479537  0.83327341  1
  Ni  Ni36  1  0.49814085  0.16652785  0.50183307  1
  Ni  Ni37  1  0.33371135  0.00044059  0.66743598  1
  Ni  Ni38  1  0.49963978  0.16626238  0.83142904  1
  Ni  Ni39  1  0.49743961  0.50143905  0.50109398  1
  Ni  Ni40  1  0.33347459  0.33346684  0.66589679  1
  Ni  Ni41  1  0.49919515  0.50157023  0.83255345  1
  Ni  Ni42  1  0.50059020  0.83227192  0.50080368  1
  Ni  Ni43  1  0.33328586  0.66627854  0.66727564  1
  Ni  Ni44  1  0.49878810  0.83239273  0.83287040  1
  Cr  Cr45  1  0.83453754  0.16453482  0.50091451  1
  Ni  Ni46  1  0.66591649  0.99917405  0.66695946  1
  Ni  Ni47  1  0.83473139  0.16602973  0.83297527  1
  Cr  Cr48  1  0.83379622  0.50268926  0.50152914  1
  Ni  Ni49  1  0.66354335  0.33218094  0.66900839  1
  Cr  Cr50  1  0.83197942  0.49954147  0.83192702  1
  Ni  Ni51  1  0.83324440  0.83341114  0.49994764  1
  Ni  Ni52  1  0.66501772  0.66894871  0.66675863  1
  Ni  Ni53  1  0.83315438  0.83516081  0.83096109  1
" 