3181,Ni82Fe18_10,-231.618919349118, 178.517652241775,Ni82Fe18,"# generated using pymatgen
 data_Fe22Ni5
_symmetry_space_group_name_H-M   'P 1'
_cell_length_a   7.39934318
_cell_length_b   7.39934318
_cell_length_c   10.46425148
_cell_angle_alpha   90.00000000
_cell_angle_beta   90.00000000
_cell_angle_gamma   90.00000000
_symmetry_Int_Tables_number   1
_chemical_formula_structural   Fe22Ni5
_chemical_formula_sum   'Fe44 Ni10'
_cell_volume   572.92069421
_cell_formula_units_Z   2
loop_
 _symmetry_equiv_pos_site_id
 _symmetry_equiv_pos_as_xyz
  1  'x, y, z'
loop_
 _atom_site_type_symbol
 _atom_site_label
 _atom_site_symmetry_multiplicity
 _atom_site_fract_x
 _atom_site_fract_y
 _atom_site_fract_z
 _atom_site_occupancy
  Ni  Ni0  1  1.00369407  0.00553378  1.00425560  1
  Fe  Fe1  1  0.17024345  0.17066366  0.17064050  1
  Fe  Fe2  1  1.00383293  1.00322889  0.33698116  1
  Ni  Ni3  1  0.00554395  0.33782802  0.00468841  1
  Fe  Fe4  1  0.17033702  0.50506174  0.17191096  1
  Fe  Fe5  1  1.00434320  0.33934308  0.33777157  1
  Fe  Fe6  1  1.00357831  0.67182082  0.00506270  1
  Fe  Fe7  1  0.17021417  0.83800016  0.17114757  1
  Ni  Ni8  1  1.00435515  0.67072006  0.33779796  1
  Fe  Fe9  1  0.33723960  0.00524236  1.00457305  1
  Fe  Fe10  1  0.50531785  0.17049969  0.17098849  1
  Fe  Fe11  1  0.33816287  1.00325612  0.33825534  1
  Fe  Fe12  1  0.33740027  0.33666204  0.00466995  1
  Fe  Fe13  1  0.50531773  0.50531886  0.17149608  1
  Fe  Fe14  1  0.33765152  0.33931910  0.33816259  1
  Fe  Fe15  1  0.33733114  0.67182070  1.00439045  1
  Fe  Fe16  1  0.50559911  0.83790628  0.17182060  1
  Fe  Fe17  1  0.33790650  0.67114996  0.33851627  1
  Ni  Ni18  1  0.67144958  1.00411584  0.00492864  1
  Fe  Fe19  1  0.83816456  0.17038303  0.17038029  1
  Fe  Fe20  1  0.67172996  1.00297587  0.33800037  1
  Fe  Fe21  1  0.67249984  0.33707210  1.00422862  1
  Fe  Fe22  1  0.83807257  0.50534483  0.17101159  1
  Fe  Fe23  1  0.67172972  0.33908874  0.33790822  1
  Fe  Fe24  1  0.67281530  0.67166160  0.00515395  1
  Ni  Ni25  1  0.83759405  0.83810959  0.17081311  1
  Ni  Ni26  1  0.67146305  0.67158222  0.33865609  1
  Fe  Fe27  1  0.17190790  0.17126547  0.50457222  1
  Fe  Fe28  1  1.00415215  0.00466472  0.67182038  1
  Fe  Fe29  1  0.17015356  0.17191108  0.83851174  1
  Ni  Ni30  1  0.17078211  0.50392543  0.50477485  1
  Fe  Fe31  1  1.00399647  0.33784217  0.67181779  1
  Fe  Fe32  1  0.17056769  0.50432072  0.83749258  1
  Fe  Fe33  1  0.17158943  0.83713463  0.50441049  1
  Fe  Fe34  1  1.00408731  0.67121599  0.67066213  1
  Fe  Fe35  1  0.17049810  0.83749446  0.83816488  1
  Fe  Fe36  1  0.50416271  0.17105394  0.50491981  1
  Fe  Fe37  1  0.33876793  1.00431732  0.67089447  1
  Fe  Fe38  1  0.50566771  0.17139497  0.83781675  1
  Fe  Fe39  1  0.50413176  0.50525582  0.50422768  1
  Fe  Fe40  1  0.33822946  0.33749525  0.67089317  1
  Fe  Fe41  1  0.50499503  0.50457665  0.83800359  1
  Ni  Ni42  1  0.50514473  0.83866839  0.50403396  1
  Fe  Fe43  1  0.33848617  0.67191207  0.67081753  1
  Fe  Fe44  1  0.50557667  0.83775207  0.83714713  1
  Fe  Fe45  1  0.83765440  0.17098509  0.50501452  1
  Ni  Ni46  1  0.67071335  1.00435462  0.67068688  1
  Fe  Fe47  1  0.83790450  0.17132902  0.83832969  1
  Fe  Fe48  1  0.83793577  0.50557242  0.50464299  1
  Fe  Fe49  1  0.67149896  0.33756090  0.67158968  1
  Ni  Ni50  1  0.83834072  0.50424758  0.83845205  1
  Fe  Fe51  1  0.83772035  0.83716876  0.50364876  1
  Fe  Fe52  1  0.67115137  0.67175609  0.67075397  1
  Fe  Fe53  1  0.83764781  0.83816681  0.83874175  1
" 