2419,Ni82Fe3Cr13_3,-233.379846763109, 162.013377019598,Ni82Fe3Cr13,"# generated using pymatgen
 data_Cr9FeNi44
_symmetry_space_group_name_H-M   'P 1'
_cell_length_a   7.46990525
_cell_length_b   7.46990525
_cell_length_c   10.56404132
_cell_angle_alpha   90.00000000
_cell_angle_beta   90.00000000
_cell_angle_gamma   90.00000000
_symmetry_Int_Tables_number   1
_chemical_formula_structural   Cr9FeNi44
_chemical_formula_sum   'Cr9 Fe1 Ni44'
_cell_volume   589.46805985
_cell_formula_units_Z   1
loop_
 _symmetry_equiv_pos_site_id
 _symmetry_equiv_pos_as_xyz
  1  'x, y, z'
loop_
 _atom_site_type_symbol
 _atom_site_label
 _atom_site_symmetry_multiplicity
 _atom_site_fract_x
 _atom_site_fract_y
 _atom_site_fract_z
 _atom_site_occupancy
  Ni  Ni0  1  0.99728207  0.99784893  0.99917697  1
  Cr  Cr1  1  0.16569688  0.16570351  0.16693382  1
  Ni  Ni2  1  0.99939975  0.99785071  0.33398027  1
  Cr  Cr3  1  0.99881866  0.33406653  0.99881731  1
  Ni  Ni4  1  0.16808052  0.50332484  0.16620947  1
  Cr  Cr5  1  0.99820853  0.33425740  0.33410952  1
  Ni  Ni6  1  -0.00000586  0.66758307  0.00047780  1
  Ni  Ni7  1  0.16533266  0.83056113  0.16746415  1
  Ni  Ni8  1  0.00040438  0.66777111  0.33284672  1
  Cr  Cr9  1  0.33349448  0.99791561  0.99801338  1
  Cr  Cr10  1  0.50197978  0.16730918  0.16730864  1
  Ni  Ni11  1  0.33266510  0.99834235  0.33433710  1
  Ni  Ni12  1  0.33481404  0.33637051  0.99856482  1
  Ni  Ni13  1  0.49981521  0.50148357  0.16637648  1
  Fe  Fe14  1  0.33485377  0.33476509  0.33480842  1
  Ni  Ni15  1  0.33310531  0.66489067  -0.00003675  1
  Ni  Ni16  1  0.50072820  0.83056626  0.16711006  1
  Ni  Ni17  1  0.33233062  0.66660826  0.33197736  1
  Ni  Ni18  1  0.66870256  0.99955677  0.99936863  1
  Ni  Ni19  1  0.83152722  0.16462966  0.16629651  1
  Ni  Ni20  1  0.66736128  0.00055512  0.33279014  1
  Ni  Ni21  1  0.66601034  0.33365797  0.99931592  1
  Ni  Ni22  1  0.83153206  0.50168841  0.16652048  1
  Ni  Ni23  1  0.66619677  0.33347072  0.33378920  1
  Ni  Ni24  1  0.66632678  0.66621124  0.99962460  1
  Ni  Ni25  1  0.83336533  0.83310735  0.16647877  1
  Ni  Ni26  1  0.66669220  0.66540004  0.33270057  1
  Ni  Ni27  1  0.16702142  0.16572936  0.50126122  1
  Ni  Ni28  1  0.00203741  0.00177392  0.66626833  1
  Ni  Ni29  1  0.16653266  0.16642117  0.83095311  1
  Ni  Ni30  1  0.16785506  0.49927479  0.49985070  1
  Ni  Ni31  1  0.00164862  0.33154896  0.66654549  1
  Ni  Ni32  1  0.16836667  0.49936036  0.83336522  1
  Ni  Ni33  1  0.16540621  0.83442249  0.49876505  1
  Cr  Cr34  1  0.99973691  0.66595524  0.66595357  1
  Ni  Ni35  1  0.16652862  0.83364481  0.83319714  1
  Ni  Ni36  1  0.49813028  0.16826828  0.49803448  1
  Ni  Ni37  1  0.33058137  0.00068600  0.66713252  1
  Ni  Ni38  1  0.49880697  0.16725788  0.83401292  1
  Ni  Ni39  1  0.49929891  0.49873487  0.49907385  1
  Ni  Ni40  1  0.33125360  0.33291817  0.66604481  1
  Ni  Ni41  1  0.49897426  0.50052391  0.83397509  1
  Cr  Cr42  1  0.49959168  0.83219432  0.49959539  1
  Ni  Ni43  1  0.33365518  0.66582232  0.66748711  1
  Ni  Ni44  1  0.49997528  0.83164417  0.83310535  1
  Ni  Ni45  1  0.83427349  0.16581803  0.49881941  1
  Cr  Cr46  1  0.66659591  0.99914826  0.66731892  1
  Ni  Ni47  1  0.83408646  0.16541891  0.83431054  1
  Ni  Ni48  1  0.83227282  0.50035287  0.49915549  1
  Cr  Cr49  1  0.66706633  0.33456314  0.66628572  1
  Ni  Ni50  1  0.83208552  0.50052805  0.83375030  1
  Ni  Ni51  1  0.83481188  0.83325513  0.49813757  1
  Ni  Ni52  1  0.66543711  0.66543113  0.66710207  1
  Ni  Ni53  1  0.83292174  0.83347852  0.83480934  1
" 