5879,Ni82Fe18_3,-231.826321690023, 178.854493513832,Ni82Fe18,"# generated using pymatgen
 data_Fe22Ni5
_symmetry_space_group_name_H-M   'P 1'
_cell_length_a   7.40457506
_cell_length_b   7.40457506
_cell_length_c   10.47165047
_cell_angle_alpha   90.00000000
_cell_angle_beta   90.00000000
_cell_angle_gamma   90.00000000
_symmetry_Int_Tables_number   1
_chemical_formula_structural   Fe22Ni5
_chemical_formula_sum   'Fe44 Ni10'
_cell_volume   574.13684280
_cell_formula_units_Z   2
loop_
 _symmetry_equiv_pos_site_id
 _symmetry_equiv_pos_as_xyz
  1  'x, y, z'
loop_
 _atom_site_type_symbol
 _atom_site_label
 _atom_site_symmetry_multiplicity
 _atom_site_fract_x
 _atom_site_fract_y
 _atom_site_fract_z
 _atom_site_occupancy
  Fe  Fe0  1  1.00408234  1.00361749  0.00421897  1
  Fe  Fe1  1  0.17120342  0.17025198  0.17088493  1
  Fe  Fe2  1  0.00488668  1.00338464  0.33762756  1
  Fe  Fe3  1  0.00428555  0.33807581  1.00369761  1
  Fe  Fe4  1  0.17128611  0.50469880  0.17148440  1
  Fe  Fe5  1  0.00541243  0.33802411  0.33854126  1
  Fe  Fe6  1  1.00414027  0.67096232  0.00421894  1
  Fe  Fe7  1  0.17190940  0.83770799  0.17080609  1
  Fe  Fe8  1  0.00497210  0.67124537  0.33833968  1
  Ni  Ni9  1  0.33683500  1.00310462  1.00409131  1
  Fe  Fe10  1  0.50405713  0.17064499  0.17072201  1
  Ni  Ni11  1  0.33717949  1.00300828  0.33842169  1
  Fe  Fe12  1  0.33863309  0.33807451  1.00413952  1
  Fe  Fe13  1  0.50437192  0.50469424  0.17024999  1
  Fe  Fe14  1  0.33731931  0.33770877  0.33786878  1
  Ni  Ni15  1  0.33809117  0.67250590  1.00409130  1
  Fe  Fe16  1  0.50334941  0.83731695  0.17064711  1
  Ni  Ni17  1  0.33754599  0.67218215  0.33815002  1
  Fe  Fe18  1  0.66996593  1.00369482  1.00413927  1
  Fe  Fe19  1  0.83739706  0.17128230  0.17057047  1
  Fe  Fe20  1  0.67012856  1.00346707  0.33794848  1
  Ni  Ni21  1  0.67253067  0.33829507  1.00356730  1
  Fe  Fe22  1  0.83700596  0.50397973  0.17078025  1
  Fe  Fe23  1  0.66992720  0.33763443  0.33711024  1
  Ni  Ni24  1  0.67052951  0.66963664  0.00431162  1
  Fe  Fe25  1  0.83739089  0.83739018  0.17116836  1
  Fe  Fe26  1  0.67045109  0.67155816  0.33758122  1
  Fe  Fe27  1  0.16976734  0.17134950  0.50430027  1
  Fe  Fe28  1  1.00382382  0.00444706  0.67080817  1
  Fe  Fe29  1  0.17080279  0.17072951  0.83747282  1
  Ni  Ni30  1  0.17071765  0.50371565  0.50412956  1
  Ni  Ni31  1  1.00319407  0.33747548  0.67040685  1
  Fe  Fe32  1  0.17088624  0.50422181  0.83687181  1
  Fe  Fe33  1  0.17043778  0.83655797  0.50367919  1
  Fe  Fe34  1  1.00390690  0.67017681  0.67009495  1
  Fe  Fe35  1  0.17150983  0.83770683  0.83817730  1
  Fe  Fe36  1  0.50458163  0.17109241  0.50398390  1
  Fe  Fe37  1  0.33711312  0.00497357  0.67104028  1
  Fe  Fe38  1  0.50421811  0.17080567  0.83794982  1
  Fe  Fe39  1  0.50458869  0.50505224  0.50398412  1
  Fe  Fe40  1  0.33676231  0.33770944  0.67064652  1
  Fe  Fe41  1  0.50453130  0.50453639  0.83842030  1
  Fe  Fe42  1  0.50421882  0.83651196  0.50376262  1
  Fe  Fe43  1  0.33671845  0.66997061  0.67072883  1
  Fe  Fe44  1  0.50382778  0.83731330  0.83825412  1
  Fe  Fe45  1  0.83830143  0.17172477  0.50452534  1
  Fe  Fe46  1  0.67171504  0.00450097  0.67056716  1
  Fe  Fe47  1  0.83763435  0.17143275  0.83755319  1
  Ni  Ni48  1  0.83841236  0.50496904  0.50422435  1
  Fe  Fe49  1  0.67150472  0.33763474  0.67124591  1
  Fe  Fe50  1  0.83724304  0.50382947  0.83734434  1
  Ni  Ni51  1  0.83714995  0.83730027  0.50412484  1
  Fe  Fe52  1  0.67203196  0.67052468  0.67093426  1
  Fe  Fe53  1  0.83731242  0.83738931  0.83719039  1
" 