4518,Ni82Fe3Cr14_17,-233.517830990774, 162.897375711045,Ni82Fe3Cr14,"# generated using pymatgen
 data_Cr9FeNi44
_symmetry_space_group_name_H-M   'P 1'
_cell_length_a   7.46890075
_cell_length_b   7.46890075
_cell_length_c   10.56262074
_cell_angle_alpha   90.00000000
_cell_angle_beta   90.00000000
_cell_angle_gamma   90.00000000
_symmetry_Int_Tables_number   1
_chemical_formula_structural   Cr9FeNi44
_chemical_formula_sum   'Cr9 Fe1 Ni44'
_cell_volume   589.23028937
_cell_formula_units_Z   1
loop_
 _symmetry_equiv_pos_site_id
 _symmetry_equiv_pos_as_xyz
  1  'x, y, z'
loop_
 _atom_site_type_symbol
 _atom_site_label
 _atom_site_symmetry_multiplicity
 _atom_site_fract_x
 _atom_site_fract_y
 _atom_site_fract_z
 _atom_site_occupancy
  Cr  Cr0  1  0.00115614  0.00195293  0.99974518  1
  Ni  Ni1  1  0.16941238  0.16763043  0.16649845  1
  Ni  Ni2  1  0.00324025  0.00183342  0.33337511  1
  Ni  Ni3  1  0.00114910  0.33329642  0.99980574  1
  Ni  Ni4  1  0.16889849  0.49869520  0.16510114  1
  Cr  Cr5  1  0.99968438  0.33218031  0.33329385  1
  Cr  Cr6  1  0.00163762  0.66405998  0.99760423  1
  Ni  Ni7  1  0.17143254  0.83367804  0.16793358  1
  Cr  Cr8  1  0.00307813  0.66633940  0.33444724  1
  Ni  Ni9  1  0.33529934  0.99963022  -0.00012291  1
  Ni  Ni10  1  0.49747386  0.16598138  0.16622267  1
  Ni  Ni11  1  0.33187713  0.99958950  0.33330434  1
  Ni  Ni12  1  0.33151921  0.33296213  0.99927463  1
  Fe  Fe13  1  0.49833995  0.49962229  0.16677665  1
  Ni  Ni14  1  0.33494579  0.33315697  0.33340944  1
  Ni  Ni15  1  0.33484550  0.66684797  -0.00011727  1
  Ni  Ni16  1  0.49697088  0.83275853  0.16526209  1
  Ni  Ni17  1  0.33548150  0.66662226  0.33307438  1
  Ni  Ni18  1  0.66346633  0.99914009  0.99848073  1
  Ni  Ni19  1  0.83253855  0.16880579  0.16680252  1
  Cr  Cr20  1  0.66278106  0.00231532  0.33348378  1
  Cr  Cr21  1  0.66596931  0.33208244  0.99915754  1
  Ni  Ni22  1  0.83206239  0.49835919  0.16650683  1
  Ni  Ni23  1  0.66445893  0.33479673  0.33376347  1
  Ni  Ni24  1  0.66374984  0.66702075  0.99902444  1
  Cr  Cr25  1  0.83057339  0.83265907  0.16673769  1
  Ni  Ni26  1  0.66272198  0.66330264  0.33276241  1
  Ni  Ni27  1  0.16923814  0.16543609  0.49953684  1
  Ni  Ni28  1  0.00124228  0.99940621  0.66684743  1
  Ni  Ni29  1  0.16889378  0.16687378  0.83386031  1
  Ni  Ni30  1  0.17004229  0.50041790  0.50135174  1
  Cr  Cr31  1  0.00083793  0.33368979  0.66728850  1
  Ni  Ni32  1  0.16898926  0.49949205  0.83331113  1
  Ni  Ni33  1  0.16974994  0.83417342  0.50045403  1
  Ni  Ni34  1  0.00120375  0.66742339  0.66757327  1
  Ni  Ni35  1  0.16873257  0.83330260  0.83117557  1
  Ni  Ni36  1  0.49833273  0.16794344  0.50125523  1
  Ni  Ni37  1  0.33374295  0.99964036  0.66642525  1
  Ni  Ni38  1  0.49837206  0.16588774  0.83202266  1
  Ni  Ni39  1  0.49936047  0.49951136  0.49911215  1
  Ni  Ni40  1  0.33550210  0.33331636  0.66678096  1
  Ni  Ni41  1  0.49849626  0.50052450  0.83292140  1
  Ni  Ni42  1  0.49740178  0.83206249  0.50070797  1
  Ni  Ni43  1  0.33350540  0.66670646  0.66649446  1
  Ni  Ni44  1  0.49983990  0.83310643  0.83364357  1
  Ni  Ni45  1  0.83219355  0.16750790  0.50049410  1
  Ni  Ni46  1  0.66498378  0.00087754  0.66817044  1
  Ni  Ni47  1  0.83231931  0.16560979  0.83245782  1
  Ni  Ni48  1  0.83019358  0.49938243  0.50085276  1
  Ni  Ni49  1  0.66477176  0.33311730  0.66581518  1
  Ni  Ni50  1  0.83200038  0.50080363  0.83210728  1
  Cr  Cr51  1  0.83274362  0.83313376  0.50197176  1
  Ni  Ni52  1  0.66472492  0.66550858  0.66767005  1
  Ni  Ni53  1  0.83112245  0.83312624  0.83139108  1
" 