4707,Ni82Fe3Cr13_17,-233.391919665454, 160.616093589467,Ni82Fe3Cr13,"# generated using pymatgen
 data_Cr9FeNi44
_symmetry_space_group_name_H-M   'P 1'
_cell_length_a   7.47104389
_cell_length_b   7.47104389
_cell_length_c   10.56565159
_cell_angle_alpha   90.00000000
_cell_angle_beta   90.00000000
_cell_angle_gamma   90.00000000
_symmetry_Int_Tables_number   1
_chemical_formula_structural   Cr9FeNi44
_chemical_formula_sum   'Cr9 Fe1 Ni44'
_cell_volume   589.73765790
_cell_formula_units_Z   1
loop_
 _symmetry_equiv_pos_site_id
 _symmetry_equiv_pos_as_xyz
  1  'x, y, z'
loop_
 _atom_site_type_symbol
 _atom_site_label
 _atom_site_symmetry_multiplicity
 _atom_site_fract_x
 _atom_site_fract_y
 _atom_site_fract_z
 _atom_site_occupancy
  Cr  Cr0  1  0.00138083  0.99841530  0.99820407  1
  Ni  Ni1  1  0.16751830  0.16642043  0.16634084  1
  Ni  Ni2  1  0.00208966  -0.00023765  0.33314081  1
  Ni  Ni3  1  0.00065746  0.33546324  0.99851520  1
  Ni  Ni4  1  0.16369651  0.50066347  0.16535702  1
  Ni  Ni5  1  0.99915317  0.33396383  0.33436654  1
  Ni  Ni6  1  0.99932376  0.66497921  -0.00015888  1
  Ni  Ni7  1  0.16547446  0.83226367  0.16781199  1
  Ni  Ni8  1  0.00204858  0.66549351  0.33192669  1
  Ni  Ni9  1  0.33367816  0.00089102  0.99919193  1
  Ni  Ni10  1  0.49919153  0.16522593  0.16540428  1
  Ni  Ni11  1  0.33194611  0.99951744  0.33377626  1
  Ni  Ni12  1  0.33097543  0.33037767  0.99944098  1
  Cr  Cr13  1  0.49897936  0.49772390  0.16341511  1
  Cr  Cr14  1  0.33153178  0.33127286  0.33343597  1
  Ni  Ni15  1  0.32997297  0.66795369  0.99873316  1
  Cr  Cr16  1  0.49874064  0.83551312  0.16572686  1
  Ni  Ni17  1  0.32824738  0.66941844  0.33464297  1
  Ni  Ni18  1  0.66477736  0.99960113  0.99721088  1
  Cr  Cr19  1  0.83286382  0.16617916  0.16786008  1
  Ni  Ni20  1  0.66518541  0.00210544  0.33465545  1
  Ni  Ni21  1  0.66758270  0.33207616  0.99932816  1
  Ni  Ni22  1  0.83632578  0.49980479  0.16556634  1
  Ni  Ni23  1  0.66898294  0.33024141  0.33400142  1
  Ni  Ni24  1  0.66970511  0.66737054  0.99861752  1
  Ni  Ni25  1  0.83513146  0.83202150  0.16612059  1
  Cr  Cr26  1  0.66834674  0.66534049  0.33306954  1
  Ni  Ni27  1  0.16482658  0.16520299  0.50047784  1
  Ni  Ni28  1  0.00184704  0.00062528  0.66728417  1
  Ni  Ni29  1  0.16689938  0.16731815  0.83230078  1
  Ni  Ni30  1  0.16340322  0.50074406  0.50105290  1
  Ni  Ni31  1  0.99936110  0.33253742  0.66630706  1
  Ni  Ni32  1  0.16465754  0.49974530  0.83286816  1
  Ni  Ni33  1  0.16770449  0.83341500  0.49924341  1
  Ni  Ni34  1  -0.00003481  0.66602502  0.66742509  1
  Ni  Ni35  1  0.16716139  0.83222079  0.83211490  1
  Ni  Ni36  1  0.50063805  0.16380400  0.50019609  1
  Ni  Ni37  1  0.33235408  0.00002942  0.66630606  1
  Ni  Ni38  1  0.49958200  0.16497834  0.83370277  1
  Cr  Cr39  1  0.49874521  0.50039875  0.50198175  1
  Ni  Ni40  1  0.33159663  0.33017650  0.66663411  1
  Cr  Cr41  1  0.49811502  0.49969269  0.83373540  1
  Ni  Ni42  1  0.49694964  0.83606002  0.50094107  1
  Ni  Ni43  1  0.33139657  0.66908161  0.66587975  1
  Ni  Ni44  1  0.49922326  0.83451089  0.83271618  1
  Ni  Ni45  1  0.83393835  0.16797889  0.49963771  1
  Fe  Fe46  1  0.66578609  0.00066734  0.66743969  1
  Ni  Ni47  1  0.83272240  0.16735064  0.83160006  1
  Ni  Ni48  1  0.83618117  0.49713313  0.50034520  1
  Ni  Ni49  1  0.66814341  0.33190902  0.66585006  1
  Ni  Ni50  1  0.83468308  0.49940969  0.83323393  1
  Cr  Cr51  1  0.83577497  0.83534810  0.50027744  1
  Ni  Ni52  1  0.66764958  0.66666196  0.66760814  1
  Ni  Ni53  1  0.83274480  0.83247293  0.83269615  1
" 