2950,Ni82Fe18_19,-231.659689011045, 178.102608005055,Ni82Fe18,"# generated using pymatgen
 data_Fe22Ni5
_symmetry_space_group_name_H-M   'P 1'
_cell_length_a   7.40110953
_cell_length_b   7.40110953
_cell_length_c   10.46674948
_cell_angle_alpha   90.00000000
_cell_angle_beta   90.00000000
_cell_angle_gamma   90.00000000
_symmetry_Int_Tables_number   1
_chemical_formula_structural   Fe22Ni5
_chemical_formula_sum   'Fe44 Ni10'
_cell_volume   573.33108997
_cell_formula_units_Z   2
loop_
 _symmetry_equiv_pos_site_id
 _symmetry_equiv_pos_as_xyz
  1  'x, y, z'
loop_
 _atom_site_type_symbol
 _atom_site_label
 _atom_site_symmetry_multiplicity
 _atom_site_fract_x
 _atom_site_fract_y
 _atom_site_fract_z
 _atom_site_occupancy
  Fe  Fe0  1  0.00509055  1.00430852  0.00550122  1
  Ni  Ni1  1  0.17081299  0.17071491  0.17028917  1
  Ni  Ni2  1  1.00405758  0.00507350  0.33808477  1
  Fe  Fe3  1  0.00500607  0.33792518  0.00486589  1
  Fe  Fe4  1  0.17128397  0.50318213  0.17070077  1
  Fe  Fe5  1  0.00479690  0.33653453  0.33744985  1
  Fe  Fe6  1  0.00494824  0.67112554  1.00428609  1
  Fe  Fe7  1  0.17120743  0.83930550  0.17095028  1
  Fe  Fe8  1  1.00403197  0.67195886  0.33812039  1
  Fe  Fe9  1  0.33770189  1.00436552  0.00494885  1
  Ni  Ni10  1  0.50395030  0.17152821  0.17092237  1
  Fe  Fe11  1  0.33685986  0.00529579  0.33745008  1
  Fe  Fe12  1  0.33803759  0.33812061  0.00461420  1
  Fe  Fe13  1  0.50420414  0.50310217  0.17087818  1
  Fe  Fe14  1  0.33722978  0.33673001  0.33796555  1
  Ni  Ni15  1  0.33789121  0.67041638  0.00455351  1
  Fe  Fe16  1  0.50411976  0.83923222  0.17069885  1
  Fe  Fe17  1  0.33757185  0.67133919  0.33747638  1
  Fe  Fe18  1  0.67057152  1.00431432  1.00431355  1
  Ni  Ni19  1  0.83859936  0.17031241  0.17143642  1
  Fe  Fe20  1  0.67195268  0.00453300  0.33800827  1
  Fe  Fe21  1  0.67032126  0.33826035  0.00470993  1
  Fe  Fe22  1  0.83787540  0.50267239  0.17103558  1
  Fe  Fe23  1  0.67133738  0.33724261  0.33736491  1
  Fe  Fe24  1  0.67037693  0.67079003  1.00412685  1
  Fe  Fe25  1  0.83803435  0.83972677  0.17201457  1
  Fe  Fe26  1  0.67176143  0.67159028  0.33845979  1
  Ni  Ni27  1  0.17071165  0.17061104  0.50448149  1
  Fe  Fe28  1  1.00395721  0.00445465  0.67006806  1
  Fe  Fe29  1  0.17158848  0.17175979  0.83761470  1
  Fe  Fe30  1  0.17106863  0.50459457  0.50454402  1
  Fe  Fe31  1  1.00423570  0.33689589  0.67104562  1
  Fe  Fe32  1  0.17178566  0.50487497  0.83812016  1
  Fe  Fe33  1  0.17093051  0.83780791  0.50420304  1
  Fe  Fe34  1  1.00348021  0.67201073  0.67095851  1
  Fe  Fe35  1  0.17201170  0.83672836  0.83821183  1
  Fe  Fe36  1  0.50475771  0.17082124  0.50431684  1
  Fe  Fe37  1  0.33795087  0.00487808  0.67095915  1
  Fe  Fe38  1  0.50487823  0.17128564  0.83800769  1
  Ni  Ni39  1  0.50455995  0.50495106  0.50452477  1
  Fe  Fe40  1  0.33859911  0.33740009  0.67078236  1
  Ni  Ni41  1  0.50445023  0.50505920  0.83843066  1
  Fe  Fe42  1  0.50464768  0.83800935  0.50478818  1
  Fe  Fe43  1  0.33893154  0.67108729  0.67184999  1
  Fe  Fe44  1  0.50436839  0.83729436  0.83787465  1
  Fe  Fe45  1  0.83772955  0.17068003  0.50406913  1
  Ni  Ni46  1  0.67142778  0.00474538  0.67050737  1
  Fe  Fe47  1  0.83689726  0.17151000  0.83809903  1
  Fe  Fe48  1  0.83792992  0.50448061  0.50445370  1
  Fe  Fe49  1  0.67052957  0.33788150  0.67129458  1
  Fe  Fe50  1  0.83746170  0.50436560  0.83787490  1
  Ni  Ni51  1  0.83808885  0.83780297  0.50465221  1
  Fe  Fe52  1  0.67095448  0.67136889  0.67078154  1
  Fe  Fe53  1  0.83698386  0.83748864  0.83680835  1
" 