8776,Ni82Fe13Cr3_17,-240.106249698348, 194.534299387105,Ni82Fe13Cr3,"# generated using pymatgen
 data_Cr3Fe7Ni44
_symmetry_space_group_name_H-M   'P 1'
_cell_length_a   7.44026440
_cell_length_b   7.44026440
_cell_length_c   10.52212282
_cell_angle_alpha   90.00000000
_cell_angle_beta   90.00000000
_cell_angle_gamma   90.00000000
_symmetry_Int_Tables_number   1
_chemical_formula_structural   Cr3Fe7Ni44
_chemical_formula_sum   'Cr3 Fe7 Ni44'
_cell_volume   582.47877552
_cell_formula_units_Z   1
loop_
 _symmetry_equiv_pos_site_id
 _symmetry_equiv_pos_as_xyz
  1  'x, y, z'
loop_
 _atom_site_type_symbol
 _atom_site_label
 _atom_site_symmetry_multiplicity
 _atom_site_fract_x
 _atom_site_fract_y
 _atom_site_fract_z
 _atom_site_occupancy
  Ni  Ni0  1  0.00231942  0.00273082  0.00203450  1
  Ni  Ni1  1  0.17002797  0.17025229  0.16738429  1
  Cr  Cr2  1  0.00203837  0.00242525  0.33417800  1
  Ni  Ni3  1  0.99965690  0.33410190  0.00290569  1
  Ni  Ni4  1  0.16840184  0.50127874  0.16905905  1
  Ni  Ni5  1  1.00071579  0.33621550  0.33513090  1
  Ni  Ni6  1  1.00140711  0.66874661  0.00346705  1
  Ni  Ni7  1  0.17021322  0.83389027  0.16773462  1
  Ni  Ni8  1  0.00226331  0.66604452  0.33484507  1
  Ni  Ni9  1  0.33520484  1.00121902  0.00184674  1
  Ni  Ni10  1  0.50134947  0.16752385  0.16933437  1
  Ni  Ni11  1  0.33636088  1.00119532  0.33543928  1
  Fe  Fe12  1  0.33653830  0.33418123  0.00240080  1
  Ni  Ni13  1  0.50120485  0.50223889  0.16811690  1
  Fe  Fe14  1  0.33526599  0.33570402  0.33498436  1
  Ni  Ni15  1  0.33657062  0.67002910  0.00269938  1
  Ni  Ni16  1  0.50228277  0.83557834  0.16859026  1
  Ni  Ni17  1  0.33554424  0.66892232  0.33503806  1
  Ni  Ni18  1  0.66775808  0.00288019  0.00239631  1
  Ni  Ni19  1  0.83399033  0.16925408  0.16757950  1
  Ni  Ni20  1  0.66646276  0.00272660  0.33483811  1
  Ni  Ni21  1  0.66901033  0.33524315  1.00158405  1
  Ni  Ni22  1  0.83573552  0.50212210  0.16872433  1
  Ni  Ni23  1  0.66952498  0.33568744  0.33485449  1
  Ni  Ni24  1  0.66759009  0.66710366  0.00217978  1
  Ni  Ni25  1  0.83290775  0.83395548  0.16791134  1
  Ni  Ni26  1  0.66756711  0.66702393  0.33438166  1
  Ni  Ni27  1  0.17096183  0.17244450  0.50235397  1
  Cr  Cr28  1  0.00189493  0.00203391  0.66903781  1
  Ni  Ni29  1  0.17019343  0.16977540  0.83569065  1
  Ni  Ni30  1  0.16847196  0.50050005  0.50159918  1
  Ni  Ni31  1  1.00081102  0.33545773  0.66759152  1
  Cr  Cr32  1  0.16736919  0.50070516  0.83534459  1
  Fe  Fe33  1  0.16864755  0.83341735  0.50095498  1
  Ni  Ni34  1  1.00152271  0.66762514  0.66714568  1
  Fe  Fe35  1  0.16837858  0.83609387  0.83676496  1
  Fe  Fe36  1  0.50316090  0.16847658  0.50196875  1
  Ni  Ni37  1  0.33617642  1.00144829  0.66814128  1
  Ni  Ni38  1  0.50128232  0.16599686  0.83394173  1
  Fe  Fe39  1  0.50306638  0.50223784  0.50132052  1
  Ni  Ni40  1  0.33672538  0.33482636  0.66768283  1
  Fe  Fe41  1  0.50398457  0.50117194  0.83548902  1
  Ni  Ni42  1  0.50249085  0.83567483  0.50172190  1
  Ni  Ni43  1  0.33636097  0.66915951  0.66774993  1
  Ni  Ni44  1  0.50271414  0.83594321  0.83516209  1
  Ni  Ni45  1  0.83404087  0.17012639  0.50242571  1
  Ni  Ni46  1  0.66673223  0.00235302  0.66816554  1
  Ni  Ni47  1  0.83411475  0.16914581  0.83541629  1
  Ni  Ni48  1  0.83672435  0.50219962  0.50234103  1
  Ni  Ni49  1  0.66871474  0.33564773  0.66887781  1
  Ni  Ni50  1  0.83563411  0.50254120  0.83437431  1
  Ni  Ni51  1  0.82989947  0.83287565  0.50177555  1
  Ni  Ni52  1  0.66764744  0.66729685  0.66876771  1
  Ni  Ni53  1  0.83155979  0.83374425  0.83574947  1
" 