369,Ni82Fe18_8,-231.642369293618, 174.106636295391,Ni82Fe18,"# generated using pymatgen
 data_Fe22Ni5
_symmetry_space_group_name_H-M   'P 1'
_cell_length_a   7.40088300
_cell_length_b   7.40088300
_cell_length_c   10.46642911
_cell_angle_alpha   90.00000000
_cell_angle_beta   90.00000000
_cell_angle_gamma   90.00000000
_symmetry_Int_Tables_number   1
_chemical_formula_structural   Fe22Ni5
_chemical_formula_sum   'Fe44 Ni10'
_cell_volume   573.27844535
_cell_formula_units_Z   2
loop_
 _symmetry_equiv_pos_site_id
 _symmetry_equiv_pos_as_xyz
  1  'x, y, z'
loop_
 _atom_site_type_symbol
 _atom_site_label
 _atom_site_symmetry_multiplicity
 _atom_site_fract_x
 _atom_site_fract_y
 _atom_site_fract_z
 _atom_site_occupancy
  Fe  Fe0  1  1.00400250  0.00529991  0.00455285  1
  Fe  Fe1  1  0.17076161  0.17196601  0.17111843  1
  Fe  Fe2  1  1.00409972  0.00577960  0.33743341  1
  Ni  Ni3  1  1.00413762  0.33880834  0.00460569  1
  Ni  Ni4  1  0.17138847  0.50504616  0.17113602  1
  Fe  Fe5  1  1.00419686  0.33694683  0.33681535  1
  Fe  Fe6  1  0.00484044  0.67031385  0.00464894  1
  Fe  Fe7  1  0.17079644  0.83805040  0.17131609  1
  Fe  Fe8  1  0.00456875  0.67068652  0.33799753  1
  Fe  Fe9  1  0.33719092  0.00489408  1.00408430  1
  Fe  Fe10  1  0.50440403  0.17165293  0.17294798  1
  Ni  Ni11  1  0.33846374  0.00468755  0.33742411  1
  Fe  Fe12  1  0.33688223  0.33836479  0.00516752  1
  Fe  Fe13  1  0.50444126  0.50349948  0.17139525  1
  Ni  Ni14  1  0.33801225  0.33736331  0.33780634  1
  Fe  Fe15  1  0.33691615  0.67015347  0.00464976  1
  Fe  Fe16  1  0.50447169  0.83825691  0.17139342  1
  Fe  Fe17  1  0.33866181  0.67086345  0.33723752  1
  Fe  Fe18  1  0.67221433  0.00526362  0.00526480  1
  Ni  Ni19  1  0.83697501  0.17077964  0.17171712  1
  Ni  Ni20  1  0.67047520  0.00469295  0.33838387  1
  Fe  Fe21  1  0.67205625  0.33752674  0.00507072  1
  Fe  Fe22  1  0.83845230  0.50346703  0.17155956  1
  Ni  Ni23  1  0.67138431  0.33781174  0.33735997  1
  Fe  Fe24  1  0.67165483  0.67061816  1.00408397  1
  Fe  Fe25  1  0.83814141  0.83801009  0.17122203  1
  Fe  Fe26  1  0.67018285  0.67095916  0.33817421  1
  Fe  Fe27  1  0.17199627  0.17137585  0.50458309  1
  Fe  Fe28  1  0.00511533  1.00428027  0.67142580  1
  Fe  Fe29  1  0.17113702  0.17104290  0.83770809  1
  Fe  Fe30  1  0.17128462  0.50367660  0.50367497  1
  Fe  Fe31  1  0.00480825  0.33756006  0.67176585  1
  Fe  Fe32  1  0.17086206  0.50419291  0.83888661  1
  Fe  Fe33  1  0.17159305  0.83835622  0.50475774  1
  Fe  Fe34  1  0.00481196  0.67157147  0.67076192  1
  Fe  Fe35  1  0.17150767  0.83817552  0.83733567  1
  Ni  Ni36  1  0.50420880  0.17008577  0.50432928  1
  Ni  Ni37  1  0.33803798  1.00403073  0.67139222  1
  Fe  Fe38  1  0.50409905  0.17076666  0.83671969  1
  Fe  Fe39  1  0.50521566  0.50336455  0.50411259  1
  Fe  Fe40  1  0.33807889  0.33697594  0.67043826  1
  Fe  Fe41  1  0.50456706  0.50465908  0.83790023  1
  Fe  Fe42  1  0.50480479  0.83856402  0.50438921  1
  Fe  Fe43  1  0.33770643  0.67177975  0.67152262  1
  Fe  Fe44  1  0.50419607  0.83798386  0.83762863  1
  Fe  Fe45  1  0.83670240  0.17178658  0.50340078  1
  Fe  Fe46  1  0.67031250  0.00465162  0.67053615  1
  Fe  Fe47  1  0.83817339  0.17141369  0.83898447  1
  Ni  Ni48  1  0.83827367  0.50471528  0.50388996  1
  Fe  Fe49  1  0.67052365  0.33728312  0.67006477  1
  Fe  Fe50  1  0.83798152  0.50428920  0.83726673  1
  Fe  Fe51  1  0.83701158  0.83785583  0.50438691  1
  Fe  Fe52  1  0.67089361  0.67147449  0.67115022  1
  Fe  Fe53  1  0.83770635  0.83770795  0.83780343  1
" 