6887,Ni82Fe13Cr3_10,-239.829160543276, 192.558851388255,Ni82Fe13Cr3,"# generated using pymatgen
 data_Cr3Fe7Ni44
_symmetry_space_group_name_H-M   'P 1'
_cell_length_a   7.43802756
_cell_length_b   7.43802756
_cell_length_c   10.51895945
_cell_angle_alpha   90.00000000
_cell_angle_beta   90.00000000
_cell_angle_gamma   90.00000000
_symmetry_Int_Tables_number   1
_chemical_formula_structural   Cr3Fe7Ni44
_chemical_formula_sum   'Cr3 Fe7 Ni44'
_cell_volume   581.95358448
_cell_formula_units_Z   1
loop_
 _symmetry_equiv_pos_site_id
 _symmetry_equiv_pos_as_xyz
  1  'x, y, z'
loop_
 _atom_site_type_symbol
 _atom_site_label
 _atom_site_symmetry_multiplicity
 _atom_site_fract_x
 _atom_site_fract_y
 _atom_site_fract_z
 _atom_site_occupancy
  Ni  Ni0  1  1.00056528  0.00380863  1.00116560  1
  Ni  Ni1  1  0.16886293  0.17005340  0.16836846  1
  Ni  Ni2  1  1.00062282  0.00281295  0.33571919  1
  Ni  Ni3  1  0.00206791  0.33514899  0.00215051  1
  Ni  Ni4  1  0.16781883  0.49928231  0.16941261  1
  Fe  Fe5  1  0.00274437  0.33552447  0.33442413  1
  Ni  Ni6  1  0.99919938  0.66689401  1.00131757  1
  Cr  Cr7  1  0.16779313  0.83643971  0.16944089  1
  Ni  Ni8  1  1.00097041  0.66766873  0.33536810  1
  Ni  Ni9  1  0.33644331  0.00481249  1.00121065  1
  Ni  Ni10  1  0.50169888  0.16843533  0.16795587  1
  Ni  Ni11  1  0.33632993  0.00369781  0.33607964  1
  Fe  Fe12  1  0.33443772  0.33377301  0.00231266  1
  Ni  Ni13  1  0.50299975  0.50115884  0.16971766  1
  Ni  Ni14  1  0.33508833  0.33551768  0.33437667  1
  Cr  Cr15  1  0.33583483  0.66756529  1.00166344  1
  Ni  Ni16  1  0.50461695  0.83625795  0.16971688  1
  Ni  Ni17  1  0.33612889  0.66663640  0.33629594  1
  Ni  Ni18  1  0.66884445  1.00194368  0.00236660  1
  Ni  Ni19  1  0.83529074  0.16843529  0.16902702  1
  Ni  Ni20  1  0.66889934  1.00177239  0.33482000  1
  Fe  Fe21  1  0.66972494  0.33517492  1.00167387  1
  Ni  Ni22  1  0.83503383  0.50220253  0.16806498  1
  Fe  Fe23  1  0.66789306  0.33545347  0.33556426  1
  Ni  Ni24  1  0.67035761  0.66890956  0.00195188  1
  Ni  Ni25  1  0.83341570  0.83521511  0.16806862  1
  Ni  Ni26  1  0.66875331  0.66891046  0.33503642  1
  Ni  Ni27  1  0.16936516  0.16791272  0.50195125  1
  Ni  Ni28  1  0.00355617  1.00177095  0.66896851  1
  Ni  Ni29  1  0.16829743  0.16791173  0.83553298  1
  Ni  Ni30  1  0.16859663  0.50177504  0.50196424  1
  Fe  Fe31  1  0.00242132  0.33575109  0.66940663  1
  Ni  Ni32  1  0.16802356  0.50097694  0.83447643  1
  Ni  Ni33  1  0.16849261  0.83616436  0.50253094  1
  Ni  Ni34  1  0.00214281  0.66850131  0.66916646  1
  Ni  Ni35  1  0.16802300  0.83696278  0.83390707  1
  Ni  Ni36  1  0.50040875  0.16920528  0.50161935  1
  Ni  Ni37  1  0.33330667  0.00260484  0.66856029  1
  Fe  Fe38  1  0.50105711  0.16906985  0.83564169  1
  Ni  Ni39  1  0.50247720  0.50178257  0.50219937  1
  Ni  Ni40  1  0.33564449  0.33577934  0.66927846  1
  Ni  Ni41  1  0.50316374  0.50180677  0.83393630  1
  Ni  Ni42  1  0.50128842  0.83486497  0.50091011  1
  Ni  Ni43  1  0.33491827  0.66746826  0.66819283  1
  Ni  Ni44  1  0.50192284  0.83489259  0.83522569  1
  Fe  Fe45  1  0.83586762  0.16877310  0.50136864  1
  Cr  Cr46  1  0.66902770  1.00190225  0.66846812  1
  Ni  Ni47  1  0.83673511  0.16915228  0.83566785  1
  Ni  Ni48  1  0.83477834  0.50265587  0.50245572  1
  Ni  Ni49  1  0.66795743  0.33719232  0.66866463  1
  Ni  Ni50  1  0.83466481  0.50207951  0.83533203  1
  Ni  Ni51  1  0.83607144  0.83409531  0.50116619  1
  Ni  Ni52  1  0.66879118  0.66616374  0.66886398  1
  Ni  Ni53  1  0.83590618  0.83462142  0.83661681  1
" 