8555,Ni82Fe3Cr13_7,-233.297264095776, 157.462007887106,Ni82Fe3Cr13,"# generated using pymatgen
 data_Cr9FeNi44
_symmetry_space_group_name_H-M   'P 1'
_cell_length_a   7.47154618
_cell_length_b   7.47154618
_cell_length_c   10.56636195
_cell_angle_alpha   90.00000000
_cell_angle_beta   90.00000000
_cell_angle_gamma   90.00000000
_symmetry_Int_Tables_number   1
_chemical_formula_structural   Cr9FeNi44
_chemical_formula_sum   'Cr9 Fe1 Ni44'
_cell_volume   589.85661451
_cell_formula_units_Z   1
loop_
 _symmetry_equiv_pos_site_id
 _symmetry_equiv_pos_as_xyz
  1  'x, y, z'
loop_
 _atom_site_type_symbol
 _atom_site_label
 _atom_site_symmetry_multiplicity
 _atom_site_fract_x
 _atom_site_fract_y
 _atom_site_fract_z
 _atom_site_occupancy
  Ni  Ni0  1  0.99914757  0.00170101  0.00130386  1
  Ni  Ni1  1  0.16430896  0.16653162  0.16597127  1
  Ni  Ni2  1  0.99918155  0.99968876  0.33289718  1
  Ni  Ni3  1  0.00156440  0.33141253  0.99936213  1
  Ni  Ni4  1  0.16588746  0.49971144  0.16552175  1
  Ni  Ni5  1  0.00044793  0.33252893  0.33368289  1
  Ni  Ni6  1  0.00305617  0.66598443  0.00152953  1
  Fe  Fe7  1  0.16595484  0.83333682  0.16661153  1
  Ni  Ni8  1  -0.00004428  0.66687968  0.33364119  1
  Ni  Ni9  1  0.33326545  0.99958113  0.99944236  1
  Cr  Cr10  1  0.49949398  0.16488163  0.16669419  1
  Ni  Ni11  1  0.33258727  0.99872668  0.33385799  1
  Ni  Ni12  1  0.33084547  0.33352906  0.99750073  1
  Cr  Cr13  1  0.49733468  0.50010920  0.16740534  1
  Ni  Ni14  1  0.33131711  0.33348930  0.33464723  1
  Ni  Ni15  1  0.33147673  0.66598675  0.99905883  1
  Ni  Ni16  1  0.49943987  0.83401857  0.16667877  1
  Ni  Ni17  1  0.33277398  0.66688136  0.33379337  1
  Ni  Ni18  1  0.66668350  0.00106899  0.99936520  1
  Ni  Ni19  1  0.83540762  0.16372681  0.16552206  1
  Ni  Ni20  1  0.66732762  0.99823390  0.33349104  1
  Ni  Ni21  1  0.66668664  0.32962085  0.99732745  1
  Cr  Cr22  1  0.83541925  0.49910223  0.16718759  1
  Ni  Ni23  1  0.66733136  0.33271341  0.33578696  1
  Cr  Cr24  1  0.66455898  0.66819595  0.99922167  1
  Ni  Ni25  1  0.83376650  0.83559803  0.16689678  1
  Ni  Ni26  1  0.66636713  0.66814905  0.33483908  1
  Ni  Ni27  1  0.16623074  0.16625765  0.49996963  1
  Ni  Ni28  1  0.99952896  0.00351377  0.66489376  1
  Ni  Ni29  1  0.16666527  0.16844109  0.83315628  1
  Ni  Ni30  1  0.16700774  0.49930094  0.49907123  1
  Ni  Ni31  1  0.00068105  0.33011670  0.66605138  1
  Ni  Ni32  1  0.16941822  0.49715741  0.83450427  1
  Ni  Ni33  1  0.16700725  0.83353829  0.49853564  1
  Cr  Cr34  1  0.00178887  0.66546448  0.66390051  1
  Cr  Cr35  1  0.16847319  0.83361154  0.83364778  1
  Ni  Ni36  1  0.49985461  0.16638581  0.49974559  1
  Ni  Ni37  1  0.33399539  0.00056822  0.66579672  1
  Ni  Ni38  1  0.49989416  0.16660245  0.83344836  1
  Ni  Ni39  1  0.49907888  0.49917416  0.49884933  1
  Ni  Ni40  1  0.33284222  0.33305870  0.66695038  1
  Ni  Ni41  1  0.49598669  0.49783885  0.83337832  1
  Ni  Ni42  1  0.49895140  0.83353690  0.49907303  1
  Ni  Ni43  1  0.33418859  0.66546962  0.66624510  1
  Ni  Ni44  1  0.49782343  0.83465536  0.83334533  1
  Ni  Ni45  1  0.83301166  0.16638546  0.49997655  1
  Ni  Ni46  1  0.66557170  0.00216472  0.66624039  1
  Ni  Ni47  1  0.83253713  0.16660575  0.83359830  1
  Ni  Ni48  1  0.83301062  0.49839624  0.49766337  1
  Ni  Ni49  1  0.66557345  0.33031048  0.66598380  1
  Cr  Cr50  1  0.83407751  0.49594676  0.83418129  1
  Ni  Ni51  1  0.83313827  0.83431535  0.49788722  1
  Cr  Cr52  1  0.66313350  0.66661174  0.66482806  1
  Cr  Cr53  1  0.83268522  0.83692690  0.83358386  1
" 