8348,Ni82Fe3Cr13_15,-233.450886711436, 163.056930838244,Ni82Fe3Cr13,"# generated using pymatgen
 data_Cr9FeNi44
_symmetry_space_group_name_H-M   'P 1'
_cell_length_a   7.46952917
_cell_length_b   7.46952917
_cell_length_c   10.56350946
_cell_angle_alpha   90.00000000
_cell_angle_beta   90.00000000
_cell_angle_gamma   90.00000000
_symmetry_Int_Tables_number   1
_chemical_formula_structural   Cr9FeNi44
_chemical_formula_sum   'Cr9 Fe1 Ni44'
_cell_volume   589.37903232
_cell_formula_units_Z   1
loop_
 _symmetry_equiv_pos_site_id
 _symmetry_equiv_pos_as_xyz
  1  'x, y, z'
loop_
 _atom_site_type_symbol
 _atom_site_label
 _atom_site_symmetry_multiplicity
 _atom_site_fract_x
 _atom_site_fract_y
 _atom_site_fract_z
 _atom_site_occupancy
  Cr  Cr0  1  0.00030417  0.99884612  0.99961804  1
  Cr  Cr1  1  0.16668777  0.16683351  0.16633412  1
  Ni  Ni2  1  0.99615874  0.99960939  0.33320256  1
  Ni  Ni3  1  0.99930750  0.33563112  0.99873254  1
  Fe  Fe4  1  0.16614176  0.50123562  0.16660287  1
  Ni  Ni5  1  -0.00006862  0.33297164  0.33349574  1
  Ni  Ni6  1  -0.00002502  0.66503553  -0.00004427  1
  Ni  Ni7  1  0.16477603  0.83073105  0.16620406  1
  Ni  Ni8  1  0.99960266  0.66692095  0.33127480  1
  Ni  Ni9  1  0.33323476  0.00000004  0.99785823  1
  Ni  Ni10  1  0.50107499  0.16992375  0.16639150  1
  Cr  Cr11  1  0.33396446  0.00098627  0.33375693  1
  Ni  Ni12  1  0.33432714  0.33393129  0.99947514  1
  Ni  Ni13  1  0.50074751  0.49835609  0.16678318  1
  Ni  Ni14  1  0.33410342  0.33567333  0.33408122  1
  Ni  Ni15  1  0.33249494  0.66557053  0.99895643  1
  Cr  Cr16  1  0.49918485  0.83176094  0.16633468  1
  Ni  Ni17  1  0.33326797  0.66305520  0.33360272  1
  Cr  Cr18  1  0.66601020  0.00044874  0.99943219  1
  Ni  Ni19  1  0.83211564  0.16855262  0.16855807  1
  Ni  Ni20  1  0.66933325  0.00044381  0.33434968  1
  Ni  Ni21  1  0.66586744  0.33489105  -0.00012103  1
  Ni  Ni22  1  0.83260581  0.49989089  0.16598196  1
  Ni  Ni23  1  0.66546708  0.33223052  0.33212598  1
  Ni  Ni24  1  0.66703193  0.66394390  0.99917547  1
  Ni  Ni25  1  0.83535485  0.83105880  0.16872445  1
  Ni  Ni26  1  0.66663118  0.66682807  0.33305290  1
  Ni  Ni27  1  0.16513702  0.16796526  0.49992062  1
  Ni  Ni28  1  0.99883657  0.00060715  0.66692051  1
  Ni  Ni29  1  0.16650378  0.16604224  0.83302360  1
  Ni  Ni30  1  0.16766975  0.49900248  0.49834961  1
  Ni  Ni31  1  0.99930438  0.33192775  0.66727398  1
  Ni  Ni32  1  0.16534020  0.50088725  0.83420150  1
  Cr  Cr33  1  0.16611459  0.83254880  0.50079796  1
  Ni  Ni34  1  0.00137056  0.66696698  0.66827229  1
  Ni  Ni35  1  0.16766478  0.83257286  0.83267695  1
  Ni  Ni36  1  0.50117787  0.16648619  0.49940683  1
  Ni  Ni37  1  0.33381259  0.99907902  0.66785132  1
  Ni  Ni38  1  0.49962521  0.16626208  0.83370327  1
  Ni  Ni39  1  0.49803391  0.49987007  0.49779273  1
  Cr  Cr40  1  0.33298483  0.33352762  0.66554070  1
  Ni  Ni41  1  0.50017702  0.50005542  0.83492466  1
  Ni  Ni42  1  0.50088252  0.83314568  0.49992461  1
  Ni  Ni43  1  0.33227592  0.66749959  0.66694156  1
  Ni  Ni44  1  0.49763204  0.83318365  0.83301921  1
  Ni  Ni45  1  0.83318641  0.16511635  0.49956866  1
  Ni  Ni46  1  0.66685264  0.00114254  0.66592291  1
  Ni  Ni47  1  0.83337236  0.16858825  0.83137647  1
  Cr  Cr48  1  0.83378142  0.49887226  0.49978624  1
  Ni  Ni49  1  0.66738453  0.33039001  0.66749857  1
  Ni  Ni50  1  0.83398440  0.49889387  0.83433930  1
  Ni  Ni51  1  0.83231817  0.83567865  0.49834736  1
  Cr  Cr52  1  0.66569867  0.66733811  0.66727762  1
  Ni  Ni53  1  0.83420540  0.83201905  0.83243070  1
" 