5073,Ni82Fe7Cr9_1,-236.703819615747, 179.150984676205,Ni82Fe7Cr9,"# generated using pymatgen
 data_Cr3(FeNi11)2
_symmetry_space_group_name_H-M   'P 1'
_cell_length_a   7.45217147
_cell_length_b   7.45217147
_cell_length_c   10.53896197
_cell_angle_alpha   90.00000000
_cell_angle_beta   90.00000000
_cell_angle_gamma   90.00000000
_symmetry_Int_Tables_number   1
_chemical_formula_structural   Cr3(FeNi11)2
_chemical_formula_sum   'Cr6 Fe4 Ni44'
_cell_volume   585.27977382
_cell_formula_units_Z   2
loop_
 _symmetry_equiv_pos_site_id
 _symmetry_equiv_pos_as_xyz
  1  'x, y, z'
loop_
 _atom_site_type_symbol
 _atom_site_label
 _atom_site_symmetry_multiplicity
 _atom_site_fract_x
 _atom_site_fract_y
 _atom_site_fract_z
 _atom_site_occupancy
  Ni  Ni0  1  0.99845838  0.99845503  0.00320799  1
  Ni  Ni1  1  0.16567226  0.16714245  0.16910436  1
  Ni  Ni2  1  1.00044701  0.00208447  0.33344387  1
  Cr  Cr3  1  0.00182107  0.33538887  0.00293991  1
  Fe  Fe4  1  0.16826228  0.50227704  0.16858023  1
  Ni  Ni5  1  0.00152775  0.33409146  0.33438164  1
  Ni  Ni6  1  1.00028384  0.66870252  1.00054646  1
  Ni  Ni7  1  0.16618143  0.83388537  0.16779478  1
  Ni  Ni8  1  1.00026627  0.66683131  0.33416437  1
  Cr  Cr9  1  0.33492417  0.99962139  1.00040564  1
  Cr  Cr10  1  0.50150169  0.16894423  0.16781289  1
  Ni  Ni11  1  0.33418143  1.00065967  0.33540770  1
  Ni  Ni12  1  0.33541431  0.33772031  1.00049024  1
  Ni  Ni13  1  0.50129841  0.50265999  0.16720619  1
  Ni  Ni14  1  0.33257177  0.33507033  0.33507533  1
  Ni  Ni15  1  0.33522370  0.66543073  0.00145092  1
  Ni  Ni16  1  0.50161331  0.83106723  0.16823049  1
  Ni  Ni17  1  0.33531909  0.66728597  0.33351155  1
  Ni  Ni18  1  0.66923359  0.99857174  1.00086091  1
  Ni  Ni19  1  0.83591302  0.16689472  0.16830896  1
  Ni  Ni20  1  0.66838160  0.99937278  0.33491367  1
  Fe  Fe21  1  0.66613735  0.33620199  1.00080184  1
  Ni  Ni22  1  0.83292837  0.50206340  0.16776859  1
  Fe  Fe23  1  0.66874567  0.33530557  0.33572281  1
  Ni  Ni24  1  0.66740754  0.66855266  1.00076499  1
  Ni  Ni25  1  0.83518688  0.83407374  0.16698975  1
  Ni  Ni26  1  0.66741861  0.66839553  0.33439307  1
  Ni  Ni27  1  0.16763311  0.16778327  0.50141547  1
  Ni  Ni28  1  1.00051051  0.99998287  0.66626914  1
  Cr  Cr29  1  0.16896493  0.16742516  0.83197256  1
  Ni  Ni30  1  0.16687275  0.50003775  0.49987012  1
  Ni  Ni31  1  0.00107489  0.33596083  0.66570713  1
  Ni  Ni32  1  0.16871896  0.50298344  0.83503064  1
  Ni  Ni33  1  0.16643186  0.83521347  0.50055031  1
  Ni  Ni34  1  0.99894767  0.66705797  0.66831331  1
  Ni  Ni35  1  0.16531653  0.83191709  0.83460546  1
  Ni  Ni36  1  0.50071213  0.16809592  0.50201561  1
  Ni  Ni37  1  0.33581971  0.00245777  0.66695542  1
  Ni  Ni38  1  0.50192076  0.16945833  0.83347821  1
  Ni  Ni39  1  0.50178634  0.49998120  0.50003162  1
  Ni  Ni40  1  0.33492746  0.33325978  0.66744588  1
  Ni  Ni41  1  0.50100074  0.50011806  0.83573815  1
  Ni  Ni42  1  0.50188039  0.83492550  0.49994311  1
  Cr  Cr43  1  0.33480777  0.66794099  0.66748832  1
  Ni  Ni44  1  0.50297698  0.83351907  0.83473138  1
  Ni  Ni45  1  0.83464785  0.16771529  0.50064971  1
  Ni  Ni46  1  0.66667680  1.00036851  0.66725271  1
  Cr  Cr47  1  0.83225604  0.16582299  0.83384460  1
  Ni  Ni48  1  0.83436777  0.50117038  0.50213131  1
  Ni  Ni49  1  0.66700094  0.33480610  0.66722626  1
  Fe  Fe50  1  0.83349386  0.50417758  0.83309426  1
  Ni  Ni51  1  0.83467900  0.83416435  0.50120582  1
  Ni  Ni52  1  0.66945815  0.66790898  0.66785994  1
  Ni  Ni53  1  0.83469308  0.83289464  0.83479221  1
" 