1737,Ni82Fe7Cr9_11,-236.72546257455, 178.549949087555,Ni82Fe7Cr9,"# generated using pymatgen
 data_Cr3(FeNi11)2
_symmetry_space_group_name_H-M   'P 1'
_cell_length_a   7.45307331
_cell_length_b   7.45307331
_cell_length_c   10.54023736
_cell_angle_alpha   90.00000000
_cell_angle_beta   90.00000000
_cell_angle_gamma   90.00000000
_symmetry_Int_Tables_number   1
_chemical_formula_structural   Cr3(FeNi11)2
_chemical_formula_sum   'Cr6 Fe4 Ni44'
_cell_volume   585.49228538
_cell_formula_units_Z   2
loop_
 _symmetry_equiv_pos_site_id
 _symmetry_equiv_pos_as_xyz
  1  'x, y, z'
loop_
 _atom_site_type_symbol
 _atom_site_label
 _atom_site_symmetry_multiplicity
 _atom_site_fract_x
 _atom_site_fract_y
 _atom_site_fract_z
 _atom_site_occupancy
  Ni  Ni0  1  0.99976156  0.99917282  0.00212474  1
  Ni  Ni1  1  0.16921203  0.16620911  0.16879209  1
  Ni  Ni2  1  0.00167282  0.00211398  0.33406922  1
  Cr  Cr3  1  0.99998607  0.33517263  0.00175864  1
  Ni  Ni4  1  0.16880236  0.50238202  0.16819574  1
  Ni  Ni5  1  0.00163193  0.33311686  0.33362719  1
  Ni  Ni6  1  0.99976828  0.66899774  0.00152094  1
  Ni  Ni7  1  0.16669187  0.83423267  0.16785768  1
  Ni  Ni8  1  0.00259091  0.66758260  0.33194360  1
  Ni  Ni9  1  0.33552727  0.00102366  0.00246227  1
  Ni  Ni10  1  0.50063077  0.16861539  0.16719004  1
  Ni  Ni11  1  0.33413723  0.00104520  0.33476283  1
  Ni  Ni12  1  0.33708387  0.33456264  0.00146843  1
  Ni  Ni13  1  0.50112315  0.49999558  0.16813802  1
  Ni  Ni14  1  0.33389596  0.33390773  0.33404173  1
  Ni  Ni15  1  0.33531104  0.66722928  0.00098688  1
  Fe  Fe16  1  0.50058200  0.83386711  0.16798504  1
  Ni  Ni17  1  0.33401043  0.66785439  0.33500303  1
  Fe  Fe18  1  0.66772629  1.00085510  1.00057506  1
  Ni  Ni19  1  0.83296019  0.16652798  0.16908129  1
  Ni  Ni20  1  0.66698050  0.00197964  0.33311408  1
  Ni  Ni21  1  0.66582474  0.33454683  1.00014385  1
  Ni  Ni22  1  0.83289839  0.50252431  0.16853260  1
  Ni  Ni23  1  0.66725718  0.33297808  0.33383923  1
  Ni  Ni24  1  0.66775249  0.66735904  1.00032436  1
  Ni  Ni25  1  0.83532524  0.83373826  0.16751323  1
  Ni  Ni26  1  0.66614448  0.66785087  0.33272578  1
  Ni  Ni27  1  0.16781245  0.16683901  0.49980065  1
  Fe  Fe28  1  0.99957139  0.00163162  0.66666274  1
  Cr  Cr29  1  0.16864655  0.16752845  0.83463332  1
  Ni  Ni30  1  0.16818946  0.50197123  0.50025074  1
  Ni  Ni31  1  0.99885998  0.33471953  0.66772130  1
  Ni  Ni32  1  0.16762007  0.50303093  0.83437454  1
  Ni  Ni33  1  0.17030865  0.83401186  0.50123228  1
  Ni  Ni34  1  0.00166941  0.66607677  0.66929531  1
  Cr  Cr35  1  0.16779811  0.83254193  0.83373388  1
  Ni  Ni36  1  0.50137715  0.16601511  0.50033006  1
  Ni  Ni37  1  0.33683928  0.99890254  0.66562048  1
  Ni  Ni38  1  0.50379680  0.16717329  0.83529188  1
  Fe  Fe39  1  0.49981050  0.50159563  0.49990256  1
  Cr  Cr40  1  0.33457520  0.33475401  0.66726929  1
  Ni  Ni41  1  0.50236656  0.50160548  0.83444577  1
  Ni  Ni42  1  0.49856512  0.83514347  0.50091187  1
  Ni  Ni43  1  0.33466142  0.66938914  0.66684066  1
  Ni  Ni44  1  0.50280016  0.83403665  0.83423900  1
  Ni  Ni45  1  0.83361149  0.16811039  0.50114731  1
  Ni  Ni46  1  0.66631632  0.00168437  0.66933118  1
  Ni  Ni47  1  0.83088893  0.16725230  0.83261860  1
  Cr  Cr48  1  0.83411922  0.49951662  0.50022911  1
  Ni  Ni49  1  0.66959651  0.33258642  0.66878505  1
  Ni  Ni50  1  0.83283183  0.50208540  0.83332399  1
  Cr  Cr51  1  0.83394436  0.83498074  0.50098354  1
  Ni  Ni52  1  0.66645671  0.66854408  0.66971419  1
  Ni  Ni53  1  0.83230155  0.83345570  0.83415735  1
" 