1847,Ni82Fe8Cr9_16,-236.62160665452, 179.874115917406,Ni82Fe8Cr9,"# generated using pymatgen
 data_Cr3(FeNi11)2
_symmetry_space_group_name_H-M   'P 1'
_cell_length_a   7.45253155
_cell_length_b   7.45253155
_cell_length_c   10.53947119
_cell_angle_alpha   90.00000000
_cell_angle_beta   90.00000000
_cell_angle_gamma   90.00000000
_symmetry_Int_Tables_number   1
_chemical_formula_structural   Cr3(FeNi11)2
_chemical_formula_sum   'Cr6 Fe4 Ni44'
_cell_volume   585.36461646
_cell_formula_units_Z   2
loop_
 _symmetry_equiv_pos_site_id
 _symmetry_equiv_pos_as_xyz
  1  'x, y, z'
loop_
 _atom_site_type_symbol
 _atom_site_label
 _atom_site_symmetry_multiplicity
 _atom_site_fract_x
 _atom_site_fract_y
 _atom_site_fract_z
 _atom_site_occupancy
  Ni  Ni0  1  0.99875159  1.00087772  0.00114179  1
  Ni  Ni1  1  0.16743834  0.16810773  0.16798530  1
  Ni  Ni2  1  0.99919402  0.00179605  0.33295324  1
  Ni  Ni3  1  1.00006102  0.33256098  0.00286068  1
  Ni  Ni4  1  0.16901648  0.50047366  0.16684443  1
  Ni  Ni5  1  0.99986556  0.33371735  0.33320150  1
  Ni  Ni6  1  0.00139807  0.66951227  0.00228756  1
  Ni  Ni7  1  0.16699218  0.83434246  0.16805680  1
  Cr  Cr8  1  1.00033026  0.66675202  0.33591168  1
  Cr  Cr9  1  0.33468745  0.00156851  1.00076932  1
  Ni  Ni10  1  0.50182850  0.16894127  0.16876509  1
  Ni  Ni11  1  0.33593392  1.00045254  0.33351548  1
  Ni  Ni12  1  0.33609926  0.33503357  0.00098453  1
  Ni  Ni13  1  0.50077409  0.50059756  0.16712956  1
  Ni  Ni14  1  0.33519463  0.33525040  0.33351727  1
  Ni  Ni15  1  0.33490676  0.66710855  0.00204639  1
  Fe  Fe16  1  0.50194632  0.83426533  0.16865621  1
  Ni  Ni17  1  0.33634169  0.66718541  0.33444668  1
  Ni  Ni18  1  0.66925713  0.00222010  1.00012623  1
  Ni  Ni19  1  0.83367154  0.16670701  0.16770311  1
  Ni  Ni20  1  0.66790983  1.00085708  0.33497728  1
  Ni  Ni21  1  0.66679342  0.33234217  0.00224115  1
  Ni  Ni22  1  0.83303548  0.50086165  0.16683946  1
  Fe  Fe23  1  0.66762283  0.33426126  0.33418307  1
  Fe  Fe24  1  0.66722920  0.66822335  0.00174036  1
  Ni  Ni25  1  0.83373873  0.83527620  0.16644279  1
  Ni  Ni26  1  0.66637865  0.66797221  0.33382663  1
  Cr  Cr27  1  0.16832773  0.16693871  0.50057578  1
  Ni  Ni28  1  1.00011925  1.00025452  0.66882546  1
  Ni  Ni29  1  0.16691977  0.16657829  0.83405352  1
  Ni  Ni30  1  0.16807525  0.50041890  0.50102508  1
  Ni  Ni31  1  0.99896748  0.33292735  0.66677110  1
  Cr  Cr32  1  0.16796141  0.49988782  0.83485034  1
  Ni  Ni33  1  0.16772623  0.83509099  0.50088871  1
  Ni  Ni34  1  0.99855117  0.66972735  0.66550113  1
  Ni  Ni35  1  0.16590619  0.83591027  0.83411651  1
  Ni  Ni36  1  0.50222359  0.16742093  0.50116242  1
  Ni  Ni37  1  0.33529993  0.00153802  0.66844264  1
  Ni  Ni38  1  0.50201787  0.16849858  0.83296781  1
  Ni  Ni39  1  0.50209684  0.50029341  0.50030793  1
  Ni  Ni40  1  0.33700332  0.33239738  0.66835754  1
  Ni  Ni41  1  0.50207761  0.50009092  0.83537226  1
  Ni  Ni42  1  0.50214636  0.83508769  0.49940829  1
  Cr  Cr43  1  0.33560377  0.66884575  0.66618690  1
  Ni  Ni44  1  0.50288382  0.83431018  0.83498264  1
  Ni  Ni45  1  0.83275890  0.16716442  0.50055163  1
  Fe  Fe46  1  0.66763944  0.00122180  0.66758459  1
  Ni  Ni47  1  0.83397581  0.16596612  0.83455272  1
  Ni  Ni48  1  0.83274491  0.50058165  0.50166252  1
  Ni  Ni49  1  0.66695274  0.33387780  0.66624788  1
  Cr  Cr50  1  0.83278762  0.50140067  0.83492409  1
  Ni  Ni51  1  0.83295368  0.83518146  0.50233010  1
  Ni  Ni52  1  0.66820680  0.66782320  0.66753152  1
  Ni  Ni53  1  0.83426625  0.83589213  0.83425598  1
" 