7823,Ni82Fe7Cr9_19,-236.728186153778, 177.7332155093,Ni82Fe7Cr9,"# generated using pymatgen
 data_Cr3(FeNi11)2
_symmetry_space_group_name_H-M   'P 1'
_cell_length_a   7.45446546
_cell_length_b   7.45446546
_cell_length_c   10.54220616
_cell_angle_alpha   90.00000000
_cell_angle_beta   90.00000000
_cell_angle_gamma   90.00000000
_symmetry_Int_Tables_number   1
_chemical_formula_structural   Cr3(FeNi11)2
_chemical_formula_sum   'Cr6 Fe4 Ni44'
_cell_volume   585.82043720
_cell_formula_units_Z   2
loop_
 _symmetry_equiv_pos_site_id
 _symmetry_equiv_pos_as_xyz
  1  'x, y, z'
loop_
 _atom_site_type_symbol
 _atom_site_label
 _atom_site_symmetry_multiplicity
 _atom_site_fract_x
 _atom_site_fract_y
 _atom_site_fract_z
 _atom_site_occupancy
  Ni  Ni0  1  0.99855263  0.00326847  0.00087163  1
  Ni  Ni1  1  0.16777284  0.16862446  0.16878923  1
  Ni  Ni2  1  0.00237190  0.00102366  0.33456873  1
  Ni  Ni3  1  0.00125579  0.33336905  1.00036382  1
  Ni  Ni4  1  0.16785056  0.49926833  0.16768160  1
  Ni  Ni5  1  0.00197414  0.33495883  0.33376052  1
  Fe  Fe6  1  0.99892559  0.66552617  1.00079026  1
  Cr  Cr7  1  0.16746579  0.83400077  0.16707207  1
  Ni  Ni8  1  0.99975498  0.66655056  0.33481631  1
  Ni  Ni9  1  0.33575514  0.00237031  1.00060493  1
  Ni  Ni10  1  0.50033619  0.16850799  0.16662854  1
  Ni  Ni11  1  0.33207020  0.00109908  0.33449847  1
  Ni  Ni12  1  0.33331841  0.33453260  0.00087204  1
  Ni  Ni13  1  0.50101308  0.50014272  0.16828047  1
  Ni  Ni14  1  0.33281247  0.33522423  0.33295207  1
  Ni  Ni15  1  0.33651461  0.66562722  1.00060495  1
  Ni  Ni16  1  0.50139662  0.83388010  0.16743473  1
  Ni  Ni17  1  0.33495577  0.66620738  0.33551928  1
  Ni  Ni18  1  0.66822365  1.00007406  1.00060512  1
  Ni  Ni19  1  0.83442249  0.16824232  0.16692933  1
  Cr  Cr20  1  0.66804142  0.99876537  0.33177055  1
  Ni  Ni21  1  0.66795770  0.33412606  0.00087188  1
  Ni  Ni22  1  0.83366768  0.50033109  0.16862153  1
  Ni  Ni23  1  0.66774497  0.33784191  0.33234070  1
  Ni  Ni24  1  0.66706081  0.66833188  1.00060512  1
  Ni  Ni25  1  0.83354871  0.83395731  0.16700020  1
  Ni  Ni26  1  0.66782149  0.66580841  0.33487646  1
  Fe  Fe27  1  0.16729695  0.16746518  0.50054795  1
  Ni  Ni28  1  0.00237256  1.00036635  0.66709176  1
  Ni  Ni29  1  0.16788181  0.16851457  0.83300381  1
  Ni  Ni30  1  0.16809225  0.50293162  0.50073834  1
  Fe  Fe31  1  0.00191863  0.33576493  0.66882684  1
  Ni  Ni32  1  0.16796057  0.49937875  0.83411196  1
  Ni  Ni33  1  0.16685704  0.83373748  0.50081449  1
  Ni  Ni34  1  0.99975578  0.66721044  0.66684436  1
  Cr  Cr35  1  0.16769279  0.83400119  0.83484488  1
  Cr  Cr36  1  0.49865921  0.17015827  0.50061489  1
  Ni  Ni37  1  0.33182948  0.00133917  0.66742815  1
  Ni  Ni38  1  0.50033667  0.16848060  0.83508869  1
  Ni  Ni39  1  0.50063305  0.50186490  0.50081458  1
  Ni  Ni40  1  0.33347036  0.33522353  0.66870745  1
  Ni  Ni41  1  0.50101332  0.50017026  0.83343713  1
  Fe  Fe42  1  0.49896147  0.82948126  0.50084581  1
  Ni  Ni43  1  0.33471526  0.66596808  0.66640799  1
  Ni  Ni44  1  0.50139610  0.83387992  0.83424790  1
  Cr  Cr45  1  0.83588588  0.16919902  0.50065820  1
  Cr  Cr46  1  0.66815301  0.99887815  0.67009164  1
  Ni  Ni47  1  0.83431313  0.16813283  0.83486378  1
  Ni  Ni48  1  0.83380652  0.50310948  0.50073823  1
  Ni  Ni49  1  0.66708580  0.33784104  0.66931931  1
  Ni  Ni50  1  0.83355753  0.50044085  0.83317231  1
  Ni  Ni51  1  0.83775749  0.83084816  0.50081444  1
  Ni  Ni52  1  0.66806136  0.66556805  0.66705028  1
  Ni  Ni53  1  0.83352274  0.83395800  0.83471672  1
" 