2143,Ni82Fe3Cr14_12,-233.558166396308, 163.269455818538,Ni82Fe3Cr14,"# generated using pymatgen
 data_Cr9FeNi44
_symmetry_space_group_name_H-M   'P 1'
_cell_length_a   7.46656841
_cell_length_b   7.46656841
_cell_length_c   10.55932232
_cell_angle_alpha   90.00000000
_cell_angle_beta   90.00000000
_cell_angle_gamma   90.00000000
_symmetry_Int_Tables_number   1
_chemical_formula_structural   Cr9FeNi44
_chemical_formula_sum   'Cr9 Fe1 Ni44'
_cell_volume   588.67845886
_cell_formula_units_Z   1
loop_
 _symmetry_equiv_pos_site_id
 _symmetry_equiv_pos_as_xyz
  1  'x, y, z'
loop_
 _atom_site_type_symbol
 _atom_site_label
 _atom_site_symmetry_multiplicity
 _atom_site_fract_x
 _atom_site_fract_y
 _atom_site_fract_z
 _atom_site_occupancy
  Ni  Ni0  1  0.99982613  0.99961538  0.99964024  1
  Ni  Ni1  1  0.16740480  0.16676374  0.16716318  1
  Cr  Cr2  1  0.99896011  0.99872544  0.33202071  1
  Ni  Ni3  1  0.99914078  0.33360435  0.00020874  1
  Ni  Ni4  1  0.16509645  0.50075209  0.16762537  1
  Ni  Ni5  1  0.00115611  0.33570232  0.33266025  1
  Ni  Ni6  1  0.99970217  0.66689111  0.00024537  1
  Ni  Ni7  1  0.16564746  0.83267485  0.16538909  1
  Ni  Ni8  1  0.99889236  0.66453909  0.33268156  1
  Ni  Ni9  1  0.33261540  0.99979780  0.99901548  1
  Ni  Ni10  1  0.50049013  0.16737422  0.16745840  1
  Ni  Ni11  1  0.33376570  0.00066946  0.33272692  1
  Cr  Cr12  1  0.33331357  0.33470410  0.99956662  1
  Ni  Ni13  1  0.50156244  0.49893139  0.16748404  1
  Ni  Ni14  1  0.33255889  0.33464578  0.33286531  1
  Ni  Ni15  1  0.33268530  0.66706554  0.99928195  1
  Cr  Cr16  1  0.49958061  0.83291459  0.16658511  1
  Ni  Ni17  1  0.33354717  0.66464380  0.33304862  1
  Ni  Ni18  1  0.66769214  0.00006435  0.99974884  1
  Fe  Fe19  1  0.83290307  0.16800913  0.16539328  1
  Ni  Ni20  1  0.66615164  0.99848537  0.33235076  1
  Ni  Ni21  1  0.66777911  0.33375150  0.99958909  1
  Ni  Ni22  1  0.83341473  0.50046312  0.16673804  1
  Ni  Ni23  1  0.66653759  0.33552683  0.33175863  1
  Ni  Ni24  1  0.66765620  0.66628807  0.99900440  1
  Ni  Ni25  1  0.83384408  0.83127803  0.16607621  1
  Ni  Ni26  1  0.66759682  0.66617043  0.33461873  1
  Ni  Ni27  1  0.16745438  0.16732324  0.49940162  1
  Ni  Ni28  1  0.00108862  0.99820989  0.66849510  1
  Ni  Ni29  1  0.16558799  0.16399009  0.83355531  1
  Ni  Ni30  1  0.16627012  0.50055488  0.49803447  1
  Cr  Cr31  1  0.99994612  0.33428726  0.66742119  1
  Ni  Ni32  1  0.16504460  0.50300434  0.83436324  1
  Cr  Cr33  1  0.16775949  0.83258995  0.50104009  1
  Ni  Ni34  1  0.99899230  0.66741612  0.66720484  1
  Ni  Ni35  1  0.16649465  0.83315283  0.83387454  1
  Cr  Cr36  1  0.49866480  0.16681271  0.49840008  1
  Ni  Ni37  1  0.33222595  0.99841807  0.66835908  1
  Ni  Ni38  1  0.50112175  0.16576066  0.83430286  1
  Ni  Ni39  1  0.50117495  0.50212845  0.49910976  1
  Cr  Cr40  1  0.33404678  0.33507119  0.66789229  1
  Ni  Ni41  1  0.50235127  0.50198343  0.83356121  1
  Ni  Ni42  1  0.50039544  0.83096906  0.49903390  1
  Ni  Ni43  1  0.33446344  0.66706853  0.66767173  1
  Ni  Ni44  1  0.49918715  0.83252898  0.83402338  1
  Cr  Cr45  1  0.83384144  0.16862515  0.49920958  1
  Cr  Cr46  1  0.66744558  0.99728100  0.66787109  1
  Ni  Ni47  1  0.83343926  0.16713004  0.83569343  1
  Ni  Ni48  1  0.83264506  0.50225748  0.49944741  1
  Ni  Ni49  1  0.66663530  0.33680953  0.66880298  1
  Ni  Ni50  1  0.83270991  0.50091403  0.83386646  1
  Ni  Ni51  1  0.83221112  0.82973186  0.49993644  1
  Ni  Ni52  1  0.66657458  0.66556844  0.66631370  1
  Ni  Ni53  1  0.83443980  0.83209373  0.83390214  1
" 