4263,Ni82Fe18_15,-231.568357058729, 176.406057591946,Ni82Fe18,"# generated using pymatgen
 data_Fe22Ni5
_symmetry_space_group_name_H-M   'P 1'
_cell_length_a   7.40042959
_cell_length_b   7.40042959
_cell_length_c   10.46578789
_cell_angle_alpha   90.00000000
_cell_angle_beta   90.00000000
_cell_angle_gamma   90.00000000
_symmetry_Int_Tables_number   1
_chemical_formula_structural   Fe22Ni5
_chemical_formula_sum   'Fe44 Ni10'
_cell_volume   573.17308713
_cell_formula_units_Z   2
loop_
 _symmetry_equiv_pos_site_id
 _symmetry_equiv_pos_as_xyz
  1  'x, y, z'
loop_
 _atom_site_type_symbol
 _atom_site_label
 _atom_site_symmetry_multiplicity
 _atom_site_fract_x
 _atom_site_fract_y
 _atom_site_fract_z
 _atom_site_occupancy
  Ni  Ni0  1  1.00377707  1.00318114  0.00519584  1
  Fe  Fe1  1  0.17116874  0.17085798  0.17085476  1
  Fe  Fe2  1  1.00434527  1.00443103  0.33714164  1
  Fe  Fe3  1  1.00444295  0.33738080  0.00458585  1
  Fe  Fe4  1  0.17125215  0.50498023  0.17077076  1
  Fe  Fe5  1  1.00387678  0.33729648  0.33809159  1
  Ni  Ni6  1  0.00509327  0.67206630  0.00451038  1
  Ni  Ni7  1  0.17086763  0.83774247  0.17125440  1
  Fe  Fe8  1  1.00428582  0.67177506  0.33697140  1
  Fe  Fe9  1  0.33721448  1.00444676  1.00441425  1
  Fe  Fe10  1  0.50420760  0.17055519  0.17038600  1
  Fe  Fe11  1  0.33831723  1.00393658  0.33809081  1
  Ni  Ni12  1  0.33786831  0.33824863  1.00439601  1
  Fe  Fe13  1  0.50355560  0.50471440  0.17101068  1
  Fe  Fe14  1  0.33828919  0.33729501  0.33720923  1
  Fe  Fe15  1  0.33694772  0.67200651  0.00491058  1
  Fe  Fe16  1  0.50459298  0.83823404  0.17204616  1
  Fe  Fe17  1  0.33837389  0.67227109  0.33792075  1
  Ni  Ni18  1  0.67186218  0.00450702  1.00377208  1
  Fe  Fe19  1  0.83812652  0.16982142  0.17118358  1
  Ni  Ni20  1  0.67116888  1.00429075  0.33905289  1
  Fe  Fe21  1  0.67152436  0.33711376  1.00372355  1
  Fe  Fe22  1  0.83869572  0.50536519  0.17109561  1
  Fe  Fe23  1  0.67133682  0.33735347  0.33837086  1
  Fe  Fe24  1  0.67173310  0.67156237  1.00396147  1
  Fe  Fe25  1  0.83839167  0.83831469  0.17060201  1
  Fe  Fe26  1  0.67084273  0.67180288  0.33878316  1
  Fe  Fe27  1  0.17162183  0.17071423  0.50450326  1
  Fe  Fe28  1  1.00359531  0.00458484  0.67162233  1
  Fe  Fe29  1  0.17173172  0.17125074  0.83814657  1
  Fe  Fe30  1  0.17170688  0.50495435  0.50441415  1
  Fe  Fe31  1  1.00339596  0.33845602  0.67082547  1
  Fe  Fe32  1  0.17178937  0.50388003  0.83831743  1
  Fe  Fe33  1  0.17164527  0.83783419  0.50396399  1
  Fe  Fe34  1  1.00348508  0.67046186  0.67170965  1
  Fe  Fe35  1  0.17105523  0.83837275  0.83885195  1
  Fe  Fe36  1  0.50489345  0.17068790  0.50495555  1
  Fe  Fe37  1  0.33930445  1.00441451  0.67099756  1
  Ni  Ni38  1  0.50499720  0.17136899  0.83753352  1
  Fe  Fe39  1  0.50489228  0.50506602  0.50497840  1
  Fe  Fe40  1  0.33900391  0.33813156  0.67203171  1
  Fe  Fe41  1  0.50465623  0.50361303  0.83751131  1
  Ni  Ni42  1  0.50470364  0.83793098  0.50460524  1
  Fe  Fe43  1  0.33909054  0.67095746  0.67067249  1
  Fe  Fe44  1  0.50506700  0.83831377  0.83703911  1
  Fe  Fe45  1  0.83698708  0.17062861  0.50433308  1
  Fe  Fe46  1  0.67060269  1.00450033  0.67108214  1
  Fe  Fe47  1  0.83711593  0.17084235  0.83798768  1
  Fe  Fe48  1  0.83690303  0.50504033  0.50506452  1
  Ni  Ni49  1  0.67026996  0.33832322  0.67067923  1
  Fe  Fe50  1  0.83705749  0.50429008  0.83734043  1
  Fe  Fe51  1  0.83687656  0.83783390  0.50450336  1
  Ni  Ni52  1  0.67106343  0.67067934  0.67067597  1
  Fe  Fe53  1  0.83738145  0.83836900  0.83839923  1
" 