8345,Ni82Fe13Cr3_19,-239.859185145774, 192.319926852911,Ni82Fe13Cr3,"# generated using pymatgen
 data_Cr3Fe7Ni44
_symmetry_space_group_name_H-M   'P 1'
_cell_length_a   7.44098447
_cell_length_b   7.44098447
_cell_length_c   10.52314115
_cell_angle_alpha   90.00000000
_cell_angle_beta   90.00000000
_cell_angle_gamma   90.00000000
_symmetry_Int_Tables_number   1
_chemical_formula_structural   Cr3Fe7Ni44
_chemical_formula_sum   'Cr3 Fe7 Ni44'
_cell_volume   582.64790824
_cell_formula_units_Z   1
loop_
 _symmetry_equiv_pos_site_id
 _symmetry_equiv_pos_as_xyz
  1  'x, y, z'
loop_
 _atom_site_type_symbol
 _atom_site_label
 _atom_site_symmetry_multiplicity
 _atom_site_fract_x
 _atom_site_fract_y
 _atom_site_fract_z
 _atom_site_occupancy
  Ni  Ni0  1  0.00239269  0.99968734  0.99979955  1
  Cr  Cr1  1  0.16919029  0.16998490  0.16931780  1
  Ni  Ni2  1  0.00188361  0.99975752  0.33706576  1
  Ni  Ni3  1  1.00162355  0.33670367  0.99932320  1
  Ni  Ni4  1  0.16788737  0.50285319  0.16800760  1
  Ni  Ni5  1  1.00032654  0.33584505  0.33684639  1
  Ni  Ni6  1  0.00207133  0.66857967  0.00216268  1
  Fe  Fe7  1  0.16996115  0.83395211  0.16901877  1
  Ni  Ni8  1  1.00095034  0.66949573  0.33379736  1
  Ni  Ni9  1  0.33569651  1.00114789  1.00061194  1
  Ni  Ni10  1  0.50208843  0.16721698  0.16815829  1
  Ni  Ni11  1  0.33597100  1.00095745  0.33693165  1
  Ni  Ni12  1  0.33625901  0.33573198  1.00161286  1
  Ni  Ni13  1  0.50154856  0.50321666  0.16803443  1
  Ni  Ni14  1  0.33746539  0.33494851  0.33463335  1
  Ni  Ni15  1  0.33481387  0.66826788  1.00141722  1
  Ni  Ni16  1  0.50306488  0.83469081  0.16813699  1
  Ni  Ni17  1  0.33580255  0.66930576  0.33451584  1
  Ni  Ni18  1  0.66732188  1.00113227  1.00075019  1
  Cr  Cr19  1  0.83400263  0.16757876  0.16735737  1
  Ni  Ni20  1  0.66752200  1.00133866  0.33603423  1
  Ni  Ni21  1  0.66681562  0.33614279  1.00147392  1
  Ni  Ni22  1  0.83577073  0.50317311  0.16836910  1
  Ni  Ni23  1  0.66724244  0.33579049  0.33556343  1
  Ni  Ni24  1  0.66850065  0.66788879  0.00179009  1
  Fe  Fe25  1  0.83380973  0.83362774  0.16818679  1
  Ni  Ni26  1  0.66844741  0.66796458  0.33538008  1
  Ni  Ni27  1  0.16758143  0.16752198  0.50158268  1
  Ni  Ni28  1  1.00174258  1.00079307  0.66837966  1
  Ni  Ni29  1  0.16780999  0.16973640  0.83485949  1
  Cr  Cr30  1  0.16996646  0.50182340  0.50147611  1
  Fe  Fe31  1  1.00156994  0.33411991  0.66916106  1
  Ni  Ni32  1  0.16828584  0.50090571  0.83576428  1
  Ni  Ni33  1  0.16766831  0.83570145  0.50215125  1
  Ni  Ni34  1  1.00046020  0.67009795  0.66937486  1
  Fe  Fe35  1  0.17017818  0.83494453  0.83430552  1
  Ni  Ni36  1  0.50230651  0.16825053  0.50113791  1
  Ni  Ni37  1  0.33473754  0.00275180  0.66786634  1
  Ni  Ni38  1  0.50099555  0.16795658  0.83597471  1
  Ni  Ni39  1  0.50239013  0.50267524  0.50166841  1
  Ni  Ni40  1  0.33711295  0.33384005  0.66914663  1
  Ni  Ni41  1  0.50049793  0.50265667  0.83555222  1
  Ni  Ni42  1  0.50298064  0.83437058  0.50278653  1
  Ni  Ni43  1  0.33547326  0.66871967  0.66938820  1
  Ni  Ni44  1  0.50452483  0.83463201  0.83431197  1
  Ni  Ni45  1  0.83534629  0.16688133  0.50245476  1
  Ni  Ni46  1  0.66883853  0.00233024  0.66830511  1
  Fe  Fe47  1  0.83357196  0.16805274  0.83487084  1
  Fe  Fe48  1  0.83335104  0.50242385  0.50097876  1
  Ni  Ni49  1  0.66713809  0.33518347  0.66812807  1
  Fe  Fe50  1  0.83348535  0.50256574  0.83584046  1
  Ni  Ni51  1  0.83450433  0.83573249  0.50074058  1
  Ni  Ni52  1  0.66925224  0.66773837  0.66803668  1
  Ni  Ni53  1  0.83437120  0.83518544  0.83603148  1
" 