897,Ni82Fe2Cr14_1,-233.503290107148, 162.177684553472,Ni82Fe2Cr14,"# generated using pymatgen
 data_Cr9FeNi44
_symmetry_space_group_name_H-M   'P 1'
_cell_length_a   7.46948386
_cell_length_b   7.46948386
_cell_length_c   10.56344538
_cell_angle_alpha   90.00000000
_cell_angle_beta   90.00000000
_cell_angle_gamma   90.00000000
_symmetry_Int_Tables_number   1
_chemical_formula_structural   Cr9FeNi44
_chemical_formula_sum   'Cr9 Fe1 Ni44'
_cell_volume   589.36830659
_cell_formula_units_Z   1
loop_
 _symmetry_equiv_pos_site_id
 _symmetry_equiv_pos_as_xyz
  1  'x, y, z'
loop_
 _atom_site_type_symbol
 _atom_site_label
 _atom_site_symmetry_multiplicity
 _atom_site_fract_x
 _atom_site_fract_y
 _atom_site_fract_z
 _atom_site_occupancy
  Ni  Ni0  1  0.00108563  0.99836041  0.99886373  1
  Ni  Ni1  1  0.16568068  0.16721177  0.16561063  1
  Ni  Ni2  1  0.99837353  0.99713685  0.33309728  1
  Ni  Ni3  1  0.00045658  0.33434713  0.99884520  1
  Ni  Ni4  1  0.16616174  0.50044913  0.16539700  1
  Ni  Ni5  1  0.00002464  0.33487509  0.33167740  1
  Ni  Ni6  1  0.99967516  0.66696385  0.99914630  1
  Ni  Ni7  1  0.16492284  0.83194049  0.16607644  1
  Ni  Ni8  1  0.99902396  0.66732159  0.33249964  1
  Ni  Ni9  1  0.33199654  0.99838833  0.99881490  1
  Cr  Cr10  1  0.50011658  0.16590227  0.16313609  1
  Cr  Cr11  1  0.33372786  0.99760125  0.33083660  1
  Ni  Ni12  1  0.33150165  0.33334779  -0.00001632  1
  Ni  Ni13  1  0.49899426  0.50240843  0.16593510  1
  Ni  Ni14  1  0.33253272  0.33568325  0.33208881  1
  Ni  Ni15  1  0.33207970  0.66830047  0.00114407  1
  Ni  Ni16  1  0.50102120  0.82976582  0.16423408  1
  Ni  Ni17  1  0.33274219  0.66516879  0.33108515  1
  Ni  Ni18  1  0.66651896  0.99707115  0.99728485  1
  Cr  Cr19  1  0.83616310  0.16437933  0.16449017  1
  Ni  Ni20  1  0.66889275  0.99679893  0.33422519  1
  Ni  Ni21  1  0.66756539  0.33459616  0.99807466  1
  Ni  Ni22  1  0.83405436  0.50228952  0.16509495  1
  Cr  Cr23  1  0.66661120  0.33484095  0.33579657  1
  Ni  Ni24  1  0.66758383  0.66739966  0.00120235  1
  Ni  Ni25  1  0.83353842  0.83105602  0.16613771  1
  Ni  Ni26  1  0.66744144  0.66739861  0.33194050  1
  Cr  Cr27  1  0.16570568  0.16468432  0.49825867  1
  Ni  Ni28  1  0.99905591  0.99755988  0.66727984  1
  Ni  Ni29  1  0.16692713  0.16468468  0.83495976  1
  Cr  Cr30  1  0.16753419  0.50333049  0.50080657  1
  Cr  Cr31  1  0.99707076  0.33381940  0.66956299  1
  Fe  Fe32  1  0.16627350  0.50119705  0.83451694  1
  Ni  Ni33  1  0.16370650  0.83240280  0.50097740  1
  Ni  Ni34  1  0.99845549  0.66948738  0.66804791  1
  Ni  Ni35  1  0.16609760  0.83360693  0.83226094  1
  Ni  Ni36  1  0.50106135  0.16755487  0.50271233  1
  Ni  Ni37  1  0.33287473  0.99949805  0.66893569  1
  Ni  Ni38  1  0.49950774  0.16589960  0.83299259  1
  Ni  Ni39  1  0.50048155  0.49996138  0.50077277  1
  Ni  Ni40  1  0.33517642  0.33214514  0.66725941  1
  Cr  Cr41  1  0.50054534  0.50181523  0.83297311  1
  Cr  Cr42  1  0.49977420  0.83126416  0.50180057  1
  Ni  Ni43  1  0.33219331  0.66818148  0.66791065  1
  Ni  Ni44  1  0.49962342  0.83408594  0.83378995  1
  Ni  Ni45  1  0.83220715  0.16454911  0.50011828  1
  Ni  Ni46  1  0.66745879  0.00023743  0.66789318  1
  Ni  Ni47  1  0.83294437  0.16560048  0.83456834  1
  Ni  Ni48  1  0.83218242  0.50228876  0.50018164  1
  Ni  Ni49  1  0.66600928  0.33284297  0.66567490  1
  Ni  Ni50  1  0.83313730  0.50147653  0.83449870  1
  Ni  Ni51  1  0.83457555  0.83276235  0.50003895  1
  Ni  Ni52  1  0.66843126  0.66661728  0.66645355  1
  Ni  Ni53  1  0.83369577  0.83263697  0.83322894  1
" 