666,Ni82Fe7Cr9_7,-236.709372679348, 178.260221970177,Ni82Fe7Cr9,"# generated using pymatgen
 data_Cr3(FeNi11)2
_symmetry_space_group_name_H-M   'P 1'
_cell_length_a   7.45422994
_cell_length_b   7.45422994
_cell_length_c   10.54187308
_cell_angle_alpha   90.00000000
_cell_angle_beta   90.00000000
_cell_angle_gamma   90.00000000
_symmetry_Int_Tables_number   1
_chemical_formula_structural   Cr3(FeNi11)2
_chemical_formula_sum   'Cr6 Fe4 Ni44'
_cell_volume   585.76491234
_cell_formula_units_Z   2
loop_
 _symmetry_equiv_pos_site_id
 _symmetry_equiv_pos_as_xyz
  1  'x, y, z'
loop_
 _atom_site_type_symbol
 _atom_site_label
 _atom_site_symmetry_multiplicity
 _atom_site_fract_x
 _atom_site_fract_y
 _atom_site_fract_z
 _atom_site_occupancy
  Ni  Ni0  1  1.00073955  1.00080293  1.00057695  1
  Ni  Ni1  1  0.16806483  0.16853618  0.16803223  1
  Ni  Ni2  1  1.00054173  1.00063567  0.33479946  1
  Ni  Ni3  1  0.00215435  0.33327139  0.00189497  1
  Ni  Ni4  1  0.16679456  0.49979913  0.16663507  1
  Fe  Fe5  1  0.00184054  0.33267153  0.33367823  1
  Ni  Ni6  1  0.00215582  0.66850582  0.00176281  1
  Ni  Ni7  1  0.16691763  0.83424312  0.16650598  1
  Ni  Ni8  1  1.00003596  0.66889538  0.33377843  1
  Ni  Ni9  1  0.33382726  0.00098894  0.00117613  1
  Ni  Ni10  1  0.50118522  0.16766380  0.16740444  1
  Ni  Ni11  1  0.33308228  0.00257893  0.33386643  1
  Ni  Ni12  1  0.33401451  0.33468593  0.00094081  1
  Fe  Fe13  1  0.50134971  0.49974341  0.16630868  1
  Ni  Ni14  1  0.33301700  0.33245845  0.33269654  1
  Ni  Ni15  1  0.33382701  0.66690258  1.00032708  1
  Ni  Ni16  1  0.50231794  0.83513219  0.16721322  1
  Cr  Cr17  1  0.33305012  0.66810728  0.33437633  1
  Ni  Ni18  1  0.66801180  0.00098952  0.00087874  1
  Ni  Ni19  1  0.83332979  0.16778621  0.16777216  1
  Ni  Ni20  1  0.66895496  1.00065707  0.33396118  1
  Ni  Ni21  1  0.66640997  0.33327157  0.00139022  1
  Fe  Fe22  1  0.83442694  0.50122052  0.16735757  1
  Ni  Ni23  1  0.66760313  0.33296298  0.33203757  1
  Ni  Ni24  1  0.66659677  0.66831687  0.00198820  1
  Ni  Ni25  1  0.83334490  0.83386184  0.16763902  1
  Ni  Ni26  1  0.66954628  0.66896030  0.33297245  1
  Ni  Ni27  1  0.16506307  0.16679233  0.49938569  1
  Ni  Ni28  1  1.00025686  0.00086386  0.66720354  1
  Ni  Ni29  1  0.16636636  0.16709767  0.83516061  1
  Ni  Ni30  1  0.16570637  0.50087112  0.50151406  1
  Ni  Ni31  1  1.00079617  0.33253158  0.66644193  1
  Ni  Ni32  1  0.16903540  0.50120437  0.83442845  1
  Ni  Ni33  1  0.16697654  0.83491511  0.50184632  1
  Ni  Ni34  1  0.00272468  0.66918327  0.66703699  1
  Ni  Ni35  1  0.16845772  0.83427751  0.83422781  1
  Cr  Cr36  1  0.50156823  0.16477941  0.50013462  1
  Ni  Ni37  1  0.33323615  0.99798787  0.66753639  1
  Fe  Fe38  1  0.50147813  0.16635095  0.83546988  1
  Cr  Cr39  1  0.50120649  0.50274565  0.50102448  1
  Cr  Cr40  1  0.33245185  0.33503520  0.66913239  1
  Ni  Ni41  1  0.50011013  0.50215713  0.83513112  1
  Ni  Ni42  1  0.50162610  0.83492073  0.50180974  1
  Ni  Ni43  1  0.33331450  0.66951140  0.66801642  1
  Ni  Ni44  1  0.50075038  0.83338868  0.83355686  1
  Ni  Ni45  1  0.83588922  0.16614432  0.50124939  1
  Ni  Ni46  1  0.66908542  0.99991618  0.66774045  1
  Ni  Ni47  1  0.83432324  0.16645720  0.83355670  1
  Cr  Cr48  1  0.83545926  0.50083161  0.50119676  1
  Ni  Ni49  1  0.66941536  0.33260719  0.66915080  1
  Cr  Cr50  1  0.83409910  0.50053419  0.83394596  1
  Ni  Ni51  1  0.83397705  0.83556342  0.50091924  1
  Ni  Ni52  1  0.66654072  0.67005311  0.66761845  1
  Ni  Ni53  1  0.83337189  0.83605637  0.83402100  1
" 