3752,Ni82Fe18_18,-231.57039781677, 175.605143381724,Ni82Fe18,"# generated using pymatgen
 data_Fe22Ni5
_symmetry_space_group_name_H-M   'P 1'
_cell_length_a   7.40019696
_cell_length_b   7.40019696
_cell_length_c   10.46545890
_cell_angle_alpha   90.00000000
_cell_angle_beta   90.00000000
_cell_angle_gamma   90.00000000
_symmetry_Int_Tables_number   1
_chemical_formula_structural   Fe22Ni5
_chemical_formula_sum   'Fe44 Ni10'
_cell_volume   573.11903662
_cell_formula_units_Z   2
loop_
 _symmetry_equiv_pos_site_id
 _symmetry_equiv_pos_as_xyz
  1  'x, y, z'
loop_
 _atom_site_type_symbol
 _atom_site_label
 _atom_site_symmetry_multiplicity
 _atom_site_fract_x
 _atom_site_fract_y
 _atom_site_fract_z
 _atom_site_occupancy
  Ni  Ni0  1  0.00547255  1.00449988  0.00454090  1
  Fe  Fe1  1  0.17067540  0.17058666  0.17076883  1
  Fe  Fe2  1  0.00499484  0.00454522  0.33784899  1
  Fe  Fe3  1  1.00431864  0.33601020  1.00444693  1
  Fe  Fe4  1  0.17086817  0.50447209  0.17170759  1
  Fe  Fe5  1  0.00517448  0.33800046  0.33784861  1
  Fe  Fe6  1  1.00451574  0.67159857  1.00403701  1
  Fe  Fe7  1  0.17086655  0.83848873  0.17093311  1
  Fe  Fe8  1  0.00502332  0.67100441  0.33841917  1
  Ni  Ni9  1  0.33655658  1.00449351  0.00472060  1
  Fe  Fe10  1  0.50520431  0.17127443  0.17076476  1
  Fe  Fe11  1  0.33777544  1.00417302  0.33762232  1
  Fe  Fe12  1  0.33753474  0.33661237  1.00417454  1
  Fe  Fe13  1  0.50517243  0.50394828  0.17127316  1
  Fe  Fe14  1  0.33750570  0.33828222  0.33837224  1
  Fe  Fe15  1  0.33802989  0.67168698  0.00526654  1
  Fe  Fe16  1  0.50448693  0.83832927  0.17136490  1
  Ni  Ni17  1  0.33794599  0.67097997  0.33827842  1
  Fe  Fe18  1  0.67160759  0.00544867  0.00469640  1
  Ni  Ni19  1  0.83806319  0.17107962  0.17139630  1
  Fe  Fe20  1  0.67078017  1.00402194  0.33768758  1
  Ni  Ni21  1  0.67109728  0.33830274  0.00472120  1
  Fe  Fe22  1  0.83750877  0.50375634  0.17101808  1
  Fe  Fe23  1  0.67087005  0.33825401  0.33693761  1
  Fe  Fe24  1  0.67100479  0.67181813  1.00451415  1
  Fe  Fe25  1  0.83819720  0.83852211  0.17110961  1
  Fe  Fe26  1  0.67049777  0.67127473  0.33794221  1
  Ni  Ni27  1  0.17085620  0.17107987  0.50407385  1
  Ni  Ni28  1  0.00474529  1.00400431  0.67084645  1
  Ni  Ni29  1  0.17000767  0.17095566  0.83861967  1
  Fe  Fe30  1  0.17127305  0.50460581  0.50433604  1
  Fe  Fe31  1  0.00486383  0.33717415  0.67125419  1
  Fe  Fe32  1  0.17045190  0.50387751  0.83750708  1
  Fe  Fe33  1  0.17093194  0.83801781  0.50467701  1
  Ni  Ni34  1  0.00473454  0.67213679  0.67066660  1
  Fe  Fe35  1  0.17010652  0.83934262  0.83794062  1
  Fe  Fe36  1  0.50401115  0.17127378  0.50442934  1
  Fe  Fe37  1  0.33635432  1.00445933  0.67166376  1
  Fe  Fe38  1  0.50451795  0.17136349  0.83835794  1
  Fe  Fe39  1  0.50369723  0.50410861  0.50417656  1
  Fe  Fe40  1  0.33611335  0.33742983  0.67100429  1
  Fe  Fe41  1  0.50485823  0.50303625  0.83810276  1
  Fe  Fe42  1  0.50369380  0.83816777  0.50408396  1
  Fe  Fe43  1  0.33695863  0.67166254  0.67052636  1
  Fe  Fe44  1  0.50417253  0.83915181  0.83810387  1
  Fe  Fe45  1  0.83842963  0.17093006  0.50458810  1
  Fe  Fe46  1  0.67251176  1.00393274  0.67116537  1
  Ni  Ni47  1  0.83902440  0.17096001  0.83730332  1
  Fe  Fe48  1  0.83858043  0.50428812  0.50476932  1
  Fe  Fe49  1  0.67257296  0.33777593  0.67200539  1
  Fe  Fe50  1  0.83823986  0.50353158  0.83776195  1
  Fe  Fe51  1  0.83892495  0.83833176  0.50511043  1
  Fe  Fe52  1  0.67225549  0.67184268  0.67109405  1
  Fe  Fe53  1  0.83927191  0.83900265  0.83732800  1
" 