1562,Ni82Fe13Cr3_6,-239.784025691104, 191.736435831367,Ni82Fe13Cr3,"# generated using pymatgen
 data_Cr3Fe7Ni44
_symmetry_space_group_name_H-M   'P 1'
_cell_length_a   7.44090635
_cell_length_b   7.44090635
_cell_length_c   10.52303068
_cell_angle_alpha   90.00000000
_cell_angle_beta   90.00000000
_cell_angle_gamma   90.00000000
_symmetry_Int_Tables_number   1
_chemical_formula_structural   Cr3Fe7Ni44
_chemical_formula_sum   'Cr3 Fe7 Ni44'
_cell_volume   582.62955851
_cell_formula_units_Z   1
loop_
 _symmetry_equiv_pos_site_id
 _symmetry_equiv_pos_as_xyz
  1  'x, y, z'
loop_
 _atom_site_type_symbol
 _atom_site_label
 _atom_site_symmetry_multiplicity
 _atom_site_fract_x
 _atom_site_fract_y
 _atom_site_fract_z
 _atom_site_occupancy
  Ni  Ni0  1  1.00012604  1.00042331  1.00035647  1
  Cr  Cr1  1  0.16874759  0.16704425  0.16752679  1
  Ni  Ni2  1  1.00042982  1.00127236  0.33644913  1
  Ni  Ni3  1  1.00028959  0.33652632  1.00068080  1
  Ni  Ni4  1  0.16896703  0.50205760  0.16872291  1
  Ni  Ni5  1  1.00150794  0.33462741  0.33502917  1
  Ni  Ni6  1  0.00190118  0.66858009  0.00263198  1
  Ni  Ni7  1  0.16733929  0.83439464  0.16842598  1
  Fe  Fe8  1  0.00179641  0.66978133  0.33408727  1
  Ni  Ni9  1  0.33534429  1.00108774  0.99990883  1
  Ni  Ni10  1  0.50228755  0.17054802  0.16866940  1
  Ni  Ni11  1  0.33508718  1.00081411  0.33689438  1
  Ni  Ni12  1  0.33632780  0.33697494  1.00012888  1
  Ni  Ni13  1  0.50213690  0.50067539  0.16850563  1
  Ni  Ni14  1  0.33591132  0.33702782  0.33715522  1
  Ni  Ni15  1  0.33376846  0.66729345  1.00132711  1
  Cr  Cr16  1  0.50103897  0.83468433  0.16753559  1
  Ni  Ni17  1  0.33432783  0.66752927  0.33552776  1
  Ni  Ni18  1  0.67010082  0.00287501  1.00109030  1
  Ni  Ni19  1  0.83467106  0.16894637  0.16853015  1
  Ni  Ni20  1  0.67009787  0.00246079  0.33619762  1
  Ni  Ni21  1  0.66876068  0.33510065  0.00285646  1
  Ni  Ni22  1  0.83414489  0.50147975  0.16817725  1
  Ni  Ni23  1  0.66810324  0.33436801  0.33346994  1
  Ni  Ni24  1  0.66937336  0.66729588  0.99993095  1
  Ni  Ni25  1  0.83611855  0.83491229  0.16858916  1
  Ni  Ni26  1  0.66729019  0.66850372  0.33582850  1
  Ni  Ni27  1  0.16780274  0.16789575  0.50221980  1
  Ni  Ni28  1  1.00166486  1.00155615  0.66831951  1
  Ni  Ni29  1  0.16783429  0.16767655  0.83493597  1
  Fe  Fe30  1  0.16851916  0.50256370  0.50147852  1
  Ni  Ni31  1  1.00141311  0.33483565  0.66946168  1
  Fe  Fe32  1  0.16694455  0.50322320  0.83596871  1
  Ni  Ni33  1  0.16932827  0.83746241  0.50134669  1
  Ni  Ni34  1  0.00461743  0.66943423  0.66870567  1
  Ni  Ni35  1  0.16915782  0.83733903  0.83557056  1
  Fe  Fe36  1  0.50297274  0.16704624  0.50070799  1
  Ni  Ni37  1  0.33558587  0.99992599  0.66819466  1
  Fe  Fe38  1  0.50322428  0.16694299  0.83616154  1
  Ni  Ni39  1  0.50082298  0.50233384  0.50186807  1
  Fe  Fe40  1  0.33451276  0.33410022  0.66855071  1
  Ni  Ni41  1  0.50260735  0.50241893  0.83498383  1
  Ni  Ni42  1  0.50107635  0.83306920  0.50229597  1
  Ni  Ni43  1  0.33420698  0.66853995  0.66834921  1
  Ni  Ni44  1  0.50089744  0.83324534  0.83470590  1
  Ni  Ni45  1  0.83746464  0.16818496  0.50175955  1
  Ni  Ni46  1  0.66843920  0.00311774  0.66791257  1
  Ni  Ni47  1  0.83730418  0.16939302  0.83501279  1
  Cr  Cr48  1  0.83273813  0.50112000  0.50199968  1
  Ni  Ni49  1  0.66796107  0.33323071  0.66904326  1
  Ni  Ni50  1  0.83326037  0.50105449  0.83505324  1
  Ni  Ni51  1  0.83503166  0.83680239  0.50251272  1
  Fe  Fe52  1  0.66823589  0.67014919  0.66928912  1
  Ni  Ni53  1  0.83523594  0.83490922  0.83421437  1
" 