402,Ni82Fe7Cr9_16,-236.677292037977, 178.214034832284,Ni82Fe7Cr9,"# generated using pymatgen
 data_Cr3(FeNi11)2
_symmetry_space_group_name_H-M   'P 1'
_cell_length_a   7.45594047
_cell_length_b   7.45594047
_cell_length_c   10.54429214
_cell_angle_alpha   90.00000000
_cell_angle_beta   90.00000000
_cell_angle_gamma   90.00000000
_symmetry_Int_Tables_number   1
_chemical_formula_structural   Cr3(FeNi11)2
_chemical_formula_sum   'Cr6 Fe4 Ni44'
_cell_volume   586.16825374
_cell_formula_units_Z   2
loop_
 _symmetry_equiv_pos_site_id
 _symmetry_equiv_pos_as_xyz
  1  'x, y, z'
loop_
 _atom_site_type_symbol
 _atom_site_label
 _atom_site_symmetry_multiplicity
 _atom_site_fract_x
 _atom_site_fract_y
 _atom_site_fract_z
 _atom_site_occupancy
  Ni  Ni0  1  0.00183723  1.00018797  0.99911485  1
  Ni  Ni1  1  0.16946191  0.16828270  0.16750736  1
  Ni  Ni2  1  0.00415116  0.00100866  0.33444719  1
  Ni  Ni3  1  0.99998349  0.33408329  1.00071533  1
  Ni  Ni4  1  0.16681547  0.50044849  0.16763959  1
  Ni  Ni5  1  0.00134483  0.33507245  0.33523189  1
  Ni  Ni6  1  0.99975300  0.66796423  0.00126017  1
  Fe  Fe7  1  0.16729127  0.83424377  0.16736500  1
  Ni  Ni8  1  0.00132873  0.66615534  0.33315470  1
  Ni  Ni9  1  0.33342645  0.00120416  0.00163397  1
  Ni  Ni10  1  0.49788601  0.16681208  0.16646020  1
  Ni  Ni11  1  0.33251128  0.00076487  0.33425731  1
  Fe  Fe12  1  0.33467381  0.33287499  0.00139228  1
  Fe  Fe13  1  0.50117540  0.50089830  0.16762166  1
  Ni  Ni14  1  0.33370865  0.33370548  0.33379598  1
  Ni  Ni15  1  0.33415011  0.66831398  0.00175744  1
  Ni  Ni16  1  0.50064798  0.83371389  0.16695067  1
  Ni  Ni17  1  0.33396728  0.66776331  0.33499416  1
  Ni  Ni18  1  0.66697105  0.00096772  1.00034349  1
  Cr  Cr19  1  0.83490463  0.16782503  0.16733708  1
  Cr  Cr20  1  0.66559721  0.00091483  0.33433640  1
  Ni  Ni21  1  0.66731736  0.33480527  0.99915051  1
  Ni  Ni22  1  0.83509900  0.50320787  0.16762455  1
  Ni  Ni23  1  0.66718363  0.33652851  0.33570303  1
  Ni  Ni24  1  0.66833295  0.66645728  0.00157733  1
  Ni  Ni25  1  0.83362910  0.83107089  0.16617145  1
  Ni  Ni26  1  0.66693807  0.66495582  0.33302372  1
  Ni  Ni27  1  0.16767678  0.16783747  0.50026892  1
  Fe  Fe28  1  0.00193327  0.00187089  0.66834659  1
  Ni  Ni29  1  0.16720897  0.16602021  0.83445577  1
  Ni  Ni30  1  0.16754278  0.50082065  0.50087811  1
  Ni  Ni31  1  0.99975114  0.33371820  0.66629099  1
  Cr  Cr32  1  0.16760965  0.50094521  0.83349746  1
  Ni  Ni33  1  0.16962970  0.83357718  0.50041621  1
  Ni  Ni34  1  0.00263442  0.66685804  0.66781877  1
  Ni  Ni35  1  0.16569706  0.83529136  0.83437732  1
  Ni  Ni36  1  0.50000835  0.16795122  0.50162526  1
  Ni  Ni37  1  0.33376023  0.00141763  0.66633985  1
  Ni  Ni38  1  0.50128092  0.16862556  0.83415033  1
  Ni  Ni39  1  0.49963403  0.50020106  0.49947325  1
  Ni  Ni40  1  0.33461322  0.33265344  0.66723444  1
  Ni  Ni41  1  0.50163491  0.49853135  0.83544181  1
  Ni  Ni42  1  0.49743820  0.83408408  0.50063781  1
  Ni  Ni43  1  0.33196799  0.66816166  0.66548084  1
  Cr  Cr44  1  0.50033230  0.83469989  0.83411231  1
  Ni  Ni45  1  0.83455182  0.17003978  0.50149681  1
  Ni  Ni46  1  0.66656348  0.00430335  0.66776388  1
  Ni  Ni47  1  0.83374484  0.16724656  0.83397096  1
  Ni  Ni48  1  0.83505731  0.49825192  0.49953131  1
  Ni  Ni49  1  0.66787200  0.33192394  0.66738571  1
  Ni  Ni50  1  0.83352992  0.50004654  0.83507865  1
  Cr  Cr51  1  0.83482104  0.83411792  0.50045820  1
  Cr  Cr52  1  0.66751141  0.66585240  0.66757132  1
  Ni  Ni53  1  0.83612921  0.83494332  0.83555185  1
" 