8433,Ni82Fe9Cr8_11,-237.778831965558, 183.564137166767,Ni82Fe9Cr8,"# generated using pymatgen
 data_Cr5Fe5Ni44
_symmetry_space_group_name_H-M   'P 1'
_cell_length_a   7.45019056
_cell_length_b   7.45019056
_cell_length_c   10.53616053
_cell_angle_alpha   90.00000000
_cell_angle_beta   90.00000000
_cell_angle_gamma   90.00000000
_symmetry_Int_Tables_number   1
_chemical_formula_structural   Cr5Fe5Ni44
_chemical_formula_sum   'Cr5 Fe5 Ni44'
_cell_volume   584.81316535
_cell_formula_units_Z   1
loop_
 _symmetry_equiv_pos_site_id
 _symmetry_equiv_pos_as_xyz
  1  'x, y, z'
loop_
 _atom_site_type_symbol
 _atom_site_label
 _atom_site_symmetry_multiplicity
 _atom_site_fract_x
 _atom_site_fract_y
 _atom_site_fract_z
 _atom_site_occupancy
  Ni  Ni0  1  0.00162453  1.00023796  0.00142577  1
  Cr  Cr1  1  0.16791533  0.16805129  0.16895320  1
  Ni  Ni2  1  0.99966217  1.00022537  0.33415818  1
  Ni  Ni3  1  0.99896026  0.33505739  0.99960328  1
  Cr  Cr4  1  0.16738625  0.50057265  0.16809045  1
  Ni  Ni5  1  0.99760132  0.33461338  0.33643033  1
  Ni  Ni6  1  1.00019396  0.66819553  0.00165033  1
  Ni  Ni7  1  0.16758348  0.83472348  0.16636138  1
  Ni  Ni8  1  0.99954194  0.66853410  0.33446456  1
  Ni  Ni9  1  0.33556911  1.00049341  1.00060111  1
  Ni  Ni10  1  0.50259167  0.16768015  0.16779072  1
  Ni  Ni11  1  0.33518989  0.00135755  0.33336266  1
  Ni  Ni12  1  0.33726976  0.33352663  0.99998557  1
  Ni  Ni13  1  0.50300454  0.50086930  0.16736860  1
  Ni  Ni14  1  0.33809407  0.33459512  0.33699390  1
  Fe  Fe15  1  0.33589480  0.66808407  1.00037092  1
  Ni  Ni16  1  0.50181793  0.83485763  0.16727628  1
  Ni  Ni17  1  0.33507093  0.66748151  0.33256769  1
  Ni  Ni18  1  0.66618665  0.00159920  0.00288363  1
  Ni  Ni19  1  0.83296807  0.16765894  0.16620139  1
  Fe  Fe20  1  0.66893157  0.00334047  0.33372389  1
  Ni  Ni21  1  0.66697183  0.33522284  1.00105331  1
  Ni  Ni22  1  0.83306412  0.50133545  0.16726051  1
  Ni  Ni23  1  0.66771636  0.33466807  0.33388089  1
  Ni  Ni24  1  0.66768729  0.66681227  0.00287362  1
  Ni  Ni25  1  0.83419975  0.83446268  0.16862967  1
  Fe  Fe26  1  0.66855453  0.66582707  0.33365024  1
  Ni  Ni27  1  0.16773175  0.16993958  0.50080902  1
  Ni  Ni28  1  0.00131158  0.00278379  0.66768734  1
  Ni  Ni29  1  0.16833231  0.16891409  0.83416063  1
  Ni  Ni30  1  0.16765236  0.49880596  0.50119347  1
  Ni  Ni31  1  1.00090121  0.33482001  0.66743073  1
  Ni  Ni32  1  0.16719486  0.49900315  0.83417871  1
  Cr  Cr33  1  0.16667366  0.83454031  0.50236790  1
  Ni  Ni34  1  1.00090676  0.66593466  0.66709573  1
  Fe  Fe35  1  0.16946655  0.83386592  0.83465014  1
  Ni  Ni36  1  0.50094812  0.16937156  0.50129419  1
  Ni  Ni37  1  0.33466653  0.00318091  0.66950274  1
  Ni  Ni38  1  0.49961530  0.16734578  0.83435565  1
  Ni  Ni39  1  0.50108159  0.49941353  0.50163786  1
  Ni  Ni40  1  0.33503354  0.33443097  0.66651133  1
  Ni  Ni41  1  0.50136833  0.50099345  0.83438328  1
  Cr  Cr42  1  0.50366395  0.83453835  0.50223168  1
  Ni  Ni43  1  0.33476787  0.66570433  0.67048710  1
  Ni  Ni44  1  0.50134971  0.83510553  0.83440742  1
  Ni  Ni45  1  0.83475392  0.16775651  0.50230351  1
  Ni  Ni46  1  0.66743529  0.00320445  0.66704505  1
  Fe  Fe47  1  0.83330890  0.17010158  0.83467199  1
  Ni  Ni48  1  0.83467461  0.50121606  0.50148685  1
  Ni  Ni49  1  0.66731585  0.33495897  0.66833903  1
  Ni  Ni50  1  0.83494313  0.50101752  0.83465439  1
  Ni  Ni51  1  0.83439345  0.83448290  0.50097079  1
  Ni  Ni52  1  0.66790157  0.66548344  0.66669155  1
  Cr  Cr53  1  0.83244632  0.83409430  0.83293094  1
" 