5041,Ni82Fe3Cr14_10,-233.423648738594, 162.584325083839,Ni82Fe3Cr14,"# generated using pymatgen
 data_Cr9FeNi44
_symmetry_space_group_name_H-M   'P 1'
_cell_length_a   7.47031416
_cell_length_b   7.47031416
_cell_length_c   10.56461960
_cell_angle_alpha   90.00000000
_cell_angle_beta   90.00000000
_cell_angle_gamma   90.00000000
_symmetry_Int_Tables_number   1
_chemical_formula_structural   Cr9FeNi44
_chemical_formula_sum   'Cr9 Fe1 Ni44'
_cell_volume   589.56486921
_cell_formula_units_Z   1
loop_
 _symmetry_equiv_pos_site_id
 _symmetry_equiv_pos_as_xyz
  1  'x, y, z'
loop_
 _atom_site_type_symbol
 _atom_site_label
 _atom_site_symmetry_multiplicity
 _atom_site_fract_x
 _atom_site_fract_y
 _atom_site_fract_z
 _atom_site_occupancy
  Ni  Ni0  1  -0.00007270  0.99958555  -0.00006956  1
  Ni  Ni1  1  0.16865810  0.16595682  0.16426322  1
  Cr  Cr2  1  -0.00021077  0.99837943  0.33397315  1
  Ni  Ni3  1  0.00180920  0.33210692  0.99828327  1
  Ni  Ni4  1  0.16830517  0.49950365  0.16670593  1
  Cr  Cr5  1  0.99927074  0.33148210  0.33354252  1
  Ni  Ni6  1  -0.00010452  0.66764951  0.99916915  1
  Ni  Ni7  1  0.16685998  0.83383194  0.16703213  1
  Ni  Ni8  1  -0.00010054  0.66855109  0.33347870  1
  Ni  Ni9  1  0.33365763  0.00114729  0.99970059  1
  Ni  Ni10  1  0.49853503  0.16461274  0.16847282  1
  Ni  Ni11  1  0.33499388  0.99959184  0.33359381  1
  Ni  Ni12  1  0.33187134  0.33132619  0.00019586  1
  Ni  Ni13  1  0.49805586  0.50005660  0.16870660  1
  Ni  Ni14  1  0.33517265  0.33116090  0.33040568  1
  Cr  Cr15  1  0.33517987  0.66564753  0.99919995  1
  Ni  Ni16  1  0.50093690  0.83458374  0.16735160  1
  Ni  Ni17  1  0.33362899  0.66860221  0.33124941  1
  Ni  Ni18  1  0.66579884  0.99863923  -0.00005485  1
  Ni  Ni19  1  0.83207963  0.16342054  0.16527203  1
  Ni  Ni20  1  0.66460244  -0.00014478  0.33313810  1
  Cr  Cr21  1  0.66279838  0.33251416  0.99940524  1
  Cr  Cr22  1  0.83305892  0.50205082  0.16708161  1
  Ni  Ni23  1  0.66424477  0.33103634  0.33350361  1
  Ni  Ni24  1  0.66692696  0.66895881  0.99850370  1
  Ni  Ni25  1  0.83172102  0.83453140  0.16564240  1
  Ni  Ni26  1  0.66570396  0.66824030  0.33294174  1
  Ni  Ni27  1  0.16933647  0.16584240  0.50110864  1
  Cr  Cr28  1  0.99969437  0.00069884  0.66546319  1
  Ni  Ni29  1  0.16754809  0.16701572  0.83395765  1
  Cr  Cr30  1  0.16795134  0.49932797  0.49952542  1
  Ni  Ni31  1  0.99861962  0.33192484  0.66746648  1
  Ni  Ni32  1  0.16658962  0.49742006  0.83295461  1
  Ni  Ni33  1  0.17060752  0.83468811  0.49853040  1
  Cr  Cr34  1  0.99921002  0.66698677  0.66635493  1
  Ni  Ni35  1  0.16781606  0.83489356  0.83362172  1
  Fe  Fe36  1  0.49977304  0.16478589  0.50001810  1
  Ni  Ni37  1  0.33489107  0.99949914  0.66613943  1
  Ni  Ni38  1  0.49868395  0.16489141  0.83134252  1
  Cr  Cr39  1  0.50075098  0.50076304  0.49958963  1
  Ni  Ni40  1  0.33362719  0.33131546  0.66891011  1
  Ni  Ni41  1  0.49982944  0.49964996  0.83105065  1
  Ni  Ni42  1  0.50000803  0.83453151  0.50008982  1
  Ni  Ni43  1  0.33516886  0.66843042  0.66838924  1
  Ni  Ni44  1  0.50107551  0.83480232  0.83182317  1
  Ni  Ni45  1  0.83041144  0.16707165  0.50090814  1
  Ni  Ni46  1  0.66482602  -0.00016475  0.66638623  1
  Ni  Ni47  1  0.83306010  0.16595740  0.83329722  1
  Ni  Ni48  1  0.83053876  0.49939959  0.50004338  1
  Ni  Ni49  1  0.66712172  0.33216077  0.66689429  1
  Ni  Ni50  1  0.83296780  0.49962271  0.83214811  1
  Ni  Ni51  1  0.82875565  0.83273268  0.49827647  1
  Ni  Ni52  1  0.66525849  0.66722846  0.66784107  1
  Ni  Ni53  1  0.83069080  0.83369488  0.83537466  1
" 