3298,Ni82Fe7Cr9_2,-236.583792417354, 178.05407381375,Ni82Fe7Cr9,"# generated using pymatgen
 data_Cr3(FeNi11)2
_symmetry_space_group_name_H-M   'P 1'
_cell_length_a   7.45537380
_cell_length_b   7.45537380
_cell_length_c   10.54349074
_cell_angle_alpha   90.00000000
_cell_angle_beta   90.00000000
_cell_angle_gamma   90.00000000
_symmetry_Int_Tables_number   1
_chemical_formula_structural   Cr3(FeNi11)2
_chemical_formula_sum   'Cr6 Fe4 Ni44'
_cell_volume   586.03461298
_cell_formula_units_Z   2
loop_
 _symmetry_equiv_pos_site_id
 _symmetry_equiv_pos_as_xyz
  1  'x, y, z'
loop_
 _atom_site_type_symbol
 _atom_site_label
 _atom_site_symmetry_multiplicity
 _atom_site_fract_x
 _atom_site_fract_y
 _atom_site_fract_z
 _atom_site_occupancy
  Ni  Ni0  1  0.00121849  0.00161909  1.00043503  1
  Ni  Ni1  1  0.16839547  0.16819719  0.16616941  1
  Ni  Ni2  1  0.99997518  0.00095028  0.33562838  1
  Ni  Ni3  1  0.00253868  0.33418038  0.99888718  1
  Ni  Ni4  1  0.16940944  0.50081901  0.16765959  1
  Ni  Ni5  1  0.00272859  0.33455170  0.33581215  1
  Ni  Ni6  1  0.00135802  0.66654801  1.00055369  1
  Ni  Ni7  1  0.16816639  0.83333126  0.16680424  1
  Ni  Ni8  1  0.00167329  0.66684718  0.33545036  1
  Ni  Ni9  1  0.33532628  0.00179340  0.00165897  1
  Ni  Ni10  1  0.49968712  0.16830845  0.16629015  1
  Cr  Cr11  1  0.33452616  0.00087352  0.33387618  1
  Ni  Ni12  1  0.33407010  0.33407910  0.00116513  1
  Ni  Ni13  1  0.49868062  0.50071715  0.16777788  1
  Ni  Ni14  1  0.33371333  0.33600219  0.33371020  1
  Ni  Ni15  1  0.33508487  0.66647729  0.00229507  1
  Ni  Ni16  1  0.49982285  0.83332459  0.16640633  1
  Ni  Ni17  1  0.33451168  0.66514076  0.33387144  1
  Ni  Ni18  1  0.66580647  1.00060789  0.99942624  1
  Cr  Cr19  1  0.83411574  0.16705530  0.16811117  1
  Ni  Ni20  1  0.66761650  1.00015176  0.33538836  1
  Ni  Ni21  1  0.66573681  0.33394077  0.99981309  1
  Cr  Cr22  1  0.83410929  0.50098956  0.16698063  1
  Fe  Fe23  1  0.66577367  0.33472342  0.33560613  1
  Ni  Ni24  1  0.66590793  0.66779943  0.99885216  1
  Cr  Cr25  1  0.83450544  0.83430607  0.16724157  1
  Ni  Ni26  1  0.66616150  0.66789157  0.33590562  1
  Ni  Ni27  1  0.16596434  0.16740822  0.50093182  1
  Ni  Ni28  1  0.99957916  0.00112789  0.66629149  1
  Ni  Ni29  1  0.16594693  0.16874438  0.83524862  1
  Ni  Ni30  1  0.16617896  0.50137106  0.49964453  1
  Ni  Ni31  1  0.99919370  0.33449643  0.66765920  1
  Ni  Ni32  1  0.16675366  0.49968201  0.83504806  1
  Ni  Ni33  1  0.16593920  0.83356791  0.50150872  1
  Ni  Ni34  1  1.00044195  0.66672479  0.66633905  1
  Cr  Cr35  1  0.16737650  0.83421834  0.83384352  1
  Ni  Ni36  1  0.50210470  0.16752348  0.50077122  1
  Ni  Ni37  1  0.33553877  0.99967557  0.66661721  1
  Ni  Ni38  1  0.50239293  0.16722201  0.83528461  1
  Ni  Ni39  1  0.50181632  0.50118270  0.49945703  1
  Cr  Cr40  1  0.33396592  0.33417742  0.66765366  1
  Ni  Ni41  1  0.50151624  0.50112928  0.83511157  1
  Ni  Ni42  1  0.50194517  0.83364354  0.50184025  1
  Ni  Ni43  1  0.33449777  0.66835860  0.66618090  1
  Ni  Ni44  1  0.50307665  0.83399723  0.83409771  1
  Fe  Fe45  1  0.83432091  0.16724226  0.50131831  1
  Ni  Ni46  1  0.66723078  0.00091556  0.66754476  1
  Ni  Ni47  1  0.83400854  0.16718886  0.83382007  1
  Ni  Ni48  1  0.83435406  0.50121174  0.50115188  1
  Ni  Ni49  1  0.66886676  0.33345194  0.66697048  1
  Fe  Fe50  1  0.83408213  0.50012117  0.83408981  1
  Ni  Ni51  1  0.83446634  0.83385539  0.50034968  1
  Fe  Fe52  1  0.66753610  0.66800955  0.66715225  1
  Ni  Ni53  1  0.83256284  0.83480359  0.83457450  1
" 