2753,Ni82Fe3Cr14_0,-233.402377592345, 160.780383178368,Ni82Fe3Cr14,"# generated using pymatgen
 data_Cr9FeNi44
_symmetry_space_group_name_H-M   'P 1'
_cell_length_a   7.47127973
_cell_length_b   7.47127973
_cell_length_c   10.56598513
_cell_angle_alpha   90.00000000
_cell_angle_beta   90.00000000
_cell_angle_gamma   90.00000000
_symmetry_Int_Tables_number   1
_chemical_formula_structural   Cr9FeNi44
_chemical_formula_sum   'Cr9 Fe1 Ni44'
_cell_volume   589.79351049
_cell_formula_units_Z   1
loop_
 _symmetry_equiv_pos_site_id
 _symmetry_equiv_pos_as_xyz
  1  'x, y, z'
loop_
 _atom_site_type_symbol
 _atom_site_label
 _atom_site_symmetry_multiplicity
 _atom_site_fract_x
 _atom_site_fract_y
 _atom_site_fract_z
 _atom_site_occupancy
  Ni  Ni0  1  0.99650661  0.00004593  0.00023477  1
  Ni  Ni1  1  0.16504940  0.16621371  0.16571503  1
  Ni  Ni2  1  0.99872558  0.99825836  0.33208295  1
  Ni  Ni3  1  0.99916866  0.33402832  0.99895127  1
  Ni  Ni4  1  0.16522426  0.49970262  0.16592983  1
  Ni  Ni5  1  0.99677144  0.33437405  0.33242969  1
  Ni  Ni6  1  0.99742610  0.66507646  0.00019706  1
  Ni  Ni7  1  0.16504855  0.83323357  0.16856866  1
  Ni  Ni8  1  -0.00017106  0.66651828  0.33316016  1
  Cr  Cr9  1  0.33417745  0.00195592  0.00105529  1
  Ni  Ni10  1  0.50080600  0.16655789  0.16610101  1
  Ni  Ni11  1  0.33414027  0.99664803  0.33210733  1
  Ni  Ni12  1  0.33268352  0.33280445  -0.00019663  1
  Ni  Ni13  1  0.50088080  0.49960662  0.16639462  1
  Cr  Cr14  1  0.33423408  0.33366461  0.33151579  1
  Cr  Cr15  1  0.33223507  0.66505511  0.00130446  1
  Ni  Ni16  1  0.50071228  0.83298587  0.16794612  1
  Ni  Ni17  1  0.33286361  0.66829954  0.33372813  1
  Ni  Ni18  1  0.66803227  0.00026508  0.99877796  1
  Ni  Ni19  1  0.83329413  0.16638379  0.16650731  1
  Ni  Ni20  1  0.66628464  0.99970639  0.33353056  1
  Ni  Ni21  1  0.66729803  0.33188144  0.00060569  1
  Ni  Ni22  1  0.83304600  0.49960916  0.16625548  1
  Ni  Ni23  1  0.66806705  0.33309715  0.33333311  1
  Fe  Fe24  1  0.66937933  0.66693667  0.00075686  1
  Ni  Ni25  1  0.83339029  0.83315741  0.16578685  1
  Ni  Ni26  1  0.66645829  0.66634687  0.33263560  1
  Cr  Cr27  1  0.16517328  0.16539709  0.50101756  1
  Ni  Ni28  1  0.99849986  0.00125295  0.66683198  1
  Ni  Ni29  1  0.16543405  0.16904761  0.83214186  1
  Ni  Ni30  1  0.16662013  0.50169345  0.50065365  1
  Ni  Ni31  1  0.00116455  0.33242706  0.66776988  1
  Ni  Ni32  1  0.16486316  0.49609068  0.83256645  1
  Ni  Ni33  1  0.16749216  0.83182275  0.49883033  1
  Cr  Cr34  1  0.00045003  0.66531685  0.66559453  1
  Cr  Cr35  1  0.16559257  0.83403595  0.83159730  1
  Ni  Ni36  1  0.50163145  0.16492932  0.50024573  1
  Ni  Ni37  1  0.33499178  0.99963999  0.66669580  1
  Ni  Ni38  1  0.49960823  0.16476730  0.83280259  1
  Ni  Ni39  1  0.49897350  0.50095985  0.49905959  1
  Ni  Ni40  1  0.33128063  0.33299108  0.66743638  1
  Cr  Cr41  1  0.49866381  0.49915295  0.83387281  1
  Ni  Ni42  1  0.49880549  0.83326012  0.49960697  1
  Ni  Ni43  1  0.33266454  0.66651919  0.66437199  1
  Ni  Ni44  1  0.50234979  0.83555594  0.83159959  1
  Ni  Ni45  1  0.83211863  0.16580184  0.49926111  1
  Ni  Ni46  1  0.66565814  -0.00013117  0.66684205  1
  Ni  Ni47  1  0.83410797  0.16533792  0.83338036  1
  Ni  Ni48  1  0.83355739  0.49886617  0.49733425  1
  Cr  Cr49  1  0.66735599  0.33055244  0.66457844  1
  Ni  Ni50  1  0.83565147  0.49882982  0.83556061  1
  Ni  Ni51  1  0.83285279  0.83448230  0.49861916  1
  Cr  Cr52  1  0.66604364  0.66870969  0.66627382  1
  Ni  Ni53  1  0.83136811  0.83498335  0.83474604  1
" 