6912,Ni82Fe3Cr14_6,-233.503930416664, 161.095851485245,Ni82Fe3Cr14,"# generated using pymatgen
 data_Cr9FeNi44
_symmetry_space_group_name_H-M   'P 1'
_cell_length_a   7.46758717
_cell_length_b   7.46758717
_cell_length_c   10.56076305
_cell_angle_alpha   90.00000000
_cell_angle_beta   90.00000000
_cell_angle_gamma   90.00000000
_symmetry_Int_Tables_number   1
_chemical_formula_structural   Cr9FeNi44
_chemical_formula_sum   'Cr9 Fe1 Ni44'
_cell_volume   588.91945294
_cell_formula_units_Z   1
loop_
 _symmetry_equiv_pos_site_id
 _symmetry_equiv_pos_as_xyz
  1  'x, y, z'
loop_
 _atom_site_type_symbol
 _atom_site_label
 _atom_site_symmetry_multiplicity
 _atom_site_fract_x
 _atom_site_fract_y
 _atom_site_fract_z
 _atom_site_occupancy
  Ni  Ni0  1  0.00230301  0.99899319  0.99839297  1
  Ni  Ni1  1  0.17008599  0.16666115  0.16597695  1
  Cr  Cr2  1  0.00199566  0.99900948  0.33485371  1
  Ni  Ni3  1  0.00203399  0.33335344  0.00027535  1
  Ni  Ni4  1  0.16603268  0.49966025  0.16573805  1
  Ni  Ni5  1  0.00093812  0.33605091  0.33408847  1
  Ni  Ni6  1  0.00103371  0.66752527  0.00147731  1
  Ni  Ni7  1  0.16620448  0.83358153  0.16507014  1
  Ni  Ni8  1  0.99813763  0.66481246  0.33335322  1
  Ni  Ni9  1  0.33157685  0.00010508  0.00076720  1
  Ni  Ni10  1  0.49617661  0.16888675  0.16726508  1
  Ni  Ni11  1  0.33257747  0.00290441  0.33205995  1
  Ni  Ni12  1  0.33314028  0.33349295  0.99996159  1
  Ni  Ni13  1  0.50125380  0.49858904  0.16572921  1
  Ni  Ni14  1  0.33343329  0.33156854  0.33356206  1
  Ni  Ni15  1  0.33297999  0.66626396  0.99924677  1
  Fe  Fe16  1  0.49854545  0.83197376  0.16539465  1
  Cr  Cr17  1  0.33142756  0.66496945  0.33275810  1
  Cr  Cr18  1  0.66636988  0.99950330  0.99839189  1
  Cr  Cr19  1  0.83435297  0.16971771  0.16520395  1
  Cr  Cr20  1  0.66536104  0.00012948  0.33362106  1
  Ni  Ni21  1  0.66475248  0.33475125  0.99994706  1
  Ni  Ni22  1  0.83260105  0.50251472  0.16726466  1
  Ni  Ni23  1  0.66553222  0.33567583  0.33445911  1
  Ni  Ni24  1  0.66585319  0.66595466  0.00121476  1
  Ni  Ni25  1  0.83482960  0.82847790  0.16591257  1
  Ni  Ni26  1  0.66935461  0.66393379  0.33231990  1
  Ni  Ni27  1  0.16674463  0.16800279  0.49929212  1
  Ni  Ni28  1  0.99948608  0.99983255  0.66677504  1
  Ni  Ni29  1  0.16595308  0.16675929  0.83464151  1
  Ni  Ni30  1  0.16561212  0.49909852  0.50081652  1
  Ni  Ni31  1  0.00092236  0.33253188  0.66550688  1
  Ni  Ni32  1  0.16877709  0.50018618  0.83333345  1
  Ni  Ni33  1  0.16383736  0.83281027  0.50087192  1
  Ni  Ni34  1  0.00105855  0.66750483  0.66505356  1
  Ni  Ni35  1  0.16597656  0.83293337  0.83393651  1
  Ni  Ni36  1  0.49897487  0.17106849  0.49842147  1
  Cr  Cr37  1  0.33118987  0.00081127  0.66710406  1
  Ni  Ni38  1  0.49895425  0.16916008  0.83420255  1
  Ni  Ni39  1  0.50126445  0.49718225  0.50129262  1
  Ni  Ni40  1  0.33325802  0.33560361  0.66636856  1
  Ni  Ni41  1  0.49847447  0.50008541  0.83284274  1
  Cr  Cr42  1  0.49935567  0.83146431  0.49946512  1
  Ni  Ni43  1  0.33220253  0.66357324  0.66790799  1
  Ni  Ni44  1  0.49885666  0.83067587  0.83495803  1
  Ni  Ni45  1  0.83417112  0.16937249  0.50128994  1
  Cr  Cr46  1  0.66951621  0.00119825  0.66784095  1
  Ni  Ni47  1  0.83500227  0.16635714  0.83312031  1
  Ni  Ni48  1  0.83301116  0.50005844  0.49883131  1
  Ni  Ni49  1  0.66572734  0.33404425  0.66548310  1
  Cr  Cr50  1  0.83310765  0.49973841  0.83399371  1
  Ni  Ni51  1  0.83601072  0.83045985  0.50093012  1
  Ni  Ni52  1  0.66665163  0.66505509  0.66641249  1
  Ni  Ni53  1  0.83506879  0.83342078  0.83305081  1
" 