349,Ni82Fe3Cr14_7,-233.274172936356, 159.309019350405,Ni82Fe3Cr14,"# generated using pymatgen
 data_Cr9FeNi44
_symmetry_space_group_name_H-M   'P 1'
_cell_length_a   7.47151441
_cell_length_b   7.47151441
_cell_length_c   10.56631701
_cell_angle_alpha   90.00000000
_cell_angle_beta   90.00000000
_cell_angle_gamma   90.00000000
_symmetry_Int_Tables_number   1
_chemical_formula_structural   Cr9FeNi44
_chemical_formula_sum   'Cr9 Fe1 Ni44'
_cell_volume   589.84908903
_cell_formula_units_Z   1
loop_
 _symmetry_equiv_pos_site_id
 _symmetry_equiv_pos_as_xyz
  1  'x, y, z'
loop_
 _atom_site_type_symbol
 _atom_site_label
 _atom_site_symmetry_multiplicity
 _atom_site_fract_x
 _atom_site_fract_y
 _atom_site_fract_z
 _atom_site_occupancy
  Ni  Ni0  1  0.99936572  0.99864031  0.00015869  1
  Ni  Ni1  1  0.16623177  0.16776325  0.16471170  1
  Cr  Cr2  1  0.99775750  0.00053002  0.33035165  1
  Ni  Ni3  1  0.99789605  0.33275313  0.00166657  1
  Ni  Ni4  1  0.16460212  0.49958837  0.16721889  1
  Ni  Ni5  1  0.99851701  0.33579950  0.33266553  1
  Ni  Ni6  1  0.99895884  0.66770982  0.00036707  1
  Ni  Ni7  1  0.16623234  0.83175151  0.16433537  1
  Ni  Ni8  1  0.99957996  0.66277514  0.33160036  1
  Ni  Ni9  1  0.33278476  0.99969917  0.00145668  1
  Ni  Ni10  1  0.49999393  0.16488901  0.16560406  1
  Cr  Cr11  1  0.33602957  0.99947749  0.33117950  1
  Ni  Ni12  1  0.33425404  0.33169315  0.00037002  1
  Cr  Cr13  1  0.49960669  0.49992540  0.16578516  1
  Ni  Ni14  1  0.33316010  0.33473726  0.33348719  1
  Ni  Ni15  1  0.33213157  0.66771076  0.00036847  1
  Ni  Ni16  1  0.50034369  0.83427604  0.16632989  1
  Ni  Ni17  1  0.33316005  0.66490087  0.33372356  1
  Ni  Ni18  1  0.66695288  0.00076045  0.00054006  1
  Ni  Ni19  1  0.83287740  0.16652042  0.16595319  1
  Ni  Ni20  1  0.66530140  0.00052807  0.33290525  1
  Ni  Ni21  1  0.66695363  0.33210064  0.99830262  1
  Ni  Ni22  1  0.83540057  0.49993808  0.16660560  1
  Ni  Ni23  1  0.66742588  0.33226508  0.33432004  1
  Ni  Ni24  1  0.66801329  0.66624240  0.99959926  1
  Ni  Ni25  1  0.83252750  0.83264479  0.16557734  1
  Ni  Ni26  1  0.66636351  0.66631110  0.33325798  1
  Cr  Cr27  1  0.16598978  0.16973308  0.50141388  1
  Ni  Ni28  1  0.99917657  0.99946764  0.66840260  1
  Cr  Cr29  1  0.16639390  0.16501723  0.83298241  1
  Ni  Ni30  1  0.16680499  0.49938587  0.49915425  1
  Ni  Ni31  1  0.99683094  0.33310699  0.66477145  1
  Cr  Cr32  1  0.16679571  0.50084752  0.83298419  1
  Cr  Cr33  1  0.16772011  0.83004739  0.50201758  1
  Ni  Ni34  1  0.99895458  0.66652907  0.66713506  1
  Ni  Ni35  1  0.16442482  0.83319998  0.83277118  1
  Ni  Ni36  1  0.50189689  0.16740386  0.50048278  1
  Ni  Ni37  1  0.33356267  0.99946366  0.66627780  1
  Ni  Ni38  1  0.50126232  0.16821924  0.83301732  1
  Ni  Ni39  1  0.49929237  0.49973863  0.50012721  1
  Ni  Ni40  1  0.33590458  0.33310574  0.66524556  1
  Ni  Ni41  1  0.50153695  0.49813299  0.83272092  1
  Ni  Ni42  1  0.50043728  0.83196080  0.49993196  1
  Ni  Ni43  1  0.33378467  0.66653404  0.66501149  1
  Cr  Cr44  1  0.49965663  0.83246070  0.83315585  1
  Ni  Ni45  1  0.83057163  0.16904351  0.50048456  1
  Fe  Fe46  1  0.66636290  0.00152135  0.66621092  1
  Ni  Ni47  1  0.83161148  0.16623908  0.83266675  1
  Ni  Ni48  1  0.83300592  0.49792786  0.49957683  1
  Ni  Ni49  1  0.66636754  0.33332914  0.66647931  1
  Ni  Ni50  1  0.83116273  0.49993864  0.83292119  1
  Cr  Cr51  1  0.83068967  0.83246056  0.50018581  1
  Ni  Ni52  1  0.66636446  0.66418691  0.66624452  1
  Ni  Ni53  1  0.83487436  0.83292549  0.83304312  1
" 