1939,Ni82Fe8Cr9_12,-236.86500601519, 178.870702530572,Ni82Fe8Cr9,"# generated using pymatgen
 data_Cr3(FeNi11)2
_symmetry_space_group_name_H-M   'P 1'
_cell_length_a   7.45158464
_cell_length_b   7.45158464
_cell_length_c   10.53813207
_cell_angle_alpha   90.00000000
_cell_angle_beta   90.00000000
_cell_angle_gamma   90.00000000
_symmetry_Int_Tables_number   1
_chemical_formula_structural   Cr3(FeNi11)2
_chemical_formula_sum   'Cr6 Fe4 Ni44'
_cell_volume   585.14151941
_cell_formula_units_Z   2
loop_
 _symmetry_equiv_pos_site_id
 _symmetry_equiv_pos_as_xyz
  1  'x, y, z'
loop_
 _atom_site_type_symbol
 _atom_site_label
 _atom_site_symmetry_multiplicity
 _atom_site_fract_x
 _atom_site_fract_y
 _atom_site_fract_z
 _atom_site_occupancy
  Ni  Ni0  1  0.99908527  0.99896840  1.00054708  1
  Cr  Cr1  1  0.16838312  0.16724438  0.16808632  1
  Ni  Ni2  1  0.00148805  0.99949185  0.33530421  1
  Fe  Fe3  1  0.99918520  0.33617873  0.00130438  1
  Ni  Ni4  1  0.16803072  0.50265942  0.16789722  1
  Ni  Ni5  1  0.99871652  0.33548276  0.33278912  1
  Ni  Ni6  1  0.00149464  0.66809784  1.00083620  1
  Ni  Ni7  1  0.16684003  0.83331007  0.16847739  1
  Ni  Ni8  1  1.00086051  0.66813808  0.33377761  1
  Ni  Ni9  1  0.33574065  0.99994966  0.00117014  1
  Ni  Ni10  1  0.50139766  0.16923944  0.16691460  1
  Ni  Ni11  1  0.33366084  0.99969058  0.33448542  1
  Ni  Ni12  1  0.33626931  0.33578821  1.00057823  1
  Ni  Ni13  1  0.50129346  0.50020222  0.16847709  1
  Ni  Ni14  1  0.33630787  0.33515361  0.33403030  1
  Ni  Ni15  1  0.33307335  0.66737432  1.00070791  1
  Fe  Fe16  1  0.50044249  0.83312003  0.16677176  1
  Ni  Ni17  1  0.33396551  0.66826743  0.33368243  1
  Ni  Ni18  1  0.66828622  0.00216261  1.00077742  1
  Ni  Ni19  1  0.83342604  0.16804856  0.16747174  1
  Cr  Cr20  1  0.66748024  0.00146176  0.33380411  1
  Ni  Ni21  1  0.66756319  0.33337774  1.00077594  1
  Ni  Ni22  1  0.83378736  0.50165159  0.16828233  1
  Ni  Ni23  1  0.66808479  0.33578161  0.33507758  1
  Ni  Ni24  1  0.66854351  0.66757232  1.00090762  1
  Ni  Ni25  1  0.83588237  0.83341402  0.16691585  1
  Ni  Ni26  1  0.66828695  0.66549409  0.33474948  1
  Cr  Cr27  1  0.16960854  0.16523151  0.49960878  1
  Fe  Fe28  1  0.99945805  0.99710962  0.66790686  1
  Cr  Cr29  1  0.16932732  0.16687054  0.83541961  1
  Cr  Cr30  1  0.16868971  0.50277860  0.49977961  1
  Cr  Cr31  1  0.99877103  0.33628480  0.66919725  1
  Ni  Ni32  1  0.16868635  0.50328778  0.83529413  1
  Ni  Ni33  1  0.16705703  0.83549204  0.50097279  1
  Ni  Ni34  1  1.00067088  0.66980430  0.66849843  1
  Ni  Ni35  1  0.16731564  0.83295136  0.83366533  1
  Ni  Ni36  1  0.50097770  0.16872915  0.50213669  1
  Ni  Ni37  1  0.33663469  0.99939567  0.66745601  1
  Ni  Ni38  1  0.50225030  0.16804401  0.83405958  1
  Ni  Ni39  1  0.50358665  0.50032302  0.50107437  1
  Ni  Ni40  1  0.33836407  0.33473812  0.66850376  1
  Ni  Ni41  1  0.50104215  0.50057860  0.83356146  1
  Ni  Ni42  1  0.50080938  0.83405934  0.50139262  1
  Ni  Ni43  1  0.33422086  0.66897869  0.66872094  1
  Ni  Ni44  1  0.50123968  0.83448964  0.83458222  1
  Fe  Fe45  1  0.83205363  0.16766019  0.50075631  1
  Ni  Ni46  1  0.66704378  0.00153927  0.66816400  1
  Ni  Ni47  1  0.83184634  0.16667511  0.83493501  1
  Ni  Ni48  1  0.83117493  0.50279424  0.49966947  1
  Ni  Ni49  1  0.66621848  0.33350095  0.66725952  1
  Ni  Ni50  1  0.83338427  0.50227462  0.83516122  1
  Ni  Ni51  1  0.83524395  0.83288465  0.50207331  1
  Ni  Ni52  1  0.66822077  0.66807057  0.66745533  1
  Ni  Ni53  1  0.83455629  0.83416065  0.83412429  1
" 