5130,Ni82Fe18_6,-231.472497139976, 175.231067521724,Ni82Fe18,"# generated using pymatgen
 data_Fe22Ni5
_symmetry_space_group_name_H-M   'P 1'
_cell_length_a   7.39985539
_cell_length_b   7.39985539
_cell_length_c   10.46497585
_cell_angle_alpha   90.00000000
_cell_angle_beta   90.00000000
_cell_angle_gamma   90.00000000
_symmetry_Int_Tables_number   1
_chemical_formula_structural   Fe22Ni5
_chemical_formula_sum   'Fe44 Ni10'
_cell_volume   573.03968021
_cell_formula_units_Z   2
loop_
 _symmetry_equiv_pos_site_id
 _symmetry_equiv_pos_as_xyz
  1  'x, y, z'
loop_
 _atom_site_type_symbol
 _atom_site_label
 _atom_site_symmetry_multiplicity
 _atom_site_fract_x
 _atom_site_fract_y
 _atom_site_fract_z
 _atom_site_occupancy
  Fe  Fe0  1  1.00292266  0.00454038  1.00453953  1
  Fe  Fe1  1  0.17070529  0.17070832  0.17064241  1
  Fe  Fe2  1  0.00479092  1.00428808  0.33762242  1
  Fe  Fe3  1  1.00292355  0.33728868  0.00462905  1
  Fe  Fe4  1  0.17055753  0.50447518  0.17203160  1
  Fe  Fe5  1  1.00445206  0.33787171  0.33796196  1
  Fe  Fe6  1  1.00292424  0.67179155  0.00462745  1
  Ni  Ni7  1  0.17133230  0.83764049  0.17065719  1
  Fe  Fe8  1  0.00546759  0.67146052  0.33830205  1
  Fe  Fe9  1  0.33890334  1.00453978  0.00462793  1
  Fe  Fe10  1  0.50497387  0.17055900  0.17097394  1
  Fe  Fe11  1  0.33736929  1.00394988  0.33796371  1
  Fe  Fe12  1  0.33958056  0.33796433  1.00386166  1
  Fe  Fe13  1  0.50503850  0.50453964  0.17014598  1
  Fe  Fe14  1  0.33771284  0.33821199  0.33830045  1
  Fe  Fe15  1  0.33958150  0.67111446  0.00471595  1
  Fe  Fe16  1  0.50501309  0.83852163  0.17088608  1
  Fe  Fe17  1  0.33703583  0.67145771  0.33821097  1
  Ni  Ni18  1  0.67131449  0.00454088  1.00443314  1
  Ni  Ni19  1  0.83680832  0.17133272  0.17036197  1
  Fe  Fe20  1  0.67145865  0.00496584  0.33724222  1
  Ni  Ni21  1  0.67131069  0.33777069  1.00431597  1
  Fe  Fe22  1  0.83802352  0.50451370  0.17088456  1
  Fe  Fe23  1  0.67145464  0.33753696  0.33715181  1
  Ni  Ni24  1  0.67131204  0.67130999  0.00454383  1
  Fe  Fe25  1  0.83787447  0.83837301  0.17014757  1
  Fe  Fe26  1  0.67111847  0.67111827  0.33748914  1
  Fe  Fe27  1  0.17129487  0.17129470  0.50527928  1
  Fe  Fe28  1  0.00478702  1.00428983  0.67145927  1
  Ni  Ni29  1  0.17109921  0.17109945  0.83808008  1
  Ni  Ni30  1  0.17192910  0.50537235  0.50464656  1
  Fe  Fe31  1  0.00512614  0.33778553  0.67102802  1
  Fe  Fe32  1  0.17114549  0.50442693  0.83713735  1
  Ni  Ni33  1  0.17109937  0.83714974  0.50529782  1
  Fe  Fe34  1  0.00478810  0.67154555  0.67069382  1
  Fe  Fe35  1  0.17126875  0.83789735  0.83778742  1
  Fe  Fe36  1  0.50342071  0.17111724  0.50445117  1
  Fe  Fe37  1  0.33728640  0.00462704  0.67102998  1
  Fe  Fe38  1  0.50492303  0.17114513  0.83819370  1
  Fe  Fe39  1  0.50348517  0.50510017  0.50510211  1
  Fe  Fe40  1  0.33762504  0.33812425  0.67145820  1
  Ni  Ni41  1  0.50506547  0.50423425  0.83778313  1
  Fe  Fe42  1  0.50348206  0.83740288  0.50445142  1
  Fe  Fe43  1  0.33762610  0.67086860  0.67069406  1
  Fe  Fe44  1  0.50506468  0.83793179  0.83828373  1
  Fe  Fe45  1  0.83890474  0.17129491  0.50380078  1
  Fe  Fe46  1  0.67154628  1.00429188  0.67174902  1
  Fe  Fe47  1  0.83740169  0.17126975  0.83884306  1
  Fe  Fe48  1  0.83902242  0.50510021  0.50445139  1
  Fe  Fe49  1  0.67087056  0.33812139  0.67174840  1
  Fe  Fe50  1  0.83743687  0.50456971  0.83828436  1
  Fe  Fe51  1  0.83884269  0.83722520  0.50527985  1
  Fe  Fe52  1  0.67120738  0.67120726  0.67226914  1
  Ni  Ni53  1  0.83745601  0.83828712  0.83861193  1
" 