4156,Ni82Fe13Cr3_18,-240.001538048286, 195.065913599922,Ni82Fe13Cr3,"# generated using pymatgen
 data_Cr3Fe7Ni44
_symmetry_space_group_name_H-M   'P 1'
_cell_length_a   7.43953051
_cell_length_b   7.43953051
_cell_length_c   10.52108494
_cell_angle_alpha   90.00000000
_cell_angle_beta   90.00000000
_cell_angle_gamma   90.00000000
_symmetry_Int_Tables_number   1
_chemical_formula_structural   Cr3Fe7Ni44
_chemical_formula_sum   'Cr3 Fe7 Ni44'
_cell_volume   582.30642927
_cell_formula_units_Z   1
loop_
 _symmetry_equiv_pos_site_id
 _symmetry_equiv_pos_as_xyz
  1  'x, y, z'
loop_
 _atom_site_type_symbol
 _atom_site_label
 _atom_site_symmetry_multiplicity
 _atom_site_fract_x
 _atom_site_fract_y
 _atom_site_fract_z
 _atom_site_occupancy
  Ni  Ni0  1  0.00242919  1.00164870  0.00186362  1
  Ni  Ni1  1  0.17004235  0.16868599  0.16730533  1
  Ni  Ni2  1  0.00261198  0.00232840  0.33514729  1
  Ni  Ni3  1  0.00220612  0.33519514  1.00161729  1
  Ni  Ni4  1  0.16708737  0.50018653  0.16991723  1
  Ni  Ni5  1  0.00238982  0.33454336  0.33541350  1
  Ni  Ni6  1  1.00077475  0.66870780  0.00275243  1
  Ni  Ni7  1  0.16709026  0.83670340  0.16989937  1
  Fe  Fe8  1  0.00227985  0.66876887  0.33468804  1
  Ni  Ni9  1  0.33445417  0.00315308  0.00212963  1
  Ni  Ni10  1  0.50060202  0.16848437  0.16942780  1
  Ni  Ni11  1  0.33433740  0.00189194  0.33495857  1
  Ni  Ni12  1  0.33467320  0.33391445  1.00183442  1
  Ni  Ni13  1  0.50225345  0.49927753  0.16789523  1
  Ni  Ni14  1  0.33453622  0.33497444  0.33520820  1
  Cr  Cr15  1  0.33430814  0.66905674  0.00303128  1
  Ni  Ni16  1  0.50247814  0.83784164  0.16791002  1
  Fe  Fe17  1  0.33452130  0.66877190  0.33480382  1
  Ni  Ni18  1  0.66869941  1.00160033  0.00258243  1
  Fe  Fe19  1  0.83549276  0.16846072  0.16879798  1
  Ni  Ni20  1  0.66868769  0.00241003  0.33559882  1
  Ni  Ni21  1  0.66868967  0.33545929  0.00302527  1
  Ni  Ni22  1  0.83614913  0.50204298  0.16724501  1
  Ni  Ni23  1  0.66869417  0.33467548  0.33514311  1
  Ni  Ni24  1  0.67007786  0.66850461  1.00121209  1
  Ni  Ni25  1  0.83594403  0.83501637  0.16720919  1
  Cr  Cr26  1  0.66794030  0.66860593  0.33477307  1
  Ni  Ni27  1  0.16927525  0.16865114  0.50298469  1
  Ni  Ni28  1  0.00197913  0.00217099  0.66862612  1
  Ni  Ni29  1  0.16972171  0.16857190  0.83529399  1
  Fe  Fe30  1  0.16852108  0.50062157  0.50233472  1
  Ni  Ni31  1  0.00346400  0.33475687  0.66859852  1
  Ni  Ni32  1  0.16685262  0.50135937  0.83381391  1
  Fe  Fe33  1  0.16852994  0.83666531  0.50233086  1
  Ni  Ni34  1  0.00190948  0.66865878  0.66782820  1
  Ni  Ni35  1  0.16679645  0.83563794  0.83402697  1
  Ni  Ni36  1  0.49954927  0.16749180  0.50051279  1
  Ni  Ni37  1  0.33468384  1.00172202  0.66865264  1
  Ni  Ni38  1  0.50042079  0.16739393  0.83560973  1
  Ni  Ni39  1  0.50043222  0.50192460  0.50225114  1
  Ni  Ni40  1  0.33337172  0.33519815  0.66859269  1
  Fe  Fe41  1  0.50167779  0.50092911  0.83508854  1
  Ni  Ni42  1  0.50153027  0.83617719  0.50328322  1
  Ni  Ni43  1  0.33515137  0.66869582  0.66751900  1
  Fe  Fe44  1  0.50235537  0.83700563  0.83440540  1
  Ni  Ni45  1  0.83676679  0.16737574  0.50048097  1
  Ni  Ni46  1  0.66887148  0.99999337  0.66740784  1
  Ni  Ni47  1  0.83544464  0.16742815  0.83614121  1
  Ni  Ni48  1  0.83678681  0.50288636  0.50221878  1
  Cr  Cr49  1  0.66971529  0.33432965  0.66703579  1
  Ni  Ni50  1  0.83683884  0.50383780  0.83597191  1
  Ni  Ni51  1  0.83568056  0.83528842  0.50331059  1
  Ni  Ni52  1  0.66849471  0.66993769  0.66925792  1
  Ni  Ni53  1  0.83559455  0.83424740  0.83489855  1
" 