7160,Ni82Fe3Cr14_1,-233.519534430358, 161.269496601255,Ni82Fe3Cr14,"# generated using pymatgen
 data_Cr9FeNi44
_symmetry_space_group_name_H-M   'P 1'
_cell_length_a   7.47085362
_cell_length_b   7.47085362
_cell_length_c   10.56538251
_cell_angle_alpha   90.00000000
_cell_angle_beta   90.00000000
_cell_angle_gamma   90.00000000
_symmetry_Int_Tables_number   1
_chemical_formula_structural   Cr9FeNi44
_chemical_formula_sum   'Cr9 Fe1 Ni44'
_cell_volume   589.69260094
_cell_formula_units_Z   1
loop_
 _symmetry_equiv_pos_site_id
 _symmetry_equiv_pos_as_xyz
  1  'x, y, z'
loop_
 _atom_site_type_symbol
 _atom_site_label
 _atom_site_symmetry_multiplicity
 _atom_site_fract_x
 _atom_site_fract_y
 _atom_site_fract_z
 _atom_site_occupancy
  Cr  Cr0  1  0.99754358  0.00059759  0.00454088  1
  Ni  Ni1  1  0.16666857  0.17077683  0.16892328  1
  Ni  Ni2  1  0.99907883  0.00016383  0.33260237  1
  Ni  Ni3  1  0.00027207  0.33535245  0.00120107  1
  Ni  Ni4  1  0.16628532  0.49973421  0.16655847  1
  Ni  Ni5  1  0.99940649  0.33263947  0.33273701  1
  Ni  Ni6  1  0.99788858  0.66402712  0.00065311  1
  Fe  Fe7  1  0.16627180  0.83009465  0.16986977  1
  Ni  Ni8  1  0.99856615  0.66618812  0.33336884  1
  Cr  Cr9  1  0.33408640  0.99967590  0.00343193  1
  Ni  Ni10  1  0.50067178  0.16748563  0.16785273  1
  Ni  Ni11  1  0.33339073  0.00003863  0.33300345  1
  Ni  Ni12  1  0.33217141  0.33531665  0.00083849  1
  Ni  Ni13  1  0.49932347  0.50022468  0.16676903  1
  Ni  Ni14  1  0.33302130  0.33284082  0.33315503  1
  Ni  Ni15  1  0.33464754  0.66383245  0.00110509  1
  Ni  Ni16  1  0.50180976  0.83128916  0.16757260  1
  Ni  Ni17  1  0.33401818  0.66620951  0.33294600  1
  Ni  Ni18  1  0.66658761  0.99726706  0.00227001  1
  Ni  Ni19  1  0.83179143  0.16766874  0.16803693  1
  Ni  Ni20  1  0.66680263  0.99924112  0.33229515  1
  Ni  Ni21  1  0.66684291  0.33555525  0.00253176  1
  Ni  Ni22  1  0.83361151  0.50050293  0.16676133  1
  Ni  Ni23  1  0.66680121  0.33345703  0.33319177  1
  Ni  Ni24  1  0.66666175  0.66649471  0.00006669  1
  Ni  Ni25  1  0.83106274  0.83091021  0.16762051  1
  Ni  Ni26  1  0.66659221  0.66658447  0.33318252  1
  Ni  Ni27  1  0.16633235  0.16455957  0.49807847  1
  Ni  Ni28  1  0.99928753  0.99876419  0.66392843  1
  Ni  Ni29  1  0.16627994  0.16834399  0.83299147  1
  Ni  Ni30  1  0.16498849  0.50125116  0.49602652  1
  Cr  Cr31  1  0.99877029  0.33593451  0.66478533  1
  Ni  Ni32  1  0.16514616  0.49997787  0.83641511  1
  Ni  Ni33  1  0.16525711  0.83334208  0.49747564  1
  Ni  Ni34  1  0.99849280  0.66725134  0.66514598  1
  Cr  Cr35  1  0.16506768  0.83212939  0.83217665  1
  Ni  Ni36  1  0.50102262  0.16516051  0.49816462  1
  Ni  Ni37  1  0.33323871  0.99949210  0.66391600  1
  Cr  Cr38  1  0.50070303  0.16632903  0.83306668  1
  Ni  Ni39  1  0.50063973  0.49870937  0.49496338  1
  Cr  Cr40  1  0.33405175  0.33413299  0.66469248  1
  Ni  Ni41  1  0.50098165  0.50029398  0.83691517  1
  Ni  Ni42  1  0.49995350  0.83512998  0.49757001  1
  Cr  Cr43  1  0.33410024  0.66555840  0.66441318  1
  Ni  Ni44  1  0.50236320  0.83207264  0.83410101  1
  Ni  Ni45  1  0.83191892  0.16518429  0.49797320  1
  Ni  Ni46  1  0.66671713  0.99810823  0.66435015  1
  Cr  Cr47  1  0.83230845  0.16621417  0.83329688  1
  Ni  Ni48  1  0.83353974  0.50013423  0.49662779  1
  Ni  Ni49  1  0.66674983  0.33369596  0.66357706  1
  Ni  Ni50  1  0.83318818  0.50159798  0.83538661  1
  Ni  Ni51  1  0.83407108  0.83381549  0.49897037  1
  Cr  Cr52  1  0.66773805  0.66383751  0.66513808  1
  Ni  Ni53  1  0.83146082  0.83105472  0.83301284  1
" 