37,Ni82Fe8Cr9_5,-236.690331028519, 178.553559295917,Ni82Fe8Cr9,"# generated using pymatgen
 data_Cr3(FeNi11)2
_symmetry_space_group_name_H-M   'P 1'
_cell_length_a   7.45120823
_cell_length_b   7.45120823
_cell_length_c   10.53759974
_cell_angle_alpha   90.00000000
_cell_angle_beta   90.00000000
_cell_angle_gamma   90.00000000
_symmetry_Int_Tables_number   1
_chemical_formula_structural   Cr3(FeNi11)2
_chemical_formula_sum   'Cr6 Fe4 Ni44'
_cell_volume   585.05284982
_cell_formula_units_Z   2
loop_
 _symmetry_equiv_pos_site_id
 _symmetry_equiv_pos_as_xyz
  1  'x, y, z'
loop_
 _atom_site_type_symbol
 _atom_site_label
 _atom_site_symmetry_multiplicity
 _atom_site_fract_x
 _atom_site_fract_y
 _atom_site_fract_z
 _atom_site_occupancy
  Ni  Ni0  1  1.00071527  0.00108556  1.00048815  1
  Ni  Ni1  1  0.16597099  0.16655976  0.16920424  1
  Ni  Ni2  1  0.99954367  0.00167414  0.33426659  1
  Ni  Ni3  1  0.99964055  0.33411648  0.00127563  1
  Ni  Ni4  1  0.16607174  0.50206878  0.16809593  1
  Ni  Ni5  1  0.00123630  0.33464195  0.33417020  1
  Ni  Ni6  1  1.00053585  0.66799411  1.00089562  1
  Ni  Ni7  1  0.16678180  0.83466911  0.16744041  1
  Ni  Ni8  1  0.99975356  0.66695658  0.33367129  1
  Ni  Ni9  1  0.33263279  0.99779553  0.00109003  1
  Cr  Cr10  1  0.50211842  0.16758784  0.16763165  1
  Ni  Ni11  1  0.33493609  1.00087518  0.33431702  1
  Cr  Cr12  1  0.33184901  0.33666323  1.00031093  1
  Ni  Ni13  1  0.50263689  0.50248989  0.16869144  1
  Ni  Ni14  1  0.33325650  0.33535588  0.33594095  1
  Ni  Ni15  1  0.33464895  0.66984796  1.00088251  1
  Ni  Ni16  1  0.50094646  0.83330616  0.16756594  1
  Ni  Ni17  1  0.33544737  0.66697129  0.33317365  1
  Ni  Ni18  1  0.67000669  0.99799331  1.00104731  1
  Fe  Fe19  1  0.83574147  0.16763368  0.16785687  1
  Ni  Ni20  1  0.66855167  0.99926230  0.33526227  1
  Ni  Ni21  1  0.67164480  0.33647483  1.00057156  1
  Ni  Ni22  1  0.83458457  0.50144812  0.16796011  1
  Ni  Ni23  1  0.66883075  0.33521985  0.33574776  1
  Ni  Ni24  1  0.66798123  0.66871965  1.00091443  1
  Ni  Ni25  1  0.83554638  0.83329381  0.16804657  1
  Ni  Ni26  1  0.66795017  0.66870963  0.33497514  1
  Fe  Fe27  1  0.16768459  0.16752032  0.49898988  1
  Fe  Fe28  1  0.99894230  0.99960532  0.66873679  1
  Ni  Ni29  1  0.16546187  0.16366418  0.83442703  1
  Ni  Ni30  1  0.16715645  0.50227828  0.49965577  1
  Cr  Cr31  1  0.99949948  0.33468474  0.66786761  1
  Fe  Fe32  1  0.16610600  0.50451347  0.83498054  1
  Cr  Cr33  1  0.16676510  0.83299935  0.50061405  1
  Ni  Ni34  1  0.99972142  0.66784559  0.66848726  1
  Ni  Ni35  1  0.16724929  0.83494238  0.83474544  1
  Ni  Ni36  1  0.50257561  0.16721138  0.50065087  1
  Ni  Ni37  1  0.33536146  0.99943821  0.66787210  1
  Cr  Cr38  1  0.50340150  0.16654456  0.83505251  1
  Ni  Ni39  1  0.50204026  0.50114920  0.50031224  1
  Cr  Cr40  1  0.33457078  0.33524916  0.66666575  1
  Ni  Ni41  1  0.50432450  0.50401530  0.83420737  1
  Ni  Ni42  1  0.50158557  0.83487754  0.50107931  1
  Ni  Ni43  1  0.33529997  0.66912201  0.66895800  1
  Ni  Ni44  1  0.50048832  0.83279233  0.83454153  1
  Ni  Ni45  1  0.83241062  0.16743618  0.49993743  1
  Ni  Ni46  1  0.66819395  0.99966453  0.66707454  1
  Ni  Ni47  1  0.83544296  0.16760823  0.83613118  1
  Ni  Ni48  1  0.83405935  0.50154822  0.50032009  1
  Ni  Ni49  1  0.66922758  0.33472862  0.66715629  1
  Ni  Ni50  1  0.83301945  0.50192403  0.83498075  1
  Ni  Ni51  1  0.83387382  0.83415557  0.50144189  1
  Ni  Ni52  1  0.66801798  0.66884727  0.66730003  1
  Ni  Ni53  1  0.83535502  0.83361457  0.83371471  1
" 