2012,Ni82Fe8Cr9_13,-236.701851648766, 177.245349294533,Ni82Fe8Cr9,"# generated using pymatgen
 data_Cr3(FeNi11)2
_symmetry_space_group_name_H-M   'P 1'
_cell_length_a   7.45407237
_cell_length_b   7.45407237
_cell_length_c   10.54165024
_cell_angle_alpha   90.00000000
_cell_angle_beta   90.00000000
_cell_angle_gamma   90.00000000
_symmetry_Int_Tables_number   1
_chemical_formula_structural   Cr3(FeNi11)2
_chemical_formula_sum   'Cr6 Fe4 Ni44'
_cell_volume   585.72776642
_cell_formula_units_Z   2
loop_
 _symmetry_equiv_pos_site_id
 _symmetry_equiv_pos_as_xyz
  1  'x, y, z'
loop_
 _atom_site_type_symbol
 _atom_site_label
 _atom_site_symmetry_multiplicity
 _atom_site_fract_x
 _atom_site_fract_y
 _atom_site_fract_z
 _atom_site_occupancy
  Cr  Cr0  1  0.99955609  0.99950251  0.00297792  1
  Fe  Fe1  1  0.16911054  0.16981181  0.16889191  1
  Ni  Ni2  1  0.99946863  0.00187137  0.33527384  1
  Ni  Ni3  1  0.00209834  0.33775726  0.00249250  1
  Ni  Ni4  1  0.16741619  0.49976718  0.16752036  1
  Ni  Ni5  1  0.00212523  0.33305052  0.33341425  1
  Ni  Ni6  1  0.99974937  0.66461227  0.99918990  1
  Cr  Cr7  1  0.16979480  0.83180689  0.16805094  1
  Ni  Ni8  1  1.00085480  0.66773304  0.33399639  1
  Ni  Ni9  1  0.33881856  0.00122052  0.99972435  1
  Ni  Ni10  1  0.50185061  0.16745069  0.16663515  1
  Ni  Ni11  1  0.33556170  0.00201031  0.33536534  1
  Ni  Ni12  1  0.33465698  0.33552042  0.00167873  1
  Ni  Ni13  1  0.50041331  0.50066017  0.16807817  1
  Ni  Ni14  1  0.33436754  0.33448004  0.33459252  1
  Ni  Ni15  1  0.33574237  0.66584406  0.99987902  1
  Ni  Ni16  1  0.50232078  0.83465295  0.16713140  1
  Ni  Ni17  1  0.33545885  0.66623140  0.33510421  1
  Ni  Ni18  1  0.66497770  0.99925315  0.00164908  1
  Ni  Ni19  1  0.83239492  0.16881462  0.16893492  1
  Ni  Ni20  1  0.66766878  1.00082499  0.33426648  1
  Fe  Fe21  1  0.66574116  0.33535304  0.00260669  1
  Ni  Ni22  1  0.83474037  0.50044358  0.16640184  1
  Ni  Ni23  1  0.66617822  0.33304249  0.33285274  1
  Ni  Ni24  1  0.66709096  0.66867301  1.00063020  1
  Ni  Ni25  1  0.83185539  0.83353818  0.16876768  1
  Ni  Ni26  1  0.66619710  0.66880734  0.33339776  1
  Ni  Ni27  1  0.16732516  0.16770712  0.50042668  1
  Ni  Ni28  1  0.99988648  0.99895976  0.66532085  1
  Cr  Cr29  1  0.16982380  0.16830144  0.83376530  1
  Ni  Ni30  1  0.16924763  0.50106225  0.50102383  1
  Ni  Ni31  1  0.00460209  0.33451557  0.66657260  1
  Ni  Ni32  1  0.16821229  0.50269163  0.83418609  1
  Ni  Ni33  1  0.16742032  0.83380445  0.50144713  1
  Ni  Ni34  1  0.00236434  0.66928282  0.66933961  1
  Ni  Ni35  1  0.16838769  0.83065202  0.83334510  1
  Ni  Ni36  1  0.50026119  0.16671322  0.50068189  1
  Fe  Fe37  1  0.33496980  0.99938093  0.66664828  1
  Ni  Ni38  1  0.50060696  0.16704991  0.83522817  1
  Ni  Ni39  1  0.49788664  0.50169956  0.49942030  1
  Ni  Ni40  1  0.33329858  0.33596896  0.66650294  1
  Ni  Ni41  1  0.49877441  0.50183191  0.83525955  1
  Ni  Ni42  1  0.50079895  0.83406973  0.50065589  1
  Ni  Ni43  1  0.33447182  0.66624868  0.66770804  1
  Ni  Ni44  1  0.50112026  0.83377475  0.83466388  1
  Ni  Ni45  1  0.83499917  0.16503703  0.49992090  1
  Ni  Ni46  1  0.66735449  0.99812471  0.66670156  1
  Cr  Cr47  1  0.83222161  0.16746195  0.83368473  1
  Cr  Cr48  1  0.83470537  0.50179734  0.50031803  1
  Cr  Cr49  1  0.66412875  0.33427593  0.66743286  1
  Fe  Fe50  1  0.83459958  0.50395072  0.83477684  1
  Ni  Ni51  1  0.83437031  0.83622868  0.50063130  1
  Ni  Ni52  1  0.66572421  0.67127273  0.66847470  1
  Ni  Ni53  1  0.83322752  0.83240104  0.83335736  1
" 