6021,Ni82Fe3Cr13_18,-233.594799686174, 165.705038032113,Ni82Fe3Cr13,"# generated using pymatgen
 data_Cr9FeNi44
_symmetry_space_group_name_H-M   'P 1'
_cell_length_a   7.46818365
_cell_length_b   7.46818365
_cell_length_c   10.56160660
_cell_angle_alpha   90.00000000
_cell_angle_beta   90.00000000
_cell_angle_gamma   90.00000000
_symmetry_Int_Tables_number   1
_chemical_formula_structural   Cr9FeNi44
_chemical_formula_sum   'Cr9 Fe1 Ni44'
_cell_volume   589.06058517
_cell_formula_units_Z   1
loop_
 _symmetry_equiv_pos_site_id
 _symmetry_equiv_pos_as_xyz
  1  'x, y, z'
loop_
 _atom_site_type_symbol
 _atom_site_label
 _atom_site_symmetry_multiplicity
 _atom_site_fract_x
 _atom_site_fract_y
 _atom_site_fract_z
 _atom_site_occupancy
  Ni  Ni0  1  0.00068186  0.99708823  0.99831981  1
  Cr  Cr1  1  0.16829718  0.16577730  0.16634849  1
  Cr  Cr2  1  0.99879346  0.99847592  0.33356191  1
  Cr  Cr3  1  0.99556492  0.33331885  0.99790345  1
  Cr  Cr4  1  0.16672696  0.50071508  0.16720571  1
  Ni  Ni5  1  0.99842812  0.33370315  0.33439221  1
  Ni  Ni6  1  0.99899967  0.66881292  0.99942058  1
  Ni  Ni7  1  0.16680128  0.83339763  0.16481346  1
  Ni  Ni8  1  0.99657456  0.66687079  0.33336475  1
  Ni  Ni9  1  0.33327026  0.99864283  0.99934343  1
  Ni  Ni10  1  0.50016173  0.16614086  0.16726924  1
  Ni  Ni11  1  0.33558889  0.00034567  0.33418553  1
  Ni  Ni12  1  0.33649057  0.33335150  0.99779452  1
  Ni  Ni13  1  0.50156738  0.50019933  0.16445320  1
  Ni  Ni14  1  0.33522049  0.33112128  0.33486008  1
  Ni  Ni15  1  0.33414868  0.66762113  0.99839194  1
  Ni  Ni16  1  0.50081343  0.83337753  0.16662242  1
  Cr  Cr17  1  0.33548824  0.66870540  0.33409303  1
  Cr  Cr18  1  0.66730940  0.00081642  0.99949565  1
  Ni  Ni19  1  0.83129377  0.16600043  0.16635495  1
  Ni  Ni20  1  0.66496648  0.99865695  0.33380727  1
  Ni  Ni21  1  0.66444099  0.33502987  0.99981908  1
  Ni  Ni22  1  0.83116955  0.50219910  0.16709145  1
  Cr  Cr23  1  0.66732174  0.33426174  0.33216348  1
  Ni  Ni24  1  0.66657938  0.66508184  0.00027381  1
  Ni  Ni25  1  0.83209995  0.83173104  0.16676387  1
  Ni  Ni26  1  0.66794785  0.66799038  0.33308821  1
  Ni  Ni27  1  0.16611346  0.16662358  0.49976637  1
  Ni  Ni28  1  0.99853968  0.99989119  0.66741034  1
  Ni  Ni29  1  0.16672340  0.16667832  0.83329342  1
  Cr  Cr30  1  0.16569426  0.49863319  0.50068628  1
  Ni  Ni31  1  0.99872736  0.33267582  0.66711586  1
  Ni  Ni32  1  0.16752344  0.50056986  0.83198152  1
  Ni  Ni33  1  0.16592692  0.83448653  0.50059375  1
  Ni  Ni34  1  0.99900211  0.66751330  0.66700105  1
  Ni  Ni35  1  0.16573592  0.83238463  0.83445735  1
  Fe  Fe36  1  0.50116526  0.16637758  0.50070737  1
  Cr  Cr37  1  0.33309417  0.99815059  0.66654636  1
  Ni  Ni38  1  0.50023070  0.16793815  0.83262831  1
  Ni  Ni39  1  0.50173513  0.50075784  0.50216479  1
  Ni  Ni40  1  0.33424028  0.33398426  0.66741009  1
  Ni  Ni41  1  0.50029048  0.50021060  0.83323658  1
  Ni  Ni42  1  0.50259222  0.83266913  0.50008372  1
  Ni  Ni43  1  0.33422966  0.66586675  0.66773484  1
  Ni  Ni44  1  0.50083042  0.83155180  0.83320754  1
  Ni  Ni45  1  0.83380993  0.16618435  0.50203385  1
  Ni  Ni46  1  0.66830612  0.99970403  0.66626245  1
  Ni  Ni47  1  0.83292569  0.16617192  0.83115250  1
  Ni  Ni48  1  0.83154222  0.50071960  0.50063865  1
  Ni  Ni49  1  0.66722674  0.33374577  0.66750294  1
  Ni  Ni50  1  0.83189827  0.50122104  0.83187163  1
  Ni  Ni51  1  0.83121726  0.83300985  0.50109119  1
  Ni  Ni52  1  0.66643611  0.66632246  0.66633995  1
  Ni  Ni53  1  0.83338885  0.83241754  0.83177263  1
" 