3669,Ni82Fe3Cr14_9,-233.427338582379, 163.183902907506,Ni82Fe3Cr14,"# generated using pymatgen
 data_Cr9FeNi44
_symmetry_space_group_name_H-M   'P 1'
_cell_length_a   7.47078620
_cell_length_b   7.47078620
_cell_length_c   10.56528716
_cell_angle_alpha   90.00000000
_cell_angle_beta   90.00000000
_cell_angle_gamma   90.00000000
_symmetry_Int_Tables_number   1
_chemical_formula_structural   Cr9FeNi44
_chemical_formula_sum   'Cr9 Fe1 Ni44'
_cell_volume   589.67663703
_cell_formula_units_Z   1
loop_
 _symmetry_equiv_pos_site_id
 _symmetry_equiv_pos_as_xyz
  1  'x, y, z'
loop_
 _atom_site_type_symbol
 _atom_site_label
 _atom_site_symmetry_multiplicity
 _atom_site_fract_x
 _atom_site_fract_y
 _atom_site_fract_z
 _atom_site_occupancy
  Ni  Ni0  1  0.99938998  0.00007012  0.99973446  1
  Ni  Ni1  1  0.16408541  0.16728618  0.16691777  1
  Ni  Ni2  1  0.99767596  0.00027380  0.33350226  1
  Ni  Ni3  1  0.99905060  0.33367672  0.00056910  1
  Ni  Ni4  1  0.16555969  0.49859763  0.16747612  1
  Ni  Ni5  1  0.00005613  0.33367457  0.33201050  1
  Ni  Ni6  1  0.99831906  0.66550163  0.99904127  1
  Cr  Cr7  1  0.16670695  0.83278525  0.16682988  1
  Ni  Ni8  1  0.99874703  0.66529962  0.33419590  1
  Ni  Ni9  1  0.33240471  0.99751963  0.99883980  1
  Cr  Cr10  1  0.50039304  0.16515020  0.16731318  1
  Ni  Ni11  1  0.33264414  0.99955285  0.33206422  1
  Cr  Cr12  1  0.33115853  0.33436348  0.99972920  1
  Ni  Ni13  1  0.50061737  0.50199223  0.16738618  1
  Ni  Ni14  1  0.33152321  0.33565082  0.33244942  1
  Ni  Ni15  1  0.33437929  0.66715032  0.99890170  1
  Ni  Ni16  1  0.50128005  0.83188471  0.16602140  1
  Ni  Ni17  1  0.33354823  0.66404432  0.33332242  1
  Ni  Ni18  1  0.66745370  0.99678844  0.00075190  1
  Ni  Ni19  1  0.83454802  0.16662499  0.16651119  1
  Ni  Ni20  1  0.66892743  0.99824782  0.33224786  1
  Ni  Ni21  1  0.66910065  0.33565402  0.00099164  1
  Ni  Ni22  1  0.83307628  0.49926703  0.16594965  1
  Fe  Fe23  1  0.66810334  0.33482357  0.33313227  1
  Ni  Ni24  1  0.66655168  0.66681095  0.99949581  1
  Ni  Ni25  1  0.83115639  0.83335827  0.16646344  1
  Ni  Ni26  1  0.66695276  0.66642558  0.33218997  1
  Cr  Cr27  1  0.16512369  0.16596506  0.50017681  1
  Ni  Ni28  1  0.99958523  0.00038597  0.66601520  1
  Ni  Ni29  1  0.16587204  0.16528043  0.83232611  1
  Ni  Ni30  1  0.16703153  0.50077375  0.49875429  1
  Ni  Ni31  1  0.00000718  0.33249307  0.66667060  1
  Ni  Ni32  1  0.16658855  0.49997458  0.83301812  1
  Ni  Ni33  1  0.16538478  0.83216724  0.49911102  1
  Cr  Cr34  1  0.99940882  0.66666442  0.66585320  1
  Ni  Ni35  1  0.16784304  0.83399314  0.83353219  1
  Cr  Cr36  1  0.50130344  0.16774417  0.50032268  1
  Ni  Ni37  1  0.33176514  0.99890724  0.66834731  1
  Cr  Cr38  1  0.49923986  0.16553723  0.83161131  1
  Ni  Ni39  1  0.49978145  0.49976515  0.50009632  1
  Ni  Ni40  1  0.33260083  0.33522072  0.66712447  1
  Ni  Ni41  1  0.50033499  0.50251610  0.83176536  1
  Cr  Cr42  1  0.49911368  0.83182849  0.49977189  1
  Ni  Ni43  1  0.33449181  0.66512022  0.66702616  1
  Ni  Ni44  1  0.49907452  0.83144984  0.83340259  1
  Ni  Ni45  1  0.83315884  0.16639146  0.49989559  1
  Ni  Ni46  1  0.66789736  0.99848747  0.66624941  1
  Cr  Cr47  1  0.83440159  0.16700996  0.83285902  1
  Ni  Ni48  1  0.83243806  0.49886392  0.49920466  1
  Ni  Ni49  1  0.66664404  0.33522312  0.66487460  1
  Ni  Ni50  1  0.83232655  0.50054300  0.83409275  1
  Ni  Ni51  1  0.83416334  0.83399502  0.49893231  1
  Ni  Ni52  1  0.66516723  0.66554137  0.66756363  1
  Ni  Ni53  1  0.83233124  0.83217154  0.83385236  1
" 