4842,Ni82Fe2Cr14_0,-233.396138435392, 160.521026400678,Ni82Fe2Cr14,"# generated using pymatgen
 data_Cr9FeNi44
_symmetry_space_group_name_H-M   'P 1'
_cell_length_a   7.46806694
_cell_length_b   7.46806694
_cell_length_c   10.56144156
_cell_angle_alpha   90.00000000
_cell_angle_beta   90.00000000
_cell_angle_gamma   90.00000000
_symmetry_Int_Tables_number   1
_chemical_formula_structural   Cr9FeNi44
_chemical_formula_sum   'Cr9 Fe1 Ni44'
_cell_volume   589.03297062
_cell_formula_units_Z   1
loop_
 _symmetry_equiv_pos_site_id
 _symmetry_equiv_pos_as_xyz
  1  'x, y, z'
loop_
 _atom_site_type_symbol
 _atom_site_label
 _atom_site_symmetry_multiplicity
 _atom_site_fract_x
 _atom_site_fract_y
 _atom_site_fract_z
 _atom_site_occupancy
  Ni  Ni0  1  0.00283025  0.00100806  0.99851652  1
  Ni  Ni1  1  0.16743121  0.16742254  0.16539121  1
  Cr  Cr2  1  0.00082685  0.99931644  0.33269184  1
  Ni  Ni3  1  -0.00004272  0.33370606  0.00012423  1
  Ni  Ni4  1  0.16551165  0.49976521  0.16671463  1
  Ni  Ni5  1  0.99912248  0.33582784  0.33269000  1
  Ni  Ni6  1  0.00204570  0.66497803  0.99873608  1
  Ni  Ni7  1  0.16844694  0.83252733  0.16533031  1
  Ni  Ni8  1  0.00157300  0.66366334  0.33454740  1
  Ni  Ni9  1  0.33169408  0.99940138  0.00047503  1
  Ni  Ni10  1  0.49847359  0.16663781  0.16769776  1
  Ni  Ni11  1  0.33486934  0.99775626  0.33095823  1
  Ni  Ni12  1  0.33113896  0.33187237  0.99888440  1
  Cr  Cr13  1  0.50051388  0.50083821  0.16592247  1
  Ni  Ni14  1  0.33100467  0.33367815  0.33221232  1
  Ni  Ni15  1  0.33097681  0.66853133  0.00006363  1
  Ni  Ni16  1  0.49808350  0.83382843  0.16777102  1
  Ni  Ni17  1  0.33107043  0.66847763  0.33343085  1
  Cr  Cr18  1  0.66515269  0.00106067  0.99869597  1
  Ni  Ni19  1  0.83394115  0.16887862  0.16687281  1
  Ni  Ni20  1  0.66503864  0.00001407  0.33402557  1
  Ni  Ni21  1  0.66859881  0.33292197  0.00006728  1
  Ni  Ni22  1  0.83515875  0.49875178  0.16625153  1
  Ni  Ni23  1  0.66923606  0.33250592  0.33197675  1
  Ni  Ni24  1  0.66732659  0.66586234  0.99808684  1
  Cr  Cr25  1  0.83440669  0.83043815  0.16512100  1
  Ni  Ni26  1  0.66729414  0.66731486  0.33471013  1
  Cr  Cr27  1  0.16570020  0.16685299  0.50183952  1
  Ni  Ni28  1  0.99972967  0.99934895  0.66783888  1
  Ni  Ni29  1  0.16615243  0.16628433  0.83298206  1
  Ni  Ni30  1  0.16441194  0.50159291  0.50016033  1
  Ni  Ni31  1  0.00009638  0.33463976  0.66717044  1
  Ni  Ni32  1  0.16480273  0.49986620  0.83271747  1
  Ni  Ni33  1  0.16673314  0.83140255  0.50057979  1
  Ni  Ni34  1  0.00095647  0.66589214  0.66620458  1
  Ni  Ni35  1  0.16586197  0.83355865  0.83374700  1
  Cr  Cr36  1  0.49935229  0.16465998  0.49940955  1
  Ni  Ni37  1  0.33311458  0.99633469  0.66881840  1
  Ni  Ni38  1  0.49770491  0.16509074  0.83315636  1
  Cr  Cr39  1  0.49818084  0.50189042  0.49936994  1
  Fe  Fe40  1  0.33053398  0.33375103  0.66860743  1
  Cr  Cr41  1  0.49866724  0.50153086  0.83455600  1
  Ni  Ni42  1  0.49998482  0.83297442  0.49977695  1
  Ni  Ni43  1  0.33084629  0.66962522  0.66635865  1
  Ni  Ni44  1  0.49922091  0.83376839  0.83247459  1
  Ni  Ni45  1  0.83361322  0.16617393  0.49977188  1
  Ni  Ni46  1  0.66665521  0.99818856  0.66710059  1
  Ni  Ni47  1  0.83553915  0.16601720  0.83323772  1
  Ni  Ni48  1  0.83514998  0.50137746  0.49866045  1
  Cr  Cr49  1  0.67054830  0.33292737  0.66842226  1
  Ni  Ni50  1  0.83558599  0.50136594  0.83505152  1
  Ni  Ni51  1  0.83309918  0.83239189  0.50155832  1
  Ni  Ni52  1  0.66762067  0.66940274  0.66682871  1
  Ni  Ni53  1  0.83472805  0.83242056  0.83194949  1
" 