673,Ni82Fe3Cr13_0,-233.466817923468, 162.173437184322,Ni82Fe3Cr13,"# generated using pymatgen
 data_Cr9FeNi44
_symmetry_space_group_name_H-M   'P 1'
_cell_length_a   7.46973542
_cell_length_b   7.46973542
_cell_length_c   10.56380114
_cell_angle_alpha   90.00000000
_cell_angle_beta   90.00000000
_cell_angle_gamma   90.00000000
_symmetry_Int_Tables_number   1
_chemical_formula_structural   Cr9FeNi44
_chemical_formula_sum   'Cr9 Fe1 Ni44'
_cell_volume   589.42785491
_cell_formula_units_Z   1
loop_
 _symmetry_equiv_pos_site_id
 _symmetry_equiv_pos_as_xyz
  1  'x, y, z'
loop_
 _atom_site_type_symbol
 _atom_site_label
 _atom_site_symmetry_multiplicity
 _atom_site_fract_x
 _atom_site_fract_y
 _atom_site_fract_z
 _atom_site_occupancy
  Cr  Cr0  1  0.00087009  0.00063551  0.00037578  1
  Ni  Ni1  1  0.16683107  0.16661888  0.16738881  1
  Ni  Ni2  1  0.00072126  0.00105516  0.33440320  1
  Ni  Ni3  1  0.99799978  0.33471953  0.00153668  1
  Ni  Ni4  1  0.16502515  0.49958916  0.16752643  1
  Ni  Ni5  1  -0.00012130  0.33276038  0.33250981  1
  Ni  Ni6  1  0.99697887  0.66391710  0.00015587  1
  Ni  Ni7  1  0.16860231  0.83325261  0.16752775  1
  Ni  Ni8  1  0.00088685  0.66564474  0.33365058  1
  Ni  Ni9  1  0.33524596  0.00056725  0.00042031  1
  Ni  Ni10  1  0.50035795  0.16560679  0.16590575  1
  Ni  Ni11  1  0.33208786  0.99887242  0.33152314  1
  Cr  Cr12  1  0.33333143  0.33104264  0.00012782  1
  Ni  Ni13  1  0.50103742  0.49947525  0.16795106  1
  Ni  Ni14  1  0.33208806  0.33410072  0.33244373  1
  Cr  Cr15  1  0.33469472  0.66813633  0.00197635  1
  Ni  Ni16  1  0.49847284  0.83437889  0.16671305  1
  Ni  Ni17  1  0.33326275  0.66648734  0.33305746  1
  Ni  Ni18  1  0.66364972  0.99954838  0.99963712  1
  Ni  Ni19  1  0.83227106  0.16918174  0.16729668  1
  Ni  Ni20  1  0.66665132  -0.00011971  0.33286900  1
  Ni  Ni21  1  0.66794186  0.33426797  0.00047973  1
  Ni  Ni22  1  0.83339724  0.49770356  0.16514281  1
  Ni  Ni23  1  0.66749382  0.33393535  0.33202723  1
  Ni  Ni24  1  0.66768681  0.66564483  0.99831104  1
  Cr  Cr25  1  0.83243027  0.83250741  0.16649243  1
  Ni  Ni26  1  0.66531089  0.66564504  0.33387654  1
  Ni  Ni27  1  0.16529794  0.16564302  0.49964581  1
  Ni  Ni28  1  0.00016155  0.99835023  0.66489069  1
  Ni  Ni29  1  0.16873606  0.16564071  0.83242472  1
  Ni  Ni30  1  0.16723291  0.50075287  0.49934107  1
  Cr  Cr31  1  0.00007134  0.33274433  0.66497667  1
  Cr  Cr32  1  0.16570731  0.49908395  0.83257570  1
  Ni  Ni33  1  0.16605644  0.83306390  0.50018439  1
  Ni  Ni34  1  0.99829936  0.66834155  0.66565451  1
  Cr  Cr35  1  0.16633326  0.83450926  0.83195478  1
  Cr  Cr36  1  0.50020048  0.16686528  0.50033180  1
  Ni  Ni37  1  0.33273500  0.99981798  0.66751561  1
  Fe  Fe38  1  0.49955587  0.16564635  0.83267115  1
  Ni  Ni39  1  0.49965243  0.50134486  0.50032124  1
  Ni  Ni40  1  0.33445892  0.33318933  0.66698813  1
  Ni  Ni41  1  0.50314394  0.50004736  0.83118779  1
  Ni  Ni42  1  0.49981883  0.83146266  0.49992673  1
  Ni  Ni43  1  0.33501693  0.66645314  0.66482806  1
  Ni  Ni44  1  0.50229457  0.83377098  0.83282147  1
  Ni  Ni45  1  0.83417695  0.16547638  0.49878406  1
  Ni  Ni46  1  0.66656462  0.99779297  0.66695263  1
  Cr  Cr47  1  0.83203212  0.16648938  0.83336130  1
  Ni  Ni48  1  0.83257434  0.50058614  0.49953084  1
  Ni  Ni49  1  0.66467517  0.33505037  0.66695361  1
  Ni  Ni50  1  0.83027660  0.50189545  0.83478575  1
  Ni  Ni51  1  0.83358512  0.83339792  0.50090010  1
  Ni  Ni52  1  0.66614273  0.66661715  0.66727190  1
  Ni  Ni53  1  0.83027783  0.83107587  0.83217800  1
" 