3586,Ni82Fe2Cr14_19,-233.5977585354, 163.02366810045,Ni82Fe2Cr14,"# generated using pymatgen
 data_Cr9FeNi44
_symmetry_space_group_name_H-M   'P 1'
_cell_length_a   7.47026078
_cell_length_b   7.47026078
_cell_length_c   10.56454411
_cell_angle_alpha   90.00000000
_cell_angle_beta   90.00000000
_cell_angle_gamma   90.00000000
_symmetry_Int_Tables_number   1
_chemical_formula_structural   Cr9FeNi44
_chemical_formula_sum   'Cr9 Fe1 Ni44'
_cell_volume   589.55223057
_cell_formula_units_Z   1
loop_
 _symmetry_equiv_pos_site_id
 _symmetry_equiv_pos_as_xyz
  1  'x, y, z'
loop_
 _atom_site_type_symbol
 _atom_site_label
 _atom_site_symmetry_multiplicity
 _atom_site_fract_x
 _atom_site_fract_y
 _atom_site_fract_z
 _atom_site_occupancy
  Ni  Ni0  1  0.00075190  0.00073012  0.99851279  1
  Ni  Ni1  1  0.16798707  0.16739261  0.16606876  1
  Cr  Cr2  1  0.00244243  0.00132503  0.33294471  1
  Ni  Ni3  1  0.00207333  0.33101561  0.00017574  1
  Ni  Ni4  1  0.16833284  0.49762611  0.16459762  1
  Ni  Ni5  1  0.00311566  0.33206750  0.33214825  1
  Ni  Ni6  1  0.00290961  0.66764652  0.99883653  1
  Ni  Ni7  1  0.16999938  0.83436255  0.16331921  1
  Cr  Cr8  1  0.00127107  0.66625708  0.33429123  1
  Ni  Ni9  1  0.33304686  -0.00009457  0.00049681  1
  Ni  Ni10  1  0.49933521  0.16611999  0.16704951  1
  Ni  Ni11  1  0.33526631  0.00199982  0.33309698  1
  Ni  Ni12  1  0.33322158  0.33333615  -0.00000742  1
  Ni  Ni13  1  0.49873141  0.49885871  0.16564765  1
  Ni  Ni14  1  0.33342564  0.33140938  0.33334561  1
  Ni  Ni15  1  0.33324825  0.66612021  0.99908891  1
  Ni  Ni16  1  0.49831633  0.83439196  0.16589832  1
  Cr  Cr17  1  0.33434532  0.66626787  0.33343886  1
  Ni  Ni18  1  0.66558011  0.00070401  0.99850803  1
  Ni  Ni19  1  0.83207459  0.16771792  0.16539551  1
  Ni  Ni20  1  0.66269444  -0.00016448  0.33367182  1
  Ni  Ni21  1  0.66406665  0.33120005  0.99952551  1
  Cr  Cr22  1  0.83220456  0.49731916  0.16609755  1
  Ni  Ni23  1  0.66279979  0.33216767  0.33235315  1
  Ni  Ni24  1  0.66319538  0.66746939  0.99946457  1
  Cr  Cr25  1  0.83082470  0.83442823  0.16478491  1
  Ni  Ni26  1  0.66316154  0.66734474  0.33411979  1
  Ni  Ni27  1  0.16974199  0.16719514  0.50019024  1
  Ni  Ni28  1  0.00113568  0.99838140  0.66740259  1
  Ni  Ni29  1  0.16682740  0.16619088  0.83298069  1
  Ni  Ni30  1  0.16827541  0.49786861  0.50177317  1
  Ni  Ni31  1  0.00361214  0.33228908  0.66703198  1
  Ni  Ni32  1  0.16814993  0.49978940  0.83296498  1
  Ni  Ni33  1  0.16804621  0.83429316  0.50280118  1
  Ni  Ni34  1  0.00295478  0.66863829  0.66595681  1
  Ni  Ni35  1  0.16671672  0.83341745  0.83323341  1
  Ni  Ni36  1  0.49742532  0.16601386  0.49957527  1
  Ni  Ni37  1  0.33294568  0.00090512  0.66578165  1
  Ni  Ni38  1  0.49943842  0.16604877  0.83269946  1
  Ni  Ni39  1  0.49778426  0.49786272  0.49951472  1
  Ni  Ni40  1  0.33312047  0.33250106  0.66602875  1
  Ni  Ni41  1  0.49697440  0.49858122  0.83428552  1
  Ni  Ni42  1  0.49938247  0.83548384  0.49905416  1
  Fe  Fe43  1  0.33164407  0.66652939  0.66711913  1
  Ni  Ni44  1  0.49855009  0.83470336  0.83452087  1
  Cr  Cr45  1  0.83198658  0.16612819  0.50077817  1
  Ni  Ni46  1  0.66523309  0.00020132  0.66720268  1
  Ni  Ni47  1  0.83307362  0.16460888  0.83319203  1
  Cr  Cr48  1  0.83321516  0.49891222  0.49871895  1
  Ni  Ni49  1  0.66259897  0.33064594  0.66748456  1
  Cr  Cr50  1  0.83429617  0.49838225  0.83458846  1
  Ni  Ni51  1  0.83197517  0.83381866  0.50075961  1
  Cr  Cr52  1  0.66478121  0.66816570  0.66617090  1
  Ni  Ni53  1  0.83407919  0.83581125  0.83370568  1
" 