1426,Ni82Fe7Cr9_10,-236.793297845789, 179.278355646656,Ni82Fe7Cr9,"# generated using pymatgen
 data_Cr3(FeNi11)2
_symmetry_space_group_name_H-M   'P 1'
_cell_length_a   7.45215658
_cell_length_b   7.45215658
_cell_length_c   10.53894091
_cell_angle_alpha   90.00000000
_cell_angle_beta   90.00000000
_cell_angle_gamma   90.00000000
_symmetry_Int_Tables_number   1
_chemical_formula_structural   Cr3(FeNi11)2
_chemical_formula_sum   'Cr6 Fe4 Ni44'
_cell_volume   585.27626493
_cell_formula_units_Z   2
loop_
 _symmetry_equiv_pos_site_id
 _symmetry_equiv_pos_as_xyz
  1  'x, y, z'
loop_
 _atom_site_type_symbol
 _atom_site_label
 _atom_site_symmetry_multiplicity
 _atom_site_fract_x
 _atom_site_fract_y
 _atom_site_fract_z
 _atom_site_occupancy
  Ni  Ni0  1  0.00219823  0.00134513  0.00265831  1
  Ni  Ni1  1  0.16779170  0.16726950  0.16851489  1
  Fe  Fe2  1  0.00168265  0.00202317  0.33338539  1
  Fe  Fe3  1  1.00023094  0.33399069  0.00121788  1
  Ni  Ni4  1  0.16758759  0.50122974  0.16748052  1
  Ni  Ni5  1  0.00130700  0.33520329  0.33456510  1
  Ni  Ni6  1  0.00233094  0.66714546  0.00231489  1
  Ni  Ni7  1  0.16583077  0.83447831  0.16759384  1
  Ni  Ni8  1  1.00052991  0.66586593  0.33285010  1
  Ni  Ni9  1  0.33321296  0.00150526  1.00013373  1
  Ni  Ni10  1  0.49992872  0.17049401  0.16642730  1
  Ni  Ni11  1  0.33213912  0.00205895  0.33325430  1
  Fe  Fe12  1  0.33519071  0.33410852  0.00130147  1
  Ni  Ni13  1  0.50131060  0.49918247  0.16837952  1
  Ni  Ni14  1  0.33280314  0.33496713  0.33301004  1
  Ni  Ni15  1  0.33264353  0.66747851  1.00001036  1
  Cr  Cr16  1  0.50011336  0.83303828  0.16669545  1
  Ni  Ni17  1  0.33343501  0.66596932  0.33459012  1
  Ni  Ni18  1  0.66761100  0.00373300  1.00068612  1
  Ni  Ni19  1  0.83529613  0.16876563  0.16662105  1
  Cr  Cr20  1  0.66851489  0.00149924  0.33391242  1
  Ni  Ni21  1  0.66793106  0.33388157  0.00151339  1
  Ni  Ni22  1  0.83411709  0.50116253  0.16783758  1
  Ni  Ni23  1  0.66890524  0.33647187  0.33333523  1
  Ni  Ni24  1  0.66803249  0.66536058  0.00129544  1
  Ni  Ni25  1  0.83728503  0.83310002  0.16687751  1
  Ni  Ni26  1  0.66906337  0.66525335  0.33540550  1
  Ni  Ni27  1  0.16575950  0.16940181  0.50101788  1
  Ni  Ni28  1  0.00104752  0.00481032  0.66683008  1
  Ni  Ni29  1  0.16771626  0.16665462  0.83347339  1
  Ni  Ni30  1  0.16846242  0.49844167  0.50073198  1
  Ni  Ni31  1  1.00088289  0.33230195  0.66785537  1
  Fe  Fe32  1  0.16885500  0.50024129  0.83471058  1
  Cr  Cr33  1  0.16883476  0.83560524  0.49983192  1
  Cr  Cr34  1  0.00128404  0.66553809  0.66790323  1
  Ni  Ni35  1  0.17041769  0.83600071  0.83550760  1
  Cr  Cr36  1  0.49948610  0.16914619  0.50190362  1
  Ni  Ni37  1  0.33448286  0.00113575  0.66958831  1
  Ni  Ni38  1  0.50048126  0.16805101  0.83458952  1
  Ni  Ni39  1  0.50132222  0.50297773  0.50066242  1
  Ni  Ni40  1  0.33330983  0.33478733  0.66841371  1
  Ni  Ni41  1  0.50171227  0.50117007  0.83392692  1
  Ni  Ni42  1  0.50184867  0.83125618  0.50281180  1
  Ni  Ni43  1  0.33681734  0.66706260  0.66838147  1
  Ni  Ni44  1  0.49860421  0.83379238  0.83348469  1
  Ni  Ni45  1  0.83717808  0.16890567  0.50263250  1
  Ni  Ni46  1  0.66745966  0.00144884  0.66820229  1
  Ni  Ni47  1  0.83481971  0.16979217  0.83376181  1
  Ni  Ni48  1  0.83322584  0.50023604  0.50012965  1
  Ni  Ni49  1  0.66879761  0.33466438  0.66815224  1
  Ni  Ni50  1  0.83261026  0.49842466  0.83508021  1
  Ni  Ni51  1  0.83268132  0.83385478  0.50092599  1
  Ni  Ni52  1  0.66508444  0.66688794  0.66630428  1
  Cr  Cr53  1  0.83374691  0.83478099  0.83527095  1
" 