560,Ni82Fe3Cr14_2,-233.307906231641, 160.498814347781,Ni82Fe3Cr14,"# generated using pymatgen
 data_Cr9FeNi44
_symmetry_space_group_name_H-M   'P 1'
_cell_length_a   7.47230128
_cell_length_b   7.47230128
_cell_length_c   10.56742981
_cell_angle_alpha   90.00000000
_cell_angle_beta   90.00000000
_cell_angle_gamma   90.00000000
_symmetry_Int_Tables_number   1
_chemical_formula_structural   Cr9FeNi44
_chemical_formula_sum   'Cr9 Fe1 Ni44'
_cell_volume   590.03546922
_cell_formula_units_Z   1
loop_
 _symmetry_equiv_pos_site_id
 _symmetry_equiv_pos_as_xyz
  1  'x, y, z'
loop_
 _atom_site_type_symbol
 _atom_site_label
 _atom_site_symmetry_multiplicity
 _atom_site_fract_x
 _atom_site_fract_y
 _atom_site_fract_z
 _atom_site_occupancy
  Ni  Ni0  1  0.00071669  0.99880865  0.00019707  1
  Ni  Ni1  1  0.16654313  0.16483721  0.16618212  1
  Ni  Ni2  1  0.99938619  0.99854745  0.33249508  1
  Ni  Ni3  1  0.00071768  0.33200459  -0.00016317  1
  Cr  Cr4  1  0.16512747  0.49880409  0.16570885  1
  Ni  Ni5  1  0.99733809  0.33203492  0.33262539  1
  Ni  Ni6  1  0.99963617  0.66813217  0.99942993  1
  Ni  Ni7  1  0.16568745  0.83554425  0.16602447  1
  Ni  Ni8  1  0.99655904  0.66836394  0.33365742  1
  Ni  Ni9  1  0.33173143  0.99886845  0.00045141  1
  Ni  Ni10  1  0.49955293  0.16607311  0.16690640  1
  Ni  Ni11  1  0.33229826  0.00137372  0.33161165  1
  Ni  Ni12  1  0.33292316  0.33313660  0.99936956  1
  Ni  Ni13  1  0.50215067  0.49873242  0.16551775  1
  Ni  Ni14  1  0.33553928  0.33039942  0.33246363  1
  Ni  Ni15  1  0.33394315  0.66694023  0.99776265  1
  Ni  Ni16  1  0.50057650  0.83413911  0.16515692  1
  Cr  Cr17  1  0.33373658  0.66694243  0.33248512  1
  Ni  Ni18  1  0.66649793  0.99778625  0.00063012  1
  Ni  Ni19  1  0.83284922  0.16641038  0.16634038  1
  Ni  Ni20  1  0.66726047  0.00059381  0.33285784  1
  Ni  Ni21  1  0.66530530  0.33421818  0.00205098  1
  Ni  Ni22  1  0.83144398  0.49958887  0.16673736  1
  Ni  Ni23  1  0.66606877  0.33322743  0.33371181  1
  Ni  Ni24  1  0.66536591  0.66694001  0.00039179  1
  Ni  Ni25  1  0.83268097  0.83294627  0.16637534  1
  Ni  Ni26  1  0.66889584  0.66512363  0.33223924  1
  Cr  Cr27  1  0.16733837  0.16587930  0.49849159  1
  Cr  Cr28  1  -0.00026581  0.99797081  0.66648365  1
  Ni  Ni29  1  0.16730220  0.16737464  0.83386094  1
  Cr  Cr30  1  0.16494306  0.50030483  0.50035599  1
  Ni  Ni31  1  0.00014856  0.33496871  0.66648329  1
  Ni  Ni32  1  0.16774671  0.49964106  0.83256703  1
  Ni  Ni33  1  0.16443933  0.83292211  0.49949823  1
  Ni  Ni34  1  0.99924208  0.66642176  0.66585963  1
  Ni  Ni35  1  0.16736656  0.83193046  0.83342194  1
  Ni  Ni36  1  0.50150042  0.16778054  0.49973342  1
  Ni  Ni37  1  0.33366946  0.99948663  0.66688193  1
  Cr  Cr38  1  0.49873018  0.16556397  0.83251944  1
  Ni  Ni39  1  0.50245492  0.49688355  0.50063009  1
  Ni  Ni40  1  0.33414055  0.33350310  0.66711202  1
  Ni  Ni41  1  0.49739846  0.50154994  0.83279597  1
  Cr  Cr42  1  0.50039054  0.83454993  0.50054847  1
  Fe  Fe43  1  0.33330185  0.66594943  0.66838681  1
  Ni  Ni44  1  0.49930868  0.83154940  0.83292887  1
  Ni  Ni45  1  0.83030869  0.16739860  0.49912168  1
  Ni  Ni46  1  0.66512271  0.99857865  0.66545739  1
  Cr  Cr47  1  0.83348059  0.16569185  0.83373047  1
  Ni  Ni48  1  0.83166898  0.49957936  0.49956485  1
  Ni  Ni49  1  0.66465658  0.33441349  0.66318444  1
  Cr  Cr50  1  0.83360603  0.50069159  0.83329551  1
  Ni  Ni51  1  0.83362698  0.83196788  0.49907172  1
  Ni  Ni52  1  0.66658803  0.66595247  0.66631564  1
  Ni  Ni53  1  0.83226972  0.83199503  0.83349857  1
" 