2134,Ni82Fe3Cr14_4,-233.462491949378, 161.704500140467,Ni82Fe3Cr14,"# generated using pymatgen
 data_Cr9FeNi44
_symmetry_space_group_name_H-M   'P 1'
_cell_length_a   7.47189591
_cell_length_b   7.47189591
_cell_length_c   10.56685653
_cell_angle_alpha   90.00000000
_cell_angle_beta   90.00000000
_cell_angle_gamma   90.00000000
_symmetry_Int_Tables_number   1
_chemical_formula_structural   Cr9FeNi44
_chemical_formula_sum   'Cr9 Fe1 Ni44'
_cell_volume   589.93944708
_cell_formula_units_Z   1
loop_
 _symmetry_equiv_pos_site_id
 _symmetry_equiv_pos_as_xyz
  1  'x, y, z'
loop_
 _atom_site_type_symbol
 _atom_site_label
 _atom_site_symmetry_multiplicity
 _atom_site_fract_x
 _atom_site_fract_y
 _atom_site_fract_z
 _atom_site_occupancy
  Cr  Cr0  1  0.99665522  -0.00004796  0.00009541  1
  Ni  Ni1  1  0.16766621  0.16767678  0.16734367  1
  Ni  Ni2  1  0.00022689  0.99791171  0.33272406  1
  Ni  Ni3  1  0.99831427  0.33473539  0.99927805  1
  Cr  Cr4  1  0.16652194  0.49931532  0.16478922  1
  Cr  Cr5  1  -0.00004735  0.33275632  0.33316504  1
  Ni  Ni6  1  0.99813272  0.66406156  0.99788978  1
  Cr  Cr7  1  0.16638242  0.83223316  0.16805945  1
  Ni  Ni8  1  0.99785063  0.66843055  0.33472929  1
  Cr  Cr9  1  0.33497050  0.99886496  0.00014837  1
  Ni  Ni10  1  0.50081527  0.16651611  0.16733930  1
  Ni  Ni11  1  0.33350368  0.00087813  0.33401801  1
  Ni  Ni12  1  0.33340202  0.33573452  0.00105487  1
  Fe  Fe13  1  0.50178528  0.49923382  0.16628836  1
  Ni  Ni14  1  0.33526898  0.33148582  0.33352159  1
  Ni  Ni15  1  0.33468144  0.66416242  0.99718063  1
  Ni  Ni16  1  0.50250943  0.83359760  0.16670512  1
  Ni  Ni17  1  0.33468033  0.66666295  0.33476653  1
  Ni  Ni18  1  0.66720994  0.99894965  0.00051579  1
  Ni  Ni19  1  0.83054556  0.16657180  0.16546434  1
  Ni  Ni20  1  0.66529622  0.99850212  0.33149861  1
  Ni  Ni21  1  0.66731178  0.33403291  0.00041503  1
  Ni  Ni22  1  0.83110888  0.50001229  0.16536076  1
  Ni  Ni23  1  0.66352759  0.33386128  0.33214335  1
  Ni  Ni24  1  0.66621328  0.66604427  -0.00019303  1
  Ni  Ni25  1  0.82994828  0.83244296  0.16731291  1
  Ni  Ni26  1  0.66649604  0.66666444  0.33281302  1
  Ni  Ni27  1  0.16864245  0.16486071  0.49905929  1
  Ni  Ni28  1  -0.00022557  0.99831507  0.66644066  1
  Cr  Cr29  1  0.16406107  0.16736199  0.83253928  1
  Ni  Ni30  1  0.16653394  0.50146047  0.49989394  1
  Ni  Ni31  1  0.99790186  0.33416337  0.66703687  1
  Ni  Ni32  1  0.16526793  0.50269284  0.83438074  1
  Ni  Ni33  1  0.16677460  0.83270496  0.49965566  1
  Ni  Ni34  1  0.99959744  0.66654829  0.66640715  1
  Ni  Ni35  1  0.16660424  0.82890484  0.83131800  1
  Ni  Ni36  1  0.49832503  0.16571867  0.49856281  1
  Ni  Ni37  1  0.33270059  0.99643863  0.66442302  1
  Cr  Cr38  1  0.50334247  0.16590949  0.83243811  1
  Ni  Ni39  1  0.50001345  0.50018081  0.49810428  1
  Cr  Cr40  1  0.33296450  0.33444650  0.66421096  1
  Ni  Ni41  1  0.50018143  0.50250678  0.83482698  1
  Ni  Ni42  1  0.49891492  0.83312681  0.49993289  1
  Ni  Ni43  1  0.33288226  0.66841977  0.66707980  1
  Ni  Ni44  1  0.50018516  0.83043180  0.83238746  1
  Cr  Cr45  1  0.83162729  0.16587697  0.50143314  1
  Ni  Ni46  1  0.66655208  0.99813393  0.66701200  1
  Ni  Ni47  1  0.83205358  0.16742352  0.83265405  1
  Ni  Ni48  1  0.83247923  0.50204907  0.50060468  1
  Ni  Ni49  1  0.66842367  0.33434642  0.66646860  1
  Ni  Ni50  1  0.83357764  0.49953391  0.83306199  1
  Ni  Ni51  1  0.83333742  0.83101812  0.49902105  1
  Ni  Ni52  1  0.66654689  0.66654662  0.66640702  1
  Ni  Ni53  1  0.83223743  0.83206924  0.83269251  1
" 