4590,Ni82Fe8Cr9_11,-236.60111685869, 176.035178350372,Ni82Fe8Cr9,"# generated using pymatgen
 data_Cr3(FeNi11)2
_symmetry_space_group_name_H-M   'P 1'
_cell_length_a   7.45731431
_cell_length_b   7.45731431
_cell_length_c   10.54623503
_cell_angle_alpha   90.00000000
_cell_angle_beta   90.00000000
_cell_angle_gamma   90.00000000
_symmetry_Int_Tables_number   1
_chemical_formula_structural   Cr3(FeNi11)2
_chemical_formula_sum   'Cr6 Fe4 Ni44'
_cell_volume   586.49233615
_cell_formula_units_Z   2
loop_
 _symmetry_equiv_pos_site_id
 _symmetry_equiv_pos_as_xyz
  1  'x, y, z'
loop_
 _atom_site_type_symbol
 _atom_site_label
 _atom_site_symmetry_multiplicity
 _atom_site_fract_x
 _atom_site_fract_y
 _atom_site_fract_z
 _atom_site_occupancy
  Cr  Cr0  1  0.99940685  0.99937257  1.00035801  1
  Ni  Ni1  1  0.16774819  0.16976737  0.16989418  1
  Ni  Ni2  1  0.00133604  0.00304328  0.33450255  1
  Cr  Cr3  1  0.00105763  0.33605088  1.00065151  1
  Ni  Ni4  1  0.16864816  0.49882872  0.16673851  1
  Ni  Ni5  1  0.00094505  0.33284829  0.33382127  1
  Ni  Ni6  1  0.99919103  0.66609638  0.99987470  1
  Cr  Cr7  1  0.16740165  0.83349041  0.16773158  1
  Cr  Cr8  1  0.99900683  0.66622970  0.33439640  1
  Cr  Cr9  1  0.33609970  0.00238457  0.99961903  1
  Ni  Ni10  1  0.50174365  0.16815869  0.16754896  1
  Ni  Ni11  1  0.33469226  0.00174722  0.33468577  1
  Ni  Ni12  1  0.33578477  0.33521770  0.00114952  1
  Ni  Ni13  1  0.50083769  0.50043147  0.16697917  1
  Fe  Fe14  1  0.33424487  0.33317039  0.33387545  1
  Fe  Fe15  1  0.33542145  0.66465276  0.99988240  1
  Ni  Ni16  1  0.50340946  0.83336515  0.16810310  1
  Fe  Fe17  1  0.33661130  0.66705870  0.33481270  1
  Ni  Ni18  1  0.66614525  0.99981035  0.00092624  1
  Ni  Ni19  1  0.83246718  0.16719255  0.16891460  1
  Ni  Ni20  1  0.66592933  1.00040087  0.33344961  1
  Ni  Ni21  1  0.66480186  0.33517370  0.00081460  1
  Ni  Ni22  1  0.83247943  0.50049519  0.16705189  1
  Ni  Ni23  1  0.66719305  0.33462284  0.33350343  1
  Ni  Ni24  1  0.66789365  0.66697121  0.00111130  1
  Ni  Ni25  1  0.83087240  0.83426890  0.16684823  1
  Ni  Ni26  1  0.66588991  0.66693462  0.33382125  1
  Ni  Ni27  1  0.16693117  0.16721890  0.50051172  1
  Ni  Ni28  1  0.00211181  0.99986530  0.66720982  1
  Ni  Ni29  1  0.16808539  0.16813791  0.83155363  1
  Ni  Ni30  1  0.16782968  0.49974830  0.50155635  1
  Ni  Ni31  1  0.00327284  0.33480625  0.66726697  1
  Ni  Ni32  1  0.16793884  0.50126424  0.83366459  1
  Ni  Ni33  1  0.16790810  0.83499026  0.50161360  1
  Ni  Ni34  1  1.00036355  0.66728636  0.66776822  1
  Ni  Ni35  1  0.16688605  0.83255227  0.83247634  1
  Ni  Ni36  1  0.49994163  0.16635740  0.49989291  1
  Ni  Ni37  1  0.33351127  0.00118508  0.66745307  1
  Ni  Ni38  1  0.50064826  0.16727274  0.83451682  1
  Ni  Ni39  1  0.50008930  0.50165597  0.49964880  1
  Ni  Ni40  1  0.33192313  0.33305481  0.66735851  1
  Ni  Ni41  1  0.49974474  0.50107749  0.83533145  1
  Ni  Ni42  1  0.50087225  0.83394491  0.50043265  1
  Fe  Fe43  1  0.33363584  0.66763568  0.66726257  1
  Ni  Ni44  1  0.50166128  0.83360513  0.83342176  1
  Ni  Ni45  1  0.83508607  0.16643212  0.49957667  1
  Ni  Ni46  1  0.66633452  0.99827610  0.66758293  1
  Ni  Ni47  1  0.83322338  0.16621859  0.83346606  1
  Ni  Ni48  1  0.83404143  0.50067805  0.50062518  1
  Cr  Cr49  1  0.66698668  0.33473261  0.66756920  1
  Ni  Ni50  1  0.83427585  0.50227791  0.83427951  1
  Ni  Ni51  1  0.83318003  0.83484763  0.50145320  1
  Ni  Ni52  1  0.66808622  0.66887531  0.66702465  1
  Ni  Ni53  1  0.83341250  0.83345865  0.83365730  1
" 