6336,Ni83Fe13Cr3_9,-240.640245396871, 195.357213198245,Ni83Fe13Cr3,"# generated using pymatgen
 data_Cr2Fe7Ni45
_symmetry_space_group_name_H-M   'P 1'
_cell_length_a   7.43733351
_cell_length_b   7.43733351
_cell_length_c   10.51797792
_cell_angle_alpha   90.00000000
_cell_angle_beta   90.00000000
_cell_angle_gamma   90.00000000
_symmetry_Int_Tables_number   1
_chemical_formula_structural   Cr2Fe7Ni45
_chemical_formula_sum   'Cr2 Fe7 Ni45'
_cell_volume   581.79069196
_cell_formula_units_Z   1
loop_
 _symmetry_equiv_pos_site_id
 _symmetry_equiv_pos_as_xyz
  1  'x, y, z'
loop_
 _atom_site_type_symbol
 _atom_site_label
 _atom_site_symmetry_multiplicity
 _atom_site_fract_x
 _atom_site_fract_y
 _atom_site_fract_z
 _atom_site_occupancy
  Ni  Ni0  1  1.00147403  0.00307660  1.00197911  1
  Ni  Ni1  1  0.16865632  0.17027502  0.16800463  1
  Fe  Fe2  1  1.00111285  0.00286030  0.33635786  1
  Ni  Ni3  1  1.00182162  0.33567573  0.00252211  1
  Ni  Ni4  1  0.16851407  0.50040874  0.16904533  1
  Ni  Ni5  1  0.00321303  0.33626938  0.33499810  1
  Ni  Ni6  1  1.00128288  0.66727318  1.00064645  1
  Cr  Cr7  1  0.16853145  0.83531652  0.16844352  1
  Ni  Ni8  1  1.00012775  0.66652206  0.33634965  1
  Ni  Ni9  1  0.33547160  0.00306757  1.00196994  1
  Ni  Ni10  1  0.50198680  0.16864895  0.16859312  1
  Ni  Ni11  1  0.33710453  0.00372581  0.33641345  1
  Fe  Fe12  1  0.33564829  0.33565704  0.00234671  1
  Ni  Ni13  1  0.50204946  0.50193412  0.16809364  1
  Ni  Ni14  1  0.33382554  0.33432241  0.33476101  1
  Ni  Ni15  1  0.33539883  0.66757814  0.00305531  1
  Ni  Ni16  1  0.50333455  0.83541079  0.16866940  1
  Fe  Fe17  1  0.33647450  0.66790170  0.33600594  1
  Ni  Ni18  1  0.66903064  0.00254399  0.00305396  1
  Ni  Ni19  1  0.83535539  0.16896493  0.16886874  1
  Ni  Ni20  1  0.66753342  1.00061075  0.33512954  1
  Ni  Ni21  1  0.66936325  0.33557802  0.00251585  1
  Ni  Ni22  1  0.83544737  0.50176611  0.16820794  1
  Fe  Fe23  1  0.66856437  0.33539828  0.33534320  1
  Ni  Ni24  1  0.66932771  0.66787441  0.00323882  1
  Ni  Ni25  1  0.83382366  0.83526044  0.16817766  1
  Ni  Ni26  1  0.66950438  0.66982026  0.33474315  1
  Ni  Ni27  1  0.16879160  0.16781644  0.50239269  1
  Ni  Ni28  1  0.00208732  0.00258932  0.66815627  1
  Fe  Fe29  1  0.16801827  0.16870264  0.83503149  1
  Fe  Fe30  1  0.16859839  0.50134418  0.50186289  1
  Ni  Ni31  1  0.00205486  0.33498403  0.66846135  1
  Ni  Ni32  1  0.16858115  0.50280984  0.83510944  1
  Ni  Ni33  1  0.16897236  0.83599731  0.50237559  1
  Fe  Fe34  1  1.00184178  0.66902084  0.66890775  1
  Ni  Ni35  1  0.16699885  0.83482156  0.83526569  1
  Ni  Ni36  1  0.50150679  0.16885817  0.50240603  1
  Ni  Ni37  1  0.33443241  0.00255389  0.66760801  1
  Ni  Ni38  1  0.50253671  0.17059193  0.83500288  1
  Ni  Ni39  1  0.50238456  0.50193231  0.50251066  1
  Ni  Ni40  1  0.33498803  0.33550186  0.66924253  1
  Ni  Ni41  1  0.50167311  0.49987358  0.83538696  1
  Ni  Ni42  1  0.50116648  0.83519407  0.50197219  1
  Ni  Ni43  1  0.33524834  0.66792311  0.66683872  1
  Cr  Cr44  1  0.50158985  0.83562562  0.83533691  1
  Ni  Ni45  1  0.83567941  0.16908374  0.50200825  1
  Ni  Ni46  1  0.66946814  0.00229750  0.66781267  1
  Ni  Ni47  1  0.83498650  0.16897917  0.83512673  1
  Ni  Ni48  1  0.83485089  0.50177414  0.50234000  1
  Ni  Ni49  1  0.66893321  0.33578401  0.66790893  1
  Ni  Ni50  1  0.83575080  0.50132968  0.83543017  1
  Ni  Ni51  1  0.83586299  0.83514285  0.50235323  1
  Ni  Ni52  1  0.66893540  0.66791258  0.66801650  1
  Ni  Ni53  1  0.83795562  0.83568649  0.83547339  1
" 