2142,Ni83Fe13Cr3_10,-240.728405825349, 195.311935249672,Ni83Fe13Cr3,"# generated using pymatgen
 data_Cr2Fe7Ni45
_symmetry_space_group_name_H-M   'P 1'
_cell_length_a   7.43720581
_cell_length_b   7.43720581
_cell_length_c   10.51779732
_cell_angle_alpha   90.00000000
_cell_angle_beta   90.00000000
_cell_angle_gamma   90.00000000
_symmetry_Int_Tables_number   1
_chemical_formula_structural   Cr2Fe7Ni45
_chemical_formula_sum   'Cr2 Fe7 Ni45'
_cell_volume   581.76072414
_cell_formula_units_Z   1
loop_
 _symmetry_equiv_pos_site_id
 _symmetry_equiv_pos_as_xyz
  1  'x, y, z'
loop_
 _atom_site_type_symbol
 _atom_site_label
 _atom_site_symmetry_multiplicity
 _atom_site_fract_x
 _atom_site_fract_y
 _atom_site_fract_z
 _atom_site_occupancy
  Ni  Ni0  1  0.00242236  1.00160629  0.00224269  1
  Ni  Ni1  1  0.16952997  0.16979441  0.16885212  1
  Ni  Ni2  1  0.00262185  1.00140903  0.33538627  1
  Ni  Ni3  1  0.00259364  0.33549467  1.00147365  1
  Ni  Ni4  1  0.16749277  0.50148725  0.16853809  1
  Ni  Ni5  1  0.00277758  0.33568220  0.33602116  1
  Ni  Ni6  1  1.00188921  0.66888994  1.00174282  1
  Ni  Ni7  1  0.16841803  0.83474313  0.16880725  1
  Ni  Ni8  1  1.00130341  0.66890091  0.33549320  1
  Ni  Ni9  1  0.33504015  0.00243168  1.00129268  1
  Ni  Ni10  1  0.50196177  0.16843169  0.16856398  1
  Ni  Ni11  1  0.33503447  0.00304523  0.33595304  1
  Ni  Ni12  1  0.33530886  0.33516696  0.00202093  1
  Fe  Fe13  1  0.50185814  0.50229794  0.16795442  1
  Ni  Ni14  1  0.33532362  0.33462451  0.33519707  1
  Ni  Ni15  1  0.33521049  0.66844098  1.00176700  1
  Ni  Ni16  1  0.50294413  0.83618604  0.16852599  1
  Fe  Fe17  1  0.33493156  0.66910426  0.33543871  1
  Ni  Ni18  1  0.66859420  1.00171782  1.00166728  1
  Fe  Fe19  1  0.83585216  0.16831777  0.16871572  1
  Ni  Ni20  1  0.66839969  1.00152878  0.33583477  1
  Ni  Ni21  1  0.66811996  0.33565519  1.00179706  1
  Ni  Ni22  1  0.83602790  0.50247305  0.16856667  1
  Ni  Ni23  1  0.66791500  0.33584757  0.33566692  1
  Ni  Ni24  1  0.66890225  0.66864334  1.00179806  1
  Ni  Ni25  1  0.83465371  0.83412706  0.16884940  1
  Ni  Ni26  1  0.66946971  0.66864938  0.33540771  1
  Ni  Ni27  1  0.16795229  0.16905749  0.50122780  1
  Ni  Ni28  1  0.00226410  1.00113929  0.66837642  1
  Ni  Ni29  1  0.16772424  0.16881732  0.83597173  1
  Ni  Ni30  1  0.16761375  0.50281899  0.50120172  1
  Fe  Fe31  1  1.00104123  0.33463704  0.66862190  1
  Ni  Ni32  1  0.16829079  0.50294061  0.83624576  1
  Ni  Ni33  1  0.16861330  0.83413479  0.50223701  1
  Ni  Ni34  1  0.00350190  0.66954562  0.66877069  1
  Ni  Ni35  1  0.16850913  0.83423437  0.83493631  1
  Ni  Ni36  1  0.50365344  0.16776837  0.50175975  1
  Ni  Ni37  1  0.33470144  1.00095264  0.66877503  1
  Ni  Ni38  1  0.50367133  0.16833416  0.83569342  1
  Fe  Fe39  1  0.50171391  0.50177377  0.50109262  1
  Cr  Cr40  1  0.33596593  0.33450991  0.66912743  1
  Ni  Ni41  1  0.50148543  0.50184413  0.83725225  1
  Ni  Ni42  1  0.50192479  0.83650859  0.50159276  1
  Ni  Ni43  1  0.33323820  0.66997580  0.66832331  1
  Ni  Ni44  1  0.50179775  0.83582523  0.83585849  1
  Ni  Ni45  1  0.83439448  0.16878727  0.50158352  1
  Ni  Ni46  1  0.66903656  0.00368054  0.66849069  1
  Ni  Ni47  1  0.83460098  0.16855608  0.83547350  1
  Fe  Fe48  1  0.83642051  0.50137790  0.50034329  1
  Ni  Ni49  1  0.66953578  0.33376027  0.66854997  1
  Fe  Fe50  1  0.83586883  0.50127647  0.83693957  1
  Ni  Ni51  1  0.83546681  0.83617852  0.50098747  1
  Cr  Cr52  1  0.66904085  0.66879369  0.66912507  1
  Ni  Ni53  1  0.83571319  0.83641161  0.83620538  1
" 