3045,Ni83Fe13Cr3_17,-240.649684142633, 194.511536446373,Ni83Fe13Cr3,"# generated using pymatgen
 data_Cr2Fe7Ni45
_symmetry_space_group_name_H-M   'P 1'
_cell_length_a   7.43862340
_cell_length_b   7.43862340
_cell_length_c   10.51980210
_cell_angle_alpha   90.00000000
_cell_angle_beta   90.00000000
_cell_angle_gamma   90.00000000
_symmetry_Int_Tables_number   1
_chemical_formula_structural   Cr2Fe7Ni45
_chemical_formula_sum   'Cr2 Fe7 Ni45'
_cell_volume   582.09345210
_cell_formula_units_Z   1
loop_
 _symmetry_equiv_pos_site_id
 _symmetry_equiv_pos_as_xyz
  1  'x, y, z'
loop_
 _atom_site_type_symbol
 _atom_site_label
 _atom_site_symmetry_multiplicity
 _atom_site_fract_x
 _atom_site_fract_y
 _atom_site_fract_z
 _atom_site_occupancy
  Ni  Ni0  1  1.00171889  0.00321879  0.00249656  1
  Ni  Ni1  1  0.16855826  0.16855072  0.16861561  1
  Fe  Fe2  1  0.00295909  1.00146934  0.33527776  1
  Ni  Ni3  1  0.00191261  0.33386108  1.00161172  1
  Ni  Ni4  1  0.16932702  0.50152457  0.16926763  1
  Ni  Ni5  1  1.00152737  0.33597550  0.33536738  1
  Cr  Cr6  1  0.00259864  0.66841706  0.00192568  1
  Ni  Ni7  1  0.16920706  0.83565580  0.16925851  1
  Ni  Ni8  1  0.00253078  0.66784113  0.33541393  1
  Ni  Ni9  1  0.33573283  1.00180124  1.00153202  1
  Ni  Ni10  1  0.50152229  0.16932492  0.16762290  1
  Ni  Ni11  1  0.33444304  1.00130145  0.33560754  1
  Ni  Ni12  1  0.33537513  0.33512056  0.00234076  1
  Ni  Ni13  1  0.50214321  0.50214124  0.16884590  1
  Fe  Fe14  1  0.33523400  0.33557964  0.33514214  1
  Ni  Ni15  1  0.33639351  0.66881026  0.00218017  1
  Ni  Ni16  1  0.50148856  0.83426696  0.16783185  1
  Ni  Ni17  1  0.33446034  0.66925647  0.33485370  1
  Ni  Ni18  1  0.66828009  0.00220423  0.00204901  1
  Ni  Ni19  1  0.83565276  0.16920765  0.16803729  1
  Cr  Cr20  1  0.66820074  0.00254367  0.33470925  1
  Ni  Ni21  1  0.66844359  0.33452348  0.00216930  1
  Ni  Ni22  1  0.83426354  0.50149159  0.16913037  1
  Ni  Ni23  1  0.66935296  0.33599382  0.33524784  1
  Ni  Ni24  1  0.66702518  0.66900257  0.00200797  1
  Ni  Ni25  1  0.83503670  0.83503116  0.16868550  1
  Ni  Ni26  1  0.66873880  0.66743480  0.33541863  1
  Ni  Ni27  1  0.16898714  0.16862791  0.50195837  1
  Ni  Ni28  1  1.00111019  1.00159422  0.66806884  1
  Ni  Ni29  1  0.16832614  0.16897442  0.83515818  1
  Ni  Ni30  1  0.16838884  0.50227685  0.50191321  1
  Ni  Ni31  1  0.00191101  0.33533356  0.66875335  1
  Ni  Ni32  1  0.16978720  0.50142279  0.83454907  1
  Ni  Ni33  1  0.16822571  0.83482878  0.50188828  1
  Ni  Ni34  1  0.00291865  0.66880314  0.66830529  1
  Ni  Ni35  1  0.16893229  0.83533716  0.83458552  1
  Ni  Ni36  1  0.50156842  0.16939694  0.50269897  1
  Fe  Fe37  1  0.33476074  0.00249453  0.66859047  1
  Ni  Ni38  1  0.50227450  0.16897834  0.83540843  1
  Fe  Fe39  1  0.50195973  0.50154044  0.50193865  1
  Ni  Ni40  1  0.33530135  0.33578544  0.66814504  1
  Ni  Ni41  1  0.50139513  0.50199259  0.83523707  1
  Fe  Fe42  1  0.50118557  0.83497660  0.50214321  1
  Ni  Ni43  1  0.33430910  0.66837413  0.66869579  1
  Ni  Ni44  1  0.50223935  0.83476039  0.83526779  1
  Ni  Ni45  1  0.83517532  0.16923273  0.50253274  1
  Ni  Ni46  1  0.66894955  0.00258298  0.66863515  1
  Ni  Ni47  1  0.83512848  0.16812495  0.83515956  1
  Ni  Ni48  1  0.83524457  0.50219916  0.50205433  1
  Ni  Ni49  1  0.66851946  0.33397532  0.66831803  1
  Fe  Fe50  1  0.83470543  0.50103578  0.83470460  1
  Ni  Ni51  1  0.83601063  0.83429528  0.50246046  1
  Fe  Fe52  1  0.66917009  0.66846238  0.66876721  1
  Ni  Ni53  1  0.83455988  0.83621493  0.83458695  1
" 