240,Ni83Fe2Cr13_0,-234.295497461934, 164.19940910698,Ni83Fe2Cr13,"# generated using pymatgen
 data_Cr8FeNi45
_symmetry_space_group_name_H-M   'P 1'
_cell_length_a   7.46552282
_cell_length_b   7.46552282
_cell_length_c   10.55784362
_cell_angle_alpha   90.00000000
_cell_angle_beta   90.00000000
_cell_angle_gamma   90.00000000
_symmetry_Int_Tables_number   1
_chemical_formula_structural   Cr8FeNi45
_chemical_formula_sum   'Cr8 Fe1 Ni45'
_cell_volume   588.43118316
_cell_formula_units_Z   1
loop_
 _symmetry_equiv_pos_site_id
 _symmetry_equiv_pos_as_xyz
  1  'x, y, z'
loop_
 _atom_site_type_symbol
 _atom_site_label
 _atom_site_symmetry_multiplicity
 _atom_site_fract_x
 _atom_site_fract_y
 _atom_site_fract_z
 _atom_site_occupancy
  Ni  Ni0  1  0.99964581  1.00003971  0.00029476  1
  Ni  Ni1  1  0.16489416  0.16628923  0.16650098  1
  Ni  Ni2  1  0.99987931  0.00037971  0.33276049  1
  Ni  Ni3  1  0.99960112  0.33376902  0.99993158  1
  Ni  Ni4  1  0.16408738  0.49958901  0.16600618  1
  Ni  Ni5  1  0.99984850  0.33338363  0.33313912  1
  Ni  Ni6  1  0.00094755  0.66655908  0.99993082  1
  Ni  Ni7  1  0.16519336  0.83434855  0.16611241  1
  Ni  Ni8  1  0.99865614  0.66653858  0.33390098  1
  Ni  Ni9  1  0.33216459  0.99789489  0.00016498  1
  Cr  Cr10  1  0.49987120  0.16562453  0.16727747  1
  Ni  Ni11  1  0.33279212  0.00054940  0.33408848  1
  Ni  Ni12  1  0.33004538  0.33398674  0.00036635  1
  Cr  Cr13  1  0.50105857  0.50006280  0.16559232  1
  Ni  Ni14  1  0.33070406  0.33127018  0.33401918  1
  Ni  Ni15  1  0.33117106  0.66852014  0.99980922  1
  Ni  Ni16  1  0.50097871  0.83449220  0.16570359  1
  Cr  Cr17  1  0.33163732  0.66828260  0.33338304  1
  Ni  Ni18  1  0.66846982  0.99907230  0.99968094  1
  Ni  Ni19  1  0.83512330  0.16638733  0.16662502  1
  Ni  Ni20  1  0.66764861  0.99942030  0.33463139  1
  Ni  Ni21  1  0.67060477  0.33266502  0.99998244  1
  Ni  Ni22  1  0.83552427  0.50032646  0.16700511  1
  Ni  Ni23  1  0.66971227  0.33243855  0.33443001  1
  Fe  Fe24  1  0.66886033  0.66833133  0.00048455  1
  Ni  Ni25  1  0.83435743  0.83362975  0.16698374  1
  Ni  Ni26  1  0.66970262  0.66853123  0.33239267  1
  Ni  Ni27  1  0.16724853  0.16717298  0.49910797  1
  Cr  Cr28  1  0.99936886  0.00050673  0.66751822  1
  Ni  Ni29  1  0.16587094  0.16722287  0.83473084  1
  Ni  Ni30  1  0.16394189  0.49936887  0.50124200  1
  Ni  Ni31  1  0.99990294  0.33480239  0.66723033  1
  Ni  Ni32  1  0.16495783  0.50044315  0.83305997  1
  Ni  Ni33  1  0.16593213  0.83369493  0.50027088  1
  Ni  Ni34  1  0.00176639  0.66517669  0.66650123  1
  Ni  Ni35  1  0.16687098  0.83267425  0.83395261  1
  Ni  Ni36  1  0.50000183  0.16512943  0.50025685  1
  Ni  Ni37  1  0.33406676  0.99908763  0.66604830  1
  Cr  Cr38  1  0.49981034  0.16571495  0.83280762  1
  Cr  Cr39  1  0.50025365  0.49812366  0.50008249  1
  Ni  Ni40  1  0.33066601  0.33266993  0.66594967  1
  Cr  Cr41  1  0.49895446  0.50016755  0.83459483  1
  Ni  Ni42  1  0.50020148  0.83673203  0.50021249  1
  Ni  Ni43  1  0.33054577  0.66854917  0.66713097  1
  Ni  Ni44  1  0.49920785  0.83441195  0.83431909  1
  Ni  Ni45  1  0.83303408  0.16720609  0.49947413  1
  Ni  Ni46  1  0.66609626  0.00097358  0.66600704  1
  Ni  Ni47  1  0.83427686  0.16726388  0.83424937  1
  Ni  Ni48  1  0.83614743  0.49959268  0.49922764  1
  Ni  Ni49  1  0.66970361  0.33113165  0.66591658  1
  Ni  Ni50  1  0.83624918  0.49950256  0.83399915  1
  Ni  Ni51  1  0.83413878  0.83347552  0.49831252  1
  Cr  Cr52  1  0.66882938  0.66885603  0.66710111  1
  Ni  Ni53  1  0.83429066  0.83348117  0.83501287  1
" 