4800,Ni83Fe10Cr5_7,-238.470705299569, 184.364352952383,Ni83Fe10Cr5,"# generated using pymatgen
 data_Cr4(FeNi9)5
_symmetry_space_group_name_H-M   'P 1'
_cell_length_a   7.44781733
_cell_length_b   7.44781733
_cell_length_c   10.53280427
_cell_angle_alpha   90.00000000
_cell_angle_beta   90.00000000
_cell_angle_gamma   90.00000000
_symmetry_Int_Tables_number   1
_chemical_formula_structural   Cr4(FeNi9)5
_chemical_formula_sum   'Cr4 Fe5 Ni45'
_cell_volume   584.25447326
_cell_formula_units_Z   1
loop_
 _symmetry_equiv_pos_site_id
 _symmetry_equiv_pos_as_xyz
  1  'x, y, z'
loop_
 _atom_site_type_symbol
 _atom_site_label
 _atom_site_symmetry_multiplicity
 _atom_site_fract_x
 _atom_site_fract_y
 _atom_site_fract_z
 _atom_site_occupancy
  Cr  Cr0  1  0.00140900  0.00143258  0.00129633  1
  Ni  Ni1  1  0.16931884  0.16797167  0.16868971  1
  Ni  Ni2  1  0.00194244  1.00103708  0.33485189  1
  Ni  Ni3  1  0.00138617  0.33650214  1.00123955  1
  Fe  Fe4  1  0.16674458  0.50014011  0.16842515  1
  Ni  Ni5  1  0.00160916  0.33479367  0.33429964  1
  Ni  Ni6  1  0.00139037  0.66576353  1.00021364  1
  Ni  Ni7  1  0.16785903  0.83506972  0.16921864  1
  Ni  Ni8  1  1.00076004  0.66804063  0.33460143  1
  Ni  Ni9  1  0.33634937  0.00300044  1.00076672  1
  Ni  Ni10  1  0.50086254  0.16845192  0.16685770  1
  Ni  Ni11  1  0.33412812  0.00148106  0.33418999  1
  Ni  Ni12  1  0.33362932  0.33205901  0.00132248  1
  Ni  Ni13  1  0.50204023  0.49943522  0.16966791  1
  Ni  Ni14  1  0.33446049  0.33434665  0.33501162  1
  Cr  Cr15  1  0.33270108  0.66929750  0.00272370  1
  Ni  Ni16  1  0.50093602  0.83598562  0.16951665  1
  Fe  Fe17  1  0.33463962  0.66789900  0.33498388  1
  Ni  Ni18  1  0.66579977  0.00300313  1.00081160  1
  Ni  Ni19  1  0.83368969  0.16908196  0.16873801  1
  Ni  Ni20  1  0.66780257  1.00063421  0.33440990  1
  Ni  Ni21  1  0.66885399  0.33238919  0.00214236  1
  Ni  Ni22  1  0.83459651  0.50089633  0.16823185  1
  Ni  Ni23  1  0.66780132  0.33552893  0.33445809  1
  Cr  Cr24  1  0.67012184  0.66894367  0.00176398  1
  Ni  Ni25  1  0.83507580  0.83389440  0.16927769  1
  Ni  Ni26  1  0.66824519  0.66771015  0.33458533  1
  Ni  Ni27  1  0.16836549  0.16741465  0.50128073  1
  Ni  Ni28  1  0.00197286  0.00212042  0.66773427  1
  Ni  Ni29  1  0.16909361  0.16831028  0.83389876  1
  Ni  Ni30  1  0.16856442  0.50164458  0.50099616  1
  Ni  Ni31  1  1.00087405  0.33430452  0.66833748  1
  Ni  Ni32  1  0.16527716  0.50092651  0.83469971  1
  Ni  Ni33  1  0.16731303  0.83481235  0.50134011  1
  Fe  Fe34  1  1.00085249  0.66850053  0.66810893  1
  Ni  Ni35  1  0.16784851  0.83463551  0.83331332  1
  Ni  Ni36  1  0.50119701  0.16900178  0.50126282  1
  Ni  Ni37  1  0.33412048  1.00000609  0.66891931  1
  Ni  Ni38  1  0.50116424  0.16605621  0.83575135  1
  Ni  Ni39  1  0.50152923  0.50059645  0.50115595  1
  Fe  Fe40  1  0.33423138  0.33331183  0.66697144  1
  Cr  Cr41  1  0.50169879  0.49925790  0.83327768  1
  Fe  Fe42  1  0.50151581  0.83479563  0.50173335  1
  Ni  Ni43  1  0.33452499  0.66940955  0.66692060  1
  Ni  Ni44  1  0.50108956  0.83819293  0.83301777  1
  Ni  Ni45  1  0.83431318  0.16774798  0.50102862  1
  Ni  Ni46  1  0.66777924  1.00086270  0.66865401  1
  Ni  Ni47  1  0.83361855  0.16864117  0.83410671  1
  Ni  Ni48  1  0.83377978  0.50164801  0.50148239  1
  Ni  Ni49  1  0.66973893  0.33470409  0.66727417  1
  Ni  Ni50  1  0.83717764  0.50085419  0.83415052  1
  Ni  Ni51  1  0.83536500  0.83447982  0.50105398  1
  Ni  Ni52  1  0.66762336  0.66830780  0.66741597  1
  Ni  Ni53  1  0.83493217  0.83438108  0.83353253  1
" 