6409,Ni83Fe10Cr5_2,-238.550778613538, 185.659078990717,Ni83Fe10Cr5,"# generated using pymatgen
 data_Cr4(FeNi9)5
_symmetry_space_group_name_H-M   'P 1'
_cell_length_a   7.44812390
_cell_length_b   7.44812390
_cell_length_c   10.53323784
_cell_angle_alpha   90.00000000
_cell_angle_beta   90.00000000
_cell_angle_gamma   90.00000000
_symmetry_Int_Tables_number   1
_chemical_formula_structural   Cr4(FeNi9)5
_chemical_formula_sum   'Cr4 Fe5 Ni45'
_cell_volume   584.32662541
_cell_formula_units_Z   1
loop_
 _symmetry_equiv_pos_site_id
 _symmetry_equiv_pos_as_xyz
  1  'x, y, z'
loop_
 _atom_site_type_symbol
 _atom_site_label
 _atom_site_symmetry_multiplicity
 _atom_site_fract_x
 _atom_site_fract_y
 _atom_site_fract_z
 _atom_site_occupancy
  Ni  Ni0  1  0.00192196  0.00341071  0.99996975  1
  Ni  Ni1  1  0.16819204  0.16865640  0.16826648  1
  Ni  Ni2  1  0.00212670  0.00300589  0.33576177  1
  Ni  Ni3  1  1.00116726  0.33320071  0.00193948  1
  Ni  Ni4  1  0.16786184  0.50070724  0.16816571  1
  Ni  Ni5  1  1.00112473  0.33419387  0.33511443  1
  Fe  Fe6  1  0.00227781  0.66809819  1.00101707  1
  Fe  Fe7  1  0.17003380  0.83480622  0.16820886  1
  Ni  Ni8  1  0.00373672  0.66661148  0.33503689  1
  Ni  Ni9  1  0.33430788  1.00042842  1.00102771  1
  Ni  Ni10  1  0.50109975  0.16757832  0.16809201  1
  Ni  Ni11  1  0.33352120  1.00061254  0.33388523  1
  Fe  Fe12  1  0.33501645  0.33418182  1.00114786  1
  Ni  Ni13  1  0.50022598  0.50057469  0.16724699  1
  Ni  Ni14  1  0.33346256  0.33552205  0.33308684  1
  Ni  Ni15  1  0.33557333  0.66803112  1.00097855  1
  Ni  Ni16  1  0.49942544  0.83565388  0.16738517  1
  Ni  Ni17  1  0.33323865  0.66767603  0.33520916  1
  Ni  Ni18  1  0.66758293  0.00206781  1.00022518  1
  Ni  Ni19  1  0.83452447  0.16945623  0.16825476  1
  Ni  Ni20  1  0.66816428  0.00322743  0.33438295  1
  Ni  Ni21  1  0.66841200  0.33446477  0.00218082  1
  Ni  Ni22  1  0.83572679  0.49903212  0.16742400  1
  Ni  Ni23  1  0.66922649  0.33391016  0.33374889  1
  Ni  Ni24  1  0.66543511  0.66727941  1.00091248  1
  Cr  Cr25  1  0.83475437  0.83526221  0.16689813  1
  Cr  Cr26  1  0.66667227  0.66676953  0.33586592  1
  Ni  Ni27  1  0.16620585  0.16785477  0.50117782  1
  Ni  Ni28  1  1.00076476  0.00152514  0.66807681  1
  Ni  Ni29  1  0.16829170  0.16757021  0.83437092  1
  Ni  Ni30  1  0.16760943  0.50178213  0.50112693  1
  Fe  Fe31  1  0.00274319  0.33369059  0.66708913  1
  Ni  Ni32  1  0.16976252  0.50136991  0.83452075  1
  Ni  Ni33  1  0.16754050  0.83417484  0.50035662  1
  Ni  Ni34  1  0.00163601  0.66874117  0.66753729  1
  Ni  Ni35  1  0.16796414  0.83486894  0.83514359  1
  Cr  Cr36  1  0.50078936  0.16737969  0.50050484  1
  Ni  Ni37  1  0.33360293  1.00101073  0.66889610  1
  Ni  Ni38  1  0.50097762  0.16731196  0.83504763  1
  Ni  Ni39  1  0.50042067  0.50256425  0.50193931  1
  Ni  Ni40  1  0.33361078  0.33594030  0.66961930  1
  Ni  Ni41  1  0.49937478  0.50148585  0.83462665  1
  Ni  Ni42  1  0.50074327  0.83364912  0.50190309  1
  Ni  Ni43  1  0.33512293  0.66685938  0.66762156  1
  Ni  Ni44  1  0.50142171  0.83500730  0.83452550  1
  Ni  Ni45  1  0.83630835  0.16752652  0.50061666  1
  Ni  Ni46  1  0.66944319  1.00001083  0.66920115  1
  Ni  Ni47  1  0.83454449  0.16552183  0.83494476  1
  Ni  Ni48  1  0.83578340  0.50123462  0.50130736  1
  Fe  Fe49  1  0.66735839  0.33466087  0.66792553  1
  Cr  Cr50  1  0.83476075  0.50219051  0.83508783  1
  Ni  Ni51  1  0.83552744  0.83504654  0.50243175  1
  Ni  Ni52  1  0.66705434  0.66872446  0.66719225  1
  Ni  Ni53  1  0.83442455  0.83647816  0.83437563  1
" 