2640,Ni83Fe2Cr13_13,-234.297874342726, 164.5152282203,Ni83Fe2Cr13,"# generated using pymatgen
 data_Cr8FeNi45
_symmetry_space_group_name_H-M   'P 1'
_cell_length_a   7.46885150
_cell_length_b   7.46885150
_cell_length_c   10.56255109
_cell_angle_alpha   90.00000000
_cell_angle_beta   90.00000000
_cell_angle_gamma   90.00000000
_symmetry_Int_Tables_number   1
_chemical_formula_structural   Cr8FeNi45
_chemical_formula_sum   'Cr8 Fe1 Ni45'
_cell_volume   589.21863252
_cell_formula_units_Z   1
loop_
 _symmetry_equiv_pos_site_id
 _symmetry_equiv_pos_as_xyz
  1  'x, y, z'
loop_
 _atom_site_type_symbol
 _atom_site_label
 _atom_site_symmetry_multiplicity
 _atom_site_fract_x
 _atom_site_fract_y
 _atom_site_fract_z
 _atom_site_occupancy
  Ni  Ni0  1  0.99933135  -0.00009533  0.99968120  1
  Ni  Ni1  1  0.16694765  0.16670837  0.16470118  1
  Cr  Cr2  1  0.99925172  0.99841580  0.33291596  1
  Ni  Ni3  1  0.99933179  0.33322340  0.00012255  1
  Ni  Ni4  1  0.16704748  0.50097509  0.16613720  1
  Cr  Cr5  1  0.00119923  0.33438859  0.33325814  1
  Ni  Ni6  1  0.00070153  0.66652714  0.00012952  1
  Ni  Ni7  1  0.16709166  0.83194158  0.16585351  1
  Ni  Ni8  1  0.00002714  0.66662142  0.33348735  1
  Ni  Ni9  1  0.33165391  0.99730125  -0.00007990  1
  Cr  Cr10  1  0.49863513  0.16555301  0.16631585  1
  Ni  Ni11  1  0.33324385  0.99727755  0.33318325  1
  Ni  Ni12  1  0.33163536  0.33582520  0.00032922  1
  Ni  Ni13  1  0.49884125  0.50213558  0.16584948  1
  Ni  Ni14  1  0.33152154  0.33570652  0.33298528  1
  Ni  Ni15  1  0.33298571  0.66651279  0.99966586  1
  Ni  Ni16  1  0.49988869  0.83187261  0.16702078  1
  Ni  Ni17  1  0.33380403  0.66665008  0.33350015  1
  Ni  Ni18  1  0.66862452  0.99868076  0.00033064  1
  Ni  Ni19  1  0.83371899  0.16559331  0.16361959  1
  Ni  Ni20  1  0.66649307  0.99572359  0.33330395  1
  Ni  Ni21  1  0.66863252  0.33455163  0.99944660  1
  Ni  Ni22  1  0.83372766  0.50204725  0.16493907  1
  Cr  Cr23  1  0.66732511  0.33507388  0.33396704  1
  Fe  Fe24  1  0.66639275  0.66685939  0.99985465  1
  Ni  Ni25  1  0.83264942  0.83197624  0.16609801  1
  Ni  Ni26  1  0.66578635  0.66851828  0.33263443  1
  Ni  Ni27  1  0.16703000  0.16462340  0.49963215  1
  Ni  Ni28  1  0.99949051  0.99809010  0.66678157  1
  Ni  Ni29  1  0.16495658  0.16456041  0.83531180  1
  Ni  Ni30  1  0.16713138  0.50302060  0.49844341  1
  Cr  Cr31  1  0.99830116  0.33286058  0.66625791  1
  Ni  Ni32  1  0.16618575  0.50212831  0.83508188  1
  Ni  Ni33  1  0.16707475  0.83197173  0.50103329  1
  Ni  Ni34  1  0.99979928  0.66861496  0.66603222  1
  Ni  Ni35  1  0.16620569  0.83290742  0.83273573  1
  Cr  Cr36  1  0.49976387  0.16453631  0.49969384  1
  Ni  Ni37  1  0.33145081  0.99549426  0.66653475  1
  Cr  Cr38  1  0.50063284  0.16562276  0.83369503  1
  Ni  Ni39  1  0.49996129  0.50318692  0.49990243  1
  Cr  Cr40  1  0.33304597  0.33604495  0.66659544  1
  Ni  Ni41  1  0.50082870  0.50216704  0.83391288  1
  Ni  Ni42  1  0.49996596  0.83163689  0.49965480  1
  Ni  Ni43  1  0.33381301  0.66873548  0.66647230  1
  Ni  Ni44  1  0.49967066  0.83179252  0.83293019  1
  Ni  Ni45  1  0.83282609  0.16459055  0.50215027  1
  Ni  Ni46  1  0.66869501  0.99759674  0.66601992  1
  Ni  Ni47  1  0.83380287  0.16573554  0.83386763  1
  Ni  Ni48  1  0.83257363  0.50316851  0.50087134  1
  Ni  Ni49  1  0.66868433  0.33526776  0.66644292  1
  Ni  Ni50  1  0.83269631  0.50087666  0.83381763  1
  Ni  Ni51  1  0.83258341  0.83182298  0.50055329  1
  Ni  Ni52  1  0.66604029  0.66678372  0.66688844  1
  Ni  Ni53  1  0.83377936  0.83307681  0.83291531  1
" 