6273,Ni83Fe2Cr13_1,-234.25494276394, 165.075728000999,Ni83Fe2Cr13,"# generated using pymatgen
 data_Cr8FeNi45
_symmetry_space_group_name_H-M   'P 1'
_cell_length_a   7.46662355
_cell_length_b   7.46662355
_cell_length_c   10.55940028
_cell_angle_alpha   90.00000000
_cell_angle_beta   90.00000000
_cell_angle_gamma   90.00000000
_symmetry_Int_Tables_number   1
_chemical_formula_structural   Cr8FeNi45
_chemical_formula_sum   'Cr8 Fe1 Ni45'
_cell_volume   588.69149878
_cell_formula_units_Z   1
loop_
 _symmetry_equiv_pos_site_id
 _symmetry_equiv_pos_as_xyz
  1  'x, y, z'
loop_
 _atom_site_type_symbol
 _atom_site_label
 _atom_site_symmetry_multiplicity
 _atom_site_fract_x
 _atom_site_fract_y
 _atom_site_fract_z
 _atom_site_occupancy
  Ni  Ni0  1  0.00026300  0.00177917  0.99947708  1
  Ni  Ni1  1  0.16530964  0.16772232  0.16582132  1
  Ni  Ni2  1  0.99962063  0.00117776  0.33324474  1
  Ni  Ni3  1  0.99996839  0.33162200  0.00034850  1
  Ni  Ni4  1  0.16596894  0.49893661  0.16748466  1
  Ni  Ni5  1  0.99991946  0.33345884  0.33319843  1
  Cr  Cr6  1  0.00067646  0.66574461  0.00014304  1
  Ni  Ni7  1  0.16440163  0.83347462  0.16667496  1
  Ni  Ni8  1  0.00082733  0.66551780  0.33233955  1
  Ni  Ni9  1  0.33264298  0.00116526  0.99921641  1
  Ni  Ni10  1  0.50101479  0.16801286  0.16537764  1
  Cr  Cr11  1  0.33202629  0.00038399  0.33346969  1
  Ni  Ni12  1  0.33207220  0.33167575  0.99892409  1
  Cr  Cr13  1  0.49842805  0.49725672  0.16742220  1
  Ni  Ni14  1  0.33118831  0.33456432  0.33369436  1
  Ni  Ni15  1  0.33124648  0.66726124  0.99801580  1
  Cr  Cr16  1  0.50019085  0.83429787  0.16687906  1
  Ni  Ni17  1  0.33121186  0.66556786  0.33546248  1
  Ni  Ni18  1  0.66720198  0.00271945  0.99958672  1
  Ni  Ni19  1  0.83385272  0.16644701  0.16692214  1
  Ni  Ni20  1  0.66903178  0.00103631  0.33203412  1
  Ni  Ni21  1  0.66802382  0.33041807  0.99871875  1
  Ni  Ni22  1  0.83507793  0.49791028  0.16872616  1
  Ni  Ni23  1  0.66899210  0.33323780  0.33365596  1
  Cr  Cr24  1  0.66771635  0.66681778  0.99760126  1
  Ni  Ni25  1  0.83565491  0.83569233  0.16851212  1
  Ni  Ni26  1  0.66797644  0.66583862  0.33477460  1
  Ni  Ni27  1  0.16500294  0.16692318  0.50011529  1
  Fe  Fe28  1  0.00106973  0.99972139  0.66756574  1
  Ni  Ni29  1  0.16754152  0.16595902  0.83417078  1
  Ni  Ni30  1  0.16767122  0.50088428  0.49876587  1
  Cr  Cr31  1  0.99996846  0.33424808  0.66658154  1
  Ni  Ni32  1  0.16869048  0.49993575  0.83383185  1
  Ni  Ni33  1  0.16700894  0.83216239  0.50094418  1
  Ni  Ni34  1  0.00085384  0.66647097  0.66771626  1
  Ni  Ni35  1  0.16728776  0.83412642  0.83252758  1
  Cr  Cr36  1  0.50132953  0.16818262  0.50051278  1
  Ni  Ni37  1  0.33335049  0.99912828  0.66750507  1
  Ni  Ni38  1  0.50001941  0.16693676  0.83401920  1
  Ni  Ni39  1  0.49974215  0.50150368  0.50030046  1
  Ni  Ni40  1  0.33351493  0.33343216  0.66732296  1
  Ni  Ni41  1  0.49874312  0.49884200  0.83199127  1
  Ni  Ni42  1  0.49949662  0.83064525  0.50089658  1
  Ni  Ni43  1  0.33304202  0.66747105  0.66656653  1
  Ni  Ni44  1  0.49914060  0.83426309  0.83232916  1
  Ni  Ni45  1  0.83423336  0.16744104  0.49899702  1
  Ni  Ni46  1  0.66535076  1.00000625  0.66855108  1
  Ni  Ni47  1  0.83250870  0.16567418  0.83419084  1
  Ni  Ni48  1  0.83267539  0.49948088  0.49900752  1
  Ni  Ni49  1  0.66661552  0.33377674  0.66762686  1
  Ni  Ni50  1  0.83259341  0.49893493  0.83241019  1
  Cr  Cr51  1  0.83374337  0.83392693  0.50014073  1
  Ni  Ni52  1  0.66621079  0.66625432  0.66747589  1
  Ni  Ni53  1  0.83362308  0.83546459  0.83174438  1
" 