5924,Ni83Fe10Cr5_18,-238.720283777097, 186.234374802489,Ni83Fe10Cr5,"# generated using pymatgen
 data_Cr4(FeNi9)5
_symmetry_space_group_name_H-M   'P 1'
_cell_length_a   7.44694002
_cell_length_b   7.44694002
_cell_length_c   10.53156358
_cell_angle_alpha   90.00000000
_cell_angle_beta   90.00000000
_cell_angle_gamma   90.00000000
_symmetry_Int_Tables_number   1
_chemical_formula_structural   Cr4(FeNi9)5
_chemical_formula_sum   'Cr4 Fe5 Ni45'
_cell_volume   584.04803328
_cell_formula_units_Z   1
loop_
 _symmetry_equiv_pos_site_id
 _symmetry_equiv_pos_as_xyz
  1  'x, y, z'
loop_
 _atom_site_type_symbol
 _atom_site_label
 _atom_site_symmetry_multiplicity
 _atom_site_fract_x
 _atom_site_fract_y
 _atom_site_fract_z
 _atom_site_occupancy
  Ni  Ni0  1  0.00145427  0.00178582  1.00085869  1
  Fe  Fe1  1  0.16775867  0.16713515  0.16779168  1
  Ni  Ni2  1  0.00141346  0.00155558  0.33469000  1
  Ni  Ni3  1  0.99989780  0.33303279  0.00164294  1
  Fe  Fe4  1  0.16713827  0.50065017  0.16700182  1
  Ni  Ni5  1  1.00008837  0.33295944  0.33450701  1
  Ni  Ni6  1  0.99999778  0.66903745  0.00208924  1
  Ni  Ni7  1  0.16706475  0.83538281  0.16736603  1
  Ni  Ni8  1  1.00019723  0.66928734  0.33410363  1
  Ni  Ni9  1  0.33444024  0.00136788  0.00141410  1
  Ni  Ni10  1  0.50229862  0.16784378  0.16796115  1
  Ni  Ni11  1  0.33422105  0.00316869  0.33486137  1
  Ni  Ni12  1  0.33577146  0.33308887  0.00154075  1
  Ni  Ni13  1  0.50176453  0.49894384  0.16574706  1
  Ni  Ni14  1  0.33583705  0.33188102  0.33408350  1
  Ni  Ni15  1  0.33603302  0.66932244  0.00192573  1
  Ni  Ni16  1  0.50071543  0.83733817  0.16699193  1
  Cr  Cr17  1  0.33510885  0.66915107  0.33447705  1
  Ni  Ni18  1  0.66802818  0.00147722  1.00100298  1
  Ni  Ni19  1  0.83352075  0.16783256  0.16848764  1
  Ni  Ni20  1  0.66842852  0.00288358  0.33511993  1
  Ni  Ni21  1  0.66835102  0.33466711  1.00128061  1
  Ni  Ni22  1  0.83537546  0.49997686  0.16761774  1
  Ni  Ni23  1  0.66801671  0.33347968  0.33482215  1
  Ni  Ni24  1  0.66779475  0.66791517  0.00144642  1
  Ni  Ni25  1  0.83618233  0.83625134  0.16662581  1
  Cr  Cr26  1  0.66944251  0.66780066  0.33446189  1
  Ni  Ni27  1  0.16827199  0.16563808  0.50097510  1
  Ni  Ni28  1  0.00227247  0.00207061  0.66830666  1
  Ni  Ni29  1  0.16793521  0.16572449  0.83490989  1
  Cr  Cr30  1  0.16702092  0.50102348  0.50294037  1
  Ni  Ni31  1  0.99895192  0.33159570  0.66777306  1
  Cr  Cr32  1  0.16789565  0.50236327  0.83407367  1
  Ni  Ni33  1  0.16651717  0.83701844  0.50218232  1
  Ni  Ni34  1  0.99868097  0.67052832  0.66779847  1
  Ni  Ni35  1  0.16840687  0.83599345  0.83454729  1
  Ni  Ni36  1  0.50176122  0.16849454  0.50102550  1
  Ni  Ni37  1  0.33358859  0.00182927  0.66779513  1
  Ni  Ni38  1  0.50200730  0.16756726  0.83518961  1
  Ni  Ni39  1  0.50277913  0.49834689  0.50337428  1
  Ni  Ni40  1  0.33687611  0.33180946  0.66839139  1
  Ni  Ni41  1  0.50320794  0.50148563  0.83492868  1
  Fe  Fe42  1  0.50233998  0.83712247  0.50291012  1
  Ni  Ni43  1  0.33727668  0.67053643  0.66786203  1
  Ni  Ni44  1  0.50016120  0.83510516  0.83473620  1
  Ni  Ni45  1  0.83395997  0.16748223  0.50088492  1
  Fe  Fe46  1  0.66816073  0.00232491  0.66823125  1
  Ni  Ni47  1  0.83416689  0.16856230  0.83478505  1
  Ni  Ni48  1  0.83373222  0.50068482  0.50181530  1
  Ni  Ni49  1  0.66829170  0.33548815  0.66793177  1
  Ni  Ni50  1  0.83322680  0.50075747  0.83449878  1
  Ni  Ni51  1  0.83686128  0.83608915  0.50210965  1
  Ni  Ni52  1  0.66805177  0.66715411  0.66802023  1
  Fe  Fe53  1  0.83415932  0.83489051  0.83498753  1
" 