8416,Ni83Fe2Cr13_17,-234.062193240878, 161.244378864323,Ni83Fe2Cr13,"# generated using pymatgen
 data_Cr8FeNi45
_symmetry_space_group_name_H-M   'P 1'
_cell_length_a   7.47062675
_cell_length_b   7.47062675
_cell_length_c   10.56506167
_cell_angle_alpha   90.00000000
_cell_angle_beta   90.00000000
_cell_angle_gamma   90.00000000
_symmetry_Int_Tables_number   1
_chemical_formula_structural   Cr8FeNi45
_chemical_formula_sum   'Cr8 Fe1 Ni45'
_cell_volume   589.63888096
_cell_formula_units_Z   1
loop_
 _symmetry_equiv_pos_site_id
 _symmetry_equiv_pos_as_xyz
  1  'x, y, z'
loop_
 _atom_site_type_symbol
 _atom_site_label
 _atom_site_symmetry_multiplicity
 _atom_site_fract_x
 _atom_site_fract_y
 _atom_site_fract_z
 _atom_site_occupancy
  Ni  Ni0  1  0.00140383  0.99927720  0.99925271  1
  Ni  Ni1  1  0.16767117  0.16721977  0.16525235  1
  Cr  Cr2  1  0.00134256  0.99908501  0.33405776  1
  Ni  Ni3  1  0.00108523  0.33310203  0.00035908  1
  Ni  Ni4  1  0.16648302  0.49974272  0.16719925  1
  Ni  Ni5  1  0.00194556  0.33315695  0.33210897  1
  Ni  Ni6  1  0.00024941  0.66689924  0.00006628  1
  Ni  Ni7  1  0.16755508  0.83228666  0.16521238  1
  Ni  Ni8  1  0.00093357  0.66670356  0.33242547  1
  Ni  Ni9  1  0.33134602  0.99930382  -0.00015422  1
  Ni  Ni10  1  0.49543249  0.16504441  0.16751470  1
  Ni  Ni11  1  0.33392529  0.99932523  0.33288839  1
  Ni  Ni12  1  0.33188325  0.33344748  0.00022165  1
  Ni  Ni13  1  0.49718244  0.50213823  0.16630505  1
  Ni  Ni14  1  0.33232286  0.33292119  0.33314491  1
  Ni  Ni15  1  0.33341713  0.66651797  -0.00007896  1
  Ni  Ni16  1  0.49818924  0.83194888  0.16748626  1
  Ni  Ni17  1  0.33371938  0.66696673  0.33341555  1
  Cr  Cr18  1  0.66496142  0.99851245  0.00157682  1
  Ni  Ni19  1  0.83574664  0.16633806  0.16656937  1
  Fe  Fe20  1  0.66419619  0.99818512  0.33298650  1
  Cr  Cr21  1  0.66412418  0.33550516  -0.00022040  1
  Ni  Ni22  1  0.83537917  0.50199925  0.16603593  1
  Cr  Cr23  1  0.66364340  0.33277301  0.33082298  1
  Ni  Ni24  1  0.66561820  0.66644951  -0.00014861  1
  Ni  Ni25  1  0.83326246  0.83075366  0.16668495  1
  Ni  Ni26  1  0.66462101  0.66804789  0.33172950  1
  Ni  Ni27  1  0.17010193  0.16733577  0.49886659  1
  Cr  Cr28  1  0.00163561  0.99867612  0.66683948  1
  Ni  Ni29  1  0.16907815  0.16662688  0.83528389  1
  Ni  Ni30  1  0.17068585  0.49962334  0.49702329  1
  Cr  Cr31  1  0.00187495  0.33230908  0.66654302  1
  Ni  Ni32  1  0.16876443  0.49961108  0.83493847  1
  Ni  Ni33  1  0.17017906  0.83227499  0.49891386  1
  Cr  Cr34  1  0.00317506  0.66839644  0.66665887  1
  Ni  Ni35  1  0.16918618  0.83305027  0.83526016  1
  Ni  Ni36  1  0.49807728  0.16521851  0.50072973  1
  Ni  Ni37  1  0.33485156  0.99926399  0.66657741  1
  Ni  Ni38  1  0.49716278  0.16580375  0.83092082  1
  Ni  Ni39  1  0.49708393  0.50069917  0.50099994  1
  Ni  Ni40  1  0.33555616  0.33331479  0.66594756  1
  Ni  Ni41  1  0.49819797  0.50099301  0.83183964  1
  Ni  Ni42  1  0.49944989  0.83322684  0.49966176  1
  Ni  Ni43  1  0.33540141  0.66669878  0.66590551  1
  Ni  Ni44  1  0.49866642  0.83256068  0.83217985  1
  Ni  Ni45  1  0.83084887  0.16483748  0.49986816  1
  Ni  Ni46  1  0.66461828  0.99957275  0.66506665  1
  Ni  Ni47  1  0.83289542  0.16616817  0.83277515  1
  Cr  Cr48  1  0.83193035  0.50079668  0.49892268  1
  Ni  Ni49  1  0.66315052  0.33225129  0.66778293  1
  Ni  Ni50  1  0.83239995  0.50099271  0.83429969  1
  Ni  Ni51  1  0.82952563  0.83354926  0.49877073  1
  Ni  Ni52  1  0.66338807  0.66738847  0.66781917  1
  Ni  Ni53  1  0.83153854  0.83217295  0.83395482  1
" 