5204,Ni83Fe2Cr13_4,-234.144390505421, 162.747312125074,Ni83Fe2Cr13,"# generated using pymatgen
 data_Cr8FeNi45
_symmetry_space_group_name_H-M   'P 1'
_cell_length_a   7.46723231
_cell_length_b   7.46723231
_cell_length_c   10.56026121
_cell_angle_alpha   90.00000000
_cell_angle_beta   90.00000000
_cell_angle_gamma   90.00000000
_symmetry_Int_Tables_number   1
_chemical_formula_structural   Cr8FeNi45
_chemical_formula_sum   'Cr8 Fe1 Ni45'
_cell_volume   588.83550228
_cell_formula_units_Z   1
loop_
 _symmetry_equiv_pos_site_id
 _symmetry_equiv_pos_as_xyz
  1  'x, y, z'
loop_
 _atom_site_type_symbol
 _atom_site_label
 _atom_site_symmetry_multiplicity
 _atom_site_fract_x
 _atom_site_fract_y
 _atom_site_fract_z
 _atom_site_occupancy
  Cr  Cr0  1  0.00081160  0.99924244  0.00058061  1
  Ni  Ni1  1  0.16817733  0.16850446  0.16657448  1
  Cr  Cr2  1  0.00039919  0.99946672  0.33286205  1
  Ni  Ni3  1  0.00077076  0.33559376  0.00086317  1
  Ni  Ni4  1  0.16545914  0.49918726  0.16589435  1
  Ni  Ni5  1  0.99968834  0.33405636  0.33334466  1
  Ni  Ni6  1  0.99958203  0.66540671  0.00063224  1
  Ni  Ni7  1  0.16588799  0.83227789  0.16594525  1
  Ni  Ni8  1  0.99947208  0.66573911  0.33292906  1
  Ni  Ni9  1  0.33411309  0.00102456  0.99899124  1
  Ni  Ni10  1  0.50005571  0.16819641  0.16656624  1
  Ni  Ni11  1  0.33317822  0.00281605  0.33415681  1
  Ni  Ni12  1  0.33301721  0.33237178  0.00146845  1
  Ni  Ni13  1  0.49997308  0.49671405  0.16511649  1
  Ni  Ni14  1  0.33393964  0.33115632  0.33293141  1
  Ni  Ni15  1  0.33213819  0.66654310  0.00008589  1
  Cr  Cr16  1  0.49952912  0.83486434  0.16490010  1
  Cr  Cr17  1  0.33168950  0.66564214  0.33462496  1
  Ni  Ni18  1  0.66502783  0.99983107  0.00071369  1
  Ni  Ni19  1  0.83169133  0.16864810  0.16689573  1
  Fe  Fe20  1  0.66626532  0.00262908  0.33409887  1
  Ni  Ni21  1  0.66619400  0.33365379  0.00185863  1
  Ni  Ni22  1  0.83451720  0.49900721  0.16559179  1
  Ni  Ni23  1  0.66631679  0.33232050  0.33330339  1
  Ni  Ni24  1  0.66822349  0.66647730  0.99982038  1
  Ni  Ni25  1  0.83419888  0.83233552  0.16566983  1
  Cr  Cr26  1  0.66885053  0.66512781  0.33416902  1
  Ni  Ni27  1  0.16664155  0.16667764  0.50004188  1
  Ni  Ni28  1  0.00072594  0.99897481  0.66579953  1
  Ni  Ni29  1  0.16819414  0.16658558  0.83333323  1
  Ni  Ni30  1  0.16486605  0.50016126  0.49970931  1
  Ni  Ni31  1  0.99900925  0.33381155  0.66574145  1
  Ni  Ni32  1  0.16408134  0.50103212  0.83438240  1
  Ni  Ni33  1  0.16694968  0.83315381  0.50147396  1
  Ni  Ni34  1  0.99944084  0.66718959  0.66638636  1
  Ni  Ni35  1  0.16784699  0.83237455  0.83251783  1
  Ni  Ni36  1  0.50089989  0.16567877  0.49884889  1
  Ni  Ni37  1  0.33314192  0.99839916  0.66684104  1
  Ni  Ni38  1  0.49924969  0.16371095  0.83458721  1
  Ni  Ni39  1  0.50082474  0.49931279  0.50054062  1
  Cr  Cr40  1  0.33291036  0.33251299  0.66584704  1
  Cr  Cr41  1  0.50090580  0.50098211  0.83437359  1
  Ni  Ni42  1  0.49968687  0.83500491  0.50212828  1
  Ni  Ni43  1  0.33286963  0.66933250  0.66553052  1
  Ni  Ni44  1  0.49970643  0.83507863  0.83316555  1
  Ni  Ni45  1  0.83242730  0.16777302  0.50071837  1
  Ni  Ni46  1  0.66610592  0.99884006  0.66530428  1
  Cr  Cr47  1  0.83256689  0.16800108  0.83202830  1
  Ni  Ni48  1  0.83425303  0.49902718  0.50101689  1
  Ni  Ni49  1  0.66824743  0.33354796  0.66479887  1
  Ni  Ni50  1  0.83526071  0.50152905  0.83335131  1
  Ni  Ni51  1  0.83330200  0.83320935  0.50152496  1
  Ni  Ni52  1  0.66765273  0.66758552  0.66601314  1
  Ni  Ni53  1  0.83239745  0.83101137  0.83273854  1
" 