2999,Ni83Fe14Cr1_7,-241.517297724897, 199.598730794966,Ni83Fe14Cr1,"# generated using pymatgen
 data_CrFe8Ni45
_symmetry_space_group_name_H-M   'P 1'
_cell_length_a   7.43196734
_cell_length_b   7.43196734
_cell_length_c   10.51038900
_cell_angle_alpha   90.00000000
_cell_angle_beta   90.00000000
_cell_angle_gamma   90.00000000
_symmetry_Int_Tables_number   1
_chemical_formula_structural   CrFe8Ni45
_chemical_formula_sum   'Cr1 Fe8 Ni45'
_cell_volume   580.53228142
_cell_formula_units_Z   1
loop_
 _symmetry_equiv_pos_site_id
 _symmetry_equiv_pos_as_xyz
  1  'x, y, z'
loop_
 _atom_site_type_symbol
 _atom_site_label
 _atom_site_symmetry_multiplicity
 _atom_site_fract_x
 _atom_site_fract_y
 _atom_site_fract_z
 _atom_site_occupancy
  Ni  Ni0  1  0.00309526  1.00198911  1.00230748  1
  Fe  Fe1  1  0.16902645  0.16844567  0.16946280  1
  Ni  Ni2  1  0.00260522  1.00212462  0.33591510  1
  Ni  Ni3  1  1.00196323  0.33520000  1.00182384  1
  Fe  Fe4  1  0.16896610  0.50282467  0.16889883  1
  Ni  Ni5  1  1.00220799  0.33543862  0.33610481  1
  Ni  Ni6  1  1.00175135  0.66989270  1.00219176  1
  Ni  Ni7  1  0.16879748  0.83534195  0.16888382  1
  Ni  Ni8  1  1.00200549  0.66950926  0.33572813  1
  Ni  Ni9  1  0.33489520  1.00233318  1.00215750  1
  Ni  Ni10  1  0.50301437  0.16962782  0.16922000  1
  Ni  Ni11  1  0.33552927  1.00235805  0.33606123  1
  Ni  Ni12  1  0.33634554  0.33518198  0.00237121  1
  Ni  Ni13  1  0.50246596  0.50185991  0.16917371  1
  Ni  Ni14  1  0.33607601  0.33535651  0.33566064  1
  Ni  Ni15  1  0.33620794  0.66956531  1.00189389  1
  Ni  Ni16  1  0.50128693  0.83559849  0.16811973  1
  Ni  Ni17  1  0.33604339  0.66936210  0.33605141  1
  Fe  Fe18  1  0.66941511  0.00273338  0.00250344  1
  Ni  Ni19  1  0.83529574  0.16934819  0.16893153  1
  Ni  Ni20  1  0.66894040  1.00214976  0.33568286  1
  Ni  Ni21  1  0.66877450  0.33652662  1.00216316  1
  Ni  Ni22  1  0.83553415  0.50184313  0.16807877  1
  Ni  Ni23  1  0.66879783  0.33595803  0.33607928  1
  Ni  Ni24  1  0.66912351  0.66845825  0.00249550  1
  Ni  Ni25  1  0.83699834  0.83589278  0.16944141  1
  Ni  Ni26  1  0.66902350  0.66896673  0.33568209  1
  Ni  Ni27  1  0.16940741  0.16940764  0.50196384  1
  Cr  Cr28  1  0.00314060  1.00232215  0.66826952  1
  Fe  Fe29  1  0.17005384  0.16999422  0.83621896  1
  Ni  Ni30  1  0.16849504  0.50305899  0.50225674  1
  Ni  Ni31  1  0.00263835  0.33774722  0.66915452  1
  Ni  Ni32  1  0.16955850  0.50368937  0.83571529  1
  Ni  Ni33  1  0.17018552  0.83461168  0.50163654  1
  Ni  Ni34  1  1.00158958  0.66739114  0.66916839  1
  Ni  Ni35  1  0.16873741  0.83373623  0.83654755  1
  Ni  Ni36  1  0.50297582  0.16882358  0.50252902  1
  Ni  Ni37  1  0.33747192  0.00307872  0.66886134  1
  Ni  Ni38  1  0.50349924  0.16998473  0.83533926  1
  Ni  Ni39  1  0.50243289  0.50219339  0.50221865  1
  Ni  Ni40  1  0.33610093  0.33496155  0.66905246  1
  Ni  Ni41  1  0.50131887  0.50113343  0.83568431  1
  Ni  Ni42  1  0.50130051  0.83605928  0.50300595  1
  Fe  Fe43  1  0.33567737  0.66845224  0.66882570  1
  Fe  Fe44  1  0.50242395  0.83575660  0.83556593  1
  Ni  Ni45  1  0.83469823  0.17051854  0.50145454  1
  Ni  Ni46  1  0.66670260  1.00204613  0.66939484  1
  Ni  Ni47  1  0.83396918  0.16915818  0.83669301  1
  Ni  Ni48  1  0.83615100  0.50139662  0.50333395  1
  Ni  Ni49  1  0.66834016  0.33628459  0.66883511  1
  Fe  Fe50  1  0.83574983  0.50247958  0.83562416  1
  Fe  Fe51  1  0.83464981  0.83461123  0.50157124  1
  Ni  Ni52  1  0.66946211  0.66874565  0.66890253  1
  Ni  Ni53  1  0.83652810  0.83591556  0.83653774  1
" 