8017,Ni83Fe2Cr13_7,-234.227123793699, 163.875163199024,Ni83Fe2Cr13,"# generated using pymatgen
 data_Cr8FeNi45
_symmetry_space_group_name_H-M   'P 1'
_cell_length_a   7.46704848
_cell_length_b   7.46704848
_cell_length_c   10.56000124
_cell_angle_alpha   90.00000000
_cell_angle_beta   90.00000000
_cell_angle_gamma   90.00000000
_symmetry_Int_Tables_number   1
_chemical_formula_structural   Cr8FeNi45
_chemical_formula_sum   'Cr8 Fe1 Ni45'
_cell_volume   588.79201475
_cell_formula_units_Z   1
loop_
 _symmetry_equiv_pos_site_id
 _symmetry_equiv_pos_as_xyz
  1  'x, y, z'
loop_
 _atom_site_type_symbol
 _atom_site_label
 _atom_site_symmetry_multiplicity
 _atom_site_fract_x
 _atom_site_fract_y
 _atom_site_fract_z
 _atom_site_occupancy
  Ni  Ni0  1  0.99885935  0.00155752  0.99971695  1
  Ni  Ni1  1  0.16586138  0.16875616  0.16669856  1
  Cr  Cr2  1  0.00145963  0.00127734  0.33283191  1
  Ni  Ni3  1  0.99992838  0.33200397  0.00013950  1
  Ni  Ni4  1  0.16796830  0.49828900  0.16742367  1
  Ni  Ni5  1  0.00131286  0.33493281  0.33362260  1
  Cr  Cr6  1  0.00159919  0.66726824  0.99968754  1
  Ni  Ni7  1  0.16803681  0.83287373  0.16744727  1
  Ni  Ni8  1  0.00094647  0.66450729  0.33245165  1
  Cr  Cr9  1  0.33167516  0.00015958  0.00037083  1
  Fe  Fe10  1  0.49956084  0.16709701  0.16666964  1
  Ni  Ni11  1  0.33456259  0.00004343  0.33397369  1
  Ni  Ni12  1  0.33357067  0.33468113  0.99999746  1
  Ni  Ni13  1  0.49789896  0.50071610  0.16616012  1
  Ni  Ni14  1  0.33218840  0.33348138  0.33324668  1
  Ni  Ni15  1  0.33254968  0.66418564  0.00071365  1
  Ni  Ni16  1  0.50006479  0.83280253  0.16886414  1
  Ni  Ni17  1  0.33348243  0.66650534  0.33296480  1
  Ni  Ni18  1  0.66873763  0.00246367  0.00108558  1
  Ni  Ni19  1  0.83414725  0.16680935  0.16487307  1
  Ni  Ni20  1  0.66419846  0.99967546  0.33229169  1
  Ni  Ni21  1  0.66647187  0.33212456  0.99967035  1
  Ni  Ni22  1  0.83403865  0.49842536  0.16787243  1
  Cr  Cr23  1  0.66625598  0.33392149  0.33386496  1
  Cr  Cr24  1  0.66587647  0.66463280  0.00075716  1
  Ni  Ni25  1  0.83194057  0.83481792  0.16722374  1
  Ni  Ni26  1  0.66563661  0.66667987  0.33262468  1
  Ni  Ni27  1  0.16854788  0.16913585  0.49987912  1
  Cr  Cr28  1  0.00205999  0.00100531  0.66807991  1
  Ni  Ni29  1  0.16655107  0.16904271  0.83342427  1
  Ni  Ni30  1  0.16696606  0.49943366  0.49950773  1
  Ni  Ni31  1  0.99997809  0.33497004  0.66619176  1
  Ni  Ni32  1  0.16767598  0.49839871  0.83296539  1
  Ni  Ni33  1  0.17036254  0.83142790  0.49998468  1
  Ni  Ni34  1  0.00097471  0.66435283  0.66750973  1
  Ni  Ni35  1  0.16638911  0.83246822  0.83258870  1
  Ni  Ni36  1  0.49891918  0.16581828  0.50041161  1
  Ni  Ni37  1  0.33402438  0.00113793  0.66527501  1
  Ni  Ni38  1  0.50075954  0.16894753  0.83316182  1
  Ni  Ni39  1  0.49871644  0.50093750  0.50108487  1
  Ni  Ni40  1  0.33383072  0.33323061  0.66679579  1
  Ni  Ni41  1  0.49873143  0.49747835  0.83278384  1
  Ni  Ni42  1  0.49849790  0.83324157  0.49971363  1
  Ni  Ni43  1  0.33241310  0.66554419  0.66626989  1
  Cr  Cr44  1  0.50016370  0.83298461  0.83097258  1
  Ni  Ni45  1  0.83253214  0.16911479  0.50094286  1
  Ni  Ni46  1  0.66514770  0.00221431  0.66657947  1
  Ni  Ni47  1  0.83273527  0.16775377  0.83432647  1
  Ni  Ni48  1  0.83435881  0.49897034  0.50053641  1
  Ni  Ni49  1  0.66616969  0.33358812  0.66698216  1
  Ni  Ni50  1  0.83353390  0.49766606  0.83150031  1
  Cr  Cr51  1  0.83099810  0.83154248  0.49987255  1
  Ni  Ni52  1  0.66662020  0.66427508  0.66642303  1
  Ni  Ni53  1  0.83350984  0.83462739  0.83298892  1
" 