6606,Ni83Fe14Cr1_11,-241.555483955063, 198.772600537411,Ni83Fe14Cr1,"# generated using pymatgen
 data_CrFe8Ni45
_symmetry_space_group_name_H-M   'P 1'
_cell_length_a   7.43375648
_cell_length_b   7.43375648
_cell_length_c   10.51291923
_cell_angle_alpha   90.00000000
_cell_angle_beta   90.00000000
_cell_angle_gamma   90.00000000
_symmetry_Int_Tables_number   1
_chemical_formula_structural   CrFe8Ni45
_chemical_formula_sum   'Cr1 Fe8 Ni45'
_cell_volume   580.95164743
_cell_formula_units_Z   1
loop_
 _symmetry_equiv_pos_site_id
 _symmetry_equiv_pos_as_xyz
  1  'x, y, z'
loop_
 _atom_site_type_symbol
 _atom_site_label
 _atom_site_symmetry_multiplicity
 _atom_site_fract_x
 _atom_site_fract_y
 _atom_site_fract_z
 _atom_site_occupancy
  Fe  Fe0  1  1.00043077  0.00260398  1.00211119  1
  Ni  Ni1  1  0.16948623  0.17040619  0.16810895  1
  Ni  Ni2  1  1.00098559  0.00355450  0.33653033  1
  Fe  Fe3  1  1.00040066  0.33710325  0.00267287  1
  Ni  Ni4  1  0.16922422  0.50116967  0.16883395  1
  Ni  Ni5  1  0.00288981  0.33533344  0.33471061  1
  Ni  Ni6  1  1.00181922  0.66845417  1.00168742  1
  Cr  Cr7  1  0.16898822  0.83508334  0.16990507  1
  Ni  Ni8  1  1.00124848  0.66784871  0.33624414  1
  Fe  Fe9  1  0.33842166  1.00194249  1.00150818  1
  Ni  Ni10  1  0.50217232  0.16951263  0.16888689  1
  Ni  Ni11  1  0.33649415  0.00389049  0.33555115  1
  Ni  Ni12  1  0.33496628  0.33512959  1.00192057  1
  Ni  Ni13  1  0.50229940  0.50182172  0.16789086  1
  Ni  Ni14  1  0.33491267  0.33532857  0.33547229  1
  Ni  Ni15  1  0.33532842  0.66727152  1.00115870  1
  Ni  Ni16  1  0.50325766  0.83530207  0.16897955  1
  Ni  Ni17  1  0.33617048  0.66754703  0.33639672  1
  Ni  Ni18  1  0.66955076  0.00256248  0.00244246  1
  Ni  Ni19  1  0.83500145  0.16934781  0.16895753  1
  Ni  Ni20  1  0.66938744  0.00240179  0.33510453  1
  Ni  Ni21  1  0.66819319  0.33422019  1.00208002  1
  Ni  Ni22  1  0.83498817  0.50227933  0.16906293  1
  Ni  Ni23  1  0.66891405  0.33495501  0.33530306  1
  Ni  Ni24  1  0.66969564  0.67011098  1.00204984  1
  Ni  Ni25  1  0.83446436  0.83527925  0.16821413  1
  Ni  Ni26  1  0.66942844  0.66939280  0.33464985  1
  Ni  Ni27  1  0.16973752  0.16858713  0.50281249  1
  Fe  Fe28  1  1.00193584  1.00194655  0.66825499  1
  Fe  Fe29  1  0.16833162  0.16786292  0.83517872  1
  Ni  Ni30  1  0.16921755  0.50265349  0.50239137  1
  Ni  Ni31  1  0.00250095  0.33625677  0.66925743  1
  Fe  Fe32  1  0.16858524  0.50280472  0.83534085  1
  Ni  Ni33  1  0.16894618  0.83543089  0.50242036  1
  Ni  Ni34  1  0.00243794  0.66827393  0.66894913  1
  Ni  Ni35  1  0.16911950  0.83493188  0.83528353  1
  Ni  Ni36  1  0.50215882  0.17001452  0.50229075  1
  Ni  Ni37  1  0.33631733  0.00252013  0.66951779  1
  Ni  Ni38  1  0.50236940  0.16938296  0.83547889  1
  Ni  Ni39  1  0.50249506  0.50106779  0.50350734  1
  Ni  Ni40  1  0.33477147  0.33490859  0.66926529  1
  Fe  Fe41  1  0.50391559  0.50281297  0.83548232  1
  Fe  Fe42  1  0.50254987  0.83547118  0.50233289  1
  Ni  Ni43  1  0.33449008  0.66934523  0.66928034  1
  Ni  Ni44  1  0.50146124  0.83634527  0.83521256  1
  Ni  Ni45  1  0.83482965  0.16946342  0.50273073  1
  Ni  Ni46  1  0.66854383  0.00232964  0.66905614  1
  Ni  Ni47  1  0.83418112  0.16967642  0.83500613  1
  Ni  Ni48  1  0.83499803  0.50211781  0.50229776  1
  Ni  Ni49  1  0.66936768  0.33449747  0.66935640  1
  Ni  Ni50  1  0.83554871  0.50195767  0.83530748  1
  Ni  Ni51  1  0.83670314  0.83508950  0.50283925  1
  Ni  Ni52  1  0.66993273  0.67004985  0.66998861  1
  Ni  Ni53  1  0.83635024  0.83526432  0.83564272  1
" 