1155,Ni83Fe2Cr13_14,-234.258434625141, 163.852991957572,Ni83Fe2Cr13,"# generated using pymatgen
 data_Cr8FeNi45
_symmetry_space_group_name_H-M   'P 1'
_cell_length_a   7.46827061
_cell_length_b   7.46827061
_cell_length_c   10.56172959
_cell_angle_alpha   90.00000000
_cell_angle_beta   90.00000000
_cell_angle_gamma   90.00000000
_symmetry_Int_Tables_number   1
_chemical_formula_structural   Cr8FeNi45
_chemical_formula_sum   'Cr8 Fe1 Ni45'
_cell_volume   589.08116378
_cell_formula_units_Z   1
loop_
 _symmetry_equiv_pos_site_id
 _symmetry_equiv_pos_as_xyz
  1  'x, y, z'
loop_
 _atom_site_type_symbol
 _atom_site_label
 _atom_site_symmetry_multiplicity
 _atom_site_fract_x
 _atom_site_fract_y
 _atom_site_fract_z
 _atom_site_occupancy
  Cr  Cr0  1  0.00168408  0.99813045  0.00045754  1
  Ni  Ni1  1  0.16733243  0.16602200  0.16763265  1
  Ni  Ni2  1  0.00091799  0.00014847  0.33266221  1
  Ni  Ni3  1  -0.00000402  0.33474857  0.00061013  1
  Cr  Cr4  1  0.16762138  0.49974137  0.16583774  1
  Ni  Ni5  1  0.00125080  0.33181713  0.33268580  1
  Ni  Ni6  1  0.99899581  0.66616103  0.99855858  1
  Ni  Ni7  1  0.16881425  0.83489375  0.16684381  1
  Cr  Cr8  1  0.99874396  0.66745684  0.33446089  1
  Ni  Ni9  1  0.33516361  0.00002105  -0.00000135  1
  Ni  Ni10  1  0.49906341  0.16442490  0.16625681  1
  Ni  Ni11  1  0.33329808  0.99972225  0.33283429  1
  Ni  Ni12  1  0.33367550  0.33096352  0.99788010  1
  Cr  Cr13  1  0.49897943  0.50260318  0.16545044  1
  Ni  Ni14  1  0.33206100  0.33114060  0.33548070  1
  Ni  Ni15  1  0.33334251  0.66902007  0.99814831  1
  Ni  Ni16  1  0.49977638  0.83473553  0.16665933  1
  Ni  Ni17  1  0.33479408  0.66881705  0.33502156  1
  Ni  Ni18  1  0.66378643  0.99904678  0.00094774  1
  Ni  Ni19  1  0.83324632  0.16611388  0.16669602  1
  Ni  Ni20  1  0.66546876  0.99740959  0.33205893  1
  Ni  Ni21  1  0.66597448  0.33314984  0.99959592  1
  Ni  Ni22  1  0.83298969  0.49983345  0.16491365  1
  Cr  Cr23  1  0.66607685  0.33413406  0.33368532  1
  Ni  Ni24  1  0.66745282  0.66764581  0.99944629  1
  Ni  Ni25  1  0.83122786  0.83382751  0.16697001  1
  Ni  Ni26  1  0.66574488  0.66906118  0.33402239  1
  Ni  Ni27  1  0.16820789  0.16548538  0.49887062  1
  Ni  Ni28  1  0.00223547  0.99618691  0.66629458  1
  Ni  Ni29  1  0.16961863  0.16649854  0.83325107  1
  Ni  Ni30  1  0.16923871  0.49976919  0.49976658  1
  Cr  Cr31  1  0.00217293  0.33601431  0.66684942  1
  Ni  Ni32  1  0.16819700  0.50093783  0.83405954  1
  Ni  Ni33  1  0.16817979  0.83447816  0.50078627  1
  Ni  Ni34  1  -0.00000605  0.66833803  0.66674273  1
  Ni  Ni35  1  0.16804326  0.83226771  0.83202709  1
  Fe  Fe36  1  0.49805182  0.16494254  0.50087531  1
  Ni  Ni37  1  0.33339559  0.99971784  0.66686761  1
  Ni  Ni38  1  0.49847563  0.16630575  0.83252390  1
  Ni  Ni39  1  0.49845576  0.50203401  0.50085017  1
  Ni  Ni40  1  0.33512517  0.33309404  0.66633760  1
  Ni  Ni41  1  0.49950066  0.50049062  0.83314331  1
  Ni  Ni42  1  0.49978623  0.83229240  0.49940346  1
  Ni  Ni43  1  0.33342134  0.66678456  0.66651058  1
  Ni  Ni44  1  0.49985087  0.83290702  0.83368143  1
  Cr  Cr45  1  0.83417428  0.16329343  0.50080220  1
  Ni  Ni46  1  0.66386683  0.99755582  0.66670877  1
  Cr  Cr47  1  0.83143805  0.16537352  0.83268461  1
  Ni  Ni48  1  0.83186526  0.50161804  0.50079277  1
  Ni  Ni49  1  0.66286576  0.33538763  0.66684656  1
  Ni  Ni50  1  0.83202235  0.50210292  0.83423122  1
  Ni  Ni51  1  0.83170871  0.83323787  0.50106031  1
  Ni  Ni52  1  0.66630932  0.66654817  0.66623861  1
  Ni  Ni53  1  0.83189842  0.83112641  0.83155636  1
" 