4705,Ni83Fe14Cr1_3,-241.56032960102, 199.857996936106,Ni83Fe14Cr1,"# generated using pymatgen
 data_CrFe8Ni45
_symmetry_space_group_name_H-M   'P 1'
_cell_length_a   7.43124685
_cell_length_b   7.43124685
_cell_length_c   10.50937008
_cell_angle_alpha   90.00000000
_cell_angle_beta   90.00000000
_cell_angle_gamma   90.00000000
_symmetry_Int_Tables_number   1
_chemical_formula_structural   CrFe8Ni45
_chemical_formula_sum   'Cr1 Fe8 Ni45'
_cell_volume   580.36346022
_cell_formula_units_Z   1
loop_
 _symmetry_equiv_pos_site_id
 _symmetry_equiv_pos_as_xyz
  1  'x, y, z'
loop_
 _atom_site_type_symbol
 _atom_site_label
 _atom_site_symmetry_multiplicity
 _atom_site_fract_x
 _atom_site_fract_y
 _atom_site_fract_z
 _atom_site_occupancy
  Ni  Ni0  1  0.00257414  1.00222043  0.00307200  1
  Fe  Fe1  1  0.16969028  0.17000200  0.16899173  1
  Ni  Ni2  1  1.00178610  0.00308891  0.33499948  1
  Ni  Ni3  1  0.00316180  0.33660707  1.00145246  1
  Ni  Ni4  1  0.16812652  0.50408266  0.16899888  1
  Ni  Ni5  1  0.00350209  0.33592105  0.33662482  1
  Ni  Ni6  1  1.00102947  0.66849756  1.00232809  1
  Ni  Ni7  1  0.16916607  0.83575938  0.16911163  1
  Ni  Ni8  1  1.00175155  0.66833801  0.33620991  1
  Ni  Ni9  1  0.33616973  0.00402630  1.00187036  1
  Ni  Ni10  1  0.50382742  0.16827740  0.16912305  1
  Ni  Ni11  1  0.33622675  0.00344506  0.33671398  1
  Ni  Ni12  1  0.33587475  0.33565704  0.00278401  1
  Ni  Ni13  1  0.50275390  0.50214702  0.16861790  1
  Ni  Ni14  1  0.33533340  0.33617841  0.33528208  1
  Fe  Fe15  1  0.33595911  0.66927121  0.00245731  1
  Ni  Ni16  1  0.50097359  0.83686313  0.16942418  1
  Ni  Ni17  1  0.33636452  0.66769753  0.33581666  1
  Ni  Ni18  1  0.66841733  1.00168965  1.00184833  1
  Ni  Ni19  1  0.83504387  0.16945761  0.16832297  1
  Ni  Ni20  1  0.66919757  1.00166473  0.33600123  1
  Ni  Ni21  1  0.66828548  0.33662166  1.00237813  1
  Ni  Ni22  1  0.83637001  0.50101525  0.16951111  1
  Fe  Fe23  1  0.66910856  0.33571435  0.33498464  1
  Ni  Ni24  1  0.66946194  0.66877968  0.00242187  1
  Fe  Fe25  1  0.83476643  0.83492240  0.16907183  1
  Ni  Ni26  1  0.66901821  0.66906388  0.33574505  1
  Ni  Ni27  1  0.17024713  0.16914977  0.50047174  1
  Cr  Cr28  1  1.00219301  1.00195129  0.66949164  1
  Ni  Ni29  1  0.17096845  0.16943999  0.83724500  1
  Ni  Ni30  1  0.16923254  0.50337499  0.50262457  1
  Fe  Fe31  1  0.00352222  0.33693114  0.66845355  1
  Ni  Ni32  1  0.16844539  0.50269194  0.83559990  1
  Ni  Ni33  1  0.16951386  0.83477143  0.50185380  1
  Ni  Ni34  1  1.00126265  0.66769380  0.66868623  1
  Ni  Ni35  1  0.16964845  0.83522563  0.83643667  1
  Ni  Ni36  1  0.50295455  0.16938443  0.50214875  1
  Ni  Ni37  1  0.33734103  0.00404272  0.66844401  1
  Ni  Ni38  1  0.50218519  0.16887882  0.83591871  1
  Ni  Ni39  1  0.50267348  0.50120370  0.50181375  1
  Ni  Ni40  1  0.33546558  0.33569469  0.66907751  1
  Ni  Ni41  1  0.50287388  0.50192586  0.83685147  1
  Fe  Fe42  1  0.50247264  0.83519583  0.50252219  1
  Ni  Ni43  1  0.33632672  0.66744055  0.66969261  1
  Ni  Ni44  1  0.50239331  0.83658203  0.83500590  1
  Ni  Ni45  1  0.83387564  0.16955021  0.50228122  1
  Ni  Ni46  1  0.66811977  1.00155493  0.66949893  1
  Fe  Fe47  1  0.83486329  0.16935122  0.83760908  1
  Ni  Ni48  1  0.83532897  0.50260996  0.50216299  1
  Fe  Fe49  1  0.66763253  0.33637201  0.66947909  1
  Ni  Ni50  1  0.83577360  0.50304915  0.83534932  1
  Ni  Ni51  1  0.83589813  0.83529314  0.50046062  1
  Ni  Ni52  1  0.66973247  0.66938912  0.66898315  1
  Ni  Ni53  1  0.83519009  0.83431744  0.83774905  1
" 