3903,Ni83Fe13Cr3_16,-240.84098824349, 194.917513324272,Ni83Fe13Cr3,"# generated using pymatgen
 data_Cr2Fe7Ni45
_symmetry_space_group_name_H-M   'P 1'
_cell_length_a   7.43767487
_cell_length_b   7.43767487
_cell_length_c   10.51846068
_cell_angle_alpha   90.00000000
_cell_angle_beta   90.00000000
_cell_angle_gamma   90.00000000
_symmetry_Int_Tables_number   1
_chemical_formula_structural   Cr2Fe7Ni45
_chemical_formula_sum   'Cr2 Fe7 Ni45'
_cell_volume   581.87080513
_cell_formula_units_Z   1
loop_
 _symmetry_equiv_pos_site_id
 _symmetry_equiv_pos_as_xyz
  1  'x, y, z'
loop_
 _atom_site_type_symbol
 _atom_site_label
 _atom_site_symmetry_multiplicity
 _atom_site_fract_x
 _atom_site_fract_y
 _atom_site_fract_z
 _atom_site_occupancy
  Ni  Ni0  1  0.00248707  0.00218105  0.00255400  1
  Ni  Ni1  1  0.16800081  0.16843188  0.16849625  1
  Fe  Fe2  1  1.00075909  0.00286979  0.33461538  1
  Ni  Ni3  1  1.00174423  0.33593549  0.00266111  1
  Fe  Fe4  1  0.16819248  0.50196360  0.16882392  1
  Ni  Ni5  1  0.00207869  0.33715678  0.33487262  1
  Ni  Ni6  1  0.00232837  0.66784647  1.00192352  1
  Fe  Fe7  1  0.16902055  0.83597729  0.16858519  1
  Ni  Ni8  1  0.00220810  0.66797637  0.33474578  1
  Ni  Ni9  1  0.33544921  1.00164797  1.00174050  1
  Ni  Ni10  1  0.49925074  0.16730382  0.16820338  1
  Ni  Ni11  1  0.33555375  1.00191069  0.33522713  1
  Fe  Fe12  1  0.33409697  0.33381720  1.00189524  1
  Cr  Cr13  1  0.50430936  0.50170897  0.16891323  1
  Ni  Ni14  1  0.33362778  0.33206618  0.33605592  1
  Ni  Ni15  1  0.33339461  0.67222083  0.00285850  1
  Ni  Ni16  1  0.50318678  0.83632139  0.16849253  1
  Fe  Fe17  1  0.33669507  0.66832453  0.33656811  1
  Ni  Ni18  1  0.66730366  1.00196077  0.00240944  1
  Fe  Fe19  1  0.83342589  0.16869732  0.16868033  1
  Ni  Ni20  1  0.66608350  1.00156944  0.33454117  1
  Ni  Ni21  1  0.67167086  0.33325604  0.00222241  1
  Ni  Ni22  1  0.83680169  0.50341909  0.16837287  1
  Ni  Ni23  1  0.66939229  0.33426506  0.33647163  1
  Ni  Ni24  1  0.67036023  0.67032146  1.00147288  1
  Ni  Ni25  1  0.83562851  0.83436785  0.16816866  1
  Ni  Ni26  1  0.67174412  0.67011670  0.33670433  1
  Ni  Ni27  1  0.16799944  0.16826684  0.50233120  1
  Fe  Fe28  1  1.00151156  0.00200273  0.66922184  1
  Ni  Ni29  1  0.16813604  0.16842888  0.83533292  1
  Ni  Ni30  1  0.16858250  0.50146105  0.50088171  1
  Ni  Ni31  1  1.00195148  0.33654659  0.66851204  1
  Ni  Ni32  1  0.16745515  0.50187176  0.83666019  1
  Ni  Ni33  1  0.16764107  0.83610698  0.50062777  1
  Ni  Ni34  1  0.00269405  0.66743258  0.66930098  1
  Ni  Ni35  1  0.16812336  0.83568618  0.83619897  1
  Ni  Ni36  1  0.50113433  0.16857520  0.50154944  1
  Ni  Ni37  1  0.33588925  1.00160501  0.66889882  1
  Ni  Ni38  1  0.50158319  0.16741123  0.83617675  1
  Ni  Ni39  1  0.50229793  0.50139032  0.50174395  1
  Ni  Ni40  1  0.33346583  0.33371954  0.66819964  1
  Cr  Cr41  1  0.50246090  0.50244858  0.83466237  1
  Ni  Ni42  1  0.50223426  0.83530776  0.50146369  1
  Ni  Ni43  1  0.33312429  0.67038978  0.66655537  1
  Ni  Ni44  1  0.50178395  0.83636174  0.83591286  1
  Ni  Ni45  1  0.83594497  0.16817828  0.50034003  1
  Ni  Ni46  1  0.66707660  0.00235492  0.66896470  1
  Ni  Ni47  1  0.83600498  0.16832719  0.83672001  1
  Ni  Ni48  1  0.83566813  0.50243871  0.50191466  1
  Ni  Ni49  1  0.67042796  0.33329501  0.66698603  1
  Ni  Ni50  1  0.83679665  0.50205695  0.83559779  1
  Ni  Ni51  1  0.83593828  0.83567457  0.50199800  1
  Ni  Ni52  1  0.67026543  0.67027165  0.66768360  1
  Ni  Ni53  1  0.83564193  0.83538386  0.83591663  1
" 