1818,Ni83Fe10Cr5_17,-238.48387296107, 184.347188357272,Ni83Fe10Cr5,"# generated using pymatgen
 data_Cr4(FeNi9)5
_symmetry_space_group_name_H-M   'P 1'
_cell_length_a   7.44659869
_cell_length_b   7.44659869
_cell_length_c   10.53108087
_cell_angle_alpha   90.00000000
_cell_angle_beta   90.00000000
_cell_angle_gamma   90.00000000
_symmetry_Int_Tables_number   1
_chemical_formula_structural   Cr4(FeNi9)5
_chemical_formula_sum   'Cr4 Fe5 Ni45'
_cell_volume   583.96772817
_cell_formula_units_Z   1
loop_
 _symmetry_equiv_pos_site_id
 _symmetry_equiv_pos_as_xyz
  1  'x, y, z'
loop_
 _atom_site_type_symbol
 _atom_site_label
 _atom_site_symmetry_multiplicity
 _atom_site_fract_x
 _atom_site_fract_y
 _atom_site_fract_z
 _atom_site_occupancy
  Ni  Ni0  1  0.00361671  0.00195559  1.00058949  1
  Ni  Ni1  1  0.16750371  0.17087562  0.16563253  1
  Cr  Cr2  1  0.00178572  0.00179699  0.33546743  1
  Ni  Ni3  1  1.00071494  0.33496825  1.00122815  1
  Ni  Ni4  1  0.16856167  0.50143375  0.16862051  1
  Ni  Ni5  1  0.00193188  0.33656337  0.33526057  1
  Ni  Ni6  1  0.00347669  0.66706571  0.00161811  1
  Ni  Ni7  1  0.16761026  0.83202526  0.16595797  1
  Ni  Ni8  1  0.00160533  0.66633269  0.33407775  1
  Ni  Ni9  1  0.33320650  1.00075907  0.00189955  1
  Ni  Ni10  1  0.50197962  0.17048738  0.16794933  1
  Cr  Cr11  1  0.33501009  0.00170839  0.33427048  1
  Fe  Fe12  1  0.33396618  0.33523492  1.00124187  1
  Ni  Ni13  1  0.49960313  0.50030806  0.16831390  1
  Ni  Ni14  1  0.33460695  0.33638207  0.33421782  1
  Ni  Ni15  1  0.33347596  0.66855513  1.00063467  1
  Ni  Ni16  1  0.50095597  0.83323710  0.16958674  1
  Ni  Ni17  1  0.33482537  0.66614124  0.33593285  1
  Cr  Cr18  1  0.66779187  0.00252860  0.00142303  1
  Ni  Ni19  1  0.83454287  0.16941277  0.16868536  1
  Ni  Ni20  1  0.66775878  1.00132606  0.33484451  1
  Ni  Ni21  1  0.66858907  0.33488422  1.00077094  1
  Fe  Fe22  1  0.83548666  0.50014550  0.16871932  1
  Ni  Ni23  1  0.66756725  0.33559229  0.33469582  1
  Cr  Cr24  1  0.66805905  0.66562358  1.00081753  1
  Ni  Ni25  1  0.83575324  0.83442946  0.16861234  1
  Ni  Ni26  1  0.66764106  0.66721106  0.33415006  1
  Ni  Ni27  1  0.16921774  0.17070949  0.50337180  1
  Ni  Ni28  1  0.00259288  1.00127040  0.66878933  1
  Ni  Ni29  1  0.16829062  0.16881668  0.83532147  1
  Ni  Ni30  1  0.16756731  0.50065904  0.50106522  1
  Ni  Ni31  1  0.00185107  0.33570135  0.66749170  1
  Ni  Ni32  1  0.16679945  0.50119297  0.83438601  1
  Ni  Ni33  1  0.16726205  0.83258399  0.50346873  1
  Ni  Ni34  1  1.00056955  0.66718751  0.66836120  1
  Ni  Ni35  1  0.16801856  0.83408849  0.83488585  1
  Ni  Ni36  1  0.50191287  0.16931571  0.50155219  1
  Ni  Ni37  1  0.33441530  0.00213127  0.66802288  1
  Ni  Ni38  1  0.50064041  0.16850702  0.83459604  1
  Ni  Ni39  1  0.50175936  0.50054597  0.50209679  1
  Ni  Ni40  1  0.33445294  0.33395661  0.66868897  1
  Fe  Fe41  1  0.50051122  0.50063860  0.83371126  1
  Ni  Ni42  1  0.50322555  0.83412553  0.50173765  1
  Fe  Fe43  1  0.33422354  0.66765291  0.66757714  1
  Ni  Ni44  1  0.49977113  0.83572170  0.83255247  1
  Fe  Fe45  1  0.83384077  0.16907117  0.50256195  1
  Ni  Ni46  1  0.66712140  1.00114591  0.66777258  1
  Ni  Ni47  1  0.83507506  0.16947918  0.83276915  1
  Ni  Ni48  1  0.83466871  0.50229205  0.50040421  1
  Ni  Ni49  1  0.66772245  0.33587442  0.66859658  1
  Ni  Ni50  1  0.83658290  0.50035140  0.83471760  1
  Ni  Ni51  1  0.83358132  0.83269850  0.50243065  1
  Ni  Ni52  1  0.66863766  0.66724988  0.66874783  1
  Ni  Ni53  1  0.83620566  0.83419210  0.83324814  1
" 