4953,Ni83Fe10Cr5_5,-238.44466056616, 183.064890497744,Ni83Fe10Cr5,"# generated using pymatgen
 data_Cr4(FeNi9)5
_symmetry_space_group_name_H-M   'P 1'
_cell_length_a   7.44851381
_cell_length_b   7.44851381
_cell_length_c   10.53378926
_cell_angle_alpha   90.00000000
_cell_angle_beta   90.00000000
_cell_angle_gamma   90.00000000
_symmetry_Int_Tables_number   1
_chemical_formula_structural   Cr4(FeNi9)5
_chemical_formula_sum   'Cr4 Fe5 Ni45'
_cell_volume   584.41839948
_cell_formula_units_Z   1
loop_
 _symmetry_equiv_pos_site_id
 _symmetry_equiv_pos_as_xyz
  1  'x, y, z'
loop_
 _atom_site_type_symbol
 _atom_site_label
 _atom_site_symmetry_multiplicity
 _atom_site_fract_x
 _atom_site_fract_y
 _atom_site_fract_z
 _atom_site_occupancy
  Ni  Ni0  1  1.00097738  1.00016136  0.99985880  1
  Ni  Ni1  1  0.17030654  0.16818278  0.16809501  1
  Ni  Ni2  1  0.00182757  0.99967929  0.33602210  1
  Fe  Fe3  1  0.00223612  0.33605712  0.99989196  1
  Ni  Ni4  1  0.16759680  0.50165705  0.16803443  1
  Fe  Fe5  1  0.00212043  0.33557018  0.33587447  1
  Ni  Ni6  1  1.00098844  0.66874604  0.00132486  1
  Ni  Ni7  1  0.16871575  0.83389176  0.16826207  1
  Ni  Ni8  1  1.00098903  0.66899814  0.33429312  1
  Fe  Fe9  1  0.33469418  1.00033212  0.00160940  1
  Ni  Ni10  1  0.49945441  0.16692851  0.16836006  1
  Ni  Ni11  1  0.33349464  0.00326100  0.33271154  1
  Ni  Ni12  1  0.33456738  0.33456395  1.00105507  1
  Fe  Fe13  1  0.50060411  0.50178814  0.16819726  1
  Ni  Ni14  1  0.33543924  0.33394925  0.33508851  1
  Ni  Ni15  1  0.33430004  0.66651525  1.00106360  1
  Ni  Ni16  1  0.50118047  0.83500471  0.16791270  1
  Ni  Ni17  1  0.33322446  0.66652143  0.33371108  1
  Ni  Ni18  1  0.66818456  1.00042868  1.00047209  1
  Cr  Cr19  1  0.83429614  0.16803719  0.16815200  1
  Ni  Ni20  1  0.66841062  0.00189510  0.33456721  1
  Fe  Fe21  1  0.66725106  0.33565642  1.00003414  1
  Ni  Ni22  1  0.83508828  0.50339153  0.16805898  1
  Ni  Ni23  1  0.66593424  0.33478755  0.33543418  1
  Ni  Ni24  1  0.66844344  0.66875094  0.00131943  1
  Ni  Ni25  1  0.83383718  0.83230459  0.16823703  1
  Ni  Ni26  1  0.66951819  0.66705055  0.33345604  1
  Ni  Ni27  1  0.16699815  0.16876979  0.50026176  1
  Ni  Ni28  1  1.00097885  1.00114724  0.66785147  1
  Ni  Ni29  1  0.16708247  0.16865382  0.83537403  1
  Ni  Ni30  1  0.16803869  0.50115480  0.50158035  1
  Ni  Ni31  1  0.00150801  0.33461560  0.66810642  1
  Ni  Ni32  1  0.16819360  0.50137272  0.83411795  1
  Ni  Ni33  1  0.16546614  0.83380895  0.50040158  1
  Ni  Ni34  1  1.00124178  0.66796959  0.66811462  1
  Ni  Ni35  1  0.16742154  0.83370366  0.83506812  1
  Ni  Ni36  1  0.50149979  0.17134970  0.49935474  1
  Cr  Cr37  1  0.33212322  0.00263403  0.66923280  1
  Ni  Ni38  1  0.50150339  0.16929157  0.83601667  1
  Ni  Ni39  1  0.50130207  0.49941454  0.50128125  1
  Ni  Ni40  1  0.33473764  0.33655423  0.66758784  1
  Ni  Ni41  1  0.50123198  0.50157700  0.83415301  1
  Cr  Cr42  1  0.50107206  0.83289158  0.49988836  1
  Ni  Ni43  1  0.33336449  0.66439095  0.66895955  1
  Ni  Ni44  1  0.50136712  0.83286190  0.83630213  1
  Ni  Ni45  1  0.83523457  0.16877916  0.50065364  1
  Cr  Cr46  1  0.67076156  0.00222809  0.66833216  1
  Ni  Ni47  1  0.83514739  0.16851936  0.83498049  1
  Ni  Ni48  1  0.83439155  0.50094847  0.50137816  1
  Ni  Ni49  1  0.66748724  0.33628987  0.66834128  1
  Ni  Ni50  1  0.83430709  0.50124067  0.83429675  1
  Ni  Ni51  1  0.83697280  0.83400596  0.50019811  1
  Ni  Ni52  1  0.66912578  0.66492184  0.66895738  1
  Ni  Ni53  1  0.83494319  0.83397717  0.83529509  1
" 