5971,Ni83Fe14Cr1_16,-241.795738342611, 200.530525867394,Ni83Fe14Cr1,"# generated using pymatgen
 data_CrFe8Ni45
_symmetry_space_group_name_H-M   'P 1'
_cell_length_a   7.43424316
_cell_length_b   7.43424316
_cell_length_c   10.51360750
_cell_angle_alpha   90.00000000
_cell_angle_beta   90.00000000
_cell_angle_gamma   90.00000000
_symmetry_Int_Tables_number   1
_chemical_formula_structural   CrFe8Ni45
_chemical_formula_sum   'Cr1 Fe8 Ni45'
_cell_volume   581.06575770
_cell_formula_units_Z   1
loop_
 _symmetry_equiv_pos_site_id
 _symmetry_equiv_pos_as_xyz
  1  'x, y, z'
loop_
 _atom_site_type_symbol
 _atom_site_label
 _atom_site_symmetry_multiplicity
 _atom_site_fract_x
 _atom_site_fract_y
 _atom_site_fract_z
 _atom_site_occupancy
  Ni  Ni0  1  1.00219455  0.00224631  1.00200613  1
  Ni  Ni1  1  0.16948685  0.16961509  0.16822867  1
  Cr  Cr2  1  1.00127154  0.00272489  0.33532300  1
  Ni  Ni3  1  1.00209104  0.33524008  0.00274337  1
  Ni  Ni4  1  0.16962589  0.50198249  0.16850169  1
  Ni  Ni5  1  0.00272250  0.33567777  0.33555842  1
  Ni  Ni6  1  0.00237565  0.66908544  0.00380493  1
  Ni  Ni7  1  0.17034607  0.83491280  0.16900016  1
  Fe  Fe8  1  1.00107400  0.66664995  0.33512862  1
  Ni  Ni9  1  0.33535330  1.00160769  0.00367323  1
  Fe  Fe10  1  0.50264706  0.16940125  0.16875016  1
  Fe  Fe11  1  0.33789901  0.00317456  0.33485469  1
  Ni  Ni12  1  0.33551638  0.33629799  0.00248892  1
  Ni  Ni13  1  0.50161574  0.50265866  0.16886055  1
  Ni  Ni14  1  0.33509037  0.33731852  0.33513548  1
  Ni  Ni15  1  0.33599443  0.66878595  1.00188128  1
  Ni  Ni16  1  0.50167123  0.83505358  0.16916950  1
  Ni  Ni17  1  0.33610490  0.66809719  0.33561606  1
  Ni  Ni18  1  0.66915482  1.00166407  0.00241219  1
  Ni  Ni19  1  0.83548689  0.16965558  0.16803690  1
  Ni  Ni20  1  0.66912651  1.00155016  0.33526248  1
  Ni  Ni21  1  0.66895175  0.33607642  0.00290468  1
  Ni  Ni22  1  0.83529302  0.50147117  0.16990197  1
  Ni  Ni23  1  0.66882864  0.33576716  0.33560867  1
  Ni  Ni24  1  0.66817622  0.66890656  1.00207172  1
  Ni  Ni25  1  0.83474469  0.83524617  0.16737622  1
  Ni  Ni26  1  0.66749643  0.66903684  0.33559400  1
  Fe  Fe27  1  0.16859483  0.17189336  0.50261524  1
  Ni  Ni28  1  1.00219925  0.00254851  0.66940073  1
  Fe  Fe29  1  0.16923207  0.16820244  0.83621018  1
  Ni  Ni30  1  0.16967401  0.50279777  0.50243209  1
  Ni  Ni31  1  0.00228362  0.33516660  0.66836323  1
  Fe  Fe32  1  0.16816315  0.50301128  0.83544491  1
  Fe  Fe33  1  0.16941923  0.83400522  0.50352349  1
  Ni  Ni34  1  1.00210282  0.66897083  0.66790924  1
  Ni  Ni35  1  0.16904180  0.83572444  0.83539914  1
  Ni  Ni36  1  0.50212808  0.16907999  0.50139746  1
  Ni  Ni37  1  0.33547891  0.00249345  0.66730454  1
  Ni  Ni38  1  0.50212569  0.16888163  0.83609012  1
  Ni  Ni39  1  0.50114463  0.50088414  0.50282487  1
  Ni  Ni40  1  0.33554094  0.33561473  0.66896771  1
  Ni  Ni41  1  0.50194223  0.50148032  0.83492591  1
  Fe  Fe42  1  0.50405233  0.83427550  0.50232237  1
  Ni  Ni43  1  0.33597365  0.66848198  0.66916854  1
  Ni  Ni44  1  0.50092409  0.83625038  0.83464182  1
  Ni  Ni45  1  0.83373683  0.16901489  0.50360345  1
  Ni  Ni46  1  0.66902612  1.00207170  0.66881149  1
  Ni  Ni47  1  0.83502795  0.16908412  0.83494727  1
  Ni  Ni48  1  0.83577300  0.50200746  0.50181480  1
  Ni  Ni49  1  0.66857714  0.33568088  0.66805733  1
  Ni  Ni50  1  0.83551436  0.50182492  0.83491901  1
  Ni  Ni51  1  0.83572720  0.83538887  0.50355894  1
  Ni  Ni52  1  0.66870553  0.66870053  0.66885857  1
  Ni  Ni53  1  0.83669164  0.83570032  0.83573443  1
" 