217,Ni83Fe13Cr3_1,-240.80604917798, 195.886405868933,Ni83Fe13Cr3,"# generated using pymatgen
 data_Cr2Fe7Ni45
_symmetry_space_group_name_H-M   'P 1'
_cell_length_a   7.43972598
_cell_length_b   7.43972598
_cell_length_c   10.52136139
_cell_angle_alpha   90.00000000
_cell_angle_beta   90.00000000
_cell_angle_gamma   90.00000000
_symmetry_Int_Tables_number   1
_chemical_formula_structural   Cr2Fe7Ni45
_chemical_formula_sum   'Cr2 Fe7 Ni45'
_cell_volume   582.35233085
_cell_formula_units_Z   1
loop_
 _symmetry_equiv_pos_site_id
 _symmetry_equiv_pos_as_xyz
  1  'x, y, z'
loop_
 _atom_site_type_symbol
 _atom_site_label
 _atom_site_symmetry_multiplicity
 _atom_site_fract_x
 _atom_site_fract_y
 _atom_site_fract_z
 _atom_site_occupancy
  Ni  Ni0  1  0.00215956  0.00240736  0.00210432  1
  Ni  Ni1  1  0.16863429  0.16823497  0.16811434  1
  Ni  Ni2  1  0.00308303  1.00151587  0.33560022  1
  Ni  Ni3  1  1.00169600  0.33467723  0.00197516  1
  Ni  Ni4  1  0.16870160  0.50164266  0.16805827  1
  Fe  Fe5  1  0.00255821  0.33538864  0.33491140  1
  Ni  Ni6  1  1.00034926  0.66842419  0.00327404  1
  Ni  Ni7  1  0.16864011  0.83563070  0.16849787  1
  Fe  Fe8  1  0.00229773  0.66853666  0.33527196  1
  Ni  Ni9  1  0.33477879  0.00261637  0.00333418  1
  Ni  Ni10  1  0.50156121  0.16860084  0.16793622  1
  Ni  Ni11  1  0.33361154  0.00184259  0.33499959  1
  Ni  Ni12  1  0.33530563  0.33452931  0.00186831  1
  Ni  Ni13  1  0.50192858  0.50170531  0.16863677  1
  Ni  Ni14  1  0.33603799  0.33468366  0.33511597  1
  Ni  Ni15  1  0.33644212  0.66836176  0.00242288  1
  Ni  Ni16  1  0.50161858  0.83520348  0.16847784  1
  Ni  Ni17  1  0.33603593  0.66898146  0.33564820  1
  Fe  Fe18  1  0.66868810  1.00152213  1.00148215  1
  Ni  Ni19  1  0.83531230  0.16854531  0.16880541  1
  Fe  Fe20  1  0.66724056  1.00158186  0.33545297  1
  Ni  Ni21  1  0.66850788  0.33634143  1.00179394  1
  Ni  Ni22  1  0.83488241  0.50169894  0.16800281  1
  Ni  Ni23  1  0.66793583  0.33655610  0.33539317  1
  Ni  Ni24  1  0.66871846  0.66790071  1.00175979  1
  Ni  Ni25  1  0.83524915  0.83526472  0.16785032  1
  Ni  Ni26  1  0.66826393  0.66743529  0.33517666  1
  Ni  Ni27  1  0.16836040  0.16902823  0.50135602  1
  Ni  Ni28  1  0.99986869  0.00209723  0.66780470  1
  Ni  Ni29  1  0.16703794  0.17112930  0.83603910  1
  Ni  Ni30  1  0.16864690  0.50133355  0.50266651  1
  Ni  Ni31  1  0.00204204  0.33537587  0.66840677  1
  Ni  Ni32  1  0.16886883  0.49932535  0.83478533  1
  Ni  Ni33  1  0.16750381  0.83514321  0.50119408  1
  Ni  Ni34  1  0.99983004  0.66803531  0.66732263  1
  Cr  Cr35  1  0.16756389  0.83470016  0.83579976  1
  Ni  Ni36  1  0.50192799  0.16933494  0.50158594  1
  Cr  Cr37  1  0.33504294  0.00298820  0.66735245  1
  Fe  Fe38  1  0.50279219  0.16996499  0.83572262  1
  Ni  Ni39  1  0.50202121  0.50139946  0.50213810  1
  Ni  Ni40  1  0.33509183  0.33619720  0.66852233  1
  Ni  Ni41  1  0.50198662  0.50202745  0.83473474  1
  Ni  Ni42  1  0.50284939  0.83477169  0.50126371  1
  Fe  Fe43  1  0.33608652  0.66577113  0.66758412  1
  Ni  Ni44  1  0.50464830  0.83393149  0.83576910  1
  Fe  Fe45  1  0.83516572  0.16844222  0.50240732  1
  Ni  Ni46  1  0.67026702  1.00095924  0.66830578  1
  Ni  Ni47  1  0.83576908  0.16847309  0.83437167  1
  Ni  Ni48  1  0.83484508  0.50225632  0.50229907  1
  Ni  Ni49  1  0.66837585  0.33623208  0.66832008  1
  Ni  Ni50  1  0.83465378  0.50127399  0.83520758  1
  Ni  Ni51  1  0.83515443  0.83505383  0.50275466  1
  Ni  Ni52  1  0.66944554  0.66831729  0.66857176  1
  Ni  Ni53  1  0.83306989  0.83576232  0.83490403  1
" 