1667,Ni83Fe14Cr1_6,-241.77337941626, 200.158265340794,Ni83Fe14Cr1,"# generated using pymatgen
 data_CrFe8Ni45
_symmetry_space_group_name_H-M   'P 1'
_cell_length_a   7.43379893
_cell_length_b   7.43379893
_cell_length_c   10.51297926
_cell_angle_alpha   90.00000000
_cell_angle_beta   90.00000000
_cell_angle_gamma   90.00000000
_symmetry_Int_Tables_number   1
_chemical_formula_structural   CrFe8Ni45
_chemical_formula_sum   'Cr1 Fe8 Ni45'
_cell_volume   580.96160000
_cell_formula_units_Z   1
loop_
 _symmetry_equiv_pos_site_id
 _symmetry_equiv_pos_as_xyz
  1  'x, y, z'
loop_
 _atom_site_type_symbol
 _atom_site_label
 _atom_site_symmetry_multiplicity
 _atom_site_fract_x
 _atom_site_fract_y
 _atom_site_fract_z
 _atom_site_occupancy
  Ni  Ni0  1  1.00153462  1.00177669  1.00115438  1
  Fe  Fe1  1  0.16975044  0.16941423  0.16852948  1
  Ni  Ni2  1  0.00275471  1.00210951  0.33602643  1
  Ni  Ni3  1  1.00135724  0.33590274  1.00191796  1
  Fe  Fe4  1  0.17016555  0.50099086  0.16902072  1
  Ni  Ni5  1  1.00152834  0.33552162  0.33558321  1
  Ni  Ni6  1  0.00258662  0.66903884  0.00323434  1
  Fe  Fe7  1  0.16860728  0.83629815  0.16872463  1
  Ni  Ni8  1  0.00328984  0.66931386  0.33497998  1
  Ni  Ni9  1  0.33624316  1.00175725  1.00151704  1
  Ni  Ni10  1  0.50270921  0.16866801  0.16929108  1
  Ni  Ni11  1  0.33510995  1.00204442  0.33559336  1
  Ni  Ni12  1  0.33675399  0.33555730  1.00170765  1
  Ni  Ni13  1  0.50185554  0.50180915  0.16813492  1
  Ni  Ni14  1  0.33656540  0.33516165  0.33582452  1
  Ni  Ni15  1  0.33456142  0.66937586  0.00230888  1
  Ni  Ni16  1  0.49907275  0.83630049  0.16825313  1
  Ni  Ni17  1  0.33425082  0.66968782  0.33585786  1
  Ni  Ni18  1  0.66872091  0.00317048  0.00341252  1
  Ni  Ni19  1  0.83676440  0.16948634  0.16928976  1
  Fe  Fe20  1  0.66860831  0.00325590  0.33550908  1
  Ni  Ni21  1  0.66924181  0.33444854  1.00211116  1
  Ni  Ni22  1  0.83711589  0.50042260  0.16809125  1
  Ni  Ni23  1  0.66923484  0.33442828  0.33585214  1
  Fe  Fe24  1  0.66837931  0.66854875  0.00287532  1
  Fe  Fe25  1  0.83444614  0.83637970  0.16830230  1
  Cr  Cr26  1  0.66877964  0.66765319  0.33683315  1
  Ni  Ni27  1  0.16898493  0.16904040  0.50173140  1
  Fe  Fe28  1  0.00341142  0.00349931  0.66910327  1
  Ni  Ni29  1  0.16887588  0.16911709  0.83653913  1
  Ni  Ni30  1  0.16858769  0.50236721  0.50055623  1
  Ni  Ni31  1  1.00187700  0.33731811  0.66913716  1
  Ni  Ni32  1  0.16859218  0.50265640  0.83653147  1
  Ni  Ni33  1  0.16904590  0.83574299  0.50160061  1
  Ni  Ni34  1  0.00239521  0.66912757  0.66824313  1
  Ni  Ni35  1  0.16890101  0.83532950  0.83585889  1
  Ni  Ni36  1  0.50193751  0.16867826  0.50089681  1
  Ni  Ni37  1  0.33727138  1.00197867  0.66959758  1
  Ni  Ni38  1  0.50250823  0.16842251  0.83648065  1
  Ni  Ni39  1  0.50060194  0.50120418  0.50272389  1
  Ni  Ni40  1  0.33564982  0.33529988  0.66915564  1
  Ni  Ni41  1  0.50182805  0.50248514  0.83617057  1
  Ni  Ni42  1  0.50059392  0.83659474  0.50248172  1
  Ni  Ni43  1  0.33373570  0.66941420  0.66825806  1
  Ni  Ni44  1  0.50218379  0.83546275  0.83618690  1
  Ni  Ni45  1  0.83617147  0.16923308  0.50134872  1
  Ni  Ni46  1  0.66880628  0.00254121  0.66782758  1
  Ni  Ni47  1  0.83572870  0.16881467  0.83583395  1
  Ni  Ni48  1  0.83713097  0.50128583  0.50261371  1
  Ni  Ni49  1  0.66917899  0.33383748  0.66871817  1
  Ni  Ni50  1  0.83588278  0.50244016  0.83623525  1
  Ni  Ni51  1  0.83727177  0.83665836  0.50206148  1
  Fe  Fe52  1  0.66806014  0.66817429  0.66838548  1
  Ni  Ni53  1  0.83556043  0.83551499  0.83654747  1
" 