6609,Ni83Fe2Cr13_16,-234.354487680834, 164.633381711466,Ni83Fe2Cr13,"# generated using pymatgen
 data_Cr8FeNi45
_symmetry_space_group_name_H-M   'P 1'
_cell_length_a   7.46162544
_cell_length_b   7.46162544
_cell_length_c   10.55233190
_cell_angle_alpha   90.00000000
_cell_angle_beta   90.00000000
_cell_angle_gamma   90.00000000
_symmetry_Int_Tables_number   1
_chemical_formula_structural   Cr8FeNi45
_chemical_formula_sum   'Cr8 Fe1 Ni45'
_cell_volume   587.51009299
_cell_formula_units_Z   1
loop_
 _symmetry_equiv_pos_site_id
 _symmetry_equiv_pos_as_xyz
  1  'x, y, z'
loop_
 _atom_site_type_symbol
 _atom_site_label
 _atom_site_symmetry_multiplicity
 _atom_site_fract_x
 _atom_site_fract_y
 _atom_site_fract_z
 _atom_site_occupancy
  Ni  Ni0  1  1.00002396  0.99976103  0.99963072  1
  Cr  Cr1  1  0.16568990  0.16643163  0.16664670  1
  Ni  Ni2  1  0.99831714  0.99968051  0.33412867  1
  Ni  Ni3  1  0.99619024  0.33270974  0.99946074  1
  Cr  Cr4  1  0.16627917  0.50207276  0.16812333  1
  Ni  Ni5  1  1.00027776  0.33380652  0.33515438  1
  Ni  Ni6  1  0.99892422  0.66861539  0.00062137  1
  Ni  Ni7  1  0.16652562  0.83279758  0.16624263  1
  Ni  Ni8  1  0.99973186  0.66760249  0.33413169  1
  Ni  Ni9  1  0.33336798  0.99737962  1.00023393  1
  Ni  Ni10  1  0.50255651  0.16600694  0.16657689  1
  Cr  Cr11  1  0.33425935  0.99979706  0.33373723  1
  Cr  Cr12  1  0.33558836  0.33352206  0.00055416  1
  Ni  Ni13  1  0.50144979  0.50197758  0.16702784  1
  Ni  Ni14  1  0.33384463  0.33524209  0.33548841  1
  Ni  Ni15  1  0.33525134  0.67021829  0.00057669  1
  Ni  Ni16  1  0.50134140  0.83310894  0.16602437  1
  Ni  Ni17  1  0.33425558  0.66601101  0.33396823  1
  Ni  Ni18  1  0.66770093  1.00009934  0.00151715  1
  Ni  Ni19  1  0.83278449  0.16601123  0.16624206  1
  Ni  Ni20  1  0.66854027  0.99925901  0.33363621  1
  Ni  Ni21  1  0.66930814  0.33459986  0.00135422  1
  Ni  Ni22  1  0.83310088  0.50117916  0.16603206  1
  Cr  Cr23  1  0.66682381  0.33367856  0.33315981  1
  Ni  Ni24  1  0.66691537  0.66639245  1.00020002  1
  Ni  Ni25  1  0.83321929  0.83389685  0.16733749  1
  Ni  Ni26  1  0.66710308  0.66799151  0.33363650  1
  Ni  Ni27  1  0.16648461  0.16915971  0.50143276  1
  Ni  Ni28  1  0.00079706  0.00061486  0.66732752  1
  Ni  Ni29  1  0.16472687  0.16515558  0.83285025  1
  Ni  Ni30  1  0.16726849  0.49914041  0.49999338  1
  Ni  Ni31  1  0.00120394  0.33271870  0.66647858  1
  Cr  Cr32  1  0.16630705  0.50052971  0.83316038  1
  Fe  Fe33  1  0.16623691  0.83285757  0.50109407  1
  Ni  Ni34  1  0.99970664  0.66775539  0.66634215  1
  Ni  Ni35  1  0.16710731  0.83512105  0.83391227  1
  Ni  Ni36  1  0.49893991  0.16595694  0.50076368  1
  Ni  Ni37  1  0.33275221  0.99982393  0.66687959  1
  Cr  Cr38  1  0.50020833  0.16521752  0.83356878  1
  Ni  Ni39  1  0.49784189  0.50202029  0.50031632  1
  Ni  Ni40  1  0.33236291  0.33350089  0.66503310  1
  Ni  Ni41  1  0.50147854  0.50356050  0.83375025  1
  Ni  Ni42  1  0.50196490  0.83311362  0.50125433  1
  Ni  Ni43  1  0.33463407  0.66776457  0.66654883  1
  Ni  Ni44  1  0.50043819  0.83225853  0.83380957  1
  Ni  Ni45  1  0.83566643  0.16502881  0.50015540  1
  Ni  Ni46  1  0.66753533  0.99833543  0.66593878  1
  Ni  Ni47  1  0.83630627  0.16619835  0.83469800  1
  Ni  Ni48  1  0.83597840  0.50216074  0.50036563  1
  Cr  Cr49  1  0.66778351  0.33481984  0.66679574  1
  Ni  Ni50  1  0.83344386  0.50118849  0.83469714  1
  Ni  Ni51  1  0.83278215  0.83389572  0.50015658  1
  Ni  Ni52  1  0.66675096  0.66816881  0.66725569  1
  Ni  Ni53  1  0.83354237  0.83370499  0.83359792  1
" 