3139,Ni83Fe2Cr13_18,-234.261715593375, 164.640580840023,Ni83Fe2Cr13,"# generated using pymatgen
 data_Cr8FeNi45
_symmetry_space_group_name_H-M   'P 1'
_cell_length_a   7.46654609
_cell_length_b   7.46654609
_cell_length_c   10.55929074
_cell_angle_alpha   90.00000000
_cell_angle_beta   90.00000000
_cell_angle_gamma   90.00000000
_symmetry_Int_Tables_number   1
_chemical_formula_structural   Cr8FeNi45
_chemical_formula_sum   'Cr8 Fe1 Ni45'
_cell_volume   588.67317829
_cell_formula_units_Z   1
loop_
 _symmetry_equiv_pos_site_id
 _symmetry_equiv_pos_as_xyz
  1  'x, y, z'
loop_
 _atom_site_type_symbol
 _atom_site_label
 _atom_site_symmetry_multiplicity
 _atom_site_fract_x
 _atom_site_fract_y
 _atom_site_fract_z
 _atom_site_occupancy
  Cr  Cr0  1  0.00017943  0.00035096  0.00022907  1
  Ni  Ni1  1  0.16840001  0.16640039  0.16671130  1
  Cr  Cr2  1  0.00044609  0.99998196  0.33354769  1
  Ni  Ni3  1  0.99941652  0.33394218  0.99907974  1
  Cr  Cr4  1  0.16532238  0.49937590  0.16513528  1
  Ni  Ni5  1  0.99905895  0.33373719  0.33410891  1
  Ni  Ni6  1  0.00122478  0.66594525  0.99933417  1
  Ni  Ni7  1  0.16777745  0.83398395  0.16586497  1
  Ni  Ni8  1  0.99731748  0.66646818  0.33415847  1
  Ni  Ni9  1  0.33447358  0.99996782  0.00028026  1
  Ni  Ni10  1  0.50038069  0.16590443  0.16648332  1
  Ni  Ni11  1  0.33365955  0.00249013  0.33229147  1
  Ni  Ni12  1  0.33329231  0.33188045  0.00024150  1
  Ni  Ni13  1  0.50192755  0.49883994  0.16684679  1
  Ni  Ni14  1  0.33448006  0.33095245  0.33433391  1
  Ni  Ni15  1  0.33172396  0.66824861  0.99991631  1
  Ni  Ni16  1  0.50014856  0.83534876  0.16635019  1
  Cr  Cr17  1  0.33391095  0.66633822  0.33315370  1
  Ni  Ni18  1  0.66507523  0.00177330  0.99995266  1
  Ni  Ni19  1  0.83132292  0.16819182  0.16648795  1
  Ni  Ni20  1  0.66639234  0.00074601  0.33234327  1
  Ni  Ni21  1  0.66739611  0.33118521  0.00112474  1
  Ni  Ni22  1  0.83267205  0.49947130  0.16756234  1
  Ni  Ni23  1  0.66656375  0.33371177  0.33313777  1
  Cr  Cr24  1  0.66680438  0.66679801  0.00141542  1
  Ni  Ni25  1  0.83217048  0.83243688  0.16744359  1
  Ni  Ni26  1  0.66916775  0.66564262  0.33248336  1
  Ni  Ni27  1  0.16823039  0.16849712  0.49984945  1
  Cr  Cr28  1  0.00021076  0.00038246  0.66632111  1
  Ni  Ni29  1  0.16778794  0.16790728  0.83354238  1
  Ni  Ni30  1  0.16531288  0.49931281  0.50141600  1
  Ni  Ni31  1  0.00004793  0.33493020  0.66691169  1
  Ni  Ni32  1  0.16416577  0.50073560  0.83340382  1
  Ni  Ni33  1  0.16588604  0.83229365  0.50064205  1
  Ni  Ni34  1  0.00013175  0.66536182  0.66660655  1
  Ni  Ni35  1  0.16903236  0.83146141  0.83359116  1
  Ni  Ni36  1  0.49999180  0.16799030  0.50020027  1
  Ni  Ni37  1  0.33406398  0.00059815  0.66752996  1
  Ni  Ni38  1  0.50063959  0.16394898  0.83341545  1
  Ni  Ni39  1  0.50084356  0.49775822  0.50068906  1
  Ni  Ni40  1  0.33287260  0.33286301  0.66552556  1
  Cr  Cr41  1  0.49927643  0.49966274  0.83255775  1
  Cr  Cr42  1  0.50083069  0.83460246  0.50103153  1
  Ni  Ni43  1  0.33202118  0.66664027  0.66704339  1
  Ni  Ni44  1  0.49855495  0.83625413  0.83276081  1
  Ni  Ni45  1  0.83187845  0.16855033  0.50001916  1
  Ni  Ni46  1  0.66589468  0.00067925  0.66780769  1
  Ni  Ni47  1  0.83166683  0.16882415  0.83358959  1
  Ni  Ni48  1  0.83394880  0.50009499  0.49979039  1
  Ni  Ni49  1  0.66718230  0.33287126  0.66583436  1
  Ni  Ni50  1  0.83647095  0.49865018  0.83274898  1
  Ni  Ni51  1  0.83344896  0.83145584  0.50025937  1
  Ni  Ni52  1  0.66795281  0.66654721  0.66624737  1
  Fe  Fe53  1  0.83276387  0.83282603  0.83246052  1
" 