4857,Ni83Fe2Cr13_5,-234.236292231582, 165.345111996263,Ni83Fe2Cr13,"# generated using pymatgen
 data_Cr8FeNi45
_symmetry_space_group_name_H-M   'P 1'
_cell_length_a   7.46631422
_cell_length_b   7.46631422
_cell_length_c   10.55896284
_cell_angle_alpha   90.00000000
_cell_angle_beta   90.00000000
_cell_angle_gamma   90.00000000
_symmetry_Int_Tables_number   1
_chemical_formula_structural   Cr8FeNi45
_chemical_formula_sum   'Cr8 Fe1 Ni45'
_cell_volume   588.61833830
_cell_formula_units_Z   1
loop_
 _symmetry_equiv_pos_site_id
 _symmetry_equiv_pos_as_xyz
  1  'x, y, z'
loop_
 _atom_site_type_symbol
 _atom_site_label
 _atom_site_symmetry_multiplicity
 _atom_site_fract_x
 _atom_site_fract_y
 _atom_site_fract_z
 _atom_site_occupancy
  Fe  Fe0  1  0.99862230  0.99864693  1.00003809  1
  Cr  Cr1  1  0.16644801  0.16534844  0.16732185  1
  Ni  Ni2  1  0.00052168  0.99844047  0.33285446  1
  Ni  Ni3  1  0.99756521  0.33502675  0.99901047  1
  Cr  Cr4  1  0.16743137  0.50172703  0.16629259  1
  Ni  Ni5  1  0.99928615  0.33420214  0.33424575  1
  Ni  Ni6  1  0.00096148  0.66674130  0.99922230  1
  Ni  Ni7  1  0.16676655  0.83311713  0.16655611  1
  Ni  Ni8  1  0.00072509  0.66747539  0.33401276  1
  Ni  Ni9  1  0.33564489  0.99850420  0.00025629  1
  Ni  Ni10  1  0.50208982  0.16671613  0.16654366  1
  Ni  Ni11  1  0.33400170  0.99949915  0.33403641  1
  Ni  Ni12  1  0.33450934  0.33252747  0.99985837  1
  Ni  Ni13  1  0.50003029  0.49845583  0.16679170  1
  Ni  Ni14  1  0.33477581  0.33267219  0.33522457  1
  Ni  Ni15  1  0.33111528  0.66911135  1.00004644  1
  Ni  Ni16  1  0.49859177  0.83493118  0.16655557  1
  Ni  Ni17  1  0.33234069  0.66798185  0.33375302  1
  Ni  Ni18  1  0.66570897  0.00182673  0.99982062  1
  Ni  Ni19  1  0.83131720  0.16658000  0.16639038  1
  Ni  Ni20  1  0.66558809  0.00083237  0.33239082  1
  Ni  Ni21  1  0.66809219  0.33039890  0.00124902  1
  Ni  Ni22  1  0.83328145  0.49828137  0.16674529  1
  Ni  Ni23  1  0.66609491  0.33246406  0.33172424  1
  Cr  Cr24  1  0.66826088  0.66744532  0.00140525  1
  Ni  Ni25  1  0.83476396  0.83527503  0.16693681  1
  Cr  Cr26  1  0.66734485  0.66641538  0.33293328  1
  Ni  Ni27  1  0.16735139  0.16767390  0.49901054  1
  Ni  Ni28  1  0.99852073  0.99835502  0.66724362  1
  Cr  Cr29  1  0.16587689  0.16797793  0.83409918  1
  Ni  Ni30  1  0.16721885  0.50014135  0.50044291  1
  Ni  Ni31  1  0.99993714  0.33538625  0.66689930  1
  Ni  Ni32  1  0.16523669  0.50178462  0.83336603  1
  Ni  Ni33  1  0.16588949  0.83234459  0.49880091  1
  Ni  Ni34  1  0.99968094  0.66636257  0.66688821  1
  Ni  Ni35  1  0.16579434  0.83073348  0.83475203  1
  Ni  Ni36  1  0.49927650  0.16777402  0.49919632  1
  Cr  Cr37  1  0.33401794  0.99990814  0.66561279  1
  Ni  Ni38  1  0.50275895  0.16595856  0.83438626  1
  Ni  Ni39  1  0.49879171  0.49939386  0.50068610  1
  Ni  Ni40  1  0.33314664  0.33465121  0.66511133  1
  Cr  Cr41  1  0.49882306  0.49973326  0.83264807  1
  Ni  Ni42  1  0.49998850  0.83300891  0.50022909  1
  Ni  Ni43  1  0.33232573  0.66623400  0.66634045  1
  Ni  Ni44  1  0.50019342  0.83485839  0.83336901  1
  Cr  Cr45  1  0.83347776  0.16587376  0.50005577  1
  Ni  Ni46  1  0.66723075  0.99910876  0.66792500  1
  Ni  Ni47  1  0.83169872  0.16648585  0.83369953  1
  Ni  Ni48  1  0.83414368  0.50080390  0.50084480  1
  Ni  Ni49  1  0.66709784  0.33341685  0.66715785  1
  Ni  Ni50  1  0.83582089  0.49919335  0.83257190  1
  Ni  Ni51  1  0.83424697  0.83277383  0.50104993  1
  Ni  Ni52  1  0.66812603  0.66762147  0.66590127  1
  Ni  Ni53  1  0.83410059  0.83445018  0.83214780  1
" 