8045,Ni83Fe14Cr1_10,-241.651107702771, 199.509821126899,Ni83Fe14Cr1,"# generated using pymatgen
 data_CrFe8Ni45
_symmetry_space_group_name_H-M   'P 1'
_cell_length_a   7.43287031
_cell_length_b   7.43287031
_cell_length_c   10.51166600
_cell_angle_alpha   90.00000000
_cell_angle_beta   90.00000000
_cell_angle_gamma   90.00000000
_symmetry_Int_Tables_number   1
_chemical_formula_structural   CrFe8Ni45
_chemical_formula_sum   'Cr1 Fe8 Ni45'
_cell_volume   580.74390861
_cell_formula_units_Z   1
loop_
 _symmetry_equiv_pos_site_id
 _symmetry_equiv_pos_as_xyz
  1  'x, y, z'
loop_
 _atom_site_type_symbol
 _atom_site_label
 _atom_site_symmetry_multiplicity
 _atom_site_fract_x
 _atom_site_fract_y
 _atom_site_fract_z
 _atom_site_occupancy
  Fe  Fe0  1  1.00163429  0.00341201  1.00216586  1
  Ni  Ni1  1  0.16876948  0.16936153  0.16947345  1
  Ni  Ni2  1  0.00404817  1.00227898  0.33330033  1
  Ni  Ni3  1  0.00272462  0.33809696  1.00204284  1
  Ni  Ni4  1  0.17015114  0.50185142  0.16926214  1
  Ni  Ni5  1  0.00328142  0.33649394  0.33624837  1
  Ni  Ni6  1  1.00158939  0.66830948  1.00200961  1
  Ni  Ni7  1  0.16943735  0.83575751  0.16909324  1
  Ni  Ni8  1  0.00287460  0.66809735  0.33470352  1
  Ni  Ni9  1  0.33585689  0.00280869  1.00213112  1
  Ni  Ni10  1  0.50240095  0.16939599  0.16925592  1
  Ni  Ni11  1  0.33507983  0.00329906  0.33620329  1
  Ni  Ni12  1  0.33491418  0.33383772  0.00250801  1
  Ni  Ni13  1  0.50206035  0.50228788  0.16850683  1
  Ni  Ni14  1  0.33534758  0.33430038  0.33480877  1
  Fe  Fe15  1  0.33652052  0.66875474  1.00161723  1
  Ni  Ni16  1  0.50245183  0.83506682  0.17038457  1
  Fe  Fe17  1  0.33557103  0.66849980  0.33620122  1
  Ni  Ni18  1  0.66691638  1.00150598  0.00248430  1
  Ni  Ni19  1  0.83554330  0.16891676  0.16953910  1
  Ni  Ni20  1  0.66722632  0.00279979  0.33450601  1
  Ni  Ni21  1  0.66919831  0.33609194  0.00283509  1
  Ni  Ni22  1  0.83499702  0.50176925  0.17030559  1
  Ni  Ni23  1  0.66832942  0.33607382  0.33510499  1
  Ni  Ni24  1  0.67132957  0.66922274  1.00201802  1
  Ni  Ni25  1  0.83505184  0.83634721  0.16851143  1
  Ni  Ni26  1  0.66955407  0.66805980  0.33485174  1
  Ni  Ni27  1  0.16751337  0.16891777  0.50234769  1
  Ni  Ni28  1  0.00371980  1.00161968  0.67078899  1
  Ni  Ni29  1  0.16823081  0.16916918  0.83505491  1
  Ni  Ni30  1  0.17204075  0.50169806  0.50289374  1
  Fe  Fe31  1  0.00261241  0.33494014  0.66907213  1
  Ni  Ni32  1  0.17046911  0.50159911  0.83488901  1
  Ni  Ni33  1  0.16967362  0.83593573  0.50254292  1
  Ni  Ni34  1  0.00326234  0.66839673  0.67003629  1
  Ni  Ni35  1  0.16950449  0.83612260  0.83514515  1
  Fe  Fe36  1  0.50133117  0.16968544  0.50162387  1
  Ni  Ni37  1  0.33491890  0.00326752  0.66873686  1
  Fe  Fe38  1  0.50206564  0.16906297  0.83653254  1
  Ni  Ni39  1  0.50200026  0.50232289  0.50225851  1
  Ni  Ni40  1  0.33627747  0.33489719  0.66967473  1
  Ni  Ni41  1  0.50214912  0.50269253  0.83612369  1
  Fe  Fe42  1  0.50053746  0.83582603  0.50288272  1
  Ni  Ni43  1  0.33469605  0.66876108  0.66921243  1
  Ni  Ni44  1  0.50261773  0.83435796  0.83387785  1
  Ni  Ni45  1  0.83569830  0.16914537  0.50189754  1
  Ni  Ni46  1  0.66763151  0.00373196  0.67008580  1
  Ni  Ni47  1  0.83565530  0.16869940  0.83544805  1
  Fe  Fe48  1  0.83706338  0.50116214  0.50213468  1
  Ni  Ni49  1  0.66766913  0.33561626  0.66889331  1
  Ni  Ni50  1  0.83450712  0.50157773  0.83384140  1
  Cr  Cr51  1  0.83560703  0.83800526  0.50256473  1
  Ni  Ni52  1  0.66904633  0.66763965  0.66988786  1
  Ni  Ni53  1  0.83479106  0.83660158  0.83562952  1
" 