822,Ni83Fe13Cr3_11,-240.799567333092, 195.061722828953,Ni83Fe13Cr3,"# generated using pymatgen
 data_Cr2Fe7Ni45
_symmetry_space_group_name_H-M   'P 1'
_cell_length_a   7.43712942
_cell_length_b   7.43712942
_cell_length_c   10.51768929
_cell_angle_alpha   90.00000000
_cell_angle_beta   90.00000000
_cell_angle_gamma   90.00000000
_symmetry_Int_Tables_number   1
_chemical_formula_structural   Cr2Fe7Ni45
_chemical_formula_sum   'Cr2 Fe7 Ni45'
_cell_volume   581.74279768
_cell_formula_units_Z   1
loop_
 _symmetry_equiv_pos_site_id
 _symmetry_equiv_pos_as_xyz
  1  'x, y, z'
loop_
 _atom_site_type_symbol
 _atom_site_label
 _atom_site_symmetry_multiplicity
 _atom_site_fract_x
 _atom_site_fract_y
 _atom_site_fract_z
 _atom_site_occupancy
  Ni  Ni0  1  0.00360731  0.00217048  0.00259400  1
  Fe  Fe1  1  0.16938994  0.16899116  0.16736597  1
  Fe  Fe2  1  0.00233576  1.00088360  0.33519593  1
  Ni  Ni3  1  1.00187667  0.33512955  0.00221275  1
  Ni  Ni4  1  0.16887993  0.50264444  0.16865268  1
  Fe  Fe5  1  0.00253445  0.33687712  0.33518532  1
  Ni  Ni6  1  1.00183161  0.66876198  1.00141637  1
  Ni  Ni7  1  0.16878769  0.83486215  0.16848785  1
  Ni  Ni8  1  0.00338962  0.66883893  0.33559053  1
  Ni  Ni9  1  0.33322738  0.00214499  0.00213717  1
  Ni  Ni10  1  0.50205718  0.16963115  0.16870951  1
  Ni  Ni11  1  0.33531825  0.00299899  0.33494003  1
  Ni  Ni12  1  0.33508723  0.33514658  1.00176803  1
  Ni  Ni13  1  0.50027210  0.49987040  0.16829785  1
  Ni  Ni14  1  0.33554660  0.33427105  0.33565812  1
  Ni  Ni15  1  0.33510517  0.66880327  0.00256957  1
  Ni  Ni16  1  0.49942615  0.83650546  0.16944313  1
  Ni  Ni17  1  0.33254038  0.66875060  0.33592270  1
  Cr  Cr18  1  0.66875359  1.00178032  1.00130875  1
  Ni  Ni19  1  0.83527184  0.16958629  0.17041567  1
  Ni  Ni20  1  0.66838755  0.00421087  0.33628741  1
  Ni  Ni21  1  0.66906186  0.33691754  0.00248446  1
  Ni  Ni22  1  0.83690378  0.50001105  0.16723883  1
  Ni  Ni23  1  0.66841020  0.33308762  0.33504235  1
  Ni  Ni24  1  0.66909813  0.66698494  0.00283944  1
  Ni  Ni25  1  0.83784522  0.83643286  0.16848006  1
  Cr  Cr26  1  0.66914109  0.66819694  0.33432721  1
  Fe  Fe27  1  0.17025996  0.16852621  0.50354585  1
  Ni  Ni28  1  0.00287805  1.00182621  0.66849254  1
  Ni  Ni29  1  0.16762627  0.16860121  0.83570569  1
  Ni  Ni30  1  0.16849020  0.50216309  0.50256898  1
  Ni  Ni31  1  1.00180475  0.33514832  0.66822161  1
  Ni  Ni32  1  0.16894172  0.50145871  0.83473172  1
  Ni  Ni33  1  0.16852794  0.83523552  0.50224424  1
  Ni  Ni34  1  1.00148361  0.66900003  0.66902660  1
  Ni  Ni35  1  0.16896951  0.83598402  0.83534167  1
  Ni  Ni36  1  0.50223627  0.16874311  0.50273152  1
  Ni  Ni37  1  0.33422838  0.00219355  0.66901081  1
  Fe  Fe38  1  0.50074412  0.17001945  0.83465901  1
  Ni  Ni39  1  0.50081632  0.49980608  0.50229796  1
  Ni  Ni40  1  0.33536883  0.33479158  0.66870724  1
  Ni  Ni41  1  0.50180974  0.50219196  0.83534001  1
  Ni  Ni42  1  0.50063893  0.83752243  0.50236291  1
  Ni  Ni43  1  0.33536189  0.66905466  0.66752748  1
  Ni  Ni44  1  0.50047113  0.83395446  0.83406457  1
  Fe  Fe45  1  0.83456110  0.16904734  0.50242680  1
  Fe  Fe46  1  0.66869726  1.00142801  0.66828066  1
  Ni  Ni47  1  0.83719881  0.16984044  0.83376709  1
  Ni  Ni48  1  0.83674287  0.50076707  0.50289134  1
  Ni  Ni49  1  0.66883453  0.33619343  0.66859721  1
  Ni  Ni50  1  0.83525916  0.50089413  0.83573772  1
  Ni  Ni51  1  0.83684843  0.83653358  0.50301576  1
  Ni  Ni52  1  0.66920829  0.66790853  0.66827479  1
  Ni  Ni53  1  0.83652123  0.83529254  0.83447249  1
" 