2604,Ni83Fe10Cr5_16,-238.763205502051, 186.965389355172,Ni83Fe10Cr5,"# generated using pymatgen
 data_Cr4(FeNi9)5
_symmetry_space_group_name_H-M   'P 1'
_cell_length_a   7.44724379
_cell_length_b   7.44724379
_cell_length_c   10.53199317
_cell_angle_alpha   90.00000000
_cell_angle_beta   90.00000000
_cell_angle_gamma   90.00000000
_symmetry_Int_Tables_number   1
_chemical_formula_structural   Cr4(FeNi9)5
_chemical_formula_sum   'Cr4 Fe5 Ni45'
_cell_volume   584.11950877
_cell_formula_units_Z   1
loop_
 _symmetry_equiv_pos_site_id
 _symmetry_equiv_pos_as_xyz
  1  'x, y, z'
loop_
 _atom_site_type_symbol
 _atom_site_label
 _atom_site_symmetry_multiplicity
 _atom_site_fract_x
 _atom_site_fract_y
 _atom_site_fract_z
 _atom_site_occupancy
  Ni  Ni0  1  0.00428382  0.00257512  0.00166251  1
  Ni  Ni1  1  0.16759691  0.16693392  0.16849330  1
  Ni  Ni2  1  0.00192704  1.00056919  0.33375518  1
  Ni  Ni3  1  1.00064097  0.33455302  1.00073190  1
  Fe  Fe4  1  0.16773917  0.50155219  0.16832051  1
  Ni  Ni5  1  0.00206067  0.33531280  0.33405509  1
  Ni  Ni6  1  0.00262895  0.66685822  0.00162626  1
  Ni  Ni7  1  0.16766121  0.83558704  0.16754065  1
  Ni  Ni8  1  1.00109591  0.66810946  0.33514734  1
  Ni  Ni9  1  0.33299921  1.00038285  1.00056868  1
  Ni  Ni10  1  0.50047614  0.16913540  0.16909995  1
  Ni  Ni11  1  0.33513184  0.00139605  0.33510832  1
  Fe  Fe12  1  0.33461849  0.33463829  1.00101595  1
  Ni  Ni13  1  0.50220957  0.50120204  0.16806707  1
  Ni  Ni14  1  0.33473236  0.33421928  0.33466053  1
  Ni  Ni15  1  0.33465391  0.66905697  1.00052930  1
  Ni  Ni16  1  0.50014257  0.83365167  0.16889915  1
  Ni  Ni17  1  0.33486999  0.66837501  0.33515641  1
  Cr  Cr18  1  0.66685282  0.00226300  0.00244137  1
  Ni  Ni19  1  0.83591700  0.16899984  0.16845074  1
  Ni  Ni20  1  0.66693293  1.00043062  0.33387142  1
  Ni  Ni21  1  0.66890298  0.33620848  1.00032566  1
  Ni  Ni22  1  0.83398205  0.50113656  0.16800650  1
  Ni  Ni23  1  0.66719809  0.33504959  0.33431629  1
  Ni  Ni24  1  0.66670708  0.66541037  0.00181093  1
  Ni  Ni25  1  0.83618476  0.83385207  0.16944543  1
  Ni  Ni26  1  0.66802275  0.66850934  0.33480354  1
  Fe  Fe27  1  0.16982256  0.16858996  0.50073536  1
  Fe  Fe28  1  0.00260721  0.00137404  0.66832172  1
  Ni  Ni29  1  0.16777493  0.16793355  0.83426585  1
  Ni  Ni30  1  0.16808382  0.50241002  0.50111234  1
  Ni  Ni31  1  0.00231833  0.33561420  0.66919959  1
  Ni  Ni32  1  0.16798135  0.50153346  0.83482000  1
  Ni  Ni33  1  0.16787293  0.83347834  0.50168431  1
  Ni  Ni34  1  0.00429655  0.66677522  0.66721994  1
  Ni  Ni35  1  0.16969343  0.83452193  0.83476144  1
  Ni  Ni36  1  0.50037090  0.16830688  0.50127728  1
  Fe  Fe37  1  0.33521727  0.00142098  0.66837830  1
  Ni  Ni38  1  0.50086765  0.16922984  0.83361441  1
  Ni  Ni39  1  0.50002660  0.50021877  0.50055007  1
  Ni  Ni40  1  0.33422261  0.33453011  0.66834179  1
  Ni  Ni41  1  0.50059796  0.50017488  0.83537226  1
  Ni  Ni42  1  0.50003283  0.83546393  0.50038517  1
  Ni  Ni43  1  0.33251160  0.66812962  0.66830455  1
  Ni  Ni44  1  0.49759246  0.83458420  0.83470548  1
  Cr  Cr45  1  0.83375389  0.16836704  0.50116660  1
  Ni  Ni46  1  0.66609362  0.00330677  0.66812528  1
  Ni  Ni47  1  0.83534813  0.17093999  0.83405582  1
  Ni  Ni48  1  0.83588150  0.50206955  0.50075213  1
  Ni  Ni49  1  0.66744994  0.33260128  0.66934465  1
  Ni  Ni50  1  0.83540899  0.49825720  0.83522921  1
  Ni  Ni51  1  0.83608476  0.83382406  0.49999927  1
  Cr  Cr52  1  0.66716266  0.66771020  0.66730039  1
  Cr  Cr53  1  0.83655509  0.83446441  0.83486561  1
" 