6511,Ni83Fe10Cr5_6,-238.555308976978, 186.035595489855,Ni83Fe10Cr5,"# generated using pymatgen
 data_Cr4(FeNi9)5
_symmetry_space_group_name_H-M   'P 1'
_cell_length_a   7.44594689
_cell_length_b   7.44594689
_cell_length_c   10.53015908
_cell_angle_alpha   90.00000000
_cell_angle_beta   90.00000000
_cell_angle_gamma   90.00000000
_symmetry_Int_Tables_number   1
_chemical_formula_structural   Cr4(FeNi9)5
_chemical_formula_sum   'Cr4 Fe5 Ni45'
_cell_volume   583.81439712
_cell_formula_units_Z   1
loop_
 _symmetry_equiv_pos_site_id
 _symmetry_equiv_pos_as_xyz
  1  'x, y, z'
loop_
 _atom_site_type_symbol
 _atom_site_label
 _atom_site_symmetry_multiplicity
 _atom_site_fract_x
 _atom_site_fract_y
 _atom_site_fract_z
 _atom_site_occupancy
  Ni  Ni0  1  1.00129307  1.00105480  0.00148082  1
  Ni  Ni1  1  0.16803700  0.16818098  0.16730815  1
  Ni  Ni2  1  1.00020347  1.00016937  0.33389169  1
  Ni  Ni3  1  0.00278602  0.33399500  0.00166345  1
  Ni  Ni4  1  0.16731030  0.50016548  0.16881778  1
  Ni  Ni5  1  1.00001632  0.33561495  0.33320618  1
  Ni  Ni6  1  0.99998806  0.66920165  1.00123379  1
  Ni  Ni7  1  0.16769177  0.83590568  0.16920641  1
  Ni  Ni8  1  0.00245963  0.66846648  0.33427519  1
  Fe  Fe9  1  0.33309213  0.00366975  0.00223539  1
  Ni  Ni10  1  0.50032946  0.16701986  0.16898353  1
  Ni  Ni11  1  0.33588563  0.99992293  0.33318697  1
  Ni  Ni12  1  0.33395119  0.33346128  1.00138512  1
  Ni  Ni13  1  0.50149123  0.50176175  0.16920095  1
  Ni  Ni14  1  0.33632477  0.33611497  0.33320493  1
  Cr  Cr15  1  0.33402333  0.66661915  0.00222981  1
  Ni  Ni16  1  0.50227169  0.83547017  0.16889095  1
  Ni  Ni17  1  0.33412950  0.66821403  0.33484804  1
  Fe  Fe18  1  0.66949083  1.00105850  0.00258534  1
  Ni  Ni19  1  0.83588406  0.16740020  0.16914822  1
  Ni  Ni20  1  0.66816208  0.00236646  0.33421647  1
  Cr  Cr21  1  0.66737860  0.33497639  1.00122405  1
  Ni  Ni22  1  0.83545010  0.50210536  0.16881385  1
  Ni  Ni23  1  0.66791023  0.33385720  0.33479107  1
  Ni  Ni24  1  0.67004354  0.66869615  0.00272209  1
  Ni  Ni25  1  0.83428788  0.83474597  0.16723125  1
  Fe  Fe26  1  0.66797443  0.66806991  0.33462237  1
  Cr  Cr27  1  0.16710996  0.16807829  0.50142209  1
  Ni  Ni28  1  1.00050579  1.00023348  0.66887815  1
  Ni  Ni29  1  0.16765392  0.16814764  0.83526564  1
  Ni  Ni30  1  0.16834173  0.50290360  0.50171580  1
  Ni  Ni31  1  1.00025600  0.33540634  0.66938031  1
  Ni  Ni32  1  0.16692784  0.50022998  0.83371708  1
  Ni  Ni33  1  0.16878335  0.83352924  0.50165923  1
  Ni  Ni34  1  0.00197198  0.66861044  0.66874061  1
  Ni  Ni35  1  0.16634815  0.83587428  0.83338396  1
  Fe  Fe36  1  0.50318644  0.16801926  0.50143126  1
  Ni  Ni37  1  0.33488791  1.00095629  0.66860772  1
  Ni  Ni38  1  0.50057008  0.16873051  0.83336031  1
  Ni  Ni39  1  0.50166183  0.50251249  0.50196564  1
  Ni  Ni40  1  0.33635624  0.33590512  0.66965900  1
  Ni  Ni41  1  0.50179489  0.50014514  0.83308667  1
  Ni  Ni42  1  0.50141403  0.83411527  0.50135361  1
  Ni  Ni43  1  0.33391721  0.66739128  0.66719476  1
  Cr  Cr44  1  0.50192022  0.83485685  0.83416683  1
  Ni  Ni45  1  0.83365969  0.16806733  0.50146892  1
  Ni  Ni46  1  0.66885829  0.00267285  0.66776973  1
  Ni  Ni47  1  0.83602681  0.16814888  0.83363414  1
  Ni  Ni48  1  0.83424820  0.50104071  0.50152863  1
  Ni  Ni49  1  0.66763957  0.33443647  0.66828131  1
  Ni  Ni50  1  0.83552822  0.50145083  0.83390999  1
  Ni  Ni51  1  0.83405449  0.83514273  0.50217610  1
  Ni  Ni52  1  0.66836313  0.66714137  0.66747523  1
  Fe  Fe53  1  0.83666171  0.83448293  0.83467749  1
" 