5607,Ni83Fe13Cr3_18,-240.759692939209, 195.136850721773,Ni83Fe13Cr3,"# generated using pymatgen
 data_Cr2Fe7Ni45
_symmetry_space_group_name_H-M   'P 1'
_cell_length_a   7.43732998
_cell_length_b   7.43732998
_cell_length_c   10.51797293
_cell_angle_alpha   90.00000000
_cell_angle_beta   90.00000000
_cell_angle_gamma   90.00000000
_symmetry_Int_Tables_number   1
_chemical_formula_structural   Cr2Fe7Ni45
_chemical_formula_sum   'Cr2 Fe7 Ni45'
_cell_volume   581.78986396
_cell_formula_units_Z   1
loop_
 _symmetry_equiv_pos_site_id
 _symmetry_equiv_pos_as_xyz
  1  'x, y, z'
loop_
 _atom_site_type_symbol
 _atom_site_label
 _atom_site_symmetry_multiplicity
 _atom_site_fract_x
 _atom_site_fract_y
 _atom_site_fract_z
 _atom_site_occupancy
  Ni  Ni0  1  1.00159920  0.00250671  0.00239471  1
  Fe  Fe1  1  0.16903127  0.16906955  0.16826383  1
  Ni  Ni2  1  0.00416542  0.00225187  0.33453486  1
  Ni  Ni3  1  1.00170540  0.33495414  0.00218243  1
  Ni  Ni4  1  0.16781351  0.50304345  0.16872763  1
  Ni  Ni5  1  1.00137360  0.33613501  0.33558517  1
  Fe  Fe6  1  0.00251030  0.66815470  0.00210610  1
  Ni  Ni7  1  0.16895338  0.83526702  0.16946195  1
  Ni  Ni8  1  0.00365101  0.66760875  0.33409867  1
  Ni  Ni9  1  0.33546862  1.00131768  0.00239166  1
  Ni  Ni10  1  0.50248401  0.16878336  0.16751855  1
  Ni  Ni11  1  0.33395583  1.00088513  0.33536288  1
  Ni  Ni12  1  0.33526123  0.33604333  0.00218157  1
  Ni  Ni13  1  0.50244351  0.50168923  0.16915593  1
  Ni  Ni14  1  0.33560227  0.33635747  0.33505840  1
  Ni  Ni15  1  0.33602228  0.66863376  1.00196434  1
  Ni  Ni16  1  0.50020212  0.83551938  0.16853748  1
  Ni  Ni17  1  0.33469066  0.66875243  0.33568004  1
  Ni  Ni18  1  0.66892547  1.00174582  1.00178755  1
  Ni  Ni19  1  0.83548339  0.16992413  0.16853090  1
  Cr  Cr20  1  0.66761208  0.00294000  0.33429276  1
  Ni  Ni21  1  0.66902787  0.33550739  0.00217301  1
  Ni  Ni22  1  0.83573692  0.50076258  0.16941491  1
  Ni  Ni23  1  0.66901905  0.33686844  0.33531418  1
  Ni  Ni24  1  0.66783733  0.66873886  0.00270840  1
  Fe  Fe25  1  0.83578280  0.83449243  0.16797102  1
  Fe  Fe26  1  0.66759287  0.66564124  0.33465769  1
  Fe  Fe27  1  0.16946541  0.16889137  0.50239600  1
  Ni  Ni28  1  0.00244260  0.00256239  0.66906353  1
  Ni  Ni29  1  0.16803110  0.16794582  0.83550782  1
  Ni  Ni30  1  0.16789486  0.50253263  0.50207865  1
  Ni  Ni31  1  1.00150195  0.33564785  0.66822589  1
  Ni  Ni32  1  0.16781349  0.50248059  0.83518745  1
  Ni  Ni33  1  0.17008254  0.83538398  0.50182235  1
  Ni  Ni34  1  0.00292142  0.66778525  0.66992796  1
  Ni  Ni35  1  0.16895836  0.83556692  0.83470905  1
  Ni  Ni36  1  0.50149424  0.16917619  0.50291888  1
  Ni  Ni37  1  0.33568025  1.00119309  0.66823950  1
  Ni  Ni38  1  0.50276072  0.16794506  0.83555674  1
  Ni  Ni39  1  0.50226355  0.50112361  0.50159991  1
  Ni  Ni40  1  0.33547285  0.33586946  0.66875401  1
  Ni  Ni41  1  0.50249241  0.50199547  0.83523811  1
  Ni  Ni42  1  0.49897885  0.83569280  0.50269646  1
  Ni  Ni43  1  0.33542160  0.66893184  0.66834885  1
  Ni  Ni44  1  0.50134563  0.83605309  0.83475981  1
  Fe  Fe45  1  0.83574659  0.17132819  0.50281366  1
  Ni  Ni46  1  0.66787095  0.00261243  0.66993896  1
  Ni  Ni47  1  0.83520198  0.16909071  0.83454460  1
  Ni  Ni48  1  0.83583482  0.50001502  0.50159990  1
  Ni  Ni49  1  0.66901939  0.33538863  0.66850580  1
  Ni  Ni50  1  0.83568807  0.50106653  0.83497918  1
  Cr  Cr51  1  0.83682502  0.83438245  0.50286577  1
  Ni  Ni52  1  0.66764907  0.66799232  0.66870088  1
  Fe  Fe53  1  0.83507585  0.83563736  0.83484859  1
" 