1889,Ni83Fe13Cr3_6,-240.808761495384, 194.238632337516,Ni83Fe13Cr3,"# generated using pymatgen
 data_Cr2Fe7Ni45
_symmetry_space_group_name_H-M   'P 1'
_cell_length_a   7.44188897
_cell_length_b   7.44188897
_cell_length_c   10.52442031
_cell_angle_alpha   90.00000000
_cell_angle_beta   90.00000000
_cell_angle_gamma   90.00000000
_symmetry_Int_Tables_number   1
_chemical_formula_structural   Cr2Fe7Ni45
_chemical_formula_sum   'Cr2 Fe7 Ni45'
_cell_volume   582.86040827
_cell_formula_units_Z   1
loop_
 _symmetry_equiv_pos_site_id
 _symmetry_equiv_pos_as_xyz
  1  'x, y, z'
loop_
 _atom_site_type_symbol
 _atom_site_label
 _atom_site_symmetry_multiplicity
 _atom_site_fract_x
 _atom_site_fract_y
 _atom_site_fract_z
 _atom_site_occupancy
  Ni  Ni0  1  1.00119212  1.00135840  1.00168638  1
  Ni  Ni1  1  0.16728674  0.16698011  0.16653100  1
  Ni  Ni2  1  1.00144838  0.00234322  0.33496575  1
  Ni  Ni3  1  1.00168570  0.33449677  1.00086732  1
  Ni  Ni4  1  0.16744514  0.50284279  0.16708894  1
  Ni  Ni5  1  0.99967199  0.33392603  0.33612425  1
  Ni  Ni6  1  1.00164853  0.66899424  1.00124786  1
  Ni  Ni7  1  0.16803724  0.83529744  0.16801625  1
  Fe  Fe8  1  1.00111362  0.66842890  0.33410897  1
  Ni  Ni9  1  0.33458725  1.00115616  1.00080963  1
  Ni  Ni10  1  0.50300967  0.16711528  0.16765430  1
  Ni  Ni11  1  0.33456343  0.99882198  0.33647518  1
  Ni  Ni12  1  0.33497207  0.33555151  1.00111604  1
  Ni  Ni13  1  0.50289514  0.50273681  0.16723281  1
  Cr  Cr14  1  0.33308129  0.33427172  0.33399864  1
  Ni  Ni15  1  0.33514492  0.66846017  0.00196964  1
  Ni  Ni16  1  0.50210145  0.83519216  0.16757709  1
  Ni  Ni17  1  0.33501187  0.67164141  0.33403688  1
  Ni  Ni18  1  0.66908738  1.00118015  1.00124976  1
  Ni  Ni19  1  0.83483220  0.16777235  0.16810475  1
  Ni  Ni20  1  0.66910859  1.00061472  0.33602295  1
  Ni  Ni21  1  0.66857117  0.33507469  0.00195069  1
  Ni  Ni22  1  0.83464661  0.50193209  0.16740176  1
  Ni  Ni23  1  0.67216895  0.33448136  0.33439995  1
  Ni  Ni24  1  0.66824687  0.66874751  1.00043762  1
  Ni  Ni25  1  0.83488210  0.83534437  0.16812097  1
  Ni  Ni26  1  0.66848319  0.66992034  0.33492573  1
  Ni  Ni27  1  0.16712893  0.16738691  0.50331815  1
  Ni  Ni28  1  1.00061201  1.00132787  0.66835602  1
  Ni  Ni29  1  0.16804511  0.16840776  0.83522944  1
  Ni  Ni30  1  0.16589266  0.50324221  0.50267603  1
  Ni  Ni31  1  1.00122915  0.33290699  0.66828478  1
  Ni  Ni32  1  0.17015390  0.50203331  0.83503639  1
  Ni  Ni33  1  0.16757061  0.83463676  0.50184510  1
  Fe  Fe34  1  0.00258224  0.66751183  0.66927163  1
  Ni  Ni35  1  0.16665489  0.83467021  0.83527114  1
  Ni  Ni36  1  0.50304663  0.16628712  0.50254692  1
  Fe  Fe37  1  0.33344266  0.00371550  0.66858868  1
  Ni  Ni38  1  0.50226149  0.17059565  0.83511915  1
  Cr  Cr39  1  0.50226129  0.50147619  0.50077762  1
  Ni  Ni40  1  0.33430148  0.33624952  0.66891700  1
  Ni  Ni41  1  0.50132936  0.50110129  0.83551329  1
  Ni  Ni42  1  0.50186184  0.83639379  0.50312193  1
  Ni  Ni43  1  0.33517365  0.66997187  0.66898957  1
  Fe  Fe44  1  0.50025464  0.83574587  0.83583401  1
  Ni  Ni45  1  0.83486950  0.16789844  0.50161503  1
  Fe  Fe46  1  0.66898694  0.00316580  0.66854816  1
  Ni  Ni47  1  0.83464875  0.16675975  0.83551309  1
  Ni  Ni48  1  0.83681891  0.50192393  0.50243462  1
  Ni  Ni49  1  0.66977685  0.33440022  0.66862841  1
  Fe  Fe50  1  0.83606369  0.49970313  0.83573216  1
  Ni  Ni51  1  0.83569150  0.83517712  0.50169630  1
  Fe  Fe52  1  0.66995365  0.66816412  0.66913214  1
  Ni  Ni53  1  0.83574247  0.83574248  0.83516051  1
" 