7019,Ni83Fe2Cr13_3,-234.140711226193, 163.729315407211,Ni83Fe2Cr13,"# generated using pymatgen
 data_Cr8FeNi45
_symmetry_space_group_name_H-M   'P 1'
_cell_length_a   7.46980688
_cell_length_b   7.46980688
_cell_length_c   10.56390220
_cell_angle_alpha   90.00000000
_cell_angle_beta   90.00000000
_cell_angle_gamma   90.00000000
_symmetry_Int_Tables_number   1
_chemical_formula_structural   Cr8FeNi45
_chemical_formula_sum   'Cr8 Fe1 Ni45'
_cell_volume   589.44477128
_cell_formula_units_Z   1
loop_
 _symmetry_equiv_pos_site_id
 _symmetry_equiv_pos_as_xyz
  1  'x, y, z'
loop_
 _atom_site_type_symbol
 _atom_site_label
 _atom_site_symmetry_multiplicity
 _atom_site_fract_x
 _atom_site_fract_y
 _atom_site_fract_z
 _atom_site_occupancy
  Ni  Ni0  1  0.99927768  0.99917423  0.00003176  1
  Ni  Ni1  1  0.16671600  0.16670385  0.16704497  1
  Ni  Ni2  1  0.00033657  -0.00011762  0.33388634  1
  Ni  Ni3  1  0.99894700  0.33401047  0.00071589  1
  Ni  Ni4  1  0.16633423  0.49955464  0.16674544  1
  Ni  Ni5  1  0.00169959  0.33311862  0.33336787  1
  Ni  Ni6  1  0.00146658  0.66626064  0.99972106  1
  Ni  Ni7  1  0.16633141  0.83318747  0.16652254  1
  Ni  Ni8  1  0.00144320  0.66644439  0.33306409  1
  Ni  Ni9  1  0.33379291  0.99917013  0.00071526  1
  Ni  Ni10  1  0.49925038  0.16570971  0.16534643  1
  Ni  Ni11  1  0.33206353  0.99897487  0.33229269  1
  Ni  Ni12  1  0.33379391  0.33368541  0.00036427  1
  Ni  Ni13  1  0.49764339  0.49856304  0.16607886  1
  Ni  Ni14  1  0.33037090  0.33369552  0.33281028  1
  Ni  Ni15  1  0.33127765  0.66659099  0.99936847  1
  Ni  Ni16  1  0.49864282  0.83517331  0.16707592  1
  Ni  Ni17  1  0.33153087  0.66677581  0.33365714  1
  Ni  Ni18  1  0.66637529  0.00168997  0.99970058  1
  Ni  Ni19  1  0.83348011  0.16570681  0.16613931  1
  Ni  Ni20  1  0.66704740  0.99871946  0.33239323  1
  Ni  Ni21  1  0.66670546  0.33149565  0.99934829  1
  Ni  Ni22  1  0.83546725  0.49894699  0.16569618  1
  Cr  Cr23  1  0.66730888  0.33307119  0.33188469  1
  Cr  Cr24  1  0.66668711  0.66627532  0.00017279  1
  Ni  Ni25  1  0.83447131  0.83479097  0.16669209  1
  Cr  Cr26  1  0.66629628  0.66770192  0.33302654  1
  Ni  Ni27  1  0.16520912  0.16670287  0.49814203  1
  Ni  Ni28  1  0.99731003  0.99910696  0.66552607  1
  Cr  Cr29  1  0.16666874  0.16648484  0.83446648  1
  Ni  Ni30  1  0.16769385  0.49930000  0.49827364  1
  Cr  Cr31  1  0.99934728  0.33229880  0.66544405  1
  Ni  Ni32  1  0.16810273  0.50143512  0.83442845  1
  Ni  Ni33  1  0.16570298  0.83344249  0.49849721  1
  Cr  Cr34  1  -0.00001297  0.66789275  0.66704723  1
  Ni  Ni35  1  0.16610919  0.83152764  0.83442855  1
  Cr  Cr36  1  0.49921186  0.16669058  0.50002137  1
  Cr  Cr37  1  0.33259781  0.99824029  0.66683478  1
  Ni  Ni38  1  0.50245491  0.16747735  0.83406060  1
  Ni  Ni39  1  0.49841985  0.50099225  0.50208296  1
  Ni  Ni40  1  0.33527023  0.33634771  0.66627198  1
  Ni  Ni41  1  0.49915735  0.49874828  0.83128240  1
  Ni  Ni42  1  0.50040948  0.83175037  0.49987145  1
  Ni  Ni43  1  0.33543137  0.66489671  0.66641944  1
  Ni  Ni44  1  0.50015422  0.83322075  0.83249965  1
  Fe  Fe45  1  0.83484306  0.16477323  0.49991243  1
  Ni  Ni46  1  0.66855398  0.99894381  0.66735071  1
  Ni  Ni47  1  0.83049713  0.16548635  0.83304452  1
  Ni  Ni48  1  0.83333344  0.50050201  0.49987322  1
  Ni  Ni49  1  0.66550073  0.33424209  0.66770389  1
  Ni  Ni50  1  0.83218811  0.49913389  0.83387663  1
  Ni  Ni51  1  0.83333343  0.83423110  0.50009545  1
  Ni  Ni52  1  0.66459833  0.66626012  0.66604872  1
  Ni  Ni53  1  0.83318251  0.83482439  0.83265958  1
" 