5135,Ni83Fe13Cr3_12,-240.523909917722, 192.202199158639,Ni83Fe13Cr3,"# generated using pymatgen
 data_Cr2Fe7Ni45
_symmetry_space_group_name_H-M   'P 1'
_cell_length_a   7.43995466
_cell_length_b   7.43995466
_cell_length_c   10.52168478
_cell_angle_alpha   90.00000000
_cell_angle_beta   90.00000000
_cell_angle_gamma   90.00000000
_symmetry_Int_Tables_number   1
_chemical_formula_structural   Cr2Fe7Ni45
_chemical_formula_sum   'Cr2 Fe7 Ni45'
_cell_volume   582.40603220
_cell_formula_units_Z   1
loop_
 _symmetry_equiv_pos_site_id
 _symmetry_equiv_pos_as_xyz
  1  'x, y, z'
loop_
 _atom_site_type_symbol
 _atom_site_label
 _atom_site_symmetry_multiplicity
 _atom_site_fract_x
 _atom_site_fract_y
 _atom_site_fract_z
 _atom_site_occupancy
  Ni  Ni0  1  0.00240829  1.00175063  1.00116776  1
  Ni  Ni1  1  0.16852537  0.16774800  0.16847658  1
  Ni  Ni2  1  0.00216607  0.00272741  0.33588131  1
  Ni  Ni3  1  0.00192908  0.33504666  1.00158449  1
  Ni  Ni4  1  0.17023889  0.50168116  0.16723054  1
  Ni  Ni5  1  0.00359280  0.33351538  0.33593997  1
  Ni  Ni6  1  1.00177816  0.66860118  1.00080132  1
  Ni  Ni7  1  0.16936190  0.83595430  0.16758298  1
  Cr  Cr8  1  1.00086036  0.66774452  0.33455240  1
  Ni  Ni9  1  0.33491404  1.00173431  0.00189554  1
  Ni  Ni10  1  0.50130813  0.16732667  0.16716843  1
  Ni  Ni11  1  0.33491654  0.00184132  0.33507323  1
  Ni  Ni12  1  0.33483029  0.33453639  1.00085415  1
  Ni  Ni13  1  0.50050086  0.50303241  0.16733945  1
  Ni  Ni14  1  0.33351206  0.33461993  0.33590799  1
  Ni  Ni15  1  0.33509387  0.66918080  1.00098033  1
  Ni  Ni16  1  0.50176190  0.83511053  0.16884759  1
  Ni  Ni17  1  0.33644829  0.66903898  0.33637932  1
  Ni  Ni18  1  0.66809316  1.00164864  1.00087428  1
  Ni  Ni19  1  0.83565638  0.16652756  0.16776472  1
  Ni  Ni20  1  0.66835285  0.99992760  0.33633102  1
  Ni  Ni21  1  0.66867263  0.33521882  1.00088849  1
  Ni  Ni22  1  0.83473086  0.50209400  0.16638812  1
  Cr  Cr23  1  0.66920122  0.33594839  0.33505450  1
  Ni  Ni24  1  0.66858384  0.66849629  0.00245677  1
  Ni  Ni25  1  0.83434635  0.83676546  0.16696765  1
  Ni  Ni26  1  0.66731457  0.67045102  0.33513795  1
  Ni  Ni27  1  0.16901589  0.16748783  0.50184727  1
  Fe  Fe28  1  0.00222518  0.00341134  0.66861178  1
  Ni  Ni29  1  0.16851620  0.16752688  0.83520280  1
  Ni  Ni30  1  0.17012020  0.50157679  0.50305835  1
  Ni  Ni31  1  0.00191786  0.33512789  0.66795788  1
  Ni  Ni32  1  0.16869856  0.50234413  0.83503168  1
  Ni  Ni33  1  0.16860536  0.83606408  0.50266147  1
  Fe  Fe34  1  0.00270141  0.66724775  0.66885687  1
  Ni  Ni35  1  0.16838228  0.83533639  0.83514157  1
  Ni  Ni36  1  0.50106104  0.16850114  0.50280323  1
  Ni  Ni37  1  0.33452573  1.00122292  0.66861210  1
  Ni  Ni38  1  0.50217084  0.16902976  0.83527640  1
  Ni  Ni39  1  0.50116279  0.50209478  0.50272011  1
  Ni  Ni40  1  0.33472009  0.33297120  0.66869994  1
  Ni  Ni41  1  0.50254521  0.50147950  0.83532246  1
  Fe  Fe42  1  0.50156483  0.83545027  0.50140253  1
  Fe  Fe43  1  0.33559990  0.66669679  0.66896860  1
  Fe  Fe44  1  0.50127847  0.83492760  0.83610793  1
  Ni  Ni45  1  0.83536840  0.16720714  0.50262729  1
  Fe  Fe46  1  0.66743844  0.00448357  0.66849458  1
  Ni  Ni47  1  0.83461629  0.16883051  0.83499360  1
  Ni  Ni48  1  0.83445208  0.50249820  0.50342123  1
  Ni  Ni49  1  0.66877320  0.33677988  0.66868810  1
  Ni  Ni50  1  0.83439121  0.50178357  0.83512315  1
  Ni  Ni51  1  0.83507795  0.83611246  0.50337879  1
  Ni  Ni52  1  0.66915191  0.66914098  0.66806534  1
  Fe  Fe53  1  0.83514173  0.83472009  0.83571990  1
" 