377,Ni83Fe14Cr1_19,-241.610599091947, 198.676312335691,Ni83Fe14Cr1,"# generated using pymatgen
 data_CrFe8Ni45
_symmetry_space_group_name_H-M   'P 1'
_cell_length_a   7.43250945
_cell_length_b   7.43250945
_cell_length_c   10.51115567
_cell_angle_alpha   90.00000000
_cell_angle_beta   90.00000000
_cell_angle_gamma   90.00000000
_symmetry_Int_Tables_number   1
_chemical_formula_structural   CrFe8Ni45
_chemical_formula_sum   'Cr1 Fe8 Ni45'
_cell_volume   580.65932999
_cell_formula_units_Z   1
loop_
 _symmetry_equiv_pos_site_id
 _symmetry_equiv_pos_as_xyz
  1  'x, y, z'
loop_
 _atom_site_type_symbol
 _atom_site_label
 _atom_site_symmetry_multiplicity
 _atom_site_fract_x
 _atom_site_fract_y
 _atom_site_fract_z
 _atom_site_occupancy
  Fe  Fe0  1  1.00229191  1.00072246  0.00249493  1
  Ni  Ni1  1  0.16916930  0.16903363  0.16929136  1
  Ni  Ni2  1  1.00149731  0.00311336  0.33454078  1
  Ni  Ni3  1  1.00228039  0.33540807  0.00288998  1
  Ni  Ni4  1  0.16775816  0.50073665  0.16804721  1
  Ni  Ni5  1  0.00256746  0.33526401  0.33575119  1
  Ni  Ni6  1  0.00302688  0.66654946  0.00238139  1
  Ni  Ni7  1  0.16758919  0.83722275  0.16775653  1
  Ni  Ni8  1  1.00182118  0.66868410  0.33530211  1
  Ni  Ni9  1  0.33695807  1.00194373  0.00339249  1
  Ni  Ni10  1  0.50214575  0.16895323  0.16876025  1
  Fe  Fe11  1  0.33561407  0.00357731  0.33571250  1
  Fe  Fe12  1  0.33540508  0.33654453  0.00311661  1
  Ni  Ni13  1  0.50389625  0.50133238  0.16820272  1
  Ni  Ni14  1  0.33544595  0.33480966  0.33531872  1
  Ni  Ni15  1  0.33563403  0.66994165  1.00194614  1
  Ni  Ni16  1  0.50408197  0.83703715  0.16860893  1
  Cr  Cr17  1  0.33551020  0.66888669  0.33542365  1
  Ni  Ni18  1  0.66773115  0.00286933  1.00199444  1
  Ni  Ni19  1  0.83562022  0.16892757  0.16868401  1
  Ni  Ni20  1  0.66905371  0.00303438  0.33572431  1
  Fe  Fe21  1  0.66926964  0.33689112  0.00270516  1
  Ni  Ni22  1  0.83540367  0.50258067  0.16940183  1
  Ni  Ni23  1  0.66893350  0.33459050  0.33457411  1
  Ni  Ni24  1  0.66830785  0.67015144  0.00279437  1
  Ni  Ni25  1  0.83518455  0.83539212  0.16879421  1
  Ni  Ni26  1  0.66966955  0.66941622  0.33532217  1
  Ni  Ni27  1  0.16952258  0.16871450  0.50184695  1
  Ni  Ni28  1  0.00238871  0.00368563  0.67029024  1
  Ni  Ni29  1  0.16970631  0.16896869  0.83591488  1
  Ni  Ni30  1  0.16748135  0.50053167  0.50387350  1
  Ni  Ni31  1  1.00149458  0.33517896  0.66831643  1
  Ni  Ni32  1  0.16886606  0.50079722  0.83504913  1
  Ni  Ni33  1  0.16681176  0.83782145  0.50391225  1
  Ni  Ni34  1  0.00318072  0.66817189  0.66928298  1
  Ni  Ni35  1  0.16893766  0.83692756  0.83552731  1
  Ni  Ni36  1  0.50160027  0.16927756  0.50255518  1
  Ni  Ni37  1  0.33591926  1.00147908  0.66821810  1
  Fe  Fe38  1  0.50154318  0.16810300  0.83532683  1
  Ni  Ni39  1  0.50445581  0.50063655  0.50339545  1
  Fe  Fe40  1  0.33555265  0.33561097  0.66814937  1
  Ni  Ni41  1  0.50304018  0.50234319  0.83527426  1
  Ni  Ni42  1  0.50439032  0.83714267  0.50340070  1
  Ni  Ni43  1  0.33560301  0.66976205  0.66970248  1
  Ni  Ni44  1  0.50301845  0.83566776  0.83511549  1
  Fe  Fe45  1  0.83558206  0.16879973  0.50181204  1
  Ni  Ni46  1  0.66864295  0.00320522  0.66917703  1
  Fe  Fe47  1  0.83644769  0.16922469  0.83614871  1
  Ni  Ni48  1  0.83506273  0.50310497  0.50195525  1
  Ni  Ni49  1  0.67031747  0.33491253  0.66959318  1
  Ni  Ni50  1  0.83516138  0.50310521  0.83557458  1
  Ni  Ni51  1  0.83572611  0.83504881  0.50275704  1
  Ni  Ni52  1  0.66816428  0.66880423  0.66886117  1
  Ni  Ni53  1  0.83498187  0.83482646  0.83550378  1
" 