1034,Ni83Fe14Cr1_4,-241.472967728654, 198.437887877956,Ni83Fe14Cr1,"# generated using pymatgen
 data_CrFe8Ni45
_symmetry_space_group_name_H-M   'P 1'
_cell_length_a   7.43335431
_cell_length_b   7.43335431
_cell_length_c   10.51235048
_cell_angle_alpha   90.00000000
_cell_angle_beta   90.00000000
_cell_angle_gamma   90.00000000
_symmetry_Int_Tables_number   1
_chemical_formula_structural   CrFe8Ni45
_chemical_formula_sum   'Cr1 Fe8 Ni45'
_cell_volume   580.85736456
_cell_formula_units_Z   1
loop_
 _symmetry_equiv_pos_site_id
 _symmetry_equiv_pos_as_xyz
  1  'x, y, z'
loop_
 _atom_site_type_symbol
 _atom_site_label
 _atom_site_symmetry_multiplicity
 _atom_site_fract_x
 _atom_site_fract_y
 _atom_site_fract_z
 _atom_site_occupancy
  Ni  Ni0  1  0.00276100  0.00231080  0.00259609  1
  Ni  Ni1  1  0.16958579  0.16882191  0.16902353  1
  Fe  Fe2  1  0.00314259  0.00351896  0.33474915  1
  Ni  Ni3  1  1.00221118  0.33560854  0.00277147  1
  Ni  Ni4  1  0.16949677  0.50286435  0.16907524  1
  Ni  Ni5  1  1.00205582  0.33613356  0.33571944  1
  Ni  Ni6  1  1.00221252  0.66888041  1.00217562  1
  Ni  Ni7  1  0.16800211  0.83510909  0.16892603  1
  Ni  Ni8  1  0.00233993  0.66769742  0.33492134  1
  Ni  Ni9  1  0.33546649  0.00235230  1.00212999  1
  Ni  Ni10  1  0.50248786  0.16987522  0.16902506  1
  Ni  Ni11  1  0.33542782  0.00275324  0.33581689  1
  Ni  Ni12  1  0.33546506  0.33501498  0.00227924  1
  Ni  Ni13  1  0.50230519  0.50154245  0.16832939  1
  Ni  Ni14  1  0.33551551  0.33407016  0.33598615  1
  Ni  Ni15  1  0.33542203  0.66943304  0.00318910  1
  Fe  Fe16  1  0.50233770  0.83560528  0.16807511  1
  Fe  Fe17  1  0.33512751  0.66750010  0.33578121  1
  Ni  Ni18  1  0.66857053  0.00235263  0.00260876  1
  Ni  Ni19  1  0.83472592  0.16838544  0.16897346  1
  Fe  Fe20  1  0.66853434  0.00410410  0.33474863  1
  Ni  Ni21  1  0.66912351  0.33556373  0.00275549  1
  Ni  Ni22  1  0.83499750  0.50312571  0.16974766  1
  Ni  Ni23  1  0.66922968  0.33614214  0.33572205  1
  Ni  Ni24  1  0.66916415  0.66888437  1.00217345  1
  Ni  Ni25  1  0.83604654  0.83529036  0.16827220  1
  Ni  Ni26  1  0.66902121  0.66761399  0.33492552  1
  Ni  Ni27  1  0.16945656  0.16909993  0.50235853  1
  Ni  Ni28  1  0.00382692  0.00333550  0.66924293  1
  Ni  Ni29  1  0.16944459  0.16900135  0.83541642  1
  Ni  Ni30  1  0.17015331  0.50278982  0.50203618  1
  Ni  Ni31  1  1.00147722  0.33551212  0.66830774  1
  Ni  Ni32  1  0.16867474  0.50285161  0.83568791  1
  Ni  Ni33  1  0.16973231  0.83490543  0.50270483  1
  Ni  Ni34  1  0.00332962  0.66794841  0.66970441  1
  Ni  Ni35  1  0.16874417  0.83494767  0.83516728  1
  Ni  Ni36  1  0.50261613  0.17015330  0.50235732  1
  Ni  Ni37  1  0.33546692  1.00152510  0.66884989  1
  Ni  Ni38  1  0.50262870  0.16849191  0.83541662  1
  Ni  Ni39  1  0.50165740  0.50147324  0.50278278  1
  Fe  Fe40  1  0.33541389  0.33547140  0.66853305  1
  Fe  Fe41  1  0.50255138  0.50261040  0.83578900  1
  Fe  Fe42  1  0.49995431  0.83606105  0.50324937  1
  Ni  Ni43  1  0.33542422  0.67031076  0.66784576  1
  Ni  Ni44  1  0.50278597  0.83600157  0.83516688  1
  Ni  Ni45  1  0.83472516  0.16973517  0.50238648  1
  Ni  Ni46  1  0.66750106  0.00337389  0.66922759  1
  Ni  Ni47  1  0.83472645  0.16855957  0.83543707  1
  Fe  Fe48  1  0.83600592  0.50000791  0.50221279  1
  Ni  Ni49  1  0.66985967  0.33547022  0.66832138  1
  Ni  Ni50  1  0.83577979  0.50300767  0.83495976  1
  Cr  Cr51  1  0.83635970  0.83599968  0.50326386  1
  Ni  Ni52  1  0.66804256  0.66795304  0.66970110  1
  Ni  Ni53  1  0.83526846  0.83523135  0.83575916  1
" 