7934,Ni83Fe14Cr1_15,-241.715598495989, 200.778779869789,Ni83Fe14Cr1,"# generated using pymatgen
 data_CrFe8Ni45
_symmetry_space_group_name_H-M   'P 1'
_cell_length_a   7.43305757
_cell_length_b   7.43305757
_cell_length_c   10.51193082
_cell_angle_alpha   90.00000000
_cell_angle_beta   90.00000000
_cell_angle_gamma   90.00000000
_symmetry_Int_Tables_number   1
_chemical_formula_structural   CrFe8Ni45
_chemical_formula_sum   'Cr1 Fe8 Ni45'
_cell_volume   580.78780256
_cell_formula_units_Z   1
loop_
 _symmetry_equiv_pos_site_id
 _symmetry_equiv_pos_as_xyz
  1  'x, y, z'
loop_
 _atom_site_type_symbol
 _atom_site_label
 _atom_site_symmetry_multiplicity
 _atom_site_fract_x
 _atom_site_fract_y
 _atom_site_fract_z
 _atom_site_occupancy
  Ni  Ni0  1  1.00182904  1.00198109  1.00207066  1
  Ni  Ni1  1  0.16876135  0.16914452  0.16916621  1
  Ni  Ni2  1  1.00137460  1.00219026  0.33611803  1
  Ni  Ni3  1  1.00215342  0.33601336  1.00132794  1
  Fe  Fe4  1  0.16889798  0.50166886  0.16900928  1
  Ni  Ni5  1  0.00246252  0.33611212  0.33661696  1
  Ni  Ni6  1  1.00205814  0.66886242  0.00270681  1
  Fe  Fe7  1  0.16896216  0.83618078  0.16901637  1
  Ni  Ni8  1  1.00165799  0.66855500  0.33552772  1
  Ni  Ni9  1  0.33593922  0.00252374  1.00190578  1
  Ni  Ni10  1  0.50153677  0.16909010  0.16862916  1
  Ni  Ni11  1  0.33625670  0.00268056  0.33618250  1
  Ni  Ni12  1  0.33593892  0.33579867  1.00196695  1
  Ni  Ni13  1  0.50235763  0.50237175  0.16891166  1
  Ni  Ni14  1  0.33544226  0.33589753  0.33590021  1
  Ni  Ni15  1  0.33549356  0.66853668  1.00193050  1
  Ni  Ni16  1  0.50268805  0.83539743  0.16866879  1
  Ni  Ni17  1  0.33575499  0.66828065  0.33620463  1
  Ni  Ni18  1  0.66908953  0.00242654  1.00210725  1
  Ni  Ni19  1  0.83656146  0.16881544  0.16841479  1
  Ni  Ni20  1  0.66923013  1.00188039  0.33584071  1
  Ni  Ni21  1  0.66876213  0.33556940  0.00292526  1
  Ni  Ni22  1  0.83573910  0.50264240  0.16869592  1
  Fe  Fe23  1  0.66900667  0.33566752  0.33572280  1
  Ni  Ni24  1  0.66930511  0.66886187  1.00133094  1
  Ni  Ni25  1  0.83568836  0.83540101  0.16923330  1
  Ni  Ni26  1  0.66944606  0.66936753  0.33667871  1
  Fe  Fe27  1  0.16907814  0.16876090  0.50200462  1
  Ni  Ni28  1  1.00166063  0.00302491  0.66866714  1
  Ni  Ni29  1  0.16898426  0.16930221  0.83488923  1
  Ni  Ni30  1  0.16971018  0.50189180  0.50113559  1
  Fe  Fe31  1  0.00296039  0.33352728  0.66864472  1
  Ni  Ni32  1  0.17009246  0.50103589  0.83705359  1
  Ni  Ni33  1  0.16938617  0.83591493  0.50139212  1
  Cr  Cr34  1  0.00302344  0.66968173  0.66859119  1
  Ni  Ni35  1  0.16896242  0.83651564  0.83701634  1
  Ni  Ni36  1  0.50251949  0.16904595  0.50199757  1
  Ni  Ni37  1  0.33606890  0.00250565  0.66876947  1
  Ni  Ni38  1  0.50161965  0.16935611  0.83623366  1
  Ni  Ni39  1  0.50166011  0.50215296  0.50250346  1
  Ni  Ni40  1  0.33687933  0.33602882  0.66898980  1
  Ni  Ni41  1  0.50158410  0.50205415  0.83544508  1
  Ni  Ni42  1  0.50198472  0.83566391  0.50280159  1
  Ni  Ni43  1  0.33657552  0.66832269  0.66873105  1
  Ni  Ni44  1  0.50266403  0.83545119  0.83538730  1
  Ni  Ni45  1  0.83574645  0.16871991  0.50243766  1
  Ni  Ni46  1  0.66912585  0.00332390  0.66890953  1
  Fe  Fe47  1  0.83543579  0.16821827  0.83567649  1
  Ni  Ni48  1  0.83548513  0.50136590  0.50157517  1
  Ni  Ni49  1  0.66799941  0.33489733  0.66837404  1
  Fe  Fe50  1  0.83472918  0.50183909  0.83710295  1
  Ni  Ni51  1  0.83548309  0.83676913  0.50106916  1
  Fe  Fe52  1  0.66642623  0.66962344  0.66869992  1
  Ni  Ni53  1  0.83522723  0.83655484  0.83655790  1
" 