1472,Ni83Fe10Cr5_3,-238.485656606123, 184.044176557039,Ni83Fe10Cr5,"# generated using pymatgen
 data_Cr4(FeNi9)5
_symmetry_space_group_name_H-M   'P 1'
_cell_length_a   7.44710756
_cell_length_b   7.44710756
_cell_length_c   10.53180051
_cell_angle_alpha   90.00000000
_cell_angle_beta   90.00000000
_cell_angle_gamma   90.00000000
_symmetry_Int_Tables_number   1
_chemical_formula_structural   Cr4(FeNi9)5
_chemical_formula_sum   'Cr4 Fe5 Ni45'
_cell_volume   584.08745252
_cell_formula_units_Z   1
loop_
 _symmetry_equiv_pos_site_id
 _symmetry_equiv_pos_as_xyz
  1  'x, y, z'
loop_
 _atom_site_type_symbol
 _atom_site_label
 _atom_site_symmetry_multiplicity
 _atom_site_fract_x
 _atom_site_fract_y
 _atom_site_fract_z
 _atom_site_occupancy
  Ni  Ni0  1  1.00110547  1.00038083  1.00055006  1
  Cr  Cr1  1  0.16752599  0.16740584  0.16909973  1
  Ni  Ni2  1  1.00067144  1.00053282  0.33548532  1
  Ni  Ni3  1  0.99807272  0.33510729  1.00049581  1
  Ni  Ni4  1  0.16555510  0.50421127  0.16858049  1
  Ni  Ni5  1  1.00034402  0.33529782  0.33498665  1
  Ni  Ni6  1  1.00103578  0.66853018  1.00094690  1
  Ni  Ni7  1  0.16831515  0.83274895  0.16804856  1
  Ni  Ni8  1  0.00144355  0.66818667  0.33478081  1
  Ni  Ni9  1  0.33475684  0.99831487  1.00039471  1
  Ni  Ni10  1  0.50387752  0.16546363  0.16894899  1
  Ni  Ni11  1  0.33544041  1.00026218  0.33545205  1
  Cr  Cr12  1  0.33472409  0.33460458  0.99928467  1
  Cr  Cr13  1  0.50194108  0.50193004  0.16959958  1
  Ni  Ni14  1  0.33480262  0.33460203  0.33688391  1
  Ni  Ni15  1  0.33419552  0.67122180  1.00078443  1
  Ni  Ni16  1  0.50112047  0.83626792  0.16736046  1
  Ni  Ni17  1  0.33397175  0.66915323  0.33474053  1
  Fe  Fe18  1  0.66852495  0.00136794  0.00222307  1
  Ni  Ni19  1  0.83265451  0.16822357  0.16784860  1
  Ni  Ni20  1  0.66790473  0.00136145  0.33435349  1
  Ni  Ni21  1  0.67084762  0.33454837  1.00053953  1
  Ni  Ni22  1  0.83617442  0.50145156  0.16752173  1
  Ni  Ni23  1  0.66887095  0.33382930  0.33519017  1
  Ni  Ni24  1  0.66878323  0.66819204  1.00040618  1
  Ni  Ni25  1  0.83458153  0.83434111  0.16836661  1
  Ni  Ni26  1  0.66859974  0.66882467  0.33558440  1
  Ni  Ni27  1  0.16902327  0.16831495  0.50183193  1
  Ni  Ni28  1  0.00194735  0.00220581  0.66798187  1
  Ni  Ni29  1  0.16817809  0.16705674  0.83330051  1
  Ni  Ni30  1  0.16709327  0.50036706  0.50012092  1
  Ni  Ni31  1  1.00078317  0.33317220  0.66853430  1
  Ni  Ni32  1  0.16708272  0.50143952  0.83531318  1
  Ni  Ni33  1  0.16772984  0.83533161  0.50002154  1
  Fe  Fe34  1  0.99998552  0.66752347  0.66800184  1
  Ni  Ni35  1  0.16714410  0.83551991  0.83594558  1
  Ni  Ni36  1  0.50072976  0.16774519  0.50095313  1
  Ni  Ni37  1  0.33339647  0.00302513  0.66816677  1
  Ni  Ni38  1  0.50148125  0.16822178  0.83411431  1
  Fe  Fe39  1  0.50232136  0.50052567  0.50088576  1
  Ni  Ni40  1  0.33476768  0.33256186  0.66816329  1
  Ni  Ni41  1  0.50290600  0.50060463  0.83417211  1
  Ni  Ni42  1  0.50202852  0.83590132  0.50050765  1
  Cr  Cr43  1  0.33545691  0.66824931  0.66838431  1
  Fe  Fe44  1  0.50166541  0.83488295  0.83561808  1
  Ni  Ni45  1  0.83426186  0.16837961  0.50112330  1
  Fe  Fe46  1  0.66805207  0.00240014  0.66719658  1
  Ni  Ni47  1  0.83435662  0.16828369  0.83504339  1
  Ni  Ni48  1  0.83483092  0.50166914  0.50138152  1
  Ni  Ni49  1  0.66846514  0.33558582  0.66828940  1
  Ni  Ni50  1  0.83402600  0.50163987  0.83511158  1
  Ni  Ni51  1  0.83425843  0.83396748  0.50126121  1
  Ni  Ni52  1  0.66928832  0.66726499  0.66802507  1
  Ni  Ni53  1  0.83519280  0.83409221  0.83438745  1
" 