435,Ni83Fe14Cr1_8,-241.451127431122, 199.093583407417,Ni83Fe14Cr1,"# generated using pymatgen
 data_CrFe8Ni45
_symmetry_space_group_name_H-M   'P 1'
_cell_length_a   7.43129858
_cell_length_b   7.43129858
_cell_length_c   10.50944323
_cell_angle_alpha   90.00000000
_cell_angle_beta   90.00000000
_cell_angle_gamma   90.00000000
_symmetry_Int_Tables_number   1
_chemical_formula_structural   CrFe8Ni45
_chemical_formula_sum   'Cr1 Fe8 Ni45'
_cell_volume   580.37557922
_cell_formula_units_Z   1
loop_
 _symmetry_equiv_pos_site_id
 _symmetry_equiv_pos_as_xyz
  1  'x, y, z'
loop_
 _atom_site_type_symbol
 _atom_site_label
 _atom_site_symmetry_multiplicity
 _atom_site_fract_x
 _atom_site_fract_y
 _atom_site_fract_z
 _atom_site_occupancy
  Ni  Ni0  1  1.00203261  0.00309259  0.00261069  1
  Ni  Ni1  1  0.16914774  0.16904603  0.16859904  1
  Ni  Ni2  1  0.00262309  0.00251547  0.33617323  1
  Ni  Ni3  1  1.00181323  0.33453812  0.00286942  1
  Fe  Fe4  1  0.16942747  0.50133822  0.16889473  1
  Ni  Ni5  1  1.00188695  0.33548137  0.33663899  1
  Fe  Fe6  1  0.00324845  0.66894417  1.00184852  1
  Fe  Fe7  1  0.16941618  0.83672492  0.16933028  1
  Ni  Ni8  1  0.00290639  0.66928969  0.33454732  1
  Ni  Ni9  1  0.33548344  1.00153801  0.00252475  1
  Ni  Ni10  1  0.50100338  0.16936950  0.16882689  1
  Ni  Ni11  1  0.33476181  1.00216893  0.33541987  1
  Ni  Ni12  1  0.33568007  0.33637520  0.00276647  1
  Ni  Ni13  1  0.50207224  0.50155885  0.16981537  1
  Ni  Ni14  1  0.33590206  0.33588504  0.33554171  1
  Ni  Ni15  1  0.33522897  0.66936678  0.00267658  1
  Ni  Ni16  1  0.50173447  0.83632655  0.17046446  1
  Ni  Ni17  1  0.33601045  0.66949754  0.33596552  1
  Ni  Ni18  1  0.66982266  0.00341596  0.00345125  1
  Ni  Ni19  1  0.83702415  0.16928523  0.17032198  1
  Fe  Fe20  1  0.66859253  0.00273908  0.33566583  1
  Ni  Ni21  1  0.66982956  0.33439310  0.00258748  1
  Ni  Ni22  1  0.83694217  0.50187688  0.16906881  1
  Ni  Ni23  1  0.66934674  0.33612105  0.33491632  1
  Cr  Cr24  1  0.66776382  0.66881138  1.00087474  1
  Ni  Ni25  1  0.83725046  0.83596559  0.16973421  1
  Fe  Fe26  1  0.66935252  0.66842408  0.33610517  1
  Ni  Ni27  1  0.16951780  0.16872087  0.50314640  1
  Ni  Ni28  1  0.00250612  1.00223473  0.66878092  1
  Fe  Fe29  1  0.16887967  0.16940097  0.83570832  1
  Fe  Fe30  1  0.16990138  0.50376618  0.50277247  1
  Ni  Ni31  1  1.00200230  0.33558080  0.66791932  1
  Ni  Ni32  1  0.16899345  0.50257567  0.83541691  1
  Ni  Ni33  1  0.16840173  0.83718784  0.50193846  1
  Ni  Ni34  1  0.00249851  0.66952670  0.66994979  1
  Ni  Ni35  1  0.16896403  0.83549839  0.83633801  1
  Ni  Ni36  1  0.49997165  0.16969942  0.50177772  1
  Ni  Ni37  1  0.33535833  1.00208879  0.66937688  1
  Ni  Ni38  1  0.50229941  0.16908979  0.83682075  1
  Ni  Ni39  1  0.50371655  0.50157031  0.50262909  1
  Ni  Ni40  1  0.33592937  0.33577165  0.66887191  1
  Ni  Ni41  1  0.50093329  0.50078569  0.83451553  1
  Ni  Ni42  1  0.50176085  0.83597692  0.50253810  1
  Ni  Ni43  1  0.33600172  0.66973199  0.66874130  1
  Ni  Ni44  1  0.50103303  0.83730298  0.83409311  1
  Fe  Fe45  1  0.83432010  0.16841362  0.50269705  1
  Ni  Ni46  1  0.66890005  1.00217238  0.66868596  1
  Ni  Ni47  1  0.83557682  0.16909600  0.83535234  1
  Ni  Ni48  1  0.83611115  0.50295584  0.50265768  1
  Ni  Ni49  1  0.66905099  0.33586466  0.66995172  1
  Ni  Ni50  1  0.83744646  0.50095410  0.83498640  1
  Ni  Ni51  1  0.83710792  0.83380351  0.50251116  1
  Ni  Ni52  1  0.66902548  0.66898166  0.66885542  1
  Ni  Ni53  1  0.83737456  0.83704553  0.83461391  1
" 