5788,Ni83Fe14Cr1_18,-241.49337523356, 198.353826209439,Ni83Fe14Cr1,"# generated using pymatgen
 data_CrFe8Ni45
_symmetry_space_group_name_H-M   'P 1'
_cell_length_a   7.43275730
_cell_length_b   7.43275730
_cell_length_c   10.51150618
_cell_angle_alpha   90.00000000
_cell_angle_beta   90.00000000
_cell_angle_gamma   90.00000000
_symmetry_Int_Tables_number   1
_chemical_formula_structural   CrFe8Ni45
_chemical_formula_sum   'Cr1 Fe8 Ni45'
_cell_volume   580.71742105
_cell_formula_units_Z   1
loop_
 _symmetry_equiv_pos_site_id
 _symmetry_equiv_pos_as_xyz
  1  'x, y, z'
loop_
 _atom_site_type_symbol
 _atom_site_label
 _atom_site_symmetry_multiplicity
 _atom_site_fract_x
 _atom_site_fract_y
 _atom_site_fract_z
 _atom_site_occupancy
  Ni  Ni0  1  0.00239761  1.00164834  1.00197788  1
  Fe  Fe1  1  0.16900982  0.16889334  0.16888257  1
  Ni  Ni2  1  0.00231321  1.00143421  0.33580689  1
  Fe  Fe3  1  0.00291988  0.33677765  1.00154249  1
  Ni  Ni4  1  0.17003277  0.50139655  0.16971641  1
  Fe  Fe5  1  0.00330023  0.33479549  0.33574914  1
  Ni  Ni6  1  1.00152488  0.67025068  1.00219918  1
  Fe  Fe7  1  0.16831474  0.83438621  0.16875738  1
  Ni  Ni8  1  0.00287287  0.67106531  0.33462307  1
  Ni  Ni9  1  0.33406925  0.00286330  0.00263886  1
  Fe  Fe10  1  0.50331018  0.16974864  0.16838703  1
  Ni  Ni11  1  0.33488893  0.00320372  0.33505579  1
  Ni  Ni12  1  0.33726966  0.33544571  1.00190594  1
  Ni  Ni13  1  0.50128128  0.50343505  0.16910113  1
  Ni  Ni14  1  0.33699828  0.33529949  0.33561607  1
  Ni  Ni15  1  0.33544119  0.66864658  0.00236779  1
  Ni  Ni16  1  0.50178374  0.83561644  0.16963286  1
  Ni  Ni17  1  0.33500746  0.66849908  0.33527162  1
  Fe  Fe18  1  0.66837204  1.00111515  1.00208357  1
  Ni  Ni19  1  0.83649644  0.16835820  0.16918816  1
  Ni  Ni20  1  0.66960915  0.00333875  0.33504670  1
  Ni  Ni21  1  0.66861617  0.33623033  1.00215787  1
  Ni  Ni22  1  0.83587394  0.50161667  0.16956971  1
  Ni  Ni23  1  0.66713105  0.33477538  0.33486923  1
  Ni  Ni24  1  0.66977468  0.66718277  0.00267192  1
  Ni  Ni25  1  0.83433104  0.83682739  0.16938368  1
  Ni  Ni26  1  0.66889790  0.66898661  0.33444550  1
  Ni  Ni27  1  0.16886371  0.16846847  0.50201492  1
  Ni  Ni28  1  0.00262651  1.00195069  0.66892966  1
  Ni  Ni29  1  0.16928130  0.16860889  0.83572941  1
  Ni  Ni30  1  0.17190892  0.50216699  0.50240290  1
  Ni  Ni31  1  0.00310219  0.33431014  0.67000567  1
  Ni  Ni32  1  0.16993880  0.50222566  0.83495985  1
  Ni  Ni33  1  0.16934280  0.83623788  0.50157231  1
  Ni  Ni34  1  0.00312427  0.67064687  0.67003174  1
  Ni  Ni35  1  0.16978520  0.83619697  0.83609754  1
  Fe  Fe36  1  0.50213123  0.16908679  0.50291081  1
  Ni  Ni37  1  0.33460601  0.00286308  0.66913189  1
  Ni  Ni38  1  0.50188436  0.16846860  0.83586321  1
  Ni  Ni39  1  0.50027792  0.50267066  0.50188186  1
  Ni  Ni40  1  0.33602902  0.33532395  0.66934312  1
  Ni  Ni41  1  0.50173323  0.50260259  0.83588375  1
  Fe  Fe42  1  0.50212647  0.83553165  0.50202987  1
  Ni  Ni43  1  0.33514920  0.66878636  0.66921225  1
  Ni  Ni44  1  0.50168255  0.83567032  0.83534065  1
  Ni  Ni45  1  0.83597127  0.16651690  0.50234031  1
  Ni  Ni46  1  0.66968505  0.00286699  0.66963460  1
  Ni  Ni47  1  0.83574733  0.16845558  0.83548201  1
  Cr  Cr48  1  0.83515551  0.50228683  0.50184174  1
  Ni  Ni49  1  0.66779968  0.33490876  0.66997474  1
  Ni  Ni50  1  0.83538629  0.50209436  0.83591173  1
  Ni  Ni51  1  0.83546891  0.83822749  0.50188634  1
  Ni  Ni52  1  0.66862156  0.66923041  0.66993190  1
  Ni  Ni53  1  0.83529424  0.83632096  0.83556864  1
" 