697,Ni83Fe2Cr13_11,-234.120437590554, 161.737897743998,Ni83Fe2Cr13,"# generated using pymatgen
 data_Cr8FeNi45
_symmetry_space_group_name_H-M   'P 1'
_cell_length_a   7.47087215
_cell_length_b   7.47087215
_cell_length_c   10.56540872
_cell_angle_alpha   90.00000000
_cell_angle_beta   90.00000000
_cell_angle_gamma   90.00000000
_symmetry_Int_Tables_number   1
_chemical_formula_structural   Cr8FeNi45
_chemical_formula_sum   'Cr8 Fe1 Ni45'
_cell_volume   589.69699011
_cell_formula_units_Z   1
loop_
 _symmetry_equiv_pos_site_id
 _symmetry_equiv_pos_as_xyz
  1  'x, y, z'
loop_
 _atom_site_type_symbol
 _atom_site_label
 _atom_site_symmetry_multiplicity
 _atom_site_fract_x
 _atom_site_fract_y
 _atom_site_fract_z
 _atom_site_occupancy
  Ni  Ni0  1  0.99948716  -0.00017749  0.99955498  1
  Ni  Ni1  1  0.16627028  0.16802889  0.16597710  1
  Ni  Ni2  1  0.99872967  0.00057522  0.33373789  1
  Ni  Ni3  1  0.00169243  0.33158802  0.00187986  1
  Ni  Ni4  1  0.16638660  0.49801924  0.16654884  1
  Ni  Ni5  1  0.00077931  0.33260254  0.33372019  1
  Ni  Ni6  1  0.99965035  0.66786210  0.99959874  1
  Cr  Cr7  1  0.16667714  0.83313013  0.16612342  1
  Ni  Ni8  1  -0.00009177  0.66605946  0.33498082  1
  Ni  Ni9  1  0.33405384  0.00071464  0.99855790  1
  Ni  Ni10  1  0.49965410  0.16469658  0.16610161  1
  Ni  Ni11  1  0.33426460  0.00045644  0.33416996  1
  Ni  Ni12  1  0.33291004  0.33176705  0.99957211  1
  Cr  Cr13  1  0.49801811  0.50021609  0.16606919  1
  Ni  Ni14  1  0.33115729  0.33167522  0.33286563  1
  Ni  Ni15  1  0.33403367  0.66679745  0.99916956  1
  Ni  Ni16  1  0.50133859  0.83477201  0.16654346  1
  Ni  Ni17  1  0.33216123  0.66710247  0.33357799  1
  Ni  Ni18  1  0.66571235  0.99869323  0.00099604  1
  Ni  Ni19  1  0.83330481  0.16467342  0.16611067  1
  Ni  Ni20  1  0.66624259  0.99956965  0.33268418  1
  Ni  Ni21  1  0.66462969  0.33152836  0.99943217  1
  Cr  Cr22  1  0.83451080  0.49981152  0.16600705  1
  Ni  Ni23  1  0.66728261  0.33049481  0.33397214  1
  Ni  Ni24  1  0.66555142  0.66899901  0.99848010  1
  Ni  Ni25  1  0.83152263  0.83488873  0.16598000  1
  Ni  Ni26  1  0.66716206  0.66917861  0.33394704  1
  Ni  Ni27  1  0.16627252  0.16630250  0.50012665  1
  Ni  Ni28  1  0.00032185  0.99912670  0.66593621  1
  Ni  Ni29  1  0.16846755  0.16501962  0.83311998  1
  Ni  Ni30  1  0.16367278  0.49903959  0.49831364  1
  Ni  Ni31  1  0.00052578  0.33230116  0.66360360  1
  Cr  Cr32  1  0.16689133  0.49827181  0.83434799  1
  Ni  Ni33  1  0.16538938  0.83391694  0.49978930  1
  Ni  Ni34  1  0.99770155  0.66781443  0.66463944  1
  Fe  Fe35  1  0.16613730  0.83574624  0.83356667  1
  Ni  Ni36  1  0.49950577  0.16465338  0.50020265  1
  Ni  Ni37  1  0.33323253  0.00179190  0.66651523  1
  Ni  Ni38  1  0.49741908  0.16599898  0.83293273  1
  Cr  Cr39  1  0.50065295  0.49898066  0.49922967  1
  Ni  Ni40  1  0.33305049  0.32975519  0.66681347  1
  Ni  Ni41  1  0.50010550  0.49950911  0.83417793  1
  Ni  Ni42  1  0.50045336  0.83543681  0.49852718  1
  Cr  Cr43  1  0.33323429  0.66781185  0.66643805  1
  Ni  Ni44  1  0.50099370  0.83374459  0.83417580  1
  Ni  Ni45  1  0.83344669  0.16639478  0.49977455  1
  Ni  Ni46  1  0.66569687  0.99899618  0.66554115  1
  Cr  Cr47  1  0.83366435  0.16473888  0.83308510  1
  Ni  Ni48  1  0.83501672  0.49998506  0.50040039  1
  Ni  Ni49  1  0.66565023  0.33224060  0.66582357  1
  Cr  Cr50  1  0.83148137  0.50121260  0.83265908  1
  Ni  Ni51  1  0.83336995  0.83285109  0.49995042  1
  Ni  Ni52  1  0.66829598  0.66798404  0.66681995  1
  Ni  Ni53  1  0.83243647  0.83282989  0.83330894  1
" 