458,Ni83Fe14Cr1_2,-241.945947750599, 200.234273440878,Ni83Fe14Cr1,"# generated using pymatgen
 data_CrFe8Ni45
_symmetry_space_group_name_H-M   'P 1'
_cell_length_a   7.43311614
_cell_length_b   7.43311614
_cell_length_c   10.51201365
_cell_angle_alpha   90.00000000
_cell_angle_beta   90.00000000
_cell_angle_gamma   90.00000000
_symmetry_Int_Tables_number   1
_chemical_formula_structural   CrFe8Ni45
_chemical_formula_sum   'Cr1 Fe8 Ni45'
_cell_volume   580.80153143
_cell_formula_units_Z   1
loop_
 _symmetry_equiv_pos_site_id
 _symmetry_equiv_pos_as_xyz
  1  'x, y, z'
loop_
 _atom_site_type_symbol
 _atom_site_label
 _atom_site_symmetry_multiplicity
 _atom_site_fract_x
 _atom_site_fract_y
 _atom_site_fract_z
 _atom_site_occupancy
  Ni  Ni0  1  0.00254174  1.00225972  0.00366734  1
  Ni  Ni1  1  0.16966424  0.16902599  0.16946630  1
  Fe  Fe2  1  0.00315785  0.00274458  0.33606735  1
  Ni  Ni3  1  0.00275379  0.33600512  1.00162997  1
  Ni  Ni4  1  0.16824207  0.50017642  0.16746149  1
  Ni  Ni5  1  0.00292805  0.33615234  0.33546610  1
  Ni  Ni6  1  1.00173813  0.66859001  1.00205150  1
  Fe  Fe7  1  0.17026867  0.83457042  0.16843067  1
  Fe  Fe8  1  0.00279054  0.66749876  0.33505078  1
  Ni  Ni9  1  0.33532939  0.00244668  0.00248927  1
  Ni  Ni10  1  0.49910980  0.16984132  0.16808086  1
  Ni  Ni11  1  0.33417226  1.00136442  0.33609066  1
  Ni  Ni12  1  0.33474986  0.33526615  0.00239469  1
  Ni  Ni13  1  0.50267432  0.50174227  0.16906837  1
  Ni  Ni14  1  0.33405891  0.33638972  0.33629395  1
  Fe  Fe15  1  0.33615656  0.66847108  1.00198275  1
  Ni  Ni16  1  0.50314233  0.83532011  0.16708032  1
  Ni  Ni17  1  0.33589893  0.66892978  0.33467310  1
  Ni  Ni18  1  0.66898618  1.00134064  1.00158691  1
  Fe  Fe19  1  0.83509425  0.17099867  0.16835925  1
  Cr  Cr20  1  0.66792169  1.00163368  0.33644952  1
  Ni  Ni21  1  0.66926704  0.33639413  0.00313815  1
  Ni  Ni22  1  0.83599049  0.50402048  0.16915173  1
  Ni  Ni23  1  0.66983605  0.33780941  0.33565203  1
  Ni  Ni24  1  0.66978065  0.66916277  0.00279126  1
  Ni  Ni25  1  0.83648823  0.83357063  0.16789362  1
  Ni  Ni26  1  0.66852345  0.66843494  0.33584373  1
  Ni  Ni27  1  0.16919075  0.16902916  0.50218304  1
  Ni  Ni28  1  0.00281420  0.00275206  0.66813312  1
  Ni  Ni29  1  0.16961155  0.16822535  0.83537626  1
  Ni  Ni30  1  0.16838405  0.50213007  0.50331633  1
  Ni  Ni31  1  0.00266279  0.33539437  0.66966161  1
  Fe  Fe32  1  0.17007318  0.50273344  0.83568544  1
  Ni  Ni33  1  0.16852815  0.83575105  0.50135024  1
  Fe  Fe34  1  0.00268620  0.66912418  0.66964005  1
  Ni  Ni35  1  0.16794843  0.83818689  0.83683464  1
  Ni  Ni36  1  0.50069464  0.17024889  0.50341864  1
  Ni  Ni37  1  0.33477428  1.00116677  0.66818088  1
  Ni  Ni38  1  0.50012541  0.16942884  0.83538812  1
  Ni  Ni39  1  0.50244111  0.50209937  0.50138308  1
  Ni  Ni40  1  0.33457074  0.33646211  0.66811237  1
  Ni  Ni41  1  0.50442947  0.50134408  0.83629931  1
  Ni  Ni42  1  0.50143595  0.83456585  0.50378974  1
  Ni  Ni43  1  0.33610564  0.66939227  0.66962615  1
  Ni  Ni44  1  0.50269996  0.83598721  0.83593419  1
  Ni  Ni45  1  0.83708915  0.17021007  0.50332963  1
  Ni  Ni46  1  0.66916646  1.00113201  0.66922677  1
  Fe  Fe47  1  0.83470253  0.16815542  0.83513225  1
  Ni  Ni48  1  0.83594674  0.50280089  0.50181868  1
  Ni  Ni49  1  0.66961520  0.33659963  0.66800221  1
  Ni  Ni50  1  0.83501801  0.50328509  0.83582199  1
  Ni  Ni51  1  0.83696050  0.83381185  0.50368794  1
  Ni  Ni52  1  0.66811550  0.66898462  0.66815868  1
  Ni  Ni53  1  0.83619639  0.83409067  0.83544942  1
" 