1968,Ni83Fe13Cr3_7,-240.834685391575, 195.889915804333,Ni83Fe13Cr3,"# generated using pymatgen
 data_Cr2Fe7Ni45
_symmetry_space_group_name_H-M   'P 1'
_cell_length_a   7.43962861
_cell_length_b   7.43962861
_cell_length_c   10.52122368
_cell_angle_alpha   90.00000000
_cell_angle_beta   90.00000000
_cell_angle_gamma   90.00000000
_symmetry_Int_Tables_number   1
_chemical_formula_structural   Cr2Fe7Ni45
_chemical_formula_sum   'Cr2 Fe7 Ni45'
_cell_volume   582.32946589
_cell_formula_units_Z   1
loop_
 _symmetry_equiv_pos_site_id
 _symmetry_equiv_pos_as_xyz
  1  'x, y, z'
loop_
 _atom_site_type_symbol
 _atom_site_label
 _atom_site_symmetry_multiplicity
 _atom_site_fract_x
 _atom_site_fract_y
 _atom_site_fract_z
 _atom_site_occupancy
  Ni  Ni0  1  0.00185000  1.00107514  0.00201425  1
  Ni  Ni1  1  0.16837302  0.16840303  0.16915419  1
  Ni  Ni2  1  1.00135181  1.00078962  0.33458717  1
  Ni  Ni3  1  1.00100259  0.33590552  0.00202980  1
  Ni  Ni4  1  0.16837734  0.50194851  0.16870474  1
  Ni  Ni5  1  0.00218376  0.33579042  0.33517907  1
  Ni  Ni6  1  0.00345625  0.66854782  0.00207691  1
  Ni  Ni7  1  0.16642503  0.83517356  0.16832534  1
  Ni  Ni8  1  0.00218007  0.66895029  0.33485237  1
  Ni  Ni9  1  0.33500291  1.00112766  1.00090201  1
  Ni  Ni10  1  0.50207445  0.17036129  0.16842603  1
  Fe  Fe11  1  0.33422580  0.00330932  0.33562305  1
  Fe  Fe12  1  0.33474533  0.33474872  0.00195513  1
  Ni  Ni13  1  0.50174773  0.49966343  0.16874901  1
  Ni  Ni14  1  0.33596136  0.33600360  0.33457837  1
  Ni  Ni15  1  0.33362643  0.66826199  1.00157748  1
  Cr  Cr16  1  0.50209231  0.83554505  0.16903160  1
  Fe  Fe17  1  0.33402024  0.66672285  0.33555498  1
  Ni  Ni18  1  0.66867646  0.00358051  1.00116854  1
  Ni  Ni19  1  0.83507405  0.16840831  0.16875809  1
  Ni  Ni20  1  0.66938420  0.00257786  0.33571317  1
  Ni  Ni21  1  0.66838909  0.33452639  0.00256962  1
  Ni  Ni22  1  0.83540151  0.50162020  0.16908845  1
  Ni  Ni23  1  0.66738053  0.33517515  0.33491637  1
  Fe  Fe24  1  0.66982659  0.66805074  1.00136841  1
  Ni  Ni25  1  0.83736046  0.83550114  0.16870329  1
  Ni  Ni26  1  0.66917912  0.66777246  0.33597993  1
  Fe  Fe27  1  0.16787786  0.16927035  0.50212686  1
  Ni  Ni28  1  1.00134924  1.00122852  0.66892622  1
  Ni  Ni29  1  0.16895532  0.16812325  0.83416983  1
  Ni  Ni30  1  0.16802324  0.50201232  0.50102743  1
  Ni  Ni31  1  1.00134483  0.33583021  0.66831870  1
  Ni  Ni32  1  0.16783946  0.50132392  0.83579951  1
  Ni  Ni33  1  0.16707163  0.83542705  0.50085796  1
  Ni  Ni34  1  1.00111989  0.66847342  0.66859714  1
  Ni  Ni35  1  0.16783671  0.83607520  0.83633817  1
  Ni  Ni36  1  0.50232033  0.16899791  0.50193235  1
  Ni  Ni37  1  0.33586701  0.00296324  0.66846452  1
  Ni  Ni38  1  0.50163681  0.16819414  0.83516858  1
  Ni  Ni39  1  0.50228746  0.49993567  0.50076196  1
  Ni  Ni40  1  0.33592520  0.33415038  0.66942704  1
  Ni  Ni41  1  0.50238017  0.50087941  0.83602088  1
  Fe  Fe42  1  0.50354220  0.83589729  0.50146003  1
  Cr  Cr43  1  0.33425193  0.66831987  0.66841154  1
  Ni  Ni44  1  0.50232076  0.83645135  0.83516122  1
  Ni  Ni45  1  0.83404810  0.16804779  0.50178357  1
  Ni  Ni46  1  0.66831473  0.00273294  0.66864744  1
  Ni  Ni47  1  0.83493289  0.16819010  0.83498706  1
  Ni  Ni48  1  0.83522047  0.50202066  0.50199405  1
  Ni  Ni49  1  0.66825719  0.33438001  0.66804189  1
  Ni  Ni50  1  0.83531364  0.50200534  0.83444676  1
  Ni  Ni51  1  0.83612525  0.83546074  0.50183487  1
  Fe  Fe52  1  0.67059709  0.66824338  0.66822492  1
  Ni  Ni53  1  0.83538154  0.83533435  0.83499149  1
" 