5887,Ni83Fe10Cr5_9,-238.430386371231, 184.303853889666,Ni83Fe10Cr5,"# generated using pymatgen
 data_Cr4(FeNi9)5
_symmetry_space_group_name_H-M   'P 1'
_cell_length_a   7.44595533
_cell_length_b   7.44595533
_cell_length_c   10.53017101
_cell_angle_alpha   90.00000000
_cell_angle_beta   90.00000000
_cell_angle_gamma   90.00000000
_symmetry_Int_Tables_number   1
_chemical_formula_structural   Cr4(FeNi9)5
_chemical_formula_sum   'Cr4 Fe5 Ni45'
_cell_volume   583.81638118
_cell_formula_units_Z   1
loop_
 _symmetry_equiv_pos_site_id
 _symmetry_equiv_pos_as_xyz
  1  'x, y, z'
loop_
 _atom_site_type_symbol
 _atom_site_label
 _atom_site_symmetry_multiplicity
 _atom_site_fract_x
 _atom_site_fract_y
 _atom_site_fract_z
 _atom_site_occupancy
  Ni  Ni0  1  0.00155257  0.00201855  1.00110671  1
  Ni  Ni1  1  0.16668233  0.16767115  0.16794169  1
  Ni  Ni2  1  0.00215613  0.00152817  0.33522276  1
  Ni  Ni3  1  0.00260971  0.33473154  0.00185058  1
  Ni  Ni4  1  0.16803678  0.50117233  0.16828834  1
  Ni  Ni5  1  0.00300677  0.33411860  0.33388672  1
  Ni  Ni6  1  0.00142285  0.66738288  1.00075583  1
  Ni  Ni7  1  0.16929728  0.83540699  0.16782421  1
  Ni  Ni8  1  0.00180131  0.66854487  0.33421343  1
  Ni  Ni9  1  0.33512788  0.00186169  0.00145020  1
  Fe  Fe10  1  0.50010582  0.16882035  0.16813176  1
  Ni  Ni11  1  0.33406959  0.00335423  0.33360722  1
  Ni  Ni12  1  0.33383210  0.33485357  1.00069795  1
  Ni  Ni13  1  0.50167069  0.50250712  0.16847107  1
  Ni  Ni14  1  0.33433635  0.33420750  0.33567923  1
  Ni  Ni15  1  0.33532051  0.66767746  0.00176685  1
  Ni  Ni16  1  0.50101107  0.83470228  0.16784939  1
  Fe  Fe17  1  0.33387207  0.66784259  0.33360620  1
  Ni  Ni18  1  0.66754568  1.00048782  0.00150689  1
  Ni  Ni19  1  0.83521294  0.16848716  0.16856572  1
  Ni  Ni20  1  0.66809469  0.00184238  0.33417363  1
  Fe  Fe21  1  0.66794319  0.33465000  1.00135922  1
  Ni  Ni22  1  0.83449238  0.49987890  0.16769644  1
  Ni  Ni23  1  0.66664408  0.33415862  0.33371962  1
  Ni  Ni24  1  0.66763412  0.66857391  1.00116891  1
  Fe  Fe25  1  0.83600270  0.83423974  0.16784302  1
  Ni  Ni26  1  0.66839073  0.66820406  0.33324881  1
  Ni  Ni27  1  0.16865649  0.16660717  0.50044906  1
  Ni  Ni28  1  0.00193952  1.00044194  0.66780239  1
  Ni  Ni29  1  0.16831367  0.16671169  0.83591091  1
  Ni  Ni30  1  0.17032242  0.50250264  0.50009246  1
  Cr  Cr31  1  0.00229684  0.33399204  0.66852559  1
  Ni  Ni32  1  0.16893581  0.50251311  0.83586926  1
  Ni  Ni33  1  0.16716308  0.83520557  0.50143018  1
  Ni  Ni34  1  0.00407069  0.66989110  0.66917020  1
  Ni  Ni35  1  0.16864164  0.83502190  0.83496890  1
  Ni  Ni36  1  0.50165582  0.16904584  0.50094576  1
  Ni  Ni37  1  0.33414337  0.00223675  0.66927089  1
  Ni  Ni38  1  0.50165194  0.16755460  0.83533373  1
  Ni  Ni39  1  0.49928155  0.49926824  0.50061737  1
  Fe  Fe40  1  0.33532076  0.33413004  0.66833790  1
  Ni  Ni41  1  0.50047557  0.50091416  0.83532609  1
  Cr  Cr42  1  0.50020543  0.83543263  0.50085059  1
  Ni  Ni43  1  0.33275826  0.66739152  0.66842367  1
  Ni  Ni44  1  0.49998617  0.83560077  0.83570146  1
  Ni  Ni45  1  0.83394655  0.16612914  0.50054525  1
  Ni  Ni46  1  0.66831132  0.00385041  0.66840904  1
  Ni  Ni47  1  0.83429045  0.16722916  0.83523300  1
  Cr  Cr48  1  0.83437523  0.50063060  0.49960281  1
  Ni  Ni49  1  0.66571792  0.33245672  0.66914599  1
  Ni  Ni50  1  0.83486923  0.50067684  0.83700469  1
  Ni  Ni51  1  0.83699229  0.83748125  0.50012612  1
  Cr  Cr52  1  0.66859239  0.66831793  0.67005096  1
  Ni  Ni53  1  0.83569661  0.83632513  0.83570670  1
" 