4277,Ni83Fe2Cr13_10,-234.297340484933, 163.0958743224,Ni83Fe2Cr13,"# generated using pymatgen
 data_Cr8FeNi45
_symmetry_space_group_name_H-M   'P 1'
_cell_length_a   7.46731854
_cell_length_b   7.46731854
_cell_length_c   10.56038315
_cell_angle_alpha   90.00000000
_cell_angle_beta   90.00000000
_cell_angle_gamma   90.00000000
_symmetry_Int_Tables_number   1
_chemical_formula_structural   Cr8FeNi45
_chemical_formula_sum   'Cr8 Fe1 Ni45'
_cell_volume   588.85590079
_cell_formula_units_Z   1
loop_
 _symmetry_equiv_pos_site_id
 _symmetry_equiv_pos_as_xyz
  1  'x, y, z'
loop_
 _atom_site_type_symbol
 _atom_site_label
 _atom_site_symmetry_multiplicity
 _atom_site_fract_x
 _atom_site_fract_y
 _atom_site_fract_z
 _atom_site_occupancy
  Ni  Ni0  1  0.99911855  0.00103737  0.99906040  1
  Ni  Ni1  1  0.16449133  0.16907067  0.16658817  1
  Ni  Ni2  1  0.99891050  0.00114570  0.33405691  1
  Ni  Ni3  1  0.99949898  0.33327109  0.00003185  1
  Ni  Ni4  1  0.16542963  0.49884145  0.16537026  1
  Ni  Ni5  1  0.99943323  0.33316708  0.33336022  1
  Ni  Ni6  1  0.00100641  0.66552717  0.99930485  1
  Ni  Ni7  1  0.16356480  0.83208054  0.16544633  1
  Ni  Ni8  1  0.99877908  0.66560473  0.33409717  1
  Cr  Cr9  1  0.33004000  0.00125307  0.00189719  1
  Ni  Ni10  1  0.50209358  0.17063053  0.16637928  1
  Cr  Cr11  1  0.33107107  0.00140752  0.33304724  1
  Ni  Ni12  1  0.33255158  0.33647334  0.00126218  1
  Ni  Ni13  1  0.50078116  0.49684254  0.16509245  1
  Ni  Ni14  1  0.33247376  0.33425603  0.33187140  1
  Ni  Ni15  1  0.33145782  0.66285934  0.00005511  1
  Cr  Cr16  1  0.50184663  0.83229114  0.16586334  1
  Cr  Cr17  1  0.33244505  0.66426466  0.33412737  1
  Ni  Ni18  1  0.67066486  0.00228943  0.00023369  1
  Ni  Ni19  1  0.83339802  0.16841417  0.16662313  1
  Ni  Ni20  1  0.66979761  0.00124415  0.33416977  1
  Ni  Ni21  1  0.66787026  0.33459241  0.00118497  1
  Ni  Ni22  1  0.83372850  0.49798285  0.16688699  1
  Ni  Ni23  1  0.66800777  0.33450473  0.33191183  1
  Ni  Ni24  1  0.66757652  0.66298495  0.99901822  1
  Cr  Cr25  1  0.83532426  0.83254407  0.16624012  1
  Ni  Ni26  1  0.66865332  0.66420876  0.33559836  1
  Ni  Ni27  1  0.16361002  0.16766402  0.50126422  1
  Ni  Ni28  1  0.00031982  0.00029095  0.66676313  1
  Ni  Ni29  1  0.16307849  0.16748809  0.83209667  1
  Ni  Ni30  1  0.16524152  0.49924186  0.50101468  1
  Ni  Ni31  1  0.99967319  0.33306822  0.66656715  1
  Ni  Ni32  1  0.16585569  0.50044193  0.83352674  1
  Ni  Ni33  1  0.16437647  0.83303589  0.50172533  1
  Ni  Ni34  1  0.00015938  0.66654694  0.66649516  1
  Ni  Ni35  1  0.16422609  0.83202066  0.83283167  1
  Cr  Cr36  1  0.50069245  0.16778374  0.50143581  1
  Ni  Ni37  1  0.33008992  0.99864112  0.66529315  1
  Cr  Cr38  1  0.50091406  0.16928603  0.83211371  1
  Ni  Ni39  1  0.50098742  0.50122196  0.50132683  1
  Ni  Ni40  1  0.33128357  0.33553198  0.66677701  1
  Ni  Ni41  1  0.50027560  0.50054117  0.83353095  1
  Ni  Ni42  1  0.50222658  0.83161097  0.50201370  1
  Ni  Ni43  1  0.33263000  0.66584220  0.66581987  1
  Cr  Cr44  1  0.50039936  0.83093926  0.83232036  1
  Ni  Ni45  1  0.83522272  0.16648368  0.49976994  1
  Ni  Ni46  1  0.66966385  0.99911919  0.66552317  1
  Ni  Ni47  1  0.83534305  0.16730771  0.83352376  1
  Ni  Ni48  1  0.83374626  0.50032814  0.49951477  1
  Ni  Ni49  1  0.66886210  0.33554935  0.66683858  1
  Ni  Ni50  1  0.83384899  0.49928743  0.83351537  1
  Ni  Ni51  1  0.83337130  0.83312298  0.50042214  1
  Ni  Ni52  1  0.66718332  0.66520770  0.66531563  1
  Fe  Fe53  1  0.83572483  0.83262771  0.83290209  1
" 