7025,Ni83Fe10Cr5_1,-238.629912938222, 186.338151777378,Ni83Fe10Cr5,"# generated using pymatgen
 data_Cr4(FeNi9)5
_symmetry_space_group_name_H-M   'P 1'
_cell_length_a   7.44679236
_cell_length_b   7.44679236
_cell_length_c   10.53135476
_cell_angle_alpha   90.00000000
_cell_angle_beta   90.00000000
_cell_angle_gamma   90.00000000
_symmetry_Int_Tables_number   1
_chemical_formula_structural   Cr4(FeNi9)5
_chemical_formula_sum   'Cr4 Fe5 Ni45'
_cell_volume   584.01329267
_cell_formula_units_Z   1
loop_
 _symmetry_equiv_pos_site_id
 _symmetry_equiv_pos_as_xyz
  1  'x, y, z'
loop_
 _atom_site_type_symbol
 _atom_site_label
 _atom_site_symmetry_multiplicity
 _atom_site_fract_x
 _atom_site_fract_y
 _atom_site_fract_z
 _atom_site_occupancy
  Ni  Ni0  1  1.00097455  0.00211347  0.00255697  1
  Ni  Ni1  1  0.16887071  0.16647010  0.16759937  1
  Ni  Ni2  1  1.00119907  1.00122437  0.33390480  1
  Ni  Ni3  1  0.00289757  0.33484872  1.00081192  1
  Ni  Ni4  1  0.16824476  0.50312307  0.16725330  1
  Cr  Cr5  1  0.00190557  0.33436693  0.33422848  1
  Ni  Ni6  1  0.99937788  0.66707469  0.00184143  1
  Ni  Ni7  1  0.16760471  0.83477097  0.16812054  1
  Ni  Ni8  1  1.00097455  0.66800188  0.33478175  1
  Ni  Ni9  1  0.33580180  0.00327949  1.00111285  1
  Ni  Ni10  1  0.50178320  0.16764201  0.16838301  1
  Ni  Ni11  1  0.33467663  1.00023761  0.33382057  1
  Ni  Ni12  1  0.33418731  0.33442566  0.00203951  1
  Ni  Ni13  1  0.50207997  0.50148585  0.16846512  1
  Fe  Fe14  1  0.33500131  0.33576811  0.33371250  1
  Fe  Fe15  1  0.33449676  0.66873494  0.00176249  1
  Ni  Ni16  1  0.50129361  0.83499309  0.16792892  1
  Ni  Ni17  1  0.33586631  0.66797487  0.33338552  1
  Ni  Ni18  1  0.66734878  0.99964540  0.00143781  1
  Ni  Ni19  1  0.83356382  0.16700490  0.16683192  1
  Ni  Ni20  1  0.66812626  0.99963041  0.33363606  1
  Fe  Fe21  1  0.66844538  0.33391582  1.00091148  1
  Ni  Ni22  1  0.83381150  0.50255113  0.16692591  1
  Fe  Fe23  1  0.66847367  0.33559027  0.33430652  1
  Ni  Ni24  1  0.66778602  0.66857631  0.00137219  1
  Ni  Ni25  1  0.83498869  0.83430354  0.16923255  1
  Ni  Ni26  1  0.66708492  0.66822500  0.33514017  1
  Ni  Ni27  1  0.16786267  0.16722681  0.50154261  1
  Cr  Cr28  1  0.00157805  0.00166660  0.66783397  1
  Ni  Ni29  1  0.16904141  0.16883355  0.83473040  1
  Ni  Ni30  1  0.16750308  0.50253896  0.50160995  1
  Ni  Ni31  1  0.00155321  0.33606650  0.66856168  1
  Ni  Ni32  1  0.16650502  0.50061867  0.83510903  1
  Ni  Ni33  1  0.16876326  0.83435329  0.49905454  1
  Ni  Ni34  1  0.99944510  0.66553144  0.66746207  1
  Ni  Ni35  1  0.16717965  0.83474421  0.83705611  1
  Cr  Cr36  1  0.50178964  0.16741207  0.50182635  1
  Ni  Ni37  1  0.33586721  0.00227833  0.66913617  1
  Ni  Ni38  1  0.50132209  0.16801306  0.83394581  1
  Ni  Ni39  1  0.50270792  0.50262323  0.50035314  1
  Ni  Ni40  1  0.33359117  0.33455910  0.66764122  1
  Ni  Ni41  1  0.50260288  0.50012826  0.83535358  1
  Ni  Ni42  1  0.50122278  0.83421917  0.50090013  1
  Cr  Cr43  1  0.33561285  0.66842401  0.66968400  1
  Ni  Ni44  1  0.50257785  0.83594514  0.83528893  1
  Ni  Ni45  1  0.83420912  0.16875035  0.50164323  1
  Ni  Ni46  1  0.66701631  1.00010745  0.66899810  1
  Ni  Ni47  1  0.83376862  0.16881550  0.83555836  1
  Ni  Ni48  1  0.83397376  0.50180508  0.50288828  1
  Ni  Ni49  1  0.66885930  0.33597985  0.66918892  1
  Ni  Ni50  1  0.83497056  0.50174308  0.83425317  1
  Fe  Fe51  1  0.83400822  0.83379671  0.50020946  1
  Ni  Ni52  1  0.66885743  0.66796373  0.66752080  1
  Ni  Ni53  1  0.83418544  0.83331713  0.83458621  1
" 