7372,Ni83Fe10Cr5_8,-238.577587191893, 185.566116049591,Ni83Fe10Cr5,"# generated using pymatgen
 data_Cr4(FeNi9)5
_symmetry_space_group_name_H-M   'P 1'
_cell_length_a   7.44583645
_cell_length_b   7.44583645
_cell_length_c   10.53000289
_cell_angle_alpha   90.00000000
_cell_angle_beta   90.00000000
_cell_angle_gamma   90.00000000
_symmetry_Int_Tables_number   1
_chemical_formula_structural   Cr4(FeNi9)5
_chemical_formula_sum   'Cr4 Fe5 Ni45'
_cell_volume   583.78841966
_cell_formula_units_Z   1
loop_
 _symmetry_equiv_pos_site_id
 _symmetry_equiv_pos_as_xyz
  1  'x, y, z'
loop_
 _atom_site_type_symbol
 _atom_site_label
 _atom_site_symmetry_multiplicity
 _atom_site_fract_x
 _atom_site_fract_y
 _atom_site_fract_z
 _atom_site_occupancy
  Ni  Ni0  1  0.00178457  0.99867252  1.00075375  1
  Ni  Ni1  1  0.16812514  0.16644616  0.17001169  1
  Ni  Ni2  1  1.00059404  1.00056453  0.33485186  1
  Fe  Fe3  1  0.00184149  0.33557001  1.00051291  1
  Ni  Ni4  1  0.16702049  0.50280419  0.16880575  1
  Ni  Ni5  1  0.00175071  0.33641708  0.33477951  1
  Ni  Ni6  1  1.00079091  0.66895788  0.00149055  1
  Ni  Ni7  1  0.16810127  0.83493662  0.16686763  1
  Ni  Ni8  1  1.00107109  0.66737932  0.33418509  1
  Ni  Ni9  1  0.33459673  1.00067979  0.00189503  1
  Ni  Ni10  1  0.50120674  0.16696101  0.16876371  1
  Ni  Ni11  1  0.33609892  0.00193900  0.33313036  1
  Cr  Cr12  1  0.33649500  0.33472514  0.00252117  1
  Ni  Ni13  1  0.50247699  0.50295482  0.16891947  1
  Ni  Ni14  1  0.33433048  0.33448352  0.33444819  1
  Ni  Ni15  1  0.33426759  0.66890554  1.00127231  1
  Ni  Ni16  1  0.50098275  0.83443533  0.16763025  1
  Ni  Ni17  1  0.33295892  0.66790576  0.33214365  1
  Ni  Ni18  1  0.66768512  1.00037862  0.99998515  1
  Cr  Cr19  1  0.83533799  0.16823065  0.16542881  1
  Ni  Ni20  1  0.66758079  1.00141489  0.33581148  1
  Ni  Ni21  1  0.66768246  0.33582275  0.99993493  1
  Ni  Ni22  1  0.83472015  0.50282134  0.16760925  1
  Ni  Ni23  1  0.66810160  0.33365066  0.33438213  1
  Ni  Ni24  1  0.66894746  0.66820228  0.00248624  1
  Ni  Ni25  1  0.83499330  0.83347427  0.16894185  1
  Fe  Fe26  1  0.66851077  0.66884799  0.33413908  1
  Ni  Ni27  1  0.16710809  0.16880461  0.50067029  1
  Ni  Ni28  1  0.99999554  0.00201449  0.66841121  1
  Ni  Ni29  1  0.16680068  0.16618322  0.83355700  1
  Ni  Ni30  1  0.16602366  0.50061712  0.50227503  1
  Ni  Ni31  1  1.00122984  0.33517426  0.66855557  1
  Fe  Fe32  1  0.16780755  0.50157250  0.83391644  1
  Cr  Cr33  1  0.17041137  0.83478955  0.50249349  1
  Ni  Ni34  1  1.00007641  0.66712796  0.66882177  1
  Fe  Fe35  1  0.16767553  0.83539825  0.83498810  1
  Ni  Ni36  1  0.50154371  0.16629064  0.50203533  1
  Ni  Ni37  1  0.33578960  0.00263713  0.66919440  1
  Ni  Ni38  1  0.50153435  0.16707546  0.83352776  1
  Cr  Cr39  1  0.50093089  0.50275303  0.50197503  1
  Ni  Ni40  1  0.33394760  0.33378406  0.66787679  1
  Ni  Ni41  1  0.50326872  0.50347692  0.83353985  1
  Ni  Ni42  1  0.50173045  0.83596081  0.50186829  1
  Ni  Ni43  1  0.33442312  0.66786418  0.67096583  1
  Ni  Ni44  1  0.50137219  0.83380828  0.83484184  1
  Ni  Ni45  1  0.83542011  0.16945016  0.50245114  1
  Ni  Ni46  1  0.66835622  0.00153624  0.66835549  1
  Ni  Ni47  1  0.83593043  0.16809658  0.83508250  1
  Ni  Ni48  1  0.83612277  0.50040314  0.50141819  1
  Ni  Ni49  1  0.66887575  0.33384875  0.66950126  1
  Ni  Ni50  1  0.83423625  0.50197632  0.83519853  1
  Fe  Fe51  1  0.83434672  0.83528090  0.50175411  1
  Ni  Ni52  1  0.66958889  0.66913859  0.66796102  1
  Ni  Ni53  1  0.83431576  0.83427086  0.83397755  1
" 