6901,Ni83Fe2Cr13_8,-234.314360054364, 165.245662505322,Ni83Fe2Cr13,"# generated using pymatgen
 data_Cr8FeNi45
_symmetry_space_group_name_H-M   'P 1'
_cell_length_a   7.46612036
_cell_length_b   7.46612036
_cell_length_c   10.55868867
_cell_angle_alpha   90.00000000
_cell_angle_beta   90.00000000
_cell_angle_gamma   90.00000000
_symmetry_Int_Tables_number   1
_chemical_formula_structural   Cr8FeNi45
_chemical_formula_sum   'Cr8 Fe1 Ni45'
_cell_volume   588.57248845
_cell_formula_units_Z   1
loop_
 _symmetry_equiv_pos_site_id
 _symmetry_equiv_pos_as_xyz
  1  'x, y, z'
loop_
 _atom_site_type_symbol
 _atom_site_label
 _atom_site_symmetry_multiplicity
 _atom_site_fract_x
 _atom_site_fract_y
 _atom_site_fract_z
 _atom_site_occupancy
  Ni  Ni0  1  0.99854290  0.99980910  0.99924857  1
  Ni  Ni1  1  0.16506096  0.16806122  0.16552998  1
  Cr  Cr2  1  0.99929122  0.99890604  0.33286709  1
  Ni  Ni3  1  0.99899171  0.33276366  0.00163190  1
  Ni  Ni4  1  0.16490514  0.50088983  0.16631498  1
  Ni  Ni5  1  0.99737592  0.33598827  0.33215497  1
  Ni  Ni6  1  0.99895717  0.66766436  0.00084529  1
  Ni  Ni7  1  0.16599392  0.83114115  0.16671518  1
  Ni  Ni8  1  0.99977675  0.66544991  0.33359720  1
  Cr  Cr9  1  0.33294621  0.00047840  0.00201866  1
  Ni  Ni10  1  0.50268640  0.16587353  0.16694810  1
  Ni  Ni11  1  0.33582435  0.99745463  0.33231540  1
  Ni  Ni12  1  0.33369455  0.33314388  0.99944245  1
  Cr  Cr13  1  0.50074865  0.50142957  0.16492666  1
  Cr  Cr14  1  0.33363415  0.33318345  0.33374183  1
  Ni  Ni15  1  0.33266550  0.66614295  0.00101000  1
  Ni  Ni16  1  0.50184299  0.83348158  0.16811148  1
  Ni  Ni17  1  0.33283333  0.66903325  0.33415293  1
  Ni  Ni18  1  0.66911344  0.00075633  0.00123127  1
  Ni  Ni19  1  0.83263197  0.16678301  0.16617918  1
  Ni  Ni20  1  0.66534238  0.99981864  0.33320045  1
  Ni  Ni21  1  0.66755959  0.33255913  0.99873658  1
  Fe  Fe22  1  0.83417230  0.50037411  0.16669215  1
  Ni  Ni23  1  0.66891861  0.33275152  0.33466159  1
  Ni  Ni24  1  0.66857803  0.66678238  0.99979601  1
  Ni  Ni25  1  0.83250144  0.83350860  0.16558466  1
  Ni  Ni26  1  0.66759547  0.66767004  0.33422956  1
  Cr  Cr27  1  0.16658743  0.16571462  0.50119379  1
  Ni  Ni28  1  0.99909241  0.99748744  0.66832448  1
  Ni  Ni29  1  0.16620044  0.16563540  0.83380156  1
  Ni  Ni30  1  0.16669359  0.50327789  0.49950951  1
  Cr  Cr31  1  0.99708933  0.33431169  0.66594701  1
  Cr  Cr32  1  0.16808932  0.50120808  0.83404983  1
  Ni  Ni33  1  0.16730004  0.83069886  0.50107179  1
  Ni  Ni34  1  0.99871890  0.66911462  0.66566046  1
  Ni  Ni35  1  0.16416808  0.83390623  0.83246141  1
  Ni  Ni36  1  0.50289033  0.16582497  0.50064661  1
  Ni  Ni37  1  0.33370791  0.99981104  0.66636405  1
  Ni  Ni38  1  0.50142655  0.16888188  0.83270387  1
  Ni  Ni39  1  0.50110045  0.50114284  0.50169223  1
  Ni  Ni40  1  0.33672902  0.33334951  0.66721436  1
  Ni  Ni41  1  0.50179262  0.49859446  0.83322414  1
  Ni  Ni42  1  0.50060221  0.83318041  0.49902173  1
  Ni  Ni43  1  0.33370252  0.66691401  0.66485145  1
  Cr  Cr44  1  0.50162674  0.83175220  0.83325427  1
  Ni  Ni45  1  0.83004380  0.16649706  0.49988333  1
  Ni  Ni46  1  0.66745518  0.00067891  0.66576505  1
  Ni  Ni47  1  0.83258812  0.16570977  0.83406743  1
  Ni  Ni48  1  0.83235935  0.50108031  0.49817436  1
  Ni  Ni49  1  0.66515787  0.33379514  0.66669110  1
  Ni  Ni50  1  0.83122765  0.50087899  0.83505085  1
  Ni  Ni51  1  0.83232278  0.83271478  0.50130067  1
  Ni  Ni52  1  0.66777659  0.66569472  0.66617664  1
  Ni  Ni53  1  0.83471899  0.83359884  0.83336714  1
" 