191,Ni83Fe10Cr5_11,-238.517385336582, 185.278817179676,Ni83Fe10Cr5,"# generated using pymatgen
 data_Cr4(FeNi9)5
_symmetry_space_group_name_H-M   'P 1'
_cell_length_a   7.44679802
_cell_length_b   7.44679802
_cell_length_c   10.53136276
_cell_angle_alpha   90.00000000
_cell_angle_beta   90.00000000
_cell_angle_gamma   90.00000000
_symmetry_Int_Tables_number   1
_chemical_formula_structural   Cr4(FeNi9)5
_chemical_formula_sum   'Cr4 Fe5 Ni45'
_cell_volume   584.01462437
_cell_formula_units_Z   1
loop_
 _symmetry_equiv_pos_site_id
 _symmetry_equiv_pos_as_xyz
  1  'x, y, z'
loop_
 _atom_site_type_symbol
 _atom_site_label
 _atom_site_symmetry_multiplicity
 _atom_site_fract_x
 _atom_site_fract_y
 _atom_site_fract_z
 _atom_site_occupancy
  Ni  Ni0  1  1.00087339  0.00287582  0.00183149  1
  Ni  Ni1  1  0.16886665  0.16947297  0.16747080  1
  Cr  Cr2  1  0.00262017  0.00153092  0.33544348  1
  Ni  Ni3  1  1.00109419  0.33318973  0.00141106  1
  Ni  Ni4  1  0.16840155  0.50117135  0.16775240  1
  Ni  Ni5  1  1.00091086  0.33638502  0.33432794  1
  Fe  Fe6  1  0.00154175  0.66564964  0.00218664  1
  Ni  Ni7  1  0.16888791  0.83316047  0.16685501  1
  Ni  Ni8  1  1.00080075  0.66663812  0.33341600  1
  Ni  Ni9  1  0.33380051  0.00196896  0.00263499  1
  Ni  Ni10  1  0.50067348  0.16967469  0.16690638  1
  Ni  Ni11  1  0.33446594  1.00100080  0.33420243  1
  Ni  Ni12  1  0.33446343  0.33495918  1.00088795  1
  Ni  Ni13  1  0.50114658  0.50093092  0.16814713  1
  Ni  Ni14  1  0.33484118  0.33529113  0.33423508  1
  Ni  Ni15  1  0.33756815  0.66705873  0.00197028  1
  Ni  Ni16  1  0.50040948  0.83375232  0.16721599  1
  Ni  Ni17  1  0.33529180  0.66786898  0.33453734  1
  Fe  Fe18  1  0.66708248  0.00239545  1.00105259  1
  Ni  Ni19  1  0.83417919  0.17012004  0.16619207  1
  Cr  Cr20  1  0.66732781  1.00065821  0.33355962  1
  Ni  Ni21  1  0.66856398  0.33680881  0.00179545  1
  Ni  Ni22  1  0.83477428  0.50086527  0.16812493  1
  Ni  Ni23  1  0.66829149  0.33714184  0.33418546  1
  Ni  Ni24  1  0.66780556  0.66766165  0.00162207  1
  Ni  Ni25  1  0.83474981  0.83286713  0.16551365  1
  Ni  Ni26  1  0.66798383  0.66589085  0.33505428  1
  Fe  Fe27  1  0.16821266  0.17058557  0.50119795  1
  Ni  Ni28  1  0.99902368  0.00234563  0.66707130  1
  Ni  Ni29  1  0.16714036  0.17097398  0.83464342  1
  Ni  Ni30  1  0.16786664  0.50221887  0.50143556  1
  Ni  Ni31  1  1.00116943  0.33486902  0.66822879  1
  Ni  Ni32  1  0.16823410  0.49959101  0.83485483  1
  Ni  Ni33  1  0.16780702  0.83053511  0.50165814  1
  Ni  Ni34  1  1.00006596  0.66681755  0.66834168  1
  Cr  Cr35  1  0.16718820  0.83244627  0.83547293  1
  Ni  Ni36  1  0.50289153  0.17024973  0.50120671  1
  Cr  Cr37  1  0.33513607  0.00228390  0.66641071  1
  Ni  Ni38  1  0.50273833  0.16925592  0.83581214  1
  Ni  Ni39  1  0.50078297  0.50040053  0.50191628  1
  Ni  Ni40  1  0.33484643  0.33675790  0.66901117  1
  Fe  Fe41  1  0.50162393  0.50124521  0.83501239  1
  Ni  Ni42  1  0.50131192  0.83340951  0.50155591  1
  Ni  Ni43  1  0.33612083  0.66551948  0.66788111  1
  Ni  Ni44  1  0.50369964  0.83439821  0.83519676  1
  Ni  Ni45  1  0.83289249  0.17033042  0.50353886  1
  Ni  Ni46  1  0.66945608  1.00111057  0.66912155  1
  Ni  Ni47  1  0.83389367  0.16819661  0.83453254  1
  Ni  Ni48  1  0.83539940  0.50078374  0.50154196  1
  Ni  Ni49  1  0.66811466  0.33550786  0.66841636  1
  Fe  Fe50  1  0.83469866  0.50086289  0.83465107  1
  Ni  Ni51  1  0.83495563  0.83302530  0.50388487  1
  Ni  Ni52  1  0.66789013  0.66757517  0.66770430  1
  Ni  Ni53  1  0.83284266  0.83513440  0.83458756  1
" 