5829,Ni83Fe2Cr13_2,-234.215314605808, 164.594310707244,Ni83Fe2Cr13,"# generated using pymatgen
 data_Cr8FeNi45
_symmetry_space_group_name_H-M   'P 1'
_cell_length_a   7.46798440
_cell_length_b   7.46798440
_cell_length_c   10.56132483
_cell_angle_alpha   90.00000000
_cell_angle_beta   90.00000000
_cell_angle_gamma   90.00000000
_symmetry_Int_Tables_number   1
_chemical_formula_structural   Cr8FeNi45
_chemical_formula_sum   'Cr8 Fe1 Ni45'
_cell_volume   589.01344028
_cell_formula_units_Z   1
loop_
 _symmetry_equiv_pos_site_id
 _symmetry_equiv_pos_as_xyz
  1  'x, y, z'
loop_
 _atom_site_type_symbol
 _atom_site_label
 _atom_site_symmetry_multiplicity
 _atom_site_fract_x
 _atom_site_fract_y
 _atom_site_fract_z
 _atom_site_occupancy
  Ni  Ni0  1  0.99870542  0.99989357  0.99873625  1
  Cr  Cr1  1  0.16550656  0.16692875  0.16701843  1
  Ni  Ni2  1  0.99848529  0.00181742  0.33267640  1
  Ni  Ni3  1  0.99830651  0.33370807  0.99892594  1
  Ni  Ni4  1  0.16429283  0.49927516  0.16633570  1
  Ni  Ni5  1  0.99832065  0.33395127  0.33458083  1
  Ni  Ni6  1  0.99849029  0.66615211  0.99968598  1
  Ni  Ni7  1  0.16354863  0.83373264  0.16654753  1
  Ni  Ni8  1  0.99857168  0.66400312  0.33123155  1
  Ni  Ni9  1  0.33325418  0.99933544  0.99801231  1
  Cr  Cr10  1  0.50096427  0.16804892  0.16524357  1
  Ni  Ni11  1  0.33337460  0.99944255  0.33307150  1
  Ni  Ni12  1  0.33188784  0.33305453  0.99824204  1
  Ni  Ni13  1  0.50214049  0.49928778  0.16670920  1
  Ni  Ni14  1  0.33215750  0.33479213  0.33495844  1
  Cr  Cr15  1  0.33221778  0.66809534  0.00188012  1
  Ni  Ni16  1  0.50264733  0.83403513  0.16695241  1
  Cr  Cr17  1  0.33424480  0.66611138  0.33169338  1
  Ni  Ni18  1  0.66787760  0.99946309  0.99852274  1
  Ni  Ni19  1  0.83325404  0.16650296  0.16689952  1
  Ni  Ni20  1  0.66788677  0.99954822  0.33266530  1
  Ni  Ni21  1  0.66954674  0.33290294  -0.00003653  1
  Ni  Ni22  1  0.83323196  0.50052039  0.16630991  1
  Ni  Ni23  1  0.66918753  0.33479754  0.33330117  1
  Ni  Ni24  1  0.66875820  0.66751615  0.00094356  1
  Ni  Ni25  1  0.83368808  0.83276193  0.16654562  1
  Ni  Ni26  1  0.66710730  0.66546635  0.33275025  1
  Ni  Ni27  1  0.16516367  0.16824558  0.49979959  1
  Ni  Ni28  1  0.00002921  0.00308767  0.66845967  1
  Ni  Ni29  1  0.16650157  0.16645714  0.83316295  1
  Ni  Ni30  1  0.16533543  0.49772548  0.50106915  1
  Ni  Ni31  1  0.99878314  0.33286172  0.66634595  1
  Ni  Ni32  1  0.16404503  0.49911699  0.83247962  1
  Cr  Cr33  1  0.16492745  0.83440443  0.50034595  1
  Ni  Ni34  1  0.00047729  0.66383720  0.66891680  1
  Ni  Ni35  1  0.16493215  0.83401360  0.83262333  1
  Cr  Cr36  1  0.50015663  0.16619188  0.49963165  1
  Ni  Ni37  1  0.33322241  0.99883702  0.66848389  1
  Ni  Ni38  1  0.50005634  0.16511324  0.83396891  1
  Ni  Ni39  1  0.50123508  0.50008426  0.50062960  1
  Fe  Fe40  1  0.33186453  0.33292161  0.66681038  1
  Cr  Cr41  1  0.50213752  0.49852561  0.83295786  1
  Ni  Ni42  1  0.50088830  0.83238262  0.50092485  1
  Ni  Ni43  1  0.33322253  0.66732289  0.66628167  1
  Ni  Ni44  1  0.50121702  0.83529195  0.83191939  1
  Ni  Ni45  1  0.83473421  0.16803822  0.49943975  1
  Ni  Ni46  1  0.66648255  0.00094962  0.66850485  1
  Ni  Ni47  1  0.83321712  0.16665855  0.83345907  1
  Ni  Ni48  1  0.83322340  0.49890710  0.50020873  1
  Ni  Ni49  1  0.67015635  0.33282126  0.66645680  1
  Ni  Ni50  1  0.83484426  0.50039482  0.83329847  1
  Cr  Cr51  1  0.83244444  0.83246130  0.50074994  1
  Ni  Ni52  1  0.66598262  0.66599542  0.66637324  1
  Ni  Ni53  1  0.83367793  0.83282101  0.83290789  1
" 