2670,Ni83Fe2Cr13_6,-234.200380195782, 163.035330249331,Ni83Fe2Cr13,"# generated using pymatgen
 data_Cr8FeNi45
_symmetry_space_group_name_H-M   'P 1'
_cell_length_a   7.46693018
_cell_length_b   7.46693018
_cell_length_c   10.55983394
_cell_angle_alpha   90.00000000
_cell_angle_beta   90.00000000
_cell_angle_gamma   90.00000000
_symmetry_Int_Tables_number   1
_chemical_formula_structural   Cr8FeNi45
_chemical_formula_sum   'Cr8 Fe1 Ni45'
_cell_volume   588.76403079
_cell_formula_units_Z   1
loop_
 _symmetry_equiv_pos_site_id
 _symmetry_equiv_pos_as_xyz
  1  'x, y, z'
loop_
 _atom_site_type_symbol
 _atom_site_label
 _atom_site_symmetry_multiplicity
 _atom_site_fract_x
 _atom_site_fract_y
 _atom_site_fract_z
 _atom_site_occupancy
  Cr  Cr0  1  0.99982720  0.99871200  0.00013971  1
  Ni  Ni1  1  0.16504353  0.16668890  0.16857969  1
  Ni  Ni2  1  0.00087741  0.00049620  0.33290705  1
  Ni  Ni3  1  0.99718754  0.33591375  0.00087005  1
  Ni  Ni4  1  0.16560895  0.50089918  0.16758767  1
  Ni  Ni5  1  0.00139220  0.33343134  0.33343254  1
  Ni  Ni6  1  0.00020333  0.66546797  0.99996575  1
  Ni  Ni7  1  0.16730280  0.83243036  0.16740145  1
  Ni  Ni8  1  0.00260590  0.66602089  0.33259728  1
  Ni  Ni9  1  0.33503106  0.99612835  0.99955757  1
  Cr  Cr10  1  0.49927989  0.16513214  0.16624446  1
  Ni  Ni11  1  0.33231312  0.99873719  0.33441908  1
  Cr  Cr12  1  0.33286811  0.33537018  0.99954142  1
  Ni  Ni13  1  0.49905518  0.50255245  0.16551840  1
  Ni  Ni14  1  0.33022469  0.33359819  0.33386499  1
  Ni  Ni15  1  0.33321473  0.66823454  0.00018652  1
  Ni  Ni16  1  0.49937002  0.83257376  0.16612130  1
  Ni  Ni17  1  0.33078410  0.66777566  0.33241087  1
  Ni  Ni18  1  0.66644591  0.99904231  0.99944720  1
  Ni  Ni19  1  0.83497230  0.16654369  0.16657743  1
  Ni  Ni20  1  0.66673708  0.00004708  0.33333761  1
  Ni  Ni21  1  0.66891132  0.33430033  0.99902903  1
  Ni  Ni22  1  0.83528762  0.50050178  0.16501228  1
  Cr  Cr23  1  0.66849947  0.33236214  0.33339594  1
  Ni  Ni24  1  0.66665456  0.66673210  0.99953346  1
  Ni  Ni25  1  0.83344482  0.83308603  0.16660655  1
  Cr  Cr26  1  0.66663636  0.66777220  0.33226720  1
  Ni  Ni27  1  0.16663145  0.16669388  0.49986188  1
  Ni  Ni28  1  0.99969423  0.99946168  0.66664104  1
  Cr  Cr29  1  0.16669634  0.16677912  0.83186456  1
  Ni  Ni30  1  0.16515107  0.50007070  0.49993296  1
  Ni  Ni31  1  0.99873712  0.33451624  0.66580423  1
  Ni  Ni32  1  0.16572791  0.50236316  0.83256840  1
  Ni  Ni33  1  0.16785960  0.83323259  0.50014080  1
  Ni  Ni34  1  0.00189123  0.66596919  0.66758312  1
  Ni  Ni35  1  0.16737278  0.83074837  0.83249476  1
  Ni  Ni36  1  0.49895320  0.16452601  0.50106792  1
  Ni  Ni37  1  0.33441773  0.99847888  0.66606129  1
  Ni  Ni38  1  0.50228174  0.16583536  0.83242431  1
  Cr  Cr39  1  0.49812013  0.50047749  0.50136579  1
  Ni  Ni40  1  0.33377395  0.33387619  0.66638023  1
  Ni  Ni41  1  0.50076509  0.50088791  0.83289919  1
  Ni  Ni42  1  0.49759228  0.83599947  0.50040701  1
  Ni  Ni43  1  0.33171035  0.66762318  0.66750022  1
  Ni  Ni44  1  0.50011116  0.83331737  0.83348997  1
  Ni  Ni45  1  0.83439022  0.16691793  0.50067281  1
  Ni  Ni46  1  0.66591046  0.00160154  0.66726505  1
  Ni  Ni47  1  0.83107866  0.16743277  0.83279557  1
  Ni  Ni48  1  0.83703551  0.49845214  0.50178937  1
  Ni  Ni49  1  0.66750755  0.33182567  0.66766700  1
  Ni  Ni50  1  0.83355767  0.50023771  0.83322901  1
  Cr  Cr51  1  0.83454198  0.83334352  0.50081203  1
  Fe  Fe52  1  0.66655165  0.66683985  0.66848231  1
  Ni  Ni53  1  0.83258433  0.83236596  0.83267125  1
" 