3690,Ni83Fe14Cr1_1,-241.722469216865, 199.825698785889,Ni83Fe14Cr1,"# generated using pymatgen
 data_CrFe8Ni45
_symmetry_space_group_name_H-M   'P 1'
_cell_length_a   7.43269528
_cell_length_b   7.43269528
_cell_length_c   10.51141847
_cell_angle_alpha   90.00000000
_cell_angle_beta   90.00000000
_cell_angle_gamma   90.00000000
_symmetry_Int_Tables_number   1
_chemical_formula_structural   CrFe8Ni45
_chemical_formula_sum   'Cr1 Fe8 Ni45'
_cell_volume   580.70288445
_cell_formula_units_Z   1
loop_
 _symmetry_equiv_pos_site_id
 _symmetry_equiv_pos_as_xyz
  1  'x, y, z'
loop_
 _atom_site_type_symbol
 _atom_site_label
 _atom_site_symmetry_multiplicity
 _atom_site_fract_x
 _atom_site_fract_y
 _atom_site_fract_z
 _atom_site_occupancy
  Ni  Ni0  1  0.00240934  1.00188438  1.00188528  1
  Fe  Fe1  1  0.16994690  0.16895564  0.16849802  1
  Cr  Cr2  1  0.00254550  0.00268468  0.33627536  1
  Ni  Ni3  1  0.00246597  0.33560617  1.00225778  1
  Ni  Ni4  1  0.16899670  0.50269012  0.16900956  1
  Ni  Ni5  1  0.00255145  0.33702272  0.33611897  1
  Ni  Ni6  1  1.00226289  0.66943288  0.00299466  1
  Ni  Ni7  1  0.17044622  0.83318008  0.16756403  1
  Fe  Fe8  1  0.00268509  0.66725267  0.33584623  1
  Ni  Ni9  1  0.33513195  1.00183756  0.00298130  1
  Ni  Ni10  1  0.50350108  0.16845152  0.16888843  1
  Ni  Ni11  1  0.33709167  1.00180775  0.33573458  1
  Ni  Ni12  1  0.33525821  0.33583842  0.00269882  1
  Fe  Fe13  1  0.50227431  0.50281584  0.16946840  1
  Ni  Ni14  1  0.33532369  0.33613767  0.33583284  1
  Ni  Ni15  1  0.33551275  0.66925245  1.00184396  1
  Ni  Ni16  1  0.50206435  0.83688042  0.16905321  1
  Ni  Ni17  1  0.33640876  0.66898318  0.33631024  1
  Ni  Ni18  1  0.66938576  1.00164389  0.00262758  1
  Ni  Ni19  1  0.83333323  0.16989678  0.16790112  1
  Ni  Ni20  1  0.66734452  1.00156455  0.33603495  1
  Ni  Ni21  1  0.66920830  0.33598526  0.00236058  1
  Fe  Fe22  1  0.83543169  0.50255046  0.16873496  1
  Ni  Ni23  1  0.66905653  0.33633401  0.33613062  1
  Ni  Ni24  1  0.66916170  0.66931747  0.00231101  1
  Ni  Ni25  1  0.83442417  0.83578723  0.16727440  1
  Ni  Ni26  1  0.66822110  0.66904279  0.33578761  1
  Ni  Ni27  1  0.17005420  0.17058118  0.50290094  1
  Ni  Ni28  1  0.00267742  1.00175249  0.66901840  1
  Fe  Fe29  1  0.16801136  0.16847596  0.83509176  1
  Ni  Ni30  1  0.16889681  0.50197766  0.50232703  1
  Ni  Ni31  1  0.00267258  0.33588564  0.66855411  1
  Ni  Ni32  1  0.16866591  0.50247487  0.83559549  1
  Ni  Ni33  1  0.17034548  0.83436998  0.50319143  1
  Ni  Ni34  1  1.00157531  0.66928807  0.66814853  1
  Ni  Ni35  1  0.16979784  0.83451512  0.83617780  1
  Ni  Ni36  1  0.50269743  0.16884875  0.50220263  1
  Ni  Ni37  1  0.33508512  0.00255334  0.66821253  1
  Fe  Fe38  1  0.50271381  0.16850815  0.83570467  1
  Ni  Ni39  1  0.50187670  0.50173753  0.50226434  1
  Ni  Ni40  1  0.33526209  0.33525986  0.66839870  1
  Fe  Fe41  1  0.50313190  0.50307402  0.83546762  1
  Ni  Ni42  1  0.50216732  0.83634711  0.50170325  1
  Fe  Fe43  1  0.33533920  0.66923301  0.66877849  1
  Ni  Ni44  1  0.50194448  0.83626979  0.83617710  1
  Ni  Ni45  1  0.83418237  0.17029246  0.50325276  1
  Ni  Ni46  1  0.66916470  1.00146312  0.66826759  1
  Ni  Ni47  1  0.83487808  0.16962889  0.83577901  1
  Ni  Ni48  1  0.83615960  0.50144840  0.50185467  1
  Ni  Ni49  1  0.66899775  0.33636046  0.66844237  1
  Ni  Ni50  1  0.83663424  0.50110598  0.83635762  1
  Ni  Ni51  1  0.83442202  0.83518886  0.50352671  1
  Ni  Ni52  1  0.66980036  0.66911336  0.66883660  1
  Ni  Ni53  1  0.83519031  0.83619758  0.83613156  1
" 