8469,Ni83Fe13Cr3_14,-240.454324776089, 194.925910064666,Ni83Fe13Cr3,"# generated using pymatgen
 data_Cr2Fe7Ni45
_symmetry_space_group_name_H-M   'P 1'
_cell_length_a   7.43492150
_cell_length_b   7.43492150
_cell_length_c   10.51456682
_cell_angle_alpha   90.00000000
_cell_angle_beta   90.00000000
_cell_angle_gamma   90.00000000
_symmetry_Int_Tables_number   1
_chemical_formula_structural   Cr2Fe7Ni45
_chemical_formula_sum   'Cr2 Fe7 Ni45'
_cell_volume   581.22483084
_cell_formula_units_Z   1
loop_
 _symmetry_equiv_pos_site_id
 _symmetry_equiv_pos_as_xyz
  1  'x, y, z'
loop_
 _atom_site_type_symbol
 _atom_site_label
 _atom_site_symmetry_multiplicity
 _atom_site_fract_x
 _atom_site_fract_y
 _atom_site_fract_z
 _atom_site_occupancy
  Ni  Ni0  1  0.00294742  0.00340941  1.00060323  1
  Ni  Ni1  1  0.16976765  0.17084179  0.16868620  1
  Ni  Ni2  1  0.00294810  0.00354571  0.33704273  1
  Fe  Fe3  1  1.00189529  0.33586570  1.00193681  1
  Ni  Ni4  1  0.16859508  0.49959839  0.16920591  1
  Ni  Ni5  1  0.00266319  0.33604002  0.33454319  1
  Ni  Ni6  1  0.00261361  0.66734196  0.99991896  1
  Cr  Cr7  1  0.17019239  0.83596338  0.16912744  1
  Ni  Ni8  1  1.00177700  0.66689730  0.33755539  1
  Ni  Ni9  1  0.33563129  0.00232169  1.00127939  1
  Ni  Ni10  1  0.50163864  0.16890554  0.16942822  1
  Ni  Ni11  1  0.33579447  0.00324104  0.33609068  1
  Fe  Fe12  1  0.33568664  0.33522793  0.00260469  1
  Ni  Ni13  1  0.50280641  0.50152979  0.16837193  1
  Ni  Ni14  1  0.33494524  0.33521171  0.33499629  1
  Ni  Ni15  1  0.33585860  0.66852929  0.00216980  1
  Ni  Ni16  1  0.50275319  0.83604493  0.16877267  1
  Fe  Fe17  1  0.33646180  0.66787928  0.33643409  1
  Ni  Ni18  1  0.66790197  0.00311336  1.00151457  1
  Fe  Fe19  1  0.83487267  0.17084102  0.16908868  1
  Ni  Ni20  1  0.66773807  0.00235313  0.33585523  1
  Ni  Ni21  1  0.66909349  0.33596052  0.00243437  1
  Ni  Ni22  1  0.83508190  0.50071341  0.16920306  1
  Ni  Ni23  1  0.66887239  0.33638288  0.33554814  1
  Ni  Ni24  1  0.66800920  0.66740951  1.00160841  1
  Cr  Cr25  1  0.83341828  0.83498801  0.16882277  1
  Ni  Ni26  1  0.66856895  0.66774865  0.33557281  1
  Ni  Ni27  1  0.16839452  0.16875673  0.50212273  1
  Ni  Ni28  1  0.00262896  0.00273873  0.66883780  1
  Ni  Ni29  1  0.16927912  0.16877394  0.83566953  1
  Ni  Ni30  1  0.16895198  0.50158192  0.50155586  1
  Ni  Ni31  1  0.00234510  0.33505816  0.66900488  1
  Ni  Ni32  1  0.16821319  0.50210405  0.83571815  1
  Ni  Ni33  1  0.16901840  0.83614203  0.50202224  1
  Fe  Fe34  1  0.00221686  0.66871184  0.66888047  1
  Ni  Ni35  1  0.16911755  0.83560283  0.83563191  1
  Fe  Fe36  1  0.50215651  0.16889451  0.50211617  1
  Ni  Ni37  1  0.33465925  1.00183922  0.66911369  1
  Ni  Ni38  1  0.50221055  0.16792181  0.83494038  1
  Ni  Ni39  1  0.50248848  0.50254683  0.50232937  1
  Ni  Ni40  1  0.33488781  0.33590241  0.66928658  1
  Fe  Fe41  1  0.50241844  0.50235650  0.83516874  1
  Ni  Ni42  1  0.50249400  0.83525036  0.50138649  1
  Ni  Ni43  1  0.33578067  0.66874063  0.66850971  1
  Ni  Ni44  1  0.50243676  0.83639126  0.83632404  1
  Ni  Ni45  1  0.83593439  0.16875169  0.50156251  1
  Ni  Ni46  1  0.66919309  1.00184495  0.66911361  1
  Ni  Ni47  1  0.83499257  0.16882589  0.83622252  1
  Ni  Ni48  1  0.83504204  0.50192324  0.50179153  1
  Ni  Ni49  1  0.66924821  0.33618093  0.66849876  1
  Ni  Ni50  1  0.83577937  0.50233108  0.83548276  1
  Ni  Ni51  1  0.83496999  0.83580716  0.50225721  1
  Ni  Ni52  1  0.66834835  0.66845652  0.66929797  1
  Ni  Ni53  1  0.83492724  0.83532575  0.83540504  1
" 