6948,Ni83Fe2Cr13_19,-234.25955884304, 164.157279180926,Ni83Fe2Cr13,"# generated using pymatgen
 data_Cr8FeNi45
_symmetry_space_group_name_H-M   'P 1'
_cell_length_a   7.46713744
_cell_length_b   7.46713744
_cell_length_c   10.56012704
_cell_angle_alpha   90.00000000
_cell_angle_beta   90.00000000
_cell_angle_gamma   90.00000000
_symmetry_Int_Tables_number   1
_chemical_formula_structural   Cr8FeNi45
_chemical_formula_sum   'Cr8 Fe1 Ni45'
_cell_volume   588.81305799
_cell_formula_units_Z   1
loop_
 _symmetry_equiv_pos_site_id
 _symmetry_equiv_pos_as_xyz
  1  'x, y, z'
loop_
 _atom_site_type_symbol
 _atom_site_label
 _atom_site_symmetry_multiplicity
 _atom_site_fract_x
 _atom_site_fract_y
 _atom_site_fract_z
 _atom_site_occupancy
  Ni  Ni0  1  0.99954498  0.99941473  0.99883821  1
  Ni  Ni1  1  0.16697952  0.16728799  0.16735167  1
  Ni  Ni2  1  0.00020875  0.00210411  0.33317488  1
  Cr  Cr3  1  0.99965518  0.33207932  0.00109638  1
  Ni  Ni4  1  0.16696155  0.49973495  0.16750947  1
  Ni  Ni5  1  0.00004850  0.33326528  0.33339769  1
  Ni  Ni6  1  0.99984329  0.66830203  0.99970559  1
  Cr  Cr7  1  0.16580093  0.83299265  0.16625148  1
  Ni  Ni8  1  0.99979780  0.66463533  0.33318343  1
  Ni  Ni9  1  0.33317615  0.00180979  0.99796198  1
  Ni  Ni10  1  0.50090039  0.16832657  0.16623598  1
  Ni  Ni11  1  0.33329126  0.00169165  0.33533814  1
  Ni  Ni12  1  0.33568707  0.33216914  0.00119012  1
  Ni  Ni13  1  0.49955791  0.49748210  0.16711840  1
  Ni  Ni14  1  0.33299100  0.33324980  0.33276255  1
  Ni  Ni15  1  0.33288414  0.66596404  0.99882529  1
  Cr  Cr16  1  0.50001448  0.83465140  0.16810123  1
  Ni  Ni17  1  0.33369327  0.66503487  0.33534864  1
  Ni  Ni18  1  0.66727120  0.00224523  0.99904134  1
  Ni  Ni19  1  0.83216111  0.16659014  0.16751445  1
  Ni  Ni20  1  0.66648341  0.00147010  0.33320191  1
  Ni  Ni21  1  0.66497018  0.33193501  0.99949697  1
  Ni  Ni22  1  0.83347873  0.49909980  0.16840057  1
  Ni  Ni23  1  0.66694880  0.33365628  0.33339139  1
  Cr  Cr24  1  0.66711348  0.66585365  0.99921526  1
  Fe  Fe25  1  0.83415902  0.83437360  0.16726580  1
  Ni  Ni26  1  0.66648274  0.66487979  0.33320138  1
  Ni  Ni27  1  0.16748108  0.16566771  0.49880690  1
  Ni  Ni28  1  0.00120465  0.99939238  0.66798840  1
  Ni  Ni29  1  0.16828756  0.16268277  0.83380499  1
  Ni  Ni30  1  0.16749885  0.50133447  0.49865150  1
  Cr  Cr31  1  0.99923702  0.33206471  0.66524380  1
  Cr  Cr32  1  0.16839204  0.50186021  0.83370503  1
  Ni  Ni33  1  0.16831950  0.83295985  0.50061287  1
  Ni  Ni34  1  0.00147516  0.66833625  0.66710322  1
  Ni  Ni35  1  0.16635538  0.83468630  0.83312710  1
  Ni  Ni36  1  0.50035839  0.16666829  0.49992746  1
  Ni  Ni37  1  0.33315372  0.99988819  0.66670257  1
  Ni  Ni38  1  0.50075094  0.16652551  0.83380504  1
  Ni  Ni39  1  0.49901543  0.49902157  0.49905231  1
  Ni  Ni40  1  0.33567374  0.33218950  0.66601798  1
  Ni  Ni41  1  0.50014805  0.49812748  0.83377833  1
  Ni  Ni42  1  0.49716572  0.83430198  0.49905860  1
  Ni  Ni43  1  0.33281932  0.66784507  0.66583331  1
  Ni  Ni44  1  0.49827053  0.83532916  0.83314943  1
  Ni  Ni45  1  0.83215169  0.16757802  0.49935512  1
  Ni  Ni46  1  0.66560843  0.00221019  0.66776173  1
  Ni  Ni47  1  0.83098601  0.16458488  0.83310485  1
  Ni  Ni48  1  0.83346191  0.49821413  0.49845560  1
  Ni  Ni49  1  0.66511777  0.33191033  0.66710823  1
  Ni  Ni50  1  0.83161851  0.50005191  0.83312620  1
  Cr  Cr51  1  0.83418224  0.83460970  0.49823785  1
  Cr  Cr52  1  0.66549138  0.66595623  0.66751906  1
  Ni  Ni53  1  0.83534531  0.83537908  0.83451752  1
" 