6719,Ni83Fe10Cr5_10,-238.39745007206, 185.7800286432,Ni83Fe10Cr5,"# generated using pymatgen
 data_Cr4(FeNi9)5
_symmetry_space_group_name_H-M   'P 1'
_cell_length_a   7.44652232
_cell_length_b   7.44652232
_cell_length_c   10.53097285
_cell_angle_alpha   90.00000000
_cell_angle_beta   90.00000000
_cell_angle_gamma   90.00000000
_symmetry_Int_Tables_number   1
_chemical_formula_structural   Cr4(FeNi9)5
_chemical_formula_sum   'Cr4 Fe5 Ni45'
_cell_volume   583.94975963
_cell_formula_units_Z   1
loop_
 _symmetry_equiv_pos_site_id
 _symmetry_equiv_pos_as_xyz
  1  'x, y, z'
loop_
 _atom_site_type_symbol
 _atom_site_label
 _atom_site_symmetry_multiplicity
 _atom_site_fract_x
 _atom_site_fract_y
 _atom_site_fract_z
 _atom_site_occupancy
  Cr  Cr0  1  1.00074062  0.00263835  0.00170936  1
  Ni  Ni1  1  0.16813714  0.16793919  0.16939014  1
  Ni  Ni2  1  1.00081640  1.00089071  0.33504238  1
  Ni  Ni3  1  1.00115203  0.33544358  0.00191426  1
  Ni  Ni4  1  0.16802723  0.50169984  0.16810698  1
  Ni  Ni5  1  1.00004035  0.33394402  0.33379205  1
  Fe  Fe6  1  1.00125801  0.66699602  0.00142227  1
  Ni  Ni7  1  0.16777915  0.83434618  0.16921935  1
  Ni  Ni8  1  0.00165312  0.66911605  0.33346912  1
  Ni  Ni9  1  0.33441448  0.99933565  0.99980355  1
  Cr  Cr10  1  0.50110475  0.16805621  0.16628742  1
  Ni  Ni11  1  0.33418412  0.99955840  0.33586257  1
  Ni  Ni12  1  0.33351131  0.33675709  1.00064105  1
  Ni  Ni13  1  0.50189140  0.50170803  0.16859302  1
  Ni  Ni14  1  0.33427665  0.33465384  0.33347845  1
  Ni  Ni15  1  0.33535040  0.66765502  0.00144546  1
  Fe  Fe16  1  0.50121419  0.83399661  0.16757665  1
  Ni  Ni17  1  0.33453657  0.66990892  0.33312544  1
  Ni  Ni18  1  0.66843170  1.00000086  1.00027564  1
  Ni  Ni19  1  0.83452289  0.16812937  0.16935932  1
  Ni  Ni20  1  0.66922795  1.00086105  0.33504845  1
  Ni  Ni21  1  0.66947706  0.33602213  0.99989880  1
  Ni  Ni22  1  0.83437682  0.50185376  0.16824960  1
  Ni  Ni23  1  0.66987388  0.33380448  0.33513793  1
  Ni  Ni24  1  0.66657400  0.66780790  0.00190193  1
  Ni  Ni25  1  0.83445313  0.83388887  0.16867743  1
  Fe  Fe26  1  0.66932946  0.66861387  0.33420032  1
  Ni  Ni27  1  0.16919050  0.16635291  0.50052551  1
  Ni  Ni28  1  1.00059336  1.00134370  0.66742667  1
  Ni  Ni29  1  0.16902925  0.16856566  0.83418835  1
  Cr  Cr30  1  0.16550304  0.50176199  0.50164344  1
  Ni  Ni31  1  1.00075303  0.33325727  0.66873662  1
  Ni  Ni32  1  0.16765060  0.50146377  0.83498626  1
  Ni  Ni33  1  0.16704917  0.83656010  0.50176596  1
  Ni  Ni34  1  1.00082132  0.66935554  0.66992327  1
  Ni  Ni35  1  0.16828223  0.83412427  0.83321222  1
  Ni  Ni36  1  0.50102995  0.16645248  0.50179622  1
  Fe  Fe37  1  0.33503657  0.00148907  0.66811641  1
  Ni  Ni38  1  0.50150966  0.16795314  0.83502663  1
  Cr  Cr39  1  0.50296836  0.50043159  0.50123970  1
  Ni  Ni40  1  0.33465846  0.33432122  0.67001000  1
  Ni  Ni41  1  0.50186205  0.50126212  0.83446006  1
  Ni  Ni42  1  0.50217830  0.83716452  0.50045104  1
  Ni  Ni43  1  0.33539455  0.66969369  0.66949005  1
  Ni  Ni44  1  0.50207636  0.83502399  0.83526026  1
  Fe  Fe45  1  0.83474536  0.16752561  0.50158625  1
  Ni  Ni46  1  0.66887001  1.00085761  0.66857425  1
  Ni  Ni47  1  0.83371418  0.16831990  0.83380655  1
  Ni  Ni48  1  0.83496398  0.50268624  0.50154747  1
  Ni  Ni49  1  0.66873106  0.33378091  0.66907821  1
  Ni  Ni50  1  0.83453001  0.50204061  0.83445530  1
  Ni  Ni51  1  0.83520731  0.83391769  0.50143517  1
  Ni  Ni52  1  0.66792164  0.66945642  0.66795694  1
  Ni  Ni53  1  0.83379660  0.83363367  0.83409396  1
" 