6223,Ni83Fe14Cr1_9,-241.516051065717, 199.815669737389,Ni83Fe14Cr1,"# generated using pymatgen
 data_CrFe8Ni45
_symmetry_space_group_name_H-M   'P 1'
_cell_length_a   7.43242737
_cell_length_b   7.43242737
_cell_length_c   10.51103958
_cell_angle_alpha   90.00000000
_cell_angle_beta   90.00000000
_cell_angle_gamma   90.00000000
_symmetry_Int_Tables_number   1
_chemical_formula_structural   CrFe8Ni45
_chemical_formula_sum   'Cr1 Fe8 Ni45'
_cell_volume   580.64009115
_cell_formula_units_Z   1
loop_
 _symmetry_equiv_pos_site_id
 _symmetry_equiv_pos_as_xyz
  1  'x, y, z'
loop_
 _atom_site_type_symbol
 _atom_site_label
 _atom_site_symmetry_multiplicity
 _atom_site_fract_x
 _atom_site_fract_y
 _atom_site_fract_z
 _atom_site_occupancy
  Ni  Ni0  1  0.00276773  1.00164468  1.00139972  1
  Ni  Ni1  1  0.17125035  0.16865202  0.16902145  1
  Fe  Fe2  1  0.00321034  1.00153475  0.33699545  1
  Ni  Ni3  1  0.00394789  0.33653988  1.00151586  1
  Fe  Fe4  1  0.16833523  0.50115698  0.16891449  1
  Ni  Ni5  1  0.00320359  0.33717127  0.33616054  1
  Ni  Ni6  1  1.00154084  0.66852881  1.00228725  1
  Fe  Fe7  1  0.16886417  0.83561267  0.16840385  1
  Ni  Ni8  1  1.00208529  0.66804324  0.33542089  1
  Ni  Ni9  1  0.33632748  0.00309039  0.00248766  1
  Ni  Ni10  1  0.50003508  0.16989409  0.16956881  1
  Ni  Ni11  1  0.33663750  0.00264373  0.33517403  1
  Ni  Ni12  1  0.33466458  0.33521113  0.00272090  1
  Ni  Ni13  1  0.50186945  0.50280499  0.16927651  1
  Ni  Ni14  1  0.33499156  0.33508814  0.33576960  1
  Ni  Ni15  1  0.33593473  0.66864309  0.00301064  1
  Fe  Fe16  1  0.50343571  0.83628289  0.16904119  1
  Ni  Ni17  1  0.33524058  0.66921144  0.33458616  1
  Ni  Ni18  1  0.66814431  1.00089225  1.00162288  1
  Cr  Cr19  1  0.83622041  0.16894811  0.16856272  1
  Ni  Ni20  1  0.66764115  1.00162997  0.33650565  1
  Fe  Fe21  1  0.66777447  0.33657876  1.00204482  1
  Ni  Ni22  1  0.83445307  0.50449582  0.16916542  1
  Ni  Ni23  1  0.66854924  0.33600716  0.33566180  1
  Ni  Ni24  1  0.66943021  0.67020782  0.00273960  1
  Ni  Ni25  1  0.83563228  0.83364223  0.16955842  1
  Ni  Ni26  1  0.66955906  0.66954843  0.33559635  1
  Ni  Ni27  1  0.16960294  0.16941561  0.50239084  1
  Ni  Ni28  1  1.00211364  0.00253507  0.66875412  1
  Ni  Ni29  1  0.16977227  0.16932290  0.83558139  1
  Ni  Ni30  1  0.16929250  0.50239449  0.50153465  1
  Ni  Ni31  1  0.00240668  0.33598772  0.66913672  1
  Ni  Ni32  1  0.16907924  0.50256838  0.83610968  1
  Ni  Ni33  1  0.17064196  0.83509055  0.50230803  1
  Ni  Ni34  1  1.00225435  0.66844785  0.66908245  1
  Ni  Ni35  1  0.17005979  0.83508820  0.83576839  1
  Fe  Fe36  1  0.50247811  0.16840424  0.50256467  1
  Ni  Ni37  1  0.33608458  1.00230382  0.66951134  1
  Ni  Ni38  1  0.50168751  0.16837568  0.83581170  1
  Fe  Fe39  1  0.50219811  0.50306415  0.50145576  1
  Ni  Ni40  1  0.33513657  0.33568275  0.66855962  1
  Fe  Fe41  1  0.50186119  0.50271446  0.83603837  1
  Ni  Ni42  1  0.50173983  0.83505241  0.50152804  1
  Ni  Ni43  1  0.33567690  0.66891532  0.66906307  1
  Ni  Ni44  1  0.50187016  0.83568230  0.83650524  1
  Ni  Ni45  1  0.83581152  0.16983993  0.50187622  1
  Ni  Ni46  1  0.66888808  1.00210505  0.66910911  1
  Ni  Ni47  1  0.83532940  0.16940599  0.83634096  1
  Ni  Ni48  1  0.83566939  0.50211830  0.50161171  1
  Ni  Ni49  1  0.66948293  0.33557618  0.66952697  1
  Ni  Ni50  1  0.83597473  0.50272067  0.83626959  1
  Ni  Ni51  1  0.83475474  0.83496270  0.50237100  1
  Ni  Ni52  1  0.66908284  0.66927365  0.66861760  1
  Ni  Ni53  1  0.83506971  0.83501288  0.83512609  1
" 