4637,Ni83Fe14Cr1_17,-241.880341368747, 199.91124712794,Ni83Fe14Cr1,"# generated using pymatgen
 data_CrFe8Ni45
_symmetry_space_group_name_H-M   'P 1'
_cell_length_a   7.43340392
_cell_length_b   7.43340392
_cell_length_c   10.51242064
_cell_angle_alpha   90.00000000
_cell_angle_beta   90.00000000
_cell_angle_gamma   90.00000000
_symmetry_Int_Tables_number   1
_chemical_formula_structural   CrFe8Ni45
_chemical_formula_sum   'Cr1 Fe8 Ni45'
_cell_volume   580.86899346
_cell_formula_units_Z   1
loop_
 _symmetry_equiv_pos_site_id
 _symmetry_equiv_pos_as_xyz
  1  'x, y, z'
loop_
 _atom_site_type_symbol
 _atom_site_label
 _atom_site_symmetry_multiplicity
 _atom_site_fract_x
 _atom_site_fract_y
 _atom_site_fract_z
 _atom_site_occupancy
  Ni  Ni0  1  0.00252753  1.00154798  0.00324687  1
  Ni  Ni1  1  0.16787313  0.16984781  0.16786668  1
  Ni  Ni2  1  1.00043031  1.00216228  0.33550315  1
  Fe  Fe3  1  1.00219588  0.33508676  0.00332038  1
  Ni  Ni4  1  0.16924301  0.50230877  0.16874122  1
  Ni  Ni5  1  0.00326544  0.33572334  0.33607458  1
  Ni  Ni6  1  1.00202185  0.67012116  1.00225868  1
  Ni  Ni7  1  0.16777302  0.83463344  0.16783008  1
  Ni  Ni8  1  1.00100234  0.66890018  0.33607455  1
  Ni  Ni9  1  0.33513587  0.00324154  1.00170556  1
  Ni  Ni10  1  0.50308684  0.17012052  0.16748843  1
  Cr  Cr11  1  0.33526960  0.00367320  0.33564070  1
  Ni  Ni12  1  0.33659199  0.33495419  0.00243455  1
  Ni  Ni13  1  0.50199527  0.50231255  0.16916256  1
  Ni  Ni14  1  0.33526890  0.33658962  0.33578913  1
  Ni  Ni15  1  0.33547179  0.66859160  0.00294519  1
  Ni  Ni16  1  0.50318895  0.83435442  0.16742550  1
  Fe  Fe17  1  0.33510374  0.66757434  0.33565404  1
  Ni  Ni18  1  0.66912621  0.00267042  1.00210742  1
  Ni  Ni19  1  0.83583252  0.16865397  0.16901902  1
  Ni  Ni20  1  0.67082342  1.00160618  0.33601275  1
  Ni  Ni21  1  0.66759643  0.33546036  0.00300768  1
  Ni  Ni22  1  0.83555238  0.50241059  0.16847066  1
  Fe  Fe23  1  0.66984183  0.33535387  0.33565438  1
  Ni  Ni24  1  0.66929483  0.66865904  1.00193053  1
  Ni  Ni25  1  0.83582469  0.83572153  0.16895761  1
  Ni  Ni26  1  0.66996738  0.66916941  0.33578894  1
  Ni  Ni27  1  0.16777694  0.16998756  0.50319043  1
  Ni  Ni28  1  0.00252977  1.00155749  0.66803819  1
  Ni  Ni29  1  0.16855768  0.16867484  0.83573394  1
  Ni  Ni30  1  0.16920283  0.50231105  0.50241281  1
  Fe  Fe31  1  1.00219601  0.33606658  0.66787260  1
  Fe  Fe32  1  0.17003067  0.50278317  0.83553649  1
  Ni  Ni33  1  0.16767690  0.83449140  0.50321603  1
  Ni  Ni34  1  1.00202152  0.67057026  0.66845395  1
  Ni  Ni35  1  0.16847428  0.83566255  0.83573971  1
  Ni  Ni36  1  0.50308480  0.17031942  0.50351572  1
  Fe  Fe37  1  0.33550622  1.00171135  0.66924055  1
  Ni  Ni38  1  0.50226980  0.16994890  0.83578392  1
  Ni  Ni39  1  0.50199532  0.50231304  0.50193109  1
  Ni  Ni40  1  0.33681153  0.33534230  0.66856561  1
  Ni  Ni41  1  0.50225888  0.50235309  0.83569334  1
  Ni  Ni42  1  0.50318683  0.83414718  0.50357024  1
  Ni  Ni43  1  0.33569210  0.66818071  0.66805417  1
  Ni  Ni44  1  0.50225352  0.83447941  0.83579247  1
  Ni  Ni45  1  0.83593260  0.16879917  0.50203818  1
  Fe  Fe46  1  0.66895140  1.00182766  0.66886283  1
  Ni  Ni47  1  0.83595967  0.16868016  0.83573602  1
  Ni  Ni48  1  0.83559259  0.50241018  0.50268313  1
  Ni  Ni49  1  0.66737648  0.33585479  0.66799122  1
  Fe  Fe50  1  0.83449788  0.50277276  0.83553652  1
  Ni  Ni51  1  0.83592459  0.83557920  0.50209379  1
  Ni  Ni52  1  0.66907470  0.66825388  0.66906930  1
  Ni  Ni53  1  0.83606173  0.83567518  0.83573928  1
" 