709,Ni83Fe10Cr5_0,-238.725698211814, 185.94505939203,Ni83Fe10Cr5,"# generated using pymatgen
 data_Cr4(FeNi9)5
_symmetry_space_group_name_H-M   'P 1'
_cell_length_a   7.44736653
_cell_length_b   7.44736653
_cell_length_c   10.53216675
_cell_angle_alpha   90.00000000
_cell_angle_beta   90.00000000
_cell_angle_gamma   90.00000000
_symmetry_Int_Tables_number   1
_chemical_formula_structural   Cr4(FeNi9)5
_chemical_formula_sum   'Cr4 Fe5 Ni45'
_cell_volume   584.14838991
_cell_formula_units_Z   1
loop_
 _symmetry_equiv_pos_site_id
 _symmetry_equiv_pos_as_xyz
  1  'x, y, z'
loop_
 _atom_site_type_symbol
 _atom_site_label
 _atom_site_symmetry_multiplicity
 _atom_site_fract_x
 _atom_site_fract_y
 _atom_site_fract_z
 _atom_site_occupancy
  Cr  Cr0  1  0.00292781  1.00065885  0.99978384  1
  Ni  Ni1  1  0.17083668  0.16906841  0.16880437  1
  Ni  Ni2  1  0.00202086  0.00136421  0.33588969  1
  Ni  Ni3  1  0.00185481  0.33669752  1.00028898  1
  Ni  Ni4  1  0.16787456  0.50112423  0.16723779  1
  Ni  Ni5  1  0.00208954  0.33424811  0.33488729  1
  Ni  Ni6  1  1.00039281  0.66663849  0.00158713  1
  Ni  Ni7  1  0.16893699  0.83377038  0.16847182  1
  Fe  Fe8  1  0.00154080  0.66833505  0.33424381  1
  Ni  Ni9  1  0.33409808  0.00154794  0.00335164  1
  Ni  Ni10  1  0.49959266  0.16780169  0.16797070  1
  Ni  Ni11  1  0.33413147  0.00135146  0.33440889  1
  Ni  Ni12  1  0.33437931  0.33520094  0.00249149  1
  Ni  Ni13  1  0.50135129  0.50118552  0.16719123  1
  Ni  Ni14  1  0.33434078  0.33453754  0.33403116  1
  Ni  Ni15  1  0.33491881  0.66721391  0.00164713  1
  Ni  Ni16  1  0.50155490  0.83497637  0.16765599  1
  Ni  Ni17  1  0.33575022  0.66807519  0.33456172  1
  Fe  Fe18  1  0.66677467  1.00014623  0.00249176  1
  Cr  Cr19  1  0.83367607  0.16899872  0.16826260  1
  Ni  Ni20  1  0.66781085  0.99996032  0.33471866  1
  Ni  Ni21  1  0.66773211  0.33752381  1.00092315  1
  Ni  Ni22  1  0.83473978  0.50308824  0.16805537  1
  Ni  Ni23  1  0.66753595  0.33586190  0.33586494  1
  Ni  Ni24  1  0.66864961  0.66635924  0.00222011  1
  Ni  Ni25  1  0.83347146  0.83201312  0.16852788  1
  Ni  Ni26  1  0.66752573  0.66814227  0.33423812  1
  Ni  Ni27  1  0.16764934  0.16836477  0.50134104  1
  Ni  Ni28  1  1.00102633  0.00172401  0.66831647  1
  Ni  Ni29  1  0.16705449  0.16922617  0.83381730  1
  Ni  Ni30  1  0.16857972  0.50096563  0.50167620  1
  Ni  Ni31  1  0.00195409  0.33385926  0.66878796  1
  Ni  Ni32  1  0.16697302  0.50084485  0.83505118  1
  Ni  Ni33  1  0.16765270  0.83463348  0.50192960  1
  Ni  Ni34  1  1.00075866  0.66838215  0.66834725  1
  Ni  Ni35  1  0.16612567  0.83389348  0.83356450  1
  Ni  Ni36  1  0.50190987  0.16808396  0.50104265  1
  Ni  Ni37  1  0.33285382  0.00151971  0.66620541  1
  Cr  Cr38  1  0.50062458  0.16937934  0.83490943  1
  Ni  Ni39  1  0.50083463  0.50110104  0.50196629  1
  Ni  Ni40  1  0.33332757  0.33546736  0.66743997  1
  Ni  Ni41  1  0.50166651  0.50090211  0.83480714  1
  Ni  Ni42  1  0.50203965  0.83477921  0.50162776  1
  Ni  Ni43  1  0.33472795  0.66697682  0.66775415  1
  Cr  Cr44  1  0.50119553  0.83318502  0.83457363  1
  Ni  Ni45  1  0.83440546  0.16716004  0.50218124  1
  Ni  Ni46  1  0.67008565  1.00032028  0.66669520  1
  Fe  Fe47  1  0.83645554  0.16930846  0.83333382  1
  Fe  Fe48  1  0.83466834  0.50120025  0.50130378  1
  Fe  Fe49  1  0.66831019  0.33555571  0.66715962  1
  Ni  Ni50  1  0.83532571  0.50182928  0.83477402  1
  Ni  Ni51  1  0.83427258  0.83570870  0.50140408  1
  Ni  Ni52  1  0.66847647  0.66790647  0.66750546  1
  Ni  Ni53  1  0.83588995  0.83318538  0.83403022  1
" 