1333,Ni83Fe10Cr5_12,-238.481691859646, 184.093580990328,Ni83Fe10Cr5,"# generated using pymatgen
 data_Cr4(FeNi9)5
_symmetry_space_group_name_H-M   'P 1'
_cell_length_a   7.44748308
_cell_length_b   7.44748308
_cell_length_c   10.53233157
_cell_angle_alpha   90.00000000
_cell_angle_beta   90.00000000
_cell_angle_gamma   90.00000000
_symmetry_Int_Tables_number   1
_chemical_formula_structural   Cr4(FeNi9)5
_chemical_formula_sum   'Cr4 Fe5 Ni45'
_cell_volume   584.17581502
_cell_formula_units_Z   1
loop_
 _symmetry_equiv_pos_site_id
 _symmetry_equiv_pos_as_xyz
  1  'x, y, z'
loop_
 _atom_site_type_symbol
 _atom_site_label
 _atom_site_symmetry_multiplicity
 _atom_site_fract_x
 _atom_site_fract_y
 _atom_site_fract_z
 _atom_site_occupancy
  Ni  Ni0  1  0.00161794  0.00144725  1.00030214  1
  Ni  Ni1  1  0.16751404  0.16706607  0.16922262  1
  Ni  Ni2  1  1.00116175  1.00125677  0.33577440  1
  Ni  Ni3  1  0.00221874  0.33344532  0.00310094  1
  Ni  Ni4  1  0.16885129  0.50232191  0.16780126  1
  Ni  Ni5  1  1.00064293  0.33331478  0.33303783  1
  Ni  Ni6  1  0.00219410  0.66895545  0.00208621  1
  Ni  Ni7  1  0.16670475  0.83442403  0.16884956  1
  Ni  Ni8  1  1.00049721  0.66898995  0.33384447  1
  Ni  Ni9  1  0.33336977  1.00000410  1.00033262  1
  Cr  Cr10  1  0.50149008  0.16828468  0.16737345  1
  Ni  Ni11  1  0.33402543  0.99999996  0.33567673  1
  Ni  Ni12  1  0.33339521  0.33528645  0.99957022  1
  Ni  Ni13  1  0.50118086  0.50176724  0.16850074  1
  Ni  Ni14  1  0.33443711  0.33440474  0.33493630  1
  Ni  Ni15  1  0.33480306  0.66842239  1.00092722  1
  Fe  Fe16  1  0.50117997  0.83383255  0.16723320  1
  Ni  Ni17  1  0.33565395  0.66985686  0.33358265  1
  Ni  Ni18  1  0.66888910  0.99995681  1.00013572  1
  Ni  Ni19  1  0.83485762  0.16675855  0.16824136  1
  Ni  Ni20  1  0.66842137  0.99993009  0.33502022  1
  Ni  Ni21  1  0.66836816  0.33479776  1.00069696  1
  Ni  Ni22  1  0.83389125  0.50234257  0.16927744  1
  Ni  Ni23  1  0.66913035  0.33516385  0.33620612  1
  Ni  Ni24  1  0.66691070  0.66901138  0.00213060  1
  Ni  Ni25  1  0.83542411  0.83474441  0.16777891  1
  Ni  Ni26  1  0.66776492  0.66890134  0.33520970  1
  Ni  Ni27  1  0.16991427  0.16594718  0.49977544  1
  Fe  Fe28  1  1.00124265  1.00025062  0.66758599  1
  Ni  Ni29  1  0.16979011  0.16660241  0.83507415  1
  Cr  Cr30  1  0.16993003  0.50348016  0.50027529  1
  Cr  Cr31  1  0.00170569  0.33228824  0.66849281  1
  Ni  Ni32  1  0.17062842  0.50290504  0.83585387  1
  Ni  Ni33  1  0.16686447  0.83506136  0.50158075  1
  Ni  Ni34  1  0.00145335  0.67048218  0.66832537  1
  Ni  Ni35  1  0.16775009  0.83419782  0.83351262  1
  Ni  Ni36  1  0.50175588  0.16874249  0.50154161  1
  Ni  Ni37  1  0.33525360  1.00125925  0.66785920  1
  Ni  Ni38  1  0.50155517  0.16789267  0.83433642  1
  Fe  Fe39  1  0.50234516  0.50147301  0.50144342  1
  Ni  Ni40  1  0.33622290  0.33332317  0.66909142  1
  Ni  Ni41  1  0.49993504  0.50118343  0.83346964  1
  Fe  Fe42  1  0.50050934  0.83680780  0.50192661  1
  Ni  Ni43  1  0.33525527  0.66975463  0.66931568  1
  Ni  Ni44  1  0.50159636  0.83478359  0.83482781  1
  Ni  Ni45  1  0.83205349  0.16518116  0.49995957  1
  Ni  Ni46  1  0.66711780  1.00114592  0.66855802  1
  Ni  Ni47  1  0.83266960  0.16526284  0.83556670  1
  Fe  Fe48  1  0.83439679  0.50138032  0.50048664  1
  Ni  Ni49  1  0.66630150  0.33330436  0.66702450  1
  Cr  Cr50  1  0.83374910  0.50346469  0.83545458  1
  Ni  Ni51  1  0.83453126  0.83438598  0.50185192  1
  Ni  Ni52  1  0.66718546  0.66966937  0.66676477  1
  Ni  Ni53  1  0.83462039  0.83601204  0.83412458  1
" 