6814,Ni83Fe14Cr1_14,-241.635200430553, 200.157432855328,Ni83Fe14Cr1,"# generated using pymatgen
 data_CrFe8Ni45
_symmetry_space_group_name_H-M   'P 1'
_cell_length_a   7.43256945
_cell_length_b   7.43256945
_cell_length_c   10.51124052
_cell_angle_alpha   90.00000000
_cell_angle_beta   90.00000000
_cell_angle_gamma   90.00000000
_symmetry_Int_Tables_number   1
_chemical_formula_structural   CrFe8Ni45
_chemical_formula_sum   'Cr1 Fe8 Ni45'
_cell_volume   580.67339123
_cell_formula_units_Z   1
loop_
 _symmetry_equiv_pos_site_id
 _symmetry_equiv_pos_as_xyz
  1  'x, y, z'
loop_
 _atom_site_type_symbol
 _atom_site_label
 _atom_site_symmetry_multiplicity
 _atom_site_fract_x
 _atom_site_fract_y
 _atom_site_fract_z
 _atom_site_occupancy
  Ni  Ni0  1  1.00200898  1.00188203  0.00247027  1
  Ni  Ni1  1  0.16766369  0.17030674  0.16769118  1
  Ni  Ni2  1  1.00079413  1.00228348  0.33565370  1
  Ni  Ni3  1  1.00183437  0.33596463  0.00278215  1
  Ni  Ni4  1  0.17011349  0.50164326  0.16912916  1
  Ni  Ni5  1  1.00167084  0.33551814  0.33540924  1
  Ni  Ni6  1  0.00263107  0.66911282  0.00236360  1
  Ni  Ni7  1  0.16793948  0.83500647  0.16796539  1
  Ni  Ni8  1  1.00167094  0.66915854  0.33603953  1
  Ni  Ni9  1  0.33626676  1.00188924  1.00215769  1
  Ni  Ni10  1  0.50347042  0.17035940  0.16821655  1
  Cr  Cr11  1  0.33509625  1.00213899  0.33545694  1
  Ni  Ni12  1  0.33626765  0.33578234  0.00303551  1
  Ni  Ni13  1  0.50129958  0.50186886  0.16881690  1
  Ni  Ni14  1  0.33617767  0.33723032  0.33533562  1
  Ni  Ni15  1  0.33546095  0.66928302  0.00261537  1
  Ni  Ni16  1  0.50341764  0.83472763  0.16768683  1
  Ni  Ni17  1  0.33622245  0.66749036  0.33593351  1
  Ni  Ni18  1  0.66868344  0.00268751  0.00325263  1
  Ni  Ni19  1  0.83583152  0.16819356  0.16881466  1
  Fe  Fe20  1  0.67110713  1.00207674  0.33535363  1
  Ni  Ni21  1  0.66885605  0.33515950  1.00201678  1
  Fe  Fe22  1  0.83583623  0.50202692  0.16922088  1
  Ni  Ni23  1  0.66911292  0.33635530  0.33614722  1
  Fe  Fe24  1  0.66876236  0.66921637  1.00195010  1
  Ni  Ni25  1  0.83560794  0.83718966  0.16906061  1
  Ni  Ni26  1  0.66906858  0.66836330  0.33519751  1
  Ni  Ni27  1  0.16727864  0.17005737  0.50326952  1
  Ni  Ni28  1  1.00196128  1.00225578  0.66883304  1
  Fe  Fe29  1  0.16903978  0.16904911  0.83554909  1
  Ni  Ni30  1  0.16972663  0.50151677  0.50245584  1
  Ni  Ni31  1  0.00253393  0.33589418  0.66876904  1
  Ni  Ni32  1  0.16927253  0.50185631  0.83537342  1
  Ni  Ni33  1  0.16835644  0.83538462  0.50340667  1
  Ni  Ni34  1  1.00173484  0.66880882  0.66855939  1
  Ni  Ni35  1  0.16898744  0.83592585  0.83558597  1
  Fe  Fe36  1  0.50275635  0.16991350  0.50289206  1
  Ni  Ni37  1  0.33618912  1.00221612  0.66925318  1
  Fe  Fe38  1  0.50213701  0.16873726  0.83641611  1
  Ni  Ni39  1  0.50188682  0.50264630  0.50248714  1
  Ni  Ni40  1  0.33539434  0.33570389  0.66858669  1
  Ni  Ni41  1  0.50207316  0.50213201  0.83565155  1
  Ni  Ni42  1  0.50326562  0.83425322  0.50337122  1
  Ni  Ni43  1  0.33622032  0.66903689  0.66841115  1
  Ni  Ni44  1  0.50241618  0.83570381  0.83589383  1
  Ni  Ni45  1  0.83646716  0.16867801  0.50245463  1
  Ni  Ni46  1  0.66880884  1.00142812  0.66809440  1
  Fe  Fe47  1  0.83578064  0.16878641  0.83594907  1
  Ni  Ni48  1  0.83534564  0.50157658  0.50225112  1
  Fe  Fe49  1  0.66923271  0.33632751  0.66880533  1
  Ni  Ni50  1  0.83561171  0.50185704  0.83586520  1
  Ni  Ni51  1  0.83534110  0.83670442  0.50255558  1
  Ni  Ni52  1  0.66900248  0.66961031  0.66939933  1
  Ni  Ni53  1  0.83555417  0.83627209  0.83533471  1
" 