8788,Ni83Fe14Cr1_12,-241.592323757014, 199.732052043983,Ni83Fe14Cr1,"# generated using pymatgen
 data_CrFe8Ni45
_symmetry_space_group_name_H-M   'P 1'
_cell_length_a   7.43227464
_cell_length_b   7.43227464
_cell_length_c   10.51082359
_cell_angle_alpha   90.00000000
_cell_angle_beta   90.00000000
_cell_angle_gamma   90.00000000
_symmetry_Int_Tables_number   1
_chemical_formula_structural   CrFe8Ni45
_chemical_formula_sum   'Cr1 Fe8 Ni45'
_cell_volume   580.60429765
_cell_formula_units_Z   1
loop_
 _symmetry_equiv_pos_site_id
 _symmetry_equiv_pos_as_xyz
  1  'x, y, z'
loop_
 _atom_site_type_symbol
 _atom_site_label
 _atom_site_symmetry_multiplicity
 _atom_site_fract_x
 _atom_site_fract_y
 _atom_site_fract_z
 _atom_site_occupancy
  Fe  Fe0  1  0.00242254  0.00260142  0.00272158  1
  Ni  Ni1  1  0.16787441  0.16841376  0.16932017  1
  Ni  Ni2  1  1.00195191  0.00373643  0.33530116  1
  Ni  Ni3  1  1.00216283  0.33640739  1.00217178  1
  Fe  Fe4  1  0.17034587  0.50155963  0.16862169  1
  Ni  Ni5  1  1.00189017  0.33576395  0.33597794  1
  Ni  Ni6  1  0.00244473  0.66780794  0.00289330  1
  Ni  Ni7  1  0.16889948  0.83507239  0.16873745  1
  Ni  Ni8  1  1.00197327  0.66742034  0.33452315  1
  Ni  Ni9  1  0.33638655  1.00229911  1.00210016  1
  Ni  Ni10  1  0.50343119  0.16998644  0.16860908  1
  Ni  Ni11  1  0.33685910  0.00274357  0.33469338  1
  Ni  Ni12  1  0.33508129  0.33473043  0.00281309  1
  Ni  Ni13  1  0.50337549  0.50283391  0.16930642  1
  Fe  Fe14  1  0.33616806  0.33519526  0.33529473  1
  Ni  Ni15  1  0.33517511  0.66984626  1.00181525  1
  Ni  Ni16  1  0.50160876  0.83427584  0.16879362  1
  Ni  Ni17  1  0.33602069  0.66955648  0.33504777  1
  Ni  Ni18  1  0.66756272  0.00259290  0.00284364  1
  Ni  Ni19  1  0.83570386  0.17016009  0.16934600  1
  Ni  Ni20  1  0.66798191  0.00291039  0.33561001  1
  Ni  Ni21  1  0.66989531  0.33523303  1.00173649  1
  Fe  Fe22  1  0.83471243  0.50161257  0.16955819  1
  Ni  Ni23  1  0.67053803  0.33506890  0.33599837  1
  Ni  Ni24  1  0.66945559  0.66934051  1.00215597  1
  Fe  Fe25  1  0.83447792  0.83687071  0.16938027  1
  Ni  Ni26  1  0.66892740  0.66907731  0.33613101  1
  Ni  Ni27  1  0.16877204  0.17134872  0.50194852  1
  Fe  Fe28  1  1.00101216  0.00321102  0.66916923  1
  Ni  Ni29  1  0.16822120  0.16974243  0.83565793  1
  Ni  Ni30  1  0.16837909  0.50127329  0.50115928  1
  Ni  Ni31  1  0.00264421  0.33663126  0.66884917  1
  Ni  Ni32  1  0.16984776  0.50244152  0.83642273  1
  Cr  Cr33  1  0.16912194  0.83529433  0.50346334  1
  Ni  Ni34  1  1.00153136  0.66659751  0.66958150  1
  Ni  Ni35  1  0.16830591  0.83481320  0.83570071  1
  Ni  Ni36  1  0.50300957  0.16899037  0.50156479  1
  Ni  Ni37  1  0.33790852  0.00359223  0.67045338  1
  Ni  Ni38  1  0.50312064  0.17017064  0.83674942  1
  Fe  Fe39  1  0.50295014  0.50221865  0.50287547  1
  Ni  Ni40  1  0.33460893  0.33470893  0.66840498  1
  Ni  Ni41  1  0.50191242  0.50220369  0.83519162  1
  Ni  Ni42  1  0.50390380  0.83539206  0.50215227  1
  Ni  Ni43  1  0.33574091  0.66874978  0.67026119  1
  Ni  Ni44  1  0.50294068  0.83464392  0.83608933  1
  Ni  Ni45  1  0.83522741  0.16982519  0.50217332  1
  Ni  Ni46  1  0.66768295  0.00239973  0.66844846  1
  Ni  Ni47  1  0.83549220  0.16872919  0.83557140  1
  Ni  Ni48  1  0.83602276  0.50216094  0.50252295  1
  Ni  Ni49  1  0.66983708  0.33458738  0.66945969  1
  Fe  Fe50  1  0.83548951  0.50231152  0.83519335  1
  Ni  Ni51  1  0.83386138  0.83504941  0.50092149  1
  Ni  Ni52  1  0.66979046  0.67004339  0.66874935  1
  Ni  Ni53  1  0.83566175  0.83607611  0.83608688  1
" 