30,Ni83Fe14Cr1_13,-241.685112724775, 199.509754136411,Ni83Fe14Cr1,"# generated using pymatgen
 data_CrFe8Ni45
_symmetry_space_group_name_H-M   'P 1'
_cell_length_a   7.43184234
_cell_length_b   7.43184234
_cell_length_c   10.51021223
_cell_angle_alpha   90.00000000
_cell_angle_beta   90.00000000
_cell_angle_gamma   90.00000000
_symmetry_Int_Tables_number   1
_chemical_formula_structural   CrFe8Ni45
_chemical_formula_sum   'Cr1 Fe8 Ni45'
_cell_volume   580.50299032
_cell_formula_units_Z   1
loop_
 _symmetry_equiv_pos_site_id
 _symmetry_equiv_pos_as_xyz
  1  'x, y, z'
loop_
 _atom_site_type_symbol
 _atom_site_label
 _atom_site_symmetry_multiplicity
 _atom_site_fract_x
 _atom_site_fract_y
 _atom_site_fract_z
 _atom_site_occupancy
  Ni  Ni0  1  0.00275078  1.00181850  0.00279400  1
  Ni  Ni1  1  0.16833000  0.16974068  0.16845701  1
  Ni  Ni2  1  0.00303804  1.00095648  0.33521165  1
  Ni  Ni3  1  0.00292850  0.33580057  0.00293364  1
  Ni  Ni4  1  0.16976989  0.50227160  0.16978535  1
  Fe  Fe5  1  1.00181241  0.33460646  0.33581254  1
  Ni  Ni6  1  0.00261633  0.66950973  1.00128455  1
  Ni  Ni7  1  0.16701483  0.83505510  0.16969514  1
  Ni  Ni8  1  1.00195260  0.66993809  0.33679972  1
  Ni  Ni9  1  0.33419879  0.00369897  1.00094103  1
  Ni  Ni10  1  0.50308285  0.17096506  0.16988041  1
  Ni  Ni11  1  0.33345092  0.00490379  0.33755590  1
  Ni  Ni12  1  0.33577208  0.33560478  1.00194866  1
  Ni  Ni13  1  0.50142126  0.50053545  0.16839680  1
  Ni  Ni14  1  0.33569786  0.33533258  0.33576800  1
  Ni  Ni15  1  0.33425484  0.66780394  0.00266528  1
  Cr  Cr16  1  0.50281034  0.83552498  0.16870971  1
  Fe  Fe17  1  0.33578724  0.66894424  0.33661598  1
  Ni  Ni18  1  0.67011264  0.00337304  1.00177978  1
  Ni  Ni19  1  0.83544585  0.16845786  0.16913340  1
  Ni  Ni20  1  0.67031328  0.00287038  0.33690906  1
  Ni  Ni21  1  0.66847824  0.33584795  1.00218072  1
  Fe  Fe22  1  0.83585542  0.50278254  0.16811271  1
  Ni  Ni23  1  0.66744013  0.33665010  0.33645245  1
  Ni  Ni24  1  0.67021112  0.66796473  1.00091511  1
  Ni  Ni25  1  0.83720148  0.83698646  0.16869803  1
  Ni  Ni26  1  0.67159629  0.66766204  0.33658359  1
  Ni  Ni27  1  0.16674945  0.16989676  0.50289962  1
  Ni  Ni28  1  0.00240145  1.00215997  0.66907920  1
  Fe  Fe29  1  0.16838008  0.16948174  0.83562485  1
  Ni  Ni30  1  0.17042922  0.50152926  0.50198432  1
  Ni  Ni31  1  0.00307820  0.33439185  0.66819720  1
  Ni  Ni32  1  0.16930313  0.50245975  0.83544286  1
  Ni  Ni33  1  0.16867159  0.83544919  0.50222085  1
  Fe  Fe34  1  1.00198842  0.66862067  0.66911392  1
  Ni  Ni35  1  0.16906918  0.83424940  0.83537122  1
  Fe  Fe36  1  0.50160885  0.16876008  0.50250977  1
  Fe  Fe37  1  0.33651413  1.00230628  0.66884097  1
  Ni  Ni38  1  0.50430892  0.16963513  0.83498978  1
  Ni  Ni39  1  0.50157818  0.50247961  0.50247330  1
  Ni  Ni40  1  0.33541862  0.33705842  0.66949211  1
  Ni  Ni41  1  0.50149342  0.50219588  0.83625474  1
  Ni  Ni42  1  0.50326871  0.83420395  0.50225729  1
  Ni  Ni43  1  0.33599424  0.66832642  0.66817292  1
  Ni  Ni44  1  0.50229657  0.83537956  0.83579781  1
  Ni  Ni45  1  0.83598132  0.16863716  0.50196314  1
  Ni  Ni46  1  0.67061539  1.00180637  0.66839001  1
  Ni  Ni47  1  0.83550193  0.16928580  0.83595144  1
  Fe  Fe48  1  0.83612795  0.50307178  0.50343445  1
  Ni  Ni49  1  0.66851079  0.33607722  0.66845882  1
  Ni  Ni50  1  0.83621331  0.50074694  0.83507579  1
  Ni  Ni51  1  0.83543836  0.83781744  0.50270407  1
  Ni  Ni52  1  0.66781742  0.66934932  0.66947290  1
  Ni  Ni53  1  0.83579846  0.83691929  0.83570777  1
" 