152,Ni83Fe13Cr3_2,-240.58223730628, 195.726311162578,Ni83Fe13Cr3,"# generated using pymatgen
 data_Cr2Fe7Ni45
_symmetry_space_group_name_H-M   'P 1'
_cell_length_a   7.43565263
_cell_length_b   7.43565263
_cell_length_c   10.51560079
_cell_angle_alpha   90.00000000
_cell_angle_beta   90.00000000
_cell_angle_gamma   90.00000000
_symmetry_Int_Tables_number   1
_chemical_formula_structural   Cr2Fe7Ni45
_chemical_formula_sum   'Cr2 Fe7 Ni45'
_cell_volume   581.39631652
_cell_formula_units_Z   1
loop_
 _symmetry_equiv_pos_site_id
 _symmetry_equiv_pos_as_xyz
  1  'x, y, z'
loop_
 _atom_site_type_symbol
 _atom_site_label
 _atom_site_symmetry_multiplicity
 _atom_site_fract_x
 _atom_site_fract_y
 _atom_site_fract_z
 _atom_site_occupancy
  Ni  Ni0  1  0.00306681  0.00244803  1.00137373  1
  Ni  Ni1  1  0.16843976  0.17064564  0.16891169  1
  Ni  Ni2  1  1.00119658  1.00154958  0.33619194  1
  Ni  Ni3  1  0.00263507  0.33601452  0.00284620  1
  Ni  Ni4  1  0.16918422  0.50014848  0.16837625  1
  Fe  Fe5  1  1.00171594  0.33498069  0.33538253  1
  Ni  Ni6  1  1.00145542  0.66787284  1.00129090  1
  Cr  Cr7  1  0.16838518  0.83548825  0.16750398  1
  Ni  Ni8  1  1.00071622  0.66872102  0.33622093  1
  Ni  Ni9  1  0.33461804  0.00303424  1.00138787  1
  Ni  Ni10  1  0.50166226  0.16989656  0.16928606  1
  Ni  Ni11  1  0.33639751  0.00368248  0.33613891  1
  Ni  Ni12  1  0.33537053  0.33574620  1.00209938  1
  Ni  Ni13  1  0.50172547  0.50171522  0.16816577  1
  Ni  Ni14  1  0.33618125  0.33504792  0.33532328  1
  Ni  Ni15  1  0.33596767  0.66754956  1.00203171  1
  Ni  Ni16  1  0.50359813  0.83472186  0.16956076  1
  Fe  Fe17  1  0.33680902  0.66827582  0.33641050  1
  Cr  Cr18  1  0.66837182  0.00219783  0.00305617  1
  Ni  Ni19  1  0.83623078  0.16877953  0.16881147  1
  Ni  Ni20  1  0.66874165  1.00186946  0.33527463  1
  Ni  Ni21  1  0.66832496  0.33736452  0.00233069  1
  Fe  Fe22  1  0.83483612  0.50207325  0.16846216  1
  Ni  Ni23  1  0.66762192  0.33552548  0.33519259  1
  Ni  Ni24  1  0.66891363  0.66712497  1.00210853  1
  Ni  Ni25  1  0.83466851  0.83547023  0.16982030  1
  Ni  Ni26  1  0.66975246  0.66893808  0.33547286  1
  Fe  Fe27  1  0.16902953  0.16840643  0.50235009  1
  Ni  Ni28  1  1.00155839  1.00131782  0.66876493  1
  Ni  Ni29  1  0.16917256  0.16913182  0.83573242  1
  Ni  Ni30  1  0.16859813  0.50268499  0.50221220  1
  Ni  Ni31  1  1.00181246  0.33624334  0.66812119  1
  Ni  Ni32  1  0.16838999  0.50129540  0.83574484  1
  Ni  Ni33  1  0.16828021  0.83494422  0.50276423  1
  Ni  Ni34  1  0.00255807  0.66877218  0.66881852  1
  Fe  Fe35  1  0.16924902  0.83504192  0.83511510  1
  Ni  Ni36  1  0.50265810  0.16868936  0.50206444  1
  Ni  Ni37  1  0.33609121  1.00190388  0.66880584  1
  Ni  Ni38  1  0.50040205  0.16934594  0.83498159  1
  Ni  Ni39  1  0.50159087  0.50158163  0.50259839  1
  Ni  Ni40  1  0.33609894  0.33591959  0.66891467  1
  Ni  Ni41  1  0.50195180  0.50184586  0.83556962  1
  Ni  Ni42  1  0.50192168  0.83606394  0.50180584  1
  Ni  Ni43  1  0.33476538  0.66850666  0.66812171  1
  Ni  Ni44  1  0.50201091  0.83514250  0.83496909  1
  Ni  Ni45  1  0.83502820  0.16836936  0.50280609  1
  Ni  Ni46  1  0.66868565  0.00265270  0.66811121  1
  Fe  Fe47  1  0.83588112  0.17021288  0.83447991  1
  Ni  Ni48  1  0.83614518  0.50195051  0.50185162  1
  Ni  Ni49  1  0.66842127  0.33492208  0.66880994  1
  Ni  Ni50  1  0.83599139  0.50290224  0.83604830  1
  Ni  Ni51  1  0.83613330  0.83601100  0.50181166  1
  Fe  Fe52  1  0.66878088  0.66890082  0.66889321  1
  Ni  Ni53  1  0.83620674  0.83435866  0.83470158  1
" 