7523,Ni83Fe13Cr3_15,-240.633614543186, 195.210245544562,Ni83Fe13Cr3,"# generated using pymatgen
 data_Cr2Fe7Ni45
_symmetry_space_group_name_H-M   'P 1'
_cell_length_a   7.43854269
_cell_length_b   7.43854269
_cell_length_c   10.51968796
_cell_angle_alpha   90.00000000
_cell_angle_beta   90.00000000
_cell_angle_gamma   90.00000000
_symmetry_Int_Tables_number   1
_chemical_formula_structural   Cr2Fe7Ni45
_chemical_formula_sum   'Cr2 Fe7 Ni45'
_cell_volume   582.07450446
_cell_formula_units_Z   1
loop_
 _symmetry_equiv_pos_site_id
 _symmetry_equiv_pos_as_xyz
  1  'x, y, z'
loop_
 _atom_site_type_symbol
 _atom_site_label
 _atom_site_symmetry_multiplicity
 _atom_site_fract_x
 _atom_site_fract_y
 _atom_site_fract_z
 _atom_site_occupancy
  Ni  Ni0  1  1.00158003  1.00061133  0.00275491  1
  Ni  Ni1  1  0.16837820  0.16859089  0.16873804  1
  Ni  Ni2  1  1.00160966  1.00161055  0.33512056  1
  Ni  Ni3  1  1.00188800  0.33666446  0.00322002  1
  Ni  Ni4  1  0.16654565  0.50048430  0.16820196  1
  Ni  Ni5  1  0.00264217  0.33537257  0.33487585  1
  Ni  Ni6  1  1.00175764  0.66846967  1.00180195  1
  Ni  Ni7  1  0.16805738  0.83667278  0.16768794  1
  Ni  Ni8  1  0.00234406  0.66876443  0.33550118  1
  Ni  Ni9  1  0.33607470  1.00143359  0.00316683  1
  Fe  Fe10  1  0.50160428  0.16707797  0.16817027  1
  Fe  Fe11  1  0.33507218  1.00167266  0.33531936  1
  Ni  Ni12  1  0.33498151  0.33505793  1.00161187  1
  Cr  Cr13  1  0.50272768  0.50231652  0.16834826  1
  Ni  Ni14  1  0.33414325  0.33536867  0.33643510  1
  Fe  Fe15  1  0.33454470  0.66927704  1.00125887  1
  Ni  Ni16  1  0.50273268  0.83701824  0.16835561  1
  Ni  Ni17  1  0.33444267  0.66877224  0.33561470  1
  Ni  Ni18  1  0.66809177  1.00129859  1.00161098  1
  Fe  Fe19  1  0.83608296  0.16824729  0.16901605  1
  Ni  Ni20  1  0.66895410  1.00130724  0.33518172  1
  Ni  Ni21  1  0.66887715  0.33488906  1.00077407  1
  Ni  Ni22  1  0.83678389  0.50229121  0.16840571  1
  Ni  Ni23  1  0.66896412  0.33463556  0.33623045  1
  Ni  Ni24  1  0.66970063  0.66956011  1.00137439  1
  Ni  Ni25  1  0.83495790  0.83517709  0.16861449  1
  Ni  Ni26  1  0.66896090  0.66980309  0.33613150  1
  Ni  Ni27  1  0.16861634  0.16875874  0.50179313  1
  Ni  Ni28  1  1.00128529  1.00151021  0.66786927  1
  Cr  Cr29  1  0.16910952  0.16910156  0.83465431  1
  Ni  Ni30  1  0.16866357  0.50089238  0.50161114  1
  Ni  Ni31  1  1.00159646  0.33552342  0.66765194  1
  Ni  Ni32  1  0.16840458  0.50195299  0.83593911  1
  Ni  Ni33  1  0.16841303  0.83609619  0.50232502  1
  Fe  Fe34  1  1.00173604  0.66833568  0.66851116  1
  Fe  Fe35  1  0.16903667  0.83353172  0.83524905  1
  Ni  Ni36  1  0.50146157  0.16869761  0.50180499  1
  Ni  Ni37  1  0.33572488  1.00078610  0.66718815  1
  Ni  Ni38  1  0.50255599  0.16839914  0.83583292  1
  Ni  Ni39  1  0.50212338  0.50166125  0.50234521  1
  Ni  Ni40  1  0.33567231  0.33650929  0.66770038  1
  Ni  Ni41  1  0.50234655  0.50173879  0.83526135  1
  Ni  Ni42  1  0.50243351  0.83538858  0.50176282  1
  Ni  Ni43  1  0.33570910  0.66844846  0.66921510  1
  Ni  Ni44  1  0.50337887  0.83560891  0.83563140  1
  Ni  Ni45  1  0.83566875  0.16844821  0.50237436  1
  Ni  Ni46  1  0.66873553  1.00147803  0.66895848  1
  Fe  Fe47  1  0.83305327  0.16903294  0.83479785  1
  Ni  Ni48  1  0.83495954  0.50186290  0.50161767  1
  Ni  Ni49  1  0.66847532  0.33551156  0.66874761  1
  Ni  Ni50  1  0.83499434  0.50277505  0.83572426  1
  Ni  Ni51  1  0.83489997  0.83543613  0.50161081  1
  Ni  Ni52  1  0.66774723  0.66876058  0.66824251  1
  Ni  Ni53  1  0.83416410  0.83477407  0.83552289  1
" 