6776,Ni83Fe10Cr5_4,-238.549143297004, 187.629468822784,Ni83Fe10Cr5,"# generated using pymatgen
 data_Cr4(FeNi9)5
_symmetry_space_group_name_H-M   'P 1'
_cell_length_a   7.44621165
_cell_length_b   7.44621165
_cell_length_c   10.53053351
_cell_angle_alpha   90.00000000
_cell_angle_beta   90.00000000
_cell_angle_gamma   90.00000000
_symmetry_Int_Tables_number   1
_chemical_formula_structural   Cr4(FeNi9)5
_chemical_formula_sum   'Cr4 Fe5 Ni45'
_cell_volume   583.87667714
_cell_formula_units_Z   1
loop_
 _symmetry_equiv_pos_site_id
 _symmetry_equiv_pos_as_xyz
  1  'x, y, z'
loop_
 _atom_site_type_symbol
 _atom_site_label
 _atom_site_symmetry_multiplicity
 _atom_site_fract_x
 _atom_site_fract_y
 _atom_site_fract_z
 _atom_site_occupancy
  Ni  Ni0  1  1.00012460  0.00155451  0.00156242  1
  Ni  Ni1  1  0.16763586  0.16580370  0.16807040  1
  Ni  Ni2  1  0.00201535  0.00174794  0.33506955  1
  Ni  Ni3  1  1.00110492  0.33386750  1.00096355  1
  Cr  Cr4  1  0.16771896  0.50120218  0.16779175  1
  Ni  Ni5  1  1.00063220  0.33359013  0.33539152  1
  Ni  Ni6  1  1.00113097  0.66880710  1.00082530  1
  Ni  Ni7  1  0.16809958  0.83668770  0.16811511  1
  Fe  Fe8  1  0.00153978  0.66871906  0.33533572  1
  Fe  Fe9  1  0.33463001  0.00143931  1.00124058  1
  Ni  Ni10  1  0.50086882  0.16871724  0.16719424  1
  Ni  Ni11  1  0.33350761  1.00072157  0.33458999  1
  Ni  Ni12  1  0.33535162  0.33528926  1.00091791  1
  Ni  Ni13  1  0.50343895  0.50149489  0.16777487  1
  Ni  Ni14  1  0.33432562  0.33416006  0.33471939  1
  Ni  Ni15  1  0.33558547  0.66774702  1.00027673  1
  Ni  Ni16  1  0.50032077  0.83392217  0.16736937  1
  Ni  Ni17  1  0.33475272  0.66924529  0.33503990  1
  Ni  Ni18  1  0.66872547  1.00125341  0.00166294  1
  Ni  Ni19  1  0.83562967  0.16895797  0.16717354  1
  Cr  Cr20  1  0.66885237  0.00140572  0.33498415  1
  Ni  Ni21  1  0.66777814  0.33440041  1.00125791  1
  Ni  Ni22  1  0.83273757  0.50100114  0.16822730  1
  Ni  Ni23  1  0.66922109  0.33484794  0.33426467  1
  Ni  Ni24  1  0.66742578  0.66853229  0.00222108  1
  Ni  Ni25  1  0.83580487  0.83413487  0.16663280  1
  Fe  Fe26  1  0.66864356  0.66765376  0.33398576  1
  Ni  Ni27  1  0.16783403  0.16740663  0.50126209  1
  Ni  Ni28  1  0.00235796  0.00188861  0.66761574  1
  Ni  Ni29  1  0.16738762  0.16731043  0.83476938  1
  Ni  Ni30  1  0.16628978  0.50163190  0.50188673  1
  Ni  Ni31  1  0.00253778  0.33498900  0.66791629  1
  Ni  Ni32  1  0.16748293  0.50190625  0.83437878  1
  Ni  Ni33  1  0.16811778  0.83522541  0.50145021  1
  Ni  Ni34  1  0.00159682  0.66735257  0.66764797  1
  Ni  Ni35  1  0.16837276  0.83497607  0.83445209  1
  Ni  Ni36  1  0.49952619  0.16793989  0.50153199  1
  Ni  Ni37  1  0.33375406  0.00146063  0.66767241  1
  Ni  Ni38  1  0.50099403  0.16841367  0.83533144  1
  Cr  Cr39  1  0.50144664  0.50120217  0.50187343  1
  Ni  Ni40  1  0.33253282  0.33455318  0.66862476  1
  Ni  Ni41  1  0.50218239  0.50199428  0.83494420  1
  Ni  Ni42  1  0.49930617  0.83460987  0.50148716  1
  Ni  Ni43  1  0.33400131  0.66815073  0.66892440  1
  Ni  Ni44  1  0.49995367  0.83389791  0.83536911  1
  Ni  Ni45  1  0.83684590  0.16984376  0.50158887  1
  Cr  Cr46  1  0.66842338  1.00095284  0.66749082  1
  Ni  Ni47  1  0.83582332  0.16957425  0.83556507  1
  Ni  Ni48  1  0.83624498  0.50121967  0.50118057  1
  Fe  Fe49  1  0.66908733  0.33553674  0.66906012  1
  Ni  Ni50  1  0.83460345  0.50104841  0.83485562  1
  Ni  Ni51  1  0.83693688  0.83310806  0.50206559  1
  Ni  Ni52  1  0.66868278  0.66842874  0.66844131  1
  Fe  Fe53  1  0.83562616  0.83402544  0.83550662  1
" 