8508,Ni83Fe13Cr3_0,-240.712065083619, 195.91705774415,Ni83Fe13Cr3,"# generated using pymatgen
 data_Cr2Fe7Ni45
_symmetry_space_group_name_H-M   'P 1'
_cell_length_a   7.43885649
_cell_length_b   7.43885649
_cell_length_c   10.52013173
_cell_angle_alpha   90.00000000
_cell_angle_beta   90.00000000
_cell_angle_gamma   90.00000000
_symmetry_Int_Tables_number   1
_chemical_formula_structural   Cr2Fe7Ni45
_chemical_formula_sum   'Cr2 Fe7 Ni45'
_cell_volume   582.14817277
_cell_formula_units_Z   1
loop_
 _symmetry_equiv_pos_site_id
 _symmetry_equiv_pos_as_xyz
  1  'x, y, z'
loop_
 _atom_site_type_symbol
 _atom_site_label
 _atom_site_symmetry_multiplicity
 _atom_site_fract_x
 _atom_site_fract_y
 _atom_site_fract_z
 _atom_site_occupancy
  Ni  Ni0  1  0.00219159  1.00149887  0.00266995  1
  Ni  Ni1  1  0.16846613  0.16803378  0.16878930  1
  Ni  Ni2  1  1.00168890  1.00165962  0.33489520  1
  Ni  Ni3  1  0.00209863  0.33397594  1.00124249  1
  Fe  Fe4  1  0.17027247  0.50145747  0.16862969  1
  Ni  Ni5  1  0.00248599  0.33401190  0.33606253  1
  Ni  Ni6  1  0.00209770  0.67021019  1.00119302  1
  Ni  Ni7  1  0.16846494  0.83597194  0.16864801  1
  Fe  Fe8  1  0.00278472  0.67000629  0.33618215  1
  Ni  Ni9  1  0.33443697  1.00149866  0.00204987  1
  Ni  Ni10  1  0.50125446  0.16938753  0.16857610  1
  Ni  Ni11  1  0.33498085  1.00166500  0.33556481  1
  Ni  Ni12  1  0.33578382  0.33522335  0.00249886  1
  Ni  Ni13  1  0.50077116  0.50167781  0.16838666  1
  Ni  Ni14  1  0.33548836  0.33531569  0.33485439  1
  Ni  Ni15  1  0.33578290  0.66896238  0.00244765  1
  Ni  Ni16  1  0.50125464  0.83462003  0.16843207  1
  Fe  Fe17  1  0.33547719  0.66868085  0.33545309  1
  Fe  Fe18  1  0.66868794  1.00184613  0.00194854  1
  Ni  Ni19  1  0.83596449  0.16755194  0.16831539  1
  Ni  Ni20  1  0.66901519  1.00166218  0.33474912  1
  Ni  Ni21  1  0.66780519  0.33532139  1.00144378  1
  Cr  Cr22  1  0.83454048  0.50132450  0.16870370  1
  Ni  Ni23  1  0.66771164  0.33452076  0.33607290  1
  Ni  Ni24  1  0.66780697  0.66886863  1.00139401  1
  Ni  Ni25  1  0.83596549  0.83645379  0.16817246  1
  Fe  Fe26  1  0.66741885  0.66969165  0.33576065  1
  Ni  Ni27  1  0.16889857  0.16975646  0.50111687  1
  Cr  Cr28  1  0.00211636  1.00178526  0.66822370  1
  Ni  Ni29  1  0.16910462  0.16901012  0.83577956  1
  Ni  Ni30  1  0.16868705  0.50167538  0.50211299  1
  Ni  Ni31  1  1.00167755  0.33693192  0.66837959  1
  Fe  Fe32  1  0.16838189  0.50189681  0.83472374  1
  Ni  Ni33  1  0.16889317  0.83425187  0.50126167  1
  Ni  Ni34  1  1.00167728  0.66725692  0.66843059  1
  Ni  Ni35  1  0.16910384  0.83477286  0.83577900  1
  Ni  Ni36  1  0.50193091  0.16922004  0.50216975  1
  Ni  Ni37  1  0.33692947  1.00149828  0.66806977  1
  Ni  Ni38  1  0.50142223  0.16931701  0.83493700  1
  Ni  Ni39  1  0.50160579  0.50167639  0.50186635  1
  Ni  Ni40  1  0.33566097  0.33540653  0.66833038  1
  Ni  Ni41  1  0.50272465  0.50190186  0.83543383  1
  Ni  Ni42  1  0.50193547  0.83478812  0.50231420  1
  Ni  Ni43  1  0.33566086  0.66878010  0.66838288  1
  Ni  Ni44  1  0.50142321  0.83446625  0.83493797  1
  Ni  Ni45  1  0.83485547  0.16942714  0.50091502  1
  Ni  Ni46  1  0.66682472  1.00149848  0.66863961  1
  Ni  Ni47  1  0.83515627  0.17030886  0.83645455  1
  Fe  Fe48  1  0.83539610  0.50145858  0.50268349  1
  Ni  Ni49  1  0.66834644  0.33566173  0.66816851  1
  Ni  Ni50  1  0.83485241  0.50190169  0.83434526  1
  Ni  Ni51  1  0.83485639  0.83457598  0.50105530  1
  Ni  Ni52  1  0.66834680  0.66852403  0.66821979  1
  Ni  Ni53  1  0.83515606  0.83347528  0.83645444  1
" 