3549,Ni83Fe13Cr3_4,-240.481921586961, 195.054861388039,Ni83Fe13Cr3,"# generated using pymatgen
 data_Cr2Fe7Ni45
_symmetry_space_group_name_H-M   'P 1'
_cell_length_a   7.44013296
_cell_length_b   7.44013296
_cell_length_c   10.52193694
_cell_angle_alpha   90.00000000
_cell_angle_beta   90.00000000
_cell_angle_gamma   90.00000000
_symmetry_Int_Tables_number   1
_chemical_formula_structural   Cr2Fe7Ni45
_chemical_formula_sum   'Cr2 Fe7 Ni45'
_cell_volume   582.44790543
_cell_formula_units_Z   1
loop_
 _symmetry_equiv_pos_site_id
 _symmetry_equiv_pos_as_xyz
  1  'x, y, z'
loop_
 _atom_site_type_symbol
 _atom_site_label
 _atom_site_symmetry_multiplicity
 _atom_site_fract_x
 _atom_site_fract_y
 _atom_site_fract_z
 _atom_site_occupancy
  Ni  Ni0  1  1.00150263  0.99979770  1.00166495  1
  Ni  Ni1  1  0.17188131  0.16812456  0.16797512  1
  Cr  Cr2  1  1.00153637  1.00135152  0.33568695  1
  Cr  Cr3  1  1.00148434  0.33626745  0.00211111  1
  Ni  Ni4  1  0.17013022  0.50031723  0.16940710  1
  Ni  Ni5  1  1.00177433  0.33683026  0.33494248  1
  Ni  Ni6  1  0.00244189  0.66977615  0.00185776  1
  Fe  Fe7  1  0.16830557  0.83236414  0.16797346  1
  Ni  Ni8  1  1.00150583  0.66702958  0.33516304  1
  Ni  Ni9  1  0.33602943  1.00129014  0.00243189  1
  Fe  Fe10  1  0.50252036  0.16997717  0.16912152  1
  Ni  Ni11  1  0.33689370  1.00147807  0.33484340  1
  Ni  Ni12  1  0.33759047  0.33540735  1.00105110  1
  Ni  Ni13  1  0.50172998  0.50182445  0.16759076  1
  Ni  Ni14  1  0.33585236  0.33558404  0.33505625  1
  Ni  Ni15  1  0.33455170  0.66793455  1.00167789  1
  Fe  Fe16  1  0.50088606  0.83386656  0.16856299  1
  Ni  Ni17  1  0.33557834  0.66775427  0.33550036  1
  Ni  Ni18  1  0.66804074  0.00280026  0.00234050  1
  Fe  Fe19  1  0.83425585  0.17017960  0.16856545  1
  Ni  Ni20  1  0.66701582  1.00158486  0.33516418  1
  Ni  Ni21  1  0.66656625  0.33494100  1.00140509  1
  Ni  Ni22  1  0.83341966  0.50464822  0.16925274  1
  Ni  Ni23  1  0.66804602  0.33591771  0.33524418  1
  Fe  Fe24  1  0.66812906  0.66859906  1.00152040  1
  Ni  Ni25  1  0.83243478  0.83470330  0.16676481  1
  Ni  Ni26  1  0.66794663  0.66847708  0.33478720  1
  Ni  Ni27  1  0.16998104  0.16951358  0.50289518  1
  Ni  Ni28  1  1.00158960  1.00149357  0.66942592  1
  Ni  Ni29  1  0.16981112  0.16784228  0.83465339  1
  Ni  Ni30  1  0.16889283  0.50110700  0.50101927  1
  Ni  Ni31  1  1.00120766  0.33546564  0.66820988  1
  Ni  Ni32  1  0.16932499  0.50191881  0.83481500  1
  Ni  Ni33  1  0.16984944  0.83467176  0.50216937  1
  Ni  Ni34  1  0.00224272  0.66844719  0.66865386  1
  Ni  Ni35  1  0.16948484  0.83562853  0.83645367  1
  Ni  Ni36  1  0.50125517  0.16834105  0.50143384  1
  Ni  Ni37  1  0.33564158  1.00077271  0.66821939  1
  Fe  Fe38  1  0.50211277  0.16735269  0.83428738  1
  Ni  Ni39  1  0.50200476  0.50193200  0.50212803  1
  Ni  Ni40  1  0.33547575  0.33570839  0.66889540  1
  Fe  Fe41  1  0.50156170  0.50249380  0.83468179  1
  Ni  Ni42  1  0.50234605  0.83514910  0.50058462  1
  Ni  Ni43  1  0.33518184  0.66894659  0.66819503  1
  Ni  Ni44  1  0.50213464  0.83557537  0.83602526  1
  Ni  Ni45  1  0.83406692  0.16925762  0.50173691  1
  Ni  Ni46  1  0.66833461  1.00177093  0.66769970  1
  Ni  Ni47  1  0.83455029  0.16758621  0.83542009  1
  Ni  Ni48  1  0.83452586  0.50227492  0.50103450  1
  Ni  Ni49  1  0.66886378  0.33510207  0.66843360  1
  Ni  Ni50  1  0.83411208  0.50265126  0.83510285  1
  Ni  Ni51  1  0.83334877  0.83399831  0.50336418  1
  Ni  Ni52  1  0.66793709  0.66853065  0.66903338  1
  Ni  Ni53  1  0.83378474  0.83531406  0.83543821  1
" 