5169,Ni83Fe14Cr1_0,-241.6592428042, 199.175461167369,Ni83Fe14Cr1,"# generated using pymatgen
 data_CrFe8Ni45
_symmetry_space_group_name_H-M   'P 1'
_cell_length_a   7.43255047
_cell_length_b   7.43255047
_cell_length_c   10.51121367
_cell_angle_alpha   90.00000000
_cell_angle_beta   90.00000000
_cell_angle_gamma   90.00000000
_symmetry_Int_Tables_number   1
_chemical_formula_structural   CrFe8Ni45
_chemical_formula_sum   'Cr1 Fe8 Ni45'
_cell_volume   580.66894267
_cell_formula_units_Z   1
loop_
 _symmetry_equiv_pos_site_id
 _symmetry_equiv_pos_as_xyz
  1  'x, y, z'
loop_
 _atom_site_type_symbol
 _atom_site_label
 _atom_site_symmetry_multiplicity
 _atom_site_fract_x
 _atom_site_fract_y
 _atom_site_fract_z
 _atom_site_occupancy
  Ni  Ni0  1  1.00055932  0.00310877  0.00417421  1
  Fe  Fe1  1  0.16752257  0.16801133  0.16933983  1
  Ni  Ni2  1  1.00215118  0.00243422  0.33586678  1
  Ni  Ni3  1  0.00242884  0.33509468  1.00219452  1
  Ni  Ni4  1  0.16880694  0.50181916  0.16929440  1
  Ni  Ni5  1  1.00168287  0.33567407  0.33534127  1
  Ni  Ni6  1  0.00258166  0.66843425  0.00298047  1
  Ni  Ni7  1  0.16952409  0.83445396  0.17025853  1
  Ni  Ni8  1  0.00270095  0.66825003  0.33570060  1
  Fe  Fe9  1  0.33609578  0.00240136  0.00343739  1
  Ni  Ni10  1  0.50250802  0.16860143  0.16948318  1
  Ni  Ni11  1  0.33581466  1.00144682  0.33520442  1
  Ni  Ni12  1  0.33559682  0.33655870  0.00367441  1
  Fe  Fe13  1  0.50374676  0.50314575  0.16883029  1
  Fe  Fe14  1  0.33531949  0.33580569  0.33541062  1
  Ni  Ni15  1  0.33614658  0.66764215  0.00310230  1
  Ni  Ni16  1  0.50233269  0.83737398  0.16885972  1
  Ni  Ni17  1  0.33588984  0.66909070  0.33584148  1
  Ni  Ni18  1  0.66976094  0.00300418  0.00244667  1
  Ni  Ni19  1  0.83413970  0.16945221  0.17026303  1
  Ni  Ni20  1  0.66857025  0.00278548  0.33581376  1
  Ni  Ni21  1  0.66910559  0.33498111  1.00228395  1
  Ni  Ni22  1  0.83709250  0.50153552  0.16869013  1
  Ni  Ni23  1  0.66940904  0.33613213  0.33512265  1
  Ni  Ni24  1  0.66864105  0.66948603  0.00279409  1
  Ni  Ni25  1  0.83518804  0.83598429  0.16918680  1
  Ni  Ni26  1  0.66858267  0.66905691  0.33442323  1
  Ni  Ni27  1  0.16948932  0.16895411  0.50122535  1
  Ni  Ni28  1  1.00183607  0.00364801  0.66708178  1
  Ni  Ni29  1  0.16896119  0.17054778  0.83714966  1
  Ni  Ni30  1  0.16891212  0.49930820  0.50311738  1
  Ni  Ni31  1  0.00273163  0.33500474  0.66968905  1
  Ni  Ni32  1  0.16970764  0.49958720  0.83469294  1
  Fe  Fe33  1  0.16893725  0.83387881  0.50201618  1
  Ni  Ni34  1  1.00119912  0.66792578  0.66812008  1
  Cr  Cr35  1  0.16907223  0.83568766  0.83407295  1
  Fe  Fe36  1  0.50275880  0.17002638  0.50134867  1
  Ni  Ni37  1  0.33670742  0.00389630  0.66872448  1
  Fe  Fe38  1  0.50288228  0.17002757  0.83645127  1
  Ni  Ni39  1  0.50270640  0.50321639  0.50083443  1
  Ni  Ni40  1  0.33614633  0.33533388  0.66853950  1
  Ni  Ni41  1  0.50204170  0.50280778  0.83623626  1
  Ni  Ni42  1  0.50312094  0.83633402  0.50226831  1
  Ni  Ni43  1  0.33720608  0.66786111  0.66763346  1
  Ni  Ni44  1  0.50390321  0.83572460  0.83581688  1
  Fe  Fe45  1  0.83537496  0.17046159  0.50205921  1
  Ni  Ni46  1  0.66869419  0.00276196  0.66888659  1
  Ni  Ni47  1  0.83661701  0.16890220  0.83472843  1
  Ni  Ni48  1  0.83530798  0.50275341  0.50237319  1
  Ni  Ni49  1  0.66836255  0.33613978  0.66928121  1
  Ni  Ni50  1  0.83522950  0.50160157  0.83579235  1
  Ni  Ni51  1  0.83355547  0.83574126  0.50182257  1
  Ni  Ni52  1  0.66836366  0.66898483  0.66941764  1
  Ni  Ni53  1  0.83359286  0.83643487  0.83591813  1
" 