3967,Ni83Fe10Cr5_15,-238.520109985688, 184.639522009978,Ni83Fe10Cr5,"# generated using pymatgen
 data_Cr4(FeNi9)5
_symmetry_space_group_name_H-M   'P 1'
_cell_length_a   7.44691532
_cell_length_b   7.44691532
_cell_length_c   10.53152865
_cell_angle_alpha   90.00000000
_cell_angle_beta   90.00000000
_cell_angle_gamma   90.00000000
_symmetry_Int_Tables_number   1
_chemical_formula_structural   Cr4(FeNi9)5
_chemical_formula_sum   'Cr4 Fe5 Ni45'
_cell_volume   584.04222262
_cell_formula_units_Z   1
loop_
 _symmetry_equiv_pos_site_id
 _symmetry_equiv_pos_as_xyz
  1  'x, y, z'
loop_
 _atom_site_type_symbol
 _atom_site_label
 _atom_site_symmetry_multiplicity
 _atom_site_fract_x
 _atom_site_fract_y
 _atom_site_fract_z
 _atom_site_occupancy
  Ni  Ni0  1  0.00185517  0.00191019  0.00178402  1
  Fe  Fe1  1  0.16889545  0.16830013  0.16829318  1
  Fe  Fe2  1  1.00128823  1.00092007  0.33541819  1
  Ni  Ni3  1  1.00094760  0.33496626  1.00103551  1
  Ni  Ni4  1  0.16782662  0.50146952  0.16814055  1
  Ni  Ni5  1  1.00129945  0.33552587  0.33476900  1
  Ni  Ni6  1  0.00211938  0.66718209  0.00156101  1
  Ni  Ni7  1  0.16789286  0.83457329  0.16766710  1
  Ni  Ni8  1  1.00129739  0.66715530  0.33507737  1
  Ni  Ni9  1  0.33426896  0.00177693  0.00155898  1
  Ni  Ni10  1  0.50144265  0.16774446  0.16816158  1
  Ni  Ni11  1  0.33555008  1.00116947  0.33503643  1
  Ni  Ni12  1  0.33470638  0.33462792  1.00097144  1
  Ni  Ni13  1  0.50117616  0.50055755  0.16744641  1
  Ni  Ni14  1  0.33402755  0.33441065  0.33503613  1
  Ni  Ni15  1  0.33366708  0.66765181  0.00207575  1
  Ni  Ni16  1  0.50137878  0.83575334  0.16759144  1
  Ni  Ni17  1  0.33423295  0.66847570  0.33478573  1
  Ni  Ni18  1  0.66793179  0.00294975  0.00300386  1
  Fe  Fe19  1  0.83386710  0.16823319  0.16768317  1
  Ni  Ni20  1  0.66741036  1.00116782  0.33464184  1
  Ni  Ni21  1  0.66840146  0.33436321  1.00044909  1
  Ni  Ni22  1  0.83505248  0.50140765  0.16766931  1
  Ni  Ni23  1  0.66872756  0.33420912  0.33524060  1
  Ni  Ni24  1  0.66826818  0.66674187  0.00294131  1
  Ni  Ni25  1  0.83478372  0.83484046  0.16779469  1
  Ni  Ni26  1  0.66852462  0.66867844  0.33499076  1
  Ni  Ni27  1  0.16834582  0.16690687  0.50100443  1
  Ni  Ni28  1  0.00391760  1.00002141  0.66690659  1
  Fe  Fe29  1  0.16894907  0.16764177  0.83506258  1
  Ni  Ni30  1  0.16912595  0.50169543  0.50041923  1
  Cr  Cr31  1  1.00091443  0.33527494  0.66849330  1
  Ni  Ni32  1  0.16887028  0.50216881  0.83549754  1
  Ni  Ni33  1  0.16808587  0.83545180  0.50225431  1
  Ni  Ni34  1  0.00230791  0.66905231  0.66741581  1
  Ni  Ni35  1  0.16775734  0.83471517  0.83413321  1
  Fe  Fe36  1  0.50035887  0.16890576  0.50043945  1
  Ni  Ni37  1  0.33218917  0.00162062  0.66746007  1
  Ni  Ni38  1  0.50101892  0.17107407  0.83475138  1
  Ni  Ni39  1  0.50143167  0.50137067  0.50194312  1
  Ni  Ni40  1  0.33637766  0.33478342  0.66804511  1
  Ni  Ni41  1  0.50102023  0.49826937  0.83466566  1
  Ni  Ni42  1  0.50052430  0.83382875  0.50043064  1
  Ni  Ni43  1  0.33360093  0.66765183  0.66719355  1
  Cr  Cr44  1  0.49877831  0.83419988  0.83614137  1
  Ni  Ni45  1  0.83512172  0.16781295  0.49960613  1
  Cr  Cr46  1  0.66801790  0.00274539  0.66644769  1
  Ni  Ni47  1  0.83416937  0.16996216  0.83684308  1
  Ni  Ni48  1  0.83349719  0.50163288  0.50114563  1
  Ni  Ni49  1  0.66654692  0.33639516  0.66836413  1
  Ni  Ni50  1  0.83416458  0.49937719  0.83524120  1
  Ni  Ni51  1  0.83544559  0.83460820  0.50101591  1
  Ni  Ni52  1  0.66814695  0.66486233  0.66612249  1
  Cr  Cr53  1  0.83746831  0.83420161  0.83512479  1
" 