663,Ni83Fe13Cr3_19,-240.761109668076, 196.918217779094,Ni83Fe13Cr3,"# generated using pymatgen
 data_Cr2Fe7Ni45
_symmetry_space_group_name_H-M   'P 1'
_cell_length_a   7.43743490
_cell_length_b   7.43743490
_cell_length_c   10.51812131
_cell_angle_alpha   90.00000000
_cell_angle_beta   90.00000000
_cell_angle_gamma   90.00000000
_symmetry_Int_Tables_number   1
_chemical_formula_structural   Cr2Fe7Ni45
_chemical_formula_sum   'Cr2 Fe7 Ni45'
_cell_volume   581.81448624
_cell_formula_units_Z   1
loop_
 _symmetry_equiv_pos_site_id
 _symmetry_equiv_pos_as_xyz
  1  'x, y, z'
loop_
 _atom_site_type_symbol
 _atom_site_label
 _atom_site_symmetry_multiplicity
 _atom_site_fract_x
 _atom_site_fract_y
 _atom_site_fract_z
 _atom_site_occupancy
  Ni  Ni0  1  0.00252912  0.00288303  1.00148622  1
  Ni  Ni1  1  0.16891787  0.16947634  0.16823060  1
  Fe  Fe2  1  0.00312085  0.00305779  0.33652486  1
  Ni  Ni3  1  1.00152500  0.33536712  0.00263875  1
  Ni  Ni4  1  0.16886895  0.50090238  0.16827069  1
  Ni  Ni5  1  1.00132109  0.33550850  0.33507895  1
  Ni  Ni6  1  0.00226936  0.66772280  1.00113550  1
  Fe  Fe7  1  0.17073973  0.83518515  0.16848064  1
  Ni  Ni8  1  0.00206378  0.66760271  0.33668656  1
  Ni  Ni9  1  0.33563371  1.00182813  0.00207314  1
  Ni  Ni10  1  0.50135906  0.16823884  0.16843269  1
  Ni  Ni11  1  0.33482945  0.00285952  0.33457895  1
  Ni  Ni12  1  0.33532313  0.33510620  0.00265212  1
  Ni  Ni13  1  0.50140625  0.50214010  0.16847158  1
  Ni  Ni14  1  0.33556985  0.33447055  0.33557193  1
  Ni  Ni15  1  0.33563342  0.66903781  0.00244890  1
  Ni  Ni16  1  0.50081432  0.83559394  0.16800727  1
  Ni  Ni17  1  0.33482772  0.66864214  0.33457882  1
  Ni  Ni18  1  0.66781042  0.00257279  1.00179161  1
  Ni  Ni19  1  0.83569632  0.17006792  0.16818544  1
  Fe  Fe20  1  0.66817036  0.00376846  0.33532655  1
  Ni  Ni21  1  0.66912434  0.33536667  0.00221861  1
  Ni  Ni22  1  0.83569767  0.50036003  0.16822392  1
  Ni  Ni23  1  0.66908149  0.33550668  0.33574478  1
  Ni  Ni24  1  0.66807031  0.66803383  1.00144191  1
  Cr  Cr25  1  0.83444745  0.83508825  0.16838754  1
  Ni  Ni26  1  0.66908105  0.66686189  0.33532647  1
  Ni  Ni27  1  0.16857289  0.16886380  0.50241564  1
  Ni  Ni28  1  1.00161000  1.00194147  0.66780128  1
  Fe  Fe29  1  0.16865668  0.16866642  0.83532536  1
  Ni  Ni30  1  0.16852467  0.50151605  0.50237602  1
  Ni  Ni31  1  0.00238932  0.33536768  0.66825433  1
  Ni  Ni32  1  0.16865751  0.50185511  0.83532561  1
  Ni  Ni33  1  0.16679396  0.83559336  0.50184812  1
  Ni  Ni34  1  1.00134939  0.66866357  0.66815158  1
  Ni  Ni35  1  0.16865447  0.83555539  0.83574503  1
  Ni  Ni36  1  0.50164277  0.17012820  0.50210746  1
  Ni  Ni37  1  0.33494211  0.00299524  0.66932069  1
  Fe  Fe38  1  0.50174389  0.16834775  0.83549813  1
  Ni  Ni39  1  0.50168972  0.50024941  0.50206794  1
  Ni  Ni40  1  0.33495440  0.33510599  0.66774803  1
  Ni  Ni41  1  0.50172853  0.50236767  0.83543300  1
  Cr  Cr42  1  0.50201152  0.83504205  0.50230843  1
  Ni  Ni43  1  0.33494021  0.66787153  0.66894474  1
  Ni  Ni44  1  0.50224533  0.83555732  0.83569798  1
  Ni  Ni45  1  0.83575708  0.16839899  0.50195231  1
  Ni  Ni46  1  0.66942035  1.00195588  0.66885437  1
  Fe  Fe47  1  0.83557182  0.16834669  0.83564040  1
  Ni  Ni48  1  0.83575803  0.50202926  0.50191426  1
  Fe  Fe49  1  0.66859066  0.33570960  0.66809928  1
  Ni  Ni50  1  0.83558622  0.50236769  0.83583504  1
  Ni  Ni51  1  0.83702344  0.83554515  0.50268540  1
  Ni  Ni52  1  0.66968251  0.66865128  0.66920414  1
  Ni  Ni53  1  0.83507297  0.83556043  0.83495295  1
" 