3760,Ni83Fe2Cr13_15,-234.304519249439, 166.043083519216,Ni83Fe2Cr13,"# generated using pymatgen
 data_Cr8FeNi45
_symmetry_space_group_name_H-M   'P 1'
_cell_length_a   7.46763403
_cell_length_b   7.46763403
_cell_length_c   10.56082933
_cell_angle_alpha   90.00000000
_cell_angle_beta   90.00000000
_cell_angle_gamma   90.00000000
_symmetry_Int_Tables_number   1
_chemical_formula_structural   Cr8FeNi45
_chemical_formula_sum   'Cr8 Fe1 Ni45'
_cell_volume   588.93054066
_cell_formula_units_Z   1
loop_
 _symmetry_equiv_pos_site_id
 _symmetry_equiv_pos_as_xyz
  1  'x, y, z'
loop_
 _atom_site_type_symbol
 _atom_site_label
 _atom_site_symmetry_multiplicity
 _atom_site_fract_x
 _atom_site_fract_y
 _atom_site_fract_z
 _atom_site_occupancy
  Ni  Ni0  1  0.99844016  0.99945448  0.00017421  1
  Ni  Ni1  1  0.16559694  0.16630538  0.16694791  1
  Ni  Ni2  1  0.00036881  0.99935128  0.33292575  1
  Ni  Ni3  1  0.00033752  0.33255919  0.99883039  1
  Cr  Cr4  1  0.16623973  0.50072106  0.16775977  1
  Ni  Ni5  1  0.00104063  0.33154460  0.33362870  1
  Ni  Ni6  1  0.99930201  0.66817864  0.99895375  1
  Ni  Ni7  1  0.16570028  0.83370642  0.16723676  1
  Ni  Ni8  1  0.99983018  0.66908300  0.33360632  1
  Cr  Cr9  1  0.33132732  0.99799976  0.99981489  1
  Ni  Ni10  1  0.49908432  0.16507329  0.16737633  1
  Ni  Ni11  1  0.33276175  0.99938506  0.33380825  1
  Ni  Ni12  1  0.33179671  0.33496938  0.00064504  1
  Ni  Ni13  1  0.49924018  0.50244058  0.16664634  1
  Ni  Ni14  1  0.33288254  0.33248711  0.33379574  1
  Ni  Ni15  1  0.33394646  0.66605087  0.99889827  1
  Ni  Ni16  1  0.50106950  0.83265890  0.16690086  1
  Ni  Ni17  1  0.33422731  0.66807840  0.33449903  1
  Ni  Ni18  1  0.66916642  0.99759442  0.00111570  1
  Ni  Ni19  1  0.83509307  0.16453164  0.16653309  1
  Ni  Ni20  1  0.66678520  0.99836391  0.33316184  1
  Cr  Cr21  1  0.66665477  0.33487211  0.00178578  1
  Ni  Ni22  1  0.83408953  0.50222065  0.16585667  1
  Cr  Cr23  1  0.66583706  0.33382352  0.33196919  1
  Ni  Ni24  1  0.66652156  0.66842979  0.00048371  1
  Ni  Ni25  1  0.83317279  0.83332062  0.16683351  1
  Ni  Ni26  1  0.66584707  0.66903378  0.33179375  1
  Ni  Ni27  1  0.16655538  0.16676510  0.49807516  1
  Cr  Cr28  1  0.00187269  0.99879635  0.66631985  1
  Ni  Ni29  1  0.16375844  0.16807035  0.83470371  1
  Ni  Ni30  1  0.16721886  0.50100809  0.49894966  1
  Ni  Ni31  1  0.99892770  0.33380608  0.66763189  1
  Ni  Ni32  1  0.16598039  0.50112139  0.83398922  1
  Ni  Ni33  1  0.16745114  0.83177215  0.49904685  1
  Ni  Ni34  1  0.00072016  0.66633225  0.66741069  1
  Ni  Ni35  1  0.16612547  0.83057710  0.83343889  1
  Ni  Ni36  1  0.50024634  0.16453977  0.50029529  1
  Ni  Ni37  1  0.33386438  0.99692044  0.66580453  1
  Cr  Cr38  1  0.50149938  0.16419134  0.83201905  1
  Ni  Ni39  1  0.49852681  0.50204090  0.49985647  1
  Cr  Cr40  1  0.33222985  0.33398838  0.66534299  1
  Ni  Ni41  1  0.49880118  0.50298624  0.83348301  1
  Ni  Ni42  1  0.50032675  0.83340962  0.50078815  1
  Ni  Ni43  1  0.33322414  0.66823049  0.66671009  1
  Ni  Ni44  1  0.50156831  0.83000066  0.83220151  1
  Ni  Ni45  1  0.83322990  0.16506408  0.50037565  1
  Ni  Ni46  1  0.66704040  0.99860075  0.66549185  1
  Ni  Ni47  1  0.83484643  0.16560530  0.83301398  1
  Cr  Cr48  1  0.83499442  0.50183373  0.50097576  1
  Ni  Ni49  1  0.66790768  0.33383265  0.66651861  1
  Fe  Fe50  1  0.83403671  0.50145352  0.83299941  1
  Ni  Ni51  1  0.83228247  0.83410986  0.49876069  1
  Ni  Ni52  1  0.66585185  0.66739928  0.66754012  1
  Ni  Ni53  1  0.83243269  0.83318599  0.83415513  1
" 