2768,Ni83Fe2Cr13_12,-234.217513943492, 164.360887292411,Ni83Fe2Cr13,"# generated using pymatgen
 data_Cr8FeNi45
_symmetry_space_group_name_H-M   'P 1'
_cell_length_a   7.46825842
_cell_length_b   7.46825842
_cell_length_c   10.56171235
_cell_angle_alpha   90.00000000
_cell_angle_beta   90.00000000
_cell_angle_gamma   90.00000000
_symmetry_Int_Tables_number   1
_chemical_formula_structural   Cr8FeNi45
_chemical_formula_sum   'Cr8 Fe1 Ni45'
_cell_volume   589.07827921
_cell_formula_units_Z   1
loop_
 _symmetry_equiv_pos_site_id
 _symmetry_equiv_pos_as_xyz
  1  'x, y, z'
loop_
 _atom_site_type_symbol
 _atom_site_label
 _atom_site_symmetry_multiplicity
 _atom_site_fract_x
 _atom_site_fract_y
 _atom_site_fract_z
 _atom_site_occupancy
  Ni  Ni0  1  0.99826593  0.00156063  0.00079813  1
  Ni  Ni1  1  0.16299861  0.16722338  0.16554770  1
  Ni  Ni2  1  0.99819565  0.99848395  0.33238594  1
  Ni  Ni3  1  0.99963389  0.33199321  0.99959873  1
  Ni  Ni4  1  0.16747666  0.50065785  0.16637743  1
  Cr  Cr5  1  0.00049241  0.33318745  0.33348573  1
  Cr  Cr6  1  0.99963223  0.66569778  0.99910243  1
  Ni  Ni7  1  0.16426742  0.83212808  0.16788813  1
  Ni  Ni8  1  0.99951478  0.66734820  0.33366031  1
  Cr  Cr9  1  0.33087377  0.00013695  0.99706321  1
  Cr  Cr10  1  0.50252025  0.16960694  0.16653919  1
  Cr  Cr11  1  0.33095378  0.00188006  0.33606787  1
  Ni  Ni12  1  0.33122922  0.33452812  0.00090887  1
  Ni  Ni13  1  0.50039833  0.50046166  0.16676268  1
  Ni  Ni14  1  0.33382970  0.33597623  0.33359644  1
  Ni  Ni15  1  0.33297755  0.66519078  0.99981907  1
  Cr  Cr16  1  0.50090522  0.83043117  0.16642825  1
  Ni  Ni17  1  0.33242285  0.66473568  0.33404320  1
  Ni  Ni18  1  0.66957139  0.00010952  0.99754217  1
  Ni  Ni19  1  0.83431607  0.16611911  0.16571891  1
  Ni  Ni20  1  0.66963583  -0.00007357  0.33545248  1
  Ni  Ni21  1  0.66877780  0.33346597  0.99984698  1
  Ni  Ni22  1  0.83193197  0.49864398  0.16645937  1
  Ni  Ni23  1  0.66663230  0.33434561  0.33459503  1
  Ni  Ni24  1  0.66706745  0.66611086  0.99987234  1
  Fe  Fe25  1  0.83416176  0.83332673  0.16746228  1
  Ni  Ni26  1  0.66776482  0.66530154  0.33386263  1
  Ni  Ni27  1  0.16559847  0.16651900  0.50157560  1
  Ni  Ni28  1  -0.00003069  -0.00003347  0.66656087  1
  Ni  Ni29  1  0.16477606  0.16743312  0.83274748  1
  Ni  Ni30  1  0.16719513  0.50113017  0.50110968  1
  Ni  Ni31  1  0.99986659  0.33339173  0.66707958  1
  Ni  Ni32  1  0.16570402  0.49915805  0.83216473  1
  Ni  Ni33  1  0.16510894  0.83227450  0.50075563  1
  Ni  Ni34  1  0.00106334  0.66641887  0.66639571  1
  Ni  Ni35  1  0.16585132  0.83317267  0.83104697  1
  Ni  Ni36  1  0.50138858  0.16764408  0.50086468  1
  Ni  Ni37  1  0.33324035  0.00034074  0.66674859  1
  Ni  Ni38  1  0.50128023  0.16606216  0.83233099  1
  Ni  Ni39  1  0.49911436  0.49921216  0.49780881  1
  Ni  Ni40  1  0.33219664  0.33187846  0.66519243  1
  Cr  Cr41  1  0.49884330  0.49872494  0.83503960  1
  Ni  Ni42  1  0.50004608  0.83304850  0.50022529  1
  Ni  Ni43  1  0.33119776  0.66753827  0.66592880  1
  Ni  Ni44  1  0.50005929  0.83445985  0.83329351  1
  Ni  Ni45  1  0.83281717  0.16546466  0.50082332  1
  Ni  Ni46  1  0.66657943  0.00120393  0.66675301  1
  Ni  Ni47  1  0.83371409  0.16640694  0.83334091  1
  Ni  Ni48  1  0.83366585  0.49974417  0.50045321  1
  Ni  Ni49  1  0.66768535  0.33102351  0.66528241  1
  Ni  Ni50  1  0.83500999  0.49785317  0.83285814  1
  Ni  Ni51  1  0.83463749  0.83432048  0.49790449  1
  Cr  Cr52  1  0.66863476  0.66719653  0.66628729  1
  Ni  Ni53  1  0.83393104  0.83545747  0.83416533  1
" 