4918,Ni83Fe14Cr1_5,-241.699484155101, 199.3574998089,Ni83Fe14Cr1,"# generated using pymatgen
 data_CrFe8Ni45
_symmetry_space_group_name_H-M   'P 1'
_cell_length_a   7.43383747
_cell_length_b   7.43383747
_cell_length_c   10.51303378
_cell_angle_alpha   90.00000000
_cell_angle_beta   90.00000000
_cell_angle_gamma   90.00000000
_symmetry_Int_Tables_number   1
_chemical_formula_structural   CrFe8Ni45
_chemical_formula_sum   'Cr1 Fe8 Ni45'
_cell_volume   580.97063741
_cell_formula_units_Z   1
loop_
 _symmetry_equiv_pos_site_id
 _symmetry_equiv_pos_as_xyz
  1  'x, y, z'
loop_
 _atom_site_type_symbol
 _atom_site_label
 _atom_site_symmetry_multiplicity
 _atom_site_fract_x
 _atom_site_fract_y
 _atom_site_fract_z
 _atom_site_occupancy
  Fe  Fe0  1  0.00412322  1.00062562  1.00146879  1
  Ni  Ni1  1  0.17097242  0.16838773  0.16952368  1
  Ni  Ni2  1  1.00211951  1.00153497  0.33574059  1
  Ni  Ni3  1  0.00392249  0.33664726  1.00154412  1
  Fe  Fe4  1  0.16930994  0.50258861  0.16883644  1
  Ni  Ni5  1  0.00383544  0.33616159  0.33638465  1
  Ni  Ni6  1  1.00206751  0.66778651  0.00267822  1
  Ni  Ni7  1  0.16912637  0.83595210  0.16998276  1
  Ni  Ni8  1  0.00244541  0.66900540  0.33476630  1
  Ni  Ni9  1  0.33711022  0.00239614  0.00294194  1
  Ni  Ni10  1  0.49992679  0.16914910  0.16907497  1
  Fe  Fe11  1  0.33547623  0.00254765  0.33526358  1
  Ni  Ni12  1  0.33428012  0.33525220  0.00225047  1
  Ni  Ni13  1  0.50281292  0.50247057  0.16980577  1
  Ni  Ni14  1  0.33513868  0.33593284  0.33475656  1
  Ni  Ni15  1  0.33583987  0.66907663  1.00199617  1
  Ni  Ni16  1  0.50192497  0.83524352  0.16990756  1
  Ni  Ni17  1  0.33543482  0.66800017  0.33504798  1
  Ni  Ni18  1  0.66747534  1.00074048  1.00141559  1
  Cr  Cr19  1  0.83562182  0.16937622  0.16964185  1
  Ni  Ni20  1  0.66845362  1.00113708  0.33632021  1
  Fe  Fe21  1  0.66734060  0.33748966  1.00135846  1
  Ni  Ni22  1  0.83501810  0.50439952  0.16976180  1
  Ni  Ni23  1  0.66771204  0.33578296  0.33575367  1
  Ni  Ni24  1  0.66881026  0.67074806  0.00262812  1
  Ni  Ni25  1  0.83574184  0.83320137  0.16900410  1
  Ni  Ni26  1  0.66875774  0.66985519  0.33502486  1
  Ni  Ni27  1  0.17070081  0.16929904  0.50215267  1
  Ni  Ni28  1  1.00186749  0.00245585  0.66980156  1
  Ni  Ni29  1  0.16965852  0.16880317  0.83515401  1
  Ni  Ni30  1  0.16838168  0.50178988  0.50175629  1
  Ni  Ni31  1  0.00285834  0.33569677  0.66853253  1
  Ni  Ni32  1  0.16884554  0.50232861  0.83550777  1
  Fe  Fe33  1  0.16785940  0.83503731  0.50264532  1
  Ni  Ni34  1  1.00216177  0.66855965  0.66916713  1
  Ni  Ni35  1  0.16928599  0.83541845  0.83443767  1
  Ni  Ni36  1  0.50099578  0.16872408  0.50169237  1
  Ni  Ni37  1  0.33601794  0.00276099  0.66873108  1
  Ni  Ni38  1  0.50150515  0.16876196  0.83591846  1
  Fe  Fe39  1  0.50201228  0.50153427  0.50227721  1
  Ni  Ni40  1  0.33501829  0.33535271  0.66949423  1
  Ni  Ni41  1  0.50205806  0.50252274  0.83439494  1
  Fe  Fe42  1  0.50210589  0.83478514  0.50268236  1
  Ni  Ni43  1  0.33520991  0.66843204  0.66961902  1
  Ni  Ni44  1  0.50201460  0.83560892  0.83481707  1
  Fe  Fe45  1  0.83622852  0.16951275  0.50255957  1
  Ni  Ni46  1  0.66883867  1.00210379  0.66891582  1
  Ni  Ni47  1  0.83560893  0.16898817  0.83429063  1
  Ni  Ni48  1  0.83588376  0.50408360  0.50184838  1
  Ni  Ni49  1  0.66884430  0.33502750  0.66939921  1
  Ni  Ni50  1  0.83567453  0.50293089  0.83508247  1
  Ni  Ni51  1  0.83540474  0.83423156  0.50180057  1
  Ni  Ni52  1  0.66919941  0.66954433  0.66911999  1
  Ni  Ni53  1  0.83558191  0.83483719  0.83594301  1
" 