8479,Ni83Fe10Cr5_14,-238.43344060905, 185.254775550439,Ni83Fe10Cr5,"# generated using pymatgen
 data_Cr4(FeNi9)5
_symmetry_space_group_name_H-M   'P 1'
_cell_length_a   7.44608867
_cell_length_b   7.44608867
_cell_length_c   10.53035958
_cell_angle_alpha   90.00000000
_cell_angle_beta   90.00000000
_cell_angle_gamma   90.00000000
_symmetry_Int_Tables_number   1
_chemical_formula_structural   Cr4(FeNi9)5
_chemical_formula_sum   'Cr4 Fe5 Ni45'
_cell_volume   583.84774685
_cell_formula_units_Z   1
loop_
 _symmetry_equiv_pos_site_id
 _symmetry_equiv_pos_as_xyz
  1  'x, y, z'
loop_
 _atom_site_type_symbol
 _atom_site_label
 _atom_site_symmetry_multiplicity
 _atom_site_fract_x
 _atom_site_fract_y
 _atom_site_fract_z
 _atom_site_occupancy
  Ni  Ni0  1  0.00220792  1.00099230  0.00363531  1
  Ni  Ni1  1  0.16788558  0.16834910  0.16801605  1
  Fe  Fe2  1  0.00200622  0.00188848  0.33445676  1
  Ni  Ni3  1  0.00412077  0.33578814  1.00121313  1
  Ni  Ni4  1  0.16779789  0.50130427  0.16854941  1
  Ni  Ni5  1  0.00200757  0.33526831  0.33582560  1
  Ni  Ni6  1  1.00112081  0.66777414  1.00073302  1
  Ni  Ni7  1  0.16734327  0.83470939  0.16828344  1
  Ni  Ni8  1  1.00131333  0.66743830  0.33521230  1
  Ni  Ni9  1  0.33400077  0.00364532  0.99920041  1
  Ni  Ni10  1  0.50135394  0.16868532  0.16840696  1
  Ni  Ni11  1  0.33431321  0.00321798  0.33646056  1
  Ni  Ni12  1  0.33411239  0.33436650  0.00210499  1
  Ni  Ni13  1  0.50122395  0.50023302  0.16846325  1
  Ni  Ni14  1  0.33398205  0.33435362  0.33414662  1
  Ni  Ni15  1  0.33362169  0.66607687  1.00048673  1
  Cr  Cr16  1  0.50011769  0.83366970  0.16821293  1
  Ni  Ni17  1  0.33321186  0.66675091  0.33562538  1
  Ni  Ni18  1  0.66799708  1.00109783  1.00084541  1
  Ni  Ni19  1  0.83517024  0.16865770  0.16826337  1
  Ni  Ni20  1  0.66873833  0.00245815  0.33629667  1
  Fe  Fe21  1  0.66709273  0.33580745  0.00255428  1
  Ni  Ni22  1  0.83522080  0.50092434  0.16806769  1
  Ni  Ni23  1  0.66817252  0.33437132  0.33406644  1
  Ni  Ni24  1  0.66930341  0.66790377  1.00033521  1
  Ni  Ni25  1  0.83562857  0.83486275  0.16850739  1
  Ni  Ni26  1  0.66958170  0.66740817  0.33596443  1
  Ni  Ni27  1  0.16806452  0.16930651  0.50117742  1
  Cr  Cr28  1  0.00144034  0.99894905  0.66721120  1
  Ni  Ni29  1  0.17021569  0.16902623  0.83517070  1
  Ni  Ni30  1  0.16856529  0.50114145  0.50179313  1
  Fe  Fe31  1  0.00152884  0.33673314  0.66720957  1
  Ni  Ni32  1  0.16835158  0.50114644  0.83383316  1
  Ni  Ni33  1  0.16982132  0.83381684  0.50014238  1
  Ni  Ni34  1  0.00332003  0.66767804  0.66823045  1
  Ni  Ni35  1  0.16941623  0.83382660  0.83598266  1
  Fe  Fe36  1  0.50124188  0.16899460  0.50090764  1
  Fe  Fe37  1  0.33584270  1.00028616  0.66796983  1
  Ni  Ni38  1  0.50008775  0.16808505  0.83379719  1
  Ni  Ni39  1  0.50048355  0.50141426  0.49955334  1
  Ni  Ni40  1  0.33494961  0.33476508  0.66773884  1
  Ni  Ni41  1  0.50027683  0.50066911  0.83618277  1
  Ni  Ni42  1  0.50029871  0.83474328  0.50099406  1
  Ni  Ni43  1  0.33316142  0.66600995  0.66812441  1
  Ni  Ni44  1  0.50024108  0.83516665  0.83495634  1
  Ni  Ni45  1  0.83432404  0.16949781  0.50051088  1
  Ni  Ni46  1  0.66693965  0.00287935  0.66701229  1
  Cr  Cr47  1  0.83492394  0.16978614  0.83611178  1
  Ni  Ni48  1  0.83507673  0.49981005  0.50133655  1
  Ni  Ni49  1  0.66509955  0.33399373  0.66749574  1
  Ni  Ni50  1  0.83553795  0.50194016  0.83469702  1
  Ni  Ni51  1  0.83452359  0.83527595  0.49920879  1
  Cr  Cr52  1  0.66881379  0.66884636  0.66799959  1
  Ni  Ni53  1  0.83480553  0.83420737  0.83671702  1
" 