7455,Ni83Fe10Cr5_19,-238.752845725503, 185.706514434123,Ni83Fe10Cr5,"# generated using pymatgen
 data_Cr4(FeNi9)5
_symmetry_space_group_name_H-M   'P 1'
_cell_length_a   7.44632101
_cell_length_b   7.44632101
_cell_length_c   10.53068816
_cell_angle_alpha   90.00000000
_cell_angle_beta   90.00000000
_cell_angle_gamma   90.00000000
_symmetry_Int_Tables_number   1
_chemical_formula_structural   Cr4(FeNi9)5
_chemical_formula_sum   'Cr4 Fe5 Ni45'
_cell_volume   583.90240143
_cell_formula_units_Z   1
loop_
 _symmetry_equiv_pos_site_id
 _symmetry_equiv_pos_as_xyz
  1  'x, y, z'
loop_
 _atom_site_type_symbol
 _atom_site_label
 _atom_site_symmetry_multiplicity
 _atom_site_fract_x
 _atom_site_fract_y
 _atom_site_fract_z
 _atom_site_occupancy
  Ni  Ni0  1  1.00072563  0.00271232  0.99949116  1
  Ni  Ni1  1  0.16938551  0.16844657  0.16763128  1
  Ni  Ni2  1  0.99984685  1.00114415  0.33641838  1
  Ni  Ni3  1  0.00263018  0.33344894  1.00124826  1
  Ni  Ni4  1  0.17070324  0.50088022  0.16716897  1
  Cr  Cr5  1  0.00219799  0.33381362  0.33474293  1
  Ni  Ni6  1  0.00163082  0.66797090  0.99980498  1
  Cr  Cr7  1  0.16752617  0.83402520  0.16748446  1
  Ni  Ni8  1  0.00213590  0.66973865  0.33670687  1
  Ni  Ni9  1  0.33598916  0.00197829  0.00139655  1
  Ni  Ni10  1  0.50141482  0.16854727  0.16818880  1
  Fe  Fe11  1  0.33596356  0.00150141  0.33527448  1
  Ni  Ni12  1  0.33432858  0.33442535  1.00072077  1
  Ni  Ni13  1  0.49987463  0.50070147  0.16777257  1
  Ni  Ni14  1  0.33597710  0.33543583  0.33552119  1
  Ni  Ni15  1  0.33596095  0.66779473  1.00050374  1
  Ni  Ni16  1  0.50252886  0.83492845  0.16829648  1
  Ni  Ni17  1  0.33599032  0.66679073  0.33539540  1
  Ni  Ni18  1  0.66751586  1.00101567  0.00148372  1
  Ni  Ni19  1  0.83351803  0.16587234  0.16679696  1
  Ni  Ni20  1  0.66845299  1.00119922  0.33450196  1
  Ni  Ni21  1  0.66724306  0.33342272  1.00066670  1
  Cr  Cr22  1  0.83401541  0.50269840  0.16782109  1
  Ni  Ni23  1  0.66556338  0.33327533  0.33583527  1
  Ni  Ni24  1  0.66665192  0.66979622  1.00056898  1
  Ni  Ni25  1  0.83376961  0.83635387  0.16812348  1
  Ni  Ni26  1  0.66606708  0.66976234  0.33622392  1
  Fe  Fe27  1  0.16977418  0.16632250  0.50132765  1
  Fe  Fe28  1  1.00008716  0.99915557  0.66868626  1
  Ni  Ni29  1  0.16984476  0.16730254  0.83482011  1
  Ni  Ni30  1  0.16989522  0.50397465  0.50091254  1
  Cr  Cr31  1  1.00107227  0.33487743  0.66750639  1
  Ni  Ni32  1  0.16813347  0.50232129  0.83606367  1
  Ni  Ni33  1  0.16837899  0.83387250  0.50189054  1
  Ni  Ni34  1  0.00211620  0.66803955  0.66760199  1
  Ni  Ni35  1  0.16878309  0.83439113  0.83454011  1
  Ni  Ni36  1  0.50213304  0.16804118  0.50132818  1
  Ni  Ni37  1  0.33556579  1.00055789  0.66736649  1
  Ni  Ni38  1  0.50143561  0.16747935  0.83468089  1
  Ni  Ni39  1  0.50124804  0.50088147  0.50215306  1
  Fe  Fe40  1  0.33663242  0.33575641  0.66831398  1
  Fe  Fe41  1  0.50207059  0.50165921  0.83471459  1
  Ni  Ni42  1  0.50091013  0.83531757  0.50103074  1
  Ni  Ni43  1  0.33462765  0.66948025  0.66831173  1
  Ni  Ni44  1  0.50088165  0.83612808  0.83484265  1
  Ni  Ni45  1  0.83168800  0.16648656  0.50152614  1
  Ni  Ni46  1  0.66666329  1.00128058  0.66820493  1
  Ni  Ni47  1  0.83306558  0.16800209  0.83582137  1
  Ni  Ni48  1  0.83322506  0.50256683  0.50110286  1
  Ni  Ni49  1  0.66794612  0.33397337  0.66774640  1
  Ni  Ni50  1  0.83460949  0.50181692  0.83516890  1
  Ni  Ni51  1  0.83485808  0.83481893  0.50155535  1
  Ni  Ni52  1  0.66751316  0.66889456  0.66753111  1
  Ni  Ni53  1  0.83438701  0.83407507  0.83461571  1
" 