4881,Ni83Fe13Cr3_13,-240.897320594259, 196.139674024695,Ni83Fe13Cr3,"# generated using pymatgen
 data_Cr2Fe7Ni45
_symmetry_space_group_name_H-M   'P 1'
_cell_length_a   7.43966435
_cell_length_b   7.43966435
_cell_length_c   10.52127423
_cell_angle_alpha   90.00000000
_cell_angle_beta   90.00000000
_cell_angle_gamma   90.00000000
_symmetry_Int_Tables_number   1
_chemical_formula_structural   Cr2Fe7Ni45
_chemical_formula_sum   'Cr2 Fe7 Ni45'
_cell_volume   582.33785868
_cell_formula_units_Z   1
loop_
 _symmetry_equiv_pos_site_id
 _symmetry_equiv_pos_as_xyz
  1  'x, y, z'
loop_
 _atom_site_type_symbol
 _atom_site_label
 _atom_site_symmetry_multiplicity
 _atom_site_fract_x
 _atom_site_fract_y
 _atom_site_fract_z
 _atom_site_occupancy
  Ni  Ni0  1  0.00260847  0.00209224  0.00188131  1
  Ni  Ni1  1  0.16902633  0.16764060  0.16758871  1
  Ni  Ni2  1  1.00120448  1.00008455  0.33508903  1
  Ni  Ni3  1  1.00091630  0.33330892  0.00204998  1
  Fe  Fe4  1  0.16942187  0.50276453  0.16798333  1
  Cr  Cr5  1  0.00211059  0.33394699  0.33522004  1
  Ni  Ni6  1  1.00091639  0.67012092  0.00243714  1
  Ni  Ni7  1  0.16793169  0.83519805  0.16868249  1
  Ni  Ni8  1  0.00228265  0.67139421  0.33558116  1
  Ni  Ni9  1  0.33380775  0.00188519  1.00112841  1
  Ni  Ni10  1  0.50158021  0.16966175  0.16894149  1
  Fe  Fe11  1  0.33546775  1.00154354  0.33459785  1
  Ni  Ni12  1  0.33611181  0.33411249  0.00265827  1
  Ni  Ni13  1  0.50219045  0.50158764  0.16846403  1
  Ni  Ni14  1  0.33706656  0.33573260  0.33513831  1
  Ni  Ni15  1  0.33631904  0.66952421  0.00244879  1
  Ni  Ni16  1  0.50158165  0.83427212  0.16868555  1
  Ni  Ni17  1  0.33543809  0.66807642  0.33513717  1
  Fe  Fe18  1  0.66838321  1.00183098  0.00184528  1
  Ni  Ni19  1  0.83491362  0.16825109  0.16762784  1
  Ni  Ni20  1  0.66948954  1.00171186  0.33508844  1
  Ni  Ni21  1  0.66849332  0.33581176  1.00160888  1
  Ni  Ni22  1  0.83399262  0.50268192  0.16791715  1
  Ni  Ni23  1  0.66616657  0.33464777  0.33558435  1
  Ni  Ni24  1  0.66828671  0.66782388  1.00139940  1
  Ni  Ni25  1  0.83600813  0.83458870  0.16872197  1
  Ni  Ni26  1  0.66779710  0.66916399  0.33558400  1
  Ni  Ni27  1  0.16885786  0.16841061  0.50284709  1
  Ni  Ni28  1  1.00150278  0.00209465  0.66854910  1
  Ni  Ni29  1  0.16832014  0.16697229  0.83507639  1
  Ni  Ni30  1  0.17008633  0.50267760  0.50191727  1
  Fe  Fe31  1  1.00069566  0.33396838  0.66813579  1
  Cr  Cr32  1  0.16887853  0.50184424  0.83628821  1
  Ni  Ni33  1  0.16776561  0.83443411  0.50175674  1
  Fe  Fe34  1  1.00069428  0.66964858  0.66777012  1
  Ni  Ni35  1  0.16831659  0.83671052  0.83507702  1
  Ni  Ni36  1  0.50219786  0.16960967  0.50136404  1
  Fe  Fe37  1  0.33613306  1.00183130  0.66910172  1
  Ni  Ni38  1  0.50197152  0.16898589  0.83521364  1
  Ni  Ni39  1  0.50106519  0.50158769  0.50179589  1
  Ni  Ni40  1  0.33617205  0.33520634  0.66773100  1
  Ni  Ni41  1  0.50360013  0.50183510  0.83526042  1
  Ni  Ni42  1  0.50219780  0.83432428  0.50161968  1
  Ni  Ni43  1  0.33637914  0.66842936  0.66794022  1
  Ni  Ni44  1  0.50197152  0.83469957  0.83521350  1
  Ni  Ni45  1  0.83447197  0.16728649  0.50236393  1
  Ni  Ni46  1  0.67010198  0.00188508  0.66899323  1
  Ni  Ni47  1  0.83523145  0.16860642  0.83553355  1
  Fe  Fe48  1  0.83386145  0.50276429  0.50226422  1
  Ni  Ni49  1  0.66779294  0.33515061  0.66832133  1
  Ni  Ni50  1  0.83321755  0.50183925  0.83481717  1
  Ni  Ni51  1  0.83556212  0.83555589  0.50127265  1
  Ni  Ni52  1  0.66758570  0.66848580  0.66853017  1
  Ni  Ni53  1  0.83523509  0.83507626  0.83553476  1
" 