4537,Ni83Fe13Cr3_8,-240.534912522813, 195.280753678792,Ni83Fe13Cr3,"# generated using pymatgen
 data_Cr2Fe7Ni45
_symmetry_space_group_name_H-M   'P 1'
_cell_length_a   7.43543381
_cell_length_b   7.43543381
_cell_length_c   10.51529133
_cell_angle_alpha   90.00000000
_cell_angle_beta   90.00000000
_cell_angle_gamma   90.00000000
_symmetry_Int_Tables_number   1
_chemical_formula_structural   Cr2Fe7Ni45
_chemical_formula_sum   'Cr2 Fe7 Ni45'
_cell_volume   581.34498898
_cell_formula_units_Z   1
loop_
 _symmetry_equiv_pos_site_id
 _symmetry_equiv_pos_as_xyz
  1  'x, y, z'
loop_
 _atom_site_type_symbol
 _atom_site_label
 _atom_site_symmetry_multiplicity
 _atom_site_fract_x
 _atom_site_fract_y
 _atom_site_fract_z
 _atom_site_occupancy
  Ni  Ni0  1  1.00179038  1.00151715  0.00255381  1
  Ni  Ni1  1  0.16944180  0.16748258  0.16795578  1
  Ni  Ni2  1  0.00288133  1.00019754  0.33559530  1
  Fe  Fe3  1  0.00232555  0.33571540  1.00202454  1
  Ni  Ni4  1  0.16922085  0.50300021  0.16796010  1
  Cr  Cr5  1  1.00176267  0.33512776  0.33495156  1
  Ni  Ni6  1  0.00249044  0.66935441  0.00283450  1
  Ni  Ni7  1  0.16830788  0.83589535  0.16947241  1
  Ni  Ni8  1  0.00254697  0.67089634  0.33527857  1
  Ni  Ni9  1  0.33545378  0.00237878  0.00273079  1
  Ni  Ni10  1  0.50111663  0.16970059  0.16844435  1
  Fe  Fe11  1  0.33412697  1.00208318  0.33526596  1
  Ni  Ni12  1  0.33611048  0.33572725  0.00219822  1
  Ni  Ni13  1  0.50269580  0.50214111  0.16903647  1
  Ni  Ni14  1  0.33748097  0.33635349  0.33559372  1
  Ni  Ni15  1  0.33497229  0.66827187  0.00225920  1
  Ni  Ni16  1  0.50139128  0.83453618  0.16787169  1
  Ni  Ni17  1  0.33537348  0.66793385  0.33500862  1
  Ni  Ni18  1  0.66913211  0.00265359  0.00223240  1
  Ni  Ni19  1  0.83581897  0.16878729  0.16723948  1
  Cr  Cr20  1  0.66972824  0.00281092  0.33482863  1
  Ni  Ni21  1  0.66805201  0.33502715  0.00304309  1
  Ni  Ni22  1  0.83446050  0.50327579  0.16858884  1
  Ni  Ni23  1  0.66656557  0.33668533  0.33542304  1
  Ni  Ni24  1  0.66891571  0.66869752  0.00235350  1
  Ni  Ni25  1  0.83667687  0.83431638  0.16800985  1
  Ni  Ni26  1  0.66845781  0.66738763  0.33558422  1
  Ni  Ni27  1  0.16934621  0.16757802  0.50297669  1
  Ni  Ni28  1  1.00144250  1.00199371  0.66823322  1
  Ni  Ni29  1  0.16908558  0.16826066  0.83544487  1
  Fe  Fe30  1  0.16976166  0.50259153  0.50304161  1
  Ni  Ni31  1  1.00187091  0.33562337  0.66908100  1
  Ni  Ni32  1  0.16801288  0.50213096  0.83501508  1
  Fe  Fe33  1  0.16842635  0.83572155  0.50234156  1
  Ni  Ni34  1  0.00289164  0.66876039  0.66826531  1
  Ni  Ni35  1  0.16903700  0.83598638  0.83506265  1
  Ni  Ni36  1  0.50065709  0.16973863  0.50292601  1
  Ni  Ni37  1  0.33600906  1.00205594  0.66832241  1
  Ni  Ni38  1  0.50142834  0.16831315  0.83500594  1
  Ni  Ni39  1  0.50297938  0.50221365  0.50201853  1
  Ni  Ni40  1  0.33586307  0.33584287  0.66858391  1
  Ni  Ni41  1  0.50272493  0.50229662  0.83532346  1
  Ni  Ni42  1  0.50167822  0.83442477  0.50313094  1
  Ni  Ni43  1  0.33478037  0.66847831  0.66910924  1
  Ni  Ni44  1  0.50164837  0.83576769  0.83537412  1
  Ni  Ni45  1  0.83637317  0.16888223  0.50417576  1
  Ni  Ni46  1  0.66892417  0.00307643  0.66899262  1
  Fe  Fe47  1  0.83515309  0.16904634  0.83515610  1
  Ni  Ni48  1  0.83427656  0.50329239  0.50251286  1
  Ni  Ni49  1  0.66864410  0.33439124  0.66791244  1
  Ni  Ni50  1  0.83564022  0.50234914  0.83527589  1
  Ni  Ni51  1  0.83643192  0.83420349  0.50304438  1
  Fe  Fe52  1  0.66859317  0.66861646  0.66842547  1
  Fe  Fe53  1  0.83582067  0.83520741  0.83570722  1
" 