2447,Ni83Fe10Cr5_13,-238.434264808148, 184.928282204122,Ni83Fe10Cr5,"# generated using pymatgen
 data_Cr4(FeNi9)5
_symmetry_space_group_name_H-M   'P 1'
_cell_length_a   7.44869088
_cell_length_b   7.44869088
_cell_length_c   10.53403966
_cell_angle_alpha   90.00000000
_cell_angle_beta   90.00000000
_cell_angle_gamma   90.00000000
_symmetry_Int_Tables_number   1
_chemical_formula_structural   Cr4(FeNi9)5
_chemical_formula_sum   'Cr4 Fe5 Ni45'
_cell_volume   584.46007869
_cell_formula_units_Z   1
loop_
 _symmetry_equiv_pos_site_id
 _symmetry_equiv_pos_as_xyz
  1  'x, y, z'
loop_
 _atom_site_type_symbol
 _atom_site_label
 _atom_site_symmetry_multiplicity
 _atom_site_fract_x
 _atom_site_fract_y
 _atom_site_fract_z
 _atom_site_occupancy
  Ni  Ni0  1  1.00072319  0.00147496  0.00159077  1
  Ni  Ni1  1  0.16840705  0.16834454  0.16847861  1
  Ni  Ni2  1  1.00030294  0.00199966  0.33387162  1
  Ni  Ni3  1  0.00162589  0.33360753  0.00184620  1
  Ni  Ni4  1  0.16723339  0.50137351  0.16826716  1
  Fe  Fe5  1  0.00208949  0.33498724  0.33470087  1
  Ni  Ni6  1  0.00208359  0.66861362  0.00142142  1
  Ni  Ni7  1  0.16820678  0.83398100  0.16775253  1
  Ni  Ni8  1  0.00165035  0.66836132  0.33379132  1
  Fe  Fe9  1  0.33455164  0.00127161  1.00078632  1
  Ni  Ni10  1  0.50063161  0.16641580  0.16685601  1
  Fe  Fe11  1  0.33473375  0.99989320  0.33323198  1
  Ni  Ni12  1  0.33469774  0.33510662  0.00172416  1
  Fe  Fe13  1  0.50048751  0.50230234  0.16682159  1
  Fe  Fe14  1  0.33204536  0.33570280  0.33393028  1
  Ni  Ni15  1  0.33424318  0.66711659  0.00129625  1
  Ni  Ni16  1  0.50145914  0.83527686  0.16863456  1
  Ni  Ni17  1  0.33492403  0.66684582  0.33416362  1
  Ni  Ni18  1  0.66887190  0.00192844  0.00162041  1
  Ni  Ni19  1  0.83465758  0.16739216  0.16723728  1
  Ni  Ni20  1  0.66970543  0.99927744  0.33430107  1
  Ni  Ni21  1  0.66737105  0.33374261  1.00111406  1
  Ni  Ni22  1  0.83595563  0.50220821  0.16703059  1
  Cr  Cr23  1  0.66830831  0.33497607  0.33354117  1
  Ni  Ni24  1  0.66736739  0.66802690  0.00202010  1
  Ni  Ni25  1  0.83403579  0.83410263  0.16843193  1
  Ni  Ni26  1  0.66712099  0.66984800  0.33498911  1
  Ni  Ni27  1  0.16709324  0.17089178  0.50018871  1
  Cr  Cr28  1  1.00025661  0.00206877  0.66877319  1
  Ni  Ni29  1  0.16911824  0.16882987  0.83502521  1
  Ni  Ni30  1  0.16744987  0.49953306  0.50148269  1
  Ni  Ni31  1  0.00165063  0.33563066  0.66672138  1
  Ni  Ni32  1  0.16762835  0.50141582  0.83394064  1
  Cr  Cr33  1  0.16879760  0.83340788  0.50084276  1
  Ni  Ni34  1  1.00102002  0.66549626  0.66848780  1
  Ni  Ni35  1  0.16892005  0.83344870  0.83561400  1
  Cr  Cr36  1  0.50068039  0.16634409  0.50309208  1
  Ni  Ni37  1  0.33615574  0.00147230  0.66932480  1
  Ni  Ni38  1  0.50127702  0.16766613  0.83425977  1
  Ni  Ni39  1  0.50065390  0.50383085  0.50177517  1
  Ni  Ni40  1  0.33389716  0.33561578  0.66780876  1
  Ni  Ni41  1  0.50121288  0.50103045  0.83467828  1
  Ni  Ni42  1  0.50338369  0.83297770  0.50138754  1
  Ni  Ni43  1  0.33561841  0.66660989  0.66823520  1
  Ni  Ni44  1  0.50109106  0.83500037  0.83367134  1
  Ni  Ni45  1  0.83588171  0.16816467  0.50116608  1
  Ni  Ni46  1  0.66703937  1.00083844  0.66777653  1
  Ni  Ni47  1  0.83330531  0.16895455  0.83529010  1
  Ni  Ni48  1  0.83558579  0.50220651  0.50247526  1
  Ni  Ni49  1  0.66814843  0.33509340  0.66893234  1
  Ni  Ni50  1  0.83485526  0.50122890  0.83418630  1
  Ni  Ni51  1  0.83158303  0.83333234  0.49997372  1
  Ni  Ni52  1  0.66705750  0.66776267  0.66668508  1
  Ni  Ni53  1  0.83368748  0.83351014  0.83529373  1
" 