6502,Ni83Fe13Cr3_5,-240.694380579581, 195.044038165876,Ni83Fe13Cr3,"# generated using pymatgen
 data_Cr2Fe7Ni45
_symmetry_space_group_name_H-M   'P 1'
_cell_length_a   7.43778610
_cell_length_b   7.43778610
_cell_length_c   10.51861797
_cell_angle_alpha   90.00000000
_cell_angle_beta   90.00000000
_cell_angle_gamma   90.00000000
_symmetry_Int_Tables_number   1
_chemical_formula_structural   Cr2Fe7Ni45
_chemical_formula_sum   'Cr2 Fe7 Ni45'
_cell_volume   581.89690981
_cell_formula_units_Z   1
loop_
 _symmetry_equiv_pos_site_id
 _symmetry_equiv_pos_as_xyz
  1  'x, y, z'
loop_
 _atom_site_type_symbol
 _atom_site_label
 _atom_site_symmetry_multiplicity
 _atom_site_fract_x
 _atom_site_fract_y
 _atom_site_fract_z
 _atom_site_occupancy
  Ni  Ni0  1  0.00234000  0.00199427  0.00209628  1
  Ni  Ni1  1  0.16759361  0.16868143  0.16903587  1
  Ni  Ni2  1  0.00219866  0.00377833  0.33529930  1
  Ni  Ni3  1  0.00206012  0.33573503  0.00203848  1
  Ni  Ni4  1  0.16785779  0.50114568  0.16818880  1
  Ni  Ni5  1  1.00192120  0.33375323  0.33525701  1
  Ni  Ni6  1  0.00239461  0.66817183  1.00191368  1
  Ni  Ni7  1  0.16871875  0.83607360  0.16796754  1
  Cr  Cr8  1  0.00214256  0.66886254  0.33456253  1
  Ni  Ni9  1  0.33527819  0.00215005  0.00214272  1
  Ni  Ni10  1  0.50241690  0.16726944  0.16855184  1
  Ni  Ni11  1  0.33560292  0.00215063  0.33503719  1
  Ni  Ni12  1  0.33442844  0.33444966  1.00069635  1
  Cr  Cr13  1  0.50165549  0.50199059  0.16878234  1
  Ni  Ni14  1  0.33480990  0.33430991  0.33638325  1
  Ni  Ni15  1  0.33393926  0.66930152  1.00118198  1
  Ni  Ni16  1  0.50214197  0.83663594  0.16964705  1
  Ni  Ni17  1  0.33616342  0.66944095  0.33626354  1
  Ni  Ni18  1  0.66828295  0.00248427  1.00186783  1
  Ni  Ni19  1  0.83589097  0.16812909  0.16959008  1
  Ni  Ni20  1  0.66809915  0.00242408  0.33541342  1
  Ni  Ni21  1  0.66941317  0.33439503  1.00119648  1
  Fe  Fe22  1  0.83629752  0.50101668  0.16774191  1
  Ni  Ni23  1  0.66917066  0.33431220  0.33598233  1
  Ni  Ni24  1  0.66956840  0.66902231  1.00090822  1
  Ni  Ni25  1  0.83504088  0.83690297  0.16774647  1
  Ni  Ni26  1  0.66754289  0.66916391  0.33664018  1
  Fe  Fe27  1  0.16908147  0.16758824  0.50137622  1
  Ni  Ni28  1  0.00247633  1.00139732  0.66850697  1
  Ni  Ni29  1  0.16804249  0.16822703  0.83540778  1
  Fe  Fe30  1  0.17008518  0.50254809  0.50226608  1
  Fe  Fe31  1  1.00112702  0.33563921  0.66939582  1
  Ni  Ni32  1  0.16825643  0.50242601  0.83506722  1
  Ni  Ni33  1  0.16890204  0.83632429  0.50240793  1
  Ni  Ni34  1  0.00241928  0.66883438  0.66885050  1
  Ni  Ni35  1  0.16887678  0.83524812  0.83552476  1
  Ni  Ni36  1  0.50207493  0.16921351  0.50155854  1
  Ni  Ni37  1  0.33493624  1.00161149  0.66872124  1
  Ni  Ni38  1  0.50251617  0.16877524  0.83579117  1
  Ni  Ni39  1  0.50291013  0.50169934  0.50197057  1
  Fe  Fe40  1  0.33634836  0.33524102  0.66910213  1
  Ni  Ni41  1  0.50251630  0.50209174  0.83483884  1
  Ni  Ni42  1  0.50174500  0.83498834  0.50111990  1
  Ni  Ni43  1  0.33472115  0.66889285  0.66845475  1
  Ni  Ni44  1  0.50134600  0.83503426  0.83513441  1
  Fe  Fe45  1  0.83410795  0.16794106  0.50169275  1
  Ni  Ni46  1  0.66848817  0.00277816  0.66862079  1
  Ni  Ni47  1  0.83534254  0.16939673  0.83480157  1
  Ni  Ni48  1  0.83387953  0.50140861  0.50192079  1
  Ni  Ni49  1  0.66854774  0.33545344  0.66872205  1
  Ni  Ni50  1  0.83512890  0.50125673  0.83601266  1
  Ni  Ni51  1  0.83525427  0.83548818  0.50323299  1
  Ni  Ni52  1  0.66876168  0.66766899  0.66835318  1
  Fe  Fe53  1  0.83536014  0.83530504  0.83523826  1
" 