2034,Ni83Fe2Cr13_9,-234.200022027776, 163.326586430006,Ni83Fe2Cr13,"# generated using pymatgen
 data_Cr8FeNi45
_symmetry_space_group_name_H-M   'P 1'
_cell_length_a   7.47014572
_cell_length_b   7.47014572
_cell_length_c   10.56438140
_cell_angle_alpha   90.00000000
_cell_angle_beta   90.00000000
_cell_angle_gamma   90.00000000
_symmetry_Int_Tables_number   1
_chemical_formula_structural   Cr8FeNi45
_chemical_formula_sum   'Cr8 Fe1 Ni45'
_cell_volume   589.52499011
_cell_formula_units_Z   1
loop_
 _symmetry_equiv_pos_site_id
 _symmetry_equiv_pos_as_xyz
  1  'x, y, z'
loop_
 _atom_site_type_symbol
 _atom_site_label
 _atom_site_symmetry_multiplicity
 _atom_site_fract_x
 _atom_site_fract_y
 _atom_site_fract_z
 _atom_site_occupancy
  Ni  Ni0  1  0.99977421  0.99930937  0.99963935  1
  Ni  Ni1  1  0.16557834  0.16756320  0.16580734  1
  Cr  Cr2  1  0.99936404  0.99858661  0.33309433  1
  Ni  Ni3  1  0.00082076  0.33217708  0.00105251  1
  Ni  Ni4  1  0.16530949  0.50014111  0.16728096  1
  Ni  Ni5  1  0.00085757  0.33596560  0.33214078  1
  Ni  Ni6  1  0.00058625  0.66789114  0.00082341  1
  Ni  Ni7  1  0.16652406  0.83167346  0.16455833  1
  Ni  Ni8  1  0.99871628  0.66452366  0.33329994  1
  Ni  Ni9  1  0.33299129  0.99793946  0.99964489  1
  Ni  Ni10  1  0.50090752  0.16547523  0.16752709  1
  Cr  Cr11  1  0.33363781  -0.00011794  0.33270205  1
  Cr  Cr12  1  0.33184200  0.33327741  0.99959782  1
  Ni  Ni13  1  0.49995908  0.50101299  0.16826661  1
  Ni  Ni14  1  0.33274151  0.33487367  0.33251071  1
  Ni  Ni15  1  0.33299208  0.66844935  0.00024218  1
  Ni  Ni16  1  0.50083135  0.83289090  0.16554336  1
  Fe  Fe17  1  0.33349222  0.66434995  0.33312491  1
  Ni  Ni18  1  0.66661241  0.99770455  0.00037879  1
  Ni  Ni19  1  0.83289250  0.16669224  0.16632809  1
  Ni  Ni20  1  0.66595252  0.99801080  0.33107058  1
  Cr  Cr21  1  0.66677423  0.33259589  0.00019324  1
  Ni  Ni22  1  0.83410888  0.50006463  0.16768452  1
  Ni  Ni23  1  0.66577884  0.33523564  0.33163677  1
  Ni  Ni24  1  0.66579944  0.66949698  0.00047502  1
  Ni  Ni25  1  0.83202265  0.83262097  0.16569697  1
  Ni  Ni26  1  0.66704661  0.66612972  0.33353393  1
  Ni  Ni27  1  0.16638879  0.16790974  0.50172332  1
  Ni  Ni28  1  0.00256123  0.99911739  0.66707602  1
  Ni  Ni29  1  0.16578437  0.16551527  0.83184904  1
  Ni  Ni30  1  0.16611828  0.49995313  0.49966578  1
  Ni  Ni31  1  0.00182458  0.33295317  0.66618561  1
  Ni  Ni32  1  0.16739014  0.50025173  0.83243066  1
  Ni  Ni33  1  0.16629247  0.83151449  0.50181705  1
  Ni  Ni34  1  0.00054746  0.66730704  0.66525564  1
  Ni  Ni35  1  0.16682954  0.83361165  0.83300460  1
  Cr  Cr36  1  0.49852445  0.16769458  0.49959731  1
  Ni  Ni37  1  0.33040031  0.99952144  0.66724415  1
  Ni  Ni38  1  0.49907841  0.16551258  0.83221629  1
  Ni  Ni39  1  0.49999861  0.50156216  0.50013407  1
  Ni  Ni40  1  0.33235257  0.33376491  0.66708712  1
  Ni  Ni41  1  0.49834361  0.50112517  0.83097519  1
  Ni  Ni42  1  0.49982493  0.82990639  0.49972518  1
  Ni  Ni43  1  0.33322450  0.66609051  0.66601013  1
  Ni  Ni44  1  0.49890444  0.83274177  0.83410880  1
  Cr  Cr45  1  0.83441517  0.16809116  0.49979034  1
  Cr  Cr46  1  0.66669997  0.99805108  0.66776574  1
  Ni  Ni47  1  0.83451606  0.16495505  0.83326081  1
  Ni  Ni48  1  0.83326084  0.50165821  0.49967207  1
  Ni  Ni49  1  0.66520065  0.33577898  0.66703705  1
  Cr  Cr50  1  0.83389729  0.50034491  0.83226444  1
  Ni  Ni51  1  0.83325972  0.82963587  0.49980682  1
  Ni  Ni52  1  0.66560547  0.66535275  0.66536917  1
  Ni  Ni53  1  0.83364441  0.83434742  0.83387532  1
" 