5577,Ni83Fe13Cr3_3,-240.436659919162, 194.508207304394,Ni83Fe13Cr3,"# generated using pymatgen
 data_Cr2Fe7Ni45
_symmetry_space_group_name_H-M   'P 1'
_cell_length_a   7.43527821
_cell_length_b   7.43527821
_cell_length_c   10.51507128
_cell_angle_alpha   90.00000000
_cell_angle_beta   90.00000000
_cell_angle_gamma   90.00000000
_symmetry_Int_Tables_number   1
_chemical_formula_structural   Cr2Fe7Ni45
_chemical_formula_sum   'Cr2 Fe7 Ni45'
_cell_volume   581.30849282
_cell_formula_units_Z   1
loop_
 _symmetry_equiv_pos_site_id
 _symmetry_equiv_pos_as_xyz
  1  'x, y, z'
loop_
 _atom_site_type_symbol
 _atom_site_label
 _atom_site_symmetry_multiplicity
 _atom_site_fract_x
 _atom_site_fract_y
 _atom_site_fract_z
 _atom_site_occupancy
  Ni  Ni0  1  0.00262789  1.00194436  1.00210161  1
  Ni  Ni1  1  0.16884172  0.16868327  0.16888488  1
  Ni  Ni2  1  0.00262897  1.00143538  0.33558778  1
  Ni  Ni3  1  0.00339969  0.33488851  1.00127628  1
  Ni  Ni4  1  0.16956836  0.50207869  0.16867408  1
  Ni  Ni5  1  0.00340031  0.33540072  0.33641195  1
  Fe  Fe6  1  0.00275362  0.66936997  1.00110193  1
  Ni  Ni7  1  0.17005399  0.83564972  0.16867356  1
  Ni  Ni8  1  0.00244389  0.66957559  0.33600261  1
  Ni  Ni9  1  0.33515046  1.00211327  1.00200397  1
  Ni  Ni10  1  0.50249962  0.16768065  0.16838494  1
  Ni  Ni11  1  0.33543412  0.00239646  0.33547255  1
  Ni  Ni12  1  0.33510274  0.33544944  1.00188986  1
  Fe  Fe13  1  0.50045914  0.50124103  0.16870072  1
  Ni  Ni14  1  0.33538822  0.33516603  0.33558651  1
  Fe  Fe15  1  0.33580321  0.66908593  1.00142044  1
  Ni  Ni16  1  0.50159991  0.83633962  0.16888503  1
  Fe  Fe17  1  0.33523825  0.66908557  0.33608343  1
  Ni  Ni18  1  0.66863287  1.00115431  0.00234741  1
  Ni  Ni19  1  0.83506729  0.16816499  0.16888504  1
  Ni  Ni20  1  0.66834775  1.00143902  0.33513017  1
  Ni  Ni21  1  0.66790339  0.33563331  1.00152735  1
  Cr  Cr22  1  0.83579745  0.50071705  0.16880632  1
  Ni  Ni23  1  0.66761754  0.33534947  0.33594908  1
  Ni  Ni24  1  0.66807160  0.66962190  1.00074718  1
  Fe  Fe25  1  0.83567417  0.83773287  0.16903330  1
  Ni  Ni26  1  0.66857976  0.66962061  0.33694174  1
  Ni  Ni27  1  0.16790169  0.16962295  0.50090146  1
  Ni  Ni28  1  1.00050992  1.00130755  0.66872107  1
  Ni  Ni29  1  0.16738803  0.16962223  0.83662282  1
  Ni  Ni30  1  0.16867370  0.50201699  0.50222100  1
  Ni  Ni31  1  1.00203295  0.33641472  0.66872110  1
  Ni  Ni32  1  0.16895761  0.50173147  0.83551324  1
  Ni  Ni33  1  0.16836073  0.83476944  0.50140215  1
  Ni  Ni34  1  0.00252221  0.66868745  0.66922123  1
  Ni  Ni35  1  0.16864502  0.83505524  0.83633217  1
  Ni  Ni36  1  0.50316889  0.16936827  0.50155571  1
  Cr  Cr37  1  0.33539026  1.00198798  0.66879916  1
  Fe  Fe38  1  0.50298923  0.16970600  0.83637700  1
  Ni  Ni39  1  0.50234418  0.50221877  0.50147412  1
  Ni  Ni40  1  0.33558351  0.33773228  0.66893127  1
  Ni  Ni41  1  0.50234435  0.50273093  0.83605030  1
  Ni  Ni42  1  0.50291100  0.83482236  0.50136069  1
  Ni  Ni43  1  0.33488132  0.66716246  0.66872113  1
  Ni  Ni44  1  0.50291027  0.83431249  0.83616328  1
  Ni  Ni45  1  0.83533899  0.16905601  0.50187429  1
  Ni  Ni46  1  0.67032004  1.00200978  0.66893248  1
  Ni  Ni47  1  0.83585010  0.16905618  0.83564996  1
  Ni  Ni48  1  0.83539058  0.50176076  0.50250634  1
  Ni  Ni49  1  0.66879245  0.33571651  0.66893199  1
  Ni  Ni50  1  0.83510793  0.50147613  0.83522983  1
  Ni  Ni51  1  0.83513722  0.83559302  0.50168256  1
  Fe  Fe52  1  0.66897245  0.66853234  0.66890513  1
  Ni  Ni53  1  0.83485478  0.83587735  0.83605420  1
" 