7182,Ni84Fe11Cr4_15,-238.403486349592, 184.165176794144,Ni84Fe11Cr4,"# generated using pymatgen
 data_Cr4(FeNi9)5
_symmetry_space_group_name_H-M   'P 1'
_cell_length_a   7.44681185
_cell_length_b   7.44681185
_cell_length_c   10.53138231
_cell_angle_alpha   90.00000000
_cell_angle_beta   90.00000000
_cell_angle_gamma   90.00000000
_symmetry_Int_Tables_number   1
_chemical_formula_structural   Cr4(FeNi9)5
_chemical_formula_sum   'Cr4 Fe5 Ni45'
_cell_volume   584.01787651
_cell_formula_units_Z   1
loop_
 _symmetry_equiv_pos_site_id
 _symmetry_equiv_pos_as_xyz
  1  'x, y, z'
loop_
 _atom_site_type_symbol
 _atom_site_label
 _atom_site_symmetry_multiplicity
 _atom_site_fract_x
 _atom_site_fract_y
 _atom_site_fract_z
 _atom_site_occupancy
  Fe  Fe0  1  1.00046120  1.00036044  0.99999672  1
  Cr  Cr1  1  0.16679775  0.16826870  0.16652330  1
  Fe  Fe2  1  0.99827872  1.00006700  0.33616300  1
  Ni  Ni3  1  1.00078599  0.33603515  1.00079880  1
  Ni  Ni4  1  0.16798523  0.50433886  0.16742692  1
  Ni  Ni5  1  0.99873022  0.33611314  0.33545683  1
  Ni  Ni6  1  0.00165312  0.66737839  1.00115520  1
  Ni  Ni7  1  0.16679108  0.83174082  0.16768086  1
  Ni  Ni8  1  0.00139261  0.66747992  0.33490524  1
  Ni  Ni9  1  0.33610057  1.00066416  1.00007054  1
  Ni  Ni10  1  0.50493612  0.16893651  0.16661838  1
  Cr  Cr11  1  0.33628020  0.99918112  0.33628308  1
  Ni  Ni12  1  0.33465355  0.33477620  1.00057762  1
  Ni  Ni13  1  0.50202252  0.50167432  0.16742673  1
  Cr  Cr14  1  0.33456138  0.33656163  0.33536888  1
  Ni  Ni15  1  0.33378393  0.66863582  0.00220772  1
  Fe  Fe16  1  0.50248662  0.83360294  0.16719795  1
  Ni  Ni17  1  0.33378485  0.66866793  0.33430236  1
  Ni  Ni18  1  0.66737988  0.00153117  0.00168589  1
  Ni  Ni19  1  0.83234088  0.16773985  0.16848834  1
  Ni  Ni20  1  0.66950735  1.00135030  0.33462933  1
  Ni  Ni21  1  0.66863697  0.33371839  0.00162387  1
  Ni  Ni22  1  0.83406775  0.50167715  0.16871042  1
  Ni  Ni23  1  0.67069155  0.33379977  0.33463156  1
  Ni  Ni24  1  0.66863946  0.66882649  0.00137726  1
  Ni  Ni25  1  0.83500886  0.83465773  0.16824305  1
  Ni  Ni26  1  0.66889881  0.66892626  0.33468215  1
  Ni  Ni27  1  0.16630400  0.16808502  0.50319871  1
  Ni  Ni28  1  0.00340808  0.00204248  0.66775963  1
  Ni  Ni29  1  0.16815175  0.16787146  0.83425705  1
  Ni  Ni30  1  0.16843695  0.50205089  0.50139794  1
  Ni  Ni31  1  0.00188092  0.33411119  0.66782121  1
  Ni  Ni32  1  0.16841073  0.50123503  0.83525152  1
  Ni  Ni33  1  0.16717487  0.83393953  0.50195532  1
  Fe  Fe34  1  0.00191209  0.66808788  0.66829414  1
  Ni  Ni35  1  0.16796244  0.83496915  0.83444025  1
  Ni  Ni36  1  0.50236464  0.16933767  0.50200149  1
  Ni  Ni37  1  0.33260779  1.00116900  0.66789970  1
  Ni  Ni38  1  0.50051889  0.16912366  0.83545669  1
  Ni  Ni39  1  0.50149080  0.50205488  0.50211105  1
  Ni  Ni40  1  0.33368981  0.33453615  0.66793976  1
  Ni  Ni41  1  0.50151656  0.50123992  0.83453693  1
  Ni  Ni42  1  0.50149840  0.83268305  0.50062716  1
  Ni  Ni43  1  0.33475770  0.66837125  0.66756460  1
  Ni  Ni44  1  0.50071368  0.83371220  0.83577006  1
  Ni  Ni45  1  0.83540586  0.16807393  0.49964650  1
  Cr  Cr46  1  0.66759614  1.00093521  0.66820128  1
  Ni  Ni47  1  0.83540537  0.16867385  0.83594191  1
  Fe  Fe48  1  0.83441406  0.50103794  0.50105210  1
  Ni  Ni49  1  0.66850625  0.33625962  0.66782047  1
  Ni  Ni50  1  0.83414901  0.50142985  0.83434202  1
  Ni  Ni51  1  0.83540131  0.83481517  0.50027972  1
  Ni  Ni52  1  0.66763345  0.66684130  0.66801582  1
  Ni  Ni53  1  0.83540037  0.83397160  0.83555405  1
" 