5627,Ni84Fe16_5,-230.935505315339, 173.636224257267,Ni84Fe16,"# generated using pymatgen
 data_Fe5Ni
_symmetry_space_group_name_H-M   'P 1'
_cell_length_a   7.40242438
_cell_length_b   7.40242438
_cell_length_c   10.46860895
_cell_angle_alpha   90.00000000
_cell_angle_beta   90.00000000
_cell_angle_gamma   90.00000000
_symmetry_Int_Tables_number   1
_chemical_formula_structural   Fe5Ni
_chemical_formula_sum   'Fe45 Ni9'
_cell_volume   573.63670974
_cell_formula_units_Z   9
loop_
 _symmetry_equiv_pos_site_id
 _symmetry_equiv_pos_as_xyz
  1  'x, y, z'
loop_
 _atom_site_type_symbol
 _atom_site_label
 _atom_site_symmetry_multiplicity
 _atom_site_fract_x
 _atom_site_fract_y
 _atom_site_fract_z
 _atom_site_occupancy
  Fe  Fe0  1  0.00436700  0.00487917  0.00436653  1
  Fe  Fe1  1  0.17077552  0.17128819  0.17059629  1
  Fe  Fe2  1  1.00414050  0.00528099  0.33777751  1
  Fe  Fe3  1  0.00439485  0.33775928  1.00427495  1
  Fe  Fe4  1  0.17080751  0.50362322  0.17059640  1
  Fe  Fe5  1  1.00341243  0.33744135  0.33795923  1
  Fe  Fe6  1  0.00442294  0.67045768  0.00436545  1
  Fe  Fe7  1  0.17028231  0.83818161  0.17169842  1
  Fe  Fe8  1  1.00388481  0.67037471  0.33822301  1
  Fe  Fe9  1  0.33801387  0.00447236  1.00402061  1
  Fe  Fe10  1  0.50496675  0.17163643  0.17103177  1
  Fe  Fe11  1  0.33801570  0.00450148  0.33865014  1
  Ni  Ni12  1  0.33714811  0.33693593  0.00446759  1
  Fe  Fe13  1  0.50510475  0.50344688  0.17059110  1
  Fe  Fe14  1  0.33795228  0.33743967  0.33720363  1
  Fe  Fe15  1  0.33831012  0.67051393  0.00445763  1
  Fe  Fe16  1  0.50528415  0.83801140  0.17125856  1
  Fe  Fe17  1  0.33826884  0.67115391  0.33821269  1
  Fe  Fe18  1  0.67071378  0.00450269  0.00462223  1
  Ni  Ni19  1  0.83769463  0.17197376  0.17041487  1
  Fe  Fe20  1  0.67094302  0.00496746  0.33752053  1
  Fe  Fe21  1  0.67076921  0.33805453  0.00528224  1
  Fe  Fe22  1  0.83718177  0.50394440  0.17169428  1
  Ni  Ni23  1  0.67103934  0.33769738  0.33769067  1
  Ni  Ni24  1  0.67168769  0.67147516  0.00458038  1
  Fe  Fe25  1  0.83753148  0.83804884  0.17041727  1
  Fe  Fe26  1  0.67094240  0.67042938  0.33764451  1
  Ni  Ni27  1  0.17092285  0.17029911  0.50360143  1
  Fe  Fe28  1  0.00523411  0.00472022  0.67095123  1
  Ni  Ni29  1  0.17103488  0.17103460  0.83897688  1
  Fe  Fe30  1  0.17108088  0.50511355  0.50436464  1
  Fe  Fe31  1  0.00453826  0.33743378  0.67085678  1
  Fe  Fe32  1  0.17137997  0.50349955  0.83813541  1
  Ni  Ni33  1  0.17273022  0.83888469  0.50478559  1
  Fe  Fe34  1  1.00427657  0.67094090  0.67050690  1
  Fe  Fe35  1  0.17085379  0.83821443  0.83712433  1
  Fe  Fe36  1  0.50410440  0.17077282  0.50410700  1
  Fe  Fe37  1  0.33717957  1.00428624  0.67042684  1
  Fe  Fe38  1  0.50350094  0.17138138  0.83795685  1
  Fe  Fe39  1  0.50399181  0.50461891  0.50410677  1
  Fe  Fe40  1  0.33708474  0.33708581  0.67195998  1
  Fe  Fe41  1  0.50370687  0.50370320  0.83839914  1
  Ni  Ni42  1  0.50363598  0.83708033  0.50425968  1
  Fe  Fe43  1  0.33778765  0.67172318  0.67042683  1
  Fe  Fe44  1  0.50423029  0.83801001  0.83738510  1
  Fe  Fe45  1  0.83786830  0.17065992  0.50344440  1
  Fe  Fe46  1  0.67068386  1.00401828  0.67094876  1
  Fe  Fe47  1  0.83821295  0.17085570  0.83827133  1
  Ni  Ni48  1  0.83672972  0.50390682  0.50383948  1
  Fe  Fe49  1  0.67146780  0.33804322  0.67010799  1
  Fe  Fe50  1  0.83800890  0.50422872  0.83720561  1
  Fe  Fe51  1  0.83836346  0.83766015  0.50454243  1
  Fe  Fe52  1  0.67103148  0.67102988  0.67126355  1
  Fe  Fe53  1  0.83801424  0.83801309  0.83813680  1
" 