8882,Ni84Fe11Cr4_3,-238.674239252991, 187.148972945894,Ni84Fe11Cr4,"# generated using pymatgen
 data_Cr4(FeNi9)5
_symmetry_space_group_name_H-M   'P 1'
_cell_length_a   7.44654672
_cell_length_b   7.44654672
_cell_length_c   10.53100737
_cell_angle_alpha   90.00000000
_cell_angle_beta   90.00000000
_cell_angle_gamma   90.00000000
_symmetry_Int_Tables_number   1
_chemical_formula_structural   Cr4(FeNi9)5
_chemical_formula_sum   'Cr4 Fe5 Ni45'
_cell_volume   583.95550106
_cell_formula_units_Z   1
loop_
 _symmetry_equiv_pos_site_id
 _symmetry_equiv_pos_as_xyz
  1  'x, y, z'
loop_
 _atom_site_type_symbol
 _atom_site_label
 _atom_site_symmetry_multiplicity
 _atom_site_fract_x
 _atom_site_fract_y
 _atom_site_fract_z
 _atom_site_occupancy
  Ni  Ni0  1  1.00024036  1.00098078  0.00148827  1
  Ni  Ni1  1  0.16778538  0.16955814  0.16771676  1
  Ni  Ni2  1  1.00113807  1.00083618  0.33490223  1
  Ni  Ni3  1  1.00100418  0.33581532  0.00276210  1
  Ni  Ni4  1  0.16772175  0.49951837  0.16842929  1
  Ni  Ni5  1  1.00105290  0.33553346  0.33376842  1
  Ni  Ni6  1  1.00036413  0.66733164  1.00087237  1
  Cr  Cr7  1  0.16809378  0.83508366  0.16784414  1
  Ni  Ni8  1  1.00132346  0.66776107  0.33565887  1
  Ni  Ni9  1  0.33638720  0.00143112  0.00142917  1
  Ni  Ni10  1  0.50120826  0.16827020  0.16816325  1
  Ni  Ni11  1  0.33563416  0.00218575  0.33464698  1
  Ni  Ni12  1  0.33555977  0.33530062  0.00271379  1
  Ni  Ni13  1  0.50090827  0.50045317  0.16682771  1
  Ni  Ni14  1  0.33570485  0.33417997  0.33351212  1
  Ni  Ni15  1  0.33574861  0.66739706  1.00081342  1
  Ni  Ni16  1  0.50194167  0.83541119  0.16729183  1
  Fe  Fe17  1  0.33355369  0.66691295  0.33492895  1
  Ni  Ni18  1  0.66749567  1.00079370  0.00217577  1
  Ni  Ni19  1  0.83514232  0.16853580  0.16846242  1
  Fe  Fe20  1  0.66853553  0.00364412  0.33471754  1
  Ni  Ni21  1  0.66756606  0.33517783  0.00138024  1
  Ni  Ni22  1  0.83549380  0.50025482  0.16715009  1
  Ni  Ni23  1  0.66736870  0.33400737  0.33515048  1
  Ni  Ni24  1  0.66801179  0.66815754  0.00155881  1
  Ni  Ni25  1  0.83420903  0.83534803  0.16686361  1
  Cr  Cr26  1  0.66895307  0.66778953  0.33405150  1
  Cr  Cr27  1  0.16743612  0.16720345  0.50161161  1
  Ni  Ni28  1  1.00043832  0.99909995  0.66774142  1
  Cr  Cr29  1  0.16755160  0.16735982  0.83532174  1
  Fe  Fe30  1  0.16751957  0.50268317  0.50130457  1
  Ni  Ni31  1  1.00005162  0.33676587  0.66760263  1
  Ni  Ni32  1  0.16750017  0.50347591  0.83436105  1
  Ni  Ni33  1  0.16790239  0.83374140  0.50150929  1
  Ni  Ni34  1  1.00071979  0.66826559  0.66759645  1
  Ni  Ni35  1  0.16858606  0.83332853  0.83446309  1
  Ni  Ni36  1  0.50281796  0.16831242  0.50164280  1
  Ni  Ni37  1  0.33640849  1.00038613  0.66805649  1
  Ni  Ni38  1  0.50310466  0.16776962  0.83432015  1
  Ni  Ni39  1  0.50160207  0.50073096  0.50245797  1
  Ni  Ni40  1  0.33673419  0.33541482  0.66790760  1
  Ni  Ni41  1  0.50199227  0.50185492  0.83484460  1
  Ni  Ni42  1  0.49999687  0.83509149  0.50205155  1
  Fe  Fe43  1  0.33492322  0.66835742  0.66877832  1
  Ni  Ni44  1  0.50044863  0.83450585  0.83478531  1
  Ni  Ni45  1  0.83355005  0.16857801  0.50139125  1
  Ni  Ni46  1  0.66727440  1.00104754  0.66700499  1
  Ni  Ni47  1  0.83346100  0.16886205  0.83427228  1
  Ni  Ni48  1  0.83488459  0.50058809  0.50220133  1
  Ni  Ni49  1  0.66734460  0.33513727  0.66760026  1
  Ni  Ni50  1  0.83463910  0.50082628  0.83477573  1
  Ni  Ni51  1  0.83622828  0.83497422  0.50254653  1
  Ni  Ni52  1  0.66862680  0.66794626  0.66817722  1
  Fe  Fe53  1  0.83444364  0.83435654  0.83472659  1
" 