4761,Ni84Fe11Cr4_5,-238.403097289946, 184.504010751298,Ni84Fe11Cr4,"# generated using pymatgen
 data_Cr4(FeNi9)5
_symmetry_space_group_name_H-M   'P 1'
_cell_length_a   7.44662161
_cell_length_b   7.44662161
_cell_length_c   10.53111327
_cell_angle_alpha   90.00000000
_cell_angle_beta   90.00000000
_cell_angle_gamma   90.00000000
_symmetry_Int_Tables_number   1
_chemical_formula_structural   Cr4(FeNi9)5
_chemical_formula_sum   'Cr4 Fe5 Ni45'
_cell_volume   583.97311900
_cell_formula_units_Z   1
loop_
 _symmetry_equiv_pos_site_id
 _symmetry_equiv_pos_as_xyz
  1  'x, y, z'
loop_
 _atom_site_type_symbol
 _atom_site_label
 _atom_site_symmetry_multiplicity
 _atom_site_fract_x
 _atom_site_fract_y
 _atom_site_fract_z
 _atom_site_occupancy
  Ni  Ni0  1  1.00104209  1.00101481  1.00082818  1
  Ni  Ni1  1  0.16781573  0.16897724  0.16844817  1
  Ni  Ni2  1  1.00130531  1.00077748  0.33482775  1
  Fe  Fe3  1  0.00223136  0.33371444  0.00187619  1
  Ni  Ni4  1  0.16768556  0.49940390  0.16715800  1
  Fe  Fe5  1  0.00311400  0.33409880  0.33481327  1
  Ni  Ni6  1  0.00226545  0.66935539  0.00234869  1
  Fe  Fe7  1  0.16659845  0.83511994  0.16717480  1
  Ni  Ni8  1  0.99980214  0.66881228  0.33473323  1
  Ni  Ni9  1  0.33330090  1.00102278  0.00250745  1
  Fe  Fe10  1  0.50088950  0.16771366  0.16752301  1
  Ni  Ni11  1  0.33393545  0.00358462  0.33466813  1
  Ni  Ni12  1  0.33473943  0.33606993  0.00225428  1
  Ni  Ni13  1  0.50114721  0.50225853  0.16592127  1
  Ni  Ni14  1  0.33360871  0.33308221  0.33482746  1
  Ni  Ni15  1  0.33440272  0.66701975  1.00090349  1
  Ni  Ni16  1  0.50329327  0.83487016  0.16740756  1
  Cr  Cr17  1  0.33428792  0.66760738  0.33470870  1
  Ni  Ni18  1  0.66976618  1.00134556  0.00231367  1
  Ni  Ni19  1  0.83615178  0.16683168  0.16671977  1
  Ni  Ni20  1  0.66887519  1.00039878  0.33457460  1
  Ni  Ni21  1  0.66743690  0.33484842  0.00277885  1
  Ni  Ni22  1  0.83528538  0.50254301  0.16799419  1
  Cr  Cr23  1  0.66710634  0.33475630  0.33491959  1
  Ni  Ni24  1  0.66744353  0.66792028  0.00256500  1
  Ni  Ni25  1  0.83329870  0.83473831  0.16819674  1
  Ni  Ni26  1  0.67031362  0.66913961  0.33446897  1
  Ni  Ni27  1  0.16809260  0.16869773  0.50133868  1
  Ni  Ni28  1  1.00117039  0.00153019  0.66845801  1
  Ni  Ni29  1  0.16631689  0.16808080  0.83432604  1
  Ni  Ni30  1  0.16796646  0.50012155  0.50212389  1
  Ni  Ni31  1  0.00207405  0.33361693  0.66728045  1
  Ni  Ni32  1  0.16994534  0.50133050  0.83482955  1
  Ni  Ni33  1  0.16705741  0.83529612  0.50164928  1
  Ni  Ni34  1  0.00246729  0.66896693  0.66703918  1
  Ni  Ni35  1  0.16807410  0.83470302  0.83510419  1
  Ni  Ni36  1  0.50058902  0.16745520  0.50123344  1
  Ni  Ni37  1  0.33350938  1.00080756  0.66693283  1
  Cr  Cr38  1  0.50140803  0.16786116  0.83475159  1
  Ni  Ni39  1  0.50077185  0.50142175  0.50330851  1
  Ni  Ni40  1  0.33421948  0.33594745  0.66702940  1
  Ni  Ni41  1  0.49942724  0.50335066  0.83488990  1
  Ni  Ni42  1  0.50292288  0.83523863  0.50227489  1
  Ni  Ni43  1  0.33454542  0.66735853  0.66863570  1
  Ni  Ni44  1  0.50150248  0.83288614  0.83443170  1
  Ni  Ni45  1  0.83543408  0.16654150  0.50256317  1
  Ni  Ni46  1  0.66943413  1.00120263  0.66722117  1
  Ni  Ni47  1  0.83656220  0.16600393  0.83483183  1
  Fe  Fe48  1  0.83533522  0.50257248  0.50214565  1
  Ni  Ni49  1  0.66782548  0.33465055  0.66660496  1
  Cr  Cr50  1  0.83449360  0.50150603  0.83459552  1
  Ni  Ni51  1  0.83413379  0.83511087  0.50102801  1
  Ni  Ni52  1  0.66710170  0.66826306  0.66708365  1
  Ni  Ni53  1  0.83453739  0.83651354  0.83488854  1
" 