2121,Ni84Fe13Cr2_18,-240.515348831767, 192.556229882871,Ni84Fe13Cr2,"# generated using pymatgen
 data_Cr2Fe7Ni45
_symmetry_space_group_name_H-M   'P 1'
_cell_length_a   7.44068459
_cell_length_b   7.44068459
_cell_length_c   10.52271706
_cell_angle_alpha   90.00000000
_cell_angle_beta   90.00000000
_cell_angle_gamma   90.00000000
_symmetry_Int_Tables_number   1
_chemical_formula_structural   Cr2Fe7Ni45
_chemical_formula_sum   'Cr2 Fe7 Ni45'
_cell_volume   582.57746700
_cell_formula_units_Z   1
loop_
 _symmetry_equiv_pos_site_id
 _symmetry_equiv_pos_as_xyz
  1  'x, y, z'
loop_
 _atom_site_type_symbol
 _atom_site_label
 _atom_site_symmetry_multiplicity
 _atom_site_fract_x
 _atom_site_fract_y
 _atom_site_fract_z
 _atom_site_occupancy
  Fe  Fe0  1  1.00164322  0.00217928  1.00069109  1
  Fe  Fe1  1  0.16917814  0.16886741  0.16831961  1
  Fe  Fe2  1  1.00172469  0.00329513  0.33592146  1
  Ni  Ni3  1  0.00187850  0.33558239  1.00148372  1
  Ni  Ni4  1  0.16841119  0.50175243  0.16784430  1
  Ni  Ni5  1  0.00179312  0.33508867  0.33510861  1
  Ni  Ni6  1  0.00216399  0.66763830  0.00261741  1
  Ni  Ni7  1  0.16811692  0.83550555  0.16780635  1
  Fe  Fe8  1  0.00254789  0.66784274  0.33550471  1
  Ni  Ni9  1  0.33544764  1.00129968  0.00196713  1
  Fe  Fe10  1  0.50117206  0.16831941  0.16848050  1
  Ni  Ni11  1  0.33523542  0.00261653  0.33520805  1
  Ni  Ni12  1  0.33392207  0.33479445  0.00233946  1
  Ni  Ni13  1  0.50101724  0.50040690  0.16653495  1
  Ni  Ni14  1  0.33375904  0.33335874  0.33485298  1
  Ni  Ni15  1  0.33448329  0.66917751  1.00156894  1
  Ni  Ni16  1  0.50093888  0.83622618  0.16665697  1
  Cr  Cr17  1  0.33443136  0.66892302  0.33649957  1
  Ni  Ni18  1  0.66792742  1.00164936  0.00209555  1
  Ni  Ni19  1  0.83509272  0.16821687  0.16846240  1
  Ni  Ni20  1  0.66821628  0.00279634  0.33506923  1
  Ni  Ni21  1  0.66955209  0.33445621  0.00249873  1
  Fe  Fe22  1  0.83583962  0.50078614  0.16734656  1
  Ni  Ni23  1  0.66980328  0.33319364  0.33466893  1
  Ni  Ni24  1  0.66870528  0.66914843  1.00175416  1
  Fe  Fe25  1  0.83530724  0.83564735  0.16715081  1
  Cr  Cr26  1  0.66935301  0.66887786  0.33547555  1
  Ni  Ni27  1  0.16800880  0.16848255  0.50073733  1
  Ni  Ni28  1  0.00191206  0.00210180  0.66860873  1
  Ni  Ni29  1  0.16821622  0.16850506  0.83616713  1
  Ni  Ni30  1  0.16761814  0.50076427  0.50226744  1
  Ni  Ni31  1  0.00191305  0.33496393  0.66862690  1
  Ni  Ni32  1  0.16858002  0.50216723  0.83542592  1
  Ni  Ni33  1  0.16754355  0.83614816  0.50228530  1
  Ni  Ni34  1  1.00136004  0.66826311  0.66734590  1
  Ni  Ni35  1  0.16845043  0.83465728  0.83540535  1
  Ni  Ni36  1  0.50238018  0.16862989  0.50007701  1
  Ni  Ni37  1  0.33483914  0.00209645  0.66794572  1
  Ni  Ni38  1  0.50236784  0.16861994  0.83619509  1
  Ni  Ni39  1  0.50178986  0.49938659  0.50324089  1
  Ni  Ni40  1  0.33414400  0.33427121  0.66791797  1
  Ni  Ni41  1  0.50166866  0.50169004  0.83581338  1
  Ni  Ni42  1  0.50179079  0.83724372  0.50352544  1
  Ni  Ni43  1  0.33470499  0.66894669  0.66849422  1
  Ni  Ni44  1  0.50166894  0.83500962  0.83544109  1
  Ni  Ni45  1  0.83492450  0.16849364  0.50223174  1
  Ni  Ni46  1  0.66856310  1.00153839  0.66795841  1
  Ni  Ni47  1  0.83469817  0.16851952  0.83459887  1
  Ni  Ni48  1  0.83600737  0.50023617  0.50135070  1
  Ni  Ni49  1  0.66925792  0.33482993  0.66793071  1
  Ni  Ni50  1  0.83507273  0.50146760  0.83615218  1
  Ni  Ni51  1  0.83607176  0.83668050  0.50137868  1
  Ni  Ni52  1  0.66925864  0.66894586  0.66849374  1
  Ni  Ni53  1  0.83519092  0.83535781  0.83611988  1
" 