360,Ni84Fe16_17,-230.911312534029, 171.592163437278,Ni84Fe16,"# generated using pymatgen
 data_Fe5Ni
_symmetry_space_group_name_H-M   'P 1'
_cell_length_a   7.40270753
_cell_length_b   7.40270753
_cell_length_c   10.46900939
_cell_angle_alpha   90.00000000
_cell_angle_beta   90.00000000
_cell_angle_gamma   90.00000000
_symmetry_Int_Tables_number   1
_chemical_formula_structural   Fe5Ni
_chemical_formula_sum   'Fe45 Ni9'
_cell_volume   573.70253971
_cell_formula_units_Z   9
loop_
 _symmetry_equiv_pos_site_id
 _symmetry_equiv_pos_as_xyz
  1  'x, y, z'
loop_
 _atom_site_type_symbol
 _atom_site_label
 _atom_site_symmetry_multiplicity
 _atom_site_fract_x
 _atom_site_fract_y
 _atom_site_fract_z
 _atom_site_occupancy
  Fe  Fe0  1  0.00464943  0.00465115  1.00353932  1
  Fe  Fe1  1  0.17159977  0.17151501  0.17075576  1
  Fe  Fe2  1  1.00409886  0.00520644  0.33898700  1
  Fe  Fe3  1  0.00484883  0.33776220  0.00443132  1
  Fe  Fe4  1  0.17151541  0.50384141  0.17084211  1
  Fe  Fe5  1  1.00392377  0.33751222  0.33767379  1
  Fe  Fe6  1  0.00465148  0.67062437  1.00418124  1
  Fe  Fe7  1  0.17100866  0.83768176  0.17157326  1
  Fe  Fe8  1  0.00443221  0.67031866  0.33800822  1
  Fe  Fe9  1  0.33776308  0.00476412  0.00451736  1
  Fe  Fe10  1  0.50400799  0.17176452  0.17117617  1
  Fe  Fe11  1  0.33806555  0.00497906  0.33767433  1
  Ni  Ni12  1  0.33808247  0.33798003  0.00475242  1
  Fe  Fe13  1  0.50409402  0.50359544  0.17126166  1
  Ni  Ni14  1  0.33868500  0.33787750  0.33757653  1
  Fe  Fe15  1  0.33767702  0.67059719  0.00443127  1
  Fe  Fe16  1  0.50434753  0.83767935  0.17084161  1
  Fe  Fe17  1  0.33798238  0.67029406  0.33784738  1
  Fe  Fe18  1  0.67062524  0.00456747  1.00409500  1
  Fe  Fe19  1  0.83743005  0.17126082  0.17182073  1
  Fe  Fe20  1  0.67087379  0.00548753  0.33800759  1
  Fe  Fe21  1  0.67059888  0.33767621  0.00498723  1
  Fe  Fe22  1  0.83742792  0.50418106  0.17117865  1
  Ni  Ni23  1  0.66990357  0.33787416  0.33757893  1
  Fe  Fe24  1  0.67070879  0.67079380  1.00400869  1
  Fe  Fe25  1  0.83768115  0.83759588  0.17075578  1
  Fe  Fe26  1  0.67062519  0.67012695  0.33775908  1
  Fe  Fe27  1  0.17020600  0.17012062  0.50468719  1
  Ni  Ni28  1  1.00329292  1.00269190  0.67109504  1
  Fe  Fe29  1  0.17079836  0.17079753  0.83759570  1
  Fe  Fe30  1  0.17049175  0.50442158  0.50434439  1
  Fe  Fe31  1  0.00459925  0.33691752  0.67093274  1
  Fe  Fe32  1  0.17104942  0.50430737  0.83785072  1
  Ni  Ni33  1  0.17072359  0.83725361  0.50455990  1
  Fe  Fe34  1  0.00472772  0.67170867  0.67084670  1
  Fe  Fe35  1  0.17017393  0.83793025  0.83695817  1
  Fe  Fe36  1  0.50458924  0.17074170  0.50400919  1
  Fe  Fe37  1  0.33692114  0.00451454  0.67084666  1
  Fe  Fe38  1  0.50430929  0.17105056  0.83785068  1
  Fe  Fe39  1  0.50465097  0.50415105  0.50409792  1
  Ni  Ni40  1  0.33821395  0.33811123  0.67070799  1
  Fe  Fe41  1  0.50439798  0.50439426  0.83767650  1
  Fe  Fe42  1  0.50490536  0.83814821  0.50426007  1
  Fe  Fe43  1  0.33687665  0.67131719  0.67075999  1
  Fe  Fe44  1  0.50501907  0.83759499  0.83793545  1
  Ni  Ni45  1  0.83714548  0.17083215  0.50444823  1
  Fe  Fe46  1  0.67171210  0.00464403  0.67093329  1
  Fe  Fe47  1  0.83792989  0.17017423  0.83695649  1
  Fe  Fe48  1  0.83789566  0.50473859  0.50392170  1
  Fe  Fe49  1  0.67131840  0.33687623  0.67020482  1
  Fe  Fe50  1  0.83759316  0.50501789  0.83793544  1
  Ni  Ni51  1  0.83849946  0.83860085  0.50381424  1
  Fe  Fe52  1  0.67143446  0.67151932  0.67126752  1
  Ni  Ni53  1  0.83788522  0.83788402  0.83790933  1
" 