8438,Ni84Fe11Cr4_11,-238.617849676747, 185.465812365089,Ni84Fe11Cr4,"# generated using pymatgen
 data_Cr4(FeNi9)5
_symmetry_space_group_name_H-M   'P 1'
_cell_length_a   7.44980650
_cell_length_b   7.44980650
_cell_length_c   10.53561739
_cell_angle_alpha   90.00000000
_cell_angle_beta   90.00000000
_cell_angle_gamma   90.00000000
_symmetry_Int_Tables_number   1
_chemical_formula_structural   Cr4(FeNi9)5
_chemical_formula_sum   'Cr4 Fe5 Ni45'
_cell_volume   584.72272898
_cell_formula_units_Z   1
loop_
 _symmetry_equiv_pos_site_id
 _symmetry_equiv_pos_as_xyz
  1  'x, y, z'
loop_
 _atom_site_type_symbol
 _atom_site_label
 _atom_site_symmetry_multiplicity
 _atom_site_fract_x
 _atom_site_fract_y
 _atom_site_fract_z
 _atom_site_occupancy
  Ni  Ni0  1  0.00126097  0.00290002  0.00163151  1
  Fe  Fe1  1  0.16673436  0.16673582  0.16669726  1
  Fe  Fe2  1  1.00061150  1.00065315  0.33480200  1
  Ni  Ni3  1  0.00151754  0.33267202  1.00089327  1
  Ni  Ni4  1  0.16730989  0.50195629  0.16762700  1
  Ni  Ni5  1  0.99932092  0.33522788  0.33500308  1
  Cr  Cr6  1  0.00226490  0.66837665  1.00071863  1
  Ni  Ni7  1  0.16922164  0.83372480  0.16836304  1
  Ni  Ni8  1  1.00075929  0.66737985  0.33441420  1
  Ni  Ni9  1  0.33437087  0.00177163  1.00100877  1
  Ni  Ni10  1  0.50303757  0.16664227  0.16639523  1
  Ni  Ni11  1  0.33415403  0.99869204  0.33393759  1
  Ni  Ni12  1  0.33430994  0.33398656  1.00114692  1
  Fe  Fe13  1  0.50167674  0.50163431  0.16778327  1
  Cr  Cr14  1  0.33362327  0.33471460  0.33410553  1
  Ni  Ni15  1  0.33399940  0.66770895  0.00131036  1
  Ni  Ni16  1  0.49989834  0.83611600  0.16861385  1
  Ni  Ni17  1  0.33401597  0.66982593  0.33458871  1
  Ni  Ni18  1  0.66783357  0.00320749  1.00091862  1
  Ni  Ni19  1  0.83310772  0.16855747  0.16776690  1
  Ni  Ni20  1  0.66841289  1.00013384  0.33368529  1
  Ni  Ni21  1  0.66764278  0.33229845  0.00161591  1
  Ni  Ni22  1  0.83549344  0.49882590  0.16924121  1
  Ni  Ni23  1  0.67086159  0.33508934  0.33348749  1
  Cr  Cr24  1  0.66699006  0.66834459  1.00099824  1
  Ni  Ni25  1  0.83435055  0.83609077  0.16941923  1
  Ni  Ni26  1  0.66870251  0.66825637  0.33491852  1
  Ni  Ni27  1  0.16549942  0.16744557  0.50152145  1
  Ni  Ni28  1  0.00119357  1.00053339  0.66735224  1
  Ni  Ni29  1  0.16769410  0.16837087  0.83523853  1
  Ni  Ni30  1  0.16700965  0.50222800  0.50193124  1
  Fe  Fe31  1  0.00147892  0.33416689  0.66745852  1
  Ni  Ni32  1  0.16935798  0.50066914  0.83390594  1
  Ni  Ni33  1  0.16805558  0.83379035  0.50100571  1
  Ni  Ni34  1  1.00105180  0.66846637  0.66783300  1
  Ni  Ni35  1  0.16849108  0.83442906  0.83409934  1
  Cr  Cr36  1  0.50237774  0.16692931  0.50258266  1
  Ni  Ni37  1  0.33326937  1.00093353  0.66853023  1
  Ni  Ni38  1  0.50185830  0.16819588  0.83482900  1
  Ni  Ni39  1  0.50171700  0.50348204  0.50122217  1
  Ni  Ni40  1  0.33409199  0.33513679  0.66859869  1
  Ni  Ni41  1  0.49950477  0.50016230  0.83438072  1
  Ni  Ni42  1  0.50092147  0.83278762  0.50099766  1
  Ni  Ni43  1  0.33409037  0.66739936  0.66757079  1
  Ni  Ni44  1  0.50055479  0.83511196  0.83385793  1
  Ni  Ni45  1  0.83574700  0.16824156  0.50069470  1
  Ni  Ni46  1  0.66900594  1.00053777  0.66886689  1
  Ni  Ni47  1  0.83391579  0.16732739  0.83500819  1
  Ni  Ni48  1  0.83474774  0.50092675  0.50111032  1
  Ni  Ni49  1  0.66793596  0.33528273  0.66837010  1
  Fe  Fe50  1  0.83418855  0.49965947  0.83304747  1
  Ni  Ni51  1  0.83449218  0.83429955  0.50074522  1
  Ni  Ni52  1  0.66832731  0.66765205  0.66733616  1
  Ni  Ni53  1  0.83442550  0.83679752  0.83329969  1
" 