5028,Ni84Fe13Cr2_12,-240.411285899801, 193.846471202,Ni84Fe13Cr2,"# generated using pymatgen
 data_Cr2Fe7Ni45
_symmetry_space_group_name_H-M   'P 1'
_cell_length_a   7.43632213
_cell_length_b   7.43632213
_cell_length_c   10.51654761
_cell_angle_alpha   90.00000000
_cell_angle_beta   90.00000000
_cell_angle_gamma   90.00000000
_symmetry_Int_Tables_number   1
_chemical_formula_structural   Cr2Fe7Ni45
_chemical_formula_sum   'Cr2 Fe7 Ni45'
_cell_volume   581.55337577
_cell_formula_units_Z   1
loop_
 _symmetry_equiv_pos_site_id
 _symmetry_equiv_pos_as_xyz
  1  'x, y, z'
loop_
 _atom_site_type_symbol
 _atom_site_label
 _atom_site_symmetry_multiplicity
 _atom_site_fract_x
 _atom_site_fract_y
 _atom_site_fract_z
 _atom_site_occupancy
  Ni  Ni0  1  0.00282493  1.00190493  1.00160565  1
  Ni  Ni1  1  0.16678818  0.16987353  0.16932156  1
  Ni  Ni2  1  0.00354279  1.00071122  0.33505508  1
  Ni  Ni3  1  0.00206676  0.33514764  0.00229351  1
  Ni  Ni4  1  0.16972858  0.50105964  0.16875981  1
  Ni  Ni5  1  0.00342107  0.33663546  0.33422654  1
  Ni  Ni6  1  1.00092160  0.66924269  1.00162787  1
  Fe  Fe7  1  0.16838697  0.83555586  0.16838434  1
  Ni  Ni8  1  1.00063767  0.66874726  0.33536233  1
  Ni  Ni9  1  0.33382921  0.00380030  0.00284978  1
  Fe  Fe10  1  0.50163744  0.16930975  0.16892853  1
  Ni  Ni11  1  0.33552958  0.00327980  0.33571607  1
  Ni  Ni12  1  0.33578364  0.33477154  1.00160927  1
  Ni  Ni13  1  0.50096177  0.50384635  0.16887286  1
  Ni  Ni14  1  0.33560555  0.33432324  0.33575836  1
  Ni  Ni15  1  0.33507939  0.66778434  0.00320700  1
  Ni  Ni16  1  0.50297342  0.83407233  0.16878805  1
  Fe  Fe17  1  0.33552827  0.66839789  0.33549495  1
  Fe  Fe18  1  0.67003732  0.00277496  0.00275926  1
  Ni  Ni19  1  0.83668995  0.16790550  0.16873920  1
  Ni  Ni20  1  0.66712264  1.00065332  0.33401832  1
  Ni  Ni21  1  0.66822495  0.33657238  1.00174154  1
  Fe  Fe22  1  0.83544987  0.50203251  0.16882779  1
  Ni  Ni23  1  0.66699983  0.33695841  0.33494092  1
  Ni  Ni24  1  0.67012214  0.66716697  0.00278233  1
  Ni  Ni25  1  0.83416625  0.83685940  0.16930260  1
  Ni  Ni26  1  0.66944739  0.66868659  0.33581427  1
  Ni  Ni27  1  0.16928415  0.16879600  0.50191854  1
  Ni  Ni28  1  0.00332812  1.00095448  0.66955616  1
  Ni  Ni29  1  0.16782200  0.16898071  0.83502787  1
  Ni  Ni30  1  0.16842058  0.50217473  0.50183291  1
  Ni  Ni31  1  0.00394344  0.33670035  0.66976091  1
  Ni  Ni32  1  0.16890386  0.50215935  0.83563216  1
  Ni  Ni33  1  0.16980698  0.83516165  0.50129417  1
  Ni  Ni34  1  1.00117971  0.66845660  0.66915866  1
  Ni  Ni35  1  0.16741677  0.83507301  0.83642655  1
  Ni  Ni36  1  0.50120411  0.16796282  0.50111578  1
  Ni  Ni37  1  0.33478858  0.00391858  0.66772710  1
  Ni  Ni38  1  0.50236039  0.17001326  0.83612190  1
  Ni  Ni39  1  0.50196531  0.50309643  0.50220566  1
  Ni  Ni40  1  0.33533810  0.33470050  0.66887559  1
  Ni  Ni41  1  0.50164571  0.50129742  0.83515859  1
  Ni  Ni42  1  0.50169157  0.83507395  0.50160315  1
  Ni  Ni43  1  0.33477631  0.66756016  0.66757320  1
  Cr  Cr44  1  0.50111309  0.83401901  0.83592595  1
  Cr  Cr45  1  0.83662282  0.16910522  0.50180455  1
  Ni  Ni46  1  0.66814961  1.00109475  0.66910071  1
  Ni  Ni47  1  0.83619942  0.16863322  0.83582496  1
  Ni  Ni48  1  0.83580473  0.50273394  0.50084473  1
  Fe  Fe49  1  0.66806908  0.33627189  0.66957545  1
  Ni  Ni50  1  0.83570033  0.50176157  0.83644967  1
  Fe  Fe51  1  0.83557053  0.83396384  0.50194531  1
  Ni  Ni52  1  0.67023448  0.66802282  0.66763846  1
  Ni  Ni53  1  0.83671200  0.83579886  0.83467249  1
" 