7247,Ni84Fe16_1,-230.773672197344, 174.895405451336,Ni84Fe16,"# generated using pymatgen
 data_Fe5Ni
_symmetry_space_group_name_H-M   'P 1'
_cell_length_a   7.39975176
_cell_length_b   7.39975176
_cell_length_c   10.46482930
_cell_angle_alpha   90.00000000
_cell_angle_beta   90.00000000
_cell_angle_gamma   90.00000000
_symmetry_Int_Tables_number   1
_chemical_formula_structural   Fe5Ni
_chemical_formula_sum   'Fe45 Ni9'
_cell_volume   573.01560592
_cell_formula_units_Z   9
loop_
 _symmetry_equiv_pos_site_id
 _symmetry_equiv_pos_as_xyz
  1  'x, y, z'
loop_
 _atom_site_type_symbol
 _atom_site_label
 _atom_site_symmetry_multiplicity
 _atom_site_fract_x
 _atom_site_fract_y
 _atom_site_fract_z
 _atom_site_occupancy
  Fe  Fe0  1  1.00414814  1.00364278  1.00405518  1
  Fe  Fe1  1  0.17197059  0.17036918  0.17137411  1
  Fe  Fe2  1  0.00529846  1.00420553  0.33810393  1
  Fe  Fe3  1  1.00389629  0.33853379  0.00454734  1
  Fe  Fe4  1  0.17168893  0.50439695  0.17177758  1
  Fe  Fe5  1  0.00501831  0.33799932  0.33847263  1
  Fe  Fe6  1  1.00438414  0.67146340  0.00506653  1
  Ni  Ni7  1  0.17078502  0.83784846  0.17132330  1
  Fe  Fe8  1  0.00553427  0.67143603  0.33804193  1
  Fe  Fe9  1  0.33844265  1.00398238  0.00579196  1
  Ni  Ni10  1  0.50508466  0.17113733  0.17049460  1
  Ni  Ni11  1  0.33705155  0.00516515  0.33786262  1
  Fe  Fe12  1  0.33903437  0.33853276  1.00436836  1
  Fe  Fe13  1  0.50432301  0.50485844  0.17013522  1
  Fe  Fe14  1  0.33797256  0.33729108  0.33787919  1
  Fe  Fe15  1  0.33820513  0.67112473  1.00445727  1
  Fe  Fe16  1  0.50403898  0.83847352  0.17130639  1
  Fe  Fe17  1  0.33711218  0.67180752  0.33787982  1
  Fe  Fe18  1  0.67105133  1.00447025  0.00488585  1
  Fe  Fe19  1  0.83803332  0.17065112  0.17112526  1
  Fe  Fe20  1  0.67027919  0.00506518  0.33754162  1
  Fe  Fe21  1  0.67071254  0.33829578  0.00463551  1
  Fe  Fe22  1  0.83762866  0.50479846  0.17153078  1
  Fe  Fe23  1  0.67065252  0.33705561  0.33779208  1
  Ni  Ni24  1  0.67099286  0.67059742  0.00519553  1
  Fe  Fe25  1  0.83756802  0.83819158  0.17078631  1
  Fe  Fe26  1  0.67099272  0.67152173  0.33822319  1
  Fe  Fe27  1  0.17056623  0.17186650  0.50472473  1
  Ni  Ni28  1  0.00550151  0.00540127  0.67057879  1
  Fe  Fe29  1  0.17143833  0.17152503  0.83754066  1
  Ni  Ni30  1  0.17017925  0.50506797  0.50496228  1
  Fe  Fe31  1  1.00398358  0.33835631  0.67062554  1
  Fe  Fe32  1  0.17189413  0.50428169  0.83740582  1
  Fe  Fe33  1  0.17065307  0.83741182  0.50389409  1
  Fe  Fe34  1  1.00413024  0.67131073  0.67053724  1
  Fe  Fe35  1  0.17152456  0.83783723  0.83828044  1
  Fe  Fe36  1  0.50420634  0.17208723  0.50346564  1
  Fe  Fe37  1  0.33794603  1.00398353  0.67064736  1
  Fe  Fe38  1  0.50436859  0.17180261  0.83853281  1
  Fe  Fe39  1  0.50488814  0.50488659  0.50553958  1
  Fe  Fe40  1  0.33788334  0.33838204  0.67139180  1
  Ni  Ni41  1  0.50507710  0.50435301  0.83747456  1
  Fe  Fe42  1  0.50463510  0.83666715  0.50454552  1
  Fe  Fe43  1  0.33773248  0.67127555  0.67130482  1
  Fe  Fe44  1  0.50514235  0.83669126  0.83779099  1
  Fe  Fe45  1  0.83887029  0.17211578  0.50488637  1
  Fe  Fe46  1  0.67180678  1.00412972  0.67121143  1
  Fe  Fe47  1  0.83783711  0.17143540  0.83762757  1
  Ni  Ni48  1  0.83860512  0.50465107  0.50549145  1
  Fe  Fe49  1  0.67177467  0.33814208  0.67121353  1
  Fe  Fe50  1  0.83669489  0.50505411  0.83749532  1
  Fe  Fe51  1  0.83835199  0.83672616  0.50522941  1
  Ni  Ni52  1  0.67097953  0.67003788  0.67087051  1
  Fe  Fe53  1  0.83697599  0.83715192  0.83762477  1
" 