533,Ni84Fe16_16,-230.79831464308, 173.713443020278,Ni84Fe16,"# generated using pymatgen
 data_Fe5Ni
_symmetry_space_group_name_H-M   'P 1'
_cell_length_a   7.40022509
_cell_length_b   7.40022509
_cell_length_c   10.46549869
_cell_angle_alpha   90.00000000
_cell_angle_beta   90.00000000
_cell_angle_gamma   90.00000000
_symmetry_Int_Tables_number   1
_chemical_formula_structural   Fe5Ni
_chemical_formula_sum   'Fe45 Ni9'
_cell_volume   573.12557268
_cell_formula_units_Z   9
loop_
 _symmetry_equiv_pos_site_id
 _symmetry_equiv_pos_as_xyz
  1  'x, y, z'
loop_
 _atom_site_type_symbol
 _atom_site_label
 _atom_site_symmetry_multiplicity
 _atom_site_fract_x
 _atom_site_fract_y
 _atom_site_fract_z
 _atom_site_occupancy
  Fe  Fe0  1  0.00454043  0.00507800  0.00460646  1
  Fe  Fe1  1  0.17208473  0.17131800  0.17084295  1
  Fe  Fe2  1  1.00377517  1.00336465  0.33775665  1
  Fe  Fe3  1  1.00423880  0.33736061  1.00361107  1
  Fe  Fe4  1  0.17142828  0.50476457  0.17217579  1
  Fe  Fe5  1  1.00420240  0.33907404  0.33875154  1
  Fe  Fe6  1  1.00435383  0.67110582  0.00473813  1
  Fe  Fe7  1  0.17174264  0.83746101  0.17100186  1
  Ni  Ni8  1  1.00348412  0.67117023  0.33826579  1
  Ni  Ni9  1  0.33772244  1.00438880  1.00421283  1
  Fe  Fe10  1  0.50442496  0.17168368  0.17058964  1
  Fe  Fe11  1  0.33784819  1.00330165  0.33719493  1
  Fe  Fe12  1  0.33868941  0.33750937  1.00437994  1
  Ni  Ni13  1  0.50463136  0.50462620  0.17118100  1
  Fe  Fe14  1  0.33784854  0.33956327  0.33850110  1
  Fe  Fe15  1  0.33865941  0.67104490  0.00476444  1
  Fe  Fe16  1  0.50442588  0.83743746  0.17118108  1
  Fe  Fe17  1  0.33784785  0.67067952  0.33784875  1
  Fe  Fe18  1  0.67067935  0.00510730  1.00442530  1
  Fe  Fe19  1  0.83703561  0.17199720  0.17093034  1
  Fe  Fe20  1  0.67192123  1.00336469  0.33811871  1
  Ni  Ni21  1  0.67141615  0.33840789  1.00409769  1
  Fe  Fe22  1  0.83701068  0.50476559  0.17077677  1
  Fe  Fe23  1  0.67149422  0.33907379  0.33676655  1
  Fe  Fe24  1  0.67053134  0.67074199  0.00498733  1
  Fe  Fe25  1  0.83737565  0.83678451  0.17194923  1
  Ni  Ni26  1  0.67221198  0.67117000  0.33743065  1
  Fe  Fe27  1  0.17127231  0.17218503  0.50510400  1
  Fe  Fe28  1  0.00498754  0.00566712  0.67118165  1
  Fe  Fe29  1  0.17086893  0.17181582  0.83760049  1
  Ni  Ni30  1  0.17107254  0.50451158  0.50451881  1
  Ni  Ni31  1  0.00524311  0.33817455  0.67118039  1
  Fe  Fe32  1  0.17050058  0.50410437  0.83651767  1
  Fe  Fe33  1  0.17093158  0.83718580  0.50417459  1
  Fe  Fe34  1  0.00516542  0.66961648  0.67070793  1
  Fe  Fe35  1  0.17086816  0.83762294  0.83836864  1
  Fe  Fe36  1  0.50361169  0.17181938  0.50485384  1
  Fe  Fe37  1  0.33737445  0.00557487  0.67183693  1
  Fe  Fe38  1  0.50482678  0.17181630  0.83810189  1
  Fe  Fe39  1  0.50392604  0.50451226  0.50386315  1
  Ni  Ni40  1  0.33700649  0.33733584  0.67201298  1
  Fe  Fe41  1  0.50519425  0.50410321  0.83850096  1
  Fe  Fe42  1  0.50429185  0.83721111  0.50435484  1
  Fe  Fe43  1  0.33703690  0.66986472  0.67093121  1
  Fe  Fe44  1  0.50482739  0.83762399  0.83800724  1
  Fe  Fe45  1  0.83866067  0.17182052  0.50476595  1
  Fe  Fe46  1  0.67118247  0.00564043  0.67100044  1
  Fe  Fe47  1  0.83784925  0.17218613  0.83784710  1
  Fe  Fe48  1  0.83868705  0.50485298  0.50482927  1
  Fe  Fe49  1  0.67143209  0.33792275  0.67217424  1
  Ni  Ni50  1  0.83785114  0.50418287  0.83773103  1
  Fe  Fe51  1  0.83832103  0.83687242  0.50383856  1
  Fe  Fe52  1  0.67134194  0.66998136  0.67095748  1
  Fe  Fe53  1  0.83784821  0.83725492  0.83775667  1
" 