5010,Ni84Fe16_3,-230.7797915661, 170.525073778557,Ni84Fe16,"# generated using pymatgen
 data_Fe5Ni
_symmetry_space_group_name_H-M   'P 1'
_cell_length_a   7.40118139
_cell_length_b   7.40118139
_cell_length_c   10.46685109
_cell_angle_alpha   90.00000000
_cell_angle_beta   90.00000000
_cell_angle_gamma   90.00000000
_symmetry_Int_Tables_number   1
_chemical_formula_structural   Fe5Ni
_chemical_formula_sum   'Fe45 Ni9'
_cell_volume   573.34778840
_cell_formula_units_Z   9
loop_
 _symmetry_equiv_pos_site_id
 _symmetry_equiv_pos_as_xyz
  1  'x, y, z'
loop_
 _atom_site_type_symbol
 _atom_site_label
 _atom_site_symmetry_multiplicity
 _atom_site_fract_x
 _atom_site_fract_y
 _atom_site_fract_z
 _atom_site_occupancy
  Fe  Fe0  1  0.00492650  1.00423176  1.00428603  1
  Fe  Fe1  1  0.17081244  0.17191525  0.17153362  1
  Fe  Fe2  1  0.00517282  0.00500270  0.33778306  1
  Fe  Fe3  1  1.00433390  0.33824965  0.00453327  1
  Fe  Fe4  1  0.17103026  0.50444951  0.17120050  1
  Fe  Fe5  1  0.00460899  0.33802934  0.33744989  1
  Fe  Fe6  1  0.00486752  0.67086762  0.00504236  1
  Fe  Fe7  1  0.17064004  0.83698357  0.17086813  1
  Fe  Fe8  1  0.00475392  0.67031629  0.33753570  1
  Fe  Fe9  1  0.33786131  1.00344586  0.00446155  1
  Fe  Fe10  1  0.50475489  0.17191433  0.17170754  1
  Fe  Fe11  1  0.33769868  0.00494429  0.33769464  1
  Fe  Fe12  1  0.33794746  0.33852404  1.00428649  1
  Fe  Fe13  1  0.50445112  0.50436383  0.17064860  1
  Ni  Ni14  1  0.33717672  0.33798715  0.33643968  1
  Ni  Ni15  1  0.33779642  0.67050605  0.00454741  1
  Fe  Fe16  1  0.50484321  0.83706980  0.17031517  1
  Fe  Fe17  1  0.33770056  0.67079346  0.33714395  1
  Fe  Fe18  1  0.67056244  1.00398435  1.00348297  1
  Fe  Fe19  1  0.83778109  0.17152135  0.17047369  1
  Fe  Fe20  1  0.67047769  0.00508733  0.33833626  1
  Fe  Fe21  1  0.67106992  0.33858255  0.00445639  1
  Ni  Ni22  1  0.83798523  0.50404287  0.17121269  1
  Fe  Fe23  1  0.67095134  0.33803134  0.33727676  1
  Fe  Fe24  1  0.67028574  0.67078226  1.00382154  1
  Fe  Fe25  1  0.83786566  0.83728709  0.17137729  1
  Fe  Fe26  1  0.67089518  0.67022937  0.33808841  1
  Fe  Fe27  1  0.17170263  0.17170321  0.50427737  1
  Fe  Fe28  1  1.00371322  0.00478309  0.67127938  1
  Fe  Fe29  1  0.17188941  0.17144818  0.83753670  1
  Fe  Fe30  1  0.17161762  0.50386498  0.50436442  1
  Fe  Fe31  1  1.00350339  0.33745295  0.67136509  1
  Fe  Fe32  1  0.17218893  0.50436518  0.83778397  1
  Fe  Fe33  1  0.17085945  0.83778129  0.50419110  1
  Fe  Fe34  1  1.00395802  0.67111400  0.67077119  1
  Fe  Fe35  1  0.17176934  0.83753435  0.83829095  1
  Fe  Fe36  1  0.50402668  0.17136969  0.50435495  1
  Fe  Fe37  1  0.33899669  1.00406011  0.67119149  1
  Fe  Fe38  1  0.50495298  0.17111530  0.83728526  1
  Fe  Fe39  1  0.50402538  0.50411240  0.50516714  1
  Ni  Ni40  1  0.33693038  0.33789113  0.67206758  1
  Ni  Ni41  1  0.50402383  0.50590904  0.83767504  1
  Fe  Fe42  1  0.50511900  0.83786758  0.50541282  1
  Fe  Fe43  1  0.33932627  0.67125776  0.67224930  1
  Ni  Ni44  1  0.50362070  0.83663334  0.83727355  1
  Fe  Fe45  1  0.83761897  0.17061018  0.50525172  1
  Ni  Ni46  1  0.67214565  1.00310699  0.67143617  1
  Ni  Ni47  1  0.83863613  0.17121377  0.83756613  1
  Fe  Fe48  1  0.83770379  0.50495736  0.50388811  1
  Fe  Fe49  1  0.67078731  0.33778603  0.67161574  1
  Fe  Fe50  1  0.83657221  0.50475532  0.83817441  1
  Fe  Fe51  1  0.83737434  0.83778279  0.50485669  1
  Ni  Ni52  1  0.67173075  0.67276476  0.67183703  1
  Fe  Fe53  1  0.83624021  0.83790055  0.83711744  1
" 