8169,Ni84Fe11Cr4_0,-238.680939855044, 185.847386548855,Ni84Fe11Cr4,"# generated using pymatgen
 data_Cr4(FeNi9)5
_symmetry_space_group_name_H-M   'P 1'
_cell_length_a   7.44781767
_cell_length_b   7.44781767
_cell_length_c   10.53280476
_cell_angle_alpha   90.00000000
_cell_angle_beta   90.00000000
_cell_angle_gamma   90.00000000
_symmetry_Int_Tables_number   1
_chemical_formula_structural   Cr4(FeNi9)5
_chemical_formula_sum   'Cr4 Fe5 Ni45'
_cell_volume   584.25455370
_cell_formula_units_Z   1
loop_
 _symmetry_equiv_pos_site_id
 _symmetry_equiv_pos_as_xyz
  1  'x, y, z'
loop_
 _atom_site_type_symbol
 _atom_site_label
 _atom_site_symmetry_multiplicity
 _atom_site_fract_x
 _atom_site_fract_y
 _atom_site_fract_z
 _atom_site_occupancy
  Ni  Ni0  1  0.00232289  0.00252543  0.99972137  1
  Ni  Ni1  1  0.16722910  0.16799349  0.16802559  1
  Ni  Ni2  1  0.00353797  0.00326735  0.33476252  1
  Ni  Ni3  1  1.00116028  0.33386257  0.00201321  1
  Ni  Ni4  1  0.16790834  0.50085709  0.16835584  1
  Ni  Ni5  1  1.00096452  0.33465879  0.33503898  1
  Ni  Ni6  1  0.00327048  0.66748345  0.00163532  1
  Ni  Ni7  1  0.16971233  0.83502170  0.16871417  1
  Ni  Ni8  1  0.00520975  0.66594882  0.33426738  1
  Ni  Ni9  1  0.33437338  1.00041604  0.00130625  1
  Fe  Fe10  1  0.50135634  0.16799635  0.16836449  1
  Ni  Ni11  1  0.33417929  1.00096485  0.33492959  1
  Fe  Fe12  1  0.33427955  0.33497145  1.00087593  1
  Ni  Ni13  1  0.50092353  0.50087029  0.16720430  1
  Ni  Ni14  1  0.33418074  0.33438745  0.33441647  1
  Ni  Ni15  1  0.33437618  0.66864857  1.00104052  1
  Ni  Ni16  1  0.49912224  0.83500951  0.16756370  1
  Ni  Ni17  1  0.33223567  0.66852087  0.33518703  1
  Ni  Ni18  1  0.66717463  0.00252399  1.00010390  1
  Ni  Ni19  1  0.83505319  0.16979525  0.16873849  1
  Ni  Ni20  1  0.66615241  0.00521104  0.33458933  1
  Ni  Ni21  1  0.66833883  0.33386371  0.00239887  1
  Ni  Ni22  1  0.83504168  0.49839123  0.16748250  1
  Ni  Ni23  1  0.66872738  0.33271522  0.33486526  1
  Ni  Ni24  1  0.66622627  0.66748616  1.00063154  1
  Cr  Cr25  1  0.83524923  0.83537399  0.16663388  1
  Cr  Cr26  1  0.66631131  0.66596508  0.33480271  1
  Ni  Ni27  1  0.16884218  0.16810424  0.50112654  1
  Fe  Fe28  1  0.00248584  0.00141114  0.66927798  1
  Ni  Ni29  1  0.16809360  0.16760633  0.83472291  1
  Ni  Ni30  1  0.16768804  0.50085412  0.50085931  1
  Fe  Fe31  1  0.00252808  0.33450114  0.66726920  1
  Ni  Ni32  1  0.16975116  0.50113009  0.83466181  1
  Ni  Ni33  1  0.16941317  0.83491518  0.50043381  1
  Ni  Ni34  1  0.00306549  0.66771859  0.66796933  1
  Ni  Ni35  1  0.16767113  0.83513564  0.83472359  1
  Ni  Ni36  1  0.50083603  0.16810286  0.50047344  1
  Ni  Ni37  1  0.33489175  0.00137495  0.66763809  1
  Ni  Ni38  1  0.50132613  0.16761033  0.83510919  1
  Ni  Ni39  1  0.50104903  0.49991443  0.50239278  1
  Ni  Ni40  1  0.33489430  0.33449831  0.66868116  1
  Ni  Ni41  1  0.49987400  0.50133393  0.83427493  1
  Ni  Ni42  1  0.49932496  0.83585909  0.50197073  1
  Ni  Ni43  1  0.33394127  0.66799961  0.66764496  1
  Ni  Ni44  1  0.50195246  0.83492873  0.83433964  1
  Fe  Fe45  1  0.83393944  0.16987729  0.50060484  1
  Ni  Ni46  1  0.66678527  0.00252579  0.66917861  1
  Ni  Ni47  1  0.83445651  0.16553068  0.83427352  1
  Ni  Ni48  1  0.83513978  0.49934014  0.50139280  1
  Ni  Ni49  1  0.66707026  0.33362906  0.66660764  1
  Cr  Cr50  1  0.83402574  0.50219611  0.83522708  1
  Cr  Cr51  1  0.83493244  0.83457459  0.50176807  1
  Ni  Ni52  1  0.66686660  0.66772031  0.66837668  1
  Ni  Ni53  1  0.83425066  0.83659038  0.83504500  1
" 