2797,Ni84Fe16_19,-230.916455727579, 171.658707093831,Ni84Fe16,"# generated using pymatgen
 data_Fe5Ni
_symmetry_space_group_name_H-M   'P 1'
_cell_length_a   7.40298221
_cell_length_b   7.40298221
_cell_length_c   10.46939785
_cell_angle_alpha   90.00000000
_cell_angle_beta   90.00000000
_cell_angle_gamma   90.00000000
_symmetry_Int_Tables_number   1
_chemical_formula_structural   Fe5Ni
_chemical_formula_sum   'Fe45 Ni9'
_cell_volume   573.76640455
_cell_formula_units_Z   9
loop_
 _symmetry_equiv_pos_site_id
 _symmetry_equiv_pos_as_xyz
  1  'x, y, z'
loop_
 _atom_site_type_symbol
 _atom_site_label
 _atom_site_symmetry_multiplicity
 _atom_site_fract_x
 _atom_site_fract_y
 _atom_site_fract_z
 _atom_site_occupancy
  Fe  Fe0  1  0.00440902  0.00440894  1.00415789  1
  Fe  Fe1  1  0.17140318  0.17189205  0.17090462  1
  Fe  Fe2  1  1.00404970  1.00413564  0.33847327  1
  Fe  Fe3  1  1.00424112  0.33798112  1.00424331  1
  Ni  Ni4  1  0.17157779  0.50442561  0.17051486  1
  Fe  Fe5  1  1.00427628  0.33761355  0.33749106  1
  Fe  Fe6  1  1.00432494  0.67059062  0.00494870  1
  Fe  Fe7  1  0.17074801  0.83684552  0.17152800  1
  Ni  Ni8  1  0.00433362  0.67109956  0.33785991  1
  Fe  Fe9  1  0.33757528  1.00424192  1.00415787  1
  Fe  Fe10  1  0.50370718  0.17144787  0.17148642  1
  Fe  Fe11  1  0.33745057  1.00403354  0.33781828  1
  Fe  Fe12  1  0.33766210  0.33806387  0.00494971  1
  Fe  Fe13  1  0.50343237  0.50399942  0.17061681  1
  Ni  Ni14  1  0.33745292  0.33766425  0.33774626  1
  Fe  Fe15  1  0.33774327  0.67067486  1.00424297  1
  Fe  Fe16  1  0.50411788  0.83753238  0.17098881  1
  Fe  Fe17  1  0.33722584  0.67095675  0.33757568  1
  Fe  Fe18  1  0.67099673  0.00432749  0.00503795  1
  Fe  Fe19  1  0.83787098  0.17120446  0.17161203  1
  Ni  Ni20  1  0.67120302  1.00422584  0.33797192  1
  Fe  Fe21  1  0.67107871  0.33814500  1.00359287  1
  Fe  Fe22  1  0.83856086  0.50465563  0.17044941  1
  Fe  Fe23  1  0.67120504  0.33738866  0.33790577  1
  Fe  Fe24  1  0.67091192  0.67050718  1.00359161  1
  Fe  Fe25  1  0.83811481  0.83712151  0.17194104  1
  Fe  Fe26  1  0.67110628  0.67118605  0.33782398  1
  Fe  Fe27  1  0.17029481  0.17021566  0.50433354  1
  Fe  Fe28  1  1.00425149  1.00416575  0.67034660  1
  Fe  Fe29  1  0.17107780  0.17207286  0.83774305  1
  Fe  Fe30  1  0.16991601  0.50481114  0.50313104  1
  Fe  Fe31  1  1.00375516  0.33749639  0.67124362  1
  Fe  Fe32  1  0.17099105  0.50424442  0.83828302  1
  Ni  Ni33  1  0.17071403  0.83762059  0.50334282  1
  Fe  Fe34  1  1.00416577  0.67131861  0.67020957  1
  Fe  Fe35  1  0.17107356  0.83666348  0.83711967  1
  Fe  Fe36  1  0.50480945  0.16983487  0.50375295  1
  Fe  Fe37  1  0.33724925  1.00399809  0.67100110  1
  Fe  Fe38  1  0.50478171  0.17201796  0.83774326  1
  Fe  Fe39  1  0.50453862  0.50453881  0.50478931  1
  Fe  Fe40  1  0.33798870  0.33790917  0.67077932  1
  Ni  Ni41  1  0.50472676  0.50403720  0.83863486  1
  Fe  Fe42  1  0.50519671  0.83860627  0.50416629  1
  Fe  Fe43  1  0.33774494  0.67107303  0.67115937  1
  Fe  Fe44  1  0.50486736  0.83663501  0.83782678  1
  Ni  Ni45  1  0.83713610  0.17023061  0.50412326  1
  Fe  Fe46  1  0.67148002  0.00440887  0.66988430  1
  Fe  Fe47  1  0.83712122  0.17209805  0.83720346  1
  Fe  Fe48  1  0.83852560  0.50519715  0.50478933  1
  Fe  Fe49  1  0.67123490  0.33799063  0.67148659  1
  Ni  Ni50  1  0.83667326  0.50403359  0.83785452  1
  Ni  Ni51  1  0.83845319  0.83893717  0.50422196  1
  Fe  Fe52  1  0.67107105  0.67058271  0.67157077  1
  Fe  Fe53  1  0.83704003  0.83655058  0.83728656  1
" 