4700,Ni84Fe13Cr2_8,-240.71025734737, 195.246133671349,Ni84Fe13Cr2,"# generated using pymatgen
 data_Cr2Fe7Ni45
_symmetry_space_group_name_H-M   'P 1'
_cell_length_a   7.43649573
_cell_length_b   7.43649573
_cell_length_c   10.51679312
_cell_angle_alpha   90.00000000
_cell_angle_beta   90.00000000
_cell_angle_gamma   90.00000000
_symmetry_Int_Tables_number   1
_chemical_formula_structural   Cr2Fe7Ni45
_chemical_formula_sum   'Cr2 Fe7 Ni45'
_cell_volume   581.59410703
_cell_formula_units_Z   1
loop_
 _symmetry_equiv_pos_site_id
 _symmetry_equiv_pos_as_xyz
  1  'x, y, z'
loop_
 _atom_site_type_symbol
 _atom_site_label
 _atom_site_symmetry_multiplicity
 _atom_site_fract_x
 _atom_site_fract_y
 _atom_site_fract_z
 _atom_site_occupancy
  Ni  Ni0  1  1.00200980  1.00138025  0.00211060  1
  Ni  Ni1  1  0.16684933  0.16788964  0.16894098  1
  Ni  Ni2  1  0.00237853  1.00154050  0.33502616  1
  Ni  Ni3  1  0.00216202  0.33568679  0.00297491  1
  Fe  Fe4  1  0.16785709  0.50185563  0.16917603  1
  Ni  Ni5  1  1.00127707  0.33532194  0.33476362  1
  Ni  Ni6  1  1.00044683  0.66908612  0.00221281  1
  Ni  Ni7  1  0.16716664  0.83581869  0.16821633  1
  Ni  Ni8  1  1.00191494  0.66931077  0.33565533  1
  Ni  Ni9  1  0.33356204  0.00310317  0.99996168  1
  Cr  Cr10  1  0.50188016  0.17016805  0.16923403  1
  Ni  Ni11  1  0.33302949  1.00184835  0.33779918  1
  Ni  Ni12  1  0.33490669  0.33551045  1.00204229  1
  Ni  Ni13  1  0.50320090  0.50220214  0.16821410  1
  Ni  Ni14  1  0.33564968  0.33642014  0.33636526  1
  Fe  Fe15  1  0.33415747  0.66805487  1.00102304  1
  Cr  Cr16  1  0.50104977  0.83416276  0.16863276  1
  Ni  Ni17  1  0.33465309  0.66783427  0.33563321  1
  Ni  Ni18  1  0.67062953  1.00134634  1.00105993  1
  Ni  Ni19  1  0.83762963  0.16992673  0.16797308  1
  Fe  Fe20  1  0.67088761  0.00304915  0.33712621  1
  Ni  Ni21  1  0.66900847  0.33692371  1.00046749  1
  Ni  Ni22  1  0.83497063  0.50175490  0.16868730  1
  Ni  Ni23  1  0.66921317  0.33685379  0.33646571  1
  Ni  Ni24  1  0.67048492  0.66785119  1.00194433  1
  Ni  Ni25  1  0.83775468  0.83442603  0.16912121  1
  Fe  Fe26  1  0.66952671  0.66656736  0.33613268  1
  Ni  Ni27  1  0.16828516  0.16850093  0.50200465  1
  Ni  Ni28  1  1.00168900  0.00225690  0.66920711  1
  Ni  Ni29  1  0.16887685  0.16913527  0.83522844  1
  Ni  Ni30  1  0.16795514  0.50270564  0.50119129  1
  Ni  Ni31  1  0.00286674  0.33558321  0.66840171  1
  Ni  Ni32  1  0.16714875  0.50212901  0.83573316  1
  Ni  Ni33  1  0.16999995  0.83492839  0.50264224  1
  Ni  Ni34  1  1.00151554  0.66836371  0.66841485  1
  Ni  Ni35  1  0.16917210  0.83490712  0.83531877  1
  Ni  Ni36  1  0.50216301  0.16819942  0.50168383  1
  Ni  Ni37  1  0.33617278  0.00245546  0.66842195  1
  Ni  Ni38  1  0.50209309  0.16762786  0.83528665  1
  Ni  Ni39  1  0.50235144  0.50275898  0.50237654  1
  Ni  Ni40  1  0.33512713  0.33529652  0.66769301  1
  Fe  Fe41  1  0.50188025  0.50206079  0.83534862  1
  Ni  Ni42  1  0.50073433  0.83513498  0.50157812  1
  Ni  Ni43  1  0.33606004  0.66836002  0.66919551  1
  Ni  Ni44  1  0.50195950  0.83601698  0.83589890  1
  Ni  Ni45  1  0.83583290  0.17020868  0.50184906  1
  Ni  Ni46  1  0.66835475  1.00110795  0.66848203  1
  Ni  Ni47  1  0.83522631  0.16961134  0.83624024  1
  Ni  Ni48  1  0.83595235  0.50131094  0.50215491  1
  Fe  Fe49  1  0.66906931  0.33490516  0.66823753  1
  Ni  Ni50  1  0.83632079  0.50204194  0.83520248  1
  Fe  Fe51  1  0.83624878  0.83550895  0.50276948  1
  Ni  Ni52  1  0.66863232  0.66943605  0.66813151  1
  Ni  Ni53  1  0.83498079  0.83448003  0.83527318  1
" 