4284,Ni84Fe11Cr4_1,-238.582312685542, 185.249026648328,Ni84Fe11Cr4,"# generated using pymatgen
 data_Cr4(FeNi9)5
_symmetry_space_group_name_H-M   'P 1'
_cell_length_a   7.44663497
_cell_length_b   7.44663497
_cell_length_c   10.53113217
_cell_angle_alpha   90.00000000
_cell_angle_beta   90.00000000
_cell_angle_gamma   90.00000000
_symmetry_Int_Tables_number   1
_chemical_formula_structural   Cr4(FeNi9)5
_chemical_formula_sum   'Cr4 Fe5 Ni45'
_cell_volume   583.97626326
_cell_formula_units_Z   1
loop_
 _symmetry_equiv_pos_site_id
 _symmetry_equiv_pos_as_xyz
  1  'x, y, z'
loop_
 _atom_site_type_symbol
 _atom_site_label
 _atom_site_symmetry_multiplicity
 _atom_site_fract_x
 _atom_site_fract_y
 _atom_site_fract_z
 _atom_site_occupancy
  Ni  Ni0  1  0.00149221  0.00244953  1.00105040  1
  Fe  Fe1  1  0.16565265  0.16746786  0.16782390  1
  Ni  Ni2  1  0.00210906  1.00114932  0.33352497  1
  Ni  Ni3  1  1.00067595  0.33454416  0.00156152  1
  Ni  Ni4  1  0.16581785  0.50239429  0.16832131  1
  Ni  Ni5  1  0.00204491  0.33572180  0.33333183  1
  Ni  Ni6  1  0.00155218  0.66711845  1.00136229  1
  Ni  Ni7  1  0.16777703  0.83413076  0.16800536  1
  Ni  Ni8  1  1.00114865  0.66723933  0.33460775  1
  Ni  Ni9  1  0.33360780  0.99920024  1.00129986  1
  Cr  Cr10  1  0.50283611  0.16631386  0.16832270  1
  Ni  Ni11  1  0.33453793  1.00082511  0.33575986  1
  Fe  Fe12  1  0.33227928  0.33588172  1.00013608  1
  Cr  Cr13  1  0.50111228  0.50261732  0.16818219  1
  Ni  Ni14  1  0.33319063  0.33464009  0.33614502  1
  Ni  Ni15  1  0.33463212  0.66928260  1.00027640  1
  Ni  Ni16  1  0.50074811  0.83567907  0.16806468  1
  Ni  Ni17  1  0.33441492  0.66864773  0.33550884  1
  Ni  Ni18  1  0.66900949  1.00007788  0.00162006  1
  Ni  Ni19  1  0.83567301  0.16791201  0.16762101  1
  Ni  Ni20  1  0.66746530  0.99992596  0.33409909  1
  Ni  Ni21  1  0.67117690  0.33556962  1.00005204  1
  Ni  Ni22  1  0.83721779  0.50052209  0.16846496  1
  Ni  Ni23  1  0.66887384  0.33559895  0.33598417  1
  Ni  Ni24  1  0.66792670  0.66846573  1.00057725  1
  Ni  Ni25  1  0.83558576  0.83567752  0.16890528  1
  Ni  Ni26  1  0.66854738  0.66858539  0.33518078  1
  Fe  Fe27  1  0.17045436  0.16856422  0.50190150  1
  Ni  Ni28  1  0.00198514  0.00146394  0.66953850  1
  Ni  Ni29  1  0.16600707  0.16773900  0.83447443  1
  Ni  Ni30  1  0.16808339  0.50255412  0.50111547  1
  Ni  Ni31  1  0.00274507  0.33537818  0.66921916  1
  Ni  Ni32  1  0.16783941  0.50182049  0.83467468  1
  Ni  Ni33  1  0.16896483  0.83394749  0.50135713  1
  Ni  Ni34  1  1.00096249  0.66726898  0.66814277  1
  Ni  Ni35  1  0.16796064  0.83455309  0.83474916  1
  Ni  Ni36  1  0.50063128  0.16775185  0.50105659  1
  Ni  Ni37  1  0.33441461  1.00114072  0.66705148  1
  Cr  Cr38  1  0.50218854  0.16771950  0.83457799  1
  Ni  Ni39  1  0.50091605  0.50086559  0.50118167  1
  Ni  Ni40  1  0.33332878  0.33537865  0.66749322  1
  Ni  Ni41  1  0.50119605  0.50279544  0.83454812  1
  Ni  Ni42  1  0.49989094  0.83549412  0.50085591  1
  Ni  Ni43  1  0.33543673  0.66759495  0.66832479  1
  Ni  Ni44  1  0.50093666  0.83344201  0.83519081  1
  Cr  Cr45  1  0.83372095  0.16838696  0.50157822  1
  Ni  Ni46  1  0.66771324  0.99935337  0.66839422  1
  Ni  Ni47  1  0.83618820  0.16799739  0.83523324  1
  Ni  Ni48  1  0.83511370  0.50181109  0.50079694  1
  Fe  Fe49  1  0.66804072  0.33647820  0.66798781  1
  Ni  Ni50  1  0.83507540  0.50083952  0.83484914  1
  Fe  Fe51  1  0.83418657  0.83240667  0.50142484  1
  Ni  Ni52  1  0.66771098  0.66835337  0.66835436  1
  Ni  Ni53  1  0.83521447  0.83527480  0.83415032  1
" 