3104,Ni84Fe13Cr2_14,-240.662087552377, 195.275352781161,Ni84Fe13Cr2,"# generated using pymatgen
 data_Cr2Fe7Ni45
_symmetry_space_group_name_H-M   'P 1'
_cell_length_a   7.43772644
_cell_length_b   7.43772644
_cell_length_c   10.51853361
_cell_angle_alpha   90.00000000
_cell_angle_beta   90.00000000
_cell_angle_gamma   90.00000000
_symmetry_Int_Tables_number   1
_chemical_formula_structural   Cr2Fe7Ni45
_chemical_formula_sum   'Cr2 Fe7 Ni45'
_cell_volume   581.88290882
_cell_formula_units_Z   1
loop_
 _symmetry_equiv_pos_site_id
 _symmetry_equiv_pos_as_xyz
  1  'x, y, z'
loop_
 _atom_site_type_symbol
 _atom_site_label
 _atom_site_symmetry_multiplicity
 _atom_site_fract_x
 _atom_site_fract_y
 _atom_site_fract_z
 _atom_site_occupancy
  Ni  Ni0  1  1.00145620  1.00117966  1.00177989  1
  Cr  Cr1  1  0.16831835  0.16866648  0.16807065  1
  Fe  Fe2  1  0.00233313  0.99914547  0.33557454  1
  Ni  Ni3  1  1.00114324  0.33598376  1.00086857  1
  Ni  Ni4  1  0.16826330  0.50315886  0.16828974  1
  Ni  Ni5  1  1.00112539  0.33720929  0.33568076  1
  Ni  Ni6  1  0.00250173  0.66872070  0.00253340  1
  Ni  Ni7  1  0.16880365  0.83448291  0.16851866  1
  Ni  Ni8  1  0.00219421  0.66810962  0.33553857  1
  Ni  Ni9  1  0.33612231  1.00092915  1.00029360  1
  Fe  Fe10  1  0.50324188  0.16849433  0.16831231  1
  Ni  Ni11  1  0.33615209  1.00063194  0.33711060  1
  Ni  Ni12  1  0.33616743  0.33593381  1.00193262  1
  Ni  Ni13  1  0.50298794  0.50277933  0.16829069  1
  Fe  Fe14  1  0.33596054  0.33772913  0.33655197  1
  Ni  Ni15  1  0.33506004  0.66910706  0.00286437  1
  Ni  Ni16  1  0.50245051  0.83486781  0.16853384  1
  Ni  Ni17  1  0.33506597  0.67041784  0.33494267  1
  Ni  Ni18  1  0.66827196  0.00231775  0.00293774  1
  Fe  Fe19  1  0.83393606  0.16925557  0.16776106  1
  Fe  Fe20  1  0.66760203  0.99983524  0.33490720  1
  Ni  Ni21  1  0.66861898  0.33488450  0.00200769  1
  Ni  Ni22  1  0.83468248  0.50213107  0.16874913  1
  Ni  Ni23  1  0.66860655  0.33601271  0.33453202  1
  Ni  Ni24  1  0.66836677  0.66873058  0.00207412  1
  Ni  Ni25  1  0.83464761  0.83482485  0.16824597  1
  Ni  Ni26  1  0.66865143  0.66807349  0.33597666  1
  Ni  Ni27  1  0.17007771  0.16851410  0.50255980  1
  Ni  Ni28  1  0.00255572  1.00132373  0.66872135  1
  Ni  Ni29  1  0.16788518  0.16827831  0.83483129  1
  Ni  Ni30  1  0.16840351  0.50180638  0.50146350  1
  Ni  Ni31  1  0.00313178  0.33561540  0.66935966  1
  Ni  Ni32  1  0.16824421  0.50177167  0.83615865  1
  Ni  Ni33  1  0.16877979  0.83561455  0.50126563  1
  Ni  Ni34  1  0.00248940  0.66894002  0.66783699  1
  Ni  Ni35  1  0.16922211  0.83586681  0.83616657  1
  Ni  Ni36  1  0.50029478  0.16853459  0.50153299  1
  Fe  Fe37  1  0.33536543  1.00191016  0.66851605  1
  Ni  Ni38  1  0.50246979  0.16828168  0.83584688  1
  Ni  Ni39  1  0.50248329  0.50232185  0.50201718  1
  Ni  Ni40  1  0.33535892  0.33530734  0.66741345  1
  Ni  Ni41  1  0.50264782  0.50229506  0.83557963  1
  Ni  Ni42  1  0.50205691  0.83506666  0.50186020  1
  Ni  Ni43  1  0.33518307  0.66842811  0.66812118  1
  Ni  Ni44  1  0.50171423  0.83532838  0.83558300  1
  Cr  Cr45  1  0.83573237  0.16935181  0.50180852  1
  Ni  Ni46  1  0.66800105  1.00149985  0.66872326  1
  Ni  Ni47  1  0.83556143  0.16921515  0.83627426  1
  Ni  Ni48  1  0.83503443  0.50351722  0.50197578  1
  Ni  Ni49  1  0.66742989  0.33542808  0.66935302  1
  Ni  Ni50  1  0.83501775  0.50091923  0.83515656  1
  Ni  Ni51  1  0.83506611  0.83337100  0.50238387  1
  Ni  Ni52  1  0.66824895  0.66895997  0.66783416  1
  Fe  Fe53  1  0.83525260  0.83535995  0.83521753  1
" 