3477,Ni84Fe16_0,-230.853344396773, 173.851494141392,Ni84Fe16,"# generated using pymatgen
 data_Fe5Ni
_symmetry_space_group_name_H-M   'P 1'
_cell_length_a   7.40086680
_cell_length_b   7.40086680
_cell_length_c   10.46640620
_cell_angle_alpha   90.00000000
_cell_angle_beta   90.00000000
_cell_angle_gamma   90.00000000
_symmetry_Int_Tables_number   1
_chemical_formula_structural   Fe5Ni
_chemical_formula_sum   'Fe45 Ni9'
_cell_volume   573.27468027
_cell_formula_units_Z   9
loop_
 _symmetry_equiv_pos_site_id
 _symmetry_equiv_pos_as_xyz
  1  'x, y, z'
loop_
 _atom_site_type_symbol
 _atom_site_label
 _atom_site_symmetry_multiplicity
 _atom_site_fract_x
 _atom_site_fract_y
 _atom_site_fract_z
 _atom_site_occupancy
  Ni  Ni0  1  0.00456519  1.00381715  0.00511534  1
  Fe  Fe1  1  0.17141844  0.17096514  0.17141768  1
  Fe  Fe2  1  0.00492332  1.00402116  0.33729782  1
  Fe  Fe3  1  1.00439330  0.33726855  1.00447112  1
  Fe  Fe4  1  0.17137148  0.50523241  0.17128394  1
  Fe  Fe5  1  0.00461945  0.33795150  0.33803145  1
  Fe  Fe6  1  0.00469871  0.67189655  0.00512339  1
  Ni  Ni7  1  0.16990327  0.83838857  0.17123109  1
  Ni  Ni8  1  0.00466436  0.67169542  0.33715246  1
  Fe  Fe9  1  0.33726890  1.00439264  0.00447197  1
  Fe  Fe10  1  0.50404346  0.17108672  0.17055335  1
  Fe  Fe11  1  0.33676584  1.00388751  0.33780381  1
  Fe  Fe12  1  0.33775204  0.33729882  1.00396434  1
  Ni  Ni13  1  0.50523535  0.50426583  0.17037658  1
  Fe  Fe14  1  0.33753102  0.33854062  0.33853953  1
  Fe  Fe15  1  0.33729816  0.67172338  0.00500706  1
  Fe  Fe16  1  0.50401168  0.83734938  0.17113799  1
  Fe  Fe17  1  0.33766233  0.67098570  0.33741529  1
  Fe  Fe18  1  0.67144365  0.00469841  1.00416461  1
  Fe  Fe19  1  0.83795071  0.17091213  0.17083150  1
  Fe  Fe20  1  0.67172079  1.00388822  0.33780479  1
  Fe  Fe21  1  0.67127016  0.33729856  1.00404435  1
  Fe  Fe22  1  0.83808371  0.50520127  0.17136351  1
  Fe  Fe23  1  0.67126503  0.33884518  0.33815080  1
  Fe  Fe24  1  0.67141643  0.67141642  0.00469642  1
  Fe  Fe25  1  0.83820170  0.83729994  0.17113649  1
  Fe  Fe26  1  0.67113314  0.67068033  0.33780531  1
  Ni  Ni27  1  0.17047804  0.17047622  0.50484787  1
  Fe  Fe28  1  0.00469671  0.00570696  0.67141876  1
  Fe  Fe29  1  0.17159173  0.17113796  0.83729794  1
  Fe  Fe30  1  0.17151821  0.50401396  0.50455221  1
  Fe  Fe31  1  0.00469817  0.33757754  0.67091162  1
  Fe  Fe32  1  0.17179219  0.50381686  0.83757595  1
  Fe  Fe33  1  0.17133823  0.83752176  0.50366066  1
  Fe  Fe34  1  1.00439328  0.67012700  0.67071214  1
  Fe  Fe35  1  0.17133681  0.83845738  0.83869562  1
  Fe  Fe36  1  0.50401414  0.17196844  0.50550801  1
  Fe  Fe37  1  0.33830802  0.00588320  0.67113809  1
  Ni  Ni38  1  0.50465191  0.17170701  0.83733117  1
  Ni  Ni39  1  0.50523465  0.50448451  0.50543521  1
  Ni  Ni40  1  0.33919886  0.33770261  0.67103794  1
  Fe  Fe41  1  0.50447007  0.50356442  0.83735305  1
  Fe  Fe42  1  0.50404392  0.83793672  0.50447116  1
  Fe  Fe43  1  0.33861417  0.66995236  0.67099157  1
  Fe  Fe44  1  0.50454953  0.83833781  0.83780423  1
  Fe  Fe45  1  0.83752085  0.17179188  0.50461932  1
  Fe  Fe46  1  0.67040710  0.00557737  0.67144329  1
  Fe  Fe47  1  0.83727282  0.17105884  0.83796365  1
  Fe  Fe48  1  0.83793751  0.50404345  0.50447206  1
  Ni  Ni49  1  0.66964544  0.33770521  0.67104407  1
  Fe  Fe50  1  0.83715159  0.50381706  0.83757606  1
  Fe  Fe51  1  0.83803165  0.83757828  0.50424708  1
  Fe  Fe52  1  0.67040774  0.66995297  0.67091188  1
  Fe  Fe53  1  0.83752731  0.83853697  0.83802962  1
" 