4105,Ni84Fe16_12,-231.009400212464, 172.40880383361,Ni84Fe16,"# generated using pymatgen
 data_Fe5Ni
_symmetry_space_group_name_H-M   'P 1'
_cell_length_a   7.40346934
_cell_length_b   7.40346934
_cell_length_c   10.47008675
_cell_angle_alpha   90.00000000
_cell_angle_beta   90.00000000
_cell_angle_gamma   90.00000000
_symmetry_Int_Tables_number   1
_chemical_formula_structural   Fe5Ni
_chemical_formula_sum   'Fe45 Ni9'
_cell_volume   573.87967644
_cell_formula_units_Z   9
loop_
 _symmetry_equiv_pos_site_id
 _symmetry_equiv_pos_as_xyz
  1  'x, y, z'
loop_
 _atom_site_type_symbol
 _atom_site_label
 _atom_site_symmetry_multiplicity
 _atom_site_fract_x
 _atom_site_fract_y
 _atom_site_fract_z
 _atom_site_occupancy
  Fe  Fe0  1  0.00447092  1.00393692  0.00474439  1
  Fe  Fe1  1  0.17146340  0.17110636  0.17150117  1
  Ni  Ni2  1  1.00406103  1.00349470  0.33716242  1
  Fe  Fe3  1  1.00411279  0.33780700  1.00411093  1
  Fe  Fe4  1  0.17177400  0.50447546  0.17095457  1
  Fe  Fe5  1  0.00465263  0.33699482  0.33753650  1
  Fe  Fe6  1  0.00456497  0.67113971  0.00446583  1
  Ni  Ni7  1  0.16974581  0.83830458  0.17060893  1
  Fe  Fe8  1  0.00542903  0.67153561  0.33753607  1
  Fe  Fe9  1  0.33771690  1.00420280  1.00351600  1
  Fe  Fe10  1  0.50342902  0.17116713  0.17045265  1
  Fe  Fe11  1  0.33645192  1.00429110  0.33812917  1
  Fe  Fe12  1  0.33825521  0.33771450  0.00488448  1
  Ni  Ni13  1  0.50507332  0.50318437  0.17006563  1
  Ni  Ni14  1  0.33853646  0.33864987  0.33741326  1
  Fe  Fe15  1  0.33753413  0.67096314  0.00492432  1
  Fe  Fe16  1  0.50392954  0.83699339  0.17068700  1
  Fe  Fe17  1  0.33703845  0.67092652  0.33753528  1
  Fe  Fe18  1  0.67069058  0.00465550  1.00393400  1
  Fe  Fe19  1  0.83798745  0.17060104  0.17122907  1
  Fe  Fe20  1  0.67108160  0.00506923  0.33744481  1
  Fe  Fe21  1  0.67051841  0.33762233  1.00420182  1
  Fe  Fe22  1  0.83768614  0.50497734  0.17068685  1
  Fe  Fe23  1  0.67047904  0.33757170  0.33762781  1
  Fe  Fe24  1  0.67078230  0.67060233  0.00456021  1
  Fe  Fe25  1  0.83774155  0.83730149  0.17113916  1
  Fe  Fe26  1  0.67041510  0.67023494  0.33762778  1
  Fe  Fe27  1  0.17145426  0.17056670  0.50428823  1
  Ni  Ni28  1  0.00494651  1.00397451  0.67185609  1
  Fe  Fe29  1  0.17150451  0.17060827  0.83709248  1
  Fe  Fe30  1  0.17177236  0.50447388  0.50411678  1
  Fe  Fe31  1  0.00470370  0.33658826  0.67123403  1
  Fe  Fe32  1  0.17137437  0.50351843  0.83780958  1
  Ni  Ni33  1  0.16973406  0.83854650  0.50487144  1
  Fe  Fe34  1  0.00515487  0.67235634  0.67087981  1
  Fe  Fe35  1  0.17155498  0.83875461  0.83709401  1
  Fe  Fe36  1  0.50316288  0.17099102  0.50497664  1
  Ni  Ni37  1  0.33676215  0.00440782  0.67064021  1
  Ni  Ni38  1  0.50482066  0.17159281  0.83740447  1
  Ni  Ni39  1  0.50496361  0.50318246  0.50529077  1
  Fe  Fe40  1  0.33766260  0.33649869  0.67046024  1
  Fe  Fe41  1  0.50438115  0.50376177  0.83771455  1
  Fe  Fe42  1  0.50366342  0.83717172  0.50474455  1
  Fe  Fe43  1  0.33694337  0.67217975  0.67042184  1
  Fe  Fe44  1  0.50420529  0.83852699  0.83744796  1
  Fe  Fe45  1  0.83826226  0.17041582  0.50420342  1
  Fe  Fe46  1  0.67069178  0.00465490  0.67150214  1
  Fe  Fe47  1  0.83736271  0.17078152  0.83745171  1
  Fe  Fe48  1  0.83759730  0.50497734  0.50448004  1
  Fe  Fe49  1  0.67052027  0.33643901  0.67105100  1
  Fe  Fe50  1  0.83712633  0.50370414  0.83771459  1
  Fe  Fe51  1  0.83801634  0.83748717  0.50429356  1
  Fe  Fe52  1  0.67078301  0.67178643  0.67069364  1
  Fe  Fe53  1  0.83711961  0.83839532  0.83745217  1
" 