87,Ni84Fe16_4,-230.99593371102, 174.917493984333,Ni84Fe16,"# generated using pymatgen
 data_Fe5Ni
_symmetry_space_group_name_H-M   'P 1'
_cell_length_a   7.40124715
_cell_length_b   7.40124715
_cell_length_c   10.46694410
_cell_angle_alpha   90.00000000
_cell_angle_beta   90.00000000
_cell_angle_gamma   90.00000000
_symmetry_Int_Tables_number   1
_chemical_formula_structural   Fe5Ni
_chemical_formula_sum   'Fe45 Ni9'
_cell_volume   573.36307309
_cell_formula_units_Z   9
loop_
 _symmetry_equiv_pos_site_id
 _symmetry_equiv_pos_as_xyz
  1  'x, y, z'
loop_
 _atom_site_type_symbol
 _atom_site_label
 _atom_site_symmetry_multiplicity
 _atom_site_fract_x
 _atom_site_fract_y
 _atom_site_fract_z
 _atom_site_occupancy
  Fe  Fe0  1  0.00451960  0.00517994  1.00412789  1
  Fe  Fe1  1  0.17235361  0.17235064  0.17103923  1
  Fe  Fe2  1  1.00436501  1.00436261  0.33777576  1
  Fe  Fe3  1  0.00460066  0.33801722  0.00459960  1
  Ni  Ni4  1  0.17138701  0.50484573  0.17091032  1
  Fe  Fe5  1  0.00444672  0.33825387  0.33810804  1
  Fe  Fe6  1  0.00483602  0.67014067  0.00444547  1
  Fe  Fe7  1  0.17208645  0.83730824  0.17066360  1
  Fe  Fe8  1  1.00436403  0.67072084  0.33777662  1
  Fe  Fe9  1  0.33830649  0.00552706  1.00383599  1
  Ni  Ni10  1  0.50495545  0.17159285  0.17090647  1
  Fe  Fe11  1  0.33801695  0.00468358  0.33823492  1
  Ni  Ni12  1  0.33856721  0.33788030  0.00446390  1
  Ni  Ni13  1  0.50405211  0.50316481  0.17129217  1
  Fe  Fe14  1  0.33793400  0.33793197  0.33637410  1
  Fe  Fe15  1  0.33798730  0.66979310  1.00415514  1
  Fe  Fe16  1  0.50399838  0.83724937  0.17135928  1
  Fe  Fe17  1  0.33769657  0.67071923  0.33783183  1
  Fe  Fe18  1  0.67051114  0.00576424  0.00476654  1
  Fe  Fe19  1  0.83707078  0.17223851  0.17087516  1
  Fe  Fe20  1  0.67095542  0.00460073  0.33753931  1
  Ni  Ni21  1  0.67069711  0.33787378  0.00533219  1
  Fe  Fe22  1  0.83701354  0.50376369  0.17148571  1
  Fe  Fe23  1  0.67095595  0.33793316  0.33717942  1
  Fe  Fe24  1  0.67051100  0.66987260  0.00468386  1
  Fe  Fe25  1  0.83725106  0.83733315  0.17119188  1
  Fe  Fe26  1  0.67127391  0.67080029  0.33794226  1
  Fe  Fe27  1  0.17066101  0.17140193  0.50468330  1
  Fe  Fe28  1  0.00576405  1.00368264  0.67143151  1
  Fe  Fe29  1  0.17142368  0.17047430  0.83761196  1
  Fe  Fe30  1  0.17071392  0.50459963  0.50407178  1
  Fe  Fe31  1  0.00518110  0.33801736  0.67062713  1
  Fe  Fe32  1  0.17150560  0.50500264  0.83830502  1
  Fe  Fe33  1  0.17105888  0.83733434  0.50552767  1
  Fe  Fe34  1  0.00544508  0.67163607  0.67111179  1
  Ni  Ni35  1  0.17112876  0.83796786  0.83747498  1
  Fe  Fe36  1  0.50481424  0.17132020  0.50415566  1
  Ni  Ni37  1  0.33738502  1.00337159  0.67103119  1
  Fe  Fe38  1  0.50376393  0.17073972  0.83854177  1
  Fe  Fe39  1  0.50484411  0.50476329  0.50423717  1
  Fe  Fe40  1  0.33777993  0.33769598  0.67155810  1
  Fe  Fe41  1  0.50376428  0.50481803  0.83854203  1
  Fe  Fe42  1  0.50457910  0.83725193  0.50500151  1
  Ni  Ni43  1  0.33738717  0.67209164  0.67092685  1
  Fe  Fe44  1  0.50349532  0.83777780  0.83697395  1
  Fe  Fe45  1  0.83785987  0.17166895  0.50444736  1
  Fe  Fe46  1  0.67002643  1.00392052  0.67102977  1
  Fe  Fe47  1  0.83814867  0.17074288  0.83801565  1
  Ni  Ni48  1  0.83778185  0.50454728  0.50434099  1
  Fe  Fe49  1  0.67037476  0.33801614  0.67132242  1
  Fe  Fe50  1  0.83806598  0.50473271  0.83732249  1
  Fe  Fe51  1  0.83769625  0.83730513  0.50419711  1
  Fe  Fe52  1  0.67034723  0.67139953  0.67070983  1
  Fe  Fe53  1  0.83833256  0.83786005  0.83794666  1
" 