1040,Ni84Fe11Cr4_12,-238.464889590709, 185.932442435516,Ni84Fe11Cr4,"# generated using pymatgen
 data_Cr4(FeNi9)5
_symmetry_space_group_name_H-M   'P 1'
_cell_length_a   7.44677104
_cell_length_b   7.44677104
_cell_length_c   10.53132461
_cell_angle_alpha   90.00000000
_cell_angle_beta   90.00000000
_cell_angle_gamma   90.00000000
_symmetry_Int_Tables_number   1
_chemical_formula_structural   Cr4(FeNi9)5
_chemical_formula_sum   'Cr4 Fe5 Ni45'
_cell_volume   584.00827671
_cell_formula_units_Z   1
loop_
 _symmetry_equiv_pos_site_id
 _symmetry_equiv_pos_as_xyz
  1  'x, y, z'
loop_
 _atom_site_type_symbol
 _atom_site_label
 _atom_site_symmetry_multiplicity
 _atom_site_fract_x
 _atom_site_fract_y
 _atom_site_fract_z
 _atom_site_occupancy
  Fe  Fe0  1  1.00090523  1.00026216  1.00027661  1
  Ni  Ni1  1  0.16969497  0.16925181  0.16741962  1
  Ni  Ni2  1  0.00420059  0.00211708  0.33354914  1
  Ni  Ni3  1  0.00140307  0.33607548  0.99972823  1
  Ni  Ni4  1  0.16773217  0.49918775  0.16878840  1
  Ni  Ni5  1  1.00134979  0.33568459  0.33683435  1
  Ni  Ni6  1  1.00073082  0.66590650  0.00169101  1
  Ni  Ni7  1  0.16634359  0.83584162  0.16857621  1
  Ni  Ni8  1  0.00323003  0.66601226  0.33283795  1
  Ni  Ni9  1  0.33378819  0.00385155  0.99996963  1
  Ni  Ni10  1  0.49907316  0.17015950  0.16712652  1
  Ni  Ni11  1  0.33353039  0.00230828  0.33600623  1
  Fe  Fe12  1  0.33514622  0.33519460  1.00024691  1
  Ni  Ni13  1  0.50162488  0.49869519  0.16882500  1
  Fe  Fe14  1  0.33454468  0.33467004  0.33599695  1
  Cr  Cr15  1  0.33268157  0.66934905  1.00011161  1
  Cr  Cr16  1  0.50323630  0.83513365  0.17016414  1
  Ni  Ni17  1  0.33282230  0.66785404  0.33622848  1
  Ni  Ni18  1  0.66592326  0.00273662  0.99926527  1
  Cr  Cr19  1  0.83507482  0.16763445  0.16865445  1
  Ni  Ni20  1  0.66641602  0.00402718  0.33599427  1
  Ni  Ni21  1  0.66896256  0.33474925  1.00045305  1
  Ni  Ni22  1  0.83486476  0.50168711  0.16782210  1
  Ni  Ni23  1  0.66795855  0.33506836  0.33551871  1
  Ni  Ni24  1  0.67027980  0.66629864  1.00068155  1
  Ni  Ni25  1  0.83590990  0.83312156  0.16731570  1
  Ni  Ni26  1  0.66818836  0.66473088  0.33419268  1
  Ni  Ni27  1  0.16778000  0.16810697  0.50164773  1
  Ni  Ni28  1  0.00251048  0.00191767  0.66941142  1
  Ni  Ni29  1  0.16754808  0.16837464  0.83520357  1
  Ni  Ni30  1  0.16836426  0.50105669  0.50251247  1
  Fe  Fe31  1  0.00164279  0.33433564  0.66804677  1
  Ni  Ni32  1  0.16778263  0.49982697  0.83321628  1
  Ni  Ni33  1  0.16932895  0.83485780  0.50169079  1
  Ni  Ni34  1  0.00256060  0.66731143  0.66947860  1
  Ni  Ni35  1  0.16755141  0.83578278  0.83350664  1
  Ni  Ni36  1  0.50112003  0.16833237  0.50196354  1
  Ni  Ni37  1  0.33394540  0.00184354  0.66790175  1
  Fe  Fe38  1  0.50130460  0.16840007  0.83405005  1
  Ni  Ni39  1  0.50121495  0.50160218  0.50151113  1
  Ni  Ni40  1  0.33540620  0.33436943  0.66852654  1
  Ni  Ni41  1  0.50220146  0.50135792  0.83398771  1
  Ni  Ni42  1  0.49995408  0.83419252  0.50211931  1
  Ni  Ni43  1  0.33381316  0.66779735  0.66795444  1
  Ni  Ni44  1  0.50224527  0.83473054  0.83248109  1
  Ni  Ni45  1  0.83530934  0.16931078  0.50187275  1
  Ni  Ni46  1  0.66747087  0.00342721  0.66859470  1
  Ni  Ni47  1  0.83547275  0.16823289  0.83380179  1
  Ni  Ni48  1  0.83466416  0.49974538  0.50198770  1
  Ni  Ni49  1  0.66804157  0.33449972  0.66793486  1
  Ni  Ni50  1  0.83440637  0.50073592  0.83442541  1
  Cr  Cr51  1  0.83465443  0.83469782  0.50038923  1
  Ni  Ni52  1  0.66773971  0.66627766  0.66933059  1
  Ni  Ni53  1  0.83386789  0.83478433  0.83569571  1
" 