6233,Ni84Fe11Cr4_14,-238.524865294528, 185.213759564244,Ni84Fe11Cr4,"# generated using pymatgen
 data_Cr4(FeNi9)5
_symmetry_space_group_name_H-M   'P 1'
_cell_length_a   7.44668200
_cell_length_b   7.44668200
_cell_length_c   10.53119868
_cell_angle_alpha   90.00000000
_cell_angle_beta   90.00000000
_cell_angle_gamma   90.00000000
_symmetry_Int_Tables_number   1
_chemical_formula_structural   Cr4(FeNi9)5
_chemical_formula_sum   'Cr4 Fe5 Ni45'
_cell_volume   583.98732679
_cell_formula_units_Z   1
loop_
 _symmetry_equiv_pos_site_id
 _symmetry_equiv_pos_as_xyz
  1  'x, y, z'
loop_
 _atom_site_type_symbol
 _atom_site_label
 _atom_site_symmetry_multiplicity
 _atom_site_fract_x
 _atom_site_fract_y
 _atom_site_fract_z
 _atom_site_occupancy
  Cr  Cr0  1  1.00005162  0.00268524  0.00249195  1
  Ni  Ni1  1  0.16934795  0.16921654  0.16893435  1
  Ni  Ni2  1  1.00020846  0.00277722  0.33405109  1
  Ni  Ni3  1  0.00223882  0.33640003  1.00069804  1
  Ni  Ni4  1  0.16778700  0.50120764  0.16790283  1
  Ni  Ni5  1  0.00162601  0.33415837  0.33543999  1
  Ni  Ni6  1  0.99998817  0.66494938  0.00172925  1
  Fe  Fe7  1  0.16894552  0.83377432  0.16894374  1
  Ni  Ni8  1  1.00020993  0.66716568  0.33389825  1
  Ni  Ni9  1  0.33737044  0.00274724  0.00169090  1
  Ni  Ni10  1  0.50072127  0.16709736  0.16777999  1
  Ni  Ni11  1  0.33431528  0.00168773  0.33309532  1
  Ni  Ni12  1  0.33367404  0.33496024  1.00098020  1
  Ni  Ni13  1  0.50072227  0.50176191  0.16793311  1
  Ni  Ni14  1  0.33336954  0.33571785  0.33433092  1
  Ni  Ni15  1  0.33592784  0.66639347  0.00201235  1
  Ni  Ni16  1  0.50147627  0.83524185  0.16810501  1
  Ni  Ni17  1  0.33587428  0.66669588  0.33412736  1
  Ni  Ni18  1  0.66674566  1.00049473  1.00065808  1
  Ni  Ni19  1  0.83403367  0.16845698  0.16899473  1
  Ni  Ni20  1  0.66957814  1.00027013  0.33438951  1
  Fe  Fe21  1  0.66804936  0.33473672  0.00158999  1
  Ni  Ni22  1  0.83559342  0.50196262  0.16796347  1
  Ni  Ni23  1  0.66910747  0.33572013  0.33354942  1
  Ni  Ni24  1  0.66818624  0.66864456  1.00098105  1
  Ni  Ni25  1  0.83347450  0.83368104  0.16873168  1
  Ni  Ni26  1  0.66801719  0.66811235  0.33541906  1
  Ni  Ni27  1  0.16661793  0.16971860  0.50175325  1
  Ni  Ni28  1  0.99946817  0.00351483  0.66788284  1
  Ni  Ni29  1  0.16969840  0.17074458  0.83341837  1
  Ni  Ni30  1  0.16805552  0.49994756  0.50143151  1
  Fe  Fe31  1  0.00143904  0.33409870  0.66813788  1
  Ni  Ni32  1  0.16737512  0.49979332  0.83476696  1
  Cr  Cr33  1  0.16865320  0.83475107  0.50090154  1
  Fe  Fe34  1  0.99953620  0.66675317  0.66814989  1
  Cr  Cr35  1  0.16939929  0.83357724  0.83464697  1
  Cr  Cr36  1  0.50132226  0.16753622  0.50058653  1
  Ni  Ni37  1  0.33458555  0.00242864  0.66931370  1
  Ni  Ni38  1  0.50112616  0.16685467  0.83519337  1
  Ni  Ni39  1  0.50122634  0.50327634  0.50157106  1
  Ni  Ni40  1  0.33337818  0.33583473  0.66878804  1
  Fe  Fe41  1  0.50141236  0.50126034  0.83426932  1
  Ni  Ni42  1  0.50292290  0.83300142  0.50159435  1
  Ni  Ni43  1  0.33690063  0.66583780  0.66796380  1
  Ni  Ni44  1  0.50289231  0.83588753  0.83440313  1
  Ni  Ni45  1  0.83625651  0.16802091  0.50128835  1
  Ni  Ni46  1  0.67004814  0.99999380  0.66905216  1
  Ni  Ni47  1  0.83327499  0.16897764  0.83382316  1
  Ni  Ni48  1  0.83481851  0.50164403  0.50096702  1
  Ni  Ni49  1  0.66881260  0.33583300  0.66927216  1
  Ni  Ni50  1  0.83560326  0.50156451  0.83517182  1
  Ni  Ni51  1  0.83292673  0.83443743  0.50175462  1
  Ni  Ni52  1  0.66773674  0.66827596  0.66770139  1
  Ni  Ni53  1  0.83171376  0.83355988  0.83361631  1
" 