3914,Ni84Fe11Cr4_6,-238.627490750068, 186.34931704256,Ni84Fe11Cr4,"# generated using pymatgen
 data_Cr4(FeNi9)5
_symmetry_space_group_name_H-M   'P 1'
_cell_length_a   7.44905146
_cell_length_b   7.44905146
_cell_length_c   10.53454961
_cell_angle_alpha   90.00000000
_cell_angle_beta   90.00000000
_cell_angle_gamma   90.00000000
_symmetry_Int_Tables_number   1
_chemical_formula_structural   Cr4(FeNi9)5
_chemical_formula_sum   'Cr4 Fe5 Ni45'
_cell_volume   584.54496249
_cell_formula_units_Z   1
loop_
 _symmetry_equiv_pos_site_id
 _symmetry_equiv_pos_as_xyz
  1  'x, y, z'
loop_
 _atom_site_type_symbol
 _atom_site_label
 _atom_site_symmetry_multiplicity
 _atom_site_fract_x
 _atom_site_fract_y
 _atom_site_fract_z
 _atom_site_occupancy
  Ni  Ni0  1  1.00092307  0.00124405  1.00114277  1
  Ni  Ni1  1  0.16689720  0.16833585  0.16840206  1
  Ni  Ni2  1  1.00050337  0.00265154  0.33526684  1
  Ni  Ni3  1  1.00034374  0.33490422  0.00211790  1
  Fe  Fe4  1  0.16691340  0.49923630  0.16982013  1
  Ni  Ni5  1  0.00173813  0.33379159  0.33420117  1
  Ni  Ni6  1  0.99827515  0.66747179  1.00051415  1
  Cr  Cr7  1  0.16710793  0.83597259  0.16848299  1
  Fe  Fe8  1  1.00039234  0.66757435  0.33591783  1
  Ni  Ni9  1  0.33518755  0.00202351  1.00039804  1
  Ni  Ni10  1  0.50191495  0.16830490  0.16795035  1
  Ni  Ni11  1  0.33485067  0.00167554  0.33478779  1
  Cr  Cr12  1  0.33451363  0.33265489  1.00115734  1
  Ni  Ni13  1  0.50300074  0.50096797  0.16937992  1
  Ni  Ni14  1  0.33393306  0.33508376  0.33427666  1
  Cr  Cr15  1  0.33590122  0.66891074  0.99997777  1
  Ni  Ni16  1  0.50328575  0.83434928  0.16856133  1
  Ni  Ni17  1  0.33594650  0.66686266  0.33525325  1
  Ni  Ni18  1  0.66751237  0.99995580  0.00242459  1
  Ni  Ni19  1  0.83481196  0.16804347  0.16772785  1
  Ni  Ni20  1  0.66827231  1.00063980  0.33413043  1
  Ni  Ni21  1  0.66901532  0.33527236  0.00212526  1
  Fe  Fe22  1  0.83352868  0.50059662  0.16739020  1
  Ni  Ni23  1  0.66795175  0.33488774  0.33434234  1
  Ni  Ni24  1  0.66979752  0.66839493  1.00108651  1
  Ni  Ni25  1  0.83343767  0.83460731  0.16705569  1
  Ni  Ni26  1  0.66697512  0.66809625  0.33404255  1
  Ni  Ni27  1  0.16788360  0.16735951  0.50102430  1
  Ni  Ni28  1  0.00207047  1.00047512  0.66721283  1
  Ni  Ni29  1  0.16899888  0.16619112  0.83419675  1
  Ni  Ni30  1  0.16838022  0.50172938  0.50113951  1
  Ni  Ni31  1  0.00219903  0.33526696  0.66730347  1
  Fe  Fe32  1  0.16637334  0.50155699  0.83245299  1
  Ni  Ni33  1  0.16709111  0.83453503  0.50126064  1
  Ni  Ni34  1  1.00116273  0.66788144  0.66791718  1
  Ni  Ni35  1  0.16718649  0.83563946  0.83407578  1
  Ni  Ni36  1  0.50117751  0.16909758  0.50117274  1
  Ni  Ni37  1  0.33426157  0.00132662  0.66844184  1
  Ni  Ni38  1  0.49960706  0.16791748  0.83449937  1
  Ni  Ni39  1  0.50123934  0.50056011  0.50127088  1
  Ni  Ni40  1  0.33438178  0.33466443  0.66795404  1
  Ni  Ni41  1  0.50324470  0.50134476  0.83296977  1
  Fe  Fe42  1  0.50114311  0.83449048  0.50109492  1
  Ni  Ni43  1  0.33456700  0.66763391  0.66802297  1
  Ni  Ni44  1  0.50098095  0.83436167  0.83422603  1
  Ni  Ni45  1  0.83456243  0.16780020  0.50109432  1
  Ni  Ni46  1  0.66729041  1.00028833  0.66706712  1
  Cr  Cr47  1  0.83463735  0.16827461  0.83436084  1
  Ni  Ni48  1  0.83400118  0.50135151  0.50105933  1
  Ni  Ni49  1  0.66704160  0.33557272  0.66715447  1
  Ni  Ni50  1  0.83373100  0.50315792  0.83525546  1
  Ni  Ni51  1  0.83573684  0.83447266  0.50133153  1
  Ni  Ni52  1  0.66789282  0.66776198  0.66849832  1
  Ni  Ni53  1  0.83545566  0.83200743  0.83523812  1
" 