5850,Ni84Fe16_10,-230.626346340078, 171.389110648224,Ni84Fe16,"# generated using pymatgen
 data_Fe5Ni
_symmetry_space_group_name_H-M   'P 1'
_cell_length_a   7.40024253
_cell_length_b   7.40024253
_cell_length_c   10.46552335
_cell_angle_alpha   90.00000000
_cell_angle_beta   90.00000000
_cell_angle_gamma   90.00000000
_symmetry_Int_Tables_number   1
_chemical_formula_structural   Fe5Ni
_chemical_formula_sum   'Fe45 Ni9'
_cell_volume   573.12962418
_cell_formula_units_Z   9
loop_
 _symmetry_equiv_pos_site_id
 _symmetry_equiv_pos_as_xyz
  1  'x, y, z'
loop_
 _atom_site_type_symbol
 _atom_site_label
 _atom_site_symmetry_multiplicity
 _atom_site_fract_x
 _atom_site_fract_y
 _atom_site_fract_z
 _atom_site_occupancy
  Fe  Fe0  1  1.00436153  0.00483099  0.00480775  1
  Fe  Fe1  1  0.17058561  0.17147343  0.17124950  1
  Ni  Ni2  1  0.00512997  1.00412925  0.33815115  1
  Fe  Fe3  1  1.00404326  0.33784725  1.00434568  1
  Fe  Fe4  1  0.17055740  0.50458228  0.17169364  1
  Fe  Fe5  1  1.00390095  0.33884513  0.33776338  1
  Fe  Fe6  1  1.00444724  0.67086276  0.00519371  1
  Fe  Fe7  1  0.17018309  0.83748615  0.17201123  1
  Ni  Ni8  1  1.00382937  0.67128453  0.33736599  1
  Fe  Fe9  1  0.33784612  1.00442797  1.00407115  1
  Fe  Fe10  1  0.50487404  0.17178943  0.17109985  1
  Fe  Fe11  1  0.33714725  1.00322233  0.33844100  1
  Fe  Fe12  1  0.33784620  0.33793152  0.00459808  1
  Fe  Fe13  1  0.50530071  0.50466480  0.17124961  1
  Fe  Fe14  1  0.33716877  0.33860878  0.33799742  1
  Fe  Fe15  1  0.33784470  0.67118168  1.00434417  1
  Fe  Fe16  1  0.50536034  0.83708570  0.17116509  1
  Fe  Fe17  1  0.33684980  0.67171013  0.33831385  1
  Fe  Fe18  1  0.67133206  0.00483103  1.00358421  1
  Fe  Fe19  1  0.83808296  0.17141190  0.17072023  1
  Fe  Fe20  1  0.67217922  1.00359923  0.33829497  1
  Fe  Fe21  1  0.67165071  0.33784626  0.00451429  1
  Ni  Ni22  1  0.83775972  0.50432674  0.17119418  1
  Fe  Fe23  1  0.67247227  0.33854548  0.33744729  1
  Fe  Fe24  1  0.67124901  0.67086292  0.00536105  1
  Fe  Fe25  1  0.83799847  0.83705795  0.17188727  1
  Ni  Ni26  1  0.67184855  0.67037856  0.33775554  1
  Fe  Fe27  1  0.17134823  0.17079490  0.50442943  1
  Fe  Fe28  1  1.00442686  0.00459800  0.67081982  1
  Fe  Fe29  1  0.17094101  0.17102894  0.83786411  1
  Ni  Ni30  1  0.17126341  0.50579235  0.50391071  1
  Fe  Fe31  1  1.00442839  0.33679252  0.67143140  1
  Fe  Fe32  1  0.17065119  0.50390309  0.83739917  1
  Ni  Ni33  1  0.17165754  0.83716733  0.50441119  1
  Fe  Fe34  1  0.00514841  0.67215204  0.67026630  1
  Fe  Fe35  1  0.17088426  0.83860990  0.83725070  1
  Fe  Fe36  1  0.50329207  0.17079455  0.50506385  1
  Ni  Ni37  1  0.33832558  0.00509226  0.67155885  1
  Fe  Fe38  1  0.50498297  0.17071261  0.83737842  1
  Fe  Fe39  1  0.50367078  0.50519160  0.50427779  1
  Fe  Fe40  1  0.33822114  0.33717270  0.67094350  1
  Fe  Fe41  1  0.50504222  0.50398709  0.83801397  1
  Fe  Fe42  1  0.50375520  0.83755494  0.50491587  1
  Fe  Fe43  1  0.33790484  0.67217951  0.67088094  1
  Fe  Fe44  1  0.50512603  0.83884233  0.83746161  1
  Fe  Fe45  1  0.83890219  0.17070982  0.50521087  1
  Ni  Ni46  1  0.67031182  0.00470533  0.67127898  1
  Ni  Ni47  1  0.83716029  0.17108085  0.83832399  1
  Fe  Fe48  1  0.83884502  0.50559447  0.50343394  1
  Fe  Fe49  1  0.67089135  0.33644863  0.67158081  1
  Fe  Fe50  1  0.83784745  0.50404635  0.83854096  1
  Fe  Fe51  1  0.83884502  0.83723589  0.50395930  1
  Fe  Fe52  1  0.67048817  0.67217634  0.67081811  1
  Fe  Fe53  1  0.83752952  0.83855180  0.83769438  1
" 