3015,Ni84Fe16_14,-230.720221406667, 173.763976822779,Ni84Fe16,"# generated using pymatgen
 data_Fe5Ni
_symmetry_space_group_name_H-M   'P 1'
_cell_length_a   7.39941696
_cell_length_b   7.39941696
_cell_length_c   10.46435582
_cell_angle_alpha   90.00000000
_cell_angle_beta   90.00000000
_cell_angle_gamma   90.00000000
_symmetry_Int_Tables_number   1
_chemical_formula_structural   Fe5Ni
_chemical_formula_sum   'Fe45 Ni9'
_cell_volume   572.93783234
_cell_formula_units_Z   9
loop_
 _symmetry_equiv_pos_site_id
 _symmetry_equiv_pos_as_xyz
  1  'x, y, z'
loop_
 _atom_site_type_symbol
 _atom_site_label
 _atom_site_symmetry_multiplicity
 _atom_site_fract_x
 _atom_site_fract_y
 _atom_site_fract_z
 _atom_site_occupancy
  Fe  Fe0  1  1.00414591  1.00440880  0.00458961  1
  Fe  Fe1  1  0.17204644  0.17213327  0.17175201  1
  Fe  Fe2  1  0.00521883  0.00521630  0.33772352  1
  Fe  Fe3  1  1.00408255  0.33741825  1.00431932  1
  Fe  Fe4  1  0.17207258  0.50423216  0.17092283  1
  Fe  Fe5  1  0.00481881  0.33797594  0.33815196  1
  Fe  Fe6  1  0.00459649  0.67188388  1.00351191  1
  Fe  Fe7  1  0.17170744  0.83734315  0.17076443  1
  Fe  Fe8  1  0.00497153  0.67051708  0.33871352  1
  Fe  Fe9  1  0.33815008  1.00423173  1.00367091  1
  Fe  Fe10  1  0.50456726  0.17173351  0.17123665  1
  Fe  Fe11  1  0.33772574  0.00506465  0.33864522  1
  Fe  Fe12  1  0.33855111  0.33793269  0.00530719  1
  Ni  Ni13  1  0.50487238  0.50414839  0.17154713  1
  Ni  Ni14  1  0.33770908  0.33770095  0.33770084  1
  Fe  Fe15  1  0.33821515  0.67154684  1.00449988  1
  Fe  Fe16  1  0.50499603  0.83765280  0.17098791  1
  Fe  Fe17  1  0.33815132  0.67048843  0.33729837  1
  Ni  Ni18  1  0.67102110  1.00435542  1.00436329  1
  Fe  Fe19  1  0.83709494  0.17137048  0.17080891  1
  Fe  Fe20  1  0.67076549  0.00521778  0.33716510  1
  Fe  Fe21  1  0.67107670  0.33747982  0.00490490  1
  Fe  Fe22  1  0.83740793  0.50466161  0.17188650  1
  Fe  Fe23  1  0.67073651  0.33840041  0.33790325  1
  Fe  Fe24  1  0.67089848  0.67148117  1.00452470  1
  Fe  Fe25  1  0.83700610  0.83767738  0.17098962  1
  Fe  Fe26  1  0.67058738  0.67009080  0.33846386  1
  Fe  Fe27  1  0.17126390  0.17179829  0.50430523  1
  Fe  Fe28  1  0.00484697  1.00325985  0.67139671  1
  Fe  Fe29  1  0.17157441  0.17108108  0.83765309  1
  Fe  Fe30  1  0.17056106  0.50439392  0.50495416  1
  Fe  Fe31  1  1.00439265  0.33889780  0.67123612  1
  Ni  Ni32  1  0.17122906  0.50562317  0.83757169  1
  Fe  Fe33  1  0.17058872  0.83751883  0.50554438  1
  Ni  Ni34  1  1.00331078  0.67058815  0.67134221  1
  Ni  Ni35  1  0.17123396  0.83768817  0.83768149  1
  Fe  Fe36  1  0.50454289  0.17170861  0.50457177  1
  Ni  Ni37  1  0.33779409  0.00564990  0.67145918  1
  Fe  Fe38  1  0.50336202  0.17065380  0.83790184  1
  Fe  Fe39  1  0.50524348  0.50448368  0.50374471  1
  Fe  Fe40  1  0.33774448  0.33869204  0.67092438  1
  Fe  Fe41  1  0.50367483  0.50528930  0.83839301  1
  Fe  Fe42  1  0.50530711  0.83752087  0.50507320  1
  Fe  Fe43  1  0.33740588  0.67191832  0.67191138  1
  Fe  Fe44  1  0.50376189  0.83776995  0.83765098  1
  Fe  Fe45  1  0.83790266  0.17173174  0.50439284  1
  Fe  Fe46  1  0.67120996  1.00360141  0.67179997  1
  Fe  Fe47  1  0.83877358  0.17098780  0.83850762  1
  Ni  Ni48  1  0.83759580  0.50437073  0.50436238  1
  Fe  Fe49  1  0.67157262  0.33864877  0.67090091  1
  Fe  Fe50  1  0.83913803  0.50562394  0.83666936  1
  Fe  Fe51  1  0.83781457  0.83681622  0.50488878  1
  Ni  Ni52  1  0.67302835  0.67100482  0.67175578  1
  Fe  Fe53  1  0.83871280  0.83709504  0.83783335  1
" 