8349,Ni84Fe13Cr2_17,-240.842102874789, 195.753066656128,Ni84Fe13Cr2,"# generated using pymatgen
 data_Cr2Fe7Ni45
_symmetry_space_group_name_H-M   'P 1'
_cell_length_a   7.43962142
_cell_length_b   7.43962142
_cell_length_c   10.52121351
_cell_angle_alpha   90.00000000
_cell_angle_beta   90.00000000
_cell_angle_gamma   90.00000000
_symmetry_Int_Tables_number   1
_chemical_formula_structural   Cr2Fe7Ni45
_chemical_formula_sum   'Cr2 Fe7 Ni45'
_cell_volume   582.32777689
_cell_formula_units_Z   1
loop_
 _symmetry_equiv_pos_site_id
 _symmetry_equiv_pos_as_xyz
  1  'x, y, z'
loop_
 _atom_site_type_symbol
 _atom_site_label
 _atom_site_symmetry_multiplicity
 _atom_site_fract_x
 _atom_site_fract_y
 _atom_site_fract_z
 _atom_site_occupancy
  Fe  Fe0  1  0.00280374  1.00100748  0.00281108  1
  Ni  Ni1  1  0.16596092  0.16856274  0.16895151  1
  Ni  Ni2  1  1.00152217  1.00174329  0.33383353  1
  Ni  Ni3  1  0.00359144  0.33718939  0.00325691  1
  Ni  Ni4  1  0.16831884  0.50183338  0.16855647  1
  Ni  Ni5  1  1.00180349  0.33555826  0.33461924  1
  Ni  Ni6  1  1.00048716  0.66738835  1.00152466  1
  Ni  Ni7  1  0.16837007  0.83513318  0.16854668  1
  Ni  Ni8  1  0.00242067  0.66822777  0.33482915  1
  Ni  Ni9  1  0.33557265  0.00203682  1.00104775  1
  Cr  Cr10  1  0.50221752  0.16856211  0.16880725  1
  Ni  Ni11  1  0.33505141  1.00084891  0.33585684  1
  Ni  Ni12  1  0.33332822  0.33498381  1.00104647  1
  Ni  Ni13  1  0.50198465  0.50380178  0.16877486  1
  Ni  Ni14  1  0.33448999  0.33617134  0.33585603  1
  Fe  Fe15  1  0.33535511  0.66850935  0.00191725  1
  Ni  Ni16  1  0.50203988  0.83327594  0.16878430  1
  Ni  Ni17  1  0.33476631  0.66850992  0.33388420  1
  Ni  Ni18  1  0.66748513  0.99893221  0.00189722  1
  Ni  Ni19  1  0.83708602  0.16850852  0.16872668  1
  Ni  Ni20  1  0.66895660  1.00146100  0.33575051  1
  Fe  Fe21  1  0.66877132  0.33741347  0.00216709  1
  Ni  Ni22  1  0.83522566  0.50139200  0.16851433  1
  Ni  Ni23  1  0.66923839  0.33527426  0.33496516  1
  Ni  Ni24  1  0.66968909  0.66963029  0.00234977  1
  Ni  Ni25  1  0.83512007  0.83563012  0.16851294  1
  Fe  Fe26  1  0.66786045  0.66845286  0.33446306  1
  Ni  Ni27  1  0.16754101  0.16850104  0.50178891  1
  Ni  Ni28  1  0.00261017  1.00079743  0.66844005  1
  Ni  Ni29  1  0.16951425  0.16856698  0.83478312  1
  Ni  Ni30  1  0.16896604  0.50193949  0.50212555  1
  Ni  Ni31  1  0.00289007  0.33650151  0.66765584  1
  Ni  Ni32  1  0.16890165  0.50164861  0.83484759  1
  Ni  Ni33  1  0.16895719  0.83508920  0.50212548  1
  Ni  Ni34  1  1.00153835  0.66822859  0.66917265  1
  Ni  Ni35  1  0.16895809  0.83531430  0.83485282  1
  Ni  Ni36  1  0.50298675  0.16851894  0.50275155  1
  Ni  Ni37  1  0.33559825  0.00209888  0.66863123  1
  Fe  Fe38  1  0.49962879  0.16819001  0.83471649  1
  Ni  Ni39  1  0.50158685  0.50194019  0.50168049  1
  Ni  Ni40  1  0.33503792  0.33492014  0.66863182  1
  Ni  Ni41  1  0.50190951  0.50261677  0.83507322  1
  Ni  Ni42  1  0.50157912  0.83506953  0.50167929  1
  Ni  Ni43  1  0.33509499  0.66850965  0.66953535  1
  Ni  Ni44  1  0.50196174  0.83445426  0.83506352  1
  Ni  Ni45  1  0.83500110  0.16851013  0.50144363  1
  Ni  Ni46  1  0.66731877  1.00074229  0.66788852  1
  Cr  Cr47  1  0.83570892  0.16851435  0.83550016  1
  Fe  Fe48  1  0.83544648  0.50097823  0.50218310  1
  Ni  Ni49  1  0.66759728  0.33599748  0.66867291  1
  Ni  Ni50  1  0.83471803  0.50317389  0.83462810  1
  Fe  Fe51  1  0.83545850  0.83604058  0.50218219  1
  Ni  Ni52  1  0.66889908  0.66879097  0.66860696  1
  Ni  Ni53  1  0.83460973  0.83384357  0.83462409  1
" 