2218,Ni84Fe13Cr2_7,-240.740568035328, 193.603668601722,Ni84Fe13Cr2,"# generated using pymatgen
 data_Cr2Fe7Ni45
_symmetry_space_group_name_H-M   'P 1'
_cell_length_a   7.43942547
_cell_length_b   7.43942547
_cell_length_c   10.52093639
_cell_angle_alpha   90.00000000
_cell_angle_beta   90.00000000
_cell_angle_gamma   90.00000000
_symmetry_Int_Tables_number   1
_chemical_formula_structural   Cr2Fe7Ni45
_chemical_formula_sum   'Cr2 Fe7 Ni45'
_cell_volume   582.28176372
_cell_formula_units_Z   1
loop_
 _symmetry_equiv_pos_site_id
 _symmetry_equiv_pos_as_xyz
  1  'x, y, z'
loop_
 _atom_site_type_symbol
 _atom_site_label
 _atom_site_symmetry_multiplicity
 _atom_site_fract_x
 _atom_site_fract_y
 _atom_site_fract_z
 _atom_site_occupancy
  Fe  Fe0  1  0.00270966  1.00159516  0.00206125  1
  Ni  Ni1  1  0.16932989  0.16866097  0.16932524  1
  Ni  Ni2  1  0.00263362  1.00138872  0.33450471  1
  Ni  Ni3  1  1.00149442  0.33548688  0.00203695  1
  Ni  Ni4  1  0.16787240  0.50102239  0.16800625  1
  Ni  Ni5  1  0.00263305  0.33570305  0.33445138  1
  Ni  Ni6  1  1.00104843  0.66807682  1.00181176  1
  Ni  Ni7  1  0.16792923  0.83588578  0.16811189  1
  Ni  Ni8  1  1.00117175  0.66847850  0.33554532  1
  Ni  Ni9  1  0.33556541  0.00210971  1.00175891  1
  Ni  Ni10  1  0.50084576  0.16866602  0.16836432  1
  Ni  Ni11  1  0.33455300  1.00144042  0.33495492  1
  Ni  Ni12  1  0.33528467  0.33425864  0.00203923  1
  Ni  Ni13  1  0.50237090  0.50108165  0.16844617  1
  Ni  Ni14  1  0.33427379  0.33537018  0.33411809  1
  Ni  Ni15  1  0.33562828  0.66920108  1.00181688  1
  Ni  Ni16  1  0.50230903  0.83582166  0.16855090  1
  Ni  Ni17  1  0.33568174  0.66875884  0.33521346  1
  Fe  Fe18  1  0.66746538  1.00132438  1.00174234  1
  Fe  Fe19  1  0.83511603  0.16905607  0.16930234  1
  Ni  Ni20  1  0.66838209  0.99997925  0.33309284  1
  Ni  Ni21  1  0.66878858  0.33554621  1.00143380  1
  Ni  Ni22  1  0.83532610  0.50248480  0.16877772  1
  Ni  Ni23  1  0.66866238  0.33683369  0.33381998  1
  Ni  Ni24  1  0.66889675  0.66835741  0.00198757  1
  Ni  Ni25  1  0.83533146  0.83436281  0.16888232  1
  Ni  Ni26  1  0.66871594  0.66875873  0.33553059  1
  Ni  Ni27  1  0.16860705  0.16847944  0.50172816  1
  Ni  Ni28  1  0.00226883  1.00171288  0.66930925  1
  Ni  Ni29  1  0.16932306  0.16861798  0.83451773  1
  Ni  Ni30  1  0.16805388  0.50165062  0.50223114  1
  Ni  Ni31  1  0.00310437  0.33559983  0.66908371  1
  Fe  Fe32  1  0.16895734  0.50176735  0.83520292  1
  Ni  Ni33  1  0.16804774  0.83543977  0.50228378  1
  Ni  Ni34  1  1.00074473  0.66825771  0.66821074  1
  Fe  Fe35  1  0.16927999  0.83501406  0.83498727  1
  Cr  Cr36  1  0.49936650  0.16833641  0.50203547  1
  Ni  Ni37  1  0.33491781  1.00176491  0.66885372  1
  Ni  Ni38  1  0.50030029  0.16856901  0.83496556  1
  Ni  Ni39  1  0.50190579  0.50368450  0.50195761  1
  Ni  Ni40  1  0.33379890  0.33526756  0.66941204  1
  Ni  Ni41  1  0.50267883  0.50140184  0.83516501  1
  Ni  Ni42  1  0.50196570  0.83346120  0.50200732  1
  Ni  Ni43  1  0.33611369  0.66853742  0.66853765  1
  Ni  Ni44  1  0.50267436  0.83560008  0.83501111  1
  Cr  Cr45  1  0.83719764  0.16833359  0.50203638  1
  Ni  Ni46  1  0.66838191  0.99940423  0.67054148  1
  Fe  Fe47  1  0.83439789  0.16879466  0.83466777  1
  Ni  Ni48  1  0.83560941  0.50424467  0.50195815  1
  Fe  Fe49  1  0.66825742  0.33737131  0.67028559  1
  Ni  Ni50  1  0.83502673  0.50280327  0.83483257  1
  Ni  Ni51  1  0.83555605  0.83290663  0.50200716  1
  Ni  Ni52  1  0.66871552  0.66937567  0.66805225  1
  Ni  Ni53  1  0.83497822  0.83414293  0.83468073  1
" 