1142,Ni84Fe16_2,-230.874689802013, 169.959618500665,Ni84Fe16,"# generated using pymatgen
 data_Fe5Ni
_symmetry_space_group_name_H-M   'P 1'
_cell_length_a   7.40259886
_cell_length_b   7.40259886
_cell_length_c   10.46885570
_cell_angle_alpha   90.00000000
_cell_angle_beta   90.00000000
_cell_angle_gamma   90.00000000
_symmetry_Int_Tables_number   1
_chemical_formula_structural   Fe5Ni
_chemical_formula_sum   'Fe45 Ni9'
_cell_volume   573.67727367
_cell_formula_units_Z   9
loop_
 _symmetry_equiv_pos_site_id
 _symmetry_equiv_pos_as_xyz
  1  'x, y, z'
loop_
 _atom_site_type_symbol
 _atom_site_label
 _atom_site_symmetry_multiplicity
 _atom_site_fract_x
 _atom_site_fract_y
 _atom_site_fract_z
 _atom_site_occupancy
  Fe  Fe0  1  0.00591502  1.00399198  0.00462377  1
  Fe  Fe1  1  0.17150198  0.17106221  0.17103147  1
  Fe  Fe2  1  0.00475184  1.00404223  0.33788228  1
  Fe  Fe3  1  0.00607688  0.33931101  1.00409003  1
  Fe  Fe4  1  0.17134595  0.50457637  0.16927797  1
  Fe  Fe5  1  0.00439899  0.33771720  0.33797082  1
  Ni  Ni6  1  1.00375953  0.67155482  0.00497194  1
  Fe  Fe7  1  0.17111440  0.83715338  0.17149093  1
  Fe  Fe8  1  0.00497832  0.67122825  0.33793179  1
  Fe  Fe9  1  0.33697296  1.00284188  1.00344021  1
  Fe  Fe10  1  0.50406116  0.17101161  0.17070366  1
  Fe  Fe11  1  0.33760135  1.00364103  0.33922218  1
  Ni  Ni12  1  0.33833874  0.33674832  0.00464175  1
  Fe  Fe13  1  0.50383918  0.50451004  0.17050958  1
  Fe  Fe14  1  0.33751469  0.33796900  0.33660636  1
  Ni  Ni15  1  0.33672641  0.67057719  1.00380112  1
  Fe  Fe16  1  0.50391718  0.83723465  0.17153958  1
  Fe  Fe17  1  0.33761694  0.67155840  0.33726660  1
  Fe  Fe18  1  0.67016524  1.00343316  1.00429003  1
  Fe  Fe19  1  0.83767934  0.17094346  0.17100697  1
  Fe  Fe20  1  0.67075934  1.00404184  0.33761634  1
  Fe  Fe21  1  0.67091050  0.33916517  0.00450651  1
  Fe  Fe22  1  0.83777095  0.50487784  0.17126061  1
  Fe  Fe23  1  0.67115266  0.33768251  0.33783549  1
  Fe  Fe24  1  0.66970280  0.67043923  1.00358046  1
  Fe  Fe25  1  0.83774843  0.83736955  0.17064003  1
  Fe  Fe26  1  0.67053976  0.67130950  0.33881889  1
  Fe  Fe27  1  0.17210808  0.16964799  0.50456028  1
  Fe  Fe28  1  0.00458968  1.00276265  0.67065938  1
  Fe  Fe29  1  0.17167002  0.17172232  0.83765681  1
  Fe  Fe30  1  0.17167727  0.50575035  0.50526912  1
  Fe  Fe31  1  0.00461040  0.33826990  0.67095107  1
  Ni  Ni32  1  0.17044422  0.50486397  0.83772030  1
  Ni  Ni33  1  0.17164707  0.83724672  0.50493232  1
  Ni  Ni34  1  1.00369575  0.67074542  0.67011069  1
  Fe  Fe35  1  0.17046976  0.83621253  0.83657130  1
  Fe  Fe36  1  0.50329808  0.16992851  0.50466452  1
  Ni  Ni37  1  0.33778769  0.00614481  0.67126072  1
  Fe  Fe38  1  0.50318637  0.17187094  0.83785223  1
  Fe  Fe39  1  0.50387415  0.50595938  0.50447343  1
  Fe  Fe40  1  0.33741174  0.33958424  0.67223645  1
  Fe  Fe41  1  0.50356327  0.50456245  0.83805614  1
  Ni  Ni42  1  0.50419764  0.83764442  0.50479768  1
  Fe  Fe43  1  0.33759767  0.67259688  0.67148196  1
  Fe  Fe44  1  0.50338903  0.83660802  0.83626190  1
  Fe  Fe45  1  0.83768797  0.16946670  0.50407024  1
  Fe  Fe46  1  0.67088022  1.00252915  0.67111185  1
  Fe  Fe47  1  0.83843350  0.17169758  0.83798263  1
  Fe  Fe48  1  0.83756850  0.50608696  0.50446572  1
  Fe  Fe49  1  0.67109869  0.33801497  0.67071884  1
  Fe  Fe50  1  0.83881973  0.50543375  0.83725199  1
  Fe  Fe51  1  0.83774302  0.83723496  0.50450302  1
  Ni  Ni52  1  0.67183610  0.67057552  0.67102373  1
  Fe  Fe53  1  0.83892213  0.83591533  0.83786659  1
" 