1196,Ni84Fe16_6,-230.810476236666, 171.354183314443,Ni84Fe16,"# generated using pymatgen
 data_Fe5Ni
_symmetry_space_group_name_H-M   'P 1'
_cell_length_a   7.39784709
_cell_length_b   7.39784709
_cell_length_c   10.46213568
_cell_angle_alpha   90.00000000
_cell_angle_beta   90.00000000
_cell_angle_gamma   90.00000000
_symmetry_Int_Tables_number   1
_chemical_formula_structural   Fe5Ni
_chemical_formula_sum   'Fe45 Ni9'
_cell_volume   572.57324201
_cell_formula_units_Z   9
loop_
 _symmetry_equiv_pos_site_id
 _symmetry_equiv_pos_as_xyz
  1  'x, y, z'
loop_
 _atom_site_type_symbol
 _atom_site_label
 _atom_site_symmetry_multiplicity
 _atom_site_fract_x
 _atom_site_fract_y
 _atom_site_fract_z
 _atom_site_occupancy
  Fe  Fe0  1  0.00468760  1.00466757  0.00468166  1
  Fe  Fe1  1  0.17134276  0.17133778  0.17135079  1
  Ni  Ni2  1  1.00467592  0.00467726  0.33801944  1
  Fe  Fe3  1  0.00469214  0.33801040  0.00467806  1
  Fe  Fe4  1  0.17134720  0.50468056  0.17133830  1
  Fe  Fe5  1  0.00468054  0.33799905  0.33801091  1
  Fe  Fe6  1  0.00468760  0.67135324  1.00466560  1
  Fe  Fe7  1  0.17134819  0.83801287  0.17134535  1
  Fe  Fe8  1  1.00467511  0.67135662  0.33802340  1
  Ni  Ni9  1  0.33801308  1.00466954  0.00468074  1
  Fe  Fe10  1  0.50467558  0.17134223  0.17133831  1
  Fe  Fe11  1  0.33800000  1.00467557  0.33801377  1
  Fe  Fe12  1  0.33801039  0.33801040  1.00467706  1
  Fe  Fe13  1  0.50467458  0.50467956  0.17134029  1
  Fe  Fe14  1  0.33799990  0.33799991  0.33801387  1
  Ni  Ni15  1  0.33801303  0.67135122  1.00467132  1
  Fe  Fe16  1  0.50466915  0.83800942  0.17134189  1
  Fe  Fe17  1  0.33800532  0.67135574  0.33800832  1
  Fe  Fe18  1  0.67133223  1.00466658  1.00467264  1
  Fe  Fe19  1  0.83801288  0.17134323  0.17134720  1
  Fe  Fe20  1  0.67135166  1.00467013  0.33801634  1
  Fe  Fe21  1  0.67132868  0.33801040  0.00467806  1
  Fe  Fe22  1  0.83800943  0.50467412  0.17134374  1
  Fe  Fe23  1  0.67135077  0.33800435  0.33800745  1
  Fe  Fe24  1  0.67133223  0.67135423  1.00467462  1
  Fe  Fe25  1  0.83801388  0.83801387  0.17134722  1
  Fe  Fe26  1  0.67135079  0.67135671  0.33801633  1
  Ni  Ni27  1  0.17134489  0.17134921  0.50467302  1
  Fe  Fe28  1  1.00467608  1.00466421  0.67132973  1
  Fe  Fe29  1  0.17134017  0.17133420  0.83800780  1
  Fe  Fe30  1  0.17134128  0.50469464  0.50468151  1
  Fe  Fe31  1  0.00468153  0.33801482  0.67134224  1
  Fe  Fe32  1  0.17133573  0.50469103  0.83801139  1
  Ni  Ni33  1  0.17133972  0.83802066  0.50467810  1
  Ni  Ni34  1  1.00467405  0.67134648  0.67133652  1
  Fe  Fe35  1  0.17134031  0.83800597  0.83800979  1
  Fe  Fe36  1  0.50467015  0.17132372  0.50467808  1
  Fe  Fe37  1  0.33800087  1.00466953  0.67134038  1
  Fe  Fe38  1  0.50468261  0.17133421  0.83801483  1
  Fe  Fe39  1  0.50467003  0.50469002  0.50467608  1
  Fe  Fe40  1  0.33799990  0.33801398  0.67134028  1
  Fe  Fe41  1  0.50468162  0.50468561  0.83801484  1
  Ni  Ni42  1  0.50468489  0.83800371  0.50467812  1
  Fe  Fe43  1  0.33800447  0.67134772  0.67134385  1
  Fe  Fe44  1  0.50467703  0.83801140  0.83801324  1
  Fe  Fe45  1  0.83801981  0.17132024  0.50467164  1
  Fe  Fe46  1  0.67135426  1.00465964  0.67134224  1
  Fe  Fe47  1  0.83800844  0.17133880  0.83801237  1
  Fe  Fe48  1  0.83801991  0.50469349  0.50468052  1
  Fe  Fe49  1  0.67134979  0.33801842  0.67134571  1
  Fe  Fe50  1  0.83801386  0.50468544  0.83800695  1
  Ni  Ni51  1  0.83800661  0.83800372  0.50467032  1
  Fe  Fe52  1  0.67135511  0.67135315  0.67134026  1
  Ni  Ni53  1  0.83800811  0.83800527  0.83801939  1
" 