3553,Ni84Fe13Cr2_0,-240.815926381475, 196.057962630989,Ni84Fe13Cr2,"# generated using pymatgen
 data_Cr2Fe7Ni45
_symmetry_space_group_name_H-M   'P 1'
_cell_length_a   7.43831932
_cell_length_b   7.43831932
_cell_length_c   10.51937207
_cell_angle_alpha   90.00000000
_cell_angle_beta   90.00000000
_cell_angle_gamma   90.00000000
_symmetry_Int_Tables_number   1
_chemical_formula_structural   Cr2Fe7Ni45
_chemical_formula_sum   'Cr2 Fe7 Ni45'
_cell_volume   582.02207043
_cell_formula_units_Z   1
loop_
 _symmetry_equiv_pos_site_id
 _symmetry_equiv_pos_as_xyz
  1  'x, y, z'
loop_
 _atom_site_type_symbol
 _atom_site_label
 _atom_site_symmetry_multiplicity
 _atom_site_fract_x
 _atom_site_fract_y
 _atom_site_fract_z
 _atom_site_occupancy
  Ni  Ni0  1  0.00530382  0.00329442  0.00286520  1
  Ni  Ni1  1  0.16767951  0.16903041  0.16789743  1
  Ni  Ni2  1  1.00155218  1.00142772  0.33582202  1
  Ni  Ni3  1  1.00036344  0.33534817  1.00192230  1
  Fe  Fe4  1  0.16774948  0.50216560  0.16840110  1
  Ni  Ni5  1  0.00197492  0.33613653  0.33530259  1
  Ni  Ni6  1  0.00223608  0.66708983  0.00210984  1
  Ni  Ni7  1  0.16781527  0.83553877  0.16720672  1
  Ni  Ni8  1  1.00027511  0.66818293  0.33494847  1
  Ni  Ni9  1  0.33556591  0.00220296  1.00097237  1
  Ni  Ni10  1  0.50250912  0.17048039  0.16639313  1
  Cr  Cr11  1  0.33553969  0.00326231  0.33656039  1
  Fe  Fe12  1  0.33436813  0.33670496  1.00188649  1
  Ni  Ni13  1  0.50233146  0.50164413  0.16899765  1
  Ni  Ni14  1  0.33567372  0.33555083  0.33386373  1
  Ni  Ni15  1  0.33598824  0.67015841  1.00183566  1
  Ni  Ni16  1  0.50228842  0.83390928  0.16739338  1
  Fe  Fe17  1  0.33495385  0.66800461  0.33460630  1
  Fe  Fe18  1  0.66950914  0.00203547  0.00315554  1
  Ni  Ni19  1  0.83578106  0.16949926  0.16921334  1
  Ni  Ni20  1  0.66857928  1.00155198  0.33404654  1
  Ni  Ni21  1  0.66868348  0.33648873  1.00052391  1
  Ni  Ni22  1  0.83376584  0.50122689  0.16815481  1
  Ni  Ni23  1  0.66799284  0.33611241  0.33664458  1
  Ni  Ni24  1  0.66754297  0.66582648  0.00276464  1
  Ni  Ni25  1  0.83604898  0.83494455  0.16819597  1
  Ni  Ni26  1  0.66928870  0.66801826  0.33500981  1
  Ni  Ni27  1  0.16786992  0.17014624  0.50263460  1
  Ni  Ni28  1  0.00307447  0.00295375  0.66728125  1
  Ni  Ni29  1  0.16768536  0.16876804  0.83531189  1
  Ni  Ni30  1  0.16943246  0.50141384  0.50097373  1
  Ni  Ni31  1  0.00359208  0.33633574  0.66861462  1
  Ni  Ni32  1  0.16908663  0.50139981  0.83656391  1
  Ni  Ni33  1  0.16750740  0.83409241  0.50398792  1
  Ni  Ni34  1  1.00100659  0.66658241  0.66893809  1
  Ni  Ni35  1  0.17033932  0.83594590  0.83478332  1
  Ni  Ni36  1  0.50266383  0.17000468  0.50328625  1
  Ni  Ni37  1  0.33574842  0.00316395  0.66875010  1
  Fe  Fe38  1  0.50173771  0.16865383  0.83518212  1
  Ni  Ni39  1  0.50108373  0.50178182  0.50200230  1
  Ni  Ni40  1  0.33483695  0.33455844  0.66954155  1
  Ni  Ni41  1  0.50172442  0.50254579  0.83474489  1
  Ni  Ni42  1  0.50271643  0.83365903  0.50266009  1
  Fe  Fe43  1  0.33407157  0.66856136  0.66937831  1
  Ni  Ni44  1  0.50051566  0.83404646  0.83573104  1
  Ni  Ni45  1  0.83564456  0.16823322  0.50137347  1
  Ni  Ni46  1  0.66682950  1.00083895  0.66827108  1
  Ni  Ni47  1  0.83682391  0.16997407  0.83509438  1
  Ni  Ni48  1  0.83518360  0.50174507  0.50268665  1
  Fe  Fe49  1  0.66990834  0.33443162  0.66852075  1
  Ni  Ni50  1  0.83472716  0.49993126  0.83500082  1
  Ni  Ni51  1  0.83502511  0.83543664  0.50144960  1
  Ni  Ni52  1  0.66807463  0.66762423  0.66821448  1
  Cr  Cr53  1  0.83600906  0.83561456  0.83660832  1
" 