6215,Ni84Fe16_18,-230.824526585706, 173.528980751612,Ni84Fe16,"# generated using pymatgen
 data_Fe5Ni
_symmetry_space_group_name_H-M   'P 1'
_cell_length_a   7.40092733
_cell_length_b   7.40092733
_cell_length_c   10.46649180
_cell_angle_alpha   90.00000000
_cell_angle_beta   90.00000000
_cell_angle_gamma   90.00000000
_symmetry_Int_Tables_number   1
_chemical_formula_structural   Fe5Ni
_chemical_formula_sum   'Fe45 Ni9'
_cell_volume   573.28874654
_cell_formula_units_Z   9
loop_
 _symmetry_equiv_pos_site_id
 _symmetry_equiv_pos_as_xyz
  1  'x, y, z'
loop_
 _atom_site_type_symbol
 _atom_site_label
 _atom_site_symmetry_multiplicity
 _atom_site_fract_x
 _atom_site_fract_y
 _atom_site_fract_z
 _atom_site_occupancy
  Fe  Fe0  1  1.00405087  0.00463944  0.00512026  1
  Fe  Fe1  1  0.17183085  0.17096853  0.17129873  1
  Ni  Ni2  1  1.00340942  0.00520928  0.33760439  1
  Fe  Fe3  1  1.00390566  0.33715239  1.00438195  1
  Fe  Fe4  1  0.17254013  0.50528162  0.17129484  1
  Fe  Fe5  1  0.00502850  0.33777465  0.33771022  1
  Fe  Fe6  1  1.00373032  0.67160937  1.00364112  1
  Fe  Fe7  1  0.17219995  0.83715031  0.17172969  1
  Fe  Fe8  1  0.00488484  0.67164195  0.33845370  1
  Fe  Fe9  1  0.33847513  1.00438752  0.00463339  1
  Fe  Fe10  1  0.50480685  0.17096924  0.17127139  1
  Fe  Fe11  1  0.33753504  1.00404046  0.33779846  1
  Fe  Fe12  1  0.33853020  0.33731637  0.00463348  1
  Ni  Ni13  1  0.50446751  0.50529387  0.17123273  1
  Fe  Fe14  1  0.33765815  0.33765499  0.33779721  1
  Fe  Fe15  1  0.33895590  0.67169682  0.00506045  1
  Ni  Ni16  1  0.50446536  0.83717918  0.17134349  1
  Ni  Ni17  1  0.33794735  0.66997912  0.33724684  1
  Ni  Ni18  1  0.67133385  0.00527173  0.00563484  1
  Fe  Fe19  1  0.83676180  0.17063233  0.17104935  1
  Fe  Fe20  1  0.67065262  1.00390239  0.33788702  1
  Fe  Fe21  1  0.67096550  0.33763871  0.00472088  1
  Fe  Fe22  1  0.83673539  0.50494157  0.17104658  1
  Fe  Fe23  1  0.67071469  0.33797804  0.33788620  1
  Fe  Fe24  1  0.67071498  0.67155706  0.00514877  1
  Fe  Fe25  1  0.83673357  0.83783126  0.17104736  1
  Fe  Fe26  1  0.67077137  0.67152094  0.33703217  1
  Fe  Fe27  1  0.17129659  0.17096783  0.50403827  1
  Fe  Fe28  1  0.00461010  1.00330802  0.67057027  1
  Fe  Fe29  1  0.17104605  0.17130641  0.83806382  1
  Fe  Fe30  1  0.17195209  0.50466334  0.50489400  1
  Fe  Fe31  1  1.00446624  0.33847619  0.67130879  1
  Fe  Fe32  1  0.17104737  0.50497104  0.83721088  1
  Fe  Fe33  1  0.17161265  0.83776425  0.50446387  1
  Ni  Ni34  1  0.00624309  0.67039179  0.67062605  1
  Fe  Fe35  1  0.17104643  0.83711902  0.83720644  1
  Ni  Ni36  1  0.50436227  0.17092640  0.50425482  1
  Fe  Fe37  1  0.33800171  1.00373235  0.67096841  1
  Fe  Fe38  1  0.50506501  0.17062395  0.83714949  1
  Fe  Fe39  1  0.50387091  0.50429823  0.50381663  1
  Fe  Fe40  1  0.33805459  0.33796150  0.67096833  1
  Fe  Fe41  1  0.50403888  0.50463425  0.83819884  1
  Fe  Fe42  1  0.50421036  0.83813328  0.50424909  1
  Ni  Ni43  1  0.33653438  0.66998072  0.67157390  1
  Fe  Fe44  1  0.50472580  0.83814558  0.83819466  1
  Fe  Fe45  1  0.83720636  0.17063018  0.50437902  1
  Ni  Ni46  1  0.67143955  0.00596703  0.67068294  1
  Fe  Fe47  1  0.83729155  0.17062358  0.83797496  1
  Fe  Fe48  1  0.83757957  0.50398607  0.50480807  1
  Fe  Fe49  1  0.67087941  0.33825850  0.67079221  1
  Fe  Fe50  1  0.83831548  0.50463530  0.83754492  1
  Fe  Fe51  1  0.83757825  0.83878803  0.50481183  1
  Fe  Fe52  1  0.67130790  0.67156178  0.67122091  1
  Fe  Fe53  1  0.83763105  0.83814571  0.83754256  1
" 