1090,Ni84Fe11Cr4_2,-238.425336616188, 184.731296996889,Ni84Fe11Cr4,"# generated using pymatgen
 data_Cr4(FeNi9)5
_symmetry_space_group_name_H-M   'P 1'
_cell_length_a   7.44844519
_cell_length_b   7.44844519
_cell_length_c   10.53369220
_cell_angle_alpha   90.00000000
_cell_angle_beta   90.00000000
_cell_angle_gamma   90.00000000
_symmetry_Int_Tables_number   1
_chemical_formula_structural   Cr4(FeNi9)5
_chemical_formula_sum   'Cr4 Fe5 Ni45'
_cell_volume   584.40224625
_cell_formula_units_Z   1
loop_
 _symmetry_equiv_pos_site_id
 _symmetry_equiv_pos_as_xyz
  1  'x, y, z'
loop_
 _atom_site_type_symbol
 _atom_site_label
 _atom_site_symmetry_multiplicity
 _atom_site_fract_x
 _atom_site_fract_y
 _atom_site_fract_z
 _atom_site_occupancy
  Ni  Ni0  1  0.99986354  0.00239682  0.00293550  1
  Ni  Ni1  1  0.16591093  0.16781246  0.16740104  1
  Ni  Ni2  1  1.00009536  0.99936720  0.33243779  1
  Ni  Ni3  1  0.00163187  0.33441860  0.00148309  1
  Ni  Ni4  1  0.16767998  0.50157346  0.16833781  1
  Ni  Ni5  1  1.00053941  0.33632066  0.33272803  1
  Ni  Ni6  1  1.00111541  0.66687485  0.00243898  1
  Ni  Ni7  1  0.16780913  0.83435984  0.16790221  1
  Ni  Ni8  1  0.00386541  0.66823000  0.33529760  1
  Ni  Ni9  1  0.33499174  1.00108054  0.00150849  1
  Cr  Cr10  1  0.50173594  0.16857193  0.16799910  1
  Fe  Fe11  1  0.33387432  0.99877514  0.33384970  1
  Ni  Ni12  1  0.33352908  0.33607487  1.00112403  1
  Ni  Ni13  1  0.50168120  0.50292493  0.16791409  1
  Fe  Fe14  1  0.33399288  0.33664556  0.33427648  1
  Ni  Ni15  1  0.33538062  0.66657924  0.00217180  1
  Ni  Ni16  1  0.50102978  0.83256271  0.16795636  1
  Ni  Ni17  1  0.33445223  0.66784307  0.33441782  1
  Ni  Ni18  1  0.66895030  1.00052688  1.00037858  1
  Ni  Ni19  1  0.83618674  0.16849008  0.16802649  1
  Ni  Ni20  1  0.66799964  1.00034968  0.33496602  1
  Ni  Ni21  1  0.66859600  0.33485291  1.00021743  1
  Ni  Ni22  1  0.83456956  0.50119233  0.16803797  1
  Ni  Ni23  1  0.66766666  0.33489159  0.33500606  1
  Ni  Ni24  1  0.66721715  0.66838351  0.00223790  1
  Ni  Ni25  1  0.83503928  0.83399764  0.16817818  1
  Fe  Fe26  1  0.66953999  0.66794125  0.33448610  1
  Cr  Cr27  1  0.16864685  0.16707654  0.50135207  1
  Ni  Ni28  1  0.99914531  1.00031309  0.66851084  1
  Ni  Ni29  1  0.16792005  0.16959721  0.83509897  1
  Fe  Fe30  1  0.16797160  0.50334107  0.50148084  1
  Ni  Ni31  1  0.00178309  0.33610034  0.66953547  1
  Ni  Ni32  1  0.16791695  0.49969330  0.83377800  1
  Ni  Ni33  1  0.16802845  0.83375162  0.50123637  1
  Ni  Ni34  1  0.00135839  0.66746394  0.66609302  1
  Cr  Cr35  1  0.16756913  0.83375829  0.83509890  1
  Ni  Ni36  1  0.50057765  0.16841006  0.50158619  1
  Fe  Fe37  1  0.33638152  1.00104215  0.66868778  1
  Ni  Ni38  1  0.50097551  0.16856745  0.83373785  1
  Ni  Ni39  1  0.50230175  0.50131287  0.50072374  1
  Ni  Ni40  1  0.33589293  0.33673680  0.66784497  1
  Ni  Ni41  1  0.50165974  0.50143352  0.83503369  1
  Ni  Ni42  1  0.50052496  0.83402652  0.50111386  1
  Ni  Ni43  1  0.33569465  0.66612600  0.66719456  1
  Ni  Ni44  1  0.50290563  0.83376181  0.83470971  1
  Cr  Cr45  1  0.83356078  0.16908596  0.50149149  1
  Ni  Ni46  1  0.66737018  1.00049028  0.66838951  1
  Ni  Ni47  1  0.83486892  0.16836483  0.83458409  1
  Ni  Ni48  1  0.83382459  0.50294980  0.50148319  1
  Ni  Ni49  1  0.66616631  0.33475911  0.66852612  1
  Ni  Ni50  1  0.83417492  0.50168086  0.83415605  1
  Ni  Ni51  1  0.83525674  0.83232077  0.50133953  1
  Ni  Ni52  1  0.66679070  0.66854655  0.66679205  1
  Ni  Ni53  1  0.83322077  0.83368374  0.83413874  1
" 