432,Ni84Fe11Cr4_10,-238.468254170745, 185.666806492397,Ni84Fe11Cr4,"# generated using pymatgen
 data_Cr4(FeNi9)5
_symmetry_space_group_name_H-M   'P 1'
_cell_length_a   7.44510024
_cell_length_b   7.44510024
_cell_length_c   10.52896173
_cell_angle_alpha   90.00000000
_cell_angle_beta   90.00000000
_cell_angle_gamma   90.00000000
_symmetry_Int_Tables_number   1
_chemical_formula_structural   Cr4(FeNi9)5
_chemical_formula_sum   'Cr4 Fe5 Ni45'
_cell_volume   583.61526845
_cell_formula_units_Z   1
loop_
 _symmetry_equiv_pos_site_id
 _symmetry_equiv_pos_as_xyz
  1  'x, y, z'
loop_
 _atom_site_type_symbol
 _atom_site_label
 _atom_site_symmetry_multiplicity
 _atom_site_fract_x
 _atom_site_fract_y
 _atom_site_fract_z
 _atom_site_occupancy
  Ni  Ni0  1  1.00067910  1.00015556  0.99988602  1
  Cr  Cr1  1  0.16706466  0.16887043  0.16796183  1
  Ni  Ni2  1  1.00015897  1.00021266  0.33599410  1
  Ni  Ni3  1  0.00176406  0.33528864  0.99995593  1
  Ni  Ni4  1  0.16988046  0.50240829  0.16804559  1
  Ni  Ni5  1  0.00167501  0.33484602  0.33613567  1
  Ni  Ni6  1  0.00197164  0.66871773  1.00054295  1
  Fe  Fe7  1  0.16773194  0.83436520  0.16820104  1
  Ni  Ni8  1  0.00228298  0.66919284  0.33625372  1
  Ni  Ni9  1  0.33631631  1.00133792  1.00056289  1
  Ni  Ni10  1  0.50212850  0.16753348  0.16861742  1
  Ni  Ni11  1  0.33615977  1.00053021  0.33589936  1
  Ni  Ni12  1  0.33577282  0.33458612  0.99958150  1
  Ni  Ni13  1  0.50001994  0.50218499  0.16777586  1
  Ni  Ni14  1  0.33561526  0.33549433  0.33648341  1
  Fe  Fe15  1  0.33550440  0.66831988  0.00156914  1
  Ni  Ni16  1  0.50219980  0.83463928  0.16815946  1
  Ni  Ni17  1  0.33469158  0.66838583  0.33364556  1
  Ni  Ni18  1  0.66727815  1.00133923  0.00196707  1
  Ni  Ni19  1  0.83388360  0.16575388  0.16784410  1
  Ni  Ni20  1  0.66814847  1.00106075  0.33407620  1
  Ni  Ni21  1  0.66678943  0.33365720  1.00068868  1
  Cr  Cr22  1  0.83485127  0.50089188  0.16921186  1
  Ni  Ni23  1  0.66707767  0.33347514  0.33546197  1
  Ni  Ni24  1  0.66824881  0.66938892  1.00014000  1
  Ni  Ni25  1  0.83384620  0.83612846  0.16785321  1
  Ni  Ni26  1  0.66744534  0.66975466  0.33628847  1
  Ni  Ni27  1  0.16855973  0.16685017  0.50129991  1
  Fe  Fe28  1  1.00113579  1.00090673  0.66792359  1
  Ni  Ni29  1  0.16879103  0.16648350  0.83512501  1
  Ni  Ni30  1  0.16857087  0.50113240  0.49936397  1
  Cr  Cr31  1  0.00195787  0.33659797  0.66839056  1
  Ni  Ni32  1  0.16786691  0.50157349  0.83687657  1
  Ni  Ni33  1  0.16808140  0.83638069  0.49986039  1
  Ni  Ni34  1  1.00012601  0.66953925  0.66790604  1
  Ni  Ni35  1  0.16818767  0.83635421  0.83591517  1
  Fe  Fe36  1  0.50188364  0.16778586  0.50157783  1
  Ni  Ni37  1  0.33555029  0.00249788  0.66792552  1
  Ni  Ni38  1  0.50158271  0.16721698  0.83425855  1
  Ni  Ni39  1  0.50263876  0.50202390  0.50080330  1
  Ni  Ni40  1  0.33605996  0.33271284  0.66834676  1
  Ni  Ni41  1  0.50316432  0.50130557  0.83569330  1
  Ni  Ni42  1  0.50232892  0.83495090  0.50057834  1
  Cr  Cr43  1  0.33376471  0.66798469  0.66857792  1
  Ni  Ni44  1  0.50187823  0.83579193  0.83561018  1
  Ni  Ni45  1  0.83469935  0.16713665  0.49954083  1
  Ni  Ni46  1  0.66728714  1.00142070  0.66856780  1
  Ni  Ni47  1  0.83399731  0.16769710  0.83688107  1
  Ni  Ni48  1  0.83321525  0.50215677  0.50049628  1
  Ni  Ni49  1  0.66728655  0.33417346  0.66835816  1
  Ni  Ni50  1  0.83356415  0.50186004  0.83525061  1
  Ni  Ni51  1  0.83394309  0.83518365  0.50237082  1
  Ni  Ni52  1  0.66999396  0.66868694  0.66829805  1
  Fe  Fe53  1  0.83429142  0.83466939  0.83499360  1
" 