5701,Ni84Fe16_11,-230.724972887579, 168.781758211725,Ni84Fe16,"# generated using pymatgen
 data_Fe5Ni
_symmetry_space_group_name_H-M   'P 1'
_cell_length_a   7.40093828
_cell_length_b   7.40093828
_cell_length_c   10.46650729
_cell_angle_alpha   90.00000000
_cell_angle_beta   90.00000000
_cell_angle_gamma   90.00000000
_symmetry_Int_Tables_number   1
_chemical_formula_structural   Fe5Ni
_chemical_formula_sum   'Fe45 Ni9'
_cell_volume   573.29129160
_cell_formula_units_Z   9
loop_
 _symmetry_equiv_pos_site_id
 _symmetry_equiv_pos_as_xyz
  1  'x, y, z'
loop_
 _atom_site_type_symbol
 _atom_site_label
 _atom_site_symmetry_multiplicity
 _atom_site_fract_x
 _atom_site_fract_y
 _atom_site_fract_z
 _atom_site_occupancy
  Fe  Fe0  1  0.00493902  0.00533724  0.00490648  1
  Fe  Fe1  1  0.17114382  0.17120739  0.17106243  1
  Ni  Ni2  1  1.00312620  0.00458773  0.33844230  1
  Fe  Fe3  1  0.00469775  0.33758407  1.00409812  1
  Fe  Fe4  1  0.17141593  0.50441175  0.17102221  1
  Fe  Fe5  1  1.00404311  0.33789595  0.33802258  1
  Fe  Fe6  1  0.00491647  0.67047029  0.00522900  1
  Fe  Fe7  1  0.17075125  0.83752020  0.17216181  1
  Ni  Ni8  1  0.00516545  0.67104712  0.33813366  1
  Fe  Fe9  1  0.33770401  0.00500369  1.00433381  1
  Fe  Fe10  1  0.50443856  0.17120607  0.17113404  1
  Fe  Fe11  1  0.33689920  1.00280239  0.33793076  1
  Ni  Ni12  1  0.33816964  0.33807632  1.00377131  1
  Fe  Fe13  1  0.50383842  0.50420611  0.17169657  1
  Fe  Fe14  1  0.33726235  0.33713659  0.33728610  1
  Fe  Fe15  1  0.33796926  0.67073978  0.00503867  1
  Fe  Fe16  1  0.50460854  0.83791719  0.17187708  1
  Ni  Ni17  1  0.33772595  0.66963375  0.33787788  1
  Fe  Fe18  1  0.67080444  0.00529207  0.00496145  1
  Fe  Fe19  1  0.83770348  0.17064937  0.17081036  1
  Ni  Ni20  1  0.67145181  0.00571469  0.33840538  1
  Fe  Fe21  1  0.67106582  0.33780259  1.00415185  1
  Fe  Fe22  1  0.83824631  0.50486003  0.17202475  1
  Fe  Fe23  1  0.67193842  0.33873800  0.33819191  1
  Fe  Fe24  1  0.67052188  0.67031424  1.00431553  1
  Fe  Fe25  1  0.83794760  0.83800884  0.17255576  1
  Fe  Fe26  1  0.67193149  0.67248346  0.33856508  1
  Fe  Fe27  1  0.17024013  0.17166413  0.50429075  1
  Fe  Fe28  1  1.00417861  0.00468189  0.67051934  1
  Fe  Fe29  1  0.17080470  0.17134927  0.83792078  1
  Fe  Fe30  1  0.17036361  0.50513869  0.50420672  1
  Fe  Fe31  1  1.00372066  0.33785698  0.67122431  1
  Fe  Fe32  1  0.17059399  0.50386364  0.83809057  1
  Fe  Fe33  1  0.17078200  0.83634828  0.50376352  1
  Fe  Fe34  1  1.00393596  0.67101777  0.67008574  1
  Fe  Fe35  1  0.17030180  0.83824771  0.83775544  1
  Fe  Fe36  1  0.50587142  0.17144836  0.50420432  1
  Fe  Fe37  1  0.33770668  1.00440568  0.67115099  1
  Fe  Fe38  1  0.50512339  0.17119830  0.83798935  1
  Ni  Ni39  1  0.50392295  0.50387425  0.50376027  1
  Fe  Fe40  1  0.33808726  0.33803331  0.67142107  1
  Fe  Fe41  1  0.50485901  0.50371215  0.83715039  1
  Fe  Fe42  1  0.50573949  0.83657478  0.50384524  1
  Fe  Fe43  1  0.33823460  0.67092293  0.67032852  1
  Fe  Fe44  1  0.50524646  0.83851048  0.83785878  1
  Fe  Fe45  1  0.83712809  0.17179030  0.50499195  1
  Fe  Fe46  1  0.67168600  0.00449016  0.67062865  1
  Ni  Ni47  1  0.83793042  0.17078092  0.83793591  1
  Ni  Ni48  1  0.83726913  0.50520075  0.50409246  1
  Fe  Fe49  1  0.67150934  0.33825754  0.67082182  1
  Fe  Fe50  1  0.83796340  0.50403445  0.83706489  1
  Ni  Ni51  1  0.83846151  0.83800625  0.50450433  1
  Fe  Fe52  1  0.67123087  0.67073239  0.67032935  1
  Fe  Fe53  1  0.83786147  0.83839085  0.83723678  1
" 