4137,Ni84Fe11Cr4_7,-238.587278821231, 185.132560343116,Ni84Fe11Cr4,"# generated using pymatgen
 data_Cr4(FeNi9)5
_symmetry_space_group_name_H-M   'P 1'
_cell_length_a   7.44786158
_cell_length_b   7.44786158
_cell_length_c   10.53286685
_cell_angle_alpha   90.00000000
_cell_angle_beta   90.00000000
_cell_angle_gamma   90.00000000
_symmetry_Int_Tables_number   1
_chemical_formula_structural   Cr4(FeNi9)5
_chemical_formula_sum   'Cr4 Fe5 Ni45'
_cell_volume   584.26488751
_cell_formula_units_Z   1
loop_
 _symmetry_equiv_pos_site_id
 _symmetry_equiv_pos_as_xyz
  1  'x, y, z'
loop_
 _atom_site_type_symbol
 _atom_site_label
 _atom_site_symmetry_multiplicity
 _atom_site_fract_x
 _atom_site_fract_y
 _atom_site_fract_z
 _atom_site_occupancy
  Ni  Ni0  1  0.99905318  1.00059555  1.00091628  1
  Ni  Ni1  1  0.16755065  0.16994061  0.16808978  1
  Cr  Cr2  1  0.00147552  0.00141659  0.33344096  1
  Ni  Ni3  1  1.00093554  0.33497874  0.00208747  1
  Ni  Ni4  1  0.16889817  0.50014892  0.16743785  1
  Ni  Ni5  1  0.00238893  0.33524689  0.33344498  1
  Ni  Ni6  1  0.00202293  0.66829057  0.00170460  1
  Ni  Ni7  1  0.16909416  0.83377668  0.16711275  1
  Cr  Cr8  1  0.00141452  0.66645304  0.33499832  1
  Cr  Cr9  1  0.33487167  1.00119437  0.00204878  1
  Ni  Ni10  1  0.50242984  0.16859895  0.16971368  1
  Fe  Fe11  1  0.33641599  0.00139367  0.33478104  1
  Ni  Ni12  1  0.33465335  0.33653050  1.00122653  1
  Ni  Ni13  1  0.50102280  0.50142616  0.16758462  1
  Ni  Ni14  1  0.33479679  0.33486756  0.33452811  1
  Ni  Ni15  1  0.33335517  0.66653441  0.00142587  1
  Ni  Ni16  1  0.50216618  0.83383772  0.16933836  1
  Ni  Ni17  1  0.33622457  0.66764757  0.33459480  1
  Ni  Ni18  1  0.67003487  0.00188775  0.00162828  1
  Ni  Ni19  1  0.83388449  0.16879402  0.16673107  1
  Ni  Ni20  1  0.66567668  1.00052939  0.33344917  1
  Ni  Ni21  1  0.66827529  0.33355016  0.00148653  1
  Ni  Ni22  1  0.83394207  0.49988399  0.16799239  1
  Ni  Ni23  1  0.66667771  0.33480226  0.33390613  1
  Fe  Fe24  1  0.66858754  0.66790602  0.00161116  1
  Ni  Ni25  1  0.83260321  0.83518101  0.16634773  1
  Ni  Ni26  1  0.66606852  0.66853322  0.33456229  1
  Ni  Ni27  1  0.16988785  0.16920835  0.50209289  1
  Fe  Fe28  1  0.00231146  1.00037042  0.66907524  1
  Ni  Ni29  1  0.16737791  0.16932171  0.83367728  1
  Ni  Ni30  1  0.16908459  0.50013933  0.50183437  1
  Ni  Ni31  1  0.00216768  0.33605655  0.66833413  1
  Ni  Ni32  1  0.16775816  0.50098256  0.83459438  1
  Ni  Ni33  1  0.17042775  0.83451827  0.50317982  1
  Ni  Ni34  1  0.00134849  0.66786669  0.66733036  1
  Ni  Ni35  1  0.16784247  0.83356160  0.83357154  1
  Fe  Fe36  1  0.49974737  0.16815929  0.50159309  1
  Ni  Ni37  1  0.33506724  1.00116726  0.66710337  1
  Ni  Ni38  1  0.50233146  0.16816325  0.83309055  1
  Ni  Ni39  1  0.50118937  0.50231940  0.50153123  1
  Ni  Ni40  1  0.33410716  0.33394015  0.66810991  1
  Fe  Fe41  1  0.50095317  0.50097959  0.83436324  1
  Ni  Ni42  1  0.50125541  0.83375287  0.50080986  1
  Ni  Ni43  1  0.33371497  0.66875539  0.66784087  1
  Ni  Ni44  1  0.50206622  0.83451608  0.83371619  1
  Cr  Cr45  1  0.83432106  0.16937369  0.50215511  1
  Ni  Ni46  1  0.66669081  1.00034465  0.66879363  1
  Ni  Ni47  1  0.83415360  0.16824834  0.83509539  1
  Ni  Ni48  1  0.83358802  0.50177534  0.50179036  1
  Ni  Ni49  1  0.66758662  0.33470061  0.66847357  1
  Ni  Ni50  1  0.83511503  0.50071752  0.83408205  1
  Ni  Ni51  1  0.83218218  0.83295230  0.50312157  1
  Ni  Ni52  1  0.66880101  0.66881896  0.66761301  1
  Ni  Ni53  1  0.83395581  0.83489673  0.83439068  1
" 