7610,Ni84Fe13Cr2_16,-240.70668481701, 195.386861027342,Ni84Fe13Cr2,"# generated using pymatgen
 data_Cr2Fe7Ni45
_symmetry_space_group_name_H-M   'P 1'
_cell_length_a   7.43960859
_cell_length_b   7.43960859
_cell_length_c   10.52119536
_cell_angle_alpha   90.00000000
_cell_angle_beta   90.00000000
_cell_angle_gamma   90.00000000
_symmetry_Int_Tables_number   1
_chemical_formula_structural   Cr2Fe7Ni45
_chemical_formula_sum   'Cr2 Fe7 Ni45'
_cell_volume   582.32476356
_cell_formula_units_Z   1
loop_
 _symmetry_equiv_pos_site_id
 _symmetry_equiv_pos_as_xyz
  1  'x, y, z'
loop_
 _atom_site_type_symbol
 _atom_site_label
 _atom_site_symmetry_multiplicity
 _atom_site_fract_x
 _atom_site_fract_y
 _atom_site_fract_z
 _atom_site_occupancy
  Ni  Ni0  1  0.00256084  1.00161833  0.00283525  1
  Ni  Ni1  1  0.16834979  0.16912787  0.16899996  1
  Fe  Fe2  1  0.00203357  1.00016900  0.33387050  1
  Fe  Fe3  1  1.00164413  0.33492038  0.00226050  1
  Ni  Ni4  1  0.16769349  0.50198786  0.16860818  1
  Ni  Ni5  1  0.00190173  0.33671297  0.33388684  1
  Ni  Ni6  1  0.00260486  0.66883206  0.00234079  1
  Ni  Ni7  1  0.16696431  0.83441668  0.16824365  1
  Ni  Ni8  1  0.00221614  0.66752134  0.33498897  1
  Ni  Ni9  1  0.33389078  0.00244767  1.00086797  1
  Ni  Ni10  1  0.50254622  0.16969000  0.16849560  1
  Ni  Ni11  1  0.33479386  0.00239174  0.33603686  1
  Fe  Fe12  1  0.33550387  0.33497197  1.00112912  1
  Fe  Fe13  1  0.50239851  0.50047379  0.16839767  1
  Fe  Fe14  1  0.33566843  0.33558907  0.33559781  1
  Ni  Ni15  1  0.33357149  0.66827972  1.00114505  1
  Cr  Cr16  1  0.50214245  0.83550083  0.16810766  1
  Ni  Ni17  1  0.33361376  0.66867795  0.33587187  1
  Ni  Ni18  1  0.66908149  0.00379454  1.00119423  1
  Ni  Ni19  1  0.83463615  0.16895636  0.16838514  1
  Ni  Ni20  1  0.66745266  0.00270142  0.33471528  1
  Ni  Ni21  1  0.66852792  0.33476073  0.00229331  1
  Ni  Ni22  1  0.83604939  0.50140595  0.16859956  1
  Ni  Ni23  1  0.66860927  0.33552887  0.33421133  1
  Ni  Ni24  1  0.66935837  0.66697183  1.00146553  1
  Ni  Ni25  1  0.83659711  0.83516290  0.16899155  1
  Ni  Ni26  1  0.66970587  0.66729825  0.33591392  1
  Fe  Fe27  1  0.17033361  0.16852047  0.50235723  1
  Ni  Ni28  1  0.00309238  1.00131470  0.66890783  1
  Ni  Ni29  1  0.16808168  0.16894350  0.83455913  1
  Ni  Ni30  1  0.16862977  0.50274530  0.50193344  1
  Ni  Ni31  1  0.00259823  0.33606277  0.66984038  1
  Ni  Ni32  1  0.16911454  0.50207678  0.83498728  1
  Ni  Ni33  1  0.16894704  0.83385098  0.50171915  1
  Ni  Ni34  1  0.00209897  0.66815461  0.66820514  1
  Ni  Ni35  1  0.16849483  0.83451341  0.83557195  1
  Ni  Ni36  1  0.50103546  0.16838842  0.50199428  1
  Ni  Ni37  1  0.33508423  0.00214496  0.66862676  1
  Ni  Ni38  1  0.50267779  0.16852652  0.83503698  1
  Ni  Ni39  1  0.50131965  0.50188141  0.50118141  1
  Ni  Ni40  1  0.33509491  0.33475124  0.66802790  1
  Ni  Ni41  1  0.50110282  0.50195728  0.83546536  1
  Ni  Ni42  1  0.50154289  0.83526530  0.50233265  1
  Ni  Ni43  1  0.33476786  0.66863458  0.66850938  1
  Ni  Ni44  1  0.50214726  0.83504762  0.83469487  1
  Cr  Cr45  1  0.83427341  0.16856696  0.50201042  1
  Ni  Ni46  1  0.66736048  1.00164514  0.66962104  1
  Ni  Ni47  1  0.83477446  0.16790733  0.83549413  1
  Ni  Ni48  1  0.83558688  0.50324945  0.50237085  1
  Ni  Ni49  1  0.66783996  0.33574577  0.66903110  1
  Fe  Fe50  1  0.83487108  0.50197721  0.83495878  1
  Ni  Ni51  1  0.83504113  0.83356951  0.50139626  1
  Ni  Ni52  1  0.66866470  0.66814308  0.66814938  1
  Ni  Ni53  1  0.83488981  0.83608795  0.83514516  1
" 