6027,Ni84Fe13Cr2_2,-240.52084665651, 195.163637088306,Ni84Fe13Cr2,"# generated using pymatgen
 data_Cr2Fe7Ni45
_symmetry_space_group_name_H-M   'P 1'
_cell_length_a   7.43960668
_cell_length_b   7.43960668
_cell_length_c   10.52119266
_cell_angle_alpha   90.00000000
_cell_angle_beta   90.00000000
_cell_angle_gamma   90.00000000
_symmetry_Int_Tables_number   1
_chemical_formula_structural   Cr2Fe7Ni45
_chemical_formula_sum   'Cr2 Fe7 Ni45'
_cell_volume   582.32431533
_cell_formula_units_Z   1
loop_
 _symmetry_equiv_pos_site_id
 _symmetry_equiv_pos_as_xyz
  1  'x, y, z'
loop_
 _atom_site_type_symbol
 _atom_site_label
 _atom_site_symmetry_multiplicity
 _atom_site_fract_x
 _atom_site_fract_y
 _atom_site_fract_z
 _atom_site_occupancy
  Ni  Ni0  1  0.00205102  0.00326487  1.00092020  1
  Ni  Ni1  1  0.16874485  0.16922510  0.16873552  1
  Ni  Ni2  1  0.00351218  1.00124503  0.33524885  1
  Ni  Ni3  1  0.00203639  0.33358310  0.00303554  1
  Ni  Ni4  1  0.16827365  0.50143739  0.16833380  1
  Fe  Fe5  1  0.00272299  0.33721995  0.33405897  1
  Fe  Fe6  1  0.00229495  0.66696024  1.00100478  1
  Ni  Ni7  1  0.17090160  0.83487678  0.16831945  1
  Ni  Ni8  1  0.00267518  0.66950989  0.33564372  1
  Fe  Fe9  1  0.33551923  0.00201149  1.00179636  1
  Ni  Ni10  1  0.50206295  0.16821716  0.16816904  1
  Fe  Fe11  1  0.33520590  1.00136110  0.33560863  1
  Ni  Ni12  1  0.33480894  0.33610304  0.00199264  1
  Fe  Fe13  1  0.50147313  0.50149543  0.16850334  1
  Ni  Ni14  1  0.33596350  0.33529410  0.33534224  1
  Ni  Ni15  1  0.33568990  0.66816724  0.00248385  1
  Ni  Ni16  1  0.50018016  0.83559917  0.16856257  1
  Ni  Ni17  1  0.33512189  0.66815543  0.33509707  1
  Ni  Ni18  1  0.66919248  0.00238910  1.00169020  1
  Ni  Ni19  1  0.83473043  0.17083958  0.16829410  1
  Fe  Fe20  1  0.66654575  1.00136008  0.33506724  1
  Ni  Ni21  1  0.66868609  0.33498733  0.00225448  1
  Ni  Ni22  1  0.83545270  0.49954982  0.16849556  1
  Ni  Ni23  1  0.66688826  0.33613022  0.33368431  1
  Ni  Ni24  1  0.66667294  0.66815532  1.00136703  1
  Cr  Cr25  1  0.83448189  0.83479970  0.16829415  1
  Ni  Ni26  1  0.66773440  0.66731935  0.33619467  1
  Ni  Ni27  1  0.17046121  0.16873775  0.50174109  1
  Ni  Ni28  1  0.00265727  1.00094293  0.66936118  1
  Ni  Ni29  1  0.16772101  0.16880146  0.83505652  1
  Ni  Ni30  1  0.16883565  0.50189561  0.50220206  1
  Ni  Ni31  1  0.00293341  0.33533189  0.66858548  1
  Ni  Ni32  1  0.16887435  0.50128853  0.83499615  1
  Ni  Ni33  1  0.16879454  0.83490608  0.50176611  1
  Ni  Ni34  1  1.00181696  0.66926012  0.66852614  1
  Ni  Ni35  1  0.16889925  0.83543893  0.83544593  1
  Ni  Ni36  1  0.50009136  0.16857020  0.50253082  1
  Ni  Ni37  1  0.33456697  0.00200316  0.66819938  1
  Fe  Fe38  1  0.50216963  0.16883332  0.83489830  1
  Ni  Ni39  1  0.50176062  0.50210347  0.50142785  1
  Ni  Ni40  1  0.33513324  0.33511080  0.66819758  1
  Ni  Ni41  1  0.50197574  0.50246892  0.83554609  1
  Ni  Ni42  1  0.50196873  0.83485282  0.50176545  1
  Ni  Ni43  1  0.33518926  0.66842001  0.66795214  1
  Ni  Ni44  1  0.50224870  0.83456229  0.83520513  1
  Cr  Cr45  1  0.83523407  0.16873023  0.50181845  1
  Ni  Ni46  1  0.66830516  1.00088828  0.66881542  1
  Ni  Ni47  1  0.83556199  0.16853100  0.83572087  1
  Ni  Ni48  1  0.83493649  0.50377857  0.50198801  1
  Ni  Ni49  1  0.66746702  0.33595190  0.66959268  1
  Ni  Ni50  1  0.83468007  0.50128432  0.83504916  1
  Ni  Ni51  1  0.83476794  0.83323673  0.50215447  1
  Ni  Ni52  1  0.66852728  0.66869277  0.66796880  1
  Ni  Ni53  1  0.83438802  0.83571015  0.83487973  1
" 