2901,Ni84Fe13Cr2_5,-240.902000285321, 196.535762544003,Ni84Fe13Cr2,"# generated using pymatgen
 data_Cr2Fe7Ni45
_symmetry_space_group_name_H-M   'P 1'
_cell_length_a   7.44031356
_cell_length_b   7.44031356
_cell_length_c   10.52219235
_cell_angle_alpha   90.00000000
_cell_angle_beta   90.00000000
_cell_angle_gamma   90.00000000
_symmetry_Int_Tables_number   1
_chemical_formula_structural   Cr2Fe7Ni45
_chemical_formula_sum   'Cr2 Fe7 Ni45'
_cell_volume   582.49032156
_cell_formula_units_Z   1
loop_
 _symmetry_equiv_pos_site_id
 _symmetry_equiv_pos_as_xyz
  1  'x, y, z'
loop_
 _atom_site_type_symbol
 _atom_site_label
 _atom_site_symmetry_multiplicity
 _atom_site_fract_x
 _atom_site_fract_y
 _atom_site_fract_z
 _atom_site_occupancy
  Ni  Ni0  1  0.00254860  0.00224753  1.00167603  1
  Ni  Ni1  1  0.16811718  0.16792286  0.16837091  1
  Ni  Ni2  1  0.00433801  0.00266944  0.33643991  1
  Ni  Ni3  1  1.00147467  0.33500951  0.00211844  1
  Ni  Ni4  1  0.16802290  0.50182617  0.16694124  1
  Ni  Ni5  1  1.00086653  0.33451691  0.33396602  1
  Ni  Ni6  1  1.00135784  0.66816122  0.00226272  1
  Ni  Ni7  1  0.16760991  0.83588164  0.16894949  1
  Ni  Ni8  1  0.99896152  0.66830407  0.33431835  1
  Ni  Ni9  1  0.33518295  0.00188966  0.00191968  1
  Ni  Ni10  1  0.50175813  0.16848203  0.16770428  1
  Ni  Ni11  1  0.33639447  0.00274462  0.33505265  1
  Ni  Ni12  1  0.33416490  0.33330108  0.00247384  1
  Ni  Ni13  1  0.50197517  0.50189501  0.16879502  1
  Fe  Fe14  1  0.33437364  0.33444772  0.33347854  1
  Ni  Ni15  1  0.33455608  0.67018258  0.00384434  1
  Ni  Ni16  1  0.50208708  0.83493802  0.16796425  1
  Fe  Fe17  1  0.33395681  0.67051760  0.33417644  1
  Ni  Ni18  1  0.66763694  0.00189165  0.00237232  1
  Ni  Ni19  1  0.83620600  0.16768509  0.16797465  1
  Fe  Fe20  1  0.67046794  1.00061265  0.33500699  1
  Ni  Ni21  1  0.66956228  0.33435822  0.00349226  1
  Ni  Ni22  1  0.83477986  0.50198143  0.16822106  1
  Fe  Fe23  1  0.66977210  0.33408530  0.33489261  1
  Ni  Ni24  1  0.66933335  0.66919819  0.00236123  1
  Ni  Ni25  1  0.83591126  0.83536329  0.16805924  1
  Ni  Ni26  1  0.66801500  0.66755145  0.33593722  1
  Ni  Ni27  1  0.16848203  0.16724187  0.50260436  1
  Fe  Fe28  1  1.00036358  1.00067660  0.66881369  1
  Ni  Ni29  1  0.16811714  0.16754455  0.83473334  1
  Cr  Cr30  1  0.16822179  0.50197293  0.50237598  1
  Ni  Ni31  1  1.00029362  0.33431533  0.66924714  1
  Fe  Fe32  1  0.16735316  0.50261773  0.83598972  1
  Ni  Ni33  1  0.16781224  0.83694640  0.50162613  1
  Ni  Ni34  1  1.00090482  0.66726273  0.66877332  1
  Ni  Ni35  1  0.16831062  0.83552016  0.83518774  1
  Ni  Ni36  1  0.50150867  0.16883706  0.50171036  1
  Ni  Ni37  1  0.33548864  0.00184807  0.66832141  1
  Ni  Ni38  1  0.50207338  0.16746685  0.83552884  1
  Ni  Ni39  1  0.50328426  0.50165417  0.50145081  1
  Fe  Fe40  1  0.33647423  0.33423388  0.66896125  1
  Cr  Cr41  1  0.50314093  0.50223517  0.83510031  1
  Ni  Ni42  1  0.50179258  0.83506617  0.50165928  1
  Ni  Ni43  1  0.33532439  0.67289763  0.66700843  1
  Ni  Ni44  1  0.50143762  0.83611160  0.83556407  1
  Ni  Ni45  1  0.83594240  0.16801634  0.50196789  1
  Ni  Ni46  1  0.66578095  0.00218827  0.66768254  1
  Ni  Ni47  1  0.83490922  0.16845399  0.83561462  1
  Ni  Ni48  1  0.83389375  0.50157833  0.50180299  1
  Ni  Ni49  1  0.67105034  0.33392962  0.66642249  1
  Ni  Ni50  1  0.83578579  0.50155257  0.83518457  1
  Ni  Ni51  1  0.83558984  0.83499086  0.50240638  1
  Ni  Ni52  1  0.66917876  0.66917904  0.66721160  1
  Ni  Ni53  1  0.83506877  0.83501180  0.83529562  1
" 