8172,Ni84Fe16_7,-230.525193139608, 169.923965590778,Ni84Fe16,"# generated using pymatgen
 data_Fe5Ni
_symmetry_space_group_name_H-M   'P 1'
_cell_length_a   7.40082416
_cell_length_b   7.40082416
_cell_length_c   10.46634590
_cell_angle_alpha   90.00000000
_cell_angle_beta   90.00000000
_cell_angle_gamma   90.00000000
_symmetry_Int_Tables_number   1
_chemical_formula_structural   Fe5Ni
_chemical_formula_sum   'Fe45 Ni9'
_cell_volume   573.26477215
_cell_formula_units_Z   9
loop_
 _symmetry_equiv_pos_site_id
 _symmetry_equiv_pos_as_xyz
  1  'x, y, z'
loop_
 _atom_site_type_symbol
 _atom_site_label
 _atom_site_symmetry_multiplicity
 _atom_site_fract_x
 _atom_site_fract_y
 _atom_site_fract_z
 _atom_site_occupancy
  Fe  Fe0  1  0.00472959  1.00289514  0.00493551  1
  Fe  Fe1  1  0.17137945  0.17089840  0.17155339  1
  Ni  Ni2  1  1.00426924  0.00496831  0.33809766  1
  Fe  Fe3  1  1.00398212  0.34004815  1.00430286  1
  Fe  Fe4  1  0.17191866  0.50487591  0.17073944  1
  Fe  Fe5  1  1.00423002  0.33756655  0.33773434  1
  Ni  Ni6  1  0.00455385  0.67083309  0.00496824  1
  Fe  Fe7  1  0.17138037  0.83764719  0.17098237  1
  Fe  Fe8  1  1.00423031  0.67130058  0.33727381  1
  Fe  Fe9  1  0.33829276  1.00289289  0.00495885  1
  Ni  Ni10  1  0.50364554  0.16941430  0.17134391  1
  Fe  Fe11  1  0.33771867  0.00455798  0.33732110  1
  Fe  Fe12  1  0.33796765  0.33896508  0.00463369  1
  Fe  Fe13  1  0.50488468  0.50487767  0.17082629  1
  Fe  Fe14  1  0.33742164  0.33684653  0.33781984  1
  Ni  Ni15  1  0.33801683  0.67044574  0.00468335  1
  Ni  Ni16  1  0.50364597  0.83921702  0.17122834  1
  Fe  Fe17  1  0.33742158  0.67201744  0.33735932  1
  Fe  Fe18  1  0.67039540  1.00289454  1.00432996  1
  Fe  Fe19  1  0.83701304  0.17075420  0.17163885  1
  Fe  Fe20  1  0.67105227  0.00455796  0.33803773  1
  Fe  Fe21  1  0.67147436  0.33971830  0.00472189  1
  Ni  Ni22  1  0.83896255  0.50478972  0.17145803  1
  Fe  Fe23  1  0.67177164  0.33726274  0.33740142  1
  Ni  Ni24  1  0.67085377  0.67083576  1.00428506  1
  Fe  Fe25  1  0.83701202  0.83778947  0.17106571  1
  Fe  Fe26  1  0.67177143  0.67160167  0.33694134  1
  Fe  Fe27  1  0.17081142  0.17098347  0.50423072  1
  Fe  Fe28  1  1.00407206  0.00455811  0.67042302  1
  Fe  Fe29  1  0.17050832  0.17177094  0.83763872  1
  Fe  Fe30  1  0.17139826  0.50447601  0.50456150  1
  Fe  Fe31  1  1.00368467  0.33750649  0.67138326  1
  Fe  Fe32  1  0.17073859  0.50487830  0.83812323  1
  Fe  Fe33  1  0.17081070  0.83796348  0.50423004  1
  Fe  Fe34  1  1.00368499  0.67135810  0.67184365  1
  Fe  Fe35  1  0.17050832  0.83677216  0.83821188  1
  Fe  Fe36  1  0.50471974  0.17106809  0.50434267  1
  Fe  Fe37  1  0.33838478  0.00455814  0.67114377  1
  Fe  Fe38  1  0.50526685  0.17152692  0.83785454  1
  Fe  Fe39  1  0.50421778  0.50447601  0.50455734  1
  Fe  Fe40  1  0.33835350  0.33708942  0.67096948  1
  Fe  Fe41  1  0.50479380  0.50487654  0.83803767  1
  Fe  Fe42  1  0.50472047  0.83787883  0.50434311  1
  Fe  Fe43  1  0.33835347  0.67177472  0.67143040  1
  Fe  Fe44  1  0.50526650  0.83701889  0.83842463  1
  Fe  Fe45  1  0.83789118  0.17048228  0.50456035  1
  Ni  Ni46  1  0.67135251  0.00496818  0.67064543  1
  Fe  Fe47  1  0.83764774  0.17129704  0.83722223  1
  Fe  Fe48  1  0.83780641  0.50447613  0.50447328  1
  Fe  Fe49  1  0.67138487  0.33747808  0.67129806  1
  Ni  Ni50  1  0.83830305  0.50478993  0.83689321  1
  Fe  Fe51  1  0.83789117  0.83846538  0.50456037  1
  Fe  Fe52  1  0.67138458  0.67138913  0.67175866  1
  Fe  Fe53  1  0.83764807  0.83724610  0.83779567  1
" 