1376,Ni84Fe13Cr2_11,-240.574181438412, 194.926629260722,Ni84Fe13Cr2,"# generated using pymatgen
 data_Cr2Fe7Ni45
_symmetry_space_group_name_H-M   'P 1'
_cell_length_a   7.43782121
_cell_length_b   7.43782121
_cell_length_c   10.51866763
_cell_angle_alpha   90.00000000
_cell_angle_beta   90.00000000
_cell_angle_gamma   90.00000000
_symmetry_Int_Tables_number   1
_chemical_formula_structural   Cr2Fe7Ni45
_chemical_formula_sum   'Cr2 Fe7 Ni45'
_cell_volume   581.90515144
_cell_formula_units_Z   1
loop_
 _symmetry_equiv_pos_site_id
 _symmetry_equiv_pos_as_xyz
  1  'x, y, z'
loop_
 _atom_site_type_symbol
 _atom_site_label
 _atom_site_symmetry_multiplicity
 _atom_site_fract_x
 _atom_site_fract_y
 _atom_site_fract_z
 _atom_site_occupancy
  Ni  Ni0  1  1.00114725  1.00043507  0.00228041  1
  Fe  Fe1  1  0.16777601  0.16690741  0.16961738  1
  Ni  Ni2  1  0.00249791  1.00109969  0.33509053  1
  Cr  Cr3  1  1.00174753  0.33522089  1.00136908  1
  Ni  Ni4  1  0.16981954  0.50248493  0.16974631  1
  Ni  Ni5  1  1.00156393  0.33510893  0.33579024  1
  Ni  Ni6  1  0.99989960  0.66908938  0.00354082  1
  Ni  Ni7  1  0.16988624  0.83399203  0.16818964  1
  Ni  Ni8  1  1.00143508  0.66929723  0.33497899  1
  Ni  Ni9  1  0.33648810  0.00332687  0.00254385  1
  Fe  Fe10  1  0.50186768  0.16868645  0.16880559  1
  Ni  Ni11  1  0.33496994  1.00147671  0.33600973  1
  Ni  Ni12  1  0.33751421  0.33511601  0.00222466  1
  Fe  Fe13  1  0.50355946  0.50363541  0.16989471  1
  Ni  Ni14  1  0.33592501  0.33495127  0.33549579  1
  Fe  Fe15  1  0.33649191  0.66809382  0.00287978  1
  Ni  Ni16  1  0.50175079  0.83623944  0.16865676  1
  Ni  Ni17  1  0.33600517  0.66930911  0.33507363  1
  Ni  Ni18  1  0.66793394  1.00136411  0.00260366  1
  Ni  Ni19  1  0.83268915  0.16858716  0.16908925  1
  Fe  Fe20  1  0.66885695  1.00138920  0.33567720  1
  Ni  Ni21  1  0.66640453  0.33626915  0.00199563  1
  Ni  Ni22  1  0.83534122  0.50174648  0.16975195  1
  Ni  Ni23  1  0.66850210  0.33625102  0.33500338  1
  Ni  Ni24  1  0.66894992  0.66856811  1.00109092  1
  Ni  Ni25  1  0.83434679  0.83540022  0.16814734  1
  Ni  Ni26  1  0.66886022  0.66859556  0.33644739  1
  Ni  Ni27  1  0.16886160  0.16910928  0.50201751  1
  Ni  Ni28  1  1.00078562  0.00227667  0.66860289  1
  Ni  Ni29  1  0.17046844  0.16995617  0.83483463  1
  Ni  Ni30  1  0.16893067  0.50195685  0.50143562  1
  Ni  Ni31  1  1.00164290  0.33564983  0.66848520  1
  Ni  Ni32  1  0.16917858  0.50133364  0.83463252  1
  Ni  Ni33  1  0.16927748  0.83477302  0.50157876  1
  Ni  Ni34  1  1.00120512  0.66805780  0.66733353  1
  Cr  Cr35  1  0.16915716  0.83491774  0.83584085  1
  Ni  Ni36  1  0.50243407  0.16894624  0.50111315  1
  Ni  Ni37  1  0.33683519  0.00262055  0.66746859  1
  Ni  Ni38  1  0.50244914  0.16782468  0.83600306  1
  Ni  Ni39  1  0.50164302  0.50142655  0.50170224  1
  Ni  Ni40  1  0.33608854  0.33508424  0.66838272  1
  Fe  Fe41  1  0.50236757  0.50139784  0.83427264  1
  Ni  Ni42  1  0.50136266  0.83553067  0.50189837  1
  Ni  Ni43  1  0.33601577  0.66813575  0.66782464  1
  Ni  Ni44  1  0.50333123  0.83659173  0.83524146  1
  Ni  Ni45  1  0.83470648  0.16939150  0.50196937  1
  Ni  Ni46  1  0.66817065  0.00220560  0.66808961  1
  Ni  Ni47  1  0.83302892  0.16833948  0.83498373  1
  Ni  Ni48  1  0.83536989  0.50095451  0.50130398  1
  Ni  Ni49  1  0.66831685  0.33472387  0.66894116  1
  Ni  Ni50  1  0.83522532  0.50238863  0.83461304  1
  Ni  Ni51  1  0.83522773  0.83558045  0.50151558  1
  Fe  Fe52  1  0.66888524  0.66909589  0.66778061  1
  Ni  Ni53  1  0.83289856  0.83518375  0.83623451  1
" 