6675,Ni84Fe16_8,-230.819757570262, 173.23831646622,Ni84Fe16,"# generated using pymatgen
 data_Fe5Ni
_symmetry_space_group_name_H-M   'P 1'
_cell_length_a   7.40353914
_cell_length_b   7.40353914
_cell_length_c   10.47018546
_cell_angle_alpha   90.00000000
_cell_angle_beta   90.00000000
_cell_angle_gamma   90.00000000
_symmetry_Int_Tables_number   1
_chemical_formula_structural   Fe5Ni
_chemical_formula_sum   'Fe45 Ni9'
_cell_volume   573.89590787
_cell_formula_units_Z   9
loop_
 _symmetry_equiv_pos_site_id
 _symmetry_equiv_pos_as_xyz
  1  'x, y, z'
loop_
 _atom_site_type_symbol
 _atom_site_label
 _atom_site_symmetry_multiplicity
 _atom_site_fract_x
 _atom_site_fract_y
 _atom_site_fract_z
 _atom_site_occupancy
  Fe  Fe0  1  1.00422743  1.00371221  1.00411115  1
  Fe  Fe1  1  0.17152894  0.17029321  0.17069221  1
  Fe  Fe2  1  1.00291661  0.00548511  0.33762221  1
  Fe  Fe3  1  0.00446814  0.33762239  0.00487439  1
  Fe  Fe4  1  0.17118255  0.50460565  0.17189221  1
  Ni  Ni5  1  1.00369857  0.33860183  0.33815568  1
  Fe  Fe6  1  0.00434835  0.67153269  1.00411120  1
  Fe  Fe7  1  0.17183267  0.83797308  0.17052212  1
  Fe  Fe8  1  1.00348548  0.67008630  0.33806492  1
  Ni  Ni9  1  0.33697377  1.00379638  0.00475136  1
  Fe  Fe10  1  0.50445942  0.17008119  0.17121584  1
  Fe  Fe11  1  0.33849290  0.00518232  0.33726995  1
  Fe  Fe12  1  0.33802353  0.33776486  1.00420062  1
  Fe  Fe13  1  0.50490352  0.50490318  0.17077596  1
  Fe  Fe14  1  0.33776259  0.33748500  0.33788494  1
  Fe  Fe15  1  0.33841525  0.67165253  0.00464284  1
  Ni  Ni16  1  0.50481880  0.83803871  0.17062632  1
  Fe  Fe17  1  0.33811499  0.67019956  0.33771124  1
  Fe  Fe18  1  0.67025224  1.00332236  0.00521972  1
  Fe  Fe19  1  0.83687503  0.17072965  0.17192208  1
  Ni  Ni20  1  0.67007667  0.00446916  0.33750704  1
  Fe  Fe21  1  0.67037573  0.33764871  1.00402191  1
  Fe  Fe22  1  0.83678776  0.50460400  0.17103496  1
  Ni  Ni23  1  0.67232350  0.33760938  0.33695874  1
  Ni  Ni24  1  0.67139980  0.67040681  0.00450520  1
  Fe  Fe25  1  0.83657480  0.83753347  0.17086832  1
  Fe  Fe26  1  0.67126864  0.67082153  0.33660095  1
  Fe  Fe27  1  0.17095585  0.17138696  0.50437392  1
  Fe  Fe28  1  1.00413799  0.00478041  0.67113394  1
  Fe  Fe29  1  0.17148484  0.17024989  0.83780339  1
  Ni  Ni30  1  0.17063710  0.50365568  0.50460273  1
  Fe  Fe31  1  0.00469856  0.33730218  0.67020511  1
  Fe  Fe32  1  0.17077802  0.50428851  0.83704214  1
  Fe  Fe33  1  0.17121549  0.83726947  0.50481324  1
  Fe  Fe34  1  0.00463809  0.67078282  0.67069402  1
  Fe  Fe35  1  0.17139511  0.83832539  0.83753145  1
  Fe  Fe36  1  0.50423994  0.17153946  0.50446880  1
  Ni  Ni37  1  0.33675195  1.00342239  0.67049991  1
  Fe  Fe38  1  0.50393273  0.17077324  0.83717750  1
  Fe  Fe39  1  0.50429818  0.50376142  0.50446438  1
  Fe  Fe40  1  0.33789292  0.33744091  0.67078418  1
  Fe  Fe41  1  0.50508099  0.50420076  0.83762406  1
  Fe  Fe42  1  0.50353259  0.83756654  0.50370413  1
  Fe  Fe43  1  0.33785440  0.67054659  0.67051456  1
  Fe  Fe44  1  0.50393364  0.83789106  0.83855720  1
  Fe  Fe45  1  0.83767043  0.17214880  0.50367135  1
  Fe  Fe46  1  0.67051238  0.00481765  0.67028138  1
  Fe  Fe47  1  0.83744684  0.17139624  0.83727212  1
  Fe  Fe48  1  0.83796677  0.50350717  0.50411762  1
  Ni  Ni49  1  0.67193276  0.33859674  0.67099104  1
  Fe  Fe50  1  0.83701428  0.50428855  0.83771466  1
  Fe  Fe51  1  0.83811115  0.83721750  0.50411396  1
  Fe  Fe52  1  0.67037437  0.67110876  0.67180330  1
  Fe  Fe53  1  0.83753425  0.83718297  0.83788511  1
" 