8421,Ni84Fe13Cr2_9,-240.61840123849, 195.03941143145,Ni84Fe13Cr2,"# generated using pymatgen
 data_Cr2Fe7Ni45
_symmetry_space_group_name_H-M   'P 1'
_cell_length_a   7.43678836
_cell_length_b   7.43678836
_cell_length_c   10.51720696
_cell_angle_alpha   90.00000000
_cell_angle_beta   90.00000000
_cell_angle_gamma   90.00000000
_symmetry_Int_Tables_number   1
_chemical_formula_structural   Cr2Fe7Ni45
_chemical_formula_sum   'Cr2 Fe7 Ni45'
_cell_volume   581.66276606
_cell_formula_units_Z   1
loop_
 _symmetry_equiv_pos_site_id
 _symmetry_equiv_pos_as_xyz
  1  'x, y, z'
loop_
 _atom_site_type_symbol
 _atom_site_label
 _atom_site_symmetry_multiplicity
 _atom_site_fract_x
 _atom_site_fract_y
 _atom_site_fract_z
 _atom_site_occupancy
  Ni  Ni0  1  1.00198717  1.00103891  0.00210766  1
  Ni  Ni1  1  0.16853388  0.16895455  0.16839437  1
  Ni  Ni2  1  1.00174270  1.00024148  0.33551888  1
  Ni  Ni3  1  0.00224102  0.33602746  0.00217789  1
  Ni  Ni4  1  0.16827480  0.50152086  0.16860934  1
  Fe  Fe5  1  0.00280490  0.33515555  0.33518911  1
  Ni  Ni6  1  0.00225493  0.66903737  0.00236808  1
  Ni  Ni7  1  0.16637104  0.83562487  0.16839499  1
  Ni  Ni8  1  0.00273462  0.66951741  0.33504350  1
  Ni  Ni9  1  0.33477463  0.00287725  1.00126770  1
  Ni  Ni10  1  0.50212998  0.17059747  0.16839532  1
  Ni  Ni11  1  0.33477593  0.00287606  0.33656989  1
  Ni  Ni12  1  0.33609957  0.33576890  0.00249306  1
  Ni  Ni13  1  0.50234100  0.49983336  0.16860973  1
  Ni  Ni14  1  0.33689281  0.33601358  0.33513327  1
  Ni  Ni15  1  0.33424938  0.66745807  1.00079641  1
  Cr  Cr16  1  0.50235881  0.83571171  0.16835626  1
  Ni  Ni17  1  0.33345628  0.66721368  0.33683113  1
  Ni  Ni18  1  0.66934142  0.00288908  1.00130976  1
  Ni  Ni19  1  0.83544158  0.16869374  0.16860826  1
  Ni  Ni20  1  0.66958529  0.00368128  0.33631640  1
  Ni  Ni21  1  0.66776212  0.33550101  1.00195299  1
  Ni  Ni22  1  0.83548825  0.50199440  0.16809343  1
  Ni  Ni23  1  0.66727881  0.33502202  0.33545868  1
  Ni  Ni24  1  0.66960096  0.66771217  1.00156975  1
  Ni  Ni25  1  0.83712941  0.83541416  0.16860975  1
  Fe  Fe26  1  0.66914585  0.66826864  0.33590563  1
  Ni  Ni27  1  0.16843286  0.16797523  0.50140660  1
  Ni  Ni28  1  1.00190463  1.00060975  0.66847768  1
  Ni  Ni29  1  0.16812962  0.16827746  0.83629859  1
  Ni  Ni30  1  0.16733146  0.50216417  0.50135916  1
  Ni  Ni31  1  1.00037059  0.33653134  0.66795719  1
  Ni  Ni32  1  0.16781880  0.50210864  0.83613256  1
  Ni  Ni33  1  0.16827953  0.83596241  0.50243417  1
  Ni  Ni34  1  0.00212683  0.66896275  0.66869274  1
  Ni  Ni35  1  0.16803327  0.83571882  0.83527554  1
  Ni  Ni36  1  0.50235713  0.16782595  0.50115695  1
  Ni  Ni37  1  0.33579616  1.00043602  0.66826524  1
  Ni  Ni38  1  0.50260541  0.16807007  0.83655193  1
  Ni  Ni39  1  0.50336559  0.50221922  0.50110914  1
  Cr  Cr40  1  0.33603074  0.33533365  0.66852841  1
  Ni  Ni41  1  0.50287312  0.50226731  0.83638704  1
  Ni  Ni42  1  0.50256572  0.83606418  0.50275838  1
  Fe  Fe43  1  0.33492082  0.67042080  0.66869977  1
  Ni  Ni44  1  0.50286325  0.83576894  0.83495168  1
  Fe  Fe45  1  0.83502071  0.16857802  0.50194968  1
  Ni  Ni46  1  0.66840050  0.00219332  0.66847874  1
  Fe  Fe47  1  0.83532424  0.16827763  0.83569807  1
  Ni  Ni48  1  0.83540831  0.50237437  0.50266848  1
  Ni  Ni49  1  0.66967019  0.33521735  0.66869415  1
  Fe  Fe50  1  0.83562290  0.50221180  0.83543834  1
  Ni  Ni51  1  0.83525751  0.83495647  0.50170352  1
  Fe  Fe52  1  0.66934429  0.66923512  0.66891306  1
  Ni  Ni53  1  0.83520792  0.83545341  0.83579118  1
" 