5630,Ni84Fe11Cr4_4,-238.574707244341, 185.794527409728,Ni84Fe11Cr4,"# generated using pymatgen
 data_Cr4(FeNi9)5
_symmetry_space_group_name_H-M   'P 1'
_cell_length_a   7.44696908
_cell_length_b   7.44696908
_cell_length_c   10.53160467
_cell_angle_alpha   90.00000000
_cell_angle_beta   90.00000000
_cell_angle_gamma   90.00000000
_symmetry_Int_Tables_number   1
_chemical_formula_structural   Cr4(FeNi9)5
_chemical_formula_sum   'Cr4 Fe5 Ni45'
_cell_volume   584.05486935
_cell_formula_units_Z   1
loop_
 _symmetry_equiv_pos_site_id
 _symmetry_equiv_pos_as_xyz
  1  'x, y, z'
loop_
 _atom_site_type_symbol
 _atom_site_label
 _atom_site_symmetry_multiplicity
 _atom_site_fract_x
 _atom_site_fract_y
 _atom_site_fract_z
 _atom_site_occupancy
  Ni  Ni0  1  1.00050976  0.00195744  1.00009284  1
  Ni  Ni1  1  0.16821316  0.17115413  0.16746105  1
  Cr  Cr2  1  0.00140537  0.00348494  0.33638251  1
  Ni  Ni3  1  0.00164601  0.33447677  0.00218179  1
  Ni  Ni4  1  0.16935863  0.49867430  0.16699949  1
  Ni  Ni5  1  0.00152280  0.33435457  0.33471868  1
  Ni  Ni6  1  0.99996056  0.66760764  1.00064001  1
  Cr  Cr7  1  0.16974224  0.83440153  0.16643390  1
  Cr  Cr8  1  0.99994269  0.66616753  0.33592227  1
  Ni  Ni9  1  0.33547399  0.00244181  1.00060210  1
  Ni  Ni10  1  0.50162172  0.16843076  0.16821225  1
  Ni  Ni11  1  0.33624971  0.00350818  0.33488021  1
  Ni  Ni12  1  0.33461364  0.33426982  0.00209661  1
  Ni  Ni13  1  0.50081464  0.50173704  0.16854535  1
  Ni  Ni14  1  0.33538126  0.33414693  0.33464784  1
  Ni  Ni15  1  0.33581429  0.66733105  1.00039049  1
  Ni  Ni16  1  0.50333364  0.83387846  0.16807450  1
  Ni  Ni17  1  0.33737655  0.66638900  0.33542806  1
  Ni  Ni18  1  0.66805940  1.00075575  0.00215667  1
  Ni  Ni19  1  0.83420950  0.16863911  0.16712689  1
  Fe  Fe20  1  0.66680046  0.00261154  0.33366015  1
  Ni  Ni21  1  0.66778292  0.33481919  1.00065647  1
  Fe  Fe22  1  0.83346936  0.50005979  0.16711963  1
  Ni  Ni23  1  0.66713826  0.33548867  0.33574999  1
  Ni  Ni24  1  0.66826667  0.66846841  0.00190613  1
  Ni  Ni25  1  0.83114497  0.83502209  0.16619686  1
  Ni  Ni26  1  0.66682807  0.66673892  0.33357496  1
  Ni  Ni27  1  0.16821767  0.16896229  0.50138184  1
  Ni  Ni28  1  0.00135388  1.00082039  0.66761957  1
  Ni  Ni29  1  0.16779522  0.16721857  0.83520203  1
  Ni  Ni30  1  0.16842636  0.50053284  0.50205266  1
  Ni  Ni31  1  0.00215552  0.33481129  0.66714222  1
  Fe  Fe32  1  0.16767705  0.50107451  0.83503248  1
  Ni  Ni33  1  0.16758035  0.83455012  0.50290656  1
  Ni  Ni34  1  0.99986476  0.66841238  0.66728245  1
  Ni  Ni35  1  0.16793719  0.83522387  0.83460913  1
  Ni  Ni36  1  0.50112689  0.17001262  0.50098519  1
  Ni  Ni37  1  0.33395409  0.00330567  0.66856126  1
  Ni  Ni38  1  0.50099906  0.16829020  0.83484813  1
  Ni  Ni39  1  0.50125747  0.49982156  0.50086633  1
  Ni  Ni40  1  0.33449993  0.33367093  0.66729991  1
  Ni  Ni41  1  0.50193077  0.50166915  0.83463458  1
  Cr  Cr42  1  0.50090639  0.83433102  0.50046806  1
  Fe  Fe43  1  0.33344434  0.66783514  0.66862512  1
  Ni  Ni44  1  0.50092572  0.83408474  0.83545796  1
  Ni  Ni45  1  0.83470168  0.16916765  0.50217525  1
  Ni  Ni46  1  0.66873564  1.00101497  0.66810073  1
  Ni  Ni47  1  0.83525196  0.16822424  0.83474262  1
  Ni  Ni48  1  0.83436086  0.50045825  0.50129413  1
  Fe  Fe49  1  0.66843985  0.33418481  0.66795415  1
  Ni  Ni50  1  0.83410905  0.50152643  0.83528984  1
  Ni  Ni51  1  0.83540956  0.83441822  0.50312649  1
  Ni  Ni52  1  0.66987651  0.66786828  0.66856086  1
  Ni  Ni53  1  0.83517940  0.83429194  0.83472017  1
" 