7391,Ni84Fe13Cr2_3,-240.731628804988, 196.600670075033,Ni84Fe13Cr2,"# generated using pymatgen
 data_Cr2Fe7Ni45
_symmetry_space_group_name_H-M   'P 1'
_cell_length_a   7.43871315
_cell_length_b   7.43871315
_cell_length_c   10.51992903
_cell_angle_alpha   90.00000000
_cell_angle_beta   90.00000000
_cell_angle_gamma   90.00000000
_symmetry_Int_Tables_number   1
_chemical_formula_structural   Cr2Fe7Ni45
_chemical_formula_sum   'Cr2 Fe7 Ni45'
_cell_volume   582.11452185
_cell_formula_units_Z   1
loop_
 _symmetry_equiv_pos_site_id
 _symmetry_equiv_pos_as_xyz
  1  'x, y, z'
loop_
 _atom_site_type_symbol
 _atom_site_label
 _atom_site_symmetry_multiplicity
 _atom_site_fract_x
 _atom_site_fract_y
 _atom_site_fract_z
 _atom_site_occupancy
  Ni  Ni0  1  0.00483624  1.00153128  1.00180136  1
  Ni  Ni1  1  0.16804703  0.16906038  0.16766909  1
  Ni  Ni2  1  1.00142635  1.00130307  0.33518234  1
  Ni  Ni3  1  1.00131972  0.33590720  1.00186632  1
  Ni  Ni4  1  0.16772711  0.50154073  0.16901292  1
  Ni  Ni5  1  0.00251861  0.33592452  0.33513619  1
  Ni  Ni6  1  1.00081292  0.66828642  1.00140606  1
  Ni  Ni7  1  0.16693556  0.83488573  0.16777427  1
  Ni  Ni8  1  1.00102350  0.66851072  0.33521378  1
  Ni  Ni9  1  0.33545003  0.00198942  1.00082826  1
  Ni  Ni10  1  0.50224501  0.16941281  0.16744550  1
  Cr  Cr11  1  0.33522367  0.00242897  0.33713828  1
  Fe  Fe12  1  0.33443377  0.33533388  1.00188288  1
  Ni  Ni13  1  0.50264464  0.50155383  0.16876833  1
  Ni  Ni14  1  0.33415196  0.33419066  0.33373914  1
  Fe  Fe15  1  0.33444700  0.66852796  1.00135600  1
  Ni  Ni16  1  0.50331804  0.83457812  0.16749693  1
  Fe  Fe17  1  0.33418549  0.66805601  0.33472522  1
  Fe  Fe18  1  0.67011159  1.00169725  1.00139639  1
  Fe  Fe19  1  0.83600680  0.16904628  0.16855814  1
  Ni  Ni20  1  0.66899391  1.00131827  0.33377177  1
  Ni  Ni21  1  0.66841672  0.33678149  1.00147749  1
  Ni  Ni22  1  0.83508761  0.50279658  0.16894243  1
  Ni  Ni23  1  0.66913808  0.33470300  0.33474234  1
  Ni  Ni24  1  0.66890694  0.66753933  1.00101236  1
  Ni  Ni25  1  0.83569536  0.83474640  0.16841795  1
  Ni  Ni26  1  0.67063757  0.66966457  0.33492438  1
  Ni  Ni27  1  0.16725500  0.16983613  0.50326523  1
  Fe  Fe28  1  1.00040970  0.00214022  0.66878150  1
  Ni  Ni29  1  0.16807136  0.16862981  0.83511846  1
  Ni  Ni30  1  0.16693966  0.50138643  0.50132551  1
  Ni  Ni31  1  0.00226468  0.33600366  0.66867752  1
  Ni  Ni32  1  0.16803621  0.50162552  0.83541911  1
  Ni  Ni33  1  0.16660288  0.83437062  0.50290425  1
  Ni  Ni34  1  0.00223795  0.66809172  0.66909350  1
  Ni  Ni35  1  0.16781692  0.83546793  0.83531621  1
  Ni  Ni36  1  0.50307345  0.16810099  0.50310809  1
  Fe  Fe37  1  0.33544665  1.00165762  0.66916801  1
  Ni  Ni38  1  0.50198346  0.16889505  0.83521638  1
  Cr  Cr39  1  0.50239640  0.50135010  0.50166414  1
  Ni  Ni40  1  0.33381609  0.33409328  0.67028238  1
  Ni  Ni41  1  0.50217509  0.50161604  0.83524203  1
  Ni  Ni42  1  0.50370104  0.83613558  0.50274501  1
  Ni  Ni43  1  0.33382927  0.66976041  0.66948989  1
  Ni  Ni44  1  0.50221073  0.83520960  0.83549135  1
  Ni  Ni45  1  0.83514748  0.16815651  0.50048658  1
  Ni  Ni46  1  0.66743024  1.00180264  0.66921039  1
  Ni  Ni47  1  0.83571113  0.16863985  0.83611599  1
  Ni  Ni48  1  0.83696686  0.50198727  0.50237116  1
  Ni  Ni49  1  0.66973585  0.33366115  0.66944080  1
  Ni  Ni50  1  0.83527312  0.50178455  0.83440603  1
  Ni  Ni51  1  0.83514661  0.83559729  0.50176293  1
  Ni  Ni52  1  0.66967727  0.67022892  0.66976907  1
  Ni  Ni53  1  0.83574811  0.83530071  0.83528680  1
" 