3151,Ni84Fe16_13,-230.785752610147, 171.412559139667,Ni84Fe16,"# generated using pymatgen
 data_Fe5Ni
_symmetry_space_group_name_H-M   'P 1'
_cell_length_a   7.39811181
_cell_length_b   7.39811181
_cell_length_c   10.46251005
_cell_angle_alpha   90.00000000
_cell_angle_beta   90.00000000
_cell_angle_gamma   90.00000000
_symmetry_Int_Tables_number   1
_chemical_formula_structural   Fe5Ni
_chemical_formula_sum   'Fe45 Ni9'
_cell_volume   572.63471013
_cell_formula_units_Z   9
loop_
 _symmetry_equiv_pos_site_id
 _symmetry_equiv_pos_as_xyz
  1  'x, y, z'
loop_
 _atom_site_type_symbol
 _atom_site_label
 _atom_site_symmetry_multiplicity
 _atom_site_fract_x
 _atom_site_fract_y
 _atom_site_fract_z
 _atom_site_occupancy
  Fe  Fe0  1  0.00466070  1.00464808  1.00465733  1
  Fe  Fe1  1  0.17132364  0.17132464  0.17132671  1
  Fe  Fe2  1  0.00466173  1.00464809  0.33799506  1
  Fe  Fe3  1  0.00466992  0.33800327  1.00465542  1
  Fe  Fe4  1  0.17133275  0.50467353  0.17131835  1
  Fe  Fe5  1  0.00466635  0.33799970  0.33799236  1
  Fe  Fe6  1  0.00466618  0.67132569  0.00465901  1
  Fe  Fe7  1  0.17133303  0.83797886  0.17132671  1
  Fe  Fe8  1  0.00466261  0.67132926  0.33798876  1
  Fe  Fe9  1  0.33799338  1.00465287  1.00465167  1
  Fe  Fe10  1  0.50466838  0.17132556  0.17132568  1
  Fe  Fe11  1  0.33799236  1.00465286  0.33800073  1
  Fe  Fe12  1  0.33799237  0.33800670  1.00465170  1
  Ni  Ni13  1  0.50464798  0.50465500  0.17132458  1
  Fe  Fe14  1  0.33799595  0.33800313  0.33799608  1
  Ni  Ni15  1  0.33799730  0.67131998  1.00465365  1
  Fe  Fe16  1  0.50465902  0.83797792  0.17132568  1
  Ni  Ni17  1  0.33799881  0.67132150  0.33799624  1
  Fe  Fe18  1  0.67132296  1.00464912  0.00466465  1
  Fe  Fe19  1  0.83798502  0.17132585  0.17132567  1
  Fe  Fe20  1  0.67132296  1.00464912  0.33798670  1
  Fe  Fe21  1  0.67131474  0.33800122  0.00466468  1
  Fe  Fe22  1  0.83798408  0.50466417  0.17132671  1
  Fe  Fe23  1  0.67131474  0.33800225  0.33798771  1
  Fe  Fe24  1  0.67131953  0.67132670  1.00465889  1
  Ni  Ni25  1  0.83799549  0.83800095  0.17132950  1
  Fe  Fe26  1  0.67131952  0.67132566  0.33799350  1
  Fe  Fe27  1  0.17132824  0.17132107  0.50466980  1
  Ni  Ni28  1  0.00466309  0.00466671  0.67132677  1
  Fe  Fe29  1  0.17132824  0.17132925  0.83798053  1
  Fe  Fe30  1  0.17133184  0.50465798  0.50466430  1
  Fe  Fe31  1  0.00466979  0.33798875  0.67132926  1
  Ni  Ni32  1  0.17133351  0.50465621  0.83798631  1
  Fe  Fe33  1  0.17132927  0.83799801  0.50466056  1
  Fe  Fe34  1  0.00466801  0.67132932  0.67132926  1
  Fe  Fe35  1  0.17132927  0.83798982  0.83798977  1
  Fe  Fe36  1  0.50465182  0.17132568  0.50466621  1
  Ni  Ni37  1  0.33797364  0.00467444  0.67132677  1
  Fe  Fe38  1  0.50464450  0.17133300  0.83798516  1
  Fe  Fe39  1  0.50465748  0.50466259  0.50465324  1
  Ni  Ni40  1  0.33799084  0.33798535  0.67132714  1
  Fe  Fe41  1  0.50464930  0.50466259  0.83799709  1
  Fe  Fe42  1  0.50465541  0.83798876  0.50466264  1
  Fe  Fe43  1  0.33798864  0.67132942  0.67132926  1
  Fe  Fe44  1  0.50464809  0.83798144  0.83798873  1
  Fe  Fe45  1  0.83799697  0.17132312  0.50466053  1
  Fe  Fe46  1  0.67131834  0.00465913  0.67132569  1
  Fe  Fe47  1  0.83800430  0.17133045  0.83799083  1
  Fe  Fe48  1  0.83798773  0.50466157  0.50466261  1
  Fe  Fe49  1  0.67131847  0.33798384  0.67132465  1
  Fe  Fe50  1  0.83799592  0.50466157  0.83798772  1
  Fe  Fe51  1  0.83799236  0.83799235  0.50465889  1
  Ni  Ni52  1  0.67133047  0.67131760  0.67132677  1
  Fe  Fe53  1  0.83799968  0.83798502  0.83799248  1
" 