6774,Ni84Fe11Cr4_13,-238.569767807656, 185.383293452961,Ni84Fe11Cr4,"# generated using pymatgen
 data_Cr4(FeNi9)5
_symmetry_space_group_name_H-M   'P 1'
_cell_length_a   7.44690896
_cell_length_b   7.44690896
_cell_length_c   10.53151965
_cell_angle_alpha   90.00000000
_cell_angle_beta   90.00000000
_cell_angle_gamma   90.00000000
_symmetry_Int_Tables_number   1
_chemical_formula_structural   Cr4(FeNi9)5
_chemical_formula_sum   'Cr4 Fe5 Ni45'
_cell_volume   584.04072452
_cell_formula_units_Z   1
loop_
 _symmetry_equiv_pos_site_id
 _symmetry_equiv_pos_as_xyz
  1  'x, y, z'
loop_
 _atom_site_type_symbol
 _atom_site_label
 _atom_site_symmetry_multiplicity
 _atom_site_fract_x
 _atom_site_fract_y
 _atom_site_fract_z
 _atom_site_occupancy
  Fe  Fe0  1  0.00169494  1.00105315  0.00155291  1
  Ni  Ni1  1  0.16798902  0.16851364  0.16851680  1
  Ni  Ni2  1  0.00195789  1.00044749  0.33499142  1
  Ni  Ni3  1  0.00176537  0.33566899  1.00133651  1
  Ni  Ni4  1  0.16819158  0.50098626  0.16778622  1
  Fe  Fe5  1  1.00073788  0.33342605  0.33359474  1
  Ni  Ni6  1  0.00149051  0.66738274  0.00137921  1
  Ni  Ni7  1  0.16792412  0.83455566  0.16858025  1
  Ni  Ni8  1  1.00069369  0.66961085  0.33374033  1
  Ni  Ni9  1  0.33506946  0.00176165  0.00144099  1
  Ni  Ni10  1  0.50149264  0.16830485  0.16880550  1
  Ni  Ni11  1  0.33384906  0.00191928  0.33507320  1
  Ni  Ni12  1  0.33421175  0.33404958  1.00117230  1
  Ni  Ni13  1  0.50128425  0.50119129  0.16793398  1
  Ni  Ni14  1  0.33583005  0.33344563  0.33363758  1
  Ni  Ni15  1  0.33373027  0.66824538  1.00079246  1
  Ni  Ni16  1  0.50176179  0.83455991  0.16808215  1
  Ni  Ni17  1  0.33456199  0.66869044  0.33430187  1
  Ni  Ni18  1  0.66721538  0.00148632  1.00131549  1
  Ni  Ni19  1  0.83457486  0.16803645  0.16754208  1
  Ni  Ni20  1  0.66824926  0.00171744  0.33496120  1
  Ni  Ni21  1  0.66807898  0.33432937  1.00104616  1
  Ni  Ni22  1  0.83457968  0.50125526  0.16895083  1
  Ni  Ni23  1  0.66732946  0.33471069  0.33489656  1
  Ni  Ni24  1  0.66883567  0.66824067  1.00125049  1
  Ni  Ni25  1  0.83437049  0.83476317  0.16837292  1
  Ni  Ni26  1  0.66880093  0.66762787  0.33495286  1
  Ni  Ni27  1  0.16503506  0.16654087  0.49995174  1
  Ni  Ni28  1  0.99978130  0.00287565  0.66822811  1
  Ni  Ni29  1  0.16652504  0.16861274  0.83558637  1
  Cr  Cr30  1  0.16923678  0.50108122  0.50015227  1
  Ni  Ni31  1  0.99871620  0.33219988  0.66841600  1
  Ni  Ni32  1  0.16811760  0.50065762  0.83604726  1
  Ni  Ni33  1  0.16807631  0.83675780  0.50016006  1
  Cr  Cr34  1  1.00096923  0.66908980  0.66885170  1
  Ni  Ni35  1  0.16792109  0.83478645  0.83531751  1
  Fe  Fe36  1  0.50311907  0.16726426  0.49946192  1
  Cr  Cr37  1  0.33430264  0.99963479  0.66734928  1
  Ni  Ni38  1  0.50258773  0.16833644  0.83561750  1
  Ni  Ni39  1  0.50336463  0.50293763  0.50128404  1
  Cr  Cr40  1  0.33540069  0.33528224  0.66949044  1
  Ni  Ni41  1  0.50211874  0.50205547  0.83483796  1
  Ni  Ni42  1  0.50278422  0.83280358  0.50124171  1
  Ni  Ni43  1  0.33688304  0.66891908  0.66896159  1
  Ni  Ni44  1  0.50259292  0.83366486  0.83473066  1
  Ni  Ni45  1  0.83537429  0.16712169  0.50269880  1
  Ni  Ni46  1  0.67000849  0.00138556  0.66778116  1
  Fe  Fe47  1  0.83441820  0.16834476  0.83410264  1
  Fe  Fe48  1  0.83207423  0.50105778  0.50080291  1
  Ni  Ni49  1  0.66994857  0.33481556  0.66811485  1
  Ni  Ni50  1  0.83381990  0.50066269  0.83428532  1
  Ni  Ni51  1  0.83319590  0.83703624  0.50075623  1
  Ni  Ni52  1  0.66683017  0.66785586  0.66785298  1
  Ni  Ni53  1  0.83354301  0.83525539  0.83492795  1
" 