3327,Ni84Fe13Cr2_13,-240.890639898891, 196.010754830305,Ni84Fe13Cr2,"# generated using pymatgen
 data_Cr2Fe7Ni45
_symmetry_space_group_name_H-M   'P 1'
_cell_length_a   7.43900579
_cell_length_b   7.43900579
_cell_length_c   10.52034288
_cell_angle_alpha   90.00000000
_cell_angle_beta   90.00000000
_cell_angle_gamma   90.00000000
_symmetry_Int_Tables_number   1
_chemical_formula_structural   Cr2Fe7Ni45
_chemical_formula_sum   'Cr2 Fe7 Ni45'
_cell_volume   582.18322544
_cell_formula_units_Z   1
loop_
 _symmetry_equiv_pos_site_id
 _symmetry_equiv_pos_as_xyz
  1  'x, y, z'
loop_
 _atom_site_type_symbol
 _atom_site_label
 _atom_site_symmetry_multiplicity
 _atom_site_fract_x
 _atom_site_fract_y
 _atom_site_fract_z
 _atom_site_occupancy
  Ni  Ni0  1  1.00184721  1.00187987  0.00197500  1
  Ni  Ni1  1  0.16710516  0.17053546  0.16732621  1
  Ni  Ni2  1  1.00070153  0.00190284  0.33527032  1
  Ni  Ni3  1  1.00127201  0.33509669  0.00230049  1
  Ni  Ni4  1  0.16926104  0.50011681  0.16876644  1
  Fe  Fe5  1  1.00105578  0.33468919  0.33494974  1
  Ni  Ni6  1  1.00155357  0.66836998  0.00206750  1
  Fe  Fe7  1  0.16700079  0.83390350  0.16764278  1
  Fe  Fe8  1  1.00062498  0.66806159  0.33493106  1
  Ni  Ni9  1  0.33483783  0.00205416  0.00233694  1
  Fe  Fe10  1  0.50369711  0.17056745  0.16816280  1
  Cr  Cr11  1  0.33475587  0.00217826  0.33516542  1
  Ni  Ni12  1  0.33534882  0.33544065  0.00233414  1
  Ni  Ni13  1  0.50091115  0.50417374  0.16857399  1
  Ni  Ni14  1  0.33560698  0.33693390  0.33548015  1
  Ni  Ni15  1  0.33484951  0.66853222  0.00249863  1
  Ni  Ni16  1  0.50390928  0.83356682  0.16758150  1
  Ni  Ni17  1  0.33520081  0.66701512  0.33517333  1
  Ni  Ni18  1  0.66917170  0.00240546  0.00307465  1
  Ni  Ni19  1  0.83748788  0.16744279  0.16869956  1
  Ni  Ni20  1  0.67093241  0.00225276  0.33512995  1
  Ni  Ni21  1  0.66909847  0.33538029  0.00214754  1
  Ni  Ni22  1  0.83540098  0.50245601  0.16763833  1
  Ni  Ni23  1  0.66928053  0.33623564  0.33532632  1
  Ni  Ni24  1  0.66885541  0.66792321  1.00157065  1
  Ni  Ni25  1  0.83331147  0.83567403  0.16866836  1
  Ni  Ni26  1  0.66837103  0.66751515  0.33552236  1
  Ni  Ni27  1  0.16731871  0.17076173  0.50324883  1
  Ni  Ni28  1  1.00169008  1.00184551  0.66837277  1
  Ni  Ni29  1  0.16797348  0.17054638  0.83498399  1
  Ni  Ni30  1  0.16789011  0.49972866  0.50039953  1
  Ni  Ni31  1  1.00123294  0.33531189  0.66809070  1
  Ni  Ni32  1  0.16790741  0.49981079  0.83638600  1
  Fe  Fe33  1  0.16686261  0.83535057  0.50194139  1
  Ni  Ni34  1  1.00034671  0.66836193  0.66834354  1
  Fe  Fe35  1  0.16849586  0.83662677  0.83605851  1
  Ni  Ni36  1  0.50213036  0.16885223  0.50230800  1
  Ni  Ni37  1  0.33503876  0.00367348  0.66826941  1
  Ni  Ni38  1  0.50146316  0.16796156  0.83576535  1
  Ni  Ni39  1  0.50177068  0.50197503  0.50104994  1
  Ni  Ni40  1  0.33542204  0.33414327  0.66801699  1
  Ni  Ni41  1  0.50044698  0.50195809  0.83609161  1
  Ni  Ni42  1  0.50514052  0.83496007  0.50201547  1
  Cr  Cr43  1  0.33553379  0.66833987  0.66805619  1
  Ni  Ni44  1  0.50481396  0.83586859  0.83604686  1
  Ni  Ni45  1  0.83626375  0.16752071  0.50172320  1
  Ni  Ni46  1  0.66896968  0.00245136  0.66759133  1
  Ni  Ni47  1  0.83624553  0.16616129  0.83515699  1
  Ni  Ni48  1  0.83579269  0.50262587  0.50255034  1
  Ni  Ni49  1  0.66865816  0.33500990  0.66826978  1
  Fe  Fe50  1  0.83443446  0.50059099  0.83525708  1
  Ni  Ni51  1  0.83397202  0.83549521  0.50156097  1
  Ni  Ni52  1  0.67034773  0.66784617  0.66854348  1
  Ni  Ni53  1  0.83416680  0.83569671  0.83536585  1
" 