511,Ni84Fe11Cr4_16,-238.706210262353, 186.681778610739,Ni84Fe11Cr4,"# generated using pymatgen
 data_Cr4(FeNi9)5
_symmetry_space_group_name_H-M   'P 1'
_cell_length_a   7.44928811
_cell_length_b   7.44928811
_cell_length_c   10.53488428
_cell_angle_alpha   90.00000000
_cell_angle_beta   90.00000000
_cell_angle_gamma   90.00000000
_symmetry_Int_Tables_number   1
_chemical_formula_structural   Cr4(FeNi9)5
_chemical_formula_sum   'Cr4 Fe5 Ni45'
_cell_volume   584.60067562
_cell_formula_units_Z   1
loop_
 _symmetry_equiv_pos_site_id
 _symmetry_equiv_pos_as_xyz
  1  'x, y, z'
loop_
 _atom_site_type_symbol
 _atom_site_label
 _atom_site_symmetry_multiplicity
 _atom_site_fract_x
 _atom_site_fract_y
 _atom_site_fract_z
 _atom_site_occupancy
  Ni  Ni0  1  0.00120763  0.99979036  1.00039561  1
  Ni  Ni1  1  0.16723367  0.16519977  0.16853205  1
  Ni  Ni2  1  1.00114605  1.00068404  0.33527159  1
  Cr  Cr3  1  0.00171516  0.33448569  0.00195041  1
  Ni  Ni4  1  0.16752015  0.50342177  0.16815255  1
  Ni  Ni5  1  1.00002492  0.33473151  0.33481549  1
  Ni  Ni6  1  0.00127636  0.66962054  0.00166985  1
  Ni  Ni7  1  0.16769745  0.83496381  0.16811155  1
  Ni  Ni8  1  0.00126738  0.66810812  0.33350986  1
  Ni  Ni9  1  0.33457176  1.00113795  0.00186854  1
  Ni  Ni10  1  0.50265694  0.16644305  0.16647542  1
  Ni  Ni11  1  0.33499450  0.99954369  0.33397795  1
  Ni  Ni12  1  0.33587552  0.33407251  1.00029175  1
  Ni  Ni13  1  0.50273225  0.50251404  0.16713918  1
  Cr  Cr14  1  0.33565789  0.33463342  0.33361983  1
  Ni  Ni15  1  0.33443120  0.66836726  1.00117595  1
  Ni  Ni16  1  0.50103113  0.83465030  0.16863586  1
  Ni  Ni17  1  0.33429771  0.66970554  0.33517385  1
  Ni  Ni18  1  0.66759983  1.00100347  0.00129908  1
  Ni  Ni19  1  0.83375560  0.16680637  0.16956345  1
  Ni  Ni20  1  0.66743537  1.00084228  0.33434017  1
  Ni  Ni21  1  0.66649403  0.33411565  0.00149020  1
  Ni  Ni22  1  0.83345087  0.50190938  0.16916416  1
  Ni  Ni23  1  0.66918696  0.33410580  0.33414729  1
  Ni  Ni24  1  0.66768278  0.66841271  1.00059651  1
  Ni  Ni25  1  0.83473689  0.83493838  0.16789433  1
  Ni  Ni26  1  0.66766866  0.66818879  0.33519035  1
  Fe  Fe27  1  0.16931136  0.16809192  0.50140222  1
  Fe  Fe28  1  0.00206055  0.00145557  0.66802263  1
  Ni  Ni29  1  0.16806983  0.16615386  0.83241249  1
  Ni  Ni30  1  0.16659188  0.50284091  0.50155099  1
  Ni  Ni31  1  0.00260211  0.33359562  0.66717461  1
  Ni  Ni32  1  0.16878242  0.50175199  0.83404405  1
  Ni  Ni33  1  0.16865414  0.83559037  0.50009566  1
  Cr  Cr34  1  1.00019859  0.66764100  0.66956893  1
  Ni  Ni35  1  0.16970576  0.83565008  0.83564120  1
  Ni  Ni36  1  0.50248252  0.16539082  0.50135071  1
  Ni  Ni37  1  0.33549297  1.00112555  0.66748735  1
  Ni  Ni38  1  0.50105876  0.16598487  0.83553853  1
  Ni  Ni39  1  0.50184939  0.50273535  0.50194188  1
  Ni  Ni40  1  0.33285453  0.33400476  0.66839290  1
  Ni  Ni41  1  0.50087821  0.50282942  0.83425624  1
  Ni  Ni42  1  0.50008393  0.83560096  0.50115130  1
  Ni  Ni43  1  0.33502634  0.66884843  0.66731151  1
  Ni  Ni44  1  0.50012835  0.83497024  0.83371092  1
  Fe  Fe45  1  0.83456484  0.16712231  0.50031609  1
  Ni  Ni46  1  0.66736963  0.99927935  0.66801392  1
  Ni  Ni47  1  0.83458168  0.16668986  0.83375017  1
  Ni  Ni48  1  0.83499536  0.50028412  0.49913853  1
  Cr  Cr49  1  0.66730907  0.33488884  0.66842434  1
  Ni  Ni50  1  0.83375637  0.50073987  0.83564080  1
  Fe  Fe51  1  0.83279522  0.83318578  0.49926560  1
  Ni  Ni52  1  0.66684879  0.67050608  0.66770538  1
  Fe  Fe53  1  0.83296816  0.83501532  0.83660762  1
" 