6713,Ni84Fe16_15,-230.880310180075, 174.073299035055,Ni84Fe16,"# generated using pymatgen
 data_Fe5Ni
_symmetry_space_group_name_H-M   'P 1'
_cell_length_a   7.39779363
_cell_length_b   7.39779363
_cell_length_c   10.46206009
_cell_angle_alpha   90.00000000
_cell_angle_beta   90.00000000
_cell_angle_gamma   90.00000000
_symmetry_Int_Tables_number   1
_chemical_formula_structural   Fe5Ni
_chemical_formula_sum   'Fe45 Ni9'
_cell_volume   572.56083102
_cell_formula_units_Z   9
loop_
 _symmetry_equiv_pos_site_id
 _symmetry_equiv_pos_as_xyz
  1  'x, y, z'
loop_
 _atom_site_type_symbol
 _atom_site_label
 _atom_site_symmetry_multiplicity
 _atom_site_fract_x
 _atom_site_fract_y
 _atom_site_fract_z
 _atom_site_occupancy
  Fe  Fe0  1  1.00467139  0.00468298  1.00467847  1
  Fe  Fe1  1  0.17136162  0.17135366  0.17134911  1
  Fe  Fe2  1  0.00468158  1.00467277  0.33801492  1
  Fe  Fe3  1  1.00467221  0.33801001  1.00466335  1
  Fe  Fe4  1  0.17135759  0.50467755  0.17134507  1
  Fe  Fe5  1  0.00468158  0.33802027  0.33802120  1
  Fe  Fe6  1  1.00467531  0.67134917  0.00468164  1
  Fe  Fe7  1  0.17135681  0.83801095  0.17135223  1
  Ni  Ni8  1  0.00468723  0.67134565  0.33801413  1
  Fe  Fe9  1  0.33802336  0.00468298  0.00468470  1
  Ni  Ni10  1  0.50468285  0.17134861  0.17135163  1
  Fe  Fe11  1  0.33800916  1.00467757  0.33801268  1
  Fe  Fe12  1  0.33802342  0.33801088  0.00468730  1
  Ni  Ni13  1  0.50467834  0.50467584  0.17134882  1
  Fe  Fe14  1  0.33801399  0.33802030  0.33800610  1
  Fe  Fe15  1  0.33802032  0.67134830  1.00467982  1
  Fe  Fe16  1  0.50468382  0.83801806  0.17134340  1
  Fe  Fe17  1  0.33801007  0.67134428  0.33801183  1
  Ni  Ni18  1  0.67134087  0.00468420  1.00467990  1
  Fe  Fe19  1  0.83799758  0.17134969  0.17133799  1
  Fe  Fe20  1  0.67135141  1.00467670  0.33800466  1
  Fe  Fe21  1  0.67134652  0.33800696  1.00467618  1
  Fe  Fe22  1  0.83800470  0.50467842  0.17134683  1
  Fe  Fe23  1  0.67134658  0.33802118  0.33801411  1
  Fe  Fe24  1  0.67134653  0.67134910  0.00468157  1
  Fe  Fe25  1  0.83800152  0.83801404  0.17134913  1
  Fe  Fe26  1  0.67135139  0.67134428  0.33801183  1
  Fe  Fe27  1  0.17134513  0.17134878  0.50468297  1
  Fe  Fe28  1  1.00467220  0.00469722  0.67134876  1
  Fe  Fe29  1  0.17133089  0.17136301  0.83801006  1
  Fe  Fe30  1  0.17134115  0.50468157  0.50468613  1
  Ni  Ni31  1  1.00467362  0.33801948  0.67134708  1
  Ni  Ni32  1  0.17134068  0.50468769  0.83800943  1
  Fe  Fe33  1  0.17134514  0.83801181  0.50467588  1
  Fe  Fe34  1  1.00467531  0.67132867  0.67134646  1
  Fe  Fe35  1  0.17133571  0.83800698  0.83801405  1
  Fe  Fe36  1  0.50468297  0.17134877  0.50467669  1
  Fe  Fe37  1  0.33801405  0.00469240  0.67134478  1
  Fe  Fe38  1  0.50469315  0.17135820  0.83802032  1
  Fe  Fe39  1  0.50468384  0.50467847  0.50467670  1
  Fe  Fe40  1  0.33801093  0.33801716  0.67134876  1
  Fe  Fe41  1  0.50468924  0.50467307  0.83801635  1
  Fe  Fe42  1  0.50467986  0.83801492  0.50468248  1
  Fe  Fe43  1  0.33801183  0.67133260  0.67135050  1
  Fe  Fe44  1  0.50468923  0.83801088  0.83801628  1
  Fe  Fe45  1  0.83801406  0.17135274  0.50469410  1
  Fe  Fe46  1  0.67135590  0.00469632  0.67135591  1
  Ni  Ni47  1  0.83800919  0.17134854  0.83801041  1
  Fe  Fe48  1  0.83801717  0.50467847  0.50468924  1
  Ni  Ni49  1  0.67135586  0.33801080  0.67135502  1
  Ni  Ni50  1  0.83802454  0.50467226  0.83801004  1
  Fe  Fe51  1  0.83801716  0.83801094  0.50467412  1
  Fe  Fe52  1  0.67135503  0.67133177  0.67134876  1
  Fe  Fe53  1  0.83801722  0.83801089  0.83801891  1
" 