1228,Ni84Fe13Cr2_10,-240.585955521498, 194.960527531172,Ni84Fe13Cr2,"# generated using pymatgen
 data_Cr2Fe7Ni45
_symmetry_space_group_name_H-M   'P 1'
_cell_length_a   7.43547743
_cell_length_b   7.43547743
_cell_length_c   10.51535303
_cell_angle_alpha   90.00000000
_cell_angle_beta   90.00000000
_cell_angle_gamma   90.00000000
_symmetry_Int_Tables_number   1
_chemical_formula_structural   Cr2Fe7Ni45
_chemical_formula_sum   'Cr2 Fe7 Ni45'
_cell_volume   581.35522086
_cell_formula_units_Z   1
loop_
 _symmetry_equiv_pos_site_id
 _symmetry_equiv_pos_as_xyz
  1  'x, y, z'
loop_
 _atom_site_type_symbol
 _atom_site_label
 _atom_site_symmetry_multiplicity
 _atom_site_fract_x
 _atom_site_fract_y
 _atom_site_fract_z
 _atom_site_occupancy
  Ni  Ni0  1  0.00234150  1.00185222  1.00206954  1
  Ni  Ni1  1  0.16928395  0.16844357  0.16899523  1
  Ni  Ni2  1  0.00441408  0.00235810  0.33566709  1
  Ni  Ni3  1  0.00255075  0.33588633  1.00176298  1
  Ni  Ni4  1  0.16790863  0.50191469  0.16905657  1
  Ni  Ni5  1  1.00197349  0.33589266  0.33560012  1
  Ni  Ni6  1  1.00197533  0.66863042  1.00195902  1
  Ni  Ni7  1  0.16849657  0.83601101  0.16882376  1
  Ni  Ni8  1  0.00303077  0.66811849  0.33588827  1
  Ni  Ni9  1  0.33584267  0.00249038  1.00163033  1
  Ni  Ni10  1  0.50103118  0.16924769  0.16819118  1
  Ni  Ni11  1  0.33390801  1.00136251  0.33620234  1
  Ni  Ni12  1  0.33538289  0.33499928  0.00221501  1
  Ni  Ni13  1  0.50321381  0.50191862  0.16883258  1
  Fe  Fe14  1  0.33510220  0.33568966  0.33547545  1
  Fe  Fe15  1  0.33526185  0.66903505  0.00231716  1
  Ni  Ni16  1  0.50182191  0.83520260  0.16801944  1
  Ni  Ni17  1  0.33524423  0.66915540  0.33493704  1
  Ni  Ni18  1  0.66818547  1.00191458  0.00221396  1
  Fe  Fe19  1  0.83636163  0.16969585  0.16799009  1
  Cr  Cr20  1  0.66807012  0.00229411  0.33467843  1
  Ni  Ni21  1  0.66843457  0.33536528  1.00190183  1
  Ni  Ni22  1  0.83524636  0.50270439  0.16904266  1
  Ni  Ni23  1  0.66908878  0.33722914  0.33571241  1
  Ni  Ni24  1  0.66907170  0.66908896  1.00194077  1
  Ni  Ni25  1  0.83605064  0.83382559  0.16823349  1
  Ni  Ni26  1  0.66809500  0.66671890  0.33615767  1
  Ni  Ni27  1  0.16926010  0.16751646  0.50132585  1
  Ni  Ni28  1  1.00134038  1.00006154  0.66863128  1
  Ni  Ni29  1  0.16972851  0.16827361  0.83604731  1
  Ni  Ni30  1  0.16878348  0.50319830  0.50104223  1
  Cr  Cr31  1  0.00244251  0.33555392  0.66934078  1
  Ni  Ni32  1  0.16840554  0.50280497  0.83626966  1
  Ni  Ni33  1  0.16903374  0.83565385  0.50203302  1
  Ni  Ni34  1  0.00340154  0.67072014  0.66851895  1
  Ni  Ni35  1  0.16860517  0.83529127  0.83551371  1
  Ni  Ni36  1  0.50183313  0.16938427  0.50314562  1
  Fe  Fe37  1  0.33540521  0.00224031  0.66872081  1
  Ni  Ni38  1  0.50239016  0.16828599  0.83502812  1
  Ni  Ni39  1  0.50306428  0.50208268  0.50228939  1
  Ni  Ni40  1  0.33756584  0.33633642  0.66816982  1
  Fe  Fe41  1  0.50206765  0.50156200  0.83533427  1
  Ni  Ni42  1  0.50094366  0.83490071  0.50254370  1
  Ni  Ni43  1  0.33491515  0.66842923  0.66917021  1
  Ni  Ni44  1  0.50239527  0.83639781  0.83580756  1
  Ni  Ni45  1  0.83527560  0.16963806  0.50187058  1
  Ni  Ni46  1  0.66880153  0.00271277  0.66895823  1
  Ni  Ni47  1  0.83424982  0.16848370  0.83684041  1
  Ni  Ni48  1  0.83452355  0.50231128  0.50101720  1
  Ni  Ni49  1  0.66651215  0.33427613  0.66875670  1
  Ni  Ni50  1  0.83535438  0.50280820  0.83631204  1
  Fe  Fe51  1  0.83667099  0.83490666  0.50284650  1
  Fe  Fe52  1  0.66891266  0.66868775  0.66877169  1
  Ni  Ni53  1  0.83536879  0.83507535  0.83481882  1
" 