6854,Ni84Fe11Cr4_8,-238.557011520951, 185.292598149725,Ni84Fe11Cr4,"# generated using pymatgen
 data_Cr4(FeNi9)5
_symmetry_space_group_name_H-M   'P 1'
_cell_length_a   7.44614381
_cell_length_b   7.44614381
_cell_length_c   10.53043757
_cell_angle_alpha   90.00000000
_cell_angle_beta   90.00000000
_cell_angle_gamma   90.00000000
_symmetry_Int_Tables_number   1
_chemical_formula_structural   Cr4(FeNi9)5
_chemical_formula_sum   'Cr4 Fe5 Ni45'
_cell_volume   583.86071794
_cell_formula_units_Z   1
loop_
 _symmetry_equiv_pos_site_id
 _symmetry_equiv_pos_as_xyz
  1  'x, y, z'
loop_
 _atom_site_type_symbol
 _atom_site_label
 _atom_site_symmetry_multiplicity
 _atom_site_fract_x
 _atom_site_fract_y
 _atom_site_fract_z
 _atom_site_occupancy
  Ni  Ni0  1  1.00127389  1.00103521  1.00103624  1
  Ni  Ni1  1  0.16749332  0.16791933  0.16850314  1
  Cr  Cr2  1  0.00178015  1.00040234  0.33356995  1
  Ni  Ni3  1  1.00075780  0.33473106  0.00140379  1
  Ni  Ni4  1  0.16664419  0.50230460  0.16946630  1
  Ni  Ni5  1  0.00293381  0.33704119  0.33393914  1
  Ni  Ni6  1  1.00022969  0.66844549  0.00177159  1
  Ni  Ni7  1  0.16890612  0.83398791  0.16704600  1
  Ni  Ni8  1  1.00126229  0.66666281  0.33474686  1
  Ni  Ni9  1  0.33483805  1.00070910  0.00205571  1
  Ni  Ni10  1  0.50268984  0.16681538  0.16959993  1
  Fe  Fe11  1  0.33652803  0.00143194  0.33478212  1
  Cr  Cr12  1  0.33455003  0.33412652  1.00102926  1
  Ni  Ni13  1  0.50249712  0.50236611  0.16928101  1
  Ni  Ni14  1  0.33499493  0.33503650  0.33544139  1
  Fe  Fe15  1  0.33422241  0.67030478  1.00138722  1
  Ni  Ni16  1  0.50133438  0.83502958  0.16812283  1
  Ni  Ni17  1  0.33505257  0.66705400  0.33427668  1
  Ni  Ni18  1  0.66809968  1.00018304  1.00113467  1
  Ni  Ni19  1  0.83403106  0.16907857  0.16692687  1
  Ni  Ni20  1  0.66588997  1.00044503  0.33409723  1
  Fe  Fe21  1  0.67025284  0.33423319  1.00135425  1
  Ni  Ni22  1  0.83507127  0.50094898  0.16841060  1
  Ni  Ni23  1  0.66628363  0.33553340  0.33303982  1
  Ni  Ni24  1  0.66888852  0.66904315  0.00146084  1
  Ni  Ni25  1  0.83396982  0.83418202  0.16797721  1
  Ni  Ni26  1  0.66789621  0.66823082  0.33511481  1
  Ni  Ni27  1  0.16980053  0.16856552  0.50250064  1
  Ni  Ni28  1  0.00292134  0.00243459  0.66959590  1
  Ni  Ni29  1  0.16654935  0.16705648  0.83320819  1
  Ni  Ni30  1  0.16829834  0.50116250  0.50040585  1
  Ni  Ni31  1  0.00251318  0.33317820  0.66886872  1
  Ni  Ni32  1  0.16771211  0.50150955  0.83433945  1
  Ni  Ni33  1  0.17031163  0.83448179  0.50146429  1
  Cr  Cr34  1  1.00074542  0.66851353  0.66747691  1
  Ni  Ni35  1  0.16900016  0.83564770  0.83570217  1
  Ni  Ni36  1  0.50013851  0.16759115  0.50116280  1
  Ni  Ni37  1  0.33422128  0.00229224  0.66761734  1
  Ni  Ni38  1  0.50249969  0.16705506  0.83344764  1
  Ni  Ni39  1  0.50170272  0.50219488  0.50164413  1
  Ni  Ni40  1  0.33520491  0.33389471  0.66761449  1
  Ni  Ni41  1  0.50243377  0.50260780  0.83328623  1
  Ni  Ni42  1  0.50066506  0.83442293  0.50140519  1
  Ni  Ni43  1  0.33701539  0.66802435  0.66896996  1
  Ni  Ni44  1  0.50114296  0.83454954  0.83468541  1
  Cr  Cr45  1  0.83428443  0.16993001  0.50246039  1
  Fe  Fe46  1  0.66666996  1.00111768  0.66912986  1
  Ni  Ni47  1  0.83516483  0.16834367  0.83489853  1
  Ni  Ni48  1  0.83420920  0.50168808  0.50032672  1
  Ni  Ni49  1  0.66649386  0.33597455  0.66951993  1
  Ni  Ni50  1  0.83406643  0.50015295  0.83547166  1
  Fe  Fe51  1  0.83324372  0.83279513  0.50110088  1
  Ni  Ni52  1  0.66635234  0.66761784  0.66763465  1
  Ni  Ni53  1  0.83406522  0.83571352  0.83488456  1
" 