8720,Ni84Fe13Cr2_4,-240.656975828339, 195.416834598634,Ni84Fe13Cr2,"# generated using pymatgen
 data_Cr2Fe7Ni45
_symmetry_space_group_name_H-M   'P 1'
_cell_length_a   7.43661518
_cell_length_b   7.43661518
_cell_length_c   10.51696204
_cell_angle_alpha   90.00000000
_cell_angle_beta   90.00000000
_cell_angle_gamma   90.00000000
_symmetry_Int_Tables_number   1
_chemical_formula_structural   Cr2Fe7Ni45
_chemical_formula_sum   'Cr2 Fe7 Ni45'
_cell_volume   581.62213146
_cell_formula_units_Z   1
loop_
 _symmetry_equiv_pos_site_id
 _symmetry_equiv_pos_as_xyz
  1  'x, y, z'
loop_
 _atom_site_type_symbol
 _atom_site_label
 _atom_site_symmetry_multiplicity
 _atom_site_fract_x
 _atom_site_fract_y
 _atom_site_fract_z
 _atom_site_occupancy
  Ni  Ni0  1  0.00259700  1.00123092  1.00133974  1
  Ni  Ni1  1  0.17029421  0.16835210  0.16891673  1
  Ni  Ni2  1  0.00231205  0.00233871  0.33546753  1
  Ni  Ni3  1  0.00316488  0.33639736  0.00222492  1
  Ni  Ni4  1  0.16865333  0.50133441  0.16971987  1
  Ni  Ni5  1  0.00269179  0.33525264  0.33462333  1
  Ni  Ni6  1  1.00155703  0.66853553  0.00237956  1
  Ni  Ni7  1  0.16773503  0.83643800  0.16899141  1
  Fe  Fe8  1  1.00201470  0.66895521  0.33512466  1
  Ni  Ni9  1  0.33411274  0.00386789  0.00306142  1
  Ni  Ni10  1  0.50125059  0.16948095  0.16982725  1
  Ni  Ni11  1  0.33459620  1.00166049  0.33556893  1
  Ni  Ni12  1  0.33509198  0.33517553  1.00199622  1
  Ni  Ni13  1  0.50290967  0.50048640  0.16887608  1
  Ni  Ni14  1  0.33449989  0.33602942  0.33584489  1
  Fe  Fe15  1  0.33344090  0.66681466  0.00313543  1
  Fe  Fe16  1  0.50154268  0.83483725  0.16935859  1
  Ni  Ni17  1  0.33554288  0.66843466  0.33432477  1
  Ni  Ni18  1  0.66949893  0.00243834  0.00384320  1
  Fe  Fe19  1  0.83650776  0.16967584  0.16859101  1
  Ni  Ni20  1  0.66939857  1.00117442  0.33461344  1
  Ni  Ni21  1  0.66800351  0.33612130  1.00183283  1
  Ni  Ni22  1  0.83448243  0.50291443  0.16899773  1
  Ni  Ni23  1  0.66901730  0.33625998  0.33510311  1
  Ni  Ni24  1  0.67053063  0.66756391  0.00258669  1
  Ni  Ni25  1  0.83561706  0.83455888  0.16950333  1
  Ni  Ni26  1  0.66816594  0.66863660  0.33561909  1
  Ni  Ni27  1  0.16877485  0.16861913  0.50205781  1
  Ni  Ni28  1  0.00373429  0.00214216  0.66922784  1
  Ni  Ni29  1  0.16917942  0.16868978  0.83518717  1
  Fe  Fe30  1  0.16714093  0.50249344  0.50203499  1
  Ni  Ni31  1  0.00215680  0.33542304  0.66935198  1
  Ni  Ni32  1  0.16844803  0.50166465  0.83510047  1
  Ni  Ni33  1  0.16956243  0.83659447  0.50217909  1
  Ni  Ni34  1  0.00209666  0.66870577  0.66812462  1
  Ni  Ni35  1  0.16704559  0.83574906  0.83486682  1
  Fe  Fe36  1  0.50218886  0.16840685  0.50072759  1
  Ni  Ni37  1  0.33276980  0.00260319  0.66756424  1
  Ni  Ni38  1  0.50056480  0.17143715  0.83516776  1
  Fe  Fe39  1  0.50202396  0.50257041  0.50177131  1
  Ni  Ni40  1  0.33491595  0.33570906  0.66826604  1
  Ni  Ni41  1  0.50255466  0.49998088  0.83494942  1
  Ni  Ni42  1  0.50060051  0.83371759  0.50006670  1
  Ni  Ni43  1  0.33443207  0.66782462  0.66880114  1
  Cr  Cr44  1  0.50094427  0.83448686  0.83761936  1
  Ni  Ni45  1  0.83748551  0.17074596  0.50026251  1
  Cr  Cr46  1  0.67063376  0.00264921  0.66798979  1
  Ni  Ni47  1  0.83635826  0.17036031  0.83708927  1
  Ni  Ni48  1  0.83424405  0.50144546  0.50190225  1
  Ni  Ni49  1  0.66896892  0.33749469  0.66890114  1
  Ni  Ni50  1  0.83512604  0.50209191  0.83519684  1
  Ni  Ni51  1  0.83607339  0.83387588  0.50144541  1
  Ni  Ni52  1  0.66931771  0.66635085  0.66798306  1
  Ni  Ni53  1  0.83791939  0.83369233  0.83518419  1
" 