1950,Ni84Fe11Cr4_19,-238.611033067851, 185.510953389725,Ni84Fe11Cr4,"# generated using pymatgen
 data_Cr4(FeNi9)5
_symmetry_space_group_name_H-M   'P 1'
_cell_length_a   7.44657580
_cell_length_b   7.44657580
_cell_length_c   10.53104849
_cell_angle_alpha   90.00000000
_cell_angle_beta   90.00000000
_cell_angle_gamma   90.00000000
_symmetry_Int_Tables_number   1
_chemical_formula_structural   Cr4(FeNi9)5
_chemical_formula_sum   'Cr4 Fe5 Ni45'
_cell_volume   583.96234227
_cell_formula_units_Z   1
loop_
 _symmetry_equiv_pos_site_id
 _symmetry_equiv_pos_as_xyz
  1  'x, y, z'
loop_
 _atom_site_type_symbol
 _atom_site_label
 _atom_site_symmetry_multiplicity
 _atom_site_fract_x
 _atom_site_fract_y
 _atom_site_fract_z
 _atom_site_occupancy
  Ni  Ni0  1  1.00115890  0.00287450  1.00131326  1
  Ni  Ni1  1  0.16729272  0.16754612  0.16819023  1
  Ni  Ni2  1  0.00250608  1.00125283  0.33400920  1
  Ni  Ni3  1  1.00089954  0.33361921  1.00105850  1
  Ni  Ni4  1  0.16842232  0.50082342  0.16884595  1
  Ni  Ni5  1  0.00137462  0.33536284  0.33395188  1
  Cr  Cr6  1  0.00222647  0.66752407  0.00176878  1
  Ni  Ni7  1  0.16955303  0.83575496  0.16842594  1
  Fe  Fe8  1  1.00105478  0.66825136  0.33497895  1
  Ni  Ni9  1  0.33509540  1.00088680  0.00156840  1
  Ni  Ni10  1  0.50189982  0.16728738  0.16788468  1
  Ni  Ni11  1  0.33356760  0.99943616  0.33395043  1
  Ni  Ni12  1  0.33503566  0.33528566  0.00202724  1
  Ni  Ni13  1  0.50164074  0.50195284  0.16783636  1
  Fe  Fe14  1  0.33428740  0.33506504  0.33387001  1
  Ni  Ni15  1  0.33569534  0.66795196  1.00111556  1
  Ni  Ni16  1  0.50076842  0.83488336  0.16815059  1
  Ni  Ni17  1  0.33505458  0.66864037  0.33502738  1
  Ni  Ni18  1  0.66786903  0.00221621  0.00170978  1
  Ni  Ni19  1  0.83493160  0.16841854  0.16765465  1
  Ni  Ni20  1  0.66804988  0.99976287  0.33319512  1
  Ni  Ni21  1  0.66818749  0.33421696  0.00147025  1
  Ni  Ni22  1  0.83405963  0.49969068  0.16890063  1
  Ni  Ni23  1  0.66918222  0.33685073  0.33313846  1
  Fe  Fe24  1  0.66610667  0.66783100  1.00105040  1
  Fe  Fe25  1  0.83386229  0.83619210  0.16894790  1
  Ni  Ni26  1  0.66736753  0.66750960  0.33485752  1
  Ni  Ni27  1  0.16750562  0.16776154  0.50149513  1
  Ni  Ni28  1  0.00209994  0.00241665  0.66880308  1
  Ni  Ni29  1  0.16732735  0.16845196  0.83443794  1
  Ni  Ni30  1  0.16863953  0.50099900  0.50048521  1
  Ni  Ni31  1  0.00190615  0.33397710  0.66911491  1
  Ni  Ni32  1  0.16945801  0.49919152  0.83479155  1
  Ni  Ni33  1  0.16895780  0.83536357  0.50116097  1
  Cr  Cr34  1  0.00138674  0.66770334  0.66706127  1
  Fe  Fe35  1  0.16978711  0.83644263  0.83481692  1
  Cr  Cr36  1  0.50018825  0.16753137  0.50154031  1
  Ni  Ni37  1  0.33405730  1.00049467  0.66860559  1
  Ni  Ni38  1  0.50137054  0.16738598  0.83477497  1
  Ni  Ni39  1  0.50134235  0.50400331  0.50175155  1
  Ni  Ni40  1  0.33399831  0.33564558  0.66818716  1
  Ni  Ni41  1  0.50111091  0.50213324  0.83453588  1
  Ni  Ni42  1  0.50128110  0.83261838  0.50169356  1
  Ni  Ni43  1  0.33653797  0.66798402  0.66798158  1
  Ni  Ni44  1  0.50192459  0.83460542  0.83427952  1
  Cr  Cr45  1  0.83622053  0.16787897  0.50240274  1
  Ni  Ni46  1  0.66796737  0.99987571  0.66921892  1
  Ni  Ni47  1  0.83542593  0.16763855  0.83451876  1
  Ni  Ni48  1  0.83414232  0.50255243  0.50094225  1
  Ni  Ni49  1  0.66821875  0.33645791  0.66951620  1
  Ni  Ni50  1  0.83355387  0.49974902  0.83427922  1
  Ni  Ni51  1  0.83388444  0.83374973  0.50017256  1
  Ni  Ni52  1  0.66629953  0.66779054  0.66800849  1
  Ni  Ni53  1  0.83248519  0.83673758  0.83475294  1
" 