5188,Ni84Fe13Cr2_6,-240.487448319867, 194.342652384445,Ni84Fe13Cr2,"# generated using pymatgen
 data_Cr2Fe7Ni45
_symmetry_space_group_name_H-M   'P 1'
_cell_length_a   7.43743924
_cell_length_b   7.43743924
_cell_length_c   10.51812744
_cell_angle_alpha   90.00000000
_cell_angle_beta   90.00000000
_cell_angle_gamma   90.00000000
_symmetry_Int_Tables_number   1
_chemical_formula_structural   Cr2Fe7Ni45
_chemical_formula_sum   'Cr2 Fe7 Ni45'
_cell_volume   581.81550400
_cell_formula_units_Z   1
loop_
 _symmetry_equiv_pos_site_id
 _symmetry_equiv_pos_as_xyz
  1  'x, y, z'
loop_
 _atom_site_type_symbol
 _atom_site_label
 _atom_site_symmetry_multiplicity
 _atom_site_fract_x
 _atom_site_fract_y
 _atom_site_fract_z
 _atom_site_occupancy
  Ni  Ni0  1  0.00236953  0.00219166  1.00189367  1
  Ni  Ni1  1  0.16836235  0.16926795  0.16959982  1
  Ni  Ni2  1  0.00267856  1.00135348  0.33598808  1
  Ni  Ni3  1  0.00236075  0.33526215  0.00285752  1
  Ni  Ni4  1  0.16896815  0.50220015  0.16842165  1
  Fe  Fe5  1  1.00066801  0.33474307  0.33544030  1
  Ni  Ni6  1  1.00193091  0.66855300  1.00157662  1
  Ni  Ni7  1  0.16829621  0.83460661  0.16833528  1
  Ni  Ni8  1  1.00157507  0.66874075  0.33544617  1
  Ni  Ni9  1  0.33408912  0.00360699  0.00296582  1
  Ni  Ni10  1  0.50272461  0.16895649  0.16789588  1
  Ni  Ni11  1  0.33409820  1.00198149  0.33442460  1
  Ni  Ni12  1  0.33546186  0.33522531  0.00220014  1
  Ni  Ni13  1  0.50118782  0.50172425  0.16930955  1
  Fe  Fe14  1  0.33496330  0.33582755  0.33394169  1
  Ni  Ni15  1  0.33456441  0.66717329  0.00334633  1
  Ni  Ni16  1  0.50238091  0.83545842  0.16921934  1
  Fe  Fe17  1  0.33549967  0.67021998  0.33503207  1
  Ni  Ni18  1  0.66948622  0.00310282  0.00378012  1
  Ni  Ni19  1  0.83473392  0.16819572  0.16909052  1
  Ni  Ni20  1  0.66906532  1.00154033  0.33429923  1
  Ni  Ni21  1  0.66808693  0.33566105  1.00127444  1
  Fe  Fe22  1  0.83512694  0.50225463  0.16853566  1
  Ni  Ni23  1  0.66886308  0.33666649  0.33491715  1
  Ni  Ni24  1  0.66947685  0.66721764  0.00343919  1
  Ni  Ni25  1  0.83533927  0.83609028  0.16895848  1
  Ni  Ni26  1  0.66936639  0.66797446  0.33557228  1
  Fe  Fe27  1  0.16633146  0.16748799  0.50246732  1
  Ni  Ni28  1  1.00186856  0.00223839  0.66815829  1
  Ni  Ni29  1  0.16856262  0.16944403  0.83457268  1
  Ni  Ni30  1  0.16789745  0.50279359  0.50196604  1
  Ni  Ni31  1  0.00285550  0.33553540  0.66772085  1
  Ni  Ni32  1  0.16852537  0.50193958  0.83548062  1
  Ni  Ni33  1  0.16880564  0.83354765  0.50229837  1
  Ni  Ni34  1  1.00156979  0.66809498  0.66893229  1
  Ni  Ni35  1  0.16688886  0.83457345  0.83523569  1
  Cr  Cr36  1  0.50316093  0.16749203  0.50260939  1
  Ni  Ni37  1  0.33367057  0.00262404  0.66874610  1
  Ni  Ni38  1  0.50224744  0.17054000  0.83593942  1
  Fe  Fe39  1  0.50301059  0.50445822  0.50208709  1
  Ni  Ni40  1  0.33391642  0.33624793  0.66930307  1
  Ni  Ni41  1  0.50149200  0.49999546  0.83412336  1
  Ni  Ni42  1  0.50178872  0.83478027  0.50141276  1
  Ni  Ni43  1  0.33479562  0.66715285  0.66683676  1
  Cr  Cr44  1  0.50169293  0.83565063  0.83584138  1
  Ni  Ni45  1  0.83579043  0.16891128  0.50198184  1
  Ni  Ni46  1  0.67029952  1.00131916  0.66806802  1
  Ni  Ni47  1  0.83519630  0.16888732  0.83487611  1
  Ni  Ni48  1  0.83697363  0.50175444  0.50155614  1
  Fe  Fe49  1  0.67020518  0.33596430  0.66976153  1
  Ni  Ni50  1  0.83605700  0.50164330  0.83574226  1
  Ni  Ni51  1  0.83535558  0.83529749  0.50223073  1
  Ni  Ni52  1  0.66973964  0.66790941  0.66698500  1
  Ni  Ni53  1  0.83706463  0.83540751  0.83479201  1
" 