6691,Ni84Fe13Cr2_1,-240.5454881071, 194.371598719761,Ni84Fe13Cr2,"# generated using pymatgen
 data_Cr2Fe7Ni45
_symmetry_space_group_name_H-M   'P 1'
_cell_length_a   7.43515468
_cell_length_b   7.43515468
_cell_length_c   10.51489658
_cell_angle_alpha   90.00000000
_cell_angle_beta   90.00000000
_cell_angle_gamma   90.00000000
_symmetry_Int_Tables_number   1
_chemical_formula_structural   Cr2Fe7Ni45
_chemical_formula_sum   'Cr2 Fe7 Ni45'
_cell_volume   581.27951899
_cell_formula_units_Z   1
loop_
 _symmetry_equiv_pos_site_id
 _symmetry_equiv_pos_as_xyz
  1  'x, y, z'
loop_
 _atom_site_type_symbol
 _atom_site_label
 _atom_site_symmetry_multiplicity
 _atom_site_fract_x
 _atom_site_fract_y
 _atom_site_fract_z
 _atom_site_occupancy
  Ni  Ni0  1  0.00247975  0.00291775  0.00241337  1
  Ni  Ni1  1  0.16968346  0.16823038  0.16896385  1
  Ni  Ni2  1  1.00172678  0.00294788  0.33424457  1
  Ni  Ni3  1  0.00248096  0.33557100  0.00236124  1
  Ni  Ni4  1  0.16888271  0.50308197  0.16842575  1
  Ni  Ni5  1  0.00275603  0.33589810  0.33578938  1
  Ni  Ni6  1  0.00375909  0.66794467  1.00205157  1
  Ni  Ni7  1  0.16867163  0.83512203  0.16822096  1
  Ni  Ni8  1  1.00050841  0.66758854  0.33409852  1
  Ni  Ni9  1  0.33547458  0.00219634  0.00214690  1
  Ni  Ni10  1  0.50238518  0.16864181  0.16836159  1
  Ni  Ni11  1  0.33640864  0.00375069  0.33459909  1
  Fe  Fe12  1  0.33435403  0.33525116  0.00219799  1
  Fe  Fe13  1  0.50151558  0.50103718  0.16981180  1
  Ni  Ni14  1  0.33511583  0.33483125  0.33542131  1
  Ni  Ni15  1  0.33394440  0.66892082  0.00252210  1
  Fe  Fe16  1  0.50144500  0.83710717  0.16980285  1
  Fe  Fe17  1  0.33593946  0.66789304  0.33495942  1
  Ni  Ni18  1  0.66847835  0.00347974  0.00240337  1
  Ni  Ni19  1  0.83436504  0.16842977  0.16857489  1
  Ni  Ni20  1  0.66829869  1.00150885  0.33543007  1
  Fe  Fe21  1  0.66966010  0.33375275  1.00214230  1
  Ni  Ni22  1  0.83615373  0.50189596  0.16929480  1
  Ni  Ni23  1  0.66856189  0.33604215  0.33498296  1
  Cr  Cr24  1  0.66950700  0.66906247  1.00197646  1
  Ni  Ni25  1  0.83656570  0.83610559  0.16965604  1
  Ni  Ni26  1  0.66936562  0.66888349  0.33583584  1
  Ni  Ni27  1  0.16937899  0.17025823  0.50192962  1
  Ni  Ni28  1  1.00152593  0.00311235  0.66977646  1
  Ni  Ni29  1  0.16895894  0.16803108  0.83554051  1
  Ni  Ni30  1  0.16932924  0.50061261  0.50248867  1
  Ni  Ni31  1  0.00255725  0.33577152  0.66828433  1
  Ni  Ni32  1  0.16972942  0.50297003  0.83552532  1
  Cr  Cr33  1  0.16851907  0.83564852  0.50231659  1
  Ni  Ni34  1  1.00107226  0.66755054  0.67028353  1
  Ni  Ni35  1  0.16876015  0.83543243  0.83598579  1
  Ni  Ni36  1  0.50230956  0.16898631  0.50264706  1
  Ni  Ni37  1  0.33635212  0.00309920  0.66968596  1
  Fe  Fe38  1  0.50221891  0.16881596  0.83518074  1
  Ni  Ni39  1  0.50235351  0.50188475  0.50176876  1
  Ni  Ni40  1  0.33511282  0.33557013  0.66890538  1
  Ni  Ni41  1  0.50130932  0.50153373  0.83485861  1
  Ni  Ni42  1  0.50388887  0.83556314  0.50222908  1
  Ni  Ni43  1  0.33660560  0.66776507  0.66946850  1
  Fe  Fe44  1  0.50121026  0.83581987  0.83425536  1
  Ni  Ni45  1  0.83474595  0.16872128  0.50187730  1
  Ni  Ni46  1  0.66855582  1.00161634  0.66859914  1
  Ni  Ni47  1  0.83512619  0.16822764  0.83598073  1
  Ni  Ni48  1  0.83475060  0.50219716  0.50244431  1
  Ni  Ni49  1  0.66876336  0.33602339  0.66908855  1
  Ni  Ni50  1  0.83539483  0.50173346  0.83469411  1
  Ni  Ni51  1  0.83347580  0.83551557  0.50218669  1
  Ni  Ni52  1  0.66875654  0.66879263  0.66853576  1
  Ni  Ni53  1  0.83656693  0.83647041  0.83459004  1
" 