7993,Ni84Fe11Cr4_18,-238.544150832483, 185.188550989747,Ni84Fe11Cr4,"# generated using pymatgen
 data_Cr4(FeNi9)5
_symmetry_space_group_name_H-M   'P 1'
_cell_length_a   7.44335632
_cell_length_b   7.44335632
_cell_length_c   10.52649546
_cell_angle_alpha   90.00000000
_cell_angle_beta   90.00000000
_cell_angle_gamma   90.00000000
_symmetry_Int_Tables_number   1
_chemical_formula_structural   Cr4(FeNi9)5
_chemical_formula_sum   'Cr4 Fe5 Ni45'
_cell_volume   583.20525200
_cell_formula_units_Z   1
loop_
 _symmetry_equiv_pos_site_id
 _symmetry_equiv_pos_as_xyz
  1  'x, y, z'
loop_
 _atom_site_type_symbol
 _atom_site_label
 _atom_site_symmetry_multiplicity
 _atom_site_fract_x
 _atom_site_fract_y
 _atom_site_fract_z
 _atom_site_occupancy
  Ni  Ni0  1  0.00213450  0.00171278  1.00064378  1
  Fe  Fe1  1  0.16823406  0.16781321  0.16894664  1
  Ni  Ni2  1  0.00292269  0.00309734  0.33489064  1
  Ni  Ni3  1  0.99936699  0.33530835  1.00136009  1
  Ni  Ni4  1  0.16767893  0.50274465  0.16926918  1
  Ni  Ni5  1  1.00117155  0.33514590  0.33496278  1
  Ni  Ni6  1  0.00253831  0.66774251  1.00011341  1
  Ni  Ni7  1  0.16997527  0.83441284  0.16936619  1
  Ni  Ni8  1  0.00314985  0.66633100  0.33587663  1
  Ni  Ni9  1  0.33503116  0.99919790  1.00086168  1
  Ni  Ni10  1  0.50277586  0.16730629  0.17008115  1
  Ni  Ni11  1  0.33512152  1.00085221  0.33596704  1
  Cr  Cr12  1  0.33548489  0.33540205  1.00069583  1
  Ni  Ni13  1  0.50158202  0.50201794  0.16929917  1
  Ni  Ni14  1  0.33501921  0.33559694  0.33552809  1
  Ni  Ni15  1  0.33458548  0.67005216  0.00167327  1
  Ni  Ni16  1  0.49948815  0.83537270  0.16808203  1
  Ni  Ni17  1  0.33501723  0.66829883  0.33479983  1
  Ni  Ni18  1  0.66764467  0.00249270  1.00043890  1
  Ni  Ni19  1  0.83457534  0.16966354  0.16851329  1
  Ni  Ni20  1  0.66696268  0.00313955  0.33524295  1
  Ni  Ni21  1  0.67000062  0.33490108  1.00125115  1
  Ni  Ni22  1  0.83544711  0.49955751  0.16892193  1
  Ni  Ni23  1  0.66885080  0.33531578  0.33551687  1
  Ni  Ni24  1  0.66758666  0.66731831  1.00047919  1
  Cr  Cr25  1  0.83457979  0.83508131  0.16828058  1
  Ni  Ni26  1  0.66664664  0.66652403  0.33504307  1
  Ni  Ni27  1  0.16702890  0.16809244  0.50038520  1
  Ni  Ni28  1  0.00176430  0.00271436  0.66915389  1
  Ni  Ni29  1  0.16645948  0.16654116  0.83561815  1
  Ni  Ni30  1  0.16823366  0.50058487  0.50095468  1
  Ni  Ni31  1  0.99966932  0.33449659  0.66848268  1
  Ni  Ni32  1  0.16675012  0.50299922  0.83478385  1
  Fe  Fe33  1  0.16901812  0.83441141  0.50133151  1
  Fe  Fe34  1  0.00206085  0.66741670  0.66895174  1
  Ni  Ni35  1  0.16865166  0.83517733  0.83387226  1
  Fe  Fe36  1  0.50279243  0.16876592  0.50132281  1
  Ni  Ni37  1  0.33470166  0.99878342  0.66796227  1
  Ni  Ni38  1  0.50313229  0.16620795  0.83369439  1
  Ni  Ni39  1  0.50142929  0.50367656  0.50044701  1
  Cr  Cr40  1  0.33487640  0.33557947  0.66906275  1
  Ni  Ni41  1  0.50291138  0.50344613  0.83498723  1
  Ni  Ni42  1  0.50001962  0.83490371  0.50108304  1
  Ni  Ni43  1  0.33501038  0.66979674  0.66833133  1
  Ni  Ni44  1  0.50129291  0.83515383  0.83546082  1
  Ni  Ni45  1  0.83652133  0.16924201  0.50149364  1
  Ni  Ni46  1  0.66835796  0.00236354  0.66909579  1
  Ni  Ni47  1  0.83518631  0.16812376  0.83483944  1
  Ni  Ni48  1  0.83529446  0.49936116  0.50112971  1
  Ni  Ni49  1  0.67085015  0.33517980  0.66811793  1
  Ni  Ni50  1  0.83507789  0.50103843  0.83461495  1
  Cr  Cr51  1  0.83358536  0.83590538  0.50085523  1
  Fe  Fe52  1  0.66688136  0.66796966  0.66874494  1
  Ni  Ni53  1  0.83480812  0.83560678  0.83505508  1
" 