7310,Ni84Fe13Cr2_19,-240.61225073387, 194.46574216815,Ni84Fe13Cr2,"# generated using pymatgen
 data_Cr2Fe7Ni45
_symmetry_space_group_name_H-M   'P 1'
_cell_length_a   7.43770389
_cell_length_b   7.43770389
_cell_length_c   10.51850172
_cell_angle_alpha   90.00000000
_cell_angle_beta   90.00000000
_cell_angle_gamma   90.00000000
_symmetry_Int_Tables_number   1
_chemical_formula_structural   Cr2Fe7Ni45
_chemical_formula_sum   'Cr2 Fe7 Ni45'
_cell_volume   581.87761598
_cell_formula_units_Z   1
loop_
 _symmetry_equiv_pos_site_id
 _symmetry_equiv_pos_as_xyz
  1  'x, y, z'
loop_
 _atom_site_type_symbol
 _atom_site_label
 _atom_site_symmetry_multiplicity
 _atom_site_fract_x
 _atom_site_fract_y
 _atom_site_fract_z
 _atom_site_occupancy
  Ni  Ni0  1  1.00185093  0.00223464  1.00134753  1
  Ni  Ni1  1  0.16876008  0.16962042  0.16854313  1
  Ni  Ni2  1  0.00245124  0.00223513  0.33605853  1
  Ni  Ni3  1  1.00183422  0.33495216  0.00224355  1
  Ni  Ni4  1  0.16799957  0.50180006  0.16827805  1
  Ni  Ni5  1  1.00162113  0.33536302  0.33499181  1
  Ni  Ni6  1  0.00325880  0.66873057  1.00162126  1
  Ni  Ni7  1  0.16875975  0.83449777  0.16854290  1
  Ni  Ni8  1  0.00304643  0.66831985  0.33561621  1
  Fe  Fe9  1  0.33462941  0.00257878  1.00136567  1
  Ni  Ni10  1  0.50202304  0.17046306  0.16827188  1
  Ni  Ni11  1  0.33474272  0.00223451  0.33562029  1
  Ni  Ni12  1  0.33588868  0.33604082  0.00214553  1
  Fe  Fe13  1  0.50162001  0.49982173  0.16847414  1
  Ni  Ni14  1  0.33579085  0.33558108  0.33531115  1
  Ni  Ni15  1  0.33446283  0.66764297  1.00152066  1
  Cr  Cr16  1  0.50038111  0.83583824  0.16846893  1
  Ni  Ni17  1  0.33436424  0.66810224  0.33593629  1
  Ni  Ni18  1  0.66928292  0.00365950  1.00036699  1
  Ni  Ni19  1  0.83513469  0.17122137  0.16849388  1
  Ni  Ni20  1  0.66872377  0.00366118  0.33699061  1
  Ni  Ni21  1  0.66819492  0.33463176  0.00262184  1
  Ni  Ni22  1  0.83649047  0.49960451  0.16822880  1
  Ni  Ni23  1  0.66850608  0.33498506  0.33456288  1
  Ni  Ni24  1  0.66819583  0.66762591  0.99988142  1
  Cr  Cr25  1  0.83698141  0.83520843  0.16892619  1
  Ni  Ni26  1  0.66850717  0.66727070  0.33730545  1
  Fe  Fe27  1  0.16864009  0.16869888  0.50156322  1
  Ni  Ni28  1  1.00129660  1.00134009  0.66851200  1
  Fe  Fe29  1  0.16885917  0.16791113  0.83551883  1
  Ni  Ni30  1  0.16863921  0.50272119  0.50223279  1
  Ni  Ni31  1  1.00156822  0.33551734  0.66868217  1
  Fe  Fe32  1  0.16925919  0.50247824  0.83529957  1
  Ni  Ni33  1  0.16864229  0.83424571  0.50132599  1
  Ni  Ni34  1  0.00276340  0.66906031  0.66868138  1
  Ni  Ni35  1  0.16833274  0.83453995  0.83604924  1
  Ni  Ni36  1  0.50266880  0.16874049  0.50207826  1
  Ni  Ni37  1  0.33597924  1.00133952  0.66904795  1
  Ni  Ni38  1  0.50276540  0.16926403  0.83556802  1
  Ni  Ni39  1  0.50125655  0.50151560  0.50126872  1
  Ni  Ni40  1  0.33603585  0.33584629  0.66845987  1
  Ni  Ni41  1  0.50129871  0.50151627  0.83588374  1
  Ni  Ni42  1  0.50146279  0.83566128  0.50247797  1
  Ni  Ni43  1  0.33484172  0.66873128  0.66846037  1
  Ni  Ni44  1  0.50155913  0.83513746  0.83516799  1
  Ni  Ni45  1  0.83460665  0.16874379  0.50153587  1
  Ni  Ni46  1  0.66864246  0.00253384  0.66856121  1
  Ni  Ni47  1  0.83482203  0.16839790  0.83588800  1
  Ni  Ni48  1  0.83602201  0.50151567  0.50224291  1
  Ni  Ni49  1  0.66831360  0.33437995  0.66873305  1
  Fe  Fe50  1  0.83452322  0.50225758  0.83568511  1
  Ni  Ni51  1  0.83581280  0.83565843  0.50193575  1
  Fe  Fe52  1  0.66838220  0.66883743  0.66843897  1
  Ni  Ni53  1  0.83602580  0.83600705  0.83548766  1
" 