7047,Ni84Fe13Cr2_15,-240.482093241644, 194.145138026284,Ni84Fe13Cr2,"# generated using pymatgen
 data_Cr2Fe7Ni45
_symmetry_space_group_name_H-M   'P 1'
_cell_length_a   7.43477799
_cell_length_b   7.43477799
_cell_length_c   10.51436387
_cell_angle_alpha   90.00000000
_cell_angle_beta   90.00000000
_cell_angle_gamma   90.00000000
_symmetry_Int_Tables_number   1
_chemical_formula_structural   Cr2Fe7Ni45
_chemical_formula_sum   'Cr2 Fe7 Ni45'
_cell_volume   581.19117610
_cell_formula_units_Z   1
loop_
 _symmetry_equiv_pos_site_id
 _symmetry_equiv_pos_as_xyz
  1  'x, y, z'
loop_
 _atom_site_type_symbol
 _atom_site_label
 _atom_site_symmetry_multiplicity
 _atom_site_fract_x
 _atom_site_fract_y
 _atom_site_fract_z
 _atom_site_occupancy
  Fe  Fe0  1  1.00201813  0.00241090  1.00156243  1
  Ni  Ni1  1  0.16857125  0.16845747  0.16792795  1
  Fe  Fe2  1  1.00126143  0.00219032  0.33626976  1
  Ni  Ni3  1  0.00250795  0.33582063  0.00251134  1
  Fe  Fe4  1  0.16793075  0.50258761  0.16747881  1
  Ni  Ni5  1  1.00068364  0.33532359  0.33583806  1
  Ni  Ni6  1  0.00225399  0.66838465  0.00226121  1
  Fe  Fe7  1  0.16913303  0.83520659  0.16871148  1
  Ni  Ni8  1  0.00221025  0.66880181  0.33563448  1
  Ni  Ni9  1  0.33626529  0.00250179  0.00272590  1
  Ni  Ni10  1  0.50199644  0.16836452  0.16808148  1
  Fe  Fe11  1  0.33517288  0.99974685  0.33479457  1
  Ni  Ni12  1  0.33489453  0.33472593  0.00217883  1
  Ni  Ni13  1  0.50326613  0.50316573  0.16775811  1
  Cr  Cr14  1  0.33479840  0.33626610  0.33472219  1
  Ni  Ni15  1  0.33494828  0.66928068  0.00250906  1
  Ni  Ni16  1  0.50198045  0.83497720  0.16951738  1
  Ni  Ni17  1  0.33536787  0.67065569  0.33561592  1
  Ni  Ni18  1  0.66821164  0.00225310  1.00214395  1
  Ni  Ni19  1  0.83594170  0.16973502  0.16929281  1
  Ni  Ni20  1  0.66972935  1.00126913  0.33477916  1
  Ni  Ni21  1  0.66910617  0.33449985  0.00292213  1
  Ni  Ni22  1  0.83518457  0.50230999  0.16914423  1
  Ni  Ni23  1  0.67156778  0.33517006  0.33445772  1
  Ni  Ni24  1  0.66930401  0.66975714  0.00266066  1
  Ni  Ni25  1  0.83509004  0.83446408  0.16883907  1
  Ni  Ni26  1  0.66892959  0.67007000  0.33557383  1
  Ni  Ni27  1  0.16653478  0.16779720  0.50346366  1
  Ni  Ni28  1  1.00212868  0.00245257  0.66864041  1
  Ni  Ni29  1  0.16960246  0.16929980  0.83512000  1
  Fe  Fe30  1  0.16771063  0.50340642  0.50341673  1
  Ni  Ni31  1  0.00254593  0.33500216  0.66815976  1
  Ni  Ni32  1  0.16829625  0.50208320  0.83537159  1
  Ni  Ni33  1  0.16917870  0.83565127  0.50192875  1
  Ni  Ni34  1  0.00235288  0.66905898  0.66861268  1
  Ni  Ni35  1  0.16940337  0.83512886  0.83579922  1
  Cr  Cr36  1  0.50258622  0.16842458  0.50284439  1
  Ni  Ni37  1  0.33477466  1.00159409  0.66896452  1
  Ni  Ni38  1  0.50150076  0.16847256  0.83580781  1
  Ni  Ni39  1  0.50347345  0.50491000  0.50326497  1
  Ni  Ni40  1  0.33424506  0.33574702  0.66981536  1
  Fe  Fe41  1  0.50207489  0.50210793  0.83544489  1
  Ni  Ni42  1  0.50140750  0.83306088  0.50182495  1
  Ni  Ni43  1  0.33529734  0.66917062  0.66838208  1
  Ni  Ni44  1  0.50176197  0.83589204  0.83516665  1
  Ni  Ni45  1  0.83777469  0.16985559  0.50183143  1
  Ni  Ni46  1  0.66960605  1.00139944  0.66958715  1
  Ni  Ni47  1  0.83540806  0.16958094  0.83538427  1
  Ni  Ni48  1  0.83518252  0.50227079  0.50173021  1
  Ni  Ni49  1  0.66971862  0.33552482  0.66913355  1
  Ni  Ni50  1  0.83617199  0.50234414  0.83563613  1
  Ni  Ni51  1  0.83592278  0.83438271  0.50234610  1
  Ni  Ni52  1  0.66885798  0.66958910  0.66827522  1
  Ni  Ni53  1  0.83534598  0.83458558  0.83532473  1
" 