8966,Ni84Fe11Cr4_17,-238.298178268781, 184.852220197239,Ni84Fe11Cr4,"# generated using pymatgen
 data_Cr4(FeNi9)5
_symmetry_space_group_name_H-M   'P 1'
_cell_length_a   7.44672481
_cell_length_b   7.44672481
_cell_length_c   10.53125922
_cell_angle_alpha   90.00000000
_cell_angle_beta   90.00000000
_cell_angle_gamma   90.00000000
_symmetry_Int_Tables_number   1
_chemical_formula_structural   Cr4(FeNi9)5
_chemical_formula_sum   'Cr4 Fe5 Ni45'
_cell_volume   583.99739834
_cell_formula_units_Z   1
loop_
 _symmetry_equiv_pos_site_id
 _symmetry_equiv_pos_as_xyz
  1  'x, y, z'
loop_
 _atom_site_type_symbol
 _atom_site_label
 _atom_site_symmetry_multiplicity
 _atom_site_fract_x
 _atom_site_fract_y
 _atom_site_fract_z
 _atom_site_occupancy
  Ni  Ni0  1  1.00037244  0.99963420  1.00076649  1
  Cr  Cr1  1  0.16722860  0.16793616  0.16822851  1
  Ni  Ni2  1  0.00148113  1.00008193  0.33555187  1
  Ni  Ni3  1  1.00036635  0.33660472  1.00054667  1
  Ni  Ni4  1  0.16758650  0.50264563  0.16794624  1
  Ni  Ni5  1  0.99903090  0.33497380  0.33456122  1
  Ni  Ni6  1  1.00112926  0.66786389  0.00203498  1
  Ni  Ni7  1  0.16755248  0.83344876  0.16864847  1
  Fe  Fe8  1  1.00121860  0.66859783  0.33413575  1
  Ni  Ni9  1  0.33475647  0.99893067  0.99989549  1
  Cr  Cr10  1  0.50160123  0.16863589  0.16647026  1
  Ni  Ni11  1  0.33343548  0.99796332  0.33697248  1
  Ni  Ni12  1  0.33482484  0.33721236  0.99971068  1
  Ni  Ni13  1  0.50187536  0.50274787  0.16850278  1
  Ni  Ni14  1  0.33575795  0.33713406  0.33588568  1
  Fe  Fe15  1  0.33457712  0.66784168  1.00110611  1
  Ni  Ni16  1  0.50088681  0.83235386  0.16710646  1
  Ni  Ni17  1  0.33551650  0.66889510  0.33308022  1
  Ni  Ni18  1  0.66899155  0.99986131  1.00071741  1
  Ni  Ni19  1  0.83571285  0.16880609  0.16730965  1
  Cr  Cr20  1  0.66897679  1.00099904  0.33472413  1
  Ni  Ni21  1  0.66896787  0.33631034  1.00111553  1
  Ni  Ni22  1  0.83463119  0.50165968  0.16831613  1
  Ni  Ni23  1  0.66925002  0.33728407  0.33513104  1
  Ni  Ni24  1  0.66848273  0.66786997  0.00158919  1
  Ni  Ni25  1  0.83560007  0.83362723  0.16703148  1
  Fe  Fe26  1  0.66753724  0.66705649  0.33415657  1
  Ni  Ni27  1  0.16864957  0.16653237  0.50126827  1
  Ni  Ni28  1  1.00099812  1.00048307  0.66774934  1
  Ni  Ni29  1  0.16826204  0.16787092  0.83422170  1
  Cr  Cr30  1  0.16750154  0.50094396  0.50179653  1
  Ni  Ni31  1  1.00000898  0.33470889  0.66905525  1
  Ni  Ni32  1  0.16735605  0.50115262  0.83479614  1
  Ni  Ni33  1  0.16753845  0.83663930  0.50101693  1
  Ni  Ni34  1  0.00142752  0.66892792  0.66840862  1
  Ni  Ni35  1  0.16736583  0.83507306  0.83438652  1
  Ni  Ni36  1  0.49964887  0.16880592  0.50204139  1
  Ni  Ni37  1  0.33516210  1.00034684  0.66708769  1
  Ni  Ni38  1  0.50131110  0.16786457  0.83480255  1
  Ni  Ni39  1  0.50365661  0.50133763  0.50107665  1
  Ni  Ni40  1  0.33611983  0.33478242  0.66844255  1
  Ni  Ni41  1  0.50197545  0.50091251  0.83447944  1
  Ni  Ni42  1  0.50129002  0.83395610  0.50220201  1
  Ni  Ni43  1  0.33485266  0.66895406  0.66945421  1
  Ni  Ni44  1  0.50195885  0.83529307  0.83472922  1
  Fe  Fe45  1  0.83532578  0.16870817  0.50235909  1
  Ni  Ni46  1  0.66790680  0.00171588  0.66843767  1
  Ni  Ni47  1  0.83454291  0.16786690  0.83487195  1
  Ni  Ni48  1  0.83278444  0.50233795  0.50136681  1
  Ni  Ni49  1  0.66793701  0.33434897  0.66778005  1
  Ni  Ni50  1  0.83477417  0.50183213  0.83458298  1
  Ni  Ni51  1  0.83529695  0.83286483  0.50240550  1
  Fe  Fe52  1  0.66790622  0.66804126  0.66881007  1
  Ni  Ni53  1  0.83477930  0.83440820  0.83481485  1
" 