8603,Ni84Fe11Cr4_9,-238.59665100696, 183.909141497089,Ni84Fe11Cr4,"# generated using pymatgen
 data_Cr4(FeNi9)5
_symmetry_space_group_name_H-M   'P 1'
_cell_length_a   7.44894697
_cell_length_b   7.44894697
_cell_length_c   10.53440183
_cell_angle_alpha   90.00000000
_cell_angle_beta   90.00000000
_cell_angle_gamma   90.00000000
_symmetry_Int_Tables_number   1
_chemical_formula_structural   Cr4(FeNi9)5
_chemical_formula_sum   'Cr4 Fe5 Ni45'
_cell_volume   584.52036228
_cell_formula_units_Z   1
loop_
 _symmetry_equiv_pos_site_id
 _symmetry_equiv_pos_as_xyz
  1  'x, y, z'
loop_
 _atom_site_type_symbol
 _atom_site_label
 _atom_site_symmetry_multiplicity
 _atom_site_fract_x
 _atom_site_fract_y
 _atom_site_fract_z
 _atom_site_occupancy
  Ni  Ni0  1  1.00051802  0.00380818  0.00237177  1
  Ni  Ni1  1  0.16644578  0.16789006  0.16785757  1
  Ni  Ni2  1  1.00121173  0.00145591  0.33412815  1
  Ni  Ni3  1  0.00154502  0.33274435  0.00134100  1
  Ni  Ni4  1  0.16835422  0.50006177  0.16821387  1
  Ni  Ni5  1  0.00128051  0.33437454  0.33415506  1
  Cr  Cr6  1  1.00061173  0.66707193  0.00222652  1
  Ni  Ni7  1  0.16859913  0.83569297  0.16927997  1
  Ni  Ni8  1  1.00114834  0.66781396  0.33451803  1
  Ni  Ni9  1  0.33457920  0.00121769  0.00134021  1
  Cr  Cr10  1  0.50079403  0.16767154  0.16777527  1
  Ni  Ni11  1  0.33298503  0.99965058  0.33434220  1
  Ni  Ni12  1  0.33355711  0.33533976  1.00031106  1
  Ni  Ni13  1  0.50137847  0.50276406  0.16850247  1
  Ni  Ni14  1  0.33285096  0.33611518  0.33434311  1
  Ni  Ni15  1  0.33723960  0.66708749  0.00227063  1
  Ni  Ni16  1  0.50143683  0.83329512  0.16761388  1
  Ni  Ni17  1  0.33478758  0.66787982  0.33412813  1
  Ni  Ni18  1  0.66854806  1.00012632  1.00037672  1
  Ni  Ni19  1  0.83631015  0.16783168  0.16828843  1
  Ni  Ni20  1  0.66944888  0.99952028  0.33434185  1
  Ni  Ni21  1  0.66854418  0.33540507  1.00061534  1
  Ni  Ni22  1  0.83391306  0.50061088  0.16864366  1
  Ni  Ni23  1  0.66951594  0.33617916  0.33431674  1
  Ni  Ni24  1  0.66595368  0.66811496  0.00127552  1
  Ni  Ni25  1  0.83360903  0.83520285  0.16845691  1
  Ni  Ni26  1  0.66770883  0.66794894  0.33415637  1
  Ni  Ni27  1  0.16747638  0.16868695  0.50115734  1
  Ni  Ni28  1  1.00051333  0.00189175  0.66714554  1
  Ni  Ni29  1  0.16836465  0.16980861  0.83462964  1
  Ni  Ni30  1  0.16676342  0.50005506  0.50183237  1
  Ni  Ni31  1  0.00160917  0.33473069  0.66815046  1
  Ni  Ni32  1  0.16852918  0.49753941  0.83359934  1
  Fe  Fe33  1  0.16758365  0.83424900  0.50092502  1
  Ni  Ni34  1  1.00038324  0.66702236  0.66709287  1
  Cr  Cr35  1  0.16837448  0.83555519  0.83316025  1
  Cr  Cr36  1  0.50024884  0.16712774  0.50107179  1
  Ni  Ni37  1  0.33447334  1.00111163  0.66796111  1
  Fe  Fe38  1  0.50103372  0.16822309  0.83444845  1
  Fe  Fe39  1  0.50121919  0.50282597  0.50120048  1
  Ni  Ni40  1  0.33331325  0.33544498  0.66898961  1
  Ni  Ni41  1  0.50176718  0.50104697  0.83392828  1
  Ni  Ni42  1  0.50223577  0.83432674  0.50140125  1
  Ni  Ni43  1  0.33531758  0.66708770  0.66724516  1
  Ni  Ni44  1  0.50356841  0.83483798  0.83462960  1
  Fe  Fe45  1  0.83615794  0.16788641  0.50074345  1
  Ni  Ni46  1  0.66865853  0.99988749  0.66892716  1
  Fe  Fe47  1  0.83471974  0.16817607  0.83506351  1
  Ni  Ni48  1  0.83550164  0.50220059  0.50140069  1
  Ni  Ni49  1  0.66872536  0.33557647  0.66871383  1
  Ni  Ni50  1  0.83334885  0.50063383  0.83360047  1
  Ni  Ni51  1  0.83360389  0.83361325  0.50158855  1
  Ni  Ni52  1  0.66794406  0.66818433  0.66821265  1
  Ni  Ni53  1  0.83129903  0.83500360  0.83359963  1
" 