8825,Ni84Fe16_9,-230.891270223411, 170.330495468222,Ni84Fe16,"# generated using pymatgen
 data_Fe5Ni
_symmetry_space_group_name_H-M   'P 1'
_cell_length_a   7.40481880
_cell_length_b   7.40481880
_cell_length_c   10.47199517
_cell_angle_alpha   90.00000000
_cell_angle_beta   90.00000000
_cell_angle_gamma   90.00000000
_symmetry_Int_Tables_number   1
_chemical_formula_structural   Fe5Ni
_chemical_formula_sum   'Fe45 Ni9'
_cell_volume   574.19354221
_cell_formula_units_Z   9
loop_
 _symmetry_equiv_pos_site_id
 _symmetry_equiv_pos_as_xyz
  1  'x, y, z'
loop_
 _atom_site_type_symbol
 _atom_site_label
 _atom_site_symmetry_multiplicity
 _atom_site_fract_x
 _atom_site_fract_y
 _atom_site_fract_z
 _atom_site_occupancy
  Fe  Fe0  1  0.00426614  0.00461031  1.00419698  1
  Ni  Ni1  1  0.17247694  0.17041496  0.17043943  1
  Fe  Fe2  1  0.00464475  0.00438240  0.33754087  1
  Fe  Fe3  1  0.00449008  0.33739014  0.00456533  1
  Fe  Fe4  1  0.17109709  0.50281796  0.16991846  1
  Fe  Fe5  1  1.00412134  0.33753581  0.33707312  1
  Fe  Fe6  1  1.00385482  0.67060985  1.00383747  1
  Fe  Fe7  1  0.17087147  0.83805071  0.17122676  1
  Fe  Fe8  1  1.00385341  0.67069610  0.33726365  1
  Fe  Fe9  1  0.33845344  0.00563534  0.00464174  1
  Ni  Ni10  1  0.50281599  0.17041593  0.17193229  1
  Fe  Fe11  1  0.33735388  0.00463206  0.33710572  1
  Ni  Ni12  1  0.33699591  0.33797380  0.00429849  1
  Fe  Fe13  1  0.50388338  0.50290019  0.17146095  1
  Fe  Fe14  1  0.33779262  0.33719337  0.33678016  1
  Fe  Fe15  1  0.33777114  0.67066406  1.00384283  1
  Fe  Fe16  1  0.50446816  0.83831834  0.17078023  1
  Fe  Fe17  1  0.33779921  0.67077108  0.33815946  1
  Ni  Ni18  1  0.67140857  1.00387669  0.00429945  1
  Fe  Fe19  1  0.83735692  0.17116247  0.17087144  1
  Fe  Fe20  1  0.67060954  0.00437491  0.33677308  1
  Fe  Fe21  1  0.66994637  0.33671145  0.00457157  1
  Ni  Ni22  1  0.83774042  0.50564786  0.17086254  1
  Fe  Fe23  1  0.67069370  0.33798178  0.33753020  1
  Fe  Fe24  1  0.67098090  0.67089353  0.00429040  1
  Fe  Fe25  1  0.83727651  0.83846184  0.17000923  1
  Fe  Fe26  1  0.67095419  0.67025377  0.33771008  1
  Fe  Fe27  1  0.17128064  0.17137607  0.50351984  1
  Fe  Fe28  1  1.00394214  1.00385031  0.67085915  1
  Fe  Fe29  1  0.17098802  0.17117485  0.83821768  1
  Fe  Fe30  1  0.17149261  0.50428235  0.50497441  1
  Fe  Fe31  1  0.00446602  0.33780143  0.67095665  1
  Ni  Ni32  1  0.17065960  0.50430238  0.83743398  1
  Fe  Fe33  1  0.17154466  0.83694773  0.50411096  1
  Fe  Fe34  1  1.00419553  0.67095150  0.67149769  1
  Fe  Fe35  1  0.17084360  0.83741739  0.83726763  1
  Fe  Fe36  1  0.50429167  0.17139656  0.50429236  1
  Fe  Fe37  1  0.33770602  0.00447020  0.67085812  1
  Ni  Ni38  1  0.50378265  0.17066490  0.83689939  1
  Ni  Ni39  1  0.50419656  0.50398325  0.50420178  1
  Fe  Fe40  1  0.33779678  0.33780050  0.67172781  1
  Fe  Fe41  1  0.50380841  0.50407175  0.83694629  1
  Fe  Fe42  1  0.50411860  0.83682831  0.50411139  1
  Fe  Fe43  1  0.33745041  0.67033559  0.67060089  1
  Fe  Fe44  1  0.50450878  0.83774751  0.83771941  1
  Fe  Fe45  1  0.83703343  0.17145240  0.50429206  1
  Fe  Fe46  1  0.67095721  1.00419729  0.67208645  1
  Fe  Fe47  1  0.83731428  0.17047677  0.83744660  1
  Fe  Fe48  1  0.83691812  0.50410956  0.50342986  1
  Fe  Fe49  1  0.67033824  0.33754053  0.67050786  1
  Fe  Fe50  1  0.83764817  0.50422276  0.83804123  1
  Fe  Fe51  1  0.83694233  0.83704435  0.50488474  1
  Fe  Fe52  1  0.67096006  0.67086037  0.67060082  1
  Ni  Ni53  1  0.83774190  0.83722001  0.83743634  1
" 