2111,Ni85Cr15_12,-205.662817728889, 168.76564766556,Ni85Cr15,"# generated using pymatgen
 data_Cr5Ni
_symmetry_space_group_name_H-M   'P 1'
_cell_length_a   7.58443540
_cell_length_b   7.58443540
_cell_length_c   10.72601141
_cell_angle_alpha   90.00000000
_cell_angle_beta   90.00000000
_cell_angle_gamma   90.00000000
_symmetry_Int_Tables_number   1
_chemical_formula_structural   Cr5Ni
_chemical_formula_sum   'Cr45 Ni9'
_cell_volume   616.99943751
_cell_formula_units_Z   9
loop_
 _symmetry_equiv_pos_site_id
 _symmetry_equiv_pos_as_xyz
  1  'x, y, z'
loop_
 _atom_site_type_symbol
 _atom_site_label
 _atom_site_symmetry_multiplicity
 _atom_site_fract_x
 _atom_site_fract_y
 _atom_site_fract_z
 _atom_site_occupancy
  Cr  Cr0  1  0.99130516  0.98980004  0.99076954  1
  Cr  Cr1  1  0.15711420  0.16020964  0.15842884  1
  Cr  Cr2  1  -0.00671683  0.99087424  0.32581668  1
  Cr  Cr3  1  0.99090854  0.32582535  -0.00773107  1
  Cr  Cr4  1  0.15654743  0.49196188  0.16017119  1
  Ni  Ni5  1  0.98968783  0.32803210  0.32533126  1
  Cr  Cr6  1  0.99142588  0.66109714  0.98981319  1
  Cr  Cr7  1  0.15849776  0.82457114  0.16008149  1
  Ni  Ni8  1  0.99096548  0.65770586  0.32686686  1
  Cr  Cr9  1  0.32419454  0.99127131  -0.00622042  1
  Cr  Cr10  1  0.49286967  0.15842263  0.15896268  1
  Cr  Cr11  1  0.32537302  -0.00748073  0.32717777  1
  Cr  Cr12  1  0.32672520  0.32614700  -0.00772592  1
  Cr  Cr13  1  0.49393433  0.49407463  0.15955120  1
  Cr  Cr14  1  0.32781401  0.32432751  0.32646790  1
  Cr  Cr15  1  0.32443870  0.65942147  0.99120009  1
  Cr  Cr16  1  0.49358559  0.82427950  0.15942124  1
  Cr  Cr17  1  0.32480059  0.66006836  0.32671639  1
  Cr  Cr18  1  0.66135994  0.99163174  0.99153964  1
  Cr  Cr19  1  0.82677927  0.16063472  0.16041016  1
  Cr  Cr20  1  0.65808052  -0.00606183  0.32617217  1
  Cr  Cr21  1  0.65917760  0.32610512  -0.00717560  1
  Cr  Cr22  1  0.82630410  0.49254503  0.16361219  1
  Ni  Ni23  1  0.66020629  0.32695896  0.32664450  1
  Cr  Cr24  1  0.66101462  0.65902360  0.99164707  1
  Cr  Cr25  1  0.82475362  0.82351262  0.16071093  1
  Ni  Ni26  1  0.66160235  0.65607202  0.32530528  1
  Cr  Cr27  1  0.15805188  0.15918778  0.49160950  1
  Cr  Cr28  1  0.99123208  0.98900701  0.66023139  1
  Cr  Cr29  1  0.15911736  0.15812725  0.82676108  1
  Cr  Cr30  1  0.15602534  0.49332343  0.49108772  1
  Cr  Cr31  1  0.99155006  0.32618433  0.65913751  1
  Cr  Cr32  1  0.15938555  0.49223274  0.82547588  1
  Ni  Ni33  1  0.15743694  0.82429380  0.49102061  1
  Cr  Cr34  1  -0.00709918  0.66157111  0.66005358  1
  Ni  Ni35  1  0.15698485  0.82601311  0.82543914  1
  Ni  Ni36  1  0.49504244  0.15862453  0.49221043  1
  Cr  Cr37  1  0.32508254  0.99157990  0.65556616  1
  Cr  Cr38  1  0.49230601  0.15690199  0.82418924  1
  Cr  Cr39  1  0.49442126  0.49287846  0.49158714  1
  Cr  Cr40  1  0.32722442  0.32543471  0.65768084  1
  Cr  Cr41  1  0.49159659  0.49306197  0.82586721  1
  Cr  Cr42  1  0.49356906  0.82662386  0.49221986  1
  Cr  Cr43  1  0.32301854  0.66008906  0.65890386  1
  Cr  Cr44  1  0.49311573  0.82683367  0.82548666  1
  Cr  Cr45  1  0.82445571  0.15966870  0.49217645  1
  Ni  Ni46  1  0.65887471  0.99210532  0.65932112  1
  Cr  Cr47  1  0.82512434  0.15646361  0.82442195  1
  Cr  Cr48  1  0.82643059  0.49253012  0.48820369  1
  Cr  Cr49  1  0.65801287  0.32385488  0.65766927  1
  Cr  Cr50  1  0.82576947  0.49290026  0.82504612  1
  Cr  Cr51  1  0.82509491  0.82429663  0.49170654  1
  Cr  Cr52  1  0.66094061  0.66010448  0.66060779  1
  Ni  Ni53  1  0.82659450  0.82718486  0.82446259  1
" 