1414,Ni85Fe5Cr9_1,-236.299930332671, 174.102404952446,Ni85Fe5Cr9,"# generated using pymatgen
 data_Cr2FeNi15
_symmetry_space_group_name_H-M   'P 1'
_cell_length_a   7.45599643
_cell_length_b   7.45599643
_cell_length_c   10.54437128
_cell_angle_alpha   90.00000000
_cell_angle_beta   90.00000000
_cell_angle_gamma   90.00000000
_symmetry_Int_Tables_number   1
_chemical_formula_structural   Cr2FeNi15
_chemical_formula_sum   'Cr6 Fe3 Ni45'
_cell_volume   586.18145205
_cell_formula_units_Z   3
loop_
 _symmetry_equiv_pos_site_id
 _symmetry_equiv_pos_as_xyz
  1  'x, y, z'
loop_
 _atom_site_type_symbol
 _atom_site_label
 _atom_site_symmetry_multiplicity
 _atom_site_fract_x
 _atom_site_fract_y
 _atom_site_fract_z
 _atom_site_occupancy
  Cr  Cr0  1  0.00091921  1.00073268  0.00149738  1
  Ni  Ni1  1  0.16808781  0.16850931  0.16902348  1
  Ni  Ni2  1  0.99985102  0.00155548  0.33378875  1
  Ni  Ni3  1  0.00215297  0.33510143  1.00027561  1
  Ni  Ni4  1  0.16615591  0.50033700  0.16672425  1
  Ni  Ni5  1  1.00061535  0.33412033  0.33408124  1
  Ni  Ni6  1  1.00064187  0.66655108  1.00018105  1
  Ni  Ni7  1  0.16863245  0.83331309  0.16848363  1
  Ni  Ni8  1  0.99975416  0.66660939  0.33291473  1
  Ni  Ni9  1  0.33540149  0.00078651  0.00082615  1
  Ni  Ni10  1  0.49999110  0.16475336  0.16718026  1
  Ni  Ni11  1  0.33536578  0.00184789  0.33268254  1
  Ni  Ni12  1  0.33100209  0.33165424  1.00071731  1
  Cr  Cr13  1  0.49989747  0.50185066  0.16889064  1
  Ni  Ni14  1  0.33375960  0.33245481  0.33527430  1
  Ni  Ni15  1  0.33230771  0.66948890  1.00036977  1
  Ni  Ni16  1  0.50098237  0.83566618  0.16716815  1
  Ni  Ni17  1  0.33413800  0.66761105  0.33488465  1
  Ni  Ni18  1  0.66582215  0.99905032  1.00001114  1
  Ni  Ni19  1  0.83399588  0.16723182  0.16979911  1
  Ni  Ni20  1  0.66678755  0.00102571  0.33426512  1
  Cr  Cr21  1  0.66957114  0.33131701  0.00190629  1
  Ni  Ni22  1  0.83651593  0.50132973  0.16760655  1
  Ni  Ni23  1  0.66794531  0.33282692  0.33497583  1
  Ni  Ni24  1  0.66934632  0.67039950  0.00076888  1
  Ni  Ni25  1  0.83261413  0.83372786  0.16859632  1
  Ni  Ni26  1  0.66846397  0.66823207  0.33524392  1
  Ni  Ni27  1  0.16743075  0.16944512  0.50070734  1
  Ni  Ni28  1  1.00061872  0.00306378  0.66746272  1
  Ni  Ni29  1  0.16730347  0.16819929  0.83263990  1
  Ni  Ni30  1  0.16781283  0.49813788  0.50041167  1
  Ni  Ni31  1  1.00029016  0.33230571  0.66772517  1
  Ni  Ni32  1  0.16740011  0.49897233  0.83501052  1
  Cr  Cr33  1  0.16787228  0.83623303  0.49937216  1
  Cr  Cr34  1  1.00002300  0.66733223  0.66902550  1
  Ni  Ni35  1  0.16960360  0.83486314  0.83394784  1
  Ni  Ni36  1  0.50068803  0.16649752  0.50134388  1
  Ni  Ni37  1  0.33437718  0.00155500  0.66858018  1
  Fe  Fe38  1  0.50004225  0.16614212  0.83341037  1
  Fe  Fe39  1  0.50115053  0.50001557  0.50061012  1
  Ni  Ni40  1  0.33381441  0.33246654  0.66638760  1
  Cr  Cr41  1  0.49995430  0.50217258  0.83361493  1
  Ni  Ni42  1  0.50192073  0.83458966  0.50068772  1
  Ni  Ni43  1  0.33609300  0.66784491  0.66692422  1
  Ni  Ni44  1  0.50085865  0.83521248  0.83406974  1
  Ni  Ni45  1  0.83396143  0.16796135  0.50070591  1
  Fe  Fe46  1  0.66705891  0.00087683  0.66686030  1
  Ni  Ni47  1  0.83478842  0.16734440  0.83168035  1
  Ni  Ni48  1  0.83380071  0.49947679  0.50002454  1
  Ni  Ni49  1  0.66822740  0.33389929  0.66618475  1
  Ni  Ni50  1  0.83479030  0.49989819  0.83467036  1
  Ni  Ni51  1  0.83095271  0.83504503  0.50006594  1
  Ni  Ni52  1  0.66684153  0.66736567  0.66631655  1
  Ni  Ni53  1  0.83162493  0.83501827  0.83344170  1
" 