7582,Ni85Fe9Cr4_5,-238.37630779937, 183.173889185511,Ni85Fe9Cr4,"# generated using pymatgen
 data_Cr2Fe2Ni23
_symmetry_space_group_name_H-M   'P 1'
_cell_length_a   7.45046263
_cell_length_b   7.45046263
_cell_length_c   10.53654530
_cell_angle_alpha   90.00000000
_cell_angle_beta   90.00000000
_cell_angle_gamma   90.00000000
_symmetry_Int_Tables_number   1
_chemical_formula_structural   Cr2Fe2Ni23
_chemical_formula_sum   'Cr4 Fe4 Ni46'
_cell_volume   584.87723907
_cell_formula_units_Z   2
loop_
 _symmetry_equiv_pos_site_id
 _symmetry_equiv_pos_as_xyz
  1  'x, y, z'
loop_
 _atom_site_type_symbol
 _atom_site_label
 _atom_site_symmetry_multiplicity
 _atom_site_fract_x
 _atom_site_fract_y
 _atom_site_fract_z
 _atom_site_occupancy
  Ni  Ni0  1  0.00337834  1.00004366  0.00151456  1
  Ni  Ni1  1  0.16916058  0.16631743  0.16796476  1
  Ni  Ni2  1  0.00251752  0.00216346  0.33513145  1
  Ni  Ni3  1  1.00073154  0.33403034  0.99934778  1
  Cr  Cr4  1  0.16845562  0.50016108  0.16582237  1
  Ni  Ni5  1  0.00180189  0.33348366  0.33617124  1
  Ni  Ni6  1  0.99919686  0.66917260  1.00074731  1
  Ni  Ni7  1  0.16887410  0.83692947  0.16695485  1
  Cr  Cr8  1  0.99774905  0.66910865  0.33463225  1
  Ni  Ni9  1  0.33417526  0.00159354  0.00133587  1
  Ni  Ni10  1  0.49980211  0.16751381  0.16753254  1
  Ni  Ni11  1  0.33506446  0.00233010  0.33439158  1
  Ni  Ni12  1  0.33615087  0.33260856  0.00112623  1
  Ni  Ni13  1  0.50255844  0.50137375  0.16836223  1
  Fe  Fe14  1  0.33540403  0.33277957  0.33496377  1
  Ni  Ni15  1  0.33634000  0.66918215  1.00109986  1
  Ni  Ni16  1  0.50103951  0.83441932  0.16771062  1
  Fe  Fe17  1  0.33530231  0.67058397  0.33518607  1
  Fe  Fe18  1  0.66705280  1.00018523  1.00010980  1
  Cr  Cr19  1  0.83506013  0.16748512  0.16755723  1
  Ni  Ni20  1  0.66584435  0.99887997  0.33458530  1
  Ni  Ni21  1  0.66632049  0.33653444  1.00104370  1
  Ni  Ni22  1  0.83220492  0.50138729  0.16684883  1
  Fe  Fe23  1  0.66808100  0.33387504  0.33522025  1
  Ni  Ni24  1  0.66787979  0.66697089  0.00189197  1
  Ni  Ni25  1  0.83330060  0.83426634  0.16686506  1
  Ni  Ni26  1  0.66609301  0.66760830  0.33414244  1
  Ni  Ni27  1  0.16673863  0.16691190  0.49990274  1
  Ni  Ni28  1  0.00144285  0.00116659  0.66659823  1
  Ni  Ni29  1  0.16643404  0.16663106  0.83585922  1
  Ni  Ni30  1  0.16778683  0.50129653  0.50171985  1
  Ni  Ni31  1  0.99965136  0.33441828  0.66774451  1
  Ni  Ni32  1  0.16719145  0.50258448  0.83550565  1
  Ni  Ni33  1  0.16883471  0.83540248  0.50205109  1
  Ni  Ni34  1  1.00040410  0.66775446  0.66774389  1
  Ni  Ni35  1  0.16800938  0.83412381  0.83431335  1
  Ni  Ni36  1  0.50245877  0.16644135  0.50034028  1
  Ni  Ni37  1  0.33462962  1.00012339  0.66765572  1
  Ni  Ni38  1  0.50258413  0.16677322  0.83563358  1
  Ni  Ni39  1  0.50193187  0.50236097  0.49975670  1
  Cr  Cr40  1  0.33482885  0.33306404  0.66882928  1
  Ni  Ni41  1  0.50184385  0.50237431  0.83548553  1
  Ni  Ni42  1  0.50130109  0.83456127  0.50137383  1
  Ni  Ni43  1  0.33502666  0.66922788  0.66697460  1
  Ni  Ni44  1  0.50083506  0.83406966  0.83412321  1
  Ni  Ni45  1  0.83438668  0.16719668  0.50133019  1
  Ni  Ni46  1  0.66720629  1.00101828  0.66796814  1
  Ni  Ni47  1  0.83442944  0.16779602  0.83385773  1
  Ni  Ni48  1  0.83372102  0.50009314  0.50188676  1
  Ni  Ni49  1  0.66886951  0.33475788  0.66690341  1
  Ni  Ni50  1  0.83427726  0.50088182  0.83460784  1
  Ni  Ni51  1  0.83320565  0.83583408  0.50174336  1
  Ni  Ni52  1  0.66801120  0.66757412  0.66738309  1
  Ni  Ni53  1  0.83452298  0.83467746  0.83455118  1
" 