8810,Ni85Fe9Cr4_19,-238.29436993568, 183.075437267234,Ni85Fe9Cr4,"# generated using pymatgen
 data_Cr2Fe2Ni23
_symmetry_space_group_name_H-M   'P 1'
_cell_length_a   7.44946074
_cell_length_b   7.44946074
_cell_length_c   10.53512841
_cell_angle_alpha   90.00000000
_cell_angle_beta   90.00000000
_cell_angle_gamma   90.00000000
_symmetry_Int_Tables_number   1
_chemical_formula_structural   Cr2Fe2Ni23
_chemical_formula_sum   'Cr4 Fe4 Ni46'
_cell_volume   584.64131831
_cell_formula_units_Z   2
loop_
 _symmetry_equiv_pos_site_id
 _symmetry_equiv_pos_as_xyz
  1  'x, y, z'
loop_
 _atom_site_type_symbol
 _atom_site_label
 _atom_site_symmetry_multiplicity
 _atom_site_fract_x
 _atom_site_fract_y
 _atom_site_fract_z
 _atom_site_occupancy
  Ni  Ni0  1  0.00222590  1.00109941  0.00233092  1
  Ni  Ni1  1  0.16850372  0.16695728  0.16737928  1
  Ni  Ni2  1  1.00071362  1.00063877  0.33350733  1
  Ni  Ni3  1  0.00127555  0.33533878  0.00190965  1
  Ni  Ni4  1  0.16844654  0.50243265  0.16800435  1
  Cr  Cr5  1  1.00096870  0.33419029  0.33454434  1
  Ni  Ni6  1  1.00104093  0.66710247  0.00150822  1
  Ni  Ni7  1  0.16774584  0.83415178  0.16793308  1
  Ni  Ni8  1  0.00217373  0.66862836  0.33341340  1
  Ni  Ni9  1  0.33460727  1.00090109  1.00114234  1
  Ni  Ni10  1  0.50127153  0.16790637  0.16819661  1
  Ni  Ni11  1  0.33528495  0.00192154  0.33371086  1
  Fe  Fe12  1  0.33440228  0.33445418  1.00113037  1
  Ni  Ni13  1  0.50032132  0.50047641  0.16758298  1
  Ni  Ni14  1  0.33580031  0.33420820  0.33415021  1
  Ni  Ni15  1  0.33478959  0.66830427  0.00155746  1
  Ni  Ni16  1  0.50007265  0.83515775  0.16749869  1
  Ni  Ni17  1  0.33376169  0.66740972  0.33358989  1
  Ni  Ni18  1  0.66670812  1.00066590  0.00226716  1
  Ni  Ni19  1  0.83376600  0.16720478  0.16772142  1
  Ni  Ni20  1  0.66754247  0.00267927  0.33451412  1
  Ni  Ni21  1  0.66790873  0.33552245  0.00241588  1
  Ni  Ni22  1  0.83477292  0.50123422  0.16588369  1
  Ni  Ni23  1  0.66632321  0.33274917  0.33442388  1
  Ni  Ni24  1  0.66771083  0.66735272  1.00090400  1
  Ni  Ni25  1  0.83572333  0.83510247  0.16775017  1
  Cr  Cr26  1  0.66789751  0.66821376  0.33418388  1
  Ni  Ni27  1  0.16880730  0.16857265  0.50215749  1
  Ni  Ni28  1  0.00121835  0.00166504  0.66770354  1
  Ni  Ni29  1  0.16960506  0.16830692  0.83400492  1
  Fe  Fe30  1  0.16819003  0.50045028  0.50200981  1
  Ni  Ni31  1  0.00198933  0.33521950  0.66697448  1
  Ni  Ni32  1  0.16784546  0.50102489  0.83379541  1
  Cr  Cr33  1  0.16805950  0.83455084  0.50089070  1
  Ni  Ni34  1  0.99996823  0.66665589  0.66862032  1
  Fe  Fe35  1  0.16818134  0.83417867  0.83480126  1
  Ni  Ni36  1  0.50114054  0.16781346  0.50115710  1
  Ni  Ni37  1  0.33538059  0.00224798  0.66868826  1
  Ni  Ni38  1  0.49895493  0.16746750  0.83418771  1
  Fe  Fe39  1  0.50112456  0.49999228  0.50196263  1
  Ni  Ni40  1  0.33412497  0.33415017  0.66813030  1
  Ni  Ni41  1  0.50071603  0.50186371  0.83397828  1
  Ni  Ni42  1  0.50171728  0.83552038  0.50197460  1
  Ni  Ni43  1  0.33556216  0.66714103  0.66839392  1
  Ni  Ni44  1  0.50124964  0.83421055  0.83406849  1
  Ni  Ni45  1  0.83359303  0.16782087  0.50180629  1
  Ni  Ni46  1  0.66694244  1.00022754  0.66676070  1
  Cr  Cr47  1  0.83460586  0.16785586  0.83415109  1
  Ni  Ni48  1  0.83460311  0.50103416  0.50316967  1
  Ni  Ni49  1  0.66742701  0.33540147  0.66670254  1
  Ni  Ni50  1  0.83497940  0.50331829  0.83448903  1
  Ni  Ni51  1  0.83384455  0.83468602  0.50192572  1
  Ni  Ni52  1  0.66801204  0.66791183  0.66821862  1
  Ni  Ni53  1  0.83414031  0.83245040  0.83386520  1
" 