8668,Ni85Fe15_13,-230.794290769924, 170.533631307112,Ni85Fe15,"# generated using pymatgen
 data_Fe5Ni
_symmetry_space_group_name_H-M   'P 1'
_cell_length_a   7.40134471
_cell_length_b   7.40134471
_cell_length_c   10.46708206
_cell_angle_alpha   90.00000000
_cell_angle_beta   90.00000000
_cell_angle_gamma   90.00000000
_symmetry_Int_Tables_number   1
_chemical_formula_structural   Fe5Ni
_chemical_formula_sum   'Fe45 Ni9'
_cell_volume   573.38574494
_cell_formula_units_Z   9
loop_
 _symmetry_equiv_pos_site_id
 _symmetry_equiv_pos_as_xyz
  1  'x, y, z'
loop_
 _atom_site_type_symbol
 _atom_site_label
 _atom_site_symmetry_multiplicity
 _atom_site_fract_x
 _atom_site_fract_y
 _atom_site_fract_z
 _atom_site_occupancy
  Fe  Fe0  1  1.00424983  0.00514336  0.00514509  1
  Fe  Fe1  1  0.17135133  0.17143400  0.17077561  1
  Ni  Ni2  1  1.00414438  1.00413252  0.33787653  1
  Ni  Ni3  1  0.00565903  0.33819123  0.00484220  1
  Fe  Fe4  1  0.17167889  0.50386782  0.17099206  1
  Fe  Fe5  1  0.00460064  0.33753055  0.33772722  1
  Fe  Fe6  1  1.00419686  0.67086447  0.00451530  1
  Fe  Fe7  1  0.17146454  0.83801680  0.17206484  1
  Fe  Fe8  1  0.00468567  0.67200728  0.33818511  1
  Fe  Fe9  1  0.33796281  0.00580554  1.00442914  1
  Ni  Ni10  1  0.50450469  0.17242754  0.17029497  1
  Fe  Fe11  1  0.33719755  1.00443838  0.33802686  1
  Ni  Ni12  1  0.33695749  0.33858820  1.00434025  1
  Ni  Ni13  1  0.50410254  0.50261151  0.17059349  1
  Fe  Fe14  1  0.33763786  0.33747370  0.33698349  1
  Fe  Fe15  1  0.33793054  0.67028944  0.00451453  1
  Fe  Fe16  1  0.50534577  0.83792961  0.17077460  1
  Fe  Fe17  1  0.33689819  0.67140300  0.33827073  1
  Ni  Ni18  1  0.67110586  1.00339087  0.00485276  1
  Fe  Fe19  1  0.83698314  0.17082876  0.17094328  1
  Fe  Fe20  1  0.67167635  0.00452408  0.33673475  1
  Fe  Fe21  1  0.67053119  0.33727498  0.00484040  1
  Fe  Fe22  1  0.83689855  0.50422652  0.17086150  1
  Fe  Fe23  1  0.67107480  0.33722720  0.33753958  1
  Fe  Fe24  1  0.67119104  0.67050342  0.00484690  1
  Ni  Ni25  1  0.83872708  0.83827712  0.17081582  1
  Fe  Fe26  1  0.67173304  0.67156339  0.33727652  1
  Fe  Fe27  1  0.17077596  0.17086233  0.50427809  1
  Fe  Fe28  1  0.00468270  1.00410824  0.67023082  1
  Fe  Fe29  1  0.17102057  0.17167926  0.83826274  1
  Ni  Ni30  1  0.17110547  0.50524835  0.50483046  1
  Fe  Fe31  1  0.00451552  0.33810158  0.67148998  1
  Fe  Fe32  1  0.17102174  0.50386584  0.83771695  1
  Ni  Ni33  1  0.17030623  0.83707443  0.50482608  1
  Fe  Fe34  1  0.00492652  0.67110661  0.67061727  1
  Fe  Fe35  1  0.17118958  0.83777346  0.83697275  1
  Fe  Fe36  1  0.50335017  0.17110417  0.50406217  1
  Fe  Fe37  1  0.33761019  1.00411034  0.67085926  1
  Fe  Fe38  1  0.50443764  0.17093662  0.83864139  1
  Fe  Fe39  1  0.50340374  0.50506696  0.50397488  1
  Fe  Fe40  1  0.33769743  0.33801654  0.67140542  1
  Fe  Fe41  1  0.50419280  0.50436279  0.83839309  1
  Fe  Fe42  1  0.50331942  0.83714473  0.50477768  1
  Fe  Fe43  1  0.33728178  0.67118925  0.67053090  1
  Fe  Fe44  1  0.50476732  0.83801558  0.83776399  1
  Fe  Fe45  1  0.83918853  0.17094561  0.50436408  1
  Fe  Fe46  1  0.67102120  0.00452439  0.67181889  1
  Fe  Fe47  1  0.83785758  0.17110392  0.83801117  1
  Fe  Fe48  1  0.83880622  0.50489680  0.50469285  1
  Fe  Fe49  1  0.67110283  0.33777095  0.67093270  1
  Fe  Fe50  1  0.83810155  0.50419267  0.83776302  1
  Fe  Fe51  1  0.83904530  0.83747342  0.50364844  1
  Fe  Fe52  1  0.67110628  0.67102015  0.67119040  1
  Fe  Fe53  1  0.83735934  0.83801695  0.83856429  1
" 