2377,Ni85Fe14Cr0_9,-241.418188461719, 197.053062138328,Ni85Fe14Cr0,"# generated using pymatgen
 data_CrFe7Ni46
_symmetry_space_group_name_H-M   'P 1'
_cell_length_a   7.43444111
_cell_length_b   7.43444111
_cell_length_c   10.51388744
_cell_angle_alpha   90.00000000
_cell_angle_beta   90.00000000
_cell_angle_gamma   90.00000000
_symmetry_Int_Tables_number   1
_chemical_formula_structural   CrFe7Ni46
_chemical_formula_sum   'Cr1 Fe7 Ni46'
_cell_volume   581.11217464
_cell_formula_units_Z   1
loop_
 _symmetry_equiv_pos_site_id
 _symmetry_equiv_pos_as_xyz
  1  'x, y, z'
loop_
 _atom_site_type_symbol
 _atom_site_label
 _atom_site_symmetry_multiplicity
 _atom_site_fract_x
 _atom_site_fract_y
 _atom_site_fract_z
 _atom_site_occupancy
  Ni  Ni0  1  0.00240482  1.00022743  0.00241150  1
  Ni  Ni1  1  0.17010347  0.16730186  0.16964778  1
  Ni  Ni2  1  1.00194374  0.00270111  0.33495109  1
  Cr  Cr3  1  0.00234338  0.33521162  1.00183640  1
  Fe  Fe4  1  0.16958526  0.50280910  0.16955924  1
  Ni  Ni5  1  0.00265278  0.33534404  0.33565815  1
  Ni  Ni6  1  1.00101335  0.67074475  1.00214729  1
  Ni  Ni7  1  0.16869170  0.83606990  0.16838496  1
  Ni  Ni8  1  1.00130573  0.66853130  0.33549182  1
  Ni  Ni9  1  0.33583994  0.00292610  0.00246488  1
  Ni  Ni10  1  0.50148407  0.16968310  0.16878439  1
  Ni  Ni11  1  0.33586257  0.00281365  0.33538766  1
  Ni  Ni12  1  0.33746013  0.33448414  1.00191965  1
  Ni  Ni13  1  0.50287046  0.50189168  0.16807289  1
  Ni  Ni14  1  0.33499630  0.33507851  0.33549178  1
  Fe  Fe15  1  0.33581579  0.66964772  0.00219341  1
  Ni  Ni16  1  0.50158220  0.83500473  0.16961322  1
  Ni  Ni17  1  0.33623322  0.66868587  0.33517537  1
  Ni  Ni18  1  0.66833398  1.00157863  1.00176269  1
  Ni  Ni19  1  0.83499056  0.16859374  0.16982096  1
  Ni  Ni20  1  0.66877432  1.00146471  0.33559765  1
  Ni  Ni21  1  0.66676018  0.33587361  0.00272140  1
  Ni  Ni22  1  0.83392347  0.50330174  0.16987368  1
  Fe  Fe23  1  0.66887201  0.33558536  0.33556512  1
  Ni  Ni24  1  0.66945521  0.66912713  0.00223823  1
  Ni  Ni25  1  0.83630409  0.83468356  0.16855820  1
  Ni  Ni26  1  0.66904084  0.66939680  0.33538721  1
  Ni  Ni27  1  0.16951937  0.16796265  0.50246439  1
  Ni  Ni28  1  0.00278843  0.00249145  0.66921691  1
  Ni  Ni29  1  0.17031299  0.16818635  0.83446756  1
  Fe  Fe30  1  0.16844788  0.50167196  0.50266282  1
  Ni  Ni31  1  1.00193825  0.33518249  0.66904526  1
  Ni  Ni32  1  0.16918917  0.50316294  0.83437026  1
  Ni  Ni33  1  0.16845345  0.83593455  0.50241146  1
  Ni  Ni34  1  1.00139502  0.66890293  0.66893896  1
  Ni  Ni35  1  0.16890146  0.83523091  0.83578286  1
  Ni  Ni36  1  0.50134380  0.17011980  0.50192273  1
  Ni  Ni37  1  0.33497746  0.00260385  0.66872723  1
  Ni  Ni38  1  0.50169417  0.16907336  0.83587322  1
  Ni  Ni39  1  0.50273441  0.50165353  0.50272445  1
  Ni  Ni40  1  0.33561473  0.33486087  0.66916428  1
  Fe  Fe41  1  0.50239065  0.50192847  0.83524073  1
  Fe  Fe42  1  0.50246716  0.83569122  0.50194623  1
  Ni  Ni43  1  0.33604708  0.66911378  0.66920834  1
  Ni  Ni44  1  0.50173835  0.83571302  0.83508840  1
  Ni  Ni45  1  0.83571492  0.16931320  0.50219431  1
  Fe  Fe46  1  0.66905011  0.00249285  0.66910152  1
  Ni  Ni47  1  0.83457087  0.16878501  0.83456505  1
  Ni  Ni48  1  0.83458609  0.50272038  0.50224017  1
  Ni  Ni49  1  0.66902464  0.33625583  0.66890447  1
  Ni  Ni50  1  0.83505386  0.50320543  0.83446830  1
  Ni  Ni51  1  0.83674326  0.83454577  0.50214703  1
  Ni  Ni52  1  0.66913826  0.66826664  0.66895224  1
  Ni  Ni53  1  0.83593913  0.83458740  0.83587272  1
" 