7367,Ni85Fe5Cr9_16,-236.457085734281, 176.335263546528,Ni85Fe5Cr9,"# generated using pymatgen
 data_Cr2FeNi15
_symmetry_space_group_name_H-M   'P 1'
_cell_length_a   7.45527542
_cell_length_b   7.45527542
_cell_length_c   10.54335162
_cell_angle_alpha   90.00000000
_cell_angle_beta   90.00000000
_cell_angle_gamma   90.00000000
_symmetry_Int_Tables_number   1
_chemical_formula_structural   Cr2FeNi15
_chemical_formula_sum   'Cr6 Fe3 Ni45'
_cell_volume   586.01141416
_cell_formula_units_Z   3
loop_
 _symmetry_equiv_pos_site_id
 _symmetry_equiv_pos_as_xyz
  1  'x, y, z'
loop_
 _atom_site_type_symbol
 _atom_site_label
 _atom_site_symmetry_multiplicity
 _atom_site_fract_x
 _atom_site_fract_y
 _atom_site_fract_z
 _atom_site_occupancy
  Ni  Ni0  1  0.99911258  0.00087112  0.00119772  1
  Ni  Ni1  1  0.16592099  0.16748791  0.16742622  1
  Ni  Ni2  1  0.00308177  0.99906483  0.33338938  1
  Ni  Ni3  1  0.00206419  0.33358140  0.00152924  1
  Ni  Ni4  1  0.16778749  0.50140591  0.16652673  1
  Cr  Cr5  1  0.00110690  0.33437698  0.33396864  1
  Ni  Ni6  1  0.00083190  0.66791457  0.00184300  1
  Ni  Ni7  1  0.16614597  0.83347515  0.16876791  1
  Ni  Ni8  1  0.00101283  0.66902007  0.33412232  1
  Cr  Cr9  1  0.33347434  1.00065459  1.00002554  1
  Cr  Cr10  1  0.50061479  0.16890206  0.16803481  1
  Ni  Ni11  1  0.33175664  1.00008917  0.33528781  1
  Ni  Ni12  1  0.33304959  0.33608657  1.00027018  1
  Ni  Ni13  1  0.50132936  0.50194344  0.16732608  1
  Ni  Ni14  1  0.33488258  0.33483097  0.33455447  1
  Fe  Fe15  1  0.33390439  0.66591285  0.00099129  1
  Ni  Ni16  1  0.50114643  0.83110960  0.16773822  1
  Ni  Ni17  1  0.33436004  0.66744606  0.33345865  1
  Ni  Ni18  1  0.66977401  0.99965934  0.99965169  1
  Ni  Ni19  1  0.83560926  0.16767692  0.16560565  1
  Cr  Cr20  1  0.66796503  0.99950959  0.33424009  1
  Ni  Ni21  1  0.66725447  0.33435920  0.00111511  1
  Ni  Ni22  1  0.83324963  0.50171676  0.16705485  1
  Ni  Ni23  1  0.66596553  0.33688578  0.33479214  1
  Ni  Ni24  1  0.66727161  0.66835093  0.00214726  1
  Ni  Ni25  1  0.83507270  0.83297512  0.16621007  1
  Ni  Ni26  1  0.66699514  0.66588558  0.33388642  1
  Ni  Ni27  1  0.16847550  0.16589113  0.50058916  1
  Ni  Ni28  1  1.00073815  1.00058396  0.66777597  1
  Ni  Ni29  1  0.16665653  0.16775525  0.83435670  1
  Ni  Ni30  1  0.16682621  0.50190809  0.50095109  1
  Ni  Ni31  1  1.00020216  0.33350667  0.66707488  1
  Ni  Ni32  1  0.16770213  0.50123049  0.83489766  1
  Ni  Ni33  1  0.16723988  0.83457110  0.50077079  1
  Ni  Ni34  1  0.00145489  0.66827422  0.66640403  1
  Ni  Ni35  1  0.16718356  0.83338523  0.83283254  1
  Ni  Ni36  1  0.50022094  0.16771474  0.50071874  1
  Ni  Ni37  1  0.33428168  0.99915733  0.66701371  1
  Ni  Ni38  1  0.50225145  0.16671038  0.83398969  1
  Ni  Ni39  1  0.50247393  0.50069608  0.49996634  1
  Cr  Cr40  1  0.33358470  0.33412689  0.66766493  1
  Fe  Fe41  1  0.50017156  0.50133096  0.83482551  1
  Ni  Ni42  1  0.50023773  0.83395980  0.50161474  1
  Ni  Ni43  1  0.33402928  0.66924256  0.66815429  1
  Ni  Ni44  1  0.50154109  0.83461896  0.83301413  1
  Fe  Fe45  1  0.83407407  0.16755253  0.50256970  1
  Ni  Ni46  1  0.66735030  1.00040184  0.66828811  1
  Ni  Ni47  1  0.83345813  0.16620434  0.83393027  1
  Ni  Ni48  1  0.83306597  0.50192525  0.50137997  1
  Ni  Ni49  1  0.66831971  0.33325170  0.66645301  1
  Cr  Cr50  1  0.83493568  0.50076824  0.83374394  1
  Ni  Ni51  1  0.83489120  0.83230475  0.50174951  1
  Ni  Ni52  1  0.66688444  0.66871335  0.66633171  1
  Ni  Ni53  1  0.83364308  0.83565580  0.83441149  1
" 