5425,Ni85Fe5Cr9_19,-236.349869416381, 172.4774023365,Ni85Fe5Cr9,"# generated using pymatgen
 data_Cr2FeNi15
_symmetry_space_group_name_H-M   'P 1'
_cell_length_a   7.45643062
_cell_length_b   7.45643062
_cell_length_c   10.54498531
_cell_angle_alpha   90.00000000
_cell_angle_beta   90.00000000
_cell_angle_gamma   90.00000000
_symmetry_Int_Tables_number   1
_chemical_formula_structural   Cr2FeNi15
_chemical_formula_sum   'Cr6 Fe3 Ni45'
_cell_volume   586.28386344
_cell_formula_units_Z   3
loop_
 _symmetry_equiv_pos_site_id
 _symmetry_equiv_pos_as_xyz
  1  'x, y, z'
loop_
 _atom_site_type_symbol
 _atom_site_label
 _atom_site_symmetry_multiplicity
 _atom_site_fract_x
 _atom_site_fract_y
 _atom_site_fract_z
 _atom_site_occupancy
  Ni  Ni0  1  0.00208820  0.00228615  0.99988824  1
  Ni  Ni1  1  0.16832865  0.16731077  0.16766788  1
  Ni  Ni2  1  0.00358964  0.00223273  0.33534268  1
  Ni  Ni3  1  0.00112320  0.33430901  0.00108300  1
  Ni  Ni4  1  0.16694251  0.50142568  0.16717869  1
  Ni  Ni5  1  1.00046446  0.33445724  0.33358518  1
  Ni  Ni6  1  0.00232847  0.66558150  0.99988259  1
  Ni  Ni7  1  0.16850714  0.83355792  0.16728899  1
  Ni  Ni8  1  0.00244137  0.66546290  0.33491957  1
  Ni  Ni9  1  0.33422452  1.00059610  0.00095775  1
  Ni  Ni10  1  0.49948476  0.16888851  0.16616877  1
  Ni  Ni11  1  0.33187203  0.99892287  0.33300680  1
  Ni  Ni12  1  0.33365738  0.33417159  0.00110105  1
  Fe  Fe13  1  0.50050249  0.50017247  0.16683436  1
  Fe  Fe14  1  0.33292216  0.33509193  0.33285383  1
  Ni  Ni15  1  0.33367947  0.66736588  1.00055894  1
  Fe  Fe16  1  0.49901712  0.83328878  0.16640253  1
  Ni  Ni17  1  0.33374897  0.66785581  0.33391573  1
  Ni  Ni18  1  0.66570775  0.00189865  1.00022442  1
  Ni  Ni19  1  0.83422201  0.16965413  0.16647821  1
  Cr  Cr20  1  0.66612168  0.00109801  0.33361194  1
  Ni  Ni21  1  0.66726023  0.33392400  1.00057590  1
  Ni  Ni22  1  0.83401139  0.50004291  0.16727837  1
  Ni  Ni23  1  0.66876650  0.33627635  0.33317462  1
  Ni  Ni24  1  0.66582989  0.66622760  0.99985078  1
  Cr  Cr25  1  0.83688494  0.83174926  0.16606258  1
  Ni  Ni26  1  0.66566139  0.66422992  0.33520897  1
  Ni  Ni27  1  0.16739563  0.16666152  0.49943326  1
  Ni  Ni28  1  0.00282527  0.00122297  0.66674088  1
  Ni  Ni29  1  0.16935591  0.16653740  0.83506206  1
  Ni  Ni30  1  0.16965455  0.50082860  0.49877043  1
  Cr  Cr31  1  1.00059918  0.33326020  0.66824609  1
  Ni  Ni32  1  0.17001055  0.50081625  0.83636219  1
  Ni  Ni33  1  0.16836214  0.83456226  0.49972015  1
  Cr  Cr34  1  0.00151873  0.66786110  0.66771558  1
  Ni  Ni35  1  0.16810962  0.83482979  0.83521279  1
  Cr  Cr36  1  0.49774883  0.17035197  0.50216070  1
  Ni  Ni37  1  0.33192343  0.99911773  0.66827823  1
  Ni  Ni38  1  0.49924112  0.16879022  0.83472461  1
  Ni  Ni39  1  0.50053670  0.50210415  0.50032943  1
  Ni  Ni40  1  0.33388770  0.33573822  0.66782478  1
  Ni  Ni41  1  0.50044596  0.50026416  0.83401312  1
  Ni  Ni42  1  0.49841230  0.83099693  0.50011245  1
  Ni  Ni43  1  0.33559298  0.66736789  0.66742089  1
  Ni  Ni44  1  0.49971885  0.83300613  0.83545191  1
  Ni  Ni45  1  0.83584173  0.16871336  0.49924332  1
  Cr  Cr46  1  0.66874090  0.99927382  0.66834003  1
  Ni  Ni47  1  0.83365265  0.16726511  0.83653089  1
  Ni  Ni48  1  0.83215066  0.50114586  0.49864152  1
  Ni  Ni49  1  0.66711024  0.33670572  0.66831402  1
  Ni  Ni50  1  0.83167864  0.50146248  0.83652224  1
  Ni  Ni51  1  0.83524338  0.83232332  0.49949049  1
  Ni  Ni52  1  0.66510383  0.66562090  0.66673636  1
  Ni  Ni53  1  0.83419470  0.83353779  0.83594370  1
" 