589,Ni85Cr15_17,-205.376677576378, 166.355159319432,Ni85Cr15,"# generated using pymatgen
 data_Cr5Ni
_symmetry_space_group_name_H-M   'P 1'
_cell_length_a   7.59088500
_cell_length_b   7.59088500
_cell_length_c   10.73513251
_cell_angle_alpha   90.00000000
_cell_angle_beta   90.00000000
_cell_angle_gamma   90.00000000
_symmetry_Int_Tables_number   1
_chemical_formula_structural   Cr5Ni
_chemical_formula_sum   'Cr45 Ni9'
_cell_volume   618.57481407
_cell_formula_units_Z   9
loop_
 _symmetry_equiv_pos_site_id
 _symmetry_equiv_pos_as_xyz
  1  'x, y, z'
loop_
 _atom_site_type_symbol
 _atom_site_label
 _atom_site_symmetry_multiplicity
 _atom_site_fract_x
 _atom_site_fract_y
 _atom_site_fract_z
 _atom_site_occupancy
  Cr  Cr0  1  -0.00732201  -0.00787667  -0.00775382  1
  Cr  Cr1  1  0.15772853  0.16107318  0.15942978  1
  Cr  Cr2  1  -0.00771885  0.99167917  0.32534545  1
  Ni  Ni3  1  -0.00777164  0.32611148  -0.00765148  1
  Cr  Cr4  1  0.15714657  0.48891913  0.15955389  1
  Ni  Ni5  1  -0.00587156  0.32613031  0.32454460  1
  Cr  Cr6  1  -0.00624851  0.65766629  0.99082247  1
  Cr  Cr7  1  0.15816139  0.82532738  0.15817733  1
  Cr  Cr8  1  -0.00704250  0.65816121  0.32670186  1
  Cr  Cr9  1  0.32468239  0.99119885  -0.00723354  1
  Cr  Cr10  1  0.49059516  0.15963197  0.15976487  1
  Cr  Cr11  1  0.32464784  0.99136175  0.32395815  1
  Cr  Cr12  1  0.32475088  0.32633083  -0.00774691  1
  Cr  Cr13  1  0.49325783  0.49245747  0.15962787  1
  Ni  Ni14  1  0.32263280  0.32565465  0.32549558  1
  Cr  Cr15  1  0.32550406  0.65794091  -0.00716611  1
  Cr  Cr16  1  0.49439618  0.82348710  0.15800944  1
  Cr  Cr17  1  0.32518906  0.65711427  0.32385043  1
  Cr  Cr18  1  0.65807347  -0.00745501  0.99128011  1
  Cr  Cr19  1  0.82710563  0.16072768  0.15826679  1
  Cr  Cr20  1  0.65857438  0.99173004  0.32635583  1
  Cr  Cr21  1  0.65825092  0.32636503  0.98921227  1
  Cr  Cr22  1  0.82539654  0.49201285  0.15815198  1
  Cr  Cr23  1  0.65763069  0.32611551  0.32736833  1
  Ni  Ni24  1  0.65903296  0.65793935  -0.00767217  1
  Cr  Cr25  1  0.82327021  0.82303685  0.15851511  1
  Ni  Ni26  1  0.65856121  0.65746724  0.32467475  1
  Cr  Cr27  1  0.15978003  0.16026966  0.49106405  1
  Cr  Cr28  1  0.99174751  0.99072099  0.65796066  1
  Cr  Cr29  1  0.15914548  0.15961279  0.82505016  1
  Cr  Cr30  1  0.15920673  0.49049980  0.49308719  1
  Cr  Cr31  1  0.99057214  0.32657765  0.65884158  1
  Cr  Cr32  1  0.15861340  0.49107662  0.82312883  1
  Cr  Cr33  1  0.15996314  0.82461639  0.49593747  1
  Ni  Ni34  1  -0.00508580  0.65767932  0.65857381  1
  Cr  Cr35  1  0.15993983  0.82485608  0.82148614  1
  Cr  Cr36  1  0.48796269  0.15904282  0.49351845  1
  Ni  Ni37  1  0.32461261  0.99177143  0.65855077  1
  Cr  Cr38  1  0.48881407  0.15797462  0.82230867  1
  Cr  Cr39  1  0.48931774  0.49217097  0.49151401  1
  Ni  Ni40  1  0.32365834  0.32591454  0.65813198  1
  Cr  Cr41  1  0.49041183  0.49340419  0.82419120  1
  Cr  Cr42  1  0.49110058  0.82410415  0.49239212  1
  Ni  Ni43  1  0.32353597  0.65782721  0.65861422  1
  Cr  Cr44  1  0.49130019  0.82430338  0.82480484  1
  Cr  Cr45  1  0.82713745  0.15980949  0.49017598  1
  Cr  Cr46  1  0.65858083  -0.00645914  0.65785899  1
  Cr  Cr47  1  0.82688133  0.15930646  0.82713094  1
  Cr  Cr48  1  0.82684038  0.49284988  0.49037414  1
  Cr  Cr49  1  0.65718412  0.32516026  0.65895329  1
  Cr  Cr50  1  0.82657010  0.49312637  0.82704257  1
  Cr  Cr51  1  0.82486116  0.82290040  0.49160932  1
  Cr  Cr52  1  0.65933736  0.65685035  0.65793225  1
  Cr  Cr53  1  0.82492030  0.82324764  0.82540661  1
" 