8989,Ni85Cr15_4,-205.734139161831, 168.717177561667,Ni85Cr15,"# generated using pymatgen
 data_Cr5Ni
_symmetry_space_group_name_H-M   'P 1'
_cell_length_a   7.58593146
_cell_length_b   7.58593146
_cell_length_c   10.72812715
_cell_angle_alpha   90.00000000
_cell_angle_beta   90.00000000
_cell_angle_gamma   90.00000000
_symmetry_Int_Tables_number   1
_chemical_formula_structural   Cr5Ni
_chemical_formula_sum   'Cr45 Ni9'
_cell_volume   617.36462576
_cell_formula_units_Z   9
loop_
 _symmetry_equiv_pos_site_id
 _symmetry_equiv_pos_as_xyz
  1  'x, y, z'
loop_
 _atom_site_type_symbol
 _atom_site_label
 _atom_site_symmetry_multiplicity
 _atom_site_fract_x
 _atom_site_fract_y
 _atom_site_fract_z
 _atom_site_occupancy
  Cr  Cr0  1  -0.00772403  -0.00750262  -0.00683293  1
  Cr  Cr1  1  0.15885435  0.15997902  0.15893508  1
  Cr  Cr2  1  0.98956885  0.99121029  0.32516315  1
  Cr  Cr3  1  0.99005556  0.32527715  0.99134071  1
  Cr  Cr4  1  0.16102881  0.49130246  0.16039089  1
  Cr  Cr5  1  -0.00723326  0.32501124  0.32476879  1
  Cr  Cr6  1  0.99172124  0.65872048  0.99150646  1
  Cr  Cr7  1  0.15887907  0.82520944  0.15782797  1
  Cr  Cr8  1  0.99171907  0.66027294  0.32660887  1
  Cr  Cr9  1  0.32538192  -0.00749413  0.99137203  1
  Ni  Ni10  1  0.49388135  0.16073404  0.16072001  1
  Cr  Cr11  1  0.32757271  -0.00497342  0.32605805  1
  Cr  Cr12  1  0.32760611  0.32527236  -0.00568703  1
  Ni  Ni13  1  0.49107989  0.48929058  0.15944385  1
  Ni  Ni14  1  0.32839774  0.32461574  0.32464074  1
  Cr  Cr15  1  0.32593555  0.65871343  -0.00739306  1
  Cr  Cr16  1  0.49320315  0.82574659  0.15837343  1
  Cr  Cr17  1  0.32542874  0.65645014  0.32461128  1
  Cr  Cr18  1  0.65883278  -0.00583137  -0.00624485  1
  Ni  Ni19  1  0.82271439  0.15799184  0.15938346  1
  Ni  Ni20  1  0.65871998  -0.00604272  0.32556067  1
  Cr  Cr21  1  0.65883041  0.32583167  -0.00662931  1
  Cr  Cr22  1  0.82446668  0.49080036  0.15800904  1
  Cr  Cr23  1  0.65553577  0.32286960  0.32328719  1
  Cr  Cr24  1  0.65883744  0.65649262  0.99115974  1
  Cr  Cr25  1  0.82440842  0.82792087  0.16020805  1
  Cr  Cr26  1  0.65934895  0.65964908  0.32606009  1
  Cr  Cr27  1  0.15987578  0.16111709  0.49316995  1
  Cr  Cr28  1  -0.00772051  -0.00762300  0.65816676  1
  Cr  Cr29  1  0.15767794  0.15965683  0.82438556  1
  Cr  Cr30  1  0.15882794  0.49016529  0.49171400  1
  Ni  Ni31  1  0.99139419  0.32660627  0.66024589  1
  Cr  Cr32  1  0.15662777  0.49093476  0.82438700  1
  Cr  Cr33  1  0.15778067  0.82520902  0.49204750  1
  Cr  Cr34  1  0.99062045  0.65773921  0.65838020  1
  Cr  Cr35  1  0.15989902  0.82590030  0.82661721  1
  Ni  Ni36  1  0.49209005  0.15826690  0.49033284  1
  Cr  Cr37  1  0.32589365  -0.00702008  0.65906028  1
  Cr  Cr38  1  0.49210300  0.15798508  0.82493811  1
  Cr  Cr39  1  0.49099658  0.49077686  0.49111931  1
  Cr  Cr40  1  0.32540596  0.32416865  0.65745064  1
  Cr  Cr41  1  0.49371075  0.49316015  0.82587662  1
  Cr  Cr42  1  0.49481752  0.82736302  0.49239732  1
  Cr  Cr43  1  0.32534263  0.65934503  0.65927502  1
  Cr  Cr44  1  0.49210768  0.82534720  0.82572041  1
  Cr  Cr45  1  0.82451143  0.15730186  0.49222925  1
  Cr  Cr46  1  0.65832070  -0.00756326  0.65667790  1
  Cr  Cr47  1  0.82671284  0.16125996  0.82532556  1
  Cr  Cr48  1  0.82666716  0.49287758  0.49409680  1
  Cr  Cr49  1  0.65992960  0.32583129  0.65983655  1
  Ni  Ni50  1  0.82670223  0.49148991  0.82448097  1
  Ni  Ni51  1  0.82450160  0.82652965  0.49133936  1
  Cr  Cr52  1  0.66053131  0.65822641  0.65927588  1
  Cr  Cr53  1  0.82448662  0.82429653  0.82567693  1
" 