150,Ni85Fe14Cr0_11,-241.400942701592, 197.149277937063,Ni85Fe14Cr0,"# generated using pymatgen
 data_CrFe7Ni46
_symmetry_space_group_name_H-M   'P 1'
_cell_length_a   7.43492273
_cell_length_b   7.43492273
_cell_length_c   10.51456855
_cell_angle_alpha   90.00000000
_cell_angle_beta   90.00000000
_cell_angle_gamma   90.00000000
_symmetry_Int_Tables_number   1
_chemical_formula_structural   CrFe7Ni46
_chemical_formula_sum   'Cr1 Fe7 Ni46'
_cell_volume   581.22511905
_cell_formula_units_Z   1
loop_
 _symmetry_equiv_pos_site_id
 _symmetry_equiv_pos_as_xyz
  1  'x, y, z'
loop_
 _atom_site_type_symbol
 _atom_site_label
 _atom_site_symmetry_multiplicity
 _atom_site_fract_x
 _atom_site_fract_y
 _atom_site_fract_z
 _atom_site_occupancy
  Ni  Ni0  1  0.00239969  0.00267986  0.00229618  1
  Ni  Ni1  1  0.16945700  0.16943841  0.16871835  1
  Ni  Ni2  1  0.00276976  0.00340110  0.33590711  1
  Ni  Ni3  1  1.00211447  0.33540254  1.00212831  1
  Ni  Ni4  1  0.16894876  0.50219173  0.16828502  1
  Ni  Ni5  1  1.00061681  0.33394346  0.33463025  1
  Ni  Ni6  1  0.00239575  0.66840463  0.00284978  1
  Fe  Fe7  1  0.16856274  0.83568262  0.16864425  1
  Fe  Fe8  1  1.00047485  0.67000537  0.33480577  1
  Ni  Ni9  1  0.33521317  1.00211525  0.00225369  1
  Ni  Ni10  1  0.50199471  0.16865893  0.16855767  1
  Ni  Ni11  1  0.33473715  1.00124443  0.33589798  1
  Ni  Ni12  1  0.33516541  0.33563302  0.00284330  1
  Ni  Ni13  1  0.50177773  0.50223213  0.16871924  1
  Fe  Fe14  1  0.33666281  0.33380923  0.33418456  1
  Ni  Ni15  1  0.33544626  0.66873027  1.00202568  1
  Fe  Fe16  1  0.50267994  0.83533500  0.16887618  1
  Ni  Ni17  1  0.33690280  0.67022981  0.33473264  1
  Ni  Ni18  1  0.66887080  0.00239438  0.00263039  1
  Ni  Ni19  1  0.83503328  0.16844553  0.16882783  1
  Ni  Ni20  1  0.66897294  0.00229332  0.33558917  1
  Ni  Ni21  1  0.66920023  0.33563723  0.00245688  1
  Ni  Ni22  1  0.83575487  0.50296094  0.16899791  1
  Ni  Ni23  1  0.67006659  0.33611267  0.33569864  1
  Ni  Ni24  1  0.66863959  0.66844876  0.00239373  1
  Ni  Ni25  1  0.83497915  0.83507777  0.16833921  1
  Ni  Ni26  1  0.66790975  0.66807349  0.33580382  1
  Ni  Ni27  1  0.16945987  0.16719894  0.50257526  1
  Ni  Ni28  1  0.00275631  0.00253385  0.66827800  1
  Ni  Ni29  1  0.16929992  0.16913856  0.83518556  1
  Cr  Cr30  1  0.16785604  0.50227485  0.50252186  1
  Ni  Ni31  1  1.00130113  0.33450548  0.66972070  1
  Ni  Ni32  1  0.16790554  0.50279464  0.83585843  1
  Ni  Ni33  1  0.16955983  0.83670051  0.50207798  1
  Ni  Ni34  1  1.00163671  0.66944741  0.66890077  1
  Ni  Ni35  1  0.17011729  0.83454735  0.83540480  1
  Ni  Ni36  1  0.50238740  0.16748047  0.50224361  1
  Ni  Ni37  1  0.33491470  1.00191411  0.66832701  1
  Ni  Ni38  1  0.50232500  0.16753482  0.83567798  1
  Fe  Fe39  1  0.50428160  0.50252470  0.50182240  1
  Ni  Ni40  1  0.33593512  0.33468594  0.66899847  1
  Fe  Fe41  1  0.50160800  0.50172493  0.83596020  1
  Ni  Ni42  1  0.50233451  0.83636602  0.50175488  1
  Ni  Ni43  1  0.33621507  0.66987590  0.66971885  1
  Ni  Ni44  1  0.50151380  0.83614658  0.83589772  1
  Ni  Ni45  1  0.83463917  0.16891575  0.50197395  1
  Ni  Ni46  1  0.66881435  0.00225113  0.66826509  1
  Ni  Ni47  1  0.83485535  0.16975141  0.83567887  1
  Ni  Ni48  1  0.83429979  0.50252792  0.50174074  1
  Ni  Ni49  1  0.66924868  0.33580513  0.66832455  1
  Ni  Ni50  1  0.83645978  0.50198463  0.83574231  1
  Ni  Ni51  1  0.83458506  0.83504079  0.50302034  1
  Ni  Ni52  1  0.66863120  0.66842478  0.66828603  1
  Fe  Fe53  1  0.83597360  0.83598333  0.83561192  1
" 