2442,Ni85Fe12Cr2_16,-239.732413962819, 190.677809675861,Ni85Fe12Cr2,"# generated using pymatgen
 data_CrFe2Ni15
_symmetry_space_group_name_H-M   'P 1'
_cell_length_a   7.44232145
_cell_length_b   7.44232145
_cell_length_c   10.52503194
_cell_angle_alpha   90.00000000
_cell_angle_beta   90.00000000
_cell_angle_gamma   90.00000000
_symmetry_Int_Tables_number   1
_chemical_formula_structural   CrFe2Ni15
_chemical_formula_sum   'Cr3 Fe6 Ni45'
_cell_volume   582.96203312
_cell_formula_units_Z   3
loop_
 _symmetry_equiv_pos_site_id
 _symmetry_equiv_pos_as_xyz
  1  'x, y, z'
loop_
 _atom_site_type_symbol
 _atom_site_label
 _atom_site_symmetry_multiplicity
 _atom_site_fract_x
 _atom_site_fract_y
 _atom_site_fract_z
 _atom_site_occupancy
  Ni  Ni0  1  0.00274556  0.00189829  1.00117309  1
  Ni  Ni1  1  0.16657278  0.16744855  0.16830197  1
  Ni  Ni2  1  0.00220735  0.00174859  0.33512918  1
  Ni  Ni3  1  1.00139717  0.33412165  1.00083125  1
  Fe  Fe4  1  0.16802138  0.50197050  0.16784961  1
  Ni  Ni5  1  1.00155657  0.33449855  0.33520071  1
  Ni  Ni6  1  1.00112528  0.66896254  1.00158514  1
  Ni  Ni7  1  0.16829314  0.83556250  0.16824126  1
  Ni  Ni8  1  1.00135111  0.66873669  0.33464875  1
  Ni  Ni9  1  0.33247375  1.00024493  1.00156313  1
  Cr  Cr10  1  0.50121228  0.16878330  0.16880943  1
  Ni  Ni11  1  0.33396112  1.00112546  0.33589101  1
  Ni  Ni12  1  0.33389115  0.33584413  1.00138272  1
  Ni  Ni13  1  0.50253635  0.50341718  0.16830175  1
  Ni  Ni14  1  0.33461293  0.33512233  0.33579244  1
  Ni  Ni15  1  0.33581818  0.66889426  1.00062583  1
  Ni  Ni16  1  0.50084752  0.83269687  0.16835662  1
  Ni  Ni17  1  0.33544106  0.66873473  0.33540670  1
  Fe  Fe18  1  0.67011636  0.99980809  1.00160119  1
  Ni  Ni19  1  0.83729371  0.16913791  0.16835688  1
  Ni  Ni20  1  0.66881584  1.00091975  0.33599945  1
  Ni  Ni21  1  0.66969394  0.33746686  1.00137980  1
  Ni  Ni22  1  0.83442793  0.50169717  0.16824147  1
  Ni  Ni23  1  0.66881391  0.33597885  0.33607371  1
  Ni  Ni24  1  0.66804111  0.66754739  1.00137792  1
  Ni  Ni25  1  0.83584500  0.83414701  0.16904944  1
  Ni  Ni26  1  0.66819058  0.66808404  0.33492382  1
  Ni  Ni27  1  0.16760768  0.16793233  0.50072444  1
  Ni  Ni28  1  1.00042920  1.00091537  0.66868128  1
  Ni  Ni29  1  0.16579419  0.16880309  0.83595479  1
  Fe  Fe30  1  0.16886393  0.50119473  0.50168190  1
  Fe  Fe31  1  1.00055782  0.33448679  0.66860775  1
  Ni  Ni32  1  0.16827390  0.50197369  0.83475223  1
  Ni  Ni33  1  0.16817224  0.83503297  0.50072648  1
  Ni  Ni34  1  1.00066061  0.66906840  0.66874818  1
  Ni  Ni35  1  0.16738491  0.83420730  0.83601510  1
  Ni  Ni36  1  0.50231428  0.16935562  0.50051516  1
  Cr  Cr37  1  0.33385046  0.00200521  0.66769717  1
  Cr  Cr38  1  0.50240581  0.16931556  0.83601361  1
  Ni  Ni39  1  0.50263895  0.50154182  0.50182148  1
  Ni  Ni40  1  0.33512301  0.33665122  0.66780744  1
  Ni  Ni41  1  0.50177040  0.50335593  0.83485750  1
  Ni  Ni42  1  0.50127345  0.83408604  0.50050379  1
  Fe  Fe43  1  0.33580606  0.66729273  0.66860650  1
  Ni  Ni44  1  0.50201494  0.83217256  0.83612497  1
  Ni  Ni45  1  0.83505941  0.16930084  0.50159841  1
  Ni  Ni46  1  0.67084817  1.00091896  0.66803001  1
  Ni  Ni47  1  0.83697354  0.16856209  0.83502910  1
  Ni  Ni48  1  0.83411262  0.50097616  0.50156416  1
  Ni  Ni49  1  0.66816133  0.33641328  0.66753053  1
  Ni  Ni50  1  0.83493795  0.50176385  0.83517653  1
  Fe  Fe51  1  0.83457670  0.83547671  0.50183196  1
  Ni  Ni52  1  0.66920125  0.66764741  0.66868246  1
  Ni  Ni53  1  0.83558816  0.83465525  0.83432684  1
" 