8473,Ni85Fe12Cr2_2,-239.394419647394, 189.9818084472,Ni85Fe12Cr2,"# generated using pymatgen
 data_CrFe2Ni15
_symmetry_space_group_name_H-M   'P 1'
_cell_length_a   7.44095816
_cell_length_b   7.44095816
_cell_length_c   10.52310395
_cell_angle_alpha   90.00000000
_cell_angle_beta   90.00000000
_cell_angle_gamma   90.00000000
_symmetry_Int_Tables_number   1
_chemical_formula_structural   CrFe2Ni15
_chemical_formula_sum   'Cr3 Fe6 Ni45'
_cell_volume   582.64172881
_cell_formula_units_Z   3
loop_
 _symmetry_equiv_pos_site_id
 _symmetry_equiv_pos_as_xyz
  1  'x, y, z'
loop_
 _atom_site_type_symbol
 _atom_site_label
 _atom_site_symmetry_multiplicity
 _atom_site_fract_x
 _atom_site_fract_y
 _atom_site_fract_z
 _atom_site_occupancy
  Ni  Ni0  1  1.00093493  0.00235129  1.00117849  1
  Ni  Ni1  1  0.16976721  0.17061172  0.16879027  1
  Ni  Ni2  1  1.00103135  0.00345603  0.33527202  1
  Ni  Ni3  1  0.00250826  0.33469393  0.00234865  1
  Fe  Fe4  1  0.16844257  0.50146448  0.16823428  1
  Ni  Ni5  1  0.00231988  0.33488826  0.33453788  1
  Ni  Ni6  1  1.00118084  0.66766271  1.00072480  1
  Cr  Cr7  1  0.16837206  0.83586859  0.16854636  1
  Ni  Ni8  1  1.00062852  0.66681820  0.33516420  1
  Ni  Ni9  1  0.33588475  0.00272980  1.00106516  1
  Ni  Ni10  1  0.50024133  0.17013254  0.16694313  1
  Fe  Fe11  1  0.33586197  0.00373936  0.33503391  1
  Ni  Ni12  1  0.33475155  0.33524365  1.00140053  1
  Fe  Fe13  1  0.50219386  0.50203986  0.16730946  1
  Ni  Ni14  1  0.33514378  0.33629131  0.33518669  1
  Ni  Ni15  1  0.33588136  0.66771862  1.00059423  1
  Ni  Ni16  1  0.50256104  0.83487774  0.16728637  1
  Ni  Ni17  1  0.33718605  0.66557943  0.33506209  1
  Ni  Ni18  1  0.66847479  1.00133016  0.00185453  1
  Fe  Fe19  1  0.83552059  0.16801103  0.16733621  1
  Cr  Cr20  1  0.66955784  1.00151604  0.33489593  1
  Ni  Ni21  1  0.66808842  0.33468957  0.00231394  1
  Ni  Ni22  1  0.83467616  0.50124354  0.16795265  1
  Ni  Ni23  1  0.66762357  0.33652035  0.33484570  1
  Ni  Ni24  1  0.66812538  0.66884839  0.00203203  1
  Ni  Ni25  1  0.83445966  0.83111483  0.16807174  1
  Ni  Ni26  1  0.66760572  0.66706524  0.33532611  1
  Ni  Ni27  1  0.16897325  0.17093495  0.50150587  1
  Ni  Ni28  1  1.00024330  0.00296111  0.66878676  1
  Ni  Ni29  1  0.16848939  0.16900750  0.83489379  1
  Ni  Ni30  1  0.16715610  0.50035939  0.50071813  1
  Ni  Ni31  1  0.00235548  0.33480381  0.66827867  1
  Ni  Ni32  1  0.16846896  0.50141007  0.83614240  1
  Cr  Cr33  1  0.16851306  0.83483550  0.50180764  1
  Ni  Ni34  1  1.00144117  0.66736803  0.66946390  1
  Ni  Ni35  1  0.16819982  0.83478465  0.83522726  1
  Ni  Ni36  1  0.50126352  0.16962991  0.50288308  1
  Ni  Ni37  1  0.33615486  0.00262150  0.66896479  1
  Ni  Ni38  1  0.50213562  0.16927574  0.83529943  1
  Fe  Fe39  1  0.50194622  0.50124775  0.50291079  1
  Ni  Ni40  1  0.33440895  0.33562903  0.66863653  1
  Ni  Ni41  1  0.50201962  0.50109654  0.83531885  1
  Ni  Ni42  1  0.50244856  0.83468615  0.50230380  1
  Ni  Ni43  1  0.33552571  0.66717384  0.66967783  1
  Ni  Ni44  1  0.50212070  0.83484685  0.83561809  1
  Ni  Ni45  1  0.83517456  0.17093299  0.50136520  1
  Ni  Ni46  1  0.66887044  0.00176883  0.66848113  1
  Ni  Ni47  1  0.83461373  0.16899374  0.83618664  1
  Ni  Ni48  1  0.83518999  0.50136883  0.50230055  1
  Ni  Ni49  1  0.66836692  0.33437268  0.66815683  1
  Fe  Fe50  1  0.83443697  0.50111041  0.83523407  1
  Ni  Ni51  1  0.83417655  0.83309981  0.50190032  1
  Ni  Ni52  1  0.66801898  0.66909108  0.66799820  1
  Ni  Ni53  1  0.83493139  0.83474991  0.83529934  1
" 