7099,Ni85Cr15_6,-205.681299932119, 169.435745853266,Ni85Cr15,"# generated using pymatgen
 data_Cr5Ni
_symmetry_space_group_name_H-M   'P 1'
_cell_length_a   7.58586075
_cell_length_b   7.58586075
_cell_length_c   10.72802715
_cell_angle_alpha   90.00000000
_cell_angle_beta   90.00000000
_cell_angle_gamma   90.00000000
_symmetry_Int_Tables_number   1
_chemical_formula_structural   Cr5Ni
_chemical_formula_sum   'Cr45 Ni9'
_cell_volume   617.34736138
_cell_formula_units_Z   9
loop_
 _symmetry_equiv_pos_site_id
 _symmetry_equiv_pos_as_xyz
  1  'x, y, z'
loop_
 _atom_site_type_symbol
 _atom_site_label
 _atom_site_symmetry_multiplicity
 _atom_site_fract_x
 _atom_site_fract_y
 _atom_site_fract_z
 _atom_site_occupancy
  Cr  Cr0  1  0.99139219  0.99216787  0.99029776  1
  Cr  Cr1  1  0.15905501  0.15751039  0.15933660  1
  Cr  Cr2  1  0.99157234  0.99198781  0.32494726  1
  Cr  Cr3  1  -0.00744540  0.32432763  0.99140079  1
  Cr  Cr4  1  0.15905132  0.49415040  0.15783960  1
  Cr  Cr5  1  0.99164450  0.32563866  0.32605663  1
  Cr  Cr6  1  -0.00755969  0.66001099  -0.00749008  1
  Cr  Cr7  1  0.16071027  0.82484703  0.15916443  1
  Cr  Cr8  1  0.99211952  0.65887975  0.32550193  1
  Cr  Cr9  1  0.32489722  -0.00777607  0.99140104  1
  Cr  Cr10  1  0.49458606  0.15861491  0.16080834  1
  Ni  Ni11  1  0.32738005  -0.00750965  0.32582418  1
  Cr  Cr12  1  0.32594408  0.32648010  0.99106773  1
  Cr  Cr13  1  0.49294198  0.49139885  0.15695049  1
  Cr  Cr14  1  0.32652831  0.32459670  0.32605711  1
  Ni  Ni15  1  0.32548728  0.65822071  -0.00756518  1
  Cr  Cr16  1  0.49018473  0.82649506  0.15970873  1
  Cr  Cr17  1  0.32548968  0.65936195  0.32457137  1
  Cr  Cr18  1  0.66021801  0.99211658  0.99177552  1
  Cr  Cr19  1  0.82286547  0.16026979  0.15993261  1
  Ni  Ni20  1  0.65717933  -0.00584828  0.32544467  1
  Ni  Ni21  1  0.65870248  0.32600545  -0.00735961  1
  Cr  Cr22  1  0.82451337  0.48974329  0.15894458  1
  Ni  Ni23  1  0.65884748  0.32329703  0.32518070  1
  Cr  Cr24  1  0.65806585  0.65896890  0.99069143  1
  Cr  Cr25  1  0.82561086  0.82649481  0.15933717  1
  Cr  Cr26  1  0.65889688  0.65943264  0.32643238  1
  Cr  Cr27  1  0.16014982  0.15706510  0.49310139  1
  Cr  Cr28  1  -0.00701513  -0.00764939  0.66126191  1
  Ni  Ni29  1  0.15937511  0.15765824  0.82434191  1
  Cr  Cr30  1  0.15795198  0.49272812  0.49205983  1
  Cr  Cr31  1  -0.00585011  0.32450730  0.65905108  1
  Cr  Cr32  1  0.15922695  0.49190085  0.82660142  1
  Cr  Cr33  1  0.16070669  0.82671180  0.49150303  1
  Cr  Cr34  1  0.98924912  0.65965173  0.65849512  1
  Cr  Cr35  1  0.15928722  0.82691090  0.82583423  1
  Cr  Cr36  1  0.49239411  0.15707400  0.49019683  1
  Ni  Ni37  1  0.32448036  -0.00703072  0.65937170  1
  Cr  Cr38  1  0.49112920  0.15879093  0.82550265  1
  Cr  Cr39  1  0.49403804  0.49216626  0.49294633  1
  Cr  Cr40  1  0.32434239  0.32346069  0.65938358  1
  Cr  Cr41  1  0.49326689  0.49293456  0.82660471  1
  Cr  Cr42  1  0.49128067  0.82726366  0.49239449  1
  Cr  Cr43  1  0.32759235  0.65903539  0.65832631  1
  Cr  Cr44  1  0.49210762  0.82477764  0.82440292  1
  Cr  Cr45  1  0.82396118  0.15982482  0.48963769  1
  Cr  Cr46  1  0.65862356  0.98910074  0.65978350  1
  Cr  Cr47  1  0.82614444  0.15885530  0.82693473  1
  Cr  Cr48  1  0.82451582  0.49160865  0.49239325  1
  Cr  Cr49  1  0.65801340  0.32720238  0.65850501  1
  Cr  Cr50  1  0.82401233  0.49288015  0.82516963  1
  Cr  Cr51  1  0.82451914  0.82507309  0.49277027  1
  Ni  Ni52  1  0.65976472  0.65991821  0.65978722  1
  Ni  Ni53  1  0.82496688  0.82481022  0.82449499  1
" 