1634,Ni85Fe14Cr0_5,-241.671871481206, 196.848015573295,Ni85Fe14Cr0,"# generated using pymatgen
 data_CrFe7Ni46
_symmetry_space_group_name_H-M   'P 1'
_cell_length_a   7.43689073
_cell_length_b   7.43689073
_cell_length_c   10.51735173
_cell_angle_alpha   90.00000000
_cell_angle_beta   90.00000000
_cell_angle_gamma   90.00000000
_symmetry_Int_Tables_number   1
_chemical_formula_structural   CrFe7Ni46
_chemical_formula_sum   'Cr1 Fe7 Ni46'
_cell_volume   581.68678751
_cell_formula_units_Z   1
loop_
 _symmetry_equiv_pos_site_id
 _symmetry_equiv_pos_as_xyz
  1  'x, y, z'
loop_
 _atom_site_type_symbol
 _atom_site_label
 _atom_site_symmetry_multiplicity
 _atom_site_fract_x
 _atom_site_fract_y
 _atom_site_fract_z
 _atom_site_occupancy
  Ni  Ni0  1  0.00225087  1.00093943  0.00251389  1
  Ni  Ni1  1  0.16842289  0.16897628  0.16882540  1
  Ni  Ni2  1  1.00166571  1.00191652  0.33530276  1
  Fe  Fe3  1  1.00089320  0.33572810  0.00266138  1
  Ni  Ni4  1  0.16832498  0.50209226  0.16767182  1
  Ni  Ni5  1  0.00235407  0.33531369  0.33494720  1
  Ni  Ni6  1  0.00206527  0.66989041  1.00164653  1
  Ni  Ni7  1  0.16853969  0.83513844  0.17014783  1
  Ni  Ni8  1  0.00217906  0.66894681  0.33628808  1
  Ni  Ni9  1  0.33466800  0.00236934  1.00165383  1
  Ni  Ni10  1  0.50176841  0.16881871  0.16924017  1
  Ni  Ni11  1  0.33473857  0.00339547  0.33481656  1
  Ni  Ni12  1  0.33638621  0.33536102  0.00225584  1
  Ni  Ni13  1  0.50153762  0.50181192  0.16933050  1
  Ni  Ni14  1  0.33523058  0.33564769  0.33511875  1
  Ni  Ni15  1  0.33472001  0.66833936  0.00209898  1
  Ni  Ni16  1  0.50143479  0.83546262  0.16789554  1
  Ni  Ni17  1  0.33415287  0.66730118  0.33375239  1
  Ni  Ni18  1  0.66913168  0.00265085  1.00187119  1
  Ni  Ni19  1  0.83566357  0.16893308  0.16852940  1
  Ni  Ni20  1  0.66985507  0.00302173  0.33361011  1
  Ni  Ni21  1  0.66750688  0.33557338  1.00197577  1
  Ni  Ni22  1  0.83605052  0.50185126  0.16991110  1
  Ni  Ni23  1  0.66807039  0.33491151  0.33611950  1
  Ni  Ni24  1  0.66927085  0.66785844  1.00141958  1
  Ni  Ni25  1  0.83598595  0.83532554  0.16845603  1
  Ni  Ni26  1  0.66938054  0.66807376  0.33440580  1
  Fe  Fe27  1  0.16880274  0.16964076  0.50108091  1
  Ni  Ni28  1  1.00188024  0.00235842  0.66845535  1
  Fe  Fe29  1  0.16856249  0.16811738  0.83647289  1
  Ni  Ni30  1  0.16813662  0.50179354  0.50254168  1
  Ni  Ni31  1  0.00274452  0.33432550  0.66924757  1
  Fe  Fe32  1  0.16849766  0.50241208  0.83532191  1
  Fe  Fe33  1  0.16873987  0.83510977  0.50178797  1
  Ni  Ni34  1  0.00228909  0.66939340  0.66787760  1
  Ni  Ni35  1  0.16833297  0.83489250  0.83393957  1
  Ni  Ni36  1  0.50297790  0.17003222  0.50225876  1
  Fe  Fe37  1  0.33560997  0.00288295  0.66988344  1
  Ni  Ni38  1  0.50252004  0.16943114  0.83456926  1
  Ni  Ni39  1  0.49896791  0.50071725  0.50211109  1
  Ni  Ni40  1  0.33519324  0.33539646  0.66865488  1
  Ni  Ni41  1  0.50167758  0.50143289  0.83458996  1
  Cr  Cr42  1  0.50351874  0.83512552  0.50243213  1
  Ni  Ni43  1  0.33436994  0.66662483  0.67001979  1
  Ni  Ni44  1  0.50113623  0.83523157  0.83551458  1
  Ni  Ni45  1  0.83591615  0.16804349  0.50208285  1
  Ni  Ni46  1  0.67089609  0.00318938  0.67064687  1
  Ni  Ni47  1  0.83572737  0.16926097  0.83576293  1
  Fe  Fe48  1  0.83387907  0.50171597  0.50234267  1
  Ni  Ni49  1  0.66800315  0.33471820  0.66798787  1
  Ni  Ni50  1  0.83598230  0.50121204  0.83366920  1
  Ni  Ni51  1  0.83724699  0.83690417  0.50261879  1
  Ni  Ni52  1  0.66902979  0.66821050  0.67012223  1
  Ni  Ni53  1  0.83659914  0.83566436  0.83502738  1
" 