3872,Ni85Fe14Cr0_14,-241.56570114029, 197.135453018984,Ni85Fe14Cr0,"# generated using pymatgen
 data_CrFe7Ni46
_symmetry_space_group_name_H-M   'P 1'
_cell_length_a   7.43533557
_cell_length_b   7.43533557
_cell_length_c   10.51515240
_cell_angle_alpha   90.00000000
_cell_angle_beta   90.00000000
_cell_angle_gamma   90.00000000
_symmetry_Int_Tables_number   1
_chemical_formula_structural   CrFe7Ni46
_chemical_formula_sum   'Cr1 Fe7 Ni46'
_cell_volume   581.32194607
_cell_formula_units_Z   1
loop_
 _symmetry_equiv_pos_site_id
 _symmetry_equiv_pos_as_xyz
  1  'x, y, z'
loop_
 _atom_site_type_symbol
 _atom_site_label
 _atom_site_symmetry_multiplicity
 _atom_site_fract_x
 _atom_site_fract_y
 _atom_site_fract_z
 _atom_site_occupancy
  Ni  Ni0  1  0.00274750  1.00147642  1.00109312  1
  Ni  Ni1  1  0.16989875  0.16889065  0.16870309  1
  Ni  Ni2  1  0.00284837  1.00137300  0.33659176  1
  Fe  Fe3  1  0.00301861  0.33532802  1.00169794  1
  Ni  Ni4  1  0.16938053  0.50158344  0.16880894  1
  Ni  Ni5  1  0.00312579  0.33641980  0.33581772  1
  Fe  Fe6  1  1.00206482  0.66982390  0.00271858  1
  Ni  Ni7  1  0.16905248  0.83592398  0.16898259  1
  Ni  Ni8  1  1.00168055  0.66860469  0.33497265  1
  Ni  Ni9  1  0.33475264  0.00253333  1.00210917  1
  Fe  Fe10  1  0.50031592  0.16885602  0.16879558  1
  Ni  Ni11  1  0.33514128  0.00249068  0.33501469  1
  Ni  Ni12  1  0.33562385  0.33560838  0.00248832  1
  Ni  Ni13  1  0.50223779  0.50267728  0.16921192  1
  Ni  Ni14  1  0.33513653  0.33557474  0.33501432  1
  Ni  Ni15  1  0.33595630  0.66825608  1.00199393  1
  Ni  Ni16  1  0.50223150  0.83449105  0.16860235  1
  Ni  Ni17  1  0.33546500  0.66833183  0.33556160  1
  Ni  Ni18  1  0.66889566  1.00114494  1.00127040  1
  Cr  Cr19  1  0.83595062  0.16855412  0.16956112  1
  Ni  Ni20  1  0.66840574  1.00104050  0.33580723  1
  Ni  Ni21  1  0.66774714  0.33672016  1.00087502  1
  Ni  Ni22  1  0.83477914  0.50352456  0.16853082  1
  Ni  Ni23  1  0.66813434  0.33674471  0.33657940  1
  Ni  Ni24  1  0.66880700  0.66853334  0.00253189  1
  Ni  Ni25  1  0.83511336  0.83397580  0.16870439  1
  Ni  Ni26  1  0.66925164  0.66861074  0.33496828  1
  Ni  Ni27  1  0.16890930  0.16894641  0.50205611  1
  Ni  Ni28  1  1.00177644  0.00248608  0.66871246  1
  Ni  Ni29  1  0.16822472  0.16845970  0.83563927  1
  Ni  Ni30  1  0.16857345  0.50144732  0.50221189  1
  Ni  Ni31  1  0.00287915  0.33532239  0.66911260  1
  Fe  Fe32  1  0.16983122  0.50208048  0.83489822  1
  Ni  Ni33  1  0.16830058  0.83600359  0.50204770  1
  Ni  Ni34  1  1.00172521  0.66859013  0.66906426  1
  Ni  Ni35  1  0.16844003  0.83628111  0.83536849  1
  Ni  Ni36  1  0.50164279  0.16916695  0.50178868  1
  Ni  Ni37  1  0.33549694  0.00254460  0.66927553  1
  Ni  Ni38  1  0.50225273  0.16955678  0.83628303  1
  Ni  Ni39  1  0.50253333  0.50177829  0.50194503  1
  Ni  Ni40  1  0.33472274  0.33559587  0.66889499  1
  Ni  Ni41  1  0.50232080  0.50199393  0.83524033  1
  Ni  Ni42  1  0.50258551  0.83545230  0.50254821  1
  Ni  Ni43  1  0.33582177  0.66825772  0.66884027  1
  Ni  Ni44  1  0.50236932  0.83484685  0.83524701  1
  Fe  Fe45  1  0.83566700  0.16859801  0.50217801  1
  Ni  Ni46  1  0.66912380  1.00138785  0.66932288  1
  Ni  Ni47  1  0.83591924  0.16840892  0.83479536  1
  Ni  Ni48  1  0.83529021  0.50238648  0.50195026  1
  Fe  Fe49  1  0.66833741  0.33552086  0.66891118  1
  Fe  Fe50  1  0.83469830  0.50226337  0.83522815  1
  Ni  Ni51  1  0.83551168  0.83511362  0.50177845  1
  Ni  Ni52  1  0.66885085  0.66936065  0.66889470  1
  Ni  Ni53  1  0.83558879  0.83621376  0.83591631  1
" 