6075,Ni85Fe5Cr9_6,-236.327764812495, 174.992685142996,Ni85Fe5Cr9,"# generated using pymatgen
 data_Cr2FeNi15
_symmetry_space_group_name_H-M   'P 1'
_cell_length_a   7.45953206
_cell_length_b   7.45953206
_cell_length_c   10.54937141
_cell_angle_alpha   90.00000000
_cell_angle_beta   90.00000000
_cell_angle_gamma   90.00000000
_symmetry_Int_Tables_number   1
_chemical_formula_structural   Cr2FeNi15
_chemical_formula_sum   'Cr6 Fe3 Ni45'
_cell_volume   587.01574863
_cell_formula_units_Z   3
loop_
 _symmetry_equiv_pos_site_id
 _symmetry_equiv_pos_as_xyz
  1  'x, y, z'
loop_
 _atom_site_type_symbol
 _atom_site_label
 _atom_site_symmetry_multiplicity
 _atom_site_fract_x
 _atom_site_fract_y
 _atom_site_fract_z
 _atom_site_occupancy
  Ni  Ni0  1  0.00062203  1.00033190  0.00065674  1
  Ni  Ni1  1  0.16804541  0.16574822  0.16640543  1
  Ni  Ni2  1  1.00042119  0.99916776  0.33368964  1
  Ni  Ni3  1  0.00072937  0.33400086  1.00028349  1
  Ni  Ni4  1  0.16712425  0.50153970  0.16673525  1
  Cr  Cr5  1  0.00116417  0.33416451  0.33273439  1
  Ni  Ni6  1  0.00061439  0.66716868  0.00087808  1
  Ni  Ni7  1  0.16582402  0.83424339  0.16815136  1
  Ni  Ni8  1  1.00028585  0.66841728  0.33368647  1
  Ni  Ni9  1  0.33305019  0.00141124  0.99939485  1
  Ni  Ni10  1  0.50040718  0.16704168  0.16809889  1
  Ni  Ni11  1  0.33301566  0.00144996  0.33497130  1
  Ni  Ni12  1  0.33268874  0.33270844  1.00027002  1
  Cr  Cr13  1  0.50048305  0.49936574  0.16681444  1
  Ni  Ni14  1  0.33417050  0.33298000  0.33405022  1
  Ni  Ni15  1  0.33160399  0.66737374  0.99821659  1
  Cr  Cr16  1  0.50075839  0.83464482  0.16684031  1
  Ni  Ni17  1  0.33194417  0.66714414  0.33573313  1
  Ni  Ni18  1  0.66786138  0.00132517  0.99978443  1
  Ni  Ni19  1  0.83307276  0.16581933  0.16674688  1
  Ni  Ni20  1  0.66801813  0.00115718  0.33429012  1
  Ni  Ni21  1  0.66809171  0.33268999  0.99935634  1
  Ni  Ni22  1  0.83401830  0.50147242  0.16707892  1
  Ni  Ni23  1  0.66676871  0.33303108  0.33512094  1
  Ni  Ni24  1  0.66931685  0.66749532  0.99857751  1
  Ni  Ni25  1  0.83533612  0.83424201  0.16749452  1
  Ni  Ni26  1  0.66904061  0.66744660  0.33527569  1
  Ni  Ni27  1  0.16681786  0.16533169  0.50062865  1
  Ni  Ni28  1  0.00168473  1.00040913  0.66710610  1
  Ni  Ni29  1  0.16605429  0.16595423  0.83430470  1
  Ni  Ni30  1  0.16799396  0.50122599  0.50043130  1
  Ni  Ni31  1  0.99950817  0.33398621  0.66727445  1
  Ni  Ni32  1  0.16645615  0.50134771  0.83426597  1
  Fe  Fe33  1  0.16546099  0.83329849  0.50054457  1
  Ni  Ni34  1  0.00166697  0.66699832  0.66691969  1
  Ni  Ni35  1  0.16709351  0.83421414  0.83270329  1
  Fe  Fe36  1  0.50108618  0.16852091  0.49919102  1
  Ni  Ni37  1  0.33212710  0.99902652  0.66715962  1
  Ni  Ni38  1  0.50034242  0.16712296  0.83495354  1
  Ni  Ni39  1  0.50007985  0.50126258  0.49894353  1
  Cr  Cr40  1  0.33394344  0.33400298  0.66784602  1
  Ni  Ni41  1  0.50033967  0.50057412  0.83525322  1
  Fe  Fe42  1  0.49938117  0.83343047  0.49949461  1
  Ni  Ni43  1  0.33227192  0.66852011  0.66721464  1
  Ni  Ni44  1  0.49836528  0.83381494  0.83494918  1
  Ni  Ni45  1  0.83498938  0.16623087  0.50081482  1
  Cr  Cr46  1  0.66684496  0.00145416  0.66819636  1
  Ni  Ni47  1  0.83513341  0.16779414  0.83378584  1
  Ni  Ni48  1  0.83345290  0.50080481  0.50063215  1
  Ni  Ni49  1  0.66876190  0.33398275  0.66694616  1
  Ni  Ni50  1  0.83473489  0.49947240  0.83375583  1
  Ni  Ni51  1  0.83519725  0.83450840  0.49857479  1
  Cr  Cr52  1  0.66696316  0.66609720  0.66833878  1
  Ni  Ni53  1  0.83597407  0.83423532  0.83563797  1
" 