3061,Ni85Fe15_10,-230.700205355361, 173.406071462276,Ni85Fe15,"# generated using pymatgen
 data_Fe5Ni
_symmetry_space_group_name_H-M   'P 1'
_cell_length_a   7.40115132
_cell_length_b   7.40115132
_cell_length_c   10.46680858
_cell_angle_alpha   90.00000000
_cell_angle_beta   90.00000000
_cell_angle_gamma   90.00000000
_symmetry_Int_Tables_number   1
_chemical_formula_structural   Fe5Ni
_chemical_formula_sum   'Fe45 Ni9'
_cell_volume   573.34080141
_cell_formula_units_Z   9
loop_
 _symmetry_equiv_pos_site_id
 _symmetry_equiv_pos_as_xyz
  1  'x, y, z'
loop_
 _atom_site_type_symbol
 _atom_site_label
 _atom_site_symmetry_multiplicity
 _atom_site_fract_x
 _atom_site_fract_y
 _atom_site_fract_z
 _atom_site_occupancy
  Fe  Fe0  1  0.00495071  1.00442689  1.00406217  1
  Fe  Fe1  1  0.17127098  0.17181207  0.17142292  1
  Fe  Fe2  1  0.00497521  1.00438407  0.33824115  1
  Fe  Fe3  1  0.00484149  0.33824119  0.00451701  1
  Fe  Fe4  1  0.17135445  0.50375963  0.17042506  1
  Fe  Fe5  1  1.00431836  0.33785269  0.33785230  1
  Fe  Fe6  1  0.00488362  0.67068801  1.00406167  1
  Fe  Fe7  1  0.17111841  0.83778488  0.17125245  1
  Fe  Fe8  1  1.00438580  0.67111923  0.33771613  1
  Fe  Fe9  1  0.33778450  0.00491010  0.00465590  1
  Ni  Ni10  1  0.50433972  0.17125903  0.17158411  1
  Fe  Fe11  1  0.33752296  0.00457864  0.33797761  1
  Ni  Ni12  1  0.33747554  0.33810092  0.00469345  1
  Fe  Fe13  1  0.50471168  0.50386641  0.17099072  1
  Fe  Fe14  1  0.33785097  0.33732865  0.33735343  1
  Fe  Fe15  1  0.33732821  0.67073074  1.00399470  1
  Fe  Fe16  1  0.50501717  0.83774443  0.17125244  1
  Fe  Fe17  1  0.33758816  0.67144739  0.33811477  1
  Fe  Fe18  1  0.67061829  0.00495189  1.00401870  1
  Fe  Fe19  1  0.83732741  0.17150738  0.17118522  1
  Fe  Fe20  1  0.67085720  0.00464680  0.33795564  1
  Fe  Fe21  1  0.67065897  0.33778288  0.00504243  1
  Ni  Ni22  1  0.83757643  0.50463224  0.17064519  1
  Fe  Fe23  1  0.67118597  0.33791931  0.33732859  1
  Fe  Fe24  1  0.67114317  0.67062145  0.00458391  1
  Fe  Fe25  1  0.83721947  0.83783025  0.17068380  1
  Fe  Fe26  1  0.67138144  0.67078963  0.33752426  1
  Ni  Ni27  1  0.17166531  0.17040125  0.50461050  1
  Fe  Fe28  1  1.00438667  1.00406115  0.67105299  1
  Fe  Fe29  1  0.17081573  0.17101781  0.83761563  1
  Fe  Fe30  1  0.17118611  0.50438409  0.50488641  1
  Fe  Fe31  1  1.00427641  0.33735495  0.67098429  1
  Ni  Ni32  1  0.17130254  0.50482303  0.83755900  1
  Ni  Ni33  1  0.17103765  0.83841898  0.50474240  1
  Fe  Fe34  1  1.00434252  0.67193851  0.67157530  1
  Ni  Ni35  1  0.17055964  0.83730704  0.83765347  1
  Fe  Fe36  1  0.50382770  0.17049306  0.50421407  1
  Fe  Fe37  1  0.33765817  1.00425635  0.67072473  1
  Fe  Fe38  1  0.50408658  0.17068640  0.83828489  1
  Fe  Fe39  1  0.50352039  0.50451852  0.50445231  1
  Fe  Fe40  1  0.33796207  0.33735181  0.67155291  1
  Fe  Fe41  1  0.50373369  0.50518609  0.83791305  1
  Fe  Fe42  1  0.50382601  0.83834296  0.50457881  1
  Fe  Fe43  1  0.33769796  0.67174584  0.67124560  1
  Fe  Fe44  1  0.50434981  0.83748227  0.83752282  1
  Fe  Fe45  1  0.83848006  0.17049234  0.50471335  1
  Ni  Ni46  1  0.67143943  1.00405113  0.67088222  1
  Fe  Fe47  1  0.83845345  0.17040002  0.83745557  1
  Fe  Fe48  1  0.83864893  0.50438546  0.50381796  1
  Fe  Fe49  1  0.67111839  0.33739603  0.67098437  1
  Fe  Fe50  1  0.83867341  0.50533886  0.83821748  1
  Fe  Fe51  1  0.83834449  0.83847684  0.50507756  1
  Fe  Fe52  1  0.67131475  0.67163285  0.67124512  1
  Ni  Ni53  1  0.83800081  0.83773456  0.83769647  1
" 