530,Ni85Fe15_11,-230.929532533765, 171.543130487,Ni85Fe15,"# generated using pymatgen
 data_Fe5Ni
_symmetry_space_group_name_H-M   'P 1'
_cell_length_a   7.40395624
_cell_length_b   7.40395624
_cell_length_c   10.47077533
_cell_angle_alpha   90.00000000
_cell_angle_beta   90.00000000
_cell_angle_gamma   90.00000000
_symmetry_Int_Tables_number   1
_chemical_formula_structural   Fe5Ni
_chemical_formula_sum   'Fe45 Ni9'
_cell_volume   573.99290891
_cell_formula_units_Z   9
loop_
 _symmetry_equiv_pos_site_id
 _symmetry_equiv_pos_as_xyz
  1  'x, y, z'
loop_
 _atom_site_type_symbol
 _atom_site_label
 _atom_site_symmetry_multiplicity
 _atom_site_fract_x
 _atom_site_fract_y
 _atom_site_fract_z
 _atom_site_occupancy
  Fe  Fe0  1  1.00371227  1.00371452  1.00426011  1
  Fe  Fe1  1  0.17110843  0.17111216  0.17092908  1
  Fe  Fe2  1  0.00471143  1.00354390  0.33777659  1
  Fe  Fe3  1  1.00375103  0.33744546  1.00366169  1
  Fe  Fe4  1  0.17038110  0.50471438  0.17064995  1
  Fe  Fe5  1  1.00399007  0.33821789  0.33828217  1
  Ni  Ni6  1  0.00515612  0.67056600  1.00389857  1
  Fe  Fe7  1  0.17028922  0.83695320  0.17152601  1
  Ni  Ni8  1  0.00490627  0.67081810  0.33873400  1
  Fe  Fe9  1  0.33752861  1.00365976  1.00425993  1
  Fe  Fe10  1  0.50453183  0.17065968  0.17047630  1
  Fe  Fe11  1  0.33681452  1.00312854  0.33813508  1
  Fe  Fe12  1  0.33759486  0.33759647  0.00444479  1
  Fe  Fe13  1  0.50407985  0.50398673  0.17143532  1
  Fe  Fe14  1  0.33726956  0.33837209  0.33740571  1
  Fe  Fe15  1  0.33774857  0.67152583  1.00416767  1
  Fe  Fe16  1  0.50462461  0.83813910  0.17107182  1
  Fe  Fe17  1  0.33741920  0.67128762  0.33840989  1
  Ni  Ni18  1  0.66971229  0.00494710  1.00415214  1
  Fe  Fe19  1  0.83713705  0.17056617  0.17056443  1
  Fe  Fe20  1  0.67125327  1.00339061  0.33690033  1
  Fe  Fe21  1  0.67143587  0.33766026  1.00375343  1
  Fe  Fe22  1  0.83832666  0.50480842  0.17152653  1
  Fe  Fe23  1  0.67152510  0.33881744  0.33863813  1
  Fe  Fe24  1  0.67138404  0.67156198  1.00426024  1
  Fe  Fe25  1  0.83786946  0.83740734  0.17037504  1
  Fe  Fe26  1  0.67111112  0.67056589  0.33840875  1
  Fe  Fe27  1  0.17134662  0.17117377  0.50453031  1
  Fe  Fe28  1  1.00411601  0.00540121  0.67074524  1
  Fe  Fe29  1  0.17074767  0.17129242  0.83731983  1
  Fe  Fe30  1  0.17098757  0.50549768  0.50417221  1
  Ni  Ni31  1  1.00370212  0.33835844  0.67027784  1
  Fe  Fe32  1  0.17038769  0.50425994  0.83796075  1
  Ni  Ni33  1  0.17157458  0.83863282  0.50425627  1
  Fe  Fe34  1  1.00366405  0.66979941  0.67056294  1
  Fe  Fe35  1  0.17065486  0.83722879  0.83734980  1
  Fe  Fe36  1  0.50453237  0.17110211  0.50443415  1
  Fe  Fe37  1  0.33741071  0.00491587  0.67038627  1
  Fe  Fe38  1  0.50479847  0.17083778  0.83787090  1
  Ni  Ni39  1  0.50582268  0.50444423  0.50437658  1
  Fe  Fe40  1  0.33786500  0.33777663  0.67093109  1
  Fe  Fe41  1  0.50434851  0.50389831  0.83681575  1
  Ni  Ni42  1  0.50292217  0.83718248  0.50425620  1
  Fe  Fe43  1  0.33804565  0.67009594  0.67020490  1
  Fe  Fe44  1  0.50453333  0.83804789  0.83744426  1
  Fe  Fe45  1  0.83690286  0.17139759  0.50489171  1
  Fe  Fe46  1  0.67125174  0.00520554  0.67152850  1
  Fe  Fe47  1  0.83723053  0.17110490  0.83732273  1
  Ni  Ni48  1  0.83683457  0.50299298  0.50437903  1
  Ni  Ni49  1  0.67104646  0.33706528  0.67070845  1
  Fe  Fe50  1  0.83804880  0.50399442  0.83672393  1
  Fe  Fe51  1  0.83726357  0.83618011  0.50380973  1
  Fe  Fe52  1  0.67107170  0.66933765  0.67011282  1
  Fe  Fe53  1  0.83759254  0.83768441  0.83859932  1
" 