4995,Ni85Fe15_18,-230.773243059091, 174.492240313,Ni85Fe15,"# generated using pymatgen
 data_Fe5Ni
_symmetry_space_group_name_H-M   'P 1'
_cell_length_a   7.39792696
_cell_length_b   7.39792696
_cell_length_c   10.46224865
_cell_angle_alpha   90.00000000
_cell_angle_beta   90.00000000
_cell_angle_gamma   90.00000000
_symmetry_Int_Tables_number   1
_chemical_formula_structural   Fe5Ni
_chemical_formula_sum   'Fe45 Ni9'
_cell_volume   572.59178933
_cell_formula_units_Z   9
loop_
 _symmetry_equiv_pos_site_id
 _symmetry_equiv_pos_as_xyz
  1  'x, y, z'
loop_
 _atom_site_type_symbol
 _atom_site_label
 _atom_site_symmetry_multiplicity
 _atom_site_fract_x
 _atom_site_fract_y
 _atom_site_fract_z
 _atom_site_occupancy
  Fe  Fe0  1  1.00466750  1.00466932  0.00467483  1
  Fe  Fe1  1  0.17133731  0.17133090  0.17133648  1
  Fe  Fe2  1  1.00466833  0.00467581  0.33799904  1
  Fe  Fe3  1  0.00467336  0.33801055  1.00467072  1
  Fe  Fe4  1  0.17133412  0.50467490  0.17133418  1
  Fe  Fe5  1  0.00467172  0.33799846  0.33800497  1
  Fe  Fe6  1  1.00466940  0.67133500  1.00466924  1
  Fe  Fe7  1  0.17133328  0.83800906  0.17134242  1
  Fe  Fe8  1  1.00467023  0.67134060  0.33800735  1
  Fe  Fe9  1  0.33801147  0.00467244  0.00467722  1
  Fe  Fe10  1  0.50467399  0.17133590  0.17134799  1
  Ni  Ni11  1  0.33799805  0.00467558  0.33800234  1
  Ni  Ni12  1  0.33799969  0.33799114  0.00468018  1
  Fe  Fe13  1  0.50468221  0.50467492  0.17133233  1
  Fe  Fe14  1  0.33801368  0.33799532  0.33800077  1
  Fe  Fe15  1  0.33801141  0.67133003  0.00467162  1
  Fe  Fe16  1  0.50467804  0.83800404  0.17134388  1
  Fe  Fe17  1  0.33801285  0.67134143  0.33800816  1
  Fe  Fe18  1  0.67133590  1.00466848  0.00467393  1
  Fe  Fe19  1  0.83800356  0.17133507  0.17134149  1
  Fe  Fe20  1  0.67132863  0.00467664  0.33800817  1
  Fe  Fe21  1  0.67133094  0.33801048  0.00467812  1
  Fe  Fe22  1  0.83799854  0.50467896  0.17133919  1
  Ni  Ni23  1  0.67133881  0.33800831  0.33800197  1
  Ni  Ni24  1  0.67135013  0.67134142  0.00467578  1
  Ni  Ni25  1  0.83800512  0.83800130  0.17133652  1
  Fe  Fe26  1  0.67133179  0.67134482  0.33800315  1
  Fe  Fe27  1  0.17135532  0.17132769  0.50466842  1
  Fe  Fe28  1  1.00466422  1.00465871  0.67134100  1
  Fe  Fe29  1  0.17134151  0.17134150  0.83800998  1
  Fe  Fe30  1  0.17134716  0.50467484  0.50467574  1
  Fe  Fe31  1  1.00466513  0.33801877  0.67133918  1
  Fe  Fe32  1  0.17133831  0.50466982  0.83800496  1
  Fe  Fe33  1  0.17135208  0.83801234  0.50467162  1
  Ni  Ni34  1  1.00465798  0.67134257  0.67134174  1
  Fe  Fe35  1  0.17133419  0.83800355  0.83800083  1
  Ni  Ni36  1  0.50466922  0.17133224  0.50467321  1
  Fe  Fe37  1  0.33801138  1.00465774  0.67132447  1
  Fe  Fe38  1  0.50466660  0.17134242  0.83800257  1
  Fe  Fe39  1  0.50467893  0.50467071  0.50467163  1
  Fe  Fe40  1  0.33800638  0.33801563  0.67134428  1
  Fe  Fe41  1  0.50467485  0.50467394  0.83801090  1
  Ni  Ni42  1  0.50467346  0.83801346  0.50467066  1
  Fe  Fe43  1  0.33800637  0.67134149  0.67133508  1
  Fe  Fe44  1  0.50467806  0.83799850  0.83799846  1
  Fe  Fe45  1  0.83798883  0.17133680  0.50466842  1
  Fe  Fe46  1  0.67133926  1.00465872  0.67133277  1
  Fe  Fe47  1  0.83800675  0.17133830  0.83800495  1
  Fe  Fe48  1  0.83798878  0.50467394  0.50467574  1
  Fe  Fe49  1  0.67134336  0.33801374  0.67132767  1
  Fe  Fe50  1  0.83800172  0.50468126  0.83799994  1
  Fe  Fe51  1  0.83799296  0.83800413  0.50467335  1
  Ni  Ni52  1  0.67135210  0.67133862  0.67132887  1
  Fe  Fe53  1  0.83800263  0.83799531  0.83800915  1
" 