5012,Ni85Fe15_8,-230.869263334531, 171.359464063612,Ni85Fe15,"# generated using pymatgen
 data_Fe5Ni
_symmetry_space_group_name_H-M   'P 1'
_cell_length_a   7.40402863
_cell_length_b   7.40402863
_cell_length_c   10.47087771
_cell_angle_alpha   90.00000000
_cell_angle_beta   90.00000000
_cell_angle_gamma   90.00000000
_symmetry_Int_Tables_number   1
_chemical_formula_structural   Fe5Ni
_chemical_formula_sum   'Fe45 Ni9'
_cell_volume   574.00974675
_cell_formula_units_Z   9
loop_
 _symmetry_equiv_pos_site_id
 _symmetry_equiv_pos_as_xyz
  1  'x, y, z'
loop_
 _atom_site_type_symbol
 _atom_site_label
 _atom_site_symmetry_multiplicity
 _atom_site_fract_x
 _atom_site_fract_y
 _atom_site_fract_z
 _atom_site_occupancy
  Fe  Fe0  1  1.00367082  1.00376015  0.00470278  1
  Ni  Ni1  1  0.16937045  0.17193707  0.17092466  1
  Fe  Fe2  1  1.00371750  0.00496670  0.33705067  1
  Fe  Fe3  1  1.00367178  0.33755747  0.00487368  1
  Fe  Fe4  1  0.17025312  0.50414370  0.17118615  1
  Fe  Fe5  1  1.00406957  0.33679092  0.33741106  1
  Fe  Fe6  1  1.00371887  0.67146177  1.00408648  1
  Fe  Fe7  1  0.17025034  0.83880507  0.17033651  1
  Fe  Fe8  1  1.00416247  0.67102355  0.33749496  1
  Fe  Fe9  1  0.33781335  1.00341025  0.00444488  1
  Fe  Fe10  1  0.50466301  0.16978830  0.17092179  1
  Fe  Fe11  1  0.33786757  1.00388389  0.33739887  1
  Fe  Fe12  1  0.33817339  0.33826120  1.00417205  1
  Fe  Fe13  1  0.50510721  0.50437196  0.16998097  1
  Fe  Fe14  1  0.33715349  0.33749701  0.33731410  1
  Fe  Fe15  1  0.33847780  0.67109479  1.00380693  1
  Ni  Ni16  1  0.50478758  0.83594522  0.16973566  1
  Fe  Fe17  1  0.33813052  0.67137789  0.33785109  1
  Fe  Fe18  1  0.67127943  1.00345811  0.00514776  1
  Ni  Ni19  1  0.83918691  0.17094914  0.17057200  1
  Fe  Fe20  1  0.67118074  1.00398420  0.33749988  1
  Fe  Fe21  1  0.67092389  0.33820898  1.00398515  1
  Fe  Fe22  1  0.83740700  0.50461771  0.17065340  1
  Fe  Fe23  1  0.67155042  0.33704616  0.33784882  1
  Ni  Ni24  1  0.67091913  0.67112276  0.00435153  1
  Ni  Ni25  1  0.83638638  0.83818171  0.17122505  1
  Fe  Fe26  1  0.67046569  0.67172838  0.33673885  1
  Fe  Fe27  1  0.17106750  0.17042364  0.50366892  1
  Fe  Fe28  1  1.00425206  0.00434425  0.67101757  1
  Fe  Fe29  1  0.17168122  0.17097047  0.83818176  1
  Fe  Fe30  1  0.17083428  0.50425599  0.50416610  1
  Fe  Fe31  1  1.00390530  0.33723447  0.67047951  1
  Fe  Fe32  1  0.17145814  0.50479220  0.83741488  1
  Fe  Fe33  1  0.17086838  0.83808790  0.50510337  1
  Fe  Fe34  1  0.00469609  0.67119428  0.67119213  1
  Ni  Ni35  1  0.17108781  0.83752785  0.83789370  1
  Fe  Fe36  1  0.50480016  0.17037160  0.50442993  1
  Fe  Fe37  1  0.33749911  1.00363331  0.67092820  1
  Fe  Fe38  1  0.50350004  0.17104701  0.83741517  1
  Fe  Fe39  1  0.50484259  0.50411243  0.50492762  1
  Fe  Fe40  1  0.33785381  0.33794222  0.67127767  1
  Ni  Ni41  1  0.50430534  0.50463449  0.83707856  1
  Ni  Ni42  1  0.50369481  0.83630711  0.50554044  1
  Fe  Fe43  1  0.33776198  0.67118580  0.67110925  1
  Fe  Fe44  1  0.50390526  0.83678816  0.83777070  1
  Ni  Ni45  1  0.83856293  0.17168827  0.50430081  1
  Fe  Fe46  1  0.67101700  0.00443003  0.67012047  1
  Fe  Fe47  1  0.83758657  0.17100676  0.83732696  1
  Fe  Fe48  1  0.83709050  0.50431477  0.50434263  1
  Fe  Fe49  1  0.67101448  0.33749773  0.67092610  1
  Fe  Fe50  1  0.83736832  0.50519568  0.83777026  1
  Fe  Fe51  1  0.83704412  0.83804331  0.50375680  1
  Fe  Fe52  1  0.67030591  0.67083834  0.67151231  1
  Fe  Fe53  1  0.83744684  0.83656681  0.83844143  1
" 