1772,Ni85Fe5Cr9_3,-236.255004340065, 174.249645751356,Ni85Fe5Cr9,"# generated using pymatgen
 data_Cr2FeNi15
_symmetry_space_group_name_H-M   'P 1'
_cell_length_a   7.45742780
_cell_length_b   7.45742780
_cell_length_c   10.54639553
_cell_angle_alpha   90.00000000
_cell_angle_beta   90.00000000
_cell_angle_gamma   90.00000000
_symmetry_Int_Tables_number   1
_chemical_formula_structural   Cr2FeNi15
_chemical_formula_sum   'Cr6 Fe3 Ni45'
_cell_volume   586.51911301
_cell_formula_units_Z   3
loop_
 _symmetry_equiv_pos_site_id
 _symmetry_equiv_pos_as_xyz
  1  'x, y, z'
loop_
 _atom_site_type_symbol
 _atom_site_label
 _atom_site_symmetry_multiplicity
 _atom_site_fract_x
 _atom_site_fract_y
 _atom_site_fract_z
 _atom_site_occupancy
  Ni  Ni0  1  0.00159224  0.00128666  0.00174118  1
  Ni  Ni1  1  0.16621051  0.16502072  0.16584015  1
  Ni  Ni2  1  0.00179613  0.99957779  0.33293327  1
  Ni  Ni3  1  0.99916678  0.33273264  0.99941800  1
  Cr  Cr4  1  0.16642849  0.50193414  0.16639167  1
  Ni  Ni5  1  0.99869930  0.33346538  0.33432340  1
  Ni  Ni6  1  1.00000666  0.66774505  0.99967553  1
  Ni  Ni7  1  0.16722263  0.83523195  0.16746549  1
  Ni  Ni8  1  0.99884133  0.66886549  0.33633504  1
  Ni  Ni9  1  0.33384245  1.00039886  1.00063408  1
  Ni  Ni10  1  0.50195230  0.16605190  0.16708934  1
  Ni  Ni11  1  0.33243002  0.99982023  0.33351236  1
  Ni  Ni12  1  0.33533458  0.33269207  0.99885991  1
  Ni  Ni13  1  0.50256764  0.50132830  0.16596862  1
  Cr  Cr14  1  0.33367590  0.33124566  0.33461412  1
  Ni  Ni15  1  0.33544415  0.66877755  0.99949575  1
  Ni  Ni16  1  0.50045919  0.83460160  0.16685999  1
  Ni  Ni17  1  0.33329893  0.67057091  0.33310752  1
  Ni  Ni18  1  0.66646598  0.00132132  1.00059165  1
  Ni  Ni19  1  0.83381543  0.16702930  0.16698735  1
  Ni  Ni20  1  0.66763112  1.00002033  0.33324623  1
  Ni  Ni21  1  0.66747151  0.33435824  0.00067482  1
  Ni  Ni22  1  0.83319874  0.50027720  0.16736897  1
  Ni  Ni23  1  0.66936339  0.33445749  0.33221049  1
  Ni  Ni24  1  0.66658721  0.66629824  0.00144029  1
  Ni  Ni25  1  0.83427152  0.83460032  0.16756243  1
  Ni  Ni26  1  0.66985215  0.66747196  0.33190760  1
  Ni  Ni27  1  0.16735779  0.16640725  0.50179813  1
  Ni  Ni28  1  0.00341317  0.00094050  0.66722201  1
  Fe  Fe29  1  0.16733079  0.16737235  0.83420888  1
  Ni  Ni30  1  0.16493056  0.50146496  0.50193476  1
  Ni  Ni31  1  0.00090984  0.33335933  0.66801829  1
  Ni  Ni32  1  0.16775865  0.50090302  0.83357142  1
  Ni  Ni33  1  0.16592521  0.83397385  0.50046973  1
  Fe  Fe34  1  0.00236645  0.66587369  0.66713386  1
  Ni  Ni35  1  0.16902668  0.83336066  0.83429605  1
  Ni  Ni36  1  0.49977569  0.16642406  0.50169034  1
  Ni  Ni37  1  0.33121869  0.00104899  0.66781807  1
  Ni  Ni38  1  0.50127596  0.16750546  0.83319114  1
  Cr  Cr39  1  0.50094825  0.49956536  0.50046343  1
  Ni  Ni40  1  0.33309597  0.33293831  0.66801201  1
  Ni  Ni41  1  0.49979413  0.50011753  0.83445712  1
  Cr  Cr42  1  0.50094333  0.83605979  0.50090757  1
  Ni  Ni43  1  0.33365320  0.66796205  0.66899619  1
  Ni  Ni44  1  0.49836678  0.83448454  0.83413036  1
  Cr  Cr45  1  0.83263844  0.16691429  0.50026529  1
  Fe  Fe46  1  0.66585312  0.00238263  0.66860183  1
  Ni  Ni47  1  0.83356112  0.16894447  0.83442486  1
  Ni  Ni48  1  0.83606178  0.50169929  0.50087582  1
  Ni  Ni49  1  0.66780438  0.33596611  0.66881559  1
  Ni  Ni50  1  0.83455221  0.49826988  0.83402057  1
  Ni  Ni51  1  0.83610608  0.83282659  0.50121397  1
  Ni  Ni52  1  0.66814939  0.66547569  0.66836193  1
  Cr  Cr53  1  0.83438509  0.83540708  0.83367455  1
" 