8124,Ni85Cr15_18,-205.547481254386, 167.288254868288,Ni85Cr15,"# generated using pymatgen
 data_Cr5Ni
_symmetry_space_group_name_H-M   'P 1'
_cell_length_a   7.58759503
_cell_length_b   7.58759503
_cell_length_c   10.73047980
_cell_angle_alpha   90.00000000
_cell_angle_beta   90.00000000
_cell_angle_gamma   90.00000000
_symmetry_Int_Tables_number   1
_chemical_formula_structural   Cr5Ni
_chemical_formula_sum   'Cr45 Ni9'
_cell_volume   617.77087395
_cell_formula_units_Z   9
loop_
 _symmetry_equiv_pos_site_id
 _symmetry_equiv_pos_as_xyz
  1  'x, y, z'
loop_
 _atom_site_type_symbol
 _atom_site_label
 _atom_site_symmetry_multiplicity
 _atom_site_fract_x
 _atom_site_fract_y
 _atom_site_fract_z
 _atom_site_occupancy
  Cr  Cr0  1  0.99183809  0.99116030  0.99103258  1
  Cr  Cr1  1  0.15923728  0.16107341  0.15862627  1
  Cr  Cr2  1  0.99113188  -0.00741478  0.32559220  1
  Cr  Cr3  1  0.99160204  0.32689814  -0.00563361  1
  Ni  Ni4  1  0.15965878  0.49055129  0.15800108  1
  Cr  Cr5  1  0.99049428  0.32658984  0.32420962  1
  Cr  Cr6  1  -0.00635693  0.65812384  -0.00746750  1
  Cr  Cr7  1  0.15868847  0.82469499  0.15875683  1
  Cr  Cr8  1  -0.00699947  0.65700160  0.32376764  1
  Cr  Cr9  1  0.32658283  -0.00657515  0.98982551  1
  Ni  Ni10  1  0.49318328  0.16230593  0.15763493  1
  Cr  Cr11  1  0.32659009  0.99203665  0.32624536  1
  Ni  Ni12  1  0.32742805  0.32528368  -0.00602715  1
  Ni  Ni13  1  0.49132031  0.48878281  0.15800866  1
  Cr  Cr14  1  0.32663364  0.32654466  0.32378930  1
  Cr  Cr15  1  0.32353503  0.65702129  -0.00706443  1
  Cr  Cr16  1  0.49275627  0.82500108  0.15981466  1
  Cr  Cr17  1  0.32467452  0.65757429  0.32437592  1
  Cr  Cr18  1  0.65779546  -0.00452585  -0.00704690  1
  Ni  Ni19  1  0.82338251  0.16121797  0.15914019  1
  Cr  Cr20  1  0.65844686  -0.00542068  0.32374509  1
  Cr  Cr21  1  0.65672553  0.32390228  -0.00546722  1
  Ni  Ni22  1  0.82520806  0.48987443  0.15908076  1
  Cr  Cr23  1  0.65902464  0.32474473  0.32241930  1
  Cr  Cr24  1  0.65901801  0.65678985  -0.00660143  1
  Cr  Cr25  1  0.82472555  0.82565268  0.15880927  1
  Cr  Cr26  1  0.65849652  0.65686344  0.32454311  1
  Cr  Cr27  1  0.15839834  0.15929855  0.49188775  1
  Cr  Cr28  1  -0.00683533  0.99104867  0.65947395  1
  Cr  Cr29  1  0.16069370  0.15875555  0.82569355  1
  Cr  Cr30  1  0.15901423  0.49053320  0.49172409  1
  Cr  Cr31  1  0.99134637  0.32576765  0.65761600  1
  Cr  Cr32  1  0.15965392  0.49128639  0.82649397  1
  Cr  Cr33  1  0.15893939  0.82633751  0.49128919  1
  Cr  Cr34  1  -0.00780635  0.65933927  0.65982966  1
  Ni  Ni35  1  0.15881861  0.82582256  0.82482040  1
  Cr  Cr36  1  0.49111761  0.15869402  0.49213893  1
  Cr  Cr37  1  0.32545304  0.99162630  0.66002548  1
  Ni  Ni38  1  0.49058585  0.15926941  0.82624393  1
  Cr  Cr39  1  0.49294359  0.49359011  0.49361151  1
  Cr  Cr40  1  0.32663383  0.32455768  0.65927387  1
  Cr  Cr41  1  0.49227448  0.49101878  0.82464703  1
  Cr  Cr42  1  0.49360867  0.82389643  0.49210025  1
  Cr  Cr43  1  0.32524161  0.65996054  0.65880409  1
  Cr  Cr44  1  0.49248267  0.82528188  0.82426808  1
  Cr  Cr45  1  0.82666260  0.15862061  0.49171688  1
  Cr  Cr46  1  0.65757613  -0.00752388  0.65947076  1
  Cr  Cr47  1  0.82500209  0.15859824  0.82527141  1
  Cr  Cr48  1  0.82421205  0.49305198  0.49425526  1
  Cr  Cr49  1  0.65818702  0.32556275  0.65920742  1
  Cr  Cr50  1  0.82419464  0.49331393  0.82337250  1
  Cr  Cr51  1  0.82362453  0.82451923  0.49273273  1
  Ni  Ni52  1  0.65891752  0.65876386  0.65832482  1
  Cr  Cr53  1  0.82527682  0.82429529  0.82463573  1
" 