5085,Ni85Fe15_4,-230.916058359185, 171.181590009671,Ni85Fe15,"# generated using pymatgen
 data_Fe5Ni
_symmetry_space_group_name_H-M   'P 1'
_cell_length_a   7.40248718
_cell_length_b   7.40248718
_cell_length_c   10.46869777
_cell_angle_alpha   90.00000000
_cell_angle_beta   90.00000000
_cell_angle_gamma   90.00000000
_symmetry_Int_Tables_number   1
_chemical_formula_structural   Fe5Ni
_chemical_formula_sum   'Fe45 Ni9'
_cell_volume   573.65131046
_cell_formula_units_Z   9
loop_
 _symmetry_equiv_pos_site_id
 _symmetry_equiv_pos_as_xyz
  1  'x, y, z'
loop_
 _atom_site_type_symbol
 _atom_site_label
 _atom_site_symmetry_multiplicity
 _atom_site_fract_x
 _atom_site_fract_y
 _atom_site_fract_z
 _atom_site_occupancy
  Ni  Ni0  1  0.00448126  0.00468259  0.00436194  1
  Ni  Ni1  1  0.17090553  0.16988762  0.17126293  1
  Fe  Fe2  1  0.00478763  0.00512111  0.33670298  1
  Fe  Fe3  1  0.00452780  0.33642547  0.00458531  1
  Fe  Fe4  1  0.17094927  0.50419293  0.17136719  1
  Ni  Ni5  1  0.00466239  0.33779692  0.33728712  1
  Fe  Fe6  1  0.00452555  0.67187383  0.00461392  1
  Ni  Ni7  1  0.17173327  0.83843224  0.17061044  1
  Fe  Fe8  1  1.00435963  0.67043525  0.33778283  1
  Fe  Fe9  1  0.33633936  0.00452927  0.00478807  1
  Fe  Fe10  1  0.50320815  0.17046439  0.17111565  1
  Fe  Fe11  1  0.33662582  0.00483523  0.33710478  1
  Fe  Fe12  1  0.33679782  0.33670909  1.00427259  1
  Fe  Fe13  1  0.50314754  0.50444659  0.17084862  1
  Fe  Fe14  1  0.33702337  0.33743914  0.33735319  1
  Fe  Fe15  1  0.33705441  0.67184253  0.00461036  1
  Fe  Fe16  1  0.50329862  0.83817120  0.17111785  1
  Fe  Fe17  1  0.33696597  0.67080671  0.33744334  1
  Fe  Fe18  1  0.67178694  0.00452787  1.00345651  1
  Fe  Fe19  1  0.83918010  0.17037623  0.17102718  1
  Fe  Fe20  1  0.67166875  0.00517658  0.33868626  1
  Fe  Fe21  1  0.67175718  0.33714194  1.00411101  1
  Fe  Fe22  1  0.83898551  0.50428315  0.17193069  1
  Fe  Fe23  1  0.67204119  0.33786927  0.33819583  1
  Fe  Fe24  1  0.67150405  0.67141323  0.00444914  1
  Fe  Fe25  1  0.83892871  0.83842376  0.17059812  1
  Fe  Fe26  1  0.67175598  0.67003679  0.33785642  1
  Fe  Fe27  1  0.16979216  0.17201756  0.50401940  1
  Fe  Fe28  1  1.00368674  0.00503460  0.67201640  1
  Ni  Ni29  1  0.17029018  0.17039612  0.83746123  1
  Fe  Fe30  1  0.16970309  0.50363159  0.50419784  1
  Fe  Fe31  1  1.00329084  0.33671033  0.67037579  1
  Fe  Fe32  1  0.17063831  0.50329066  0.83751551  1
  Fe  Fe33  1  0.16998750  0.83743329  0.50379700  1
  Fe  Fe34  1  1.00363288  0.67133783  0.67068617  1
  Fe  Fe35  1  0.17021105  0.83883707  0.83851037  1
  Fe  Fe36  1  0.50576855  0.17124839  0.50461375  1
  Fe  Fe37  1  0.33803067  0.00443779  0.67118823  1
  Fe  Fe38  1  0.50461413  0.17086214  0.83735402  1
  Fe  Fe39  1  0.50533549  0.50388487  0.50436065  1
  Fe  Fe40  1  0.33809031  0.33696480  0.67145589  1
  Fe  Fe41  1  0.50418489  0.50323483  0.83787294  1
  Fe  Fe42  1  0.50582635  0.83794822  0.50469932  1
  Fe  Fe43  1  0.33834261  0.67167906  0.67102747  1
  Fe  Fe44  1  0.50470030  0.83898410  0.83726635  1
  Ni  Ni45  1  0.83759576  0.17217028  0.50412132  1
  Ni  Ni46  1  0.67115416  0.00438207  0.67143965  1
  Ni  Ni47  1  0.83832076  0.17121843  0.83793306  1
  Ni  Ni48  1  0.83677825  0.50362086  0.50476706  1
  Fe  Fe49  1  0.67170061  0.33701933  0.67077719  1
  Fe  Fe50  1  0.83825885  0.50338120  0.83721871  1
  Fe  Fe51  1  0.83726776  0.83786461  0.50470183  1
  Fe  Fe52  1  0.67110509  0.67127869  0.67077816  1
  Fe  Fe53  1  0.83817004  0.83926952  0.83778359  1
" 