5194,Ni85Fe9Cr4_8,-238.193982772125, 181.502197319839,Ni85Fe9Cr4,"# generated using pymatgen
 data_Cr2Fe2Ni23
_symmetry_space_group_name_H-M   'P 1'
_cell_length_a   7.44886458
_cell_length_b   7.44886458
_cell_length_c   10.53428531
_cell_angle_alpha   90.00000000
_cell_angle_beta   90.00000000
_cell_angle_gamma   90.00000000
_symmetry_Int_Tables_number   1
_chemical_formula_structural   Cr2Fe2Ni23
_chemical_formula_sum   'Cr4 Fe4 Ni46'
_cell_volume   584.50096759
_cell_formula_units_Z   2
loop_
 _symmetry_equiv_pos_site_id
 _symmetry_equiv_pos_as_xyz
  1  'x, y, z'
loop_
 _atom_site_type_symbol
 _atom_site_label
 _atom_site_symmetry_multiplicity
 _atom_site_fract_x
 _atom_site_fract_y
 _atom_site_fract_z
 _atom_site_occupancy
  Ni  Ni0  1  1.00012421  1.00090210  1.00045544  1
  Ni  Ni1  1  0.16582583  0.16898510  0.16907661  1
  Ni  Ni2  1  1.00121980  0.00182545  0.33524109  1
  Ni  Ni3  1  1.00093282  0.33479876  0.00208268  1
  Ni  Ni4  1  0.16956575  0.49948695  0.16659045  1
  Fe  Fe5  1  1.00001339  0.33244617  0.33389452  1
  Ni  Ni6  1  1.00113358  0.66789821  1.00111592  1
  Ni  Ni7  1  0.16832442  0.83512921  0.16844699  1
  Cr  Cr8  1  0.99927798  0.66894410  0.33308321  1
  Cr  Cr9  1  0.33363356  0.00287499  0.00242722  1
  Fe  Fe10  1  0.50255559  0.16910336  0.16863623  1
  Ni  Ni11  1  0.33425770  0.00197297  0.33485698  1
  Ni  Ni12  1  0.33468063  0.33585699  1.00059399  1
  Ni  Ni13  1  0.50091786  0.50248824  0.16810718  1
  Ni  Ni14  1  0.33651048  0.33324094  0.33360690  1
  Ni  Ni15  1  0.33280547  0.66558856  0.00231392  1
  Ni  Ni16  1  0.50259731  0.83276945  0.16934280  1
  Ni  Ni17  1  0.33630128  0.66848277  0.33373839  1
  Ni  Ni18  1  0.67066621  0.00289221  0.00251585  1
  Ni  Ni19  1  0.83585807  0.16735032  0.16818678  1
  Ni  Ni20  1  0.66824791  0.00185470  0.33413251  1
  Ni  Ni21  1  0.66808326  0.33461020  1.00055401  1
  Ni  Ni22  1  0.83317077  0.49971090  0.16752214  1
  Ni  Ni23  1  0.66730145  0.33449789  0.33539722  1
  Ni  Ni24  1  0.66975678  0.66631719  0.00237647  1
  Ni  Ni25  1  0.83291684  0.83628025  0.16649944  1
  Ni  Ni26  1  0.66731827  0.66735623  0.33508868  1
  Ni  Ni27  1  0.16767893  0.16702077  0.50113037  1
  Fe  Fe28  1  1.00055236  0.00180139  0.66802445  1
  Ni  Ni29  1  0.16638462  0.16947006  0.83352771  1
  Cr  Cr30  1  0.16936851  0.49852717  0.50131486  1
  Ni  Ni31  1  1.00001119  0.33487583  0.66787426  1
  Ni  Ni32  1  0.16791490  0.50057746  0.83537552  1
  Fe  Fe33  1  0.16856493  0.83625409  0.50175870  1
  Ni  Ni34  1  0.99985374  0.66809659  0.66920084  1
  Ni  Ni35  1  0.16582594  0.83379027  0.83303479  1
  Ni  Ni36  1  0.50092267  0.16727601  0.50085139  1
  Ni  Ni37  1  0.33416456  0.00278174  0.66632789  1
  Ni  Ni38  1  0.50225179  0.16988516  0.83411507  1
  Ni  Ni39  1  0.50202428  0.50193016  0.50166701  1
  Ni  Ni40  1  0.33542442  0.33288400  0.66925229  1
  Ni  Ni41  1  0.50089777  0.50020869  0.83388321  1
  Ni  Ni42  1  0.50210977  0.83455716  0.50055257  1
  Ni  Ni43  1  0.33372629  0.66815460  0.66760943  1
  Cr  Cr44  1  0.50336122  0.83303886  0.83433883  1
  Ni  Ni45  1  0.83502831  0.16724364  0.50104735  1
  Ni  Ni46  1  0.66798607  0.00283985  0.66712023  1
  Ni  Ni47  1  0.83503589  0.16785248  0.83451327  1
  Ni  Ni48  1  0.83232359  0.50039716  0.50180310  1
  Ni  Ni49  1  0.66812081  0.33396718  0.66767352  1
  Ni  Ni50  1  0.83480709  0.50090836  0.83438831  1
  Ni  Ni51  1  0.83203838  0.83600717  0.50211364  1
  Ni  Ni52  1  0.66998126  0.66690716  0.66639874  1
  Ni  Ni53  1  0.83555180  0.83499106  0.83512728  1
" 