5762,Ni85Fe9Cr4_2,-238.348723276054, 182.531096075483,Ni85Fe9Cr4,"# generated using pymatgen
 data_Cr2Fe2Ni23
_symmetry_space_group_name_H-M   'P 1'
_cell_length_a   7.44943934
_cell_length_b   7.44943934
_cell_length_c   10.53509815
_cell_angle_alpha   90.00000000
_cell_angle_beta   90.00000000
_cell_angle_gamma   90.00000000
_symmetry_Int_Tables_number   1
_chemical_formula_structural   Cr2Fe2Ni23
_chemical_formula_sum   'Cr4 Fe4 Ni46'
_cell_volume   584.63627980
_cell_formula_units_Z   2
loop_
 _symmetry_equiv_pos_site_id
 _symmetry_equiv_pos_as_xyz
  1  'x, y, z'
loop_
 _atom_site_type_symbol
 _atom_site_label
 _atom_site_symmetry_multiplicity
 _atom_site_fract_x
 _atom_site_fract_y
 _atom_site_fract_z
 _atom_site_occupancy
  Ni  Ni0  1  0.00176756  0.00122314  0.00175974  1
  Fe  Fe1  1  0.16786108  0.16844803  0.16812584  1
  Ni  Ni2  1  0.00134648  1.00050217  0.33478906  1
  Ni  Ni3  1  0.00213104  0.33464945  1.00036588  1
  Ni  Ni4  1  0.16805727  0.50124812  0.16830523  1
  Ni  Ni5  1  0.00244225  0.33358571  0.33350481  1
  Ni  Ni6  1  0.00233017  0.66774712  0.00230723  1
  Ni  Ni7  1  0.16799217  0.83427377  0.16762693  1
  Ni  Ni8  1  0.00260533  0.66929405  0.33318455  1
  Fe  Fe9  1  0.33472167  0.00194255  0.00161077  1
  Ni  Ni10  1  0.50137606  0.16789950  0.16797734  1
  Ni  Ni11  1  0.33483548  1.00078638  0.33385058  1
  Ni  Ni12  1  0.33504552  0.33485535  1.00084576  1
  Ni  Ni13  1  0.50064172  0.50070350  0.16833777  1
  Ni  Ni14  1  0.33507368  0.33459659  0.33519279  1
  Fe  Fe15  1  0.33453848  0.66706661  0.00172293  1
  Ni  Ni16  1  0.50091156  0.83502487  0.16762190  1
  Ni  Ni17  1  0.33418931  0.66823455  0.33406486  1
  Ni  Ni18  1  0.66699156  0.00185267  0.00189921  1
  Ni  Ni19  1  0.83418263  0.16782462  0.16757920  1
  Ni  Ni20  1  0.66737090  0.00130296  0.33447656  1
  Ni  Ni21  1  0.66647760  0.33413059  0.00131009  1
  Ni  Ni22  1  0.83484046  0.50072577  0.16720014  1
  Ni  Ni23  1  0.66629283  0.33321946  0.33268597  1
  Ni  Ni24  1  0.66694546  0.66754131  0.00133775  1
  Ni  Ni25  1  0.83461120  0.83498244  0.16846807  1
  Ni  Ni26  1  0.66640512  0.66927803  0.33400942  1
  Ni  Ni27  1  0.16833239  0.16771362  0.50097254  1
  Ni  Ni28  1  0.00227058  0.00286322  0.66696734  1
  Ni  Ni29  1  0.16833601  0.16775604  0.83469187  1
  Ni  Ni30  1  0.17036341  0.50015083  0.50027415  1
  Ni  Ni31  1  0.00384264  0.33224516  0.66965487  1
  Ni  Ni32  1  0.16905812  0.50018360  0.83512063  1
  Ni  Ni33  1  0.16937963  0.83572579  0.50033886  1
  Cr  Cr34  1  0.00447277  0.66797535  0.66757309  1
  Ni  Ni35  1  0.17026785  0.83562194  0.83581364  1
  Ni  Ni36  1  0.49975187  0.16679804  0.50006369  1
  Ni  Ni37  1  0.33479162  1.00101613  0.66868896  1
  Ni  Ni38  1  0.49978610  0.16689217  0.83555875  1
  Ni  Ni39  1  0.49788964  0.50189773  0.49987527  1
  Ni  Ni40  1  0.33360982  0.33470528  0.66747851  1
  Ni  Ni41  1  0.49941857  0.50177132  0.83541311  1
  Ni  Ni42  1  0.50014468  0.83505598  0.50138459  1
  Ni  Ni43  1  0.33530996  0.66798769  0.66850517  1
  Ni  Ni44  1  0.49909217  0.83502493  0.83477903  1
  Ni  Ni45  1  0.83550144  0.16574055  0.50058542  1
  Ni  Ni46  1  0.66629928  0.00122478  0.66695033  1
  Ni  Ni47  1  0.83542847  0.16822457  0.83538814  1
  Cr  Cr48  1  0.83484288  0.50036971  0.49859722  1
  Cr  Cr49  1  0.66611717  0.33248743  0.66966148  1
  Ni  Ni50  1  0.83497092  0.49922403  0.83746387  1
  Ni  Ni51  1  0.83375138  0.83761643  0.49966299  1
  Fe  Fe52  1  0.66510266  0.66860714  0.66765012  1
  Cr  Cr53  1  0.83370337  0.83600124  0.83454598  1
" 