474,Ni85Fe5Cr9_10,-236.403522829032, 172.276190600829,Ni85Fe5Cr9,"# generated using pymatgen
 data_Cr2FeNi15
_symmetry_space_group_name_H-M   'P 1'
_cell_length_a   7.45756154
_cell_length_b   7.45756154
_cell_length_c   10.54658468
_cell_angle_alpha   90.00000000
_cell_angle_beta   90.00000000
_cell_angle_gamma   90.00000000
_symmetry_Int_Tables_number   1
_chemical_formula_structural   Cr2FeNi15
_chemical_formula_sum   'Cr6 Fe3 Ni45'
_cell_volume   586.55067095
_cell_formula_units_Z   3
loop_
 _symmetry_equiv_pos_site_id
 _symmetry_equiv_pos_as_xyz
  1  'x, y, z'
loop_
 _atom_site_type_symbol
 _atom_site_label
 _atom_site_symmetry_multiplicity
 _atom_site_fract_x
 _atom_site_fract_y
 _atom_site_fract_z
 _atom_site_occupancy
  Ni  Ni0  1  0.00113731  0.00102451  0.00069645  1
  Ni  Ni1  1  0.16732072  0.16729464  0.16809408  1
  Ni  Ni2  1  0.99829723  0.00075586  0.33275958  1
  Ni  Ni3  1  1.00024116  0.33381707  0.00095904  1
  Ni  Ni4  1  0.16632538  0.49969341  0.16696963  1
  Ni  Ni5  1  1.00031443  0.33247622  0.33162956  1
  Ni  Ni6  1  0.00160378  0.66706629  0.00112480  1
  Ni  Ni7  1  0.16673156  0.83492299  0.16681674  1
  Ni  Ni8  1  0.99884879  0.66867810  0.33162061  1
  Ni  Ni9  1  0.33385624  0.99957874  0.00148103  1
  Ni  Ni10  1  0.50027555  0.16709598  0.16779063  1
  Fe  Fe11  1  0.33486486  0.00353088  0.33112659  1
  Fe  Fe12  1  0.33367096  0.33428427  0.00105059  1
  Ni  Ni13  1  0.50153426  0.50015568  0.16743205  1
  Ni  Ni14  1  0.33572961  0.33302496  0.33252078  1
  Ni  Ni15  1  0.33394085  0.66795924  1.00049570  1
  Ni  Ni16  1  0.50132750  0.83465867  0.16667773  1
  Cr  Cr17  1  0.33464249  0.66571268  0.33196110  1
  Ni  Ni18  1  0.66691491  0.00094153  0.00077692  1
  Ni  Ni19  1  0.83431180  0.16750340  0.16802666  1
  Ni  Ni20  1  0.66901557  0.00189212  0.33363933  1
  Ni  Ni21  1  0.66780820  0.33390247  0.00104008  1
  Ni  Ni22  1  0.83404843  0.50074209  0.16765882  1
  Ni  Ni23  1  0.66586420  0.33247668  0.33390364  1
  Ni  Ni24  1  0.66636312  0.66706406  0.00116030  1
  Ni  Ni25  1  0.83384947  0.83366285  0.16819036  1
  Ni  Ni26  1  0.66846738  0.66754060  0.33250586  1
  Cr  Cr27  1  0.16712171  0.16748281  0.50036406  1
  Ni  Ni28  1  0.99914481  1.00053240  0.66844801  1
  Ni  Ni29  1  0.16651329  0.16718892  0.83336329  1
  Cr  Cr30  1  0.16782326  0.49959985  0.50192795  1
  Ni  Ni31  1  1.00027491  0.33293870  0.66931798  1
  Ni  Ni32  1  0.16746578  0.50033005  0.83316318  1
  Cr  Cr33  1  0.16493292  0.83482647  0.50187777  1
  Ni  Ni34  1  0.00073278  0.66843723  0.66916298  1
  Ni  Ni35  1  0.16795505  0.83438834  0.83324320  1
  Ni  Ni36  1  0.50248110  0.16913100  0.50095262  1
  Ni  Ni37  1  0.33448409  0.00112481  0.66879841  1
  Fe  Fe38  1  0.50087823  0.16693230  0.83355927  1
  Ni  Ni39  1  0.50182748  0.49791881  0.50151233  1
  Ni  Ni40  1  0.33561827  0.33461588  0.66841123  1
  Ni  Ni41  1  0.50063214  0.50169130  0.83296220  1
  Cr  Cr42  1  0.50310417  0.83441840  0.50148016  1
  Ni  Ni43  1  0.33456925  0.66616906  0.66952581  1
  Ni  Ni44  1  0.50034266  0.83322847  0.83364514  1
  Ni  Ni45  1  0.83199228  0.16560686  0.50063642  1
  Ni  Ni46  1  0.66828113  0.00157968  0.66749065  1
  Ni  Ni47  1  0.83497228  0.16747919  0.83324429  1
  Cr  Cr48  1  0.83240566  0.50072794  0.50057984  1
  Ni  Ni49  1  0.66601603  0.33302654  0.66696626  1
  Ni  Ni50  1  0.83381013  0.50024728  0.83364486  1
  Ni  Ni51  1  0.83344361  0.83578424  0.50063944  1
  Ni  Ni52  1  0.66660528  0.66730008  0.66824081  1
  Ni  Ni53  1  0.83361011  0.83418155  0.83307736  1
" 