1405,Ni85Fe5Cr9_14,-236.31472467177, 173.742978833389,Ni85Fe5Cr9,"# generated using pymatgen
 data_Cr2FeNi15
_symmetry_space_group_name_H-M   'P 1'
_cell_length_a   7.45690953
_cell_length_b   7.45690953
_cell_length_c   10.54566259
_cell_angle_alpha   90.00000000
_cell_angle_beta   90.00000000
_cell_angle_gamma   90.00000000
_symmetry_Int_Tables_number   1
_chemical_formula_structural   Cr2FeNi15
_chemical_formula_sum   'Cr6 Fe3 Ni45'
_cell_volume   586.39683910
_cell_formula_units_Z   3
loop_
 _symmetry_equiv_pos_site_id
 _symmetry_equiv_pos_as_xyz
  1  'x, y, z'
loop_
 _atom_site_type_symbol
 _atom_site_label
 _atom_site_symmetry_multiplicity
 _atom_site_fract_x
 _atom_site_fract_y
 _atom_site_fract_z
 _atom_site_occupancy
  Ni  Ni0  1  1.00006673  1.00038432  0.00111465  1
  Ni  Ni1  1  0.16685866  0.16723649  0.16739545  1
  Ni  Ni2  1  0.99984865  0.00252534  0.33381016  1
  Ni  Ni3  1  0.00225515  0.33344137  0.00138856  1
  Ni  Ni4  1  0.16764310  0.49814668  0.16506686  1
  Ni  Ni5  1  1.00003210  0.33180059  0.33301631  1
  Ni  Ni6  1  0.00233579  0.66827148  0.00183898  1
  Ni  Ni7  1  0.16794236  0.83671003  0.16613816  1
  Cr  Cr8  1  0.99887067  0.66858021  0.33375681  1
  Ni  Ni9  1  0.33442238  1.00030909  0.00091222  1
  Fe  Fe10  1  0.49967603  0.16551534  0.16762585  1
  Ni  Ni11  1  0.33465026  0.00248260  0.33408766  1
  Ni  Ni12  1  0.33312589  0.33470739  1.00061277  1
  Ni  Ni13  1  0.50050886  0.50146676  0.16755971  1
  Ni  Ni14  1  0.33488753  0.33200414  0.33261364  1
  Ni  Ni15  1  0.33342679  0.66707773  0.00073370  1
  Ni  Ni16  1  0.50157321  0.83453572  0.16655396  1
  Cr  Cr17  1  0.33601895  0.66794516  0.33384227  1
  Ni  Ni18  1  0.66758742  0.99986227  1.00012152  1
  Ni  Ni19  1  0.83574162  0.16627146  0.16805264  1
  Ni  Ni20  1  0.66754877  1.00030972  0.33403158  1
  Cr  Cr21  1  0.66601579  0.33197415  0.00149984  1
  Ni  Ni22  1  0.83379614  0.50026360  0.16795239  1
  Fe  Fe23  1  0.66737466  0.33365884  0.33437498  1
  Fe  Fe24  1  0.66628776  0.66887297  0.00147991  1
  Ni  Ni25  1  0.83244093  0.83545456  0.16631791  1
  Ni  Ni26  1  0.66721599  0.66776641  0.33345062  1
  Ni  Ni27  1  0.16831809  0.16677827  0.49965913  1
  Cr  Cr28  1  1.00031242  1.00058589  0.66715356  1
  Ni  Ni29  1  0.16842697  0.16813333  0.83498497  1
  Cr  Cr30  1  0.16758578  0.49829161  0.50310004  1
  Ni  Ni31  1  1.00037319  0.33372037  0.66769206  1
  Ni  Ni32  1  0.16895574  0.50046876  0.83443713  1
  Ni  Ni33  1  0.16872648  0.83725444  0.50122523  1
  Ni  Ni34  1  1.00060216  0.66778786  0.66707027  1
  Ni  Ni35  1  0.16862126  0.83347465  0.83479636  1
  Ni  Ni36  1  0.50043428  0.16687036  0.50014734  1
  Ni  Ni37  1  0.33599443  0.00080531  0.66692193  1
  Ni  Ni38  1  0.49959254  0.16615954  0.83355389  1
  Ni  Ni39  1  0.50325947  0.50005117  0.50152459  1
  Ni  Ni40  1  0.33561377  0.33325383  0.66870811  1
  Ni  Ni41  1  0.49812302  0.50156800  0.83280777  1
  Ni  Ni42  1  0.50196033  0.83507205  0.50161033  1
  Ni  Ni43  1  0.33507162  0.66803821  0.66805674  1
  Ni  Ni44  1  0.50054791  0.83433030  0.83396979  1
  Ni  Ni45  1  0.83326964  0.16805526  0.50004231  1
  Ni  Ni46  1  0.66587925  0.00112180  0.66780945  1
  Ni  Ni47  1  0.83398321  0.16594895  0.83391113  1
  Ni  Ni48  1  0.83135273  0.49976872  0.50100577  1
  Ni  Ni49  1  0.66608157  0.33285480  0.66564313  1
  Cr  Cr50  1  0.83497890  0.50145134  0.83285068  1
  Ni  Ni51  1  0.83141348  0.83424461  0.50055229  1
  Ni  Ni52  1  0.66630735  0.66816986  0.66682359  1
  Ni  Ni53  1  0.83277018  0.83487424  0.83530131  1
" 