7783,Ni85Fe15_9,-230.610164679862, 170.934060242609,Ni85Fe15,"# generated using pymatgen
 data_Fe5Ni
_symmetry_space_group_name_H-M   'P 1'
_cell_length_a   7.39779677
_cell_length_b   7.39779677
_cell_length_c   10.46206452
_cell_angle_alpha   90.00000000
_cell_angle_beta   90.00000000
_cell_angle_gamma   90.00000000
_symmetry_Int_Tables_number   1
_chemical_formula_structural   Fe5Ni
_chemical_formula_sum   'Fe45 Ni9'
_cell_volume   572.56155892
_cell_formula_units_Z   9
loop_
 _symmetry_equiv_pos_site_id
 _symmetry_equiv_pos_as_xyz
  1  'x, y, z'
loop_
 _atom_site_type_symbol
 _atom_site_label
 _atom_site_symmetry_multiplicity
 _atom_site_fract_x
 _atom_site_fract_y
 _atom_site_fract_z
 _atom_site_occupancy
  Fe  Fe0  1  1.00467820  1.00467644  0.00468544  1
  Fe  Fe1  1  0.17135033  0.17134489  0.17134946  1
  Fe  Fe2  1  0.00469096  1.00467651  0.33801523  1
  Fe  Fe3  1  1.00467232  0.33800743  1.00467230  1
  Fe  Fe4  1  0.17135033  0.50468278  0.17135586  1
  Fe  Fe5  1  0.00468911  0.33801701  0.33802255  1
  Fe  Fe6  1  1.00467815  0.67135764  0.00468544  1
  Ni  Ni7  1  0.17134718  0.83801384  0.17134290  1
  Fe  Fe8  1  0.00469412  0.67134799  0.33801842  1
  Fe  Fe9  1  0.33801613  1.00467645  0.00468366  1
  Fe  Fe10  1  0.50467410  0.17134075  0.17134718  1
  Fe  Fe11  1  0.33800660  0.00468139  0.33801206  1
  Fe  Fe12  1  0.33802203  0.33800743  0.00468691  1
  Fe  Fe13  1  0.50467094  0.50468376  0.17135035  1
  Ni  Ni14  1  0.33799978  0.33801847  0.33801267  1
  Fe  Fe15  1  0.33801619  0.67135763  0.00468366  1
  Fe  Fe16  1  0.50467824  0.83801700  0.17134134  1
  Fe  Fe17  1  0.33800344  0.67134312  0.33801523  1
  Ni  Ni18  1  0.67134713  1.00467204  0.00468663  1
  Fe  Fe19  1  0.83801708  0.17133759  0.17134223  1
  Fe  Fe20  1  0.67134394  0.00468640  0.33801614  1
  Fe  Fe21  1  0.67134717  0.33800748  0.00468229  1
  Fe  Fe22  1  0.83802024  0.50468691  0.17134540  1
  Fe  Fe23  1  0.67133905  0.33801384  0.33801029  1
  Fe  Fe24  1  0.67134718  0.67135173  1.00467409  1
  Fe  Fe25  1  0.83801610  0.83801701  0.17134954  1
  Fe  Fe26  1  0.67134395  0.67134127  0.33802255  1
  Fe  Fe27  1  0.17134077  0.17134891  0.50468050  1
  Fe  Fe28  1  1.00466772  1.00467411  0.67134084  1
  Fe  Fe29  1  0.17134401  0.17135300  0.83801154  1
  Ni  Ni30  1  0.17135327  0.50468290  0.50468041  1
  Ni  Ni31  1  0.00469824  0.33801847  0.67133975  1
  Fe  Fe32  1  0.17134401  0.50467467  0.83800514  1
  Ni  Ni33  1  0.17133790  0.83800457  0.50468849  1
  Fe  Fe34  1  1.00467091  0.67135040  0.67133766  1
  Fe  Fe35  1  0.17134895  0.83801384  0.83801739  1
  Fe  Fe36  1  0.50467322  0.17133987  0.50467873  1
  Fe  Fe37  1  0.33801702  1.00467735  0.67134580  1
  Fe  Fe38  1  0.50468599  0.17133991  0.83801560  1
  Fe  Fe39  1  0.50467328  0.50469421  0.50467872  1
  Fe  Fe40  1  0.33801807  0.33801701  0.67133846  1
  Fe  Fe41  1  0.50468279  0.50468456  0.83801244  1
  Fe  Fe42  1  0.50468225  0.83800744  0.50468862  1
  Fe  Fe43  1  0.33801384  0.67134716  0.67134262  1
  Fe  Fe44  1  0.50469092  0.83801704  0.83801155  1
  Fe  Fe45  1  0.83802752  0.17133993  0.50468686  1
  Ni  Ni46  1  0.67134571  1.00465964  0.67134222  1
  Fe  Fe47  1  0.83801153  0.17134486  0.83801242  1
  Fe  Fe48  1  0.83802748  0.50469416  0.50468685  1
  Fe  Fe49  1  0.67135354  0.33801382  0.67134894  1
  Fe  Fe50  1  0.83801473  0.50467961  0.83800926  1
  Ni  Ni51  1  0.83801626  0.83801989  0.50468318  1
  Ni  Ni52  1  0.67134572  0.67136806  0.67134826  1
  Fe  Fe53  1  0.83800164  0.83801704  0.83800515  1
" 