2668,Ni85Cr15_10,-205.465415345349, 166.920470868889,Ni85Cr15,"# generated using pymatgen
 data_Cr5Ni
_symmetry_space_group_name_H-M   'P 1'
_cell_length_a   7.58911252
_cell_length_b   7.58911252
_cell_length_c   10.73262585
_cell_angle_alpha   90.00000000
_cell_angle_beta   90.00000000
_cell_angle_gamma   90.00000000
_symmetry_Int_Tables_number   1
_chemical_formula_structural   Cr5Ni
_chemical_formula_sum   'Cr45 Ni9'
_cell_volume   618.14160143
_cell_formula_units_Z   9
loop_
 _symmetry_equiv_pos_site_id
 _symmetry_equiv_pos_as_xyz
  1  'x, y, z'
loop_
 _atom_site_type_symbol
 _atom_site_label
 _atom_site_symmetry_multiplicity
 _atom_site_fract_x
 _atom_site_fract_y
 _atom_site_fract_z
 _atom_site_occupancy
  Cr  Cr0  1  0.98874570  0.99050837  0.99112636  1
  Cr  Cr1  1  0.15671876  0.15768740  0.15889488  1
  Ni  Ni2  1  -0.00768934  -0.00793266  0.32526002  1
  Cr  Cr3  1  0.98970124  0.32585603  0.98921953  1
  Cr  Cr4  1  0.15870786  0.49098329  0.15709862  1
  Cr  Cr5  1  -0.00616718  0.32439561  0.32678235  1
  Cr  Cr6  1  0.98951964  0.65929857  0.99108418  1
  Cr  Cr7  1  0.15749844  0.82755221  0.15852993  1
  Cr  Cr8  1  0.99120020  0.66047685  0.32387050  1
  Cr  Cr9  1  0.32812652  -0.00562240  0.99177812  1
  Ni  Ni10  1  0.49238803  0.15791631  0.15879760  1
  Cr  Cr11  1  0.32557461  -0.00577582  0.32644227  1
  Cr  Cr12  1  0.32731972  0.32249644  -0.00675243  1
  Cr  Cr13  1  0.49252897  0.49114391  0.15843323  1
  Cr  Cr14  1  0.32603681  0.32309339  0.32594790  1
  Cr  Cr15  1  0.32435222  0.65912006  -0.00707860  1
  Cr  Cr16  1  0.49308564  0.82580520  0.15803838  1
  Cr  Cr17  1  0.32457693  0.65862166  0.32533415  1
  Cr  Cr18  1  0.65887458  -0.00725464  0.99107903  1
  Cr  Cr19  1  0.82568328  0.15680317  0.16000209  1
  Cr  Cr20  1  0.65787653  -0.00754874  0.32400524  1
  Cr  Cr21  1  0.65849421  0.32274805  0.99076038  1
  Cr  Cr22  1  0.82466327  0.49029481  0.15949402  1
  Cr  Cr23  1  0.65612651  0.32306047  0.32552860  1
  Cr  Cr24  1  0.66208323  0.66018470  0.99195524  1
  Ni  Ni25  1  0.82653456  0.82731738  0.15992133  1
  Cr  Cr26  1  0.66004233  0.65982514  0.32411656  1
  Ni  Ni27  1  0.15938447  0.15705625  0.49042535  1
  Cr  Cr28  1  0.99091498  -0.00759109  0.65926499  1
  Cr  Cr29  1  0.15757125  0.15808606  0.82576366  1
  Cr  Cr30  1  0.15827534  0.49092432  0.49257042  1
  Cr  Cr31  1  0.99127347  0.32496420  0.65987636  1
  Cr  Cr32  1  0.15926639  0.49148955  0.82626275  1
  Cr  Cr33  1  0.15771010  0.82801727  0.49198406  1
  Cr  Cr34  1  0.98996023  0.65860441  0.66121954  1
  Cr  Cr35  1  0.15925255  0.82636244  0.82533326  1
  Ni  Ni36  1  0.49060751  0.15837337  0.49180662  1
  Cr  Cr37  1  0.32665015  -0.00489086  0.65738004  1
  Ni  Ni38  1  0.49460090  0.15899769  0.82521256  1
  Cr  Cr39  1  0.49328890  0.49225100  0.49214722  1
  Cr  Cr40  1  0.32596216  0.32227300  0.65650451  1
  Cr  Cr41  1  0.49272820  0.49185871  0.82532065  1
  Cr  Cr42  1  0.49273870  0.82558043  0.49344261  1
  Cr  Cr43  1  0.32409283  0.65884032  0.65761638  1
  Cr  Cr44  1  0.49202010  0.82573079  0.82432649  1
  Cr  Cr45  1  0.82669079  0.15766573  0.49055132  1
  Cr  Cr46  1  0.65837421  -0.00639152  0.66076766  1
  Ni  Ni47  1  0.82267640  0.15835764  0.82523401  1
  Cr  Cr48  1  0.82423463  0.49068764  0.49190269  1
  Cr  Cr49  1  0.65862924  0.32318999  0.65982134  1
  Ni  Ni50  1  0.82435032  0.49137150  0.82535549  1
  Cr  Cr51  1  0.82530601  0.82734293  0.49027228  1
  Cr  Cr52  1  0.66177586  0.65925737  0.65996493  1
  Ni  Ni53  1  0.82478728  0.82626229  0.82572959  1
" 