8489,Ni85Fe15_0,-230.722050113927, 170.896017982277,Ni85Fe15,"# generated using pymatgen
 data_Fe5Ni
_symmetry_space_group_name_H-M   'P 1'
_cell_length_a   7.39996583
_cell_length_b   7.39996583
_cell_length_c   10.46513204
_cell_angle_alpha   90.00000000
_cell_angle_beta   90.00000000
_cell_angle_gamma   90.00000000
_symmetry_Int_Tables_number   1
_chemical_formula_structural   Fe5Ni
_chemical_formula_sum   'Fe45 Ni9'
_cell_volume   573.06533781
_cell_formula_units_Z   9
loop_
 _symmetry_equiv_pos_site_id
 _symmetry_equiv_pos_as_xyz
  1  'x, y, z'
loop_
 _atom_site_type_symbol
 _atom_site_label
 _atom_site_symmetry_multiplicity
 _atom_site_fract_x
 _atom_site_fract_y
 _atom_site_fract_z
 _atom_site_occupancy
  Ni  Ni0  1  1.00446349  0.00519148  0.00474655  1
  Ni  Ni1  1  0.17088719  0.17035078  0.17144277  1
  Fe  Fe2  1  0.00462142  1.00453233  0.33671018  1
  Fe  Fe3  1  1.00381991  0.33685737  1.00444402  1
  Fe  Fe4  1  0.17128943  0.50453051  0.17146760  1
  Fe  Fe5  1  1.00412972  0.33722663  0.33770634  1
  Fe  Fe6  1  1.00353376  0.67252111  0.00478336  1
  Ni  Ni7  1  0.17088551  0.83871845  0.17067051  1
  Fe  Fe8  1  1.00421838  0.67183888  0.33779503  1
  Fe  Fe9  1  0.33758584  1.00422438  0.00469278  1
  Fe  Fe10  1  0.50397162  0.17030621  0.17194187  1
  Fe  Fe11  1  0.33837298  1.00453207  0.33804893  1
  Fe  Fe12  1  0.33801466  0.33679247  1.00444402  1
  Fe  Fe13  1  0.50347534  0.50478343  0.17076622  1
  Fe  Fe14  1  0.33843236  0.33679483  0.33786744  1
  Fe  Fe15  1  0.33829552  0.67258134  0.00478336  1
  Fe  Fe16  1  0.50422463  0.83850664  0.17151180  1
  Fe  Fe17  1  0.33834349  0.67227034  0.33795588  1
  Ni  Ni18  1  0.67204834  1.00380005  1.00409111  1
  Fe  Fe19  1  0.83876732  0.16987678  0.17103612  1
  Ni  Ni20  1  0.67108546  1.00442465  0.33820689  1
  Fe  Fe21  1  0.67176355  0.33756799  1.00444573  1
  Fe  Fe22  1  0.83883100  0.50478506  0.17103560  1
  Fe  Fe23  1  0.67103505  0.33719887  0.33829525  1
  Ni  Ni24  1  0.67065872  0.67170166  0.00474700  1
  Fe  Fe25  1  0.83851452  0.83893621  0.17060321  1
  Fe  Fe26  1  0.67103550  0.67177649  0.33763892  1
  Fe  Fe27  1  0.17226702  0.17081149  0.50471101  1
  Fe  Fe28  1  0.00496351  0.00478332  0.67219509  1
  Ni  Ni29  1  0.17088716  0.17118506  0.83783701  1
  Fe  Fe30  1  0.17233079  0.50462087  0.50461936  1
  Fe  Fe31  1  0.00478309  0.33779041  0.67144827  1
  Fe  Fe32  1  0.17128940  0.50394057  0.83751077  1
  Fe  Fe33  1  0.17226900  0.83816524  0.50405571  1
  Fe  Fe34  1  1.00453188  0.67102376  0.67101814  1
  Fe  Fe35  1  0.17085732  0.83853443  0.83850645  1
  Ni  Ni36  1  0.50473152  0.17056333  0.50473399  1
  Fe  Fe37  1  0.33802973  0.00478254  0.67085598  1
  Fe  Fe38  1  0.50428070  0.17112367  0.83737289  1
  Fe  Fe39  1  0.50444234  0.50453289  0.50462147  1
  Fe  Fe40  1  0.33777852  0.33735881  0.67128784  1
  Fe  Fe41  1  0.50412933  0.50422022  0.83821091  1
  Ni  Ni42  1  0.50514602  0.83819377  0.50431721  1
  Fe  Fe43  1  0.33803089  0.67145600  0.67085664  1
  Fe  Fe44  1  0.50456105  0.83825258  0.83771385  1
  Fe  Fe45  1  0.83636992  0.17038068  0.50428163  1
  Fe  Fe46  1  0.67060483  1.00453134  0.67042743  1
  Fe  Fe47  1  0.83845914  0.17069362  0.83827945  1
  Fe  Fe48  1  0.83682500  0.50453321  0.50462155  1
  Fe  Fe49  1  0.67103605  0.33779110  0.67085775  1
  Fe  Fe50  1  0.83817723  0.50422198  0.83794152  1
  Fe  Fe51  1  0.83645838  0.83868362  0.50437138  1
  Fe  Fe52  1  0.67103511  0.67127508  0.67160422  1
  Fe  Fe53  1  0.83817934  0.83868237  0.83862295  1
" 