8459,Ni85Fe5Cr9_12,-236.404092811987, 175.458521572528,Ni85Fe5Cr9,"# generated using pymatgen
 data_Cr2FeNi15
_symmetry_space_group_name_H-M   'P 1'
_cell_length_a   7.45587769
_cell_length_b   7.45587769
_cell_length_c   10.54420335
_cell_angle_alpha   90.00000000
_cell_angle_beta   90.00000000
_cell_angle_gamma   90.00000000
_symmetry_Int_Tables_number   1
_chemical_formula_structural   Cr2FeNi15
_chemical_formula_sum   'Cr6 Fe3 Ni45'
_cell_volume   586.15344590
_cell_formula_units_Z   3
loop_
 _symmetry_equiv_pos_site_id
 _symmetry_equiv_pos_as_xyz
  1  'x, y, z'
loop_
 _atom_site_type_symbol
 _atom_site_label
 _atom_site_symmetry_multiplicity
 _atom_site_fract_x
 _atom_site_fract_y
 _atom_site_fract_z
 _atom_site_occupancy
  Ni  Ni0  1  0.00162024  0.99963673  0.00128405  1
  Ni  Ni1  1  0.16811389  0.16760575  0.16771635  1
  Ni  Ni2  1  0.00180694  0.00222999  0.33360532  1
  Ni  Ni3  1  0.00142808  0.33500509  0.00171934  1
  Ni  Ni4  1  0.16753441  0.49973417  0.16758598  1
  Ni  Ni5  1  0.00236858  0.33353922  0.33492046  1
  Ni  Ni6  1  1.00047445  0.66760450  1.00072927  1
  Ni  Ni7  1  0.16734621  0.83490695  0.16714890  1
  Fe  Fe8  1  0.00190681  0.66677651  0.33319631  1
  Ni  Ni9  1  0.33299304  0.00152535  0.00167640  1
  Ni  Ni10  1  0.49957205  0.16653137  0.16581943  1
  Ni  Ni11  1  0.33292285  0.99907424  0.33377484  1
  Ni  Ni12  1  0.33425155  0.33418300  0.00079703  1
  Ni  Ni13  1  0.50047686  0.50113486  0.16645351  1
  Ni  Ni14  1  0.33022008  0.33454834  0.33245447  1
  Ni  Ni15  1  0.33331804  0.66654007  0.00163523  1
  Ni  Ni16  1  0.50173939  0.83458107  0.16847748  1
  Ni  Ni17  1  0.33401045  0.66862458  0.33374084  1
  Ni  Ni18  1  0.66763518  1.00057055  0.00286774  1
  Fe  Fe19  1  0.83493919  0.16645588  0.16694709  1
  Ni  Ni20  1  0.66751911  0.99843592  0.33277576  1
  Ni  Ni21  1  0.66656689  0.33532995  0.00141401  1
  Ni  Ni22  1  0.83423633  0.50190242  0.16651374  1
  Cr  Cr23  1  0.66939958  0.33452561  0.33278297  1
  Ni  Ni24  1  0.66845457  0.66634830  0.00154704  1
  Ni  Ni25  1  0.83316209  0.83400438  0.16682393  1
  Ni  Ni26  1  0.66650596  0.66918275  0.33270412  1
  Ni  Ni27  1  0.16548598  0.16760495  0.50083331  1
  Ni  Ni28  1  0.00234107  0.00080974  0.66735634  1
  Ni  Ni29  1  0.16867240  0.16755128  0.83369816  1
  Ni  Ni30  1  0.16575112  0.49996160  0.50071292  1
  Ni  Ni31  1  0.00108048  0.33489970  0.66560712  1
  Ni  Ni32  1  0.16788111  0.50008144  0.83394719  1
  Ni  Ni33  1  0.16919522  0.83468120  0.50115056  1
  Ni  Ni34  1  0.00127741  0.66653594  0.66798418  1
  Ni  Ni35  1  0.16587905  0.83461575  0.83394750  1
  Cr  Cr36  1  0.49993597  0.16497890  0.50249051  1
  Ni  Ni37  1  0.33240730  1.00047846  0.66679679  1
  Fe  Fe38  1  0.49900975  0.16925940  0.83438925  1
  Cr  Cr39  1  0.49993561  0.50320120  0.50147312  1
  Ni  Ni40  1  0.33259404  0.33415813  0.66899642  1
  Ni  Ni41  1  0.50089250  0.49935195  0.83413627  1
  Ni  Ni42  1  0.49951356  0.83435604  0.50020438  1
  Ni  Ni43  1  0.33273186  0.66761114  0.66686947  1
  Cr  Cr44  1  0.50115884  0.83361064  0.83361350  1
  Ni  Ni45  1  0.83675664  0.16815402  0.50105067  1
  Ni  Ni46  1  0.66749706  1.00067364  0.66660654  1
  Cr  Cr47  1  0.83468074  0.16699729  0.83409703  1
  Ni  Ni48  1  0.83643133  0.49946868  0.50222583  1
  Ni  Ni49  1  0.66857085  0.33522434  0.66806061  1
  Ni  Ni50  1  0.83347220  0.50214306  0.83350769  1
  Cr  Cr51  1  0.83325213  0.83441197  0.50151028  1
  Ni  Ni52  1  0.66823886  0.66635013  0.66799434  1
  Ni  Ni53  1  0.83528376  0.83274156  0.83407809  1
" 