3344,Ni85Cr15_14,-205.834321554914, 172.750490766118,Ni85Cr15,"# generated using pymatgen
 data_Cr5Ni
_symmetry_space_group_name_H-M   'P 1'
_cell_length_a   7.58133158
_cell_length_b   7.58133158
_cell_length_c   10.72162194
_cell_angle_alpha   90.00000000
_cell_angle_beta   90.00000000
_cell_angle_gamma   90.00000000
_symmetry_Int_Tables_number   1
_chemical_formula_structural   Cr5Ni
_chemical_formula_sum   'Cr45 Ni9'
_cell_volume   616.24225284
_cell_formula_units_Z   9
loop_
 _symmetry_equiv_pos_site_id
 _symmetry_equiv_pos_as_xyz
  1  'x, y, z'
loop_
 _atom_site_type_symbol
 _atom_site_label
 _atom_site_symmetry_multiplicity
 _atom_site_fract_x
 _atom_site_fract_y
 _atom_site_fract_z
 _atom_site_occupancy
  Cr  Cr0  1  -0.00722642  0.99233330  0.99107710  1
  Cr  Cr1  1  0.16070981  0.15990661  0.16024742  1
  Cr  Cr2  1  0.99186678  0.99141373  0.32606953  1
  Cr  Cr3  1  0.99074262  0.32743598  -0.00733684  1
  Cr  Cr4  1  0.15976076  0.49268317  0.16197760  1
  Cr  Cr5  1  0.99135947  0.32852662  0.32626684  1
  Cr  Cr6  1  -0.00732772  0.65742672  -0.00569928  1
  Cr  Cr7  1  0.15769453  0.82498116  0.15926338  1
  Ni  Ni8  1  0.99217881  0.65583573  0.32562851  1
  Cr  Cr9  1  0.32563759  0.99055897  0.99170156  1
  Cr  Cr10  1  0.49104927  0.16160943  0.16069851  1
  Cr  Cr11  1  0.32732717  0.99130328  0.32674382  1
  Cr  Cr12  1  0.32469442  0.32631244  0.99160730  1
  Cr  Cr13  1  0.49250164  0.49152701  0.15913326  1
  Ni  Ni14  1  0.32660329  0.32820062  0.32736641  1
  Cr  Cr15  1  0.32456779  0.66060444  0.99031004  1
  Cr  Cr16  1  0.49203709  0.82453977  0.15910806  1
  Cr  Cr17  1  0.32478844  0.65949289  0.32850982  1
  Cr  Cr18  1  0.65909004  -0.00744975  -0.00588364  1
  Cr  Cr19  1  0.82551584  0.15988785  0.16038065  1
  Cr  Cr20  1  0.65793062  -0.00734908  0.32660132  1
  Cr  Cr21  1  0.66187520  0.32627064  -0.00644076  1
  Ni  Ni22  1  0.82568389  0.49232414  0.16217763  1
  Ni  Ni23  1  0.65821789  0.32823400  0.32412752  1
  Cr  Cr24  1  0.66049877  0.65825518  -0.00645997  1
  Cr  Cr25  1  0.82753803  0.82293994  0.16055966  1
  Cr  Cr26  1  0.65978780  0.65928229  0.32629760  1
  Cr  Cr27  1  0.15900419  0.16044723  0.49214374  1
  Ni  Ni28  1  -0.00580365  0.98984657  0.66059099  1
  Cr  Cr29  1  0.15855410  0.15711117  0.82506767  1
  Ni  Ni30  1  0.15923249  0.49307996  0.48938324  1
  Cr  Cr31  1  -0.00664156  0.32571679  0.65883139  1
  Cr  Cr32  1  0.15991906  0.49406951  0.82536921  1
  Cr  Cr33  1  0.15664729  0.82487760  0.49200827  1
  Cr  Cr34  1  -0.00577370  0.65738514  0.65807623  1
  Ni  Ni35  1  0.15768566  0.82640713  0.82460253  1
  Cr  Cr36  1  0.49217475  0.16129758  0.48948375  1
  Cr  Cr37  1  0.32569439  0.99065596  0.65852251  1
  Cr  Cr38  1  0.49219279  0.16046432  0.82686472  1
  Cr  Cr39  1  0.49223291  0.49281388  0.49294007  1
  Cr  Cr40  1  0.32407576  0.32717078  0.65783376  1
  Cr  Cr41  1  0.49352867  0.49321022  0.82488744  1
  Ni  Ni42  1  0.49324818  0.82393761  0.49392920  1
  Cr  Cr43  1  0.32620347  0.65992519  0.65797900  1
  Cr  Cr44  1  0.49351618  0.82404706  0.82500476  1
  Cr  Cr45  1  0.82640352  0.15834466  0.49386421  1
  Cr  Cr46  1  0.65796695  0.99125324  0.65697204  1
  Cr  Cr47  1  0.82645738  0.15718522  0.82328368  1
  Cr  Cr48  1  0.82529832  0.49402260  0.49201314  1
  Cr  Cr49  1  0.65988737  0.32705708  0.65948307  1
  Cr  Cr50  1  0.82408668  0.49483069  0.82493336  1
  Cr  Cr51  1  0.82620094  0.82475491  0.49394018  1
  Ni  Ni52  1  0.65845054  0.66079627  0.65778596  1
  Cr  Cr53  1  0.82744529  0.82519591  0.82316422  1
" 