5392,Ni85Fe5Cr9_0,-236.491680664929, 175.570214642188,Ni85Fe5Cr9,"# generated using pymatgen
 data_Cr2FeNi15
_symmetry_space_group_name_H-M   'P 1'
_cell_length_a   7.45753764
_cell_length_b   7.45753764
_cell_length_c   10.54655087
_cell_angle_alpha   90.00000000
_cell_angle_beta   90.00000000
_cell_angle_gamma   90.00000000
_symmetry_Int_Tables_number   1
_chemical_formula_structural   Cr2FeNi15
_chemical_formula_sum   'Cr6 Fe3 Ni45'
_cell_volume   586.54503120
_cell_formula_units_Z   3
loop_
 _symmetry_equiv_pos_site_id
 _symmetry_equiv_pos_as_xyz
  1  'x, y, z'
loop_
 _atom_site_type_symbol
 _atom_site_label
 _atom_site_symmetry_multiplicity
 _atom_site_fract_x
 _atom_site_fract_y
 _atom_site_fract_z
 _atom_site_occupancy
  Cr  Cr0  1  0.00154728  0.00204312  0.00085206  1
  Ni  Ni1  1  0.16833813  0.16844207  0.16823498  1
  Ni  Ni2  1  0.00071119  0.00274460  0.33346004  1
  Fe  Fe3  1  0.00294513  0.33312663  0.99933310  1
  Ni  Ni4  1  0.17036189  0.49843320  0.16747978  1
  Ni  Ni5  1  0.00163456  0.33116366  0.33417659  1
  Cr  Cr6  1  0.00141902  0.66825369  0.99962371  1
  Ni  Ni7  1  0.16936492  0.83498684  0.16826383  1
  Cr  Cr8  1  0.00233385  0.66886982  0.33513340  1
  Ni  Ni9  1  0.33485729  0.00325063  0.99956326  1
  Ni  Ni10  1  0.50071402  0.16836148  0.16726485  1
  Ni  Ni11  1  0.33318383  0.00286078  0.33420565  1
  Ni  Ni12  1  0.33474977  0.33321669  1.00027558  1
  Ni  Ni13  1  0.49795486  0.49810124  0.16638322  1
  Ni  Ni14  1  0.33468619  0.33326962  0.33444770  1
  Ni  Ni15  1  0.33501427  0.66522549  0.99985537  1
  Cr  Cr16  1  0.49972993  0.83518603  0.16626219  1
  Ni  Ni17  1  0.33343257  0.66569213  0.33445594  1
  Ni  Ni18  1  0.66728048  0.00195729  0.99909852  1
  Ni  Ni19  1  0.83304400  0.16651141  0.16812129  1
  Ni  Ni20  1  0.66803326  0.00373441  0.33530570  1
  Fe  Fe21  1  0.66467449  0.33239572  0.99915655  1
  Cr  Cr22  1  0.83273381  0.49732962  0.16613971  1
  Ni  Ni23  1  0.66557508  0.33122043  0.33418971  1
  Ni  Ni24  1  0.66620791  0.66712252  0.99871717  1
  Ni  Ni25  1  0.83305865  0.83725568  0.16754707  1
  Cr  Cr26  1  0.66548404  0.66632008  0.33639962  1
  Ni  Ni27  1  0.16705807  0.16733275  0.50076513  1
  Ni  Ni28  1  0.00110399  0.00098359  0.66746996  1
  Ni  Ni29  1  0.16812484  0.16827340  0.83285362  1
  Ni  Ni30  1  0.16795123  0.49930151  0.50181119  1
  Ni  Ni31  1  1.00050648  0.33300467  0.66828887  1
  Ni  Ni32  1  0.16820972  0.49953435  0.83273644  1
  Ni  Ni33  1  0.16881248  0.83520526  0.50131961  1
  Ni  Ni34  1  1.00004216  0.66780422  0.66752014  1
  Ni  Ni35  1  0.16963107  0.83397406  0.83239142  1
  Ni  Ni36  1  0.50040687  0.16714103  0.50049078  1
  Ni  Ni37  1  0.33316844  0.00192450  0.66828000  1
  Ni  Ni38  1  0.50031052  0.16696533  0.83383552  1
  Ni  Ni39  1  0.49953636  0.49955704  0.50118632  1
  Ni  Ni40  1  0.33503030  0.33309486  0.66713956  1
  Ni  Ni41  1  0.50042825  0.50070964  0.83433499  1
  Ni  Ni42  1  0.49891098  0.83518848  0.50181062  1
  Ni  Ni43  1  0.33474904  0.66692689  0.66761536  1
  Ni  Ni44  1  0.50015555  0.83403752  0.83416210  1
  Ni  Ni45  1  0.83431121  0.16806366  0.50035709  1
  Fe  Fe46  1  0.66657395  0.00148808  0.66725559  1
  Ni  Ni47  1  0.83334828  0.16825362  0.83315629  1
  Ni  Ni48  1  0.83432113  0.49792405  0.50285573  1
  Ni  Ni49  1  0.66633199  0.33442558  0.66765239  1
  Ni  Ni50  1  0.83334818  0.49954890  0.83303086  1
  Ni  Ni51  1  0.83390024  0.83630147  0.50250513  1
  Ni  Ni52  1  0.66713578  0.66619126  0.66758345  1
  Ni  Ni53  1  0.83195327  0.83420019  0.83207609  1
" 