6329,Ni85Fe14Cr0_16,-241.497358098061, 195.271106089164,Ni85Fe14Cr0,"# generated using pymatgen
 data_CrFe7Ni46
_symmetry_space_group_name_H-M   'P 1'
_cell_length_a   7.43831403
_cell_length_b   7.43831403
_cell_length_c   10.51936458
_cell_angle_alpha   90.00000000
_cell_angle_beta   90.00000000
_cell_angle_gamma   90.00000000
_symmetry_Int_Tables_number   1
_chemical_formula_structural   CrFe7Ni46
_chemical_formula_sum   'Cr1 Fe7 Ni46'
_cell_volume   582.02082769
_cell_formula_units_Z   1
loop_
 _symmetry_equiv_pos_site_id
 _symmetry_equiv_pos_as_xyz
  1  'x, y, z'
loop_
 _atom_site_type_symbol
 _atom_site_label
 _atom_site_symmetry_multiplicity
 _atom_site_fract_x
 _atom_site_fract_y
 _atom_site_fract_z
 _atom_site_occupancy
  Ni  Ni0  1  1.00110202  1.00101348  0.00391847  1
  Ni  Ni1  1  0.16870870  0.16915515  0.16886590  1
  Ni  Ni2  1  0.00296553  0.00195841  0.33535388  1
  Ni  Ni3  1  1.00102212  0.33608339  0.00295052  1
  Fe  Fe4  1  0.16806141  0.50205681  0.16739182  1
  Ni  Ni5  1  0.00200600  0.33594477  0.33530197  1
  Ni  Ni6  1  0.00204469  0.66875050  1.00177743  1
  Ni  Ni7  1  0.16871737  0.83496396  0.16847969  1
  Ni  Ni8  1  0.00212026  0.66810958  0.33530323  1
  Ni  Ni9  1  0.33625576  1.00101957  0.00291222  1
  Ni  Ni10  1  0.50175374  0.16910715  0.16847152  1
  Ni  Ni11  1  0.33534130  0.00196748  0.33486468  1
  Ni  Ni12  1  0.33611532  0.33592761  0.00304451  1
  Fe  Fe13  1  0.50269041  0.50207654  0.16749511  1
  Fe  Fe14  1  0.33537517  0.33426054  0.33508704  1
  Ni  Ni15  1  0.33515213  0.66886768  0.00193148  1
  Ni  Ni16  1  0.50197860  0.83470209  0.16884039  1
  Fe  Fe17  1  0.33521024  0.66973040  0.33508574  1
  Ni  Ni18  1  0.66840588  0.00205160  0.00266501  1
  Ni  Ni19  1  0.83531398  0.16951199  0.16956109  1
  Ni  Ni20  1  0.66748756  0.00203136  0.33535685  1
  Ni  Ni21  1  0.66858646  0.33503387  1.00173912  1
  Fe  Fe22  1  0.83505485  0.50206989  0.16898173  1
  Ni  Ni23  1  0.66845141  0.33582402  0.33531575  1
  Ni  Ni24  1  0.66860985  0.66876109  0.00197812  1
  Ni  Ni25  1  0.83512213  0.83425917  0.16990938  1
  Ni  Ni26  1  0.66844193  0.66799799  0.33531502  1
  Ni  Ni27  1  0.16912555  0.16886924  0.50122549  1
  Ni  Ni28  1  1.00132092  1.00093234  0.66646104  1
  Cr  Cr29  1  0.16852989  0.16806304  0.83557772  1
  Fe  Fe30  1  0.16744619  0.50205803  0.50306982  1
  Ni  Ni31  1  1.00100671  0.33618021  0.66767423  1
  Ni  Ni32  1  0.16870057  0.50317196  0.83520136  1
  Ni  Ni33  1  0.16913991  0.83522614  0.50160479  1
  Ni  Ni34  1  0.00199312  0.66856914  0.66884913  1
  Ni  Ni35  1  0.16863982  0.83289715  0.83562367  1
  Ni  Ni36  1  0.50135948  0.16881742  0.50161529  1
  Ni  Ni37  1  0.33624855  1.00102751  0.66793889  1
  Ni  Ni38  1  0.50343555  0.16914172  0.83562272  1
  Fe  Fe39  1  0.50325875  0.50208530  0.50296623  1
  Ni  Ni40  1  0.33619431  0.33580281  0.66734060  1
  Ni  Ni41  1  0.50200524  0.50213570  0.83520334  1
  Ni  Ni42  1  0.50157625  0.83497155  0.50126540  1
  Ni  Ni43  1  0.33516503  0.66902946  0.66848535  1
  Ni  Ni44  1  0.50205100  0.83457185  0.83562896  1
  Ni  Ni45  1  0.83531448  0.17018955  0.50115262  1
  Ni  Ni46  1  0.66815061  0.00203676  0.66774661  1
  Ni  Ni47  1  0.83370066  0.16902003  0.83515883  1
  Ni  Ni48  1  0.83517928  0.50207257  0.50153327  1
  Ni  Ni49  1  0.66868697  0.33518450  0.66887173  1
  Ni  Ni50  1  0.83509649  0.50211885  0.83595809  1
  Ni  Ni51  1  0.83511789  0.83359325  0.50082024  1
  Ni  Ni52  1  0.66866908  0.66861101  0.66864412  1
  Ni  Ni53  1  0.83509161  0.83468554  0.83516147  1
" 