8231,Ni85Cr15_15,-205.637322997343, 166.203731371645,Ni85Cr15,"# generated using pymatgen
 data_Cr5Ni
_symmetry_space_group_name_H-M   'P 1'
_cell_length_a   7.58803108
_cell_length_b   7.58803108
_cell_length_c   10.73109647
_cell_angle_alpha   90.00000000
_cell_angle_beta   90.00000000
_cell_angle_gamma   90.00000000
_symmetry_Int_Tables_number   1
_chemical_formula_structural   Cr5Ni
_chemical_formula_sum   'Cr45 Ni9'
_cell_volume   617.87738712
_cell_formula_units_Z   9
loop_
 _symmetry_equiv_pos_site_id
 _symmetry_equiv_pos_as_xyz
  1  'x, y, z'
loop_
 _atom_site_type_symbol
 _atom_site_label
 _atom_site_symmetry_multiplicity
 _atom_site_fract_x
 _atom_site_fract_y
 _atom_site_fract_z
 _atom_site_occupancy
  Cr  Cr0  1  -0.00726191  -0.00763381  -0.00715378  1
  Cr  Cr1  1  0.15751133  0.15944031  0.15820448  1
  Cr  Cr2  1  -0.00678824  0.99102056  0.32420439  1
  Cr  Cr3  1  0.99007112  0.32473148  0.99152635  1
  Cr  Cr4  1  0.15899808  0.49422450  0.15806365  1
  Cr  Cr5  1  0.99087209  0.32587783  0.32497812  1
  Cr  Cr6  1  -0.00625058  0.65945976  0.98950842  1
  Cr  Cr7  1  0.15761806  0.82235072  0.15892122  1
  Ni  Ni8  1  -0.00745770  0.65857369  0.32833344  1
  Cr  Cr9  1  0.32478200  0.98879562  0.99020552  1
  Cr  Cr10  1  0.49263813  0.15870808  0.15948891  1
  Cr  Cr11  1  0.32422410  0.99087055  0.32726531  1
  Cr  Cr12  1  0.32523656  0.32645708  -0.00634657  1
  Cr  Cr13  1  0.49001754  0.49392277  0.15751637  1
  Cr  Cr14  1  0.32538496  0.32499637  0.32500412  1
  Ni  Ni15  1  0.32495133  0.66185888  0.98960433  1
  Cr  Cr16  1  0.49216397  0.82339196  0.15709062  1
  Cr  Cr17  1  0.32344040  0.66027705  0.32559499  1
  Cr  Cr18  1  0.65859639  -0.00787628  -0.00618784  1
  Ni  Ni19  1  0.82558474  0.15962955  0.15874852  1
  Cr  Cr20  1  0.65889722  -0.00692383  0.32254784  1
  Cr  Cr21  1  0.66066114  0.32542476  -0.00744220  1
  Cr  Cr22  1  0.82685682  0.49449439  0.15935554  1
  Cr  Cr23  1  0.65978190  0.32552587  0.32540924  1
  Cr  Cr24  1  0.65642663  0.65906434  0.98884750  1
  Cr  Cr25  1  0.82626785  0.82549115  0.16072730  1
  Cr  Cr26  1  0.65974370  0.65762310  0.32729355  1
  Cr  Cr27  1  0.15958805  0.15693430  0.49470763  1
  Cr  Cr28  1  -0.00370127  0.98903855  0.65927654  1
  Cr  Cr29  1  0.15957899  0.15751921  0.82343924  1
  Cr  Cr30  1  0.15697012  0.49387251  0.48973816  1
  Cr  Cr31  1  0.99005908  0.32823499  0.65958394  1
  Cr  Cr32  1  0.15857554  0.49318295  0.82797272  1
  Ni  Ni33  1  0.15858107  0.82487220  0.49228510  1
  Cr  Cr34  1  -0.00762282  0.65832241  0.65799084  1
  Ni  Ni35  1  0.16317562  0.82489948  0.82499223  1
  Cr  Cr36  1  0.49129248  0.15769603  0.49422719  1
  Ni  Ni37  1  0.32386430  0.98725748  0.65970658  1
  Cr  Cr38  1  0.49110568  0.15692631  0.82266449  1
  Cr  Cr39  1  0.49266248  0.49206144  0.49119822  1
  Cr  Cr40  1  0.32483186  0.32509698  0.65746590  1
  Cr  Cr41  1  0.49122323  0.49341017  0.82710096  1
  Cr  Cr42  1  0.49173822  0.82648259  0.49321444  1
  Cr  Cr43  1  0.32433431  0.66228674  0.65989479  1
  Ni  Ni44  1  0.48719435  0.82519096  0.82555623  1
  Cr  Cr45  1  0.82536967  0.15785981  0.49261911  1
  Cr  Cr46  1  0.65618958  0.98972486  0.65992294  1
  Cr  Cr47  1  0.82553430  0.15849399  0.82561007  1
  Ni  Ni48  1  0.82740197  0.49338596  0.49081210  1
  Cr  Cr49  1  0.66100777  0.32865538  0.65823038  1
  Ni  Ni50  1  0.82536738  0.49272943  0.82495900  1
  Cr  Cr51  1  0.82771551  0.82362140  0.48955602  1
  Cr  Cr52  1  0.65930400  0.65725138  0.65971059  1
  Cr  Cr53  1  0.82520326  0.82472837  0.82576760  1
" 