4644,Ni85Fe12Cr2_8,-239.756255640744, 191.67767420278,Ni85Fe12Cr2,"# generated using pymatgen
 data_CrFe2Ni15
_symmetry_space_group_name_H-M   'P 1'
_cell_length_a   7.44025851
_cell_length_b   7.44025851
_cell_length_c   10.52211449
_cell_angle_alpha   90.00000000
_cell_angle_beta   90.00000000
_cell_angle_gamma   90.00000000
_symmetry_Int_Tables_number   1
_chemical_formula_structural   CrFe2Ni15
_chemical_formula_sum   'Cr3 Fe6 Ni45'
_cell_volume   582.47739213
_cell_formula_units_Z   3
loop_
 _symmetry_equiv_pos_site_id
 _symmetry_equiv_pos_as_xyz
  1  'x, y, z'
loop_
 _atom_site_type_symbol
 _atom_site_label
 _atom_site_symmetry_multiplicity
 _atom_site_fract_x
 _atom_site_fract_y
 _atom_site_fract_z
 _atom_site_occupancy
  Cr  Cr0  1  1.00158126  1.00094701  1.00109977  1
  Fe  Fe1  1  0.16914395  0.16976629  0.16876098  1
  Ni  Ni2  1  1.00106102  1.00079206  0.33556033  1
  Ni  Ni3  1  1.00108762  0.33597799  0.00336996  1
  Ni  Ni4  1  0.16832817  0.50218549  0.16801172  1
  Fe  Fe5  1  1.00104438  0.33576945  0.33538883  1
  Ni  Ni6  1  1.00114177  0.66804826  0.00313145  1
  Ni  Ni7  1  0.16792696  0.83327800  0.16845711  1
  Ni  Ni8  1  0.00221682  0.67006238  0.33461463  1
  Ni  Ni9  1  0.33559381  0.00269518  1.00146571  1
  Ni  Ni10  1  0.50250116  0.17007313  0.16760465  1
  Fe  Fe11  1  0.33482749  0.00198701  0.33632239  1
  Ni  Ni12  1  0.33609171  0.33432031  0.00269134  1
  Ni  Ni13  1  0.50113091  0.49963260  0.16770460  1
  Ni  Ni14  1  0.33586859  0.33559739  0.33514739  1
  Ni  Ni15  1  0.33471328  0.66838687  0.00185384  1
  Cr  Cr16  1  0.50187888  0.83559528  0.16871975  1
  Ni  Ni17  1  0.33358427  0.66676793  0.33620942  1
  Ni  Ni18  1  0.66788362  0.00275360  1.00127729  1
  Ni  Ni19  1  0.83352301  0.16967009  0.16893800  1
  Ni  Ni20  1  0.67065246  0.00307920  0.33572806  1
  Ni  Ni21  1  0.66822576  0.33510151  0.00190566  1
  Ni  Ni22  1  0.83594085  0.50108170  0.16766610  1
  Ni  Ni23  1  0.66735714  0.33444353  0.33509716  1
  Ni  Ni24  1  0.66955080  0.66754626  1.00106688  1
  Ni  Ni25  1  0.83608529  0.83465378  0.16871903  1
  Ni  Ni26  1  0.66960003  0.66787799  0.33615908  1
  Ni  Ni27  1  0.16880402  0.16900265  0.50183110  1
  Fe  Fe28  1  0.00191962  0.00190672  0.66817616  1
  Ni  Ni29  1  0.16925879  0.16802486  0.83488780  1
  Ni  Ni30  1  0.16879804  0.50175804  0.50194707  1
  Ni  Ni31  1  1.00118576  0.33444736  0.66710296  1
  Cr  Cr32  1  0.16787778  0.50158441  0.83517384  1
  Ni  Ni33  1  0.16922298  0.83464398  0.50234438  1
  Ni  Ni34  1  1.00117494  0.66923532  0.66765157  1
  Ni  Ni35  1  0.17058757  0.83594738  0.83459751  1
  Ni  Ni36  1  0.50189182  0.16830976  0.50214401  1
  Ni  Ni37  1  0.33491028  0.00193932  0.66815947  1
  Fe  Fe38  1  0.50205166  0.16743857  0.83526726  1
  Ni  Ni39  1  0.50135183  0.50190319  0.50208053  1
  Ni  Ni40  1  0.33533371  0.33381784  0.66755429  1
  Fe  Fe41  1  0.50365421  0.50240872  0.83518979  1
  Ni  Ni42  1  0.50162299  0.83518440  0.50171983  1
  Ni  Ni43  1  0.33512909  0.66964311  0.66733772  1
  Ni  Ni44  1  0.50169726  0.83572178  0.83553449  1
  Ni  Ni45  1  0.83470476  0.16873605  0.50207343  1
  Ni  Ni46  1  0.66846818  0.00192986  0.66839756  1
  Ni  Ni47  1  0.83417448  0.16969908  0.83439059  1
  Ni  Ni48  1  0.83524821  0.50148785  0.50201924  1
  Ni  Ni49  1  0.66888548  0.33466485  0.66839094  1
  Ni  Ni50  1  0.83394661  0.50115821  0.83571894  1
  Ni  Ni51  1  0.83455803  0.83518218  0.50180907  1
  Ni  Ni52  1  0.66909996  0.66880562  0.66817543  1
  Ni  Ni53  1  0.83311604  0.83454372  0.83486903  1
" 