5995,Ni85Fe9Cr4_12,-238.233303501577, 182.099334728289,Ni85Fe9Cr4,"# generated using pymatgen
 data_Cr2Fe2Ni23
_symmetry_space_group_name_H-M   'P 1'
_cell_length_a   7.44948390
_cell_length_b   7.44948390
_cell_length_c   10.53516117
_cell_angle_alpha   90.00000000
_cell_angle_beta   90.00000000
_cell_angle_gamma   90.00000000
_symmetry_Int_Tables_number   1
_chemical_formula_structural   Cr2Fe2Ni23
_chemical_formula_sum   'Cr4 Fe4 Ni46'
_cell_volume   584.64677191
_cell_formula_units_Z   2
loop_
 _symmetry_equiv_pos_site_id
 _symmetry_equiv_pos_as_xyz
  1  'x, y, z'
loop_
 _atom_site_type_symbol
 _atom_site_label
 _atom_site_symmetry_multiplicity
 _atom_site_fract_x
 _atom_site_fract_y
 _atom_site_fract_z
 _atom_site_occupancy
  Ni  Ni0  1  0.00207164  0.00186239  1.00022808  1
  Ni  Ni1  1  0.16797082  0.16745700  0.16747022  1
  Ni  Ni2  1  0.00181499  0.00205019  0.33566748  1
  Ni  Ni3  1  1.00080712  0.33446529  0.00135708  1
  Fe  Fe4  1  0.16813850  0.50088829  0.16751142  1
  Ni  Ni5  1  0.00157189  0.33373290  0.33375959  1
  Ni  Ni6  1  0.00188935  0.66721014  1.00028498  1
  Ni  Ni7  1  0.16949737  0.83502468  0.16837062  1
  Ni  Ni8  1  0.00251311  0.66775234  0.33470858  1
  Ni  Ni9  1  0.33463171  1.00085007  0.00159964  1
  Ni  Ni10  1  0.50029291  0.16866918  0.16858161  1
  Ni  Ni11  1  0.33488624  1.00104174  0.33429841  1
  Ni  Ni12  1  0.33470084  0.33428245  1.00094000  1
  Ni  Ni13  1  0.50150395  0.50105432  0.16792795  1
  Ni  Ni14  1  0.33393584  0.33355076  0.33417687  1
  Ni  Ni15  1  0.33462957  0.66840379  1.00111163  1
  Ni  Ni16  1  0.49876526  0.83381347  0.16810331  1
  Ni  Ni17  1  0.33400598  0.66894416  0.33388313  1
  Ni  Ni18  1  0.66683316  0.00193395  1.00020196  1
  Ni  Ni19  1  0.83527217  0.17019703  0.16858214  1
  Ni  Ni20  1  0.66683489  0.00198369  0.33596255  1
  Ni  Ni21  1  0.66802841  0.33446345  0.00136201  1
  Ni  Ni22  1  0.83406135  0.49952856  0.16792804  1
  Ni  Ni23  1  0.66802875  0.33284801  0.33277854  1
  Ni  Ni24  1  0.66701782  0.66713963  1.00031436  1
  Cr  Cr25  1  0.83502631  0.83422859  0.16767999  1
  Ni  Ni26  1  0.66701922  0.66870472  0.33375282  1
  Ni  Ni27  1  0.16701879  0.16829930  0.50080329  1
  Ni  Ni28  1  0.99908145  1.00117735  0.66763902  1
  Fe  Fe29  1  0.16700198  0.16873572  0.83531680  1
  Fe  Fe30  1  0.16790584  0.50061332  0.50173871  1
  Ni  Ni31  1  0.00162470  0.33409347  0.66841818  1
  Ni  Ni32  1  0.16802943  0.50180461  0.83388711  1
  Fe  Fe33  1  0.16694004  0.83475532  0.50027335  1
  Ni  Ni34  1  0.00162609  0.66826562  0.66854118  1
  Ni  Ni35  1  0.16683491  0.83308827  0.83499792  1
  Ni  Ni36  1  0.50086117  0.16700249  0.50011293  1
  Cr  Cr37  1  0.33524336  1.00117679  0.66786309  1
  Ni  Ni38  1  0.50203357  0.16906705  0.83484349  1
  Cr  Cr39  1  0.49998478  0.50111780  0.50189124  1
  Ni  Ni40  1  0.33393799  0.33562057  0.66841831  1
  Ni  Ni41  1  0.50065752  0.50101825  0.83400777  1
  Ni  Ni42  1  0.50183103  0.83509294  0.50016730  1
  Ni  Ni43  1  0.33393925  0.66673943  0.66854215  1
  Ni  Ni44  1  0.50142818  0.83345205  0.83526529  1
  Ni  Ni45  1  0.83565617  0.16581097  0.50093935  1
  Ni  Ni46  1  0.66949644  1.00117840  0.66737014  1
  Ni  Ni47  1  0.83448683  0.16787192  0.83401549  1
  Cr  Cr48  1  0.83535240  0.50146844  0.50133820  1
  Ni  Ni49  1  0.66797210  0.33307122  0.66939810  1
  Ni  Ni50  1  0.83484978  0.50120106  0.83442444  1
  Ni  Ni51  1  0.83487289  0.83610459  0.50153755  1
  Ni  Ni52  1  0.66796984  0.66928660  0.66946927  1
  Ni  Ni53  1  0.83527240  0.83446374  0.83389542  1
" 