7015,Ni85Fe9Cr4_11,-238.357353589505, 183.245896556729,Ni85Fe9Cr4,"# generated using pymatgen
 data_Cr2Fe2Ni23
_symmetry_space_group_name_H-M   'P 1'
_cell_length_a   7.44852025
_cell_length_b   7.44852025
_cell_length_c   10.53379835
_cell_angle_alpha   90.00000000
_cell_angle_beta   90.00000000
_cell_angle_gamma   90.00000000
_symmetry_Int_Tables_number   1
_chemical_formula_structural   Cr2Fe2Ni23
_chemical_formula_sum   'Cr4 Fe4 Ni46'
_cell_volume   584.41991369
_cell_formula_units_Z   2
loop_
 _symmetry_equiv_pos_site_id
 _symmetry_equiv_pos_as_xyz
  1  'x, y, z'
loop_
 _atom_site_type_symbol
 _atom_site_label
 _atom_site_symmetry_multiplicity
 _atom_site_fract_x
 _atom_site_fract_y
 _atom_site_fract_z
 _atom_site_occupancy
  Ni  Ni0  1  1.00076853  0.99837775  0.99981538  1
  Cr  Cr1  1  0.17030349  0.16705372  0.16901152  1
  Ni  Ni2  1  0.00133217  0.99890840  0.33491140  1
  Cr  Cr3  1  0.99973556  0.33615389  0.99981511  1
  Ni  Ni4  1  0.16842798  0.50354206  0.16858797  1
  Ni  Ni5  1  1.00103100  0.33665481  0.33492799  1
  Ni  Ni6  1  1.00068283  0.66984649  0.00152710  1
  Ni  Ni7  1  0.16733227  0.83330548  0.16789995  1
  Ni  Ni8  1  1.00087614  0.66819257  0.33407869  1
  Ni  Ni9  1  0.33406696  0.99873835  1.00096966  1
  Ni  Ni10  1  0.50224443  0.16786796  0.16807649  1
  Ni  Ni11  1  0.33572348  0.99984591  0.33632766  1
  Ni  Ni12  1  0.33684199  0.33636918  1.00101698  1
  Ni  Ni13  1  0.50166452  0.50104352  0.16723636  1
  Ni  Ni14  1  0.33596133  0.33559534  0.33573186  1
  Ni  Ni15  1  0.33526789  0.66862061  0.00173926  1
  Ni  Ni16  1  0.50161484  0.83465057  0.16726806  1
  Ni  Ni17  1  0.33528387  0.66840080  0.33371330  1
  Fe  Fe18  1  0.66805598  0.99939293  0.00169470  1
  Fe  Fe19  1  0.83336507  0.16719959  0.16857219  1
  Ni  Ni20  1  0.66658810  0.99976245  0.33271307  1
  Ni  Ni21  1  0.66731578  0.33621988  0.00251473  1
  Ni  Ni22  1  0.83355660  0.50351169  0.16899780  1
  Ni  Ni23  1  0.66673266  0.33593979  0.33320913  1
  Ni  Ni24  1  0.66783155  0.66708492  0.99985609  1
  Ni  Ni25  1  0.83462032  0.83345089  0.16760946  1
  Ni  Ni26  1  0.66755880  0.66802224  0.33582132  1
  Ni  Ni27  1  0.16942820  0.16802700  0.50274002  1
  Ni  Ni28  1  0.00157060  0.99980130  0.66917906  1
  Fe  Fe29  1  0.16759880  0.16696897  0.83315824  1
  Ni  Ni30  1  0.16771579  0.50159647  0.50044921  1
  Ni  Ni31  1  0.00125081  0.33572724  0.66923835  1
  Ni  Ni32  1  0.16874492  0.50341758  0.83462906  1
  Ni  Ni33  1  0.16751944  0.83409658  0.50042557  1
  Ni  Ni34  1  0.00205864  0.66810443  0.66811284  1
  Ni  Ni35  1  0.16768152  0.83350224  0.83534176  1
  Ni  Ni36  1  0.49989766  0.16789404  0.50072118  1
  Ni  Ni37  1  0.33426453  0.99913152  0.66664267  1
  Cr  Cr38  1  0.50111223  0.16812050  0.83453398  1
  Ni  Ni39  1  0.50104552  0.50102484  0.50160740  1
  Ni  Ni40  1  0.33435476  0.33625175  0.66727730  1
  Ni  Ni41  1  0.50086681  0.50213983  0.83494002  1
  Ni  Ni42  1  0.50136801  0.83484472  0.50156632  1
  Ni  Ni43  1  0.33414917  0.66830050  0.66817276  1
  Ni  Ni44  1  0.50064092  0.83331027  0.83468804  1
  Cr  Cr45  1  0.83416245  0.16768903  0.49987303  1
  Ni  Ni46  1  0.66785176  1.00008203  0.66841108  1
  Ni  Ni47  1  0.83425495  0.16700406  0.83493041  1
  Ni  Ni48  1  0.83497502  0.50297249  0.50171598  1
  Ni  Ni49  1  0.66805057  0.33563679  0.66795454  1
  Ni  Ni50  1  0.83413137  0.50208083  0.83318970  1
  Ni  Ni51  1  0.83485487  0.83306472  0.50170376  1
  Fe  Fe52  1  0.66746062  0.66820603  0.66802077  1
  Ni  Ni53  1  0.83536541  0.83441191  0.83429322  1
" 