4572,Ni85Fe15_2,-230.510810943238, 169.620478300444,Ni85Fe15,"# generated using pymatgen
 data_Fe5Ni
_symmetry_space_group_name_H-M   'P 1'
_cell_length_a   7.40001601
_cell_length_b   7.40001601
_cell_length_c   10.46520300
_cell_angle_alpha   90.00000000
_cell_angle_beta   90.00000000
_cell_angle_gamma   90.00000000
_symmetry_Int_Tables_number   1
_chemical_formula_structural   Fe5Ni
_chemical_formula_sum   'Fe45 Ni9'
_cell_volume   573.07699636
_cell_formula_units_Z   9
loop_
 _symmetry_equiv_pos_site_id
 _symmetry_equiv_pos_as_xyz
  1  'x, y, z'
loop_
 _atom_site_type_symbol
 _atom_site_label
 _atom_site_symmetry_multiplicity
 _atom_site_fract_x
 _atom_site_fract_y
 _atom_site_fract_z
 _atom_site_occupancy
  Fe  Fe0  1  0.00476141  1.00366758  1.00451359  1
  Fe  Fe1  1  0.16991740  0.17119440  0.17128893  1
  Fe  Fe2  1  0.00505842  1.00390654  0.33761436  1
  Ni  Ni3  1  1.00341036  0.33784804  1.00443574  1
  Ni  Ni4  1  0.17132057  0.50451387  0.17140071  1
  Fe  Fe5  1  0.00521396  0.33780132  0.33683187  1
  Fe  Fe6  1  0.00479367  0.67093077  0.00532744  1
  Ni  Ni7  1  0.17089011  0.83755140  0.17097285  1
  Fe  Fe8  1  0.00502856  0.67187827  0.33698851  1
  Fe  Fe9  1  0.33709938  1.00452187  0.00529573  1
  Fe  Fe10  1  0.50435905  0.17083919  0.17164702  1
  Ni  Ni11  1  0.33763542  1.00354111  0.33741969  1
  Fe  Fe12  1  0.33706619  0.33865887  0.00460753  1
  Fe  Fe13  1  0.50436141  0.50606960  0.17093192  1
  Fe  Fe14  1  0.33769167  0.33740938  0.33787610  1
  Ni  Ni15  1  0.33787749  0.67231462  0.00530867  1
  Fe  Fe16  1  0.50390854  0.83667993  0.17128941  1
  Fe  Fe17  1  0.33733221  0.67172098  0.33692600  1
  Fe  Fe18  1  0.67172573  1.00399927  1.00434530  1
  Fe  Fe19  1  0.83930893  0.17164812  0.17093093  1
  Fe  Fe20  1  0.67083798  1.00426553  0.33768995  1
  Fe  Fe21  1  0.67120382  0.33862635  1.00410965  1
  Ni  Ni22  1  0.83829261  0.50495068  0.17085084  1
  Fe  Fe23  1  0.67068258  0.33744367  0.33846725  1
  Fe  Fe24  1  0.67205750  0.67096343  0.00470130  1
  Ni  Ni25  1  0.83828365  0.83755400  0.17165925  1
  Fe  Fe26  1  0.67122724  0.67187897  0.33752038  1
  Fe  Fe27  1  0.17145834  0.17083704  0.50435637  1
  Fe  Fe28  1  1.00358184  0.00476296  0.67145842  1
  Fe  Fe29  1  0.17024656  0.17077371  0.83794029  1
  Fe  Fe30  1  0.17119457  0.50453038  0.50412182  1
  Fe  Fe31  1  1.00409635  0.33786509  0.67169639  1
  Fe  Fe32  1  0.17069697  0.50512365  0.83889357  1
  Fe  Fe33  1  0.17164759  0.83821818  0.50376694  1
  Fe  Fe34  1  1.00358169  0.67095950  0.67127133  1
  Fe  Fe35  1  0.17111980  0.83769172  0.83843797  1
  Fe  Fe36  1  0.50453102  0.17119533  0.50452882  1
  Fe  Fe37  1  0.33845359  0.00530745  0.67041582  1
  Fe  Fe38  1  0.50547886  0.17077551  0.83741143  1
  Fe  Fe39  1  0.50488853  0.50426594  0.50507543  1
  Fe  Fe40  1  0.33848738  0.33786329  0.67110516  1
  Fe  Fe41  1  0.50512191  0.50521547  0.83758274  1
  Fe  Fe42  1  0.50407670  0.83812480  0.50426391  1
  Fe  Fe43  1  0.33845180  0.67041671  0.67179018  1
  Fe  Fe44  1  0.50469731  0.83759918  0.83803529  1
  Fe  Fe45  1  0.83759963  0.17164877  0.50498013  1
  Fe  Fe46  1  0.67155182  0.00479617  0.67155209  1
  Fe  Fe47  1  0.83786091  0.17119680  0.83767623  1
  Fe  Fe48  1  0.83750558  0.50407610  0.50429101  1
  Ni  Ni49  1  0.67206466  0.33785796  0.67141973  1
  Fe  Fe50  1  0.83776813  0.50434261  0.83817459  1
  Fe  Fe51  1  0.83786276  0.83786224  0.50471519  1
  Fe  Fe52  1  0.67155383  0.67092811  0.67136486  1
  Ni  Ni53  1  0.83765021  0.83796181  0.83729756  1
" 