1489,Ni85Fe9Cr4_9,-238.294901676975, 182.699245551663,Ni85Fe9Cr4,"# generated using pymatgen
 data_Cr2Fe2Ni23
_symmetry_space_group_name_H-M   'P 1'
_cell_length_a   7.45394581
_cell_length_b   7.45394581
_cell_length_c   10.54147126
_cell_angle_alpha   90.00000000
_cell_angle_beta   90.00000000
_cell_angle_gamma   90.00000000
_symmetry_Int_Tables_number   1
_chemical_formula_structural   Cr2Fe2Ni23
_chemical_formula_sum   'Cr4 Fe4 Ni46'
_cell_volume   585.69793296
_cell_formula_units_Z   2
loop_
 _symmetry_equiv_pos_site_id
 _symmetry_equiv_pos_as_xyz
  1  'x, y, z'
loop_
 _atom_site_type_symbol
 _atom_site_label
 _atom_site_symmetry_multiplicity
 _atom_site_fract_x
 _atom_site_fract_y
 _atom_site_fract_z
 _atom_site_occupancy
  Ni  Ni0  1  0.00235166  1.00083144  1.00062456  1
  Ni  Ni1  1  0.16742058  0.16755429  0.16702826  1
  Ni  Ni2  1  0.00213337  0.00263012  0.33387247  1
  Ni  Ni3  1  0.00124614  0.33495848  1.00085456  1
  Ni  Ni4  1  0.16763526  0.50120713  0.16779048  1
  Ni  Ni5  1  0.00106616  0.33398183  0.33486526  1
  Ni  Ni6  1  0.00115249  0.66683175  1.00081644  1
  Ni  Ni7  1  0.16754887  0.83397201  0.16808970  1
  Ni  Ni8  1  0.00314881  0.66602121  0.33312835  1
  Ni  Ni9  1  0.33304855  0.99971060  0.00110322  1
  Ni  Ni10  1  0.50092113  0.16780829  0.16768676  1
  Ni  Ni11  1  0.33410872  0.00154727  0.33490366  1
  Fe  Fe12  1  0.33304485  0.33524277  0.00170133  1
  Ni  Ni13  1  0.49978349  0.50002625  0.16656024  1
  Ni  Ni14  1  0.33379381  0.33368503  0.33365691  1
  Ni  Ni15  1  0.33399102  0.66832095  1.00012717  1
  Ni  Ni16  1  0.49950372  0.83487861  0.16677594  1
  Ni  Ni17  1  0.33268394  0.66742560  0.33529101  1
  Ni  Ni18  1  0.66722997  0.99957977  0.00260796  1
  Ni  Ni19  1  0.83432666  0.16770488  0.16799624  1
  Ni  Ni20  1  0.66648072  0.00365746  0.33320372  1
  Ni  Ni21  1  0.66878333  0.33606100  0.00194297  1
  Ni  Ni22  1  0.83517321  0.49982529  0.16685421  1
  Ni  Ni23  1  0.66777591  0.33268647  0.33517890  1
  Ni  Ni24  1  0.66747550  0.66711405  0.99987023  1
  Ni  Ni25  1  0.83557236  0.83516045  0.16603814  1
  Cr  Cr26  1  0.66644202  0.66652555  0.33292232  1
  Ni  Ni27  1  0.16792979  0.16784792  0.50119456  1
  Fe  Fe28  1  0.00352729  0.99921188  0.66750843  1
  Ni  Ni29  1  0.16768466  0.16763759  0.83433371  1
  Ni  Ni30  1  0.16790841  0.50102071  0.50045260  1
  Fe  Fe31  1  0.00270173  0.33540005  0.66702932  1
  Ni  Ni32  1  0.16779437  0.50129066  0.83448276  1
  Ni  Ni33  1  0.16917749  0.83362115  0.50062887  1
  Ni  Ni34  1  0.00155638  0.66550889  0.66852830  1
  Ni  Ni35  1  0.16771293  0.83369338  0.83384127  1
  Ni  Ni36  1  0.50065148  0.16785523  0.50056859  1
  Ni  Ni37  1  0.33407782  0.00119393  0.66684963  1
  Cr  Cr38  1  0.49942170  0.16775010  0.83548046  1
  Ni  Ni39  1  0.49941877  0.50003117  0.50187601  1
  Ni  Ni40  1  0.33234843  0.33439221  0.66770568  1
  Ni  Ni41  1  0.50035802  0.50261429  0.83424160  1
  Ni  Ni42  1  0.49871834  0.83496131  0.50191231  1
  Ni  Ni43  1  0.33370009  0.66717581  0.66726331  1
  Ni  Ni44  1  0.50071700  0.83297440  0.83384471  1
  Ni  Ni45  1  0.83405030  0.16887319  0.50096985  1
  Ni  Ni46  1  0.66631086  1.00000823  0.66670262  1
  Cr  Cr47  1  0.83502065  0.16712214  0.83370091  1
  Ni  Ni48  1  0.83525275  0.49890431  0.50186221  1
  Fe  Fe49  1  0.66573270  0.33634313  0.66638778  1
  Ni  Ni50  1  0.83440606  0.50242547  0.83413418  1
  Cr  Cr51  1  0.83559945  0.83444285  0.50054443  1
  Ni  Ni52  1  0.66747448  0.66736628  0.66908559  1
  Ni  Ni53  1  0.83436370  0.83284307  0.83483722  1
" 