4660,Ni85Fe15_16,-230.813115807824, 172.281849166886,Ni85Fe15,"# generated using pymatgen
 data_Fe5Ni
_symmetry_space_group_name_H-M   'P 1'
_cell_length_a   7.39827875
_cell_length_b   7.39827875
_cell_length_c   10.46274615
_cell_angle_alpha   90.00000000
_cell_angle_beta   90.00000000
_cell_angle_gamma   90.00000000
_symmetry_Int_Tables_number   1
_chemical_formula_structural   Fe5Ni
_chemical_formula_sum   'Fe45 Ni9'
_cell_volume   572.67347787
_cell_formula_units_Z   9
loop_
 _symmetry_equiv_pos_site_id
 _symmetry_equiv_pos_as_xyz
  1  'x, y, z'
loop_
 _atom_site_type_symbol
 _atom_site_label
 _atom_site_symmetry_multiplicity
 _atom_site_fract_x
 _atom_site_fract_y
 _atom_site_fract_z
 _atom_site_occupancy
  Fe  Fe0  1  1.00453571  0.00522263  1.00464732  1
  Fe  Fe1  1  0.17239287  0.17179766  0.17140504  1
  Fe  Fe2  1  0.00475791  0.00522265  0.33797765  1
  Fe  Fe3  1  0.00501416  0.33748118  1.00439333  1
  Fe  Fe4  1  0.17197860  0.50448777  0.17030249  1
  Fe  Fe5  1  1.00446244  0.33757148  0.33832693  1
  Fe  Fe6  1  0.00489988  0.67123942  1.00439324  1
  Fe  Fe7  1  0.17204591  0.83765618  0.17184205  1
  Fe  Fe8  1  1.00439406  0.67114946  0.33832619  1
  Fe  Fe9  1  0.33839716  0.00515764  0.00531360  1
  Fe  Fe10  1  0.50464696  0.17173136  0.17140456  1
  Ni  Ni11  1  0.33733582  1.00389056  0.33732570  1
  Ni  Ni12  1  0.33776656  0.33875869  1.00464689  1
  Ni  Ni13  1  0.50464222  0.50443200  0.17186893  1
  Fe  Fe14  1  0.33865187  0.33763248  0.33697273  1
  Fe  Fe15  1  0.33881221  0.67052725  1.00430177  1
  Fe  Fe16  1  0.50464731  0.83807144  0.17140537  1
  Fe  Fe17  1  0.33880638  0.67117130  0.33773052  1
  Ni  Ni18  1  0.67153201  1.00431799  0.00476493  1
  Fe  Fe19  1  0.83690225  0.17179787  0.17122066  1
  Fe  Fe20  1  0.67080461  0.00506729  0.33731482  1
  Fe  Fe21  1  0.67029479  0.33789577  0.00473822  1
  Fe  Fe22  1  0.83731705  0.50448766  0.17250701  1
  Ni  Ni23  1  0.67176300  0.33863762  0.33720611  1
  Fe  Fe24  1  0.67023168  0.67100521  0.00473824  1
  Fe  Fe25  1  0.83724866  0.83765746  0.17078454  1
  Fe  Fe26  1  0.67074232  0.67087532  0.33798465  1
  Fe  Fe27  1  0.17100068  0.17136213  0.50430025  1
  Fe  Fe28  1  1.00407460  0.00522211  0.67131783  1
  Fe  Fe29  1  0.17214196  0.17264385  0.83823470  1
  Fe  Fe30  1  0.17053675  0.50482818  0.50531369  1
  Fe  Fe31  1  1.00414285  0.33839585  0.67122286  1
  Ni  Ni32  1  0.17227455  0.50442726  0.83797322  1
  Fe  Fe33  1  0.17099541  0.83774997  0.50430251  1
  Fe  Fe34  1  1.00407561  0.67032565  0.67122365  1
  Fe  Fe35  1  0.17179726  0.83681213  0.83779450  1
  Fe  Fe36  1  0.50547739  0.17196362  0.50438926  1
  Fe  Fe37  1  0.33846325  0.00513051  0.67037000  1
  Fe  Fe38  1  0.50432646  0.17255344  0.83814904  1
  Fe  Fe39  1  0.50584756  0.50413118  0.50464764  1
  Fe  Fe40  1  0.33839768  0.33848486  0.67266550  1
  Ni  Ni41  1  0.50401415  0.50443253  0.83743004  1
  Fe  Fe42  1  0.50478445  0.83784671  0.50439264  1
  Fe  Fe43  1  0.33855503  0.67032730  0.67190911  1
  Fe  Fe44  1  0.50432709  0.83724917  0.83814243  1
  Fe  Fe45  1  0.83746395  0.17242630  0.50473972  1
  Fe  Fe46  1  0.67140519  0.00506377  0.67207542  1
  Fe  Fe47  1  0.83747484  0.17227767  0.83798549  1
  Ni  Ni48  1  0.83764247  0.50442153  0.50476654  1
  Ni  Ni49  1  0.67152205  0.33851196  0.67251817  1
  Fe  Fe50  1  0.83791282  0.50448790  0.83688337  1
  Fe  Fe51  1  0.83816074  0.83738339  0.50473950  1
  Fe  Fe52  1  0.67131272  0.67039336  0.67122120  1
  Fe  Fe53  1  0.83781986  0.83717612  0.83841999  1
" 