1731,Ni85Fe14Cr0_0,-241.675881015429, 198.056100467555,Ni85Fe14Cr0,"# generated using pymatgen
 data_CrFe7Ni46
_symmetry_space_group_name_H-M   'P 1'
_cell_length_a   7.43722450
_cell_length_b   7.43722450
_cell_length_c   10.51782376
_cell_angle_alpha   90.00000000
_cell_angle_beta   90.00000000
_cell_angle_gamma   90.00000000
_symmetry_Int_Tables_number   1
_chemical_formula_structural   CrFe7Ni46
_chemical_formula_sum   'Cr1 Fe7 Ni46'
_cell_volume   581.76511005
_cell_formula_units_Z   1
loop_
 _symmetry_equiv_pos_site_id
 _symmetry_equiv_pos_as_xyz
  1  'x, y, z'
loop_
 _atom_site_type_symbol
 _atom_site_label
 _atom_site_symmetry_multiplicity
 _atom_site_fract_x
 _atom_site_fract_y
 _atom_site_fract_z
 _atom_site_occupancy
  Ni  Ni0  1  1.00165571  0.00233243  0.00205409  1
  Ni  Ni1  1  0.16898926  0.16785170  0.16851239  1
  Ni  Ni2  1  1.00135385  0.00267783  0.33530491  1
  Ni  Ni3  1  0.00286278  0.33410060  0.00304465  1
  Fe  Fe4  1  0.16957943  0.50206370  0.16885720  1
  Fe  Fe5  1  0.00255815  0.33495922  0.33537711  1
  Ni  Ni6  1  0.00280543  0.66963432  0.00344292  1
  Ni  Ni7  1  0.16882490  0.83653306  0.16910741  1
  Fe  Fe8  1  0.00262315  0.67031173  0.33561377  1
  Ni  Ni9  1  0.33510347  0.00204980  0.00294288  1
  Ni  Ni10  1  0.50105280  0.16881057  0.16841995  1
  Ni  Ni11  1  0.33502485  0.00241592  0.33527545  1
  Ni  Ni12  1  0.33528684  0.33558616  1.00165618  1
  Ni  Ni13  1  0.50292415  0.50185534  0.16861025  1
  Ni  Ni14  1  0.33490218  0.33577046  0.33564522  1
  Ni  Ni15  1  0.33565377  0.66840057  0.00203997  1
  Ni  Ni16  1  0.50143900  0.83526143  0.16877622  1
  Ni  Ni17  1  0.33657795  0.66784427  0.33604260  1
  Ni  Ni18  1  0.66929386  0.00205651  1.00173908  1
  Ni  Ni19  1  0.83588612  0.16908526  0.16871384  1
  Ni  Ni20  1  0.66963952  1.00096589  0.33558109  1
  Ni  Ni21  1  0.66809839  0.33446321  0.00359981  1
  Ni  Ni22  1  0.83480642  0.50219974  0.16899368  1
  Fe  Fe23  1  0.66701793  0.33461383  0.33510711  1
  Ni  Ni24  1  0.66777863  0.66952022  0.00298956  1
  Ni  Ni25  1  0.83586627  0.83483434  0.16798540  1
  Ni  Ni26  1  0.66870573  0.66876512  0.33526414  1
  Ni  Ni27  1  0.16944865  0.16836862  0.50198680  1
  Ni  Ni28  1  0.00210959  0.00214448  0.66862355  1
  Ni  Ni29  1  0.16895068  0.16778377  0.83545135  1
  Ni  Ni30  1  0.16836802  0.50154115  0.50254455  1
  Ni  Ni31  1  0.00248209  0.33381886  0.66730505  1
  Fe  Fe32  1  0.16945701  0.50226177  0.83456419  1
  Ni  Ni33  1  0.16861399  0.83622624  0.50178752  1
  Ni  Ni34  1  0.00225698  0.66993449  0.66712902  1
  Ni  Ni35  1  0.16863398  0.83642557  0.83510578  1
  Ni  Ni36  1  0.50040898  0.16882096  0.50188896  1
  Ni  Ni37  1  0.33438219  0.00218605  0.66777835  1
  Ni  Ni38  1  0.50109832  0.16933409  0.83578406  1
  Ni  Ni39  1  0.50249482  0.50157317  0.50222633  1
  Ni  Ni40  1  0.33561327  0.33513929  0.66871902  1
  Ni  Ni41  1  0.50186827  0.50163556  0.83507475  1
  Ni  Ni42  1  0.50174379  0.83556201  0.50189349  1
  Ni  Ni43  1  0.33595974  0.66869677  0.66794275  1
  Ni  Ni44  1  0.50109516  0.83503205  0.83545090  1
  Fe  Fe45  1  0.83541326  0.16796541  0.50209563  1
  Fe  Fe46  1  0.66797598  1.00176624  0.66911524  1
  Ni  Ni47  1  0.83593995  0.16847098  0.83499106  1
  Ni  Ni48  1  0.83515848  0.50247211  0.50144381  1
  Ni  Ni49  1  0.66802038  0.33514815  0.66696860  1
  Cr  Cr50  1  0.83457556  0.50223816  0.83574812  1
  Ni  Ni51  1  0.83570793  0.83411181  0.50246945  1
  Ni  Ni52  1  0.66792621  0.66895532  0.66780485  1
  Ni  Ni53  1  0.83625560  0.83569310  0.83567934  1
" 