3062,Ni85Fe12Cr2_17,-239.630867642876, 189.997903624894,Ni85Fe12Cr2,"# generated using pymatgen
 data_CrFe2Ni15
_symmetry_space_group_name_H-M   'P 1'
_cell_length_a   7.44187568
_cell_length_b   7.44187568
_cell_length_c   10.52440152
_cell_angle_alpha   90.00000000
_cell_angle_beta   90.00000000
_cell_angle_gamma   90.00000000
_symmetry_Int_Tables_number   1
_chemical_formula_structural   CrFe2Ni15
_chemical_formula_sum   'Cr3 Fe6 Ni45'
_cell_volume   582.85728710
_cell_formula_units_Z   3
loop_
 _symmetry_equiv_pos_site_id
 _symmetry_equiv_pos_as_xyz
  1  'x, y, z'
loop_
 _atom_site_type_symbol
 _atom_site_label
 _atom_site_symmetry_multiplicity
 _atom_site_fract_x
 _atom_site_fract_y
 _atom_site_fract_z
 _atom_site_occupancy
  Ni  Ni0  1  0.00181240  1.00131233  1.00124347  1
  Ni  Ni1  1  0.16839332  0.16903623  0.16877288  1
  Ni  Ni2  1  1.00167408  1.00166931  0.33560209  1
  Ni  Ni3  1  0.00186999  0.33530773  1.00118985  1
  Ni  Ni4  1  0.16901899  0.50211795  0.16878845  1
  Ni  Ni5  1  0.00173190  0.33491670  0.33560974  1
  Ni  Ni6  1  0.00332710  0.66845260  0.00193279  1
  Ni  Ni7  1  0.16819160  0.83391901  0.16905628  1
  Ni  Ni8  1  0.00312243  0.66848829  0.33455444  1
  Ni  Ni9  1  0.33516902  1.00158147  1.00155800  1
  Ni  Ni10  1  0.50219695  0.16876809  0.16865078  1
  Ni  Ni11  1  0.33442330  1.00083600  0.33414149  1
  Ni  Ni12  1  0.33517517  0.33510202  1.00151141  1
  Ni  Ni13  1  0.49915863  0.49997723  0.16926410  1
  Ni  Ni14  1  0.33436687  0.33574868  0.33413322  1
  Ni  Ni15  1  0.33345126  0.66839008  1.00149568  1
  Ni  Ni16  1  0.50025777  0.83632790  0.16877350  1
  Ni  Ni17  1  0.33381192  0.66848917  0.33519931  1
  Ni  Ni18  1  0.66809239  0.00303710  0.00171824  1
  Ni  Ni19  1  0.83448389  0.16793906  0.16930955  1
  Ni  Ni20  1  0.66897406  0.00222427  0.33408384  1
  Ni  Ni21  1  0.66802914  0.33358726  1.00166387  1
  Fe  Fe22  1  0.83688952  0.49983449  0.16846239  1
  Ni  Ni23  1  0.66897701  0.33430175  0.33408067  1
  Cr  Cr24  1  0.66840554  0.66853603  1.00150796  1
  Ni  Ni25  1  0.83662565  0.83695666  0.16883360  1
  Cr  Cr26  1  0.66838656  0.66871789  0.33477166  1
  Ni  Ni27  1  0.16675423  0.16904165  0.50142741  1
  Ni  Ni28  1  1.00145502  1.00104912  0.66822955  1
  Ni  Ni29  1  0.16857759  0.16881629  0.83487341  1
  Fe  Fe30  1  0.16721053  0.50132368  0.50135763  1
  Ni  Ni31  1  1.00145209  0.33563656  0.66827388  1
  Ni  Ni32  1  0.16831053  0.50172556  0.83495029  1
  Fe  Fe33  1  0.16730460  0.83588059  0.50141112  1
  Ni  Ni34  1  1.00097953  0.66839028  0.66858858  1
  Ni  Ni35  1  0.16831029  0.83453187  0.83495061  1
  Cr  Cr36  1  0.50151855  0.16781824  0.50085071  1
  Ni  Ni37  1  0.33482888  1.00104940  0.66937479  1
  Ni  Ni38  1  0.50172158  0.16854740  0.83529952  1
  Fe  Fe39  1  0.50183020  0.50159444  0.50203520  1
  Ni  Ni40  1  0.33477122  0.33557465  0.66942706  1
  Ni  Ni41  1  0.50061915  0.50062499  0.83343199  1
  Ni  Ni42  1  0.50127756  0.83423142  0.50211283  1
  Fe  Fe43  1  0.33496365  0.66862118  0.66908051  1
  Ni  Ni44  1  0.50088692  0.83590250  0.83418972  1
  Ni  Ni45  1  0.83703883  0.16876767  0.50143912  1
  Ni  Ni46  1  0.66878808  1.00057693  0.66927135  1
  Ni  Ni47  1  0.83477468  0.16854749  0.83432633  1
  Ni  Ni48  1  0.83654013  0.50129695  0.50194438  1
  Ni  Ni49  1  0.66885133  0.33605011  0.66932610  1
  Ni  Ni50  1  0.83614463  0.50089118  0.83456198  1
  Ni  Ni51  1  0.83543794  0.83500884  0.50243476  1
  Fe  Fe52  1  0.66908654  0.66861790  0.66844447  1
  Ni  Ni53  1  0.83587597  0.83563452  0.83380412  1
" 