7416,Ni85Fe9Cr4_13,-238.087524783491, 180.434002529179,Ni85Fe9Cr4,"# generated using pymatgen
 data_Cr2Fe2Ni23
_symmetry_space_group_name_H-M   'P 1'
_cell_length_a   7.45250579
_cell_length_b   7.45250579
_cell_length_c   10.53943476
_cell_angle_alpha   90.00000000
_cell_angle_beta   90.00000000
_cell_angle_gamma   90.00000000
_symmetry_Int_Tables_number   1
_chemical_formula_structural   Cr2Fe2Ni23
_chemical_formula_sum   'Cr4 Fe4 Ni46'
_cell_volume   585.35854688
_cell_formula_units_Z   2
loop_
 _symmetry_equiv_pos_site_id
 _symmetry_equiv_pos_as_xyz
  1  'x, y, z'
loop_
 _atom_site_type_symbol
 _atom_site_label
 _atom_site_symmetry_multiplicity
 _atom_site_fract_x
 _atom_site_fract_y
 _atom_site_fract_z
 _atom_site_occupancy
  Ni  Ni0  1  0.00132320  1.00046556  0.00153142  1
  Ni  Ni1  1  0.16798078  0.16715605  0.16691434  1
  Ni  Ni2  1  0.00179449  0.00164339  0.33366992  1
  Ni  Ni3  1  0.00225974  0.33474958  0.00166062  1
  Ni  Ni4  1  0.16555130  0.50092838  0.16720847  1
  Ni  Ni5  1  0.00105000  0.33442010  0.33419518  1
  Ni  Ni6  1  0.00127462  0.66771026  0.00106434  1
  Ni  Ni7  1  0.16679640  0.83484233  0.16791286  1
  Ni  Ni8  1  0.00195901  0.66686377  0.33314578  1
  Fe  Fe9  1  0.33328114  1.00045149  0.00205206  1
  Ni  Ni10  1  0.50094917  0.16590215  0.16749513  1
  Ni  Ni11  1  0.33453813  1.00072686  0.33392416  1
  Ni  Ni12  1  0.33276518  0.33470202  1.00074395  1
  Cr  Cr13  1  0.50125669  0.50049208  0.16769817  1
  Ni  Ni14  1  0.33354814  0.33359868  0.33512094  1
  Ni  Ni15  1  0.33368844  0.66769603  1.00011633  1
  Ni  Ni16  1  0.50171653  0.83650495  0.16729422  1
  Ni  Ni17  1  0.33355502  0.66860134  0.33531223  1
  Ni  Ni18  1  0.66791588  0.99954564  0.00280385  1
  Fe  Fe19  1  0.83454088  0.16721584  0.16783670  1
  Ni  Ni20  1  0.66659636  0.00163548  0.33344323  1
  Ni  Ni21  1  0.66790329  0.33474938  0.00170220  1
  Ni  Ni22  1  0.83566173  0.50170020  0.16740529  1
  Ni  Ni23  1  0.66832964  0.33343662  0.33517718  1
  Ni  Ni24  1  0.66796299  0.66862905  0.99991564  1
  Ni  Ni25  1  0.83441144  0.83408174  0.16688446  1
  Ni  Ni26  1  0.66741291  0.66785466  0.33413090  1
  Ni  Ni27  1  0.16784333  0.16739827  0.50181938  1
  Ni  Ni28  1  0.00255253  0.00131707  0.66772437  1
  Ni  Ni29  1  0.16757956  0.16691380  0.83419436  1
  Ni  Ni30  1  0.16778186  0.50096452  0.50105314  1
  Ni  Ni31  1  0.00173811  0.33463878  0.66706922  1
  Ni  Ni32  1  0.16759000  0.50187812  0.83466505  1
  Ni  Ni33  1  0.16909993  0.83456457  0.50076745  1
  Ni  Ni34  1  0.00180395  0.66696942  0.66871680  1
  Ni  Ni35  1  0.16716945  0.83413144  0.83424757  1
  Ni  Ni36  1  0.50124954  0.16780787  0.50106013  1
  Ni  Ni37  1  0.33346102  1.00032939  0.66718173  1
  Cr  Cr38  1  0.49978467  0.16852474  0.83429556  1
  Ni  Ni39  1  0.50131132  0.50055373  0.50134849  1
  Ni  Ni40  1  0.33352267  0.33487312  0.66706513  1
  Ni  Ni41  1  0.50153861  0.50237099  0.83431606  1
  Ni  Ni42  1  0.49959099  0.83456454  0.50120710  1
  Ni  Ni43  1  0.33444341  0.66772150  0.66749960  1
  Fe  Fe44  1  0.50049067  0.83207973  0.83405653  1
  Ni  Ni45  1  0.83383386  0.16912080  0.50079986  1
  Ni  Ni46  1  0.66691204  1.00039528  0.66667781  1
  Cr  Cr47  1  0.83545778  0.16787850  0.83401179  1
  Ni  Ni48  1  0.83383354  0.49929984  0.50123167  1
  Ni  Ni49  1  0.66766607  0.33561950  0.66604814  1
  Ni  Ni50  1  0.83379847  0.50278122  0.83429097  1
  Cr  Cr51  1  0.83482350  0.83429257  0.50141520  1
  Ni  Ni52  1  0.66667925  0.66690807  0.66888110  1
  Fe  Fe53  1  0.83510496  0.83248318  0.83468038  1
" 