4967,Ni85Fe14Cr0_17,-241.878572373676, 198.336237845155,Ni85Fe14Cr0,"# generated using pymatgen
 data_CrFe7Ni46
_symmetry_space_group_name_H-M   'P 1'
_cell_length_a   7.44077546
_cell_length_b   7.44077546
_cell_length_c   10.52284557
_cell_angle_alpha   90.00000000
_cell_angle_beta   90.00000000
_cell_angle_gamma   90.00000000
_symmetry_Int_Tables_number   1
_chemical_formula_structural   CrFe7Ni46
_chemical_formula_sum   'Cr1 Fe7 Ni46'
_cell_volume   582.59881301
_cell_formula_units_Z   1
loop_
 _symmetry_equiv_pos_site_id
 _symmetry_equiv_pos_as_xyz
  1  'x, y, z'
loop_
 _atom_site_type_symbol
 _atom_site_label
 _atom_site_symmetry_multiplicity
 _atom_site_fract_x
 _atom_site_fract_y
 _atom_site_fract_z
 _atom_site_occupancy
  Ni  Ni0  1  1.00106848  1.00098621  1.00112725  1
  Ni  Ni1  1  0.16895376  0.16715979  0.16861483  1
  Ni  Ni2  1  1.00096792  1.00168147  0.33559087  1
  Fe  Fe3  1  0.00248021  0.33404632  0.00315008  1
  Fe  Fe4  1  0.16862799  0.50214166  0.16884661  1
  Ni  Ni5  1  0.00179862  0.33490415  0.33553499  1
  Ni  Ni6  1  0.00287394  0.67036388  1.00150530  1
  Ni  Ni7  1  0.16878504  0.83617616  0.16857333  1
  Ni  Ni8  1  0.00177861  0.66872175  0.33624104  1
  Ni  Ni9  1  0.33460820  0.00225770  0.99990025  1
  Ni  Ni10  1  0.50096635  0.16859630  0.16858314  1
  Ni  Ni11  1  0.33486569  0.00201101  0.33674903  1
  Ni  Ni12  1  0.33587948  0.33574269  1.00123359  1
  Ni  Ni13  1  0.50307860  0.50179272  0.16830585  1
  Ni  Ni14  1  0.33530985  0.33575194  0.33556454  1
  Ni  Ni15  1  0.33463256  0.66728141  1.00122080  1
  Ni  Ni16  1  0.50091983  0.83490886  0.16821625  1
  Ni  Ni17  1  0.33499677  0.66755363  0.33522611  1
  Ni  Ni18  1  0.66961593  0.00227799  1.00146836  1
  Ni  Ni19  1  0.83539296  0.16915274  0.16838826  1
  Ni  Ni20  1  0.66944809  0.00200683  0.33488223  1
  Ni  Ni21  1  0.66647588  0.33393672  1.00139179  1
  Ni  Ni22  1  0.83418199  0.50198679  0.16882558  1
  Ni  Ni23  1  0.66824698  0.33496335  0.33628083  1
  Ni  Ni24  1  0.66786230  0.66904469  1.00141627  1
  Ni  Ni25  1  0.83558610  0.83414364  0.16831589  1
  Ni  Ni26  1  0.66855235  0.66832426  0.33594198  1
  Ni  Ni27  1  0.16856520  0.16821271  0.50168974  1
  Ni  Ni28  1  0.99975588  1.00164202  0.66853232  1
  Ni  Ni29  1  0.16838602  0.16839536  0.83492740  1
  Ni  Ni30  1  0.16843188  0.50176894  0.50088438  1
  Fe  Fe31  1  0.00367370  0.33339727  0.66698740  1
  Ni  Ni32  1  0.16956198  0.50153822  0.83613771  1
  Ni  Ni33  1  0.16867223  0.83527665  0.50180942  1
  Fe  Fe34  1  0.00362184  0.67007496  0.66766120  1
  Ni  Ni35  1  0.16861257  0.83528201  0.83484293  1
  Ni  Ni36  1  0.50143854  0.16844071  0.50143203  1
  Fe  Fe37  1  0.33533684  1.00168718  0.66829614  1
  Ni  Ni38  1  0.50142894  0.16849943  0.83521720  1
  Ni  Ni39  1  0.50184840  0.50186324  0.50171134  1
  Ni  Ni40  1  0.33509118  0.33710104  0.66853754  1
  Ni  Ni41  1  0.50053462  0.50183148  0.83522538  1
  Ni  Ni42  1  0.50138404  0.83499366  0.50131200  1
  Ni  Ni43  1  0.33464626  0.66603585  0.66891587  1
  Ni  Ni44  1  0.50142306  0.83495226  0.83560853  1
  Ni  Ni45  1  0.83533875  0.16868050  0.50123037  1
  Ni  Ni46  1  0.67068864  0.00208894  0.66891618  1
  Ni  Ni47  1  0.83553884  0.16746020  0.83575026  1
  Ni  Ni48  1  0.83501689  0.50175044  0.50160598  1
  Fe  Fe49  1  0.66665452  0.33315516  0.66763362  1
  Cr  Cr50  1  0.83471356  0.50173693  0.83486801  1
  Ni  Ni51  1  0.83524436  0.83487372  0.50134084  1
  Fe  Fe52  1  0.66649349  0.67053074  0.66754850  1
  Ni  Ni53  1  0.83527587  0.83614825  0.83561520  1
" 