2927,Ni85Fe12Cr2_6,-239.663022710593, 191.725445960028,Ni85Fe12Cr2,"# generated using pymatgen
 data_CrFe2Ni15
_symmetry_space_group_name_H-M   'P 1'
_cell_length_a   7.44067701
_cell_length_b   7.44067701
_cell_length_c   10.52270634
_cell_angle_alpha   90.00000000
_cell_angle_beta   90.00000000
_cell_angle_gamma   90.00000000
_symmetry_Int_Tables_number   1
_chemical_formula_structural   CrFe2Ni15
_chemical_formula_sum   'Cr3 Fe6 Ni45'
_cell_volume   582.57568791
_cell_formula_units_Z   3
loop_
 _symmetry_equiv_pos_site_id
 _symmetry_equiv_pos_as_xyz
  1  'x, y, z'
loop_
 _atom_site_type_symbol
 _atom_site_label
 _atom_site_symmetry_multiplicity
 _atom_site_fract_x
 _atom_site_fract_y
 _atom_site_fract_z
 _atom_site_occupancy
  Fe  Fe0  1  0.00180264  0.00232276  0.00215662  1
  Ni  Ni1  1  0.16780872  0.16884640  0.16910528  1
  Ni  Ni2  1  0.00179720  0.00377549  0.33502870  1
  Ni  Ni3  1  0.00182765  0.33587736  0.00202646  1
  Ni  Ni4  1  0.16864447  0.50091925  0.16790913  1
  Ni  Ni5  1  0.00255762  0.33258543  0.33425866  1
  Ni  Ni6  1  0.00366633  0.66751155  1.00147262  1
  Ni  Ni7  1  0.17025430  0.83555116  0.16700453  1
  Cr  Cr8  1  0.00279631  0.66895785  0.33449100  1
  Ni  Ni9  1  0.33553609  0.00181725  0.00181765  1
  Fe  Fe10  1  0.50182215  0.16785607  0.16831173  1
  Ni  Ni11  1  0.33518500  1.00175182  0.33514973  1
  Ni  Ni12  1  0.33432407  0.33457980  1.00122172  1
  Fe  Fe13  1  0.50091021  0.50143635  0.16948025  1
  Ni  Ni14  1  0.33486816  0.33504891  0.33572999  1
  Ni  Ni15  1  0.33260353  0.66891729  0.00202438  1
  Ni  Ni16  1  0.50098237  0.83560186  0.16961930  1
  Ni  Ni17  1  0.33676764  0.66851377  0.33492618  1
  Ni  Ni18  1  0.66774782  0.00365368  1.00150151  1
  Ni  Ni19  1  0.83543671  0.16904391  0.16852311  1
  Ni  Ni20  1  0.66833395  0.00187840  0.33541809  1
  Ni  Ni21  1  0.66916150  0.33293781  1.00166080  1
  Ni  Ni22  1  0.83549322  0.49983936  0.16808062  1
  Ni  Ni23  1  0.66788556  0.33416247  0.33388946  1
  Cr  Cr24  1  0.66914294  0.66849822  1.00162375  1
  Ni  Ni25  1  0.83407607  0.83643806  0.16927647  1
  Ni  Ni26  1  0.66586147  0.66927583  0.33443826  1
  Ni  Ni27  1  0.16795818  0.16802745  0.50119395  1
  Ni  Ni28  1  0.00191327  0.00211347  0.66842371  1
  Ni  Ni29  1  0.16834625  0.16913585  0.83501931  1
  Ni  Ni30  1  0.17070294  0.50120713  0.50229086  1
  Ni  Ni31  1  0.00191957  0.33460466  0.66903307  1
  Ni  Ni32  1  0.16808721  0.50147218  0.83512084  1
  Ni  Ni33  1  0.17047520  0.83608119  0.50256282  1
  Ni  Ni34  1  0.00280572  0.66860301  0.66962416  1
  Fe  Fe35  1  0.16870937  0.83479196  0.83481006  1
  Ni  Ni36  1  0.50195834  0.16750069  0.50149347  1
  Ni  Ni37  1  0.33524644  1.00117032  0.66834321  1
  Ni  Ni38  1  0.50194952  0.16771171  0.83554865  1
  Ni  Ni39  1  0.50031548  0.50283601  0.50123963  1
  Fe  Fe40  1  0.33506020  0.33515244  0.66841959  1
  Ni  Ni41  1  0.50106000  0.50174457  0.83430252  1
  Ni  Ni42  1  0.50107974  0.83498172  0.50151554  1
  Ni  Ni43  1  0.33497809  0.66892201  0.66835556  1
  Ni  Ni44  1  0.50162225  0.83585579  0.83418421  1
  Ni  Ni45  1  0.83539894  0.16726495  0.50151469  1
  Ni  Ni46  1  0.66815701  0.00205623  0.66840255  1
  Ni  Ni47  1  0.83502139  0.16857175  0.83528033  1
  Cr  Cr48  1  0.83446904  0.50042181  0.50263424  1
  Ni  Ni49  1  0.66847470  0.33433809  0.66976268  1
  Ni  Ni50  1  0.83616696  0.50114795  0.83463037  1
  Fe  Fe51  1  0.83424291  0.83785367  0.50275136  1
  Ni  Ni52  1  0.66753430  0.66892722  0.66917049  1
  Ni  Ni53  1  0.83474438  0.83559910  0.83391712  1
" 