8004,Ni85Fe5Cr9_7,-236.422533990392, 175.603389336924,Ni85Fe5Cr9,"# generated using pymatgen
 data_Cr2FeNi15
_symmetry_space_group_name_H-M   'P 1'
_cell_length_a   7.45504290
_cell_length_b   7.45504290
_cell_length_c   10.54302277
_cell_angle_alpha   90.00000000
_cell_angle_beta   90.00000000
_cell_angle_gamma   90.00000000
_symmetry_Int_Tables_number   1
_chemical_formula_structural   Cr2FeNi15
_chemical_formula_sum   'Cr6 Fe3 Ni45'
_cell_volume   585.95658384
_cell_formula_units_Z   3
loop_
 _symmetry_equiv_pos_site_id
 _symmetry_equiv_pos_as_xyz
  1  'x, y, z'
loop_
 _atom_site_type_symbol
 _atom_site_label
 _atom_site_symmetry_multiplicity
 _atom_site_fract_x
 _atom_site_fract_y
 _atom_site_fract_z
 _atom_site_occupancy
  Ni  Ni0  1  0.00237408  0.00090420  1.00066990  1
  Ni  Ni1  1  0.16756808  0.16899835  0.16612933  1
  Cr  Cr2  1  0.99906399  1.00066350  0.33375192  1
  Ni  Ni3  1  0.00148218  0.33349719  0.00104771  1
  Ni  Ni4  1  0.16789584  0.50056772  0.16866494  1
  Ni  Ni5  1  0.00286764  0.33571066  0.33414535  1
  Ni  Ni6  1  0.00148266  0.66801441  0.00104775  1
  Ni  Ni7  1  0.16757439  0.83284834  0.16588942  1
  Ni  Ni8  1  0.00107528  0.66598161  0.33395716  1
  Fe  Fe9  1  0.33234331  0.00084634  1.00079846  1
  Ni  Ni10  1  0.50008360  0.16818059  0.16742244  1
  Cr  Cr11  1  0.33535551  0.00104805  0.33357079  1
  Ni  Ni12  1  0.33419231  0.33438757  0.00123762  1
  Ni  Ni13  1  0.49999913  0.50162592  0.16663371  1
  Ni  Ni14  1  0.33247657  0.33584515  0.33409470  1
  Ni  Ni15  1  0.33400668  0.66693258  1.00067175  1
  Ni  Ni16  1  0.50113872  0.83260255  0.16848327  1
  Ni  Ni17  1  0.33407058  0.66566293  0.33447004  1
  Cr  Cr18  1  0.66810855  0.00082822  0.00139915  1
  Ni  Ni19  1  0.83476416  0.16785963  0.16711470  1
  Ni  Ni20  1  0.66739860  0.99912205  0.33440765  1
  Ni  Ni21  1  0.66673790  0.33526791  1.00048329  1
  Ni  Ni22  1  0.83452377  0.50162588  0.16708423  1
  Cr  Cr23  1  0.66766590  0.33404898  0.33342364  1
  Ni  Ni24  1  0.66692281  0.66605205  0.00104762  1
  Ni  Ni25  1  0.83370460  0.83293038  0.16817492  1
  Ni  Ni26  1  0.66727158  0.66929697  0.33366302  1
  Ni  Ni27  1  0.16563187  0.16889763  0.50056367  1
  Ni  Ni28  1  0.99886279  1.00072034  0.66758029  1
  Ni  Ni29  1  0.16591841  0.16712082  0.83572082  1
  Ni  Ni30  1  0.16777555  0.50139215  0.49950636  1
  Ni  Ni31  1  0.99892210  0.33374102  0.66722350  1
  Ni  Ni32  1  0.16730154  0.50162417  0.83424622  1
  Ni  Ni33  1  0.16669243  0.83212574  0.50186420  1
  Ni  Ni34  1  1.00071089  0.66795345  0.66741139  1
  Ni  Ni35  1  0.16697828  0.83366956  0.83465953  1
  Fe  Fe36  1  0.50258132  0.16799394  0.50075239  1
  Cr  Cr37  1  0.33361963  0.99931664  0.66821706  1
  Ni  Ni38  1  0.50173147  0.16841201  0.83442937  1
  Ni  Ni39  1  0.50034599  0.50244544  0.50080165  1
  Cr  Cr40  1  0.33396404  0.33598962  0.66721677  1
  Ni  Ni41  1  0.50164424  0.50162821  0.83497718  1
  Fe  Fe42  1  0.50257583  0.83184925  0.50075239  1
  Ni  Ni43  1  0.33406844  0.66763574  0.66727324  1
  Ni  Ni44  1  0.50067819  0.83237020  0.83336915  1
  Ni  Ni45  1  0.83432614  0.16679147  0.50267721  1
  Ni  Ni46  1  0.66956021  0.00090807  0.66677866  1
  Ni  Ni47  1  0.83476518  0.16808752  0.83261890  1
  Ni  Ni48  1  0.83429770  0.50138805  0.50162095  1
  Ni  Ni49  1  0.66923768  0.33381344  0.66808093  1
  Ni  Ni50  1  0.83346773  0.50056831  0.83370602  1
  Ni  Ni51  1  0.83327175  0.83423449  0.50137952  1
  Ni  Ni52  1  0.66764017  0.66769228  0.66770736  1
  Ni  Ni53  1  0.83475960  0.83375832  0.83285839  1
" 