4334,Ni85Fe12Cr2_4,-239.581338413281, 190.751349892356,Ni85Fe12Cr2,"# generated using pymatgen
 data_CrFe2Ni15
_symmetry_space_group_name_H-M   'P 1'
_cell_length_a   7.44128652
_cell_length_b   7.44128652
_cell_length_c   10.52356832
_cell_angle_alpha   90.00000000
_cell_angle_beta   90.00000000
_cell_angle_gamma   90.00000000
_symmetry_Int_Tables_number   1
_chemical_formula_structural   CrFe2Ni15
_chemical_formula_sum   'Cr3 Fe6 Ni45'
_cell_volume   582.71886653
_cell_formula_units_Z   3
loop_
 _symmetry_equiv_pos_site_id
 _symmetry_equiv_pos_as_xyz
  1  'x, y, z'
loop_
 _atom_site_type_symbol
 _atom_site_label
 _atom_site_symmetry_multiplicity
 _atom_site_fract_x
 _atom_site_fract_y
 _atom_site_fract_z
 _atom_site_occupancy
  Ni  Ni0  1  0.00320928  1.00116514  0.00233048  1
  Fe  Fe1  1  0.16816822  0.16845097  0.16784125  1
  Ni  Ni2  1  1.00152935  1.00102171  0.33435273  1
  Ni  Ni3  1  0.00194697  0.33553377  1.00150422  1
  Ni  Ni4  1  0.16788631  0.50204215  0.16839638  1
  Ni  Ni5  1  0.00177161  0.33556192  0.33568223  1
  Ni  Ni6  1  0.00249156  0.66848754  1.00150780  1
  Ni  Ni7  1  0.16802662  0.83517492  0.16785866  1
  Ni  Ni8  1  0.00346159  0.66849467  0.33543534  1
  Ni  Ni9  1  0.33400504  1.00106371  1.00151049  1
  Ni  Ni10  1  0.50106031  0.16910354  0.16918547  1
  Ni  Ni11  1  0.33522623  1.00101855  0.33551904  1
  Ni  Ni12  1  0.33510369  0.33572062  0.00190450  1
  Ni  Ni13  1  0.50145224  0.50049069  0.16841889  1
  Ni  Ni14  1  0.33418801  0.33479641  0.33427296  1
  Ni  Ni15  1  0.33471343  0.66843380  1.00145368  1
  Ni  Ni16  1  0.50034609  0.83542457  0.16994981  1
  Ni  Ni17  1  0.33296278  0.66928718  0.33439448  1
  Cr  Cr18  1  0.66856186  1.00128112  1.00141491  1
  Ni  Ni19  1  0.83547144  0.16925249  0.16883760  1
  Ni  Ni20  1  0.66838279  0.00229558  0.33537411  1
  Ni  Ni21  1  0.66822651  0.33629271  1.00145012  1
  Ni  Ni22  1  0.83600081  0.50109474  0.16869955  1
  Ni  Ni23  1  0.66907227  0.33289988  0.33395314  1
  Ni  Ni24  1  0.66805564  0.66727642  0.00235172  1
  Ni  Ni25  1  0.83700775  0.83468988  0.16944838  1
  Fe  Fe26  1  0.66932069  0.66925628  0.33413185  1
  Fe  Fe27  1  0.16816407  0.16794824  0.50188120  1
  Ni  Ni28  1  1.00041826  1.00135441  0.66850627  1
  Ni  Ni29  1  0.16889217  0.16837985  0.83533784  1
  Ni  Ni30  1  0.16627155  0.50161887  0.50232363  1
  Ni  Ni31  1  0.00364859  0.33487204  0.66794057  1
  Ni  Ni32  1  0.16761835  0.50092546  0.83444361  1
  Ni  Ni33  1  0.16744390  0.83531045  0.50230486  1
  Ni  Ni34  1  0.00262603  0.66875746  0.66824240  1
  Ni  Ni35  1  0.16727724  0.83590873  0.83511975  1
  Ni  Ni36  1  0.50056744  0.16643970  0.50119424  1
  Fe  Fe37  1  0.33427253  1.00139464  0.66871438  1
  Ni  Ni38  1  0.49890827  0.16839701  0.83495724  1
  Cr  Cr39  1  0.50086486  0.50174759  0.50024704  1
  Ni  Ni40  1  0.33306858  0.33540873  0.66884786  1
  Ni  Ni41  1  0.50125415  0.50174877  0.83619307  1
  Ni  Ni42  1  0.50158359  0.83833088  0.50201021  1
  Ni  Ni43  1  0.33385611  0.66867527  0.66933357  1
  Ni  Ni44  1  0.50137702  0.83511821  0.83334856  1
  Fe  Fe45  1  0.83574871  0.16729230  0.50025386  1
  Ni  Ni46  1  0.66907690  1.00039803  0.66824479  1
  Fe  Fe47  1  0.83753477  0.16807788  0.83603225  1
  Ni  Ni48  1  0.83823178  0.50263469  0.50071956  1
  Cr  Cr49  1  0.66931429  0.33394609  0.67029125  1
  Ni  Ni50  1  0.83643770  0.50334591  0.83581745  1
  Ni  Ni51  1  0.83609636  0.83518256  0.50127933  1
  Ni  Ni52  1  0.66886414  0.67108886  0.66844318  1
  Ni  Ni53  1  0.83640519  0.83355805  0.83426389  1
" 