227,Ni85Fe12Cr2_12,-239.73542753, 190.951153623117,Ni85Fe12Cr2,"# generated using pymatgen
 data_CrFe2Ni15
_symmetry_space_group_name_H-M   'P 1'
_cell_length_a   7.43996222
_cell_length_b   7.43996222
_cell_length_c   10.52169548
_cell_angle_alpha   90.00000000
_cell_angle_beta   90.00000000
_cell_angle_gamma   90.00000000
_symmetry_Int_Tables_number   1
_chemical_formula_structural   CrFe2Ni15
_chemical_formula_sum   'Cr3 Fe6 Ni45'
_cell_volume   582.40780873
_cell_formula_units_Z   3
loop_
 _symmetry_equiv_pos_site_id
 _symmetry_equiv_pos_as_xyz
  1  'x, y, z'
loop_
 _atom_site_type_symbol
 _atom_site_label
 _atom_site_symmetry_multiplicity
 _atom_site_fract_x
 _atom_site_fract_y
 _atom_site_fract_z
 _atom_site_occupancy
  Ni  Ni0  1  0.00237966  1.00097373  1.00101810  1
  Ni  Ni1  1  0.17014414  0.16844900  0.16843518  1
  Ni  Ni2  1  0.00256171  1.00019863  0.33569614  1
  Ni  Ni3  1  0.00325520  0.33619957  1.00104525  1
  Ni  Ni4  1  0.16880136  0.50173241  0.16865162  1
  Fe  Fe5  1  0.00235412  0.33585489  0.33587009  1
  Ni  Ni6  1  1.00105409  0.66828868  0.00182250  1
  Ni  Ni7  1  0.16714007  0.83527903  0.16817566  1
  Ni  Ni8  1  1.00116661  0.66919198  0.33478679  1
  Ni  Ni9  1  0.33427953  0.00332262  1.00132977  1
  Ni  Ni10  1  0.49977418  0.17031751  0.16832303  1
  Ni  Ni11  1  0.33398190  0.00341813  0.33569553  1
  Ni  Ni12  1  0.33474307  0.33518308  0.00193430  1
  Ni  Ni13  1  0.50163730  0.50038448  0.16853774  1
  Ni  Ni14  1  0.33611587  0.33498858  0.33503575  1
  Ni  Ni15  1  0.33458958  0.66695628  1.00081654  1
  Cr  Cr16  1  0.50147634  0.83480475  0.16911465  1
  Ni  Ni17  1  0.33429649  0.66705307  0.33610709  1
  Ni  Ni18  1  0.66879813  1.00111981  0.99979083  1
  Cr  Cr19  1  0.83550358  0.16824556  0.16888192  1
  Ni  Ni20  1  0.66891788  0.00202394  0.33754397  1
  Fe  Fe21  1  0.66782528  0.33630365  1.00158391  1
  Ni  Ni22  1  0.83502247  0.50339032  0.16822464  1
  Ni  Ni23  1  0.66677753  0.33638152  0.33556273  1
  Ni  Ni24  1  0.66981614  0.66782525  1.00134051  1
  Ni  Ni25  1  0.83688988  0.83341751  0.16848652  1
  Ni  Ni26  1  0.66999556  0.66705704  0.33589702  1
  Ni  Ni27  1  0.16833570  0.16796547  0.50174184  1
  Ni  Ni28  1  0.00212299  0.00203632  0.66874939  1
  Ni  Ni29  1  0.16764832  0.16861716  0.83528118  1
  Fe  Fe30  1  0.16873782  0.50149938  0.50163494  1
  Ni  Ni31  1  0.00393345  0.33490075  0.66805988  1
  Ni  Ni32  1  0.16891650  0.50098130  0.83470417  1
  Ni  Ni33  1  0.16894887  0.83624895  0.50159878  1
  Fe  Fe34  1  1.00134273  0.66899149  0.66869366  1
  Ni  Ni35  1  0.16912407  0.83586517  0.83568663  1
  Ni  Ni36  1  0.50085198  0.16782085  0.50094771  1
  Ni  Ni37  1  0.33453350  0.00225056  0.66843498  1
  Fe  Fe38  1  0.50067490  0.16726326  0.83587754  1
  Ni  Ni39  1  0.50177565  0.50278603  0.50057428  1
  Ni  Ni40  1  0.33298602  0.33495686  0.66848579  1
  Ni  Ni41  1  0.50108959  0.50343606  0.83635627  1
  Ni  Ni42  1  0.50177030  0.83485428  0.50197075  1
  Fe  Fe43  1  0.33568106  0.66903889  0.66879269  1
  Ni  Ni44  1  0.50195079  0.83447820  0.83469276  1
  Ni  Ni45  1  0.83627295  0.16796880  0.50110134  1
  Ni  Ni46  1  0.66880308  0.99930400  0.66812423  1
  Ni  Ni47  1  0.83684370  0.16775503  0.83561195  1
  Ni  Ni48  1  0.83488430  0.50217305  0.50088300  1
  Cr  Cr49  1  0.66843068  0.33564717  0.66903308  1
  Ni  Ni50  1  0.83545533  0.50196093  0.83635263  1
  Ni  Ni51  1  0.83474361  0.83531884  0.50169974  1
  Ni  Ni52  1  0.66875147  0.67007017  0.66822476  1
  Ni  Ni53  1  0.83438717  0.83574424  0.83527250  1
" 