1970,Ni85Fe9Cr4_4,-238.217625063677, 182.206303921456,Ni85Fe9Cr4,"# generated using pymatgen
 data_Cr2Fe2Ni23
_symmetry_space_group_name_H-M   'P 1'
_cell_length_a   7.44916083
_cell_length_b   7.44916083
_cell_length_c   10.53470427
_cell_angle_alpha   90.00000000
_cell_angle_beta   90.00000000
_cell_angle_gamma   90.00000000
_symmetry_Int_Tables_number   1
_chemical_formula_structural   Cr2Fe2Ni23
_chemical_formula_sum   'Cr4 Fe4 Ni46'
_cell_volume   584.57070846
_cell_formula_units_Z   2
loop_
 _symmetry_equiv_pos_site_id
 _symmetry_equiv_pos_as_xyz
  1  'x, y, z'
loop_
 _atom_site_type_symbol
 _atom_site_label
 _atom_site_symmetry_multiplicity
 _atom_site_fract_x
 _atom_site_fract_y
 _atom_site_fract_z
 _atom_site_occupancy
  Fe  Fe0  1  0.00148124  0.00273274  1.00090742  1
  Ni  Ni1  1  0.16799405  0.16814374  0.16793595  1
  Ni  Ni2  1  1.00070818  0.00166217  0.33336607  1
  Ni  Ni3  1  0.00130326  0.33350640  1.00110301  1
  Ni  Ni4  1  0.16875671  0.49975407  0.16883029  1
  Ni  Ni5  1  1.00070644  0.33409738  0.33385288  1
  Cr  Cr6  1  0.00141474  0.66759831  1.00099618  1
  Ni  Ni7  1  0.16928459  0.83570782  0.16844146  1
  Ni  Ni8  1  0.99953649  0.66784251  0.33303432  1
  Ni  Ni9  1  0.33435024  0.00204292  0.00193821  1
  Fe  Fe10  1  0.50065226  0.16780654  0.16769662  1
  Ni  Ni11  1  0.33500641  0.00186344  0.33405144  1
  Ni  Ni12  1  0.33425973  0.33397821  1.00091306  1
  Ni  Ni13  1  0.50135506  0.50195886  0.16720157  1
  Ni  Ni14  1  0.33475813  0.33364839  0.33379293  1
  Ni  Ni15  1  0.33489308  0.66757913  0.00211391  1
  Ni  Ni16  1  0.50135528  0.83403098  0.16811873  1
  Ni  Ni17  1  0.33572641  0.66808985  0.33238911  1
  Ni  Ni18  1  0.66795055  0.00196871  0.00187214  1
  Fe  Fe19  1  0.83487287  0.16815181  0.16807660  1
  Ni  Ni20  1  0.66788673  1.00069241  0.33496374  1
  Ni  Ni21  1  0.66803833  0.33405364  1.00084566  1
  Ni  Ni22  1  0.83349092  0.50066872  0.16901964  1
  Ni  Ni23  1  0.66813659  0.33481974  0.33470606  1
  Ni  Ni24  1  0.66748137  0.66757921  0.00207338  1
  Ni  Ni25  1  0.83296190  0.83479194  0.16863032  1
  Ni  Ni26  1  0.66833733  0.66808952  0.33461950  1
  Ni  Ni27  1  0.16813664  0.16803701  0.50154368  1
  Ni  Ni28  1  1.00060033  0.00154988  0.66942968  1
  Ni  Ni29  1  0.16803552  0.16855559  0.83412285  1
  Cr  Cr30  1  0.16747288  0.49930476  0.50046868  1
  Ni  Ni31  1  1.00060204  0.33393999  0.66864700  1
  Ni  Ni32  1  0.16794831  0.50002015  0.83400390  1
  Cr  Cr33  1  0.16823998  0.83608957  0.50124229  1
  Ni  Ni34  1  0.99951244  0.66811196  0.66960840  1
  Ni  Ni35  1  0.16748166  0.83502884  0.83393725  1
  Ni  Ni36  1  0.50143828  0.16758873  0.50099515  1
  Ni  Ni37  1  0.33424337  0.00283655  0.66761023  1
  Ni  Ni38  1  0.50106563  0.16902399  0.83482189  1
  Ni  Ni39  1  0.50334706  0.50112271  0.50171306  1
  Ni  Ni40  1  0.33500405  0.33341242  0.66889310  1
  Fe  Fe41  1  0.50114740  0.49938862  0.83459685  1
  Ni  Ni42  1  0.50335008  0.83488911  0.50083747  1
  Ni  Ni43  1  0.33480313  0.66734771  0.66909600  1
  Cr  Cr44  1  0.50133684  0.83491954  0.83442787  1
  Ni  Ni45  1  0.83402673  0.16803839  0.50105540  1
  Ni  Ni46  1  0.66875827  0.00175051  0.66676864  1
  Ni  Ni47  1  0.83450164  0.16855484  0.83500829  1
  Ni  Ni48  1  0.83236080  0.50092265  0.50102605  1
  Ni  Ni49  1  0.66799580  0.33449800  0.66805300  1
  Ni  Ni50  1  0.83452674  0.50008343  0.83355568  1
  Ni  Ni51  1  0.83191291  0.83464118  0.50148360  1
  Ni  Ni52  1  0.66928809  0.66735079  0.66690617  1
  Ni  Ni53  1  0.83499642  0.83496584  0.83348949  1
" 