2966,Ni85Fe15_1,-230.489650468408, 170.762116431333,Ni85Fe15,"# generated using pymatgen
 data_Fe5Ni
_symmetry_space_group_name_H-M   'P 1'
_cell_length_a   7.39929605
_cell_length_b   7.39929605
_cell_length_c   10.46418483
_cell_angle_alpha   90.00000000
_cell_angle_beta   90.00000000
_cell_angle_gamma   90.00000000
_symmetry_Int_Tables_number   1
_chemical_formula_structural   Fe5Ni
_chemical_formula_sum   'Fe45 Ni9'
_cell_volume   572.90974636
_cell_formula_units_Z   9
loop_
 _symmetry_equiv_pos_site_id
 _symmetry_equiv_pos_as_xyz
  1  'x, y, z'
loop_
 _atom_site_type_symbol
 _atom_site_label
 _atom_site_symmetry_multiplicity
 _atom_site_fract_x
 _atom_site_fract_y
 _atom_site_fract_z
 _atom_site_occupancy
  Fe  Fe0  1  0.00526106  0.00501591  0.00474969  1
  Ni  Ni1  1  0.17045105  0.17274721  0.17157854  1
  Fe  Fe2  1  0.00465674  0.00624436  0.33783467  1
  Fe  Fe3  1  0.00565424  0.33835522  0.00501893  1
  Ni  Ni4  1  0.17090111  0.50286423  0.17112654  1
  Fe  Fe5  1  0.00502060  0.33781640  0.33756733  1
  Ni  Ni6  1  1.00389658  0.67204090  1.00447910  1
  Fe  Fe7  1  0.17132692  0.83764173  0.17097877  1
  Fe  Fe8  1  0.00475371  0.66967368  0.33722877  1
  Fe  Fe9  1  0.33730550  1.00441615  1.00441864  1
  Fe  Fe10  1  0.50316060  0.17202154  0.17160617  1
  Fe  Fe11  1  0.33860765  0.00562172  0.33816712  1
  Ni  Ni12  1  0.33860730  0.33732909  1.00422488  1
  Fe  Fe13  1  0.50316196  0.50360546  0.17100331  1
  Ni  Ni14  1  0.33901187  0.33745979  0.33859665  1
  Fe  Fe15  1  0.33773409  0.67043302  0.00475481  1
  Ni  Ni16  1  0.50563269  0.83767618  0.17112999  1
  Fe  Fe17  1  0.33870431  0.67010031  0.33756272  1
  Fe  Fe18  1  0.67116831  1.00412252  0.00484688  1
  Fe  Fe19  1  0.83807976  0.17132326  0.17160792  1
  Fe  Fe20  1  0.67047035  0.00535395  0.33764191  1
  Fe  Fe21  1  0.67123603  0.33878414  1.00453154  1
  Fe  Fe22  1  0.83854201  0.50477012  0.17133994  1
  Ni  Ni23  1  0.67012384  0.33790786  0.33745023  1
  Fe  Fe24  1  0.67063811  0.67082939  1.00438725  1
  Fe  Fe25  1  0.83895205  0.83764394  0.17088290  1
  Fe  Fe26  1  0.67027736  0.67046729  0.33783444  1
  Fe  Fe27  1  0.17178547  0.17105338  0.50416665  1
  Fe  Fe28  1  0.00511721  0.00467731  0.67115146  1
  Fe  Fe29  1  0.17248265  0.17175141  0.83832381  1
  Fe  Fe30  1  0.17132301  0.50450142  0.50370495  1
  Fe  Fe31  1  0.00508935  0.33711725  0.67114929  1
  Fe  Fe32  1  0.17168689  0.50467390  0.83905523  1
  Fe  Fe33  1  0.17132306  0.83817933  0.50522806  1
  Fe  Fe34  1  0.00518320  0.67194032  0.67175410  1
  Fe  Fe35  1  0.17165896  0.83730917  0.83752766  1
  Fe  Fe36  1  0.50440430  0.17151181  0.50440901  1
  Ni  Ni37  1  0.33802786  0.00480990  0.67136019  1
  Fe  Fe38  1  0.50413759  0.17187780  0.83771987  1
  Fe  Fe39  1  0.50476855  0.50394506  0.50474395  1
  Fe  Fe40  1  0.33808195  0.33764508  0.67160952  1
  Ni  Ni41  1  0.50456377  0.50503406  0.83792434  1
  Fe  Fe42  1  0.50430759  0.83827724  0.50433784  1
  Fe  Fe43  1  0.33827635  0.67170448  0.67141688  1
  Fe  Fe44  1  0.50440266  0.83774292  0.83805665  1
  Fe  Fe45  1  0.83754551  0.17151474  0.50440427  1
  Fe  Fe46  1  0.67080162  1.00448178  0.67124527  1
  Fe  Fe47  1  0.83711642  0.17184934  0.83772082  1
  Fe  Fe48  1  0.83764324  0.50440582  0.50440635  1
  Fe  Fe49  1  0.67056337  0.33757784  0.67090937  1
  Fe  Fe50  1  0.83754826  0.50494146  0.83798629  1
  Fe  Fe51  1  0.83810417  0.83781410  0.50467096  1
  Fe  Fe52  1  0.67027536  0.67167651  0.67151246  1
  Fe  Fe53  1  0.83767093  0.83694631  0.83818028  1
" 