8372,Ni85Cr15_0,-205.714848748802, 168.4393725772,Ni85Cr15,"# generated using pymatgen
 data_Cr5Ni
_symmetry_space_group_name_H-M   'P 1'
_cell_length_a   7.58509646
_cell_length_b   7.58509646
_cell_length_c   10.72694628
_cell_angle_alpha   90.00000000
_cell_angle_beta   90.00000000
_cell_angle_gamma   90.00000000
_symmetry_Int_Tables_number   1
_chemical_formula_structural   Cr5Ni
_chemical_formula_sum   'Cr45 Ni9'
_cell_volume   617.16078328
_cell_formula_units_Z   9
loop_
 _symmetry_equiv_pos_site_id
 _symmetry_equiv_pos_as_xyz
  1  'x, y, z'
loop_
 _atom_site_type_symbol
 _atom_site_label
 _atom_site_symmetry_multiplicity
 _atom_site_fract_x
 _atom_site_fract_y
 _atom_site_fract_z
 _atom_site_occupancy
  Cr  Cr0  1  -0.00736414  0.99033310  -0.00450843  1
  Ni  Ni1  1  0.16086958  0.15568233  0.15635327  1
  Cr  Cr2  1  -0.00632874  0.99134307  0.32267090  1
  Cr  Cr3  1  -0.00677306  0.32592835  -0.00598019  1
  Cr  Cr4  1  0.15977957  0.49082218  0.15618851  1
  Cr  Cr5  1  -0.00640466  0.32395902  0.32466586  1
  Ni  Ni6  1  -0.00654769  0.66192435  -0.00483628  1
  Ni  Ni7  1  0.15771534  0.82766972  0.15590444  1
  Cr  Cr8  1  -0.00682128  0.66052704  0.32242759  1
  Ni  Ni9  1  0.32320377  -0.00487143  -0.00661204  1
  Cr  Cr10  1  0.48960632  0.15902408  0.15630866  1
  Cr  Cr11  1  0.32310332  0.99173123  0.32304214  1
  Ni  Ni12  1  0.32456000  0.32097826  -0.00778052  1
  Cr  Cr13  1  0.49231973  0.49214233  0.15989070  1
  Cr  Cr14  1  0.32363275  0.32413461  0.32473847  1
  Cr  Cr15  1  0.32330158  0.66103765  -0.00754300  1
  Cr  Cr16  1  0.49247164  0.82573575  0.15965727  1
  Cr  Cr17  1  0.32455478  0.66058376  0.32656524  1
  Cr  Cr18  1  0.65742541  -0.00758433  0.99155919  1
  Cr  Cr19  1  0.82650692  0.15757718  0.15965128  1
  Cr  Cr20  1  0.66024651  0.99064747  0.32391127  1
  Cr  Cr21  1  0.65700628  0.32396538  0.98929832  1
  Cr  Cr22  1  0.82501534  0.49397098  0.15859807  1
  Cr  Cr23  1  0.65949351  0.32582516  0.32600187  1
  Cr  Cr24  1  0.66156868  0.66053477  -0.00675939  1
  Ni  Ni25  1  0.82858442  0.82344276  0.15891555  1
  Ni  Ni26  1  0.66136674  0.66109785  0.32372758  1
  Cr  Cr27  1  0.15760206  0.15747450  0.49267049  1
  Ni  Ni28  1  -0.00754448  0.99196953  0.65884591  1
  Cr  Cr29  1  0.15956578  0.15772287  0.82626634  1
  Cr  Cr30  1  0.15859262  0.49191815  0.49301542  1
  Cr  Cr31  1  0.99209773  0.32506832  0.65776513  1
  Cr  Cr32  1  0.15862696  0.49223552  0.82815153  1
  Cr  Cr33  1  0.15789369  0.82717902  0.49503386  1
  Cr  Cr34  1  -0.00698280  0.65926936  0.66075069  1
  Cr  Cr35  1  0.15796545  0.82692154  0.82577203  1
  Cr  Cr36  1  0.49227393  0.15787054  0.49163924  1
  Cr  Cr37  1  0.32594977  -0.00747529  0.65958813  1
  Ni  Ni38  1  0.48847601  0.15857782  0.82846905  1
  Cr  Cr39  1  0.49321624  0.49363539  0.48853680  1
  Cr  Cr40  1  0.32674107  0.32591529  0.65951870  1
  Cr  Cr41  1  0.49036540  0.49122866  0.82789569  1
  Cr  Cr42  1  0.49346280  0.82502438  0.49022659  1
  Cr  Cr43  1  0.32589498  0.65858940  0.65758021  1
  Cr  Cr44  1  0.49034609  0.82821958  0.82636643  1
  Cr  Cr45  1  0.82686386  0.15728969  0.49377723  1
  Cr  Cr46  1  0.65862720  -0.00680073  0.66126194  1
  Cr  Cr47  1  0.82622071  0.15770600  0.82315410  1
  Cr  Cr48  1  0.82496671  0.49313073  0.49039802  1
  Cr  Cr49  1  0.65759237  0.32507777  0.66128212  1
  Cr  Cr50  1  0.82757950  0.49346861  0.82790710  1
  Cr  Cr51  1  0.82566962  0.82621908  0.49278230  1
  Cr  Cr52  1  0.65784004  0.65849387  0.65924487  1
  Cr  Cr53  1  0.82779600  0.82569968  0.82583563  1
" 