6741,Ni85Cr15_16,-205.653420111843, 166.46176321776,Ni85Cr15,"# generated using pymatgen
 data_Cr5Ni
_symmetry_space_group_name_H-M   'P 1'
_cell_length_a   7.58538517
_cell_length_b   7.58538517
_cell_length_c   10.72735458
_cell_angle_alpha   90.00000000
_cell_angle_beta   90.00000000
_cell_angle_gamma   90.00000000
_symmetry_Int_Tables_number   1
_chemical_formula_structural   Cr5Ni
_chemical_formula_sum   'Cr45 Ni9'
_cell_volume   617.23125818
_cell_formula_units_Z   9
loop_
 _symmetry_equiv_pos_site_id
 _symmetry_equiv_pos_as_xyz
  1  'x, y, z'
loop_
 _atom_site_type_symbol
 _atom_site_label
 _atom_site_symmetry_multiplicity
 _atom_site_fract_x
 _atom_site_fract_y
 _atom_site_fract_z
 _atom_site_occupancy
  Cr  Cr0  1  0.99219610  0.98997911  -0.00609651  1
  Cr  Cr1  1  0.16117246  0.15866768  0.15765187  1
  Cr  Cr2  1  -0.00775890  0.99045465  0.32497222  1
  Cr  Cr3  1  0.99211264  0.32553383  0.99077641  1
  Cr  Cr4  1  0.16052089  0.49206903  0.15829478  1
  Cr  Cr5  1  0.99098417  0.32462764  0.32823535  1
  Cr  Cr6  1  -0.00773478  0.66108982  -0.00609497  1
  Ni  Ni7  1  0.15720931  0.82545565  0.15912470  1
  Cr  Cr8  1  -0.00660056  0.66149843  0.32376858  1
  Cr  Cr9  1  0.32498583  -0.00612132  -0.00709239  1
  Ni  Ni10  1  0.49220289  0.16252420  0.15667847  1
  Cr  Cr11  1  0.32426620  0.99161017  0.32540084  1
  Ni  Ni12  1  0.32981342  0.32557928  -0.00589354  1
  Ni  Ni13  1  0.49220200  0.48864117  0.15672189  1
  Cr  Cr14  1  0.32793923  0.32587003  0.32337776  1
  Cr  Cr15  1  0.32496686  0.65712086  -0.00713172  1
  Cr  Cr16  1  0.49283726  0.82585288  0.15946512  1
  Cr  Cr17  1  0.32430254  0.65912599  0.32577929  1
  Cr  Cr18  1  0.65944464  -0.00598674  -0.00709153  1
  Cr  Cr19  1  0.82390764  0.15809625  0.15870280  1
  Cr  Cr20  1  0.66007676  -0.00598943  0.32540262  1
  Ni  Ni21  1  0.65464552  0.32553298  -0.00590590  1
  Cr  Cr22  1  0.82387271  0.49330650  0.15829003  1
  Cr  Cr23  1  0.65769996  0.32470278  0.32499162  1
  Cr  Cr24  1  0.65938010  0.65707024  -0.00709640  1
  Ni  Ni25  1  0.82719868  0.82544663  0.15870335  1
  Cr  Cr26  1  0.65886687  0.65787618  0.32416129  1
  Cr  Cr27  1  0.15663616  0.15892512  0.49321646  1
  Cr  Cr28  1  0.99216951  -0.00623017  0.65779175  1
  Cr  Cr29  1  0.15891613  0.16085197  0.82573011  1
  Cr  Cr30  1  0.15765250  0.49211590  0.49321211  1
  Ni  Ni31  1  0.99108652  0.32453237  0.65774458  1
  Cr  Cr32  1  0.15831884  0.48992396  0.82510552  1
  Ni  Ni33  1  0.15864610  0.82573569  0.49219754  1
  Cr  Cr34  1  -0.00667919  0.65813245  0.65895803  1
  Cr  Cr35  1  0.15945374  0.82583772  0.82546376  1
  Cr  Cr36  1  0.49321588  0.15763220  0.49160427  1
  Cr  Cr37  1  0.32481242  0.99114331  0.65828032  1
  Cr  Cr38  1  0.49160153  0.15910508  0.82790693  1
  Cr  Cr39  1  0.49221761  0.49338647  0.49160278  1
  Cr  Cr40  1  0.32456654  0.32583901  0.65926027  1
  Cr  Cr41  1  0.49220926  0.49167784  0.82727799  1
  Cr  Cr42  1  0.49112894  0.82558662  0.49367285  1
  Cr  Cr43  1  0.32482751  0.65961844  0.65792370  1
  Cr  Cr44  1  0.49279112  0.82582918  0.82344433  1
  Ni  Ni45  1  0.82684430  0.15968852  0.49369168  1
  Cr  Cr46  1  0.65955838  -0.00654741  0.65830336  1
  Cr  Cr47  1  0.82609307  0.16026231  0.82469004  1
  Cr  Cr48  1  0.82676828  0.49008132  0.49323318  1
  Cr  Cr49  1  0.66101100  0.32467952  0.65772103  1
  Cr  Cr50  1  0.82608592  0.49109887  0.82508226  1
  Cr  Cr51  1  0.82539365  0.82657765  0.49159536  1
  Cr  Cr52  1  0.65839824  0.65843157  0.65948140  1
  Cr  Cr53  1  0.82434584  0.82523026  0.82649262  1
" 