3837,Ni85Fe14Cr0_8,-241.55810700954, 198.13418925901,Ni85Fe14Cr0,"# generated using pymatgen
 data_CrFe7Ni46
_symmetry_space_group_name_H-M   'P 1'
_cell_length_a   7.43532163
_cell_length_b   7.43532163
_cell_length_c   10.51513268
_cell_angle_alpha   90.00000000
_cell_angle_beta   90.00000000
_cell_angle_gamma   90.00000000
_symmetry_Int_Tables_number   1
_chemical_formula_structural   CrFe7Ni46
_chemical_formula_sum   'Cr1 Fe7 Ni46'
_cell_volume   581.31867599
_cell_formula_units_Z   1
loop_
 _symmetry_equiv_pos_site_id
 _symmetry_equiv_pos_as_xyz
  1  'x, y, z'
loop_
 _atom_site_type_symbol
 _atom_site_label
 _atom_site_symmetry_multiplicity
 _atom_site_fract_x
 _atom_site_fract_y
 _atom_site_fract_z
 _atom_site_occupancy
  Ni  Ni0  1  1.00195782  0.00260019  1.00172475  1
  Ni  Ni1  1  0.16988840  0.16876653  0.16895301  1
  Ni  Ni2  1  1.00183039  0.00228009  0.33549779  1
  Ni  Ni3  1  1.00198304  0.33496483  1.00123356  1
  Ni  Ni4  1  0.16862077  0.50258370  0.16916083  1
  Ni  Ni5  1  1.00178062  0.33518642  0.33595032  1
  Ni  Ni6  1  1.00168812  0.66883520  1.00162928  1
  Ni  Ni7  1  0.16865258  0.83505028  0.16866946  1
  Ni  Ni8  1  1.00155968  0.66893041  0.33584567  1
  Ni  Ni9  1  0.33445888  1.00184369  0.00241106  1
  Ni  Ni10  1  0.50198384  0.16901918  0.16911564  1
  Ni  Ni11  1  0.33542154  0.00257855  0.33587786  1
  Ni  Ni12  1  0.33471173  0.33599386  0.00268525  1
  Fe  Fe13  1  0.50208306  0.50158538  0.16879343  1
  Ni  Ni14  1  0.33573792  0.33515326  0.33557169  1
  Ni  Ni15  1  0.33574494  0.66856167  1.00102479  1
  Fe  Fe16  1  0.50214281  0.83603964  0.16873802  1
  Ni  Ni17  1  0.33565549  0.66866658  0.33619262  1
  Ni  Ni18  1  0.66999195  1.00155693  0.00218512  1
  Ni  Ni19  1  0.83452925  0.16903657  0.16873546  1
  Ni  Ni20  1  0.66915023  0.00235163  0.33620208  1
  Ni  Ni21  1  0.66971051  0.33625887  0.00246186  1
  Ni  Ni22  1  0.83582741  0.50228912  0.16894208  1
  Ni  Ni23  1  0.66888167  0.33543024  0.33585957  1
  Ni  Ni24  1  0.66897512  0.66858322  1.00156505  1
  Ni  Ni25  1  0.83608285  0.83507396  0.16921540  1
  Ni  Ni26  1  0.66919362  0.66861970  0.33575561  1
  Fe  Fe27  1  0.16908063  0.16804197  0.50205725  1
  Ni  Ni28  1  0.00217518  1.00211673  0.66918489  1
  Ni  Ni29  1  0.16763887  0.16866942  0.83568945  1
  Fe  Fe30  1  0.16908325  0.50285706  0.50188826  1
  Fe  Fe31  1  0.00260164  0.33589336  0.66936092  1
  Ni  Ni32  1  0.16894642  0.50266972  0.83536093  1
  Ni  Ni33  1  0.16904860  0.83522477  0.50192231  1
  Ni  Ni34  1  1.00113862  0.66954425  0.66892830  1
  Ni  Ni35  1  0.16889086  0.83507570  0.83580645  1
  Ni  Ni36  1  0.50214464  0.16919698  0.50187389  1
  Ni  Ni37  1  0.33411446  1.00207791  0.66811428  1
  Cr  Cr38  1  0.50185346  0.16874250  0.83563651  1
  Ni  Ni39  1  0.50220669  0.50154370  0.50180129  1
  Ni  Ni40  1  0.33527402  0.33586815  0.66815446  1
  Ni  Ni41  1  0.50183519  0.50367759  0.83585644  1
  Ni  Ni42  1  0.50112857  0.83565177  0.50186393  1
  Ni  Ni43  1  0.33629111  0.66845147  0.66917670  1
  Ni  Ni44  1  0.50155085  0.83371582  0.83552473  1
  Ni  Ni45  1  0.83466244  0.16914594  0.50168789  1
  Fe  Fe46  1  0.66922239  1.00027557  0.66783568  1
  Ni  Ni47  1  0.83699438  0.16893462  0.83597424  1
  Ni  Ni48  1  0.83509595  0.50206679  0.50177084  1
  Fe  Fe49  1  0.66921717  0.33687613  0.66780466  1
  Ni  Ni50  1  0.83562815  0.50243560  0.83568234  1
  Ni  Ni51  1  0.83621702  0.83519302  0.50181402  1
  Ni  Ni52  1  0.66897239  0.66838488  0.66906956  1
  Ni  Ni53  1  0.83594986  0.83503594  0.83536957  1
" 