4682,Ni85Fe12Cr2_15,-239.727712554438, 190.865274350939,Ni85Fe12Cr2,"# generated using pymatgen
 data_CrFe2Ni15
_symmetry_space_group_name_H-M   'P 1'
_cell_length_a   7.44215036
_cell_length_b   7.44215036
_cell_length_c   10.52478998
_cell_angle_alpha   90.00000000
_cell_angle_beta   90.00000000
_cell_angle_gamma   90.00000000
_symmetry_Int_Tables_number   1
_chemical_formula_structural   CrFe2Ni15
_chemical_formula_sum   'Cr3 Fe6 Ni45'
_cell_volume   582.92182934
_cell_formula_units_Z   3
loop_
 _symmetry_equiv_pos_site_id
 _symmetry_equiv_pos_as_xyz
  1  'x, y, z'
loop_
 _atom_site_type_symbol
 _atom_site_label
 _atom_site_symmetry_multiplicity
 _atom_site_fract_x
 _atom_site_fract_y
 _atom_site_fract_z
 _atom_site_occupancy
  Ni  Ni0  1  1.00151367  0.00179824  0.00192159  1
  Fe  Fe1  1  0.16968767  0.16962407  0.16745344  1
  Cr  Cr2  1  1.00018293  0.00362280  0.33340969  1
  Ni  Ni3  1  0.00200397  0.33494449  0.00178156  1
  Ni  Ni4  1  0.16853774  0.50206960  0.16894250  1
  Ni  Ni5  1  1.00144036  0.33609496  0.33531313  1
  Ni  Ni6  1  0.00193030  0.66829857  1.00139489  1
  Ni  Ni7  1  0.16952268  0.83329287  0.16634087  1
  Fe  Fe8  1  1.00030564  0.66645730  0.33306267  1
  Ni  Ni9  1  0.33448706  1.00087178  1.00161378  1
  Ni  Ni10  1  0.50277266  0.16879586  0.16808628  1
  Ni  Ni11  1  0.33693127  0.00186156  0.33453440  1
  Ni  Ni12  1  0.33453223  0.33626039  0.00184911  1
  Ni  Ni13  1  0.50136129  0.50084257  0.16816176  1
  Ni  Ni14  1  0.33493393  0.33585303  0.33542225  1
  Ni  Ni15  1  0.33547810  0.66783082  0.00175301  1
  Ni  Ni16  1  0.50116465  0.83538353  0.16868675  1
  Ni  Ni17  1  0.33731570  0.66726989  0.33408000  1
  Ni  Ni18  1  0.66895331  1.00079915  0.00180616  1
  Ni  Ni19  1  0.83312336  0.16962301  0.16775142  1
  Ni  Ni20  1  0.66720335  1.00097034  0.33605287  1
  Ni  Ni21  1  0.66849661  0.33590302  1.00144908  1
  Ni  Ni22  1  0.83511844  0.50052511  0.16723159  1
  Ni  Ni23  1  0.66869931  0.33607213  0.33517225  1
  Ni  Ni24  1  0.66760695  0.66837420  0.00209664  1
  Ni  Ni25  1  0.83429069  0.83468186  0.16746294  1
  Ni  Ni26  1  0.66735808  0.66788054  0.33470340  1
  Ni  Ni27  1  0.17013140  0.17090652  0.50115165  1
  Cr  Cr28  1  1.00070700  0.00375038  0.66922983  1
  Ni  Ni29  1  0.16806388  0.16970357  0.83648927  1
  Fe  Fe30  1  0.16902499  0.50009330  0.50160846  1
  Ni  Ni31  1  0.00187974  0.33567650  0.66793776  1
  Ni  Ni32  1  0.16958432  0.50112690  0.83404187  1
  Cr  Cr33  1  0.17064700  0.83310912  0.50236267  1
  Fe  Fe34  1  1.00045923  0.66663987  0.67029387  1
  Ni  Ni35  1  0.16946759  0.83400067  0.83623735  1
  Ni  Ni36  1  0.50170992  0.16917649  0.50268316  1
  Ni  Ni37  1  0.33659019  0.00190638  0.66914323  1
  Fe  Fe38  1  0.50117002  0.16775786  0.83509738  1
  Ni  Ni39  1  0.50225563  0.50129527  0.50122759  1
  Ni  Ni40  1  0.33451610  0.33591945  0.66786709  1
  Ni  Ni41  1  0.50103719  0.50152607  0.83564063  1
  Ni  Ni42  1  0.50263703  0.83444605  0.50159525  1
  Ni  Ni43  1  0.33743868  0.66702586  0.66906460  1
  Ni  Ni44  1  0.50169808  0.83383886  0.83471522  1
  Ni  Ni45  1  0.83316605  0.17068547  0.50150328  1
  Ni  Ni46  1  0.66752017  1.00068747  0.66733168  1
  Ni  Ni47  1  0.83429188  0.16923956  0.83562909  1
  Ni  Ni48  1  0.83449377  0.50112722  0.50233751  1
  Ni  Ni49  1  0.66861797  0.33614801  0.66855729  1
  Fe  Fe50  1  0.83528433  0.50207134  0.83542465  1
  Ni  Ni51  1  0.83217633  0.83269775  0.50153669  1
  Ni  Ni52  1  0.66700244  0.66812488  0.66820551  1
  Ni  Ni53  1  0.83380395  0.83564430  0.83588019  1
" 