7645,Ni85Fe15_15,-230.662551377868, 168.619304858169,Ni85Fe15,"# generated using pymatgen
 data_Fe5Ni
_symmetry_space_group_name_H-M   'P 1'
_cell_length_a   7.40350379
_cell_length_b   7.40350379
_cell_length_c   10.47013547
_cell_angle_alpha   90.00000000
_cell_angle_beta   90.00000000
_cell_angle_gamma   90.00000000
_symmetry_Int_Tables_number   1
_chemical_formula_structural   Fe5Ni
_chemical_formula_sum   'Fe45 Ni9'
_cell_volume   573.88768650
_cell_formula_units_Z   9
loop_
 _symmetry_equiv_pos_site_id
 _symmetry_equiv_pos_as_xyz
  1  'x, y, z'
loop_
 _atom_site_type_symbol
 _atom_site_label
 _atom_site_symmetry_multiplicity
 _atom_site_fract_x
 _atom_site_fract_y
 _atom_site_fract_z
 _atom_site_occupancy
  Fe  Fe0  1  0.00571120  1.00415495  1.00355449  1
  Fe  Fe1  1  0.17081346  0.17152154  0.16996565  1
  Fe  Fe2  1  0.00429374  0.00438006  0.33827898  1
  Fe  Fe3  1  0.00536673  0.33819348  0.00446515  1
  Fe  Fe4  1  0.17087067  0.50429367  0.17070872  1
  Fe  Fe5  1  1.00395031  0.33788030  0.33728019  1
  Fe  Fe6  1  0.00508038  0.67052620  1.00424377  1
  Fe  Fe7  1  0.17072931  0.83705942  0.17079382  1
  Fe  Fe8  1  1.00403564  0.67061359  0.33802284  1
  Ni  Ni9  1  0.33728322  0.00513818  1.00426627  1
  Fe  Fe10  1  0.50443311  0.17160980  0.17079671  1
  Fe  Fe11  1  0.33771195  1.00429009  0.33714116  1
  Ni  Ni12  1  0.33768824  0.33707380  0.00479631  1
  Fe  Fe13  1  0.50463724  0.50446014  0.17036413  1
  Fe  Fe14  1  0.33762200  0.33753676  0.33731986  1
  Ni  Ni15  1  0.33867632  0.67066279  0.00438573  1
  Fe  Fe16  1  0.50468809  0.83680451  0.16970638  1
  Fe  Fe17  1  0.33762607  0.67104758  0.33731985  1
  Fe  Fe18  1  0.66888110  1.00343319  1.00412224  1
  Fe  Fe19  1  0.83762501  0.17146774  0.17130517  1
  Fe  Fe20  1  0.67086858  0.00437588  0.33779949  1
  Fe  Fe21  1  0.66966105  0.33848136  0.00472348  1
  Ni  Ni22  1  0.83751207  0.50439648  0.17126450  1
  Fe  Fe23  1  0.67130232  0.33779463  0.33754400  1
  Ni  Ni24  1  0.67101507  0.67064965  0.00450334  1
  Fe  Fe25  1  0.83745896  0.83685668  0.17096107  1
  Fe  Fe26  1  0.67121222  0.67070416  0.33680066  1
  Fe  Fe27  1  0.17079154  0.17070222  0.50502788  1
  Ni  Ni28  1  1.00419783  1.00377469  0.67035075  1
  Ni  Ni29  1  0.17082763  0.17108454  0.83741778  1
  Fe  Fe30  1  0.17087848  0.50463583  0.50446122  1
  Fe  Fe31  1  0.00445881  0.33737147  0.67112938  1
  Fe  Fe32  1  0.17186886  0.50451638  0.83770664  1
  Fe  Fe33  1  0.17036098  0.83753728  0.50462683  1
  Ni  Ni34  1  1.00378373  0.67189666  0.67075647  1
  Fe  Fe35  1  0.17138459  0.83822798  0.83745218  1
  Fe  Fe36  1  0.50437647  0.17113331  0.50403114  1
  Fe  Fe37  1  0.33654549  1.00372587  0.67186359  1
  Fe  Fe38  1  0.50326358  0.17053314  0.83804900  1
  Fe  Fe39  1  0.50420253  0.50411768  0.50420720  1
  Fe  Fe40  1  0.33614926  0.33736939  0.67151897  1
  Fe  Fe41  1  0.50347002  0.50440297  0.83830651  1
  Fe  Fe42  1  0.50429052  0.83762336  0.50468475  1
  Fe  Fe43  1  0.33680180  0.67177988  0.67143048  1
  Ni  Ni44  1  0.50431473  0.83727826  0.83754868  1
  Fe  Fe45  1  0.83770630  0.17061432  0.50446010  1
  Fe  Fe46  1  0.67186472  1.00346984  0.67095132  1
  Fe  Fe47  1  0.83782595  0.17004630  0.83710710  1
  Fe  Fe48  1  0.83779283  0.50454947  0.50389291  1
  Fe  Fe49  1  0.67226557  0.33762627  0.67060862  1
  Fe  Fe50  1  0.83753856  0.50480445  0.83810791  1
  Fe  Fe51  1  0.83822139  0.83771145  0.50480137  1
  Fe  Fe52  1  0.67186618  0.67177699  0.67169596  1
  Fe  Fe53  1  0.83793697  0.83802273  0.83711067  1
" 