4733,Ni85Fe12Cr2_9,-239.546948398514, 189.589323227194,Ni85Fe12Cr2,"# generated using pymatgen
 data_CrFe2Ni15
_symmetry_space_group_name_H-M   'P 1'
_cell_length_a   7.43973549
_cell_length_b   7.43973549
_cell_length_c   10.52137483
_cell_angle_alpha   90.00000000
_cell_angle_beta   90.00000000
_cell_angle_gamma   90.00000000
_symmetry_Int_Tables_number   1
_chemical_formula_structural   CrFe2Ni15
_chemical_formula_sum   'Cr3 Fe6 Ni45'
_cell_volume   582.35456297
_cell_formula_units_Z   3
loop_
 _symmetry_equiv_pos_site_id
 _symmetry_equiv_pos_as_xyz
  1  'x, y, z'
loop_
 _atom_site_type_symbol
 _atom_site_label
 _atom_site_symmetry_multiplicity
 _atom_site_fract_x
 _atom_site_fract_y
 _atom_site_fract_z
 _atom_site_occupancy
  Ni  Ni0  1  0.00271563  0.00250010  1.00160842  1
  Ni  Ni1  1  0.16545576  0.16777083  0.16900864  1
  Fe  Fe2  1  0.00279745  0.00265056  0.33604594  1
  Ni  Ni3  1  1.00032893  0.33536561  0.00222766  1
  Ni  Ni4  1  0.16817545  0.50312202  0.16991854  1
  Ni  Ni5  1  0.00194426  0.33560537  0.33431852  1
  Ni  Ni6  1  0.00271671  0.66775285  1.00020759  1
  Ni  Ni7  1  0.16940636  0.83434637  0.16868585  1
  Ni  Ni8  1  0.00292163  0.66676633  0.33717029  1
  Ni  Ni9  1  0.33398136  0.99915930  1.00088028  1
  Cr  Cr10  1  0.50413837  0.16755004  0.17015693  1
  Ni  Ni11  1  0.33442233  1.00055163  0.33559639  1
  Cr  Cr12  1  0.33382033  0.33608716  1.00029353  1
  Ni  Ni13  1  0.50207396  0.50415863  0.16967969  1
  Ni  Ni14  1  0.33311322  0.33591647  0.33704060  1
  Ni  Ni15  1  0.33487973  0.67008255  0.00257451  1
  Ni  Ni16  1  0.50056795  0.83331123  0.16782246  1
  Ni  Ni17  1  0.33492035  0.66915906  0.33445641  1
  Ni  Ni18  1  0.66884063  1.00124891  0.99950872  1
  Ni  Ni19  1  0.83661112  0.16972884  0.16835826  1
  Ni  Ni20  1  0.66802959  1.00119485  0.33786039  1
  Ni  Ni21  1  0.67137507  0.33630727  1.00131405  1
  Fe  Fe22  1  0.83562950  0.50170862  0.16869822  1
  Ni  Ni23  1  0.67039363  0.33604920  0.33597758  1
  Ni  Ni24  1  0.66790591  0.66798306  1.00109711  1
  Cr  Cr25  1  0.83502052  0.83673379  0.16892761  1
  Ni  Ni26  1  0.66780690  0.66830280  0.33577868  1
  Ni  Ni27  1  0.16671506  0.16851804  0.50195579  1
  Ni  Ni28  1  1.00165402  0.00248354  0.66774237  1
  Fe  Fe29  1  0.16758966  0.16761489  0.83390229  1
  Ni  Ni30  1  0.16866014  0.50197344  0.50206852  1
  Ni  Ni31  1  1.00135810  0.33459199  0.66903308  1
  Ni  Ni32  1  0.16775189  0.50374476  0.83348105  1
  Ni  Ni33  1  0.16994770  0.83508894  0.50130625  1
  Fe  Fe34  1  0.00192091  0.66829086  0.66841719  1
  Ni  Ni35  1  0.16837825  0.83437419  0.83563260  1
  Fe  Fe36  1  0.50061658  0.16937865  0.50263449  1
  Ni  Ni37  1  0.33469199  1.00071960  0.66898447  1
  Ni  Ni38  1  0.50430708  0.16774794  0.83288618  1
  Ni  Ni39  1  0.50181587  0.50294718  0.50163858  1
  Ni  Ni40  1  0.33422501  0.33572084  0.66776731  1
  Ni  Ni41  1  0.50232444  0.50257051  0.83417547  1
  Ni  Ni42  1  0.50100941  0.83452043  0.50139678  1
  Ni  Ni43  1  0.33596240  0.66911686  0.66853255  1
  Ni  Ni44  1  0.50141466  0.83517557  0.83634067  1
  Ni  Ni45  1  0.83536806  0.16905721  0.50129876  1
  Ni  Ni46  1  0.66902933  1.00093087  0.66814915  1
  Ni  Ni47  1  0.83471668  0.16835231  0.83593575  1
  Ni  Ni48  1  0.83506525  0.49983345  0.50147257  1
  Ni  Ni49  1  0.66971891  0.33573714  0.66842402  1
  Ni  Ni50  1  0.83545899  0.50102704  0.83592816  1
  Fe  Fe51  1  0.83556057  0.83378473  0.50244150  1
  Ni  Ni52  1  0.66809726  0.66871752  0.66860774  1
  Ni  Ni53  1  0.83576923  0.83598815  0.83375395  1
" 