4730,Ni85Cr15_13,-205.821685620096, 169.420561797223,Ni85Cr15,"# generated using pymatgen
 data_Cr5Ni
_symmetry_space_group_name_H-M   'P 1'
_cell_length_a   7.58291434
_cell_length_b   7.58291434
_cell_length_c   10.72386030
_cell_angle_alpha   90.00000000
_cell_angle_beta   90.00000000
_cell_angle_gamma   90.00000000
_symmetry_Int_Tables_number   1
_chemical_formula_structural   Cr5Ni
_chemical_formula_sum   'Cr45 Ni9'
_cell_volume   616.62829232
_cell_formula_units_Z   9
loop_
 _symmetry_equiv_pos_site_id
 _symmetry_equiv_pos_as_xyz
  1  'x, y, z'
loop_
 _atom_site_type_symbol
 _atom_site_label
 _atom_site_symmetry_multiplicity
 _atom_site_fract_x
 _atom_site_fract_y
 _atom_site_fract_z
 _atom_site_occupancy
  Cr  Cr0  1  0.99144892  -0.00663696  -0.00629824  1
  Cr  Cr1  1  0.15559507  0.16091242  0.15931622  1
  Ni  Ni2  1  0.99111570  -0.00141416  0.32654233  1
  Ni  Ni3  1  0.98946283  0.32725633  -0.00758430  1
  Cr  Cr4  1  0.15580981  0.49042041  0.15839789  1
  Ni  Ni5  1  0.99093769  0.32035030  0.32668923  1
  Ni  Ni6  1  0.99056195  0.65511793  0.99122360  1
  Cr  Cr7  1  0.15651574  0.82583084  0.15862704  1
  Cr  Cr8  1  0.99235395  0.65916287  0.32535950  1
  Cr  Cr9  1  0.32433737  -0.00708519  0.99161130  1
  Cr  Cr10  1  0.49425535  0.15904887  0.15745169  1
  Cr  Cr11  1  0.32163388  -0.00620919  0.32604527  1
  Cr  Cr12  1  0.32420257  0.32569564  -0.00712323  1
  Cr  Cr13  1  0.49252721  0.49167180  0.16090039  1
  Cr  Cr14  1  0.32301203  0.32470014  0.32625886  1
  Cr  Cr15  1  0.32355429  0.65846364  -0.00672448  1
  Cr  Cr16  1  0.49316356  0.82636570  0.15965497  1
  Cr  Cr17  1  0.32461506  0.65833415  0.32577900  1
  Cr  Cr18  1  0.66123731  -0.00587416  -0.00663694  1
  Ni  Ni19  1  0.83052405  0.16091830  0.16029777  1
  Cr  Cr20  1  0.66331130  -0.00490211  0.32484290  1
  Cr  Cr21  1  0.66179521  0.32555878  -0.00694842  1
  Cr  Cr22  1  0.82873979  0.49000390  0.15834362  1
  Cr  Cr23  1  0.66260294  0.32410841  0.32490243  1
  Cr  Cr24  1  0.66136679  0.65733882  0.99172282  1
  Cr  Cr25  1  0.82760256  0.82722765  0.15967326  1
  Cr  Cr26  1  0.66002432  0.65777639  0.32610462  1
  Ni  Ni27  1  0.15282281  0.16070864  0.49135008  1
  Cr  Cr28  1  -0.00753748  -0.00480382  0.65621688  1
  Cr  Cr29  1  0.15691303  0.16140288  0.82544375  1
  Cr  Cr30  1  0.15629246  0.48870976  0.49164206  1
  Ni  Ni31  1  0.99087714  0.32445617  0.65791552  1
  Cr  Cr32  1  0.15506737  0.49029131  0.82707204  1
  Cr  Cr33  1  0.15722851  0.82777952  0.49119235  1
  Cr  Cr34  1  0.99165760  0.65693988  0.66125274  1
  Cr  Cr35  1  0.15728385  0.82525198  0.82737225  1
  Cr  Cr36  1  0.49316622  0.15908203  0.49348522  1
  Cr  Cr37  1  0.32250782  -0.00650875  0.65917782  1
  Cr  Cr38  1  0.49250148  0.15899108  0.82609925  1
  Cr  Cr39  1  0.49290002  0.49175637  0.49141066  1
  Cr  Cr40  1  0.32218028  0.32486607  0.65767729  1
  Cr  Cr41  1  0.49386548  0.49118026  0.82480727  1
  Cr  Cr42  1  0.49351162  0.82627302  0.49271870  1
  Cr  Cr43  1  0.32387719  0.65841985  0.65807553  1
  Cr  Cr44  1  0.49310167  0.82688971  0.82471152  1
  Ni  Ni45  1  0.83161226  0.16109034  0.49073528  1
  Cr  Cr46  1  0.66219855  -0.00588731  0.65882856  1
  Cr  Cr47  1  0.82788422  0.16181659  0.82582517  1
  Cr  Cr48  1  0.82781694  0.48956672  0.49278881  1
  Cr  Cr49  1  0.66310283  0.32570198  0.65934318  1
  Ni  Ni50  1  0.82977082  0.48985525  0.82688823  1
  Cr  Cr51  1  0.82642904  0.82825284  0.49102268  1
  Cr  Cr52  1  0.66124223  0.65726820  0.65953888  1
  Cr  Cr53  1  0.82685950  0.82394865  0.82641991  1
" 