6213,Ni85Fe5Cr9_9,-236.444564469957, 175.678915201105,Ni85Fe5Cr9,"# generated using pymatgen
 data_Cr2FeNi15
_symmetry_space_group_name_H-M   'P 1'
_cell_length_a   7.45620427
_cell_length_b   7.45620427
_cell_length_c   10.54466520
_cell_angle_alpha   90.00000000
_cell_angle_beta   90.00000000
_cell_angle_gamma   90.00000000
_symmetry_Int_Tables_number   1
_chemical_formula_structural   Cr2FeNi15
_chemical_formula_sum   'Cr6 Fe3 Ni45'
_cell_volume   586.23047354
_cell_formula_units_Z   3
loop_
 _symmetry_equiv_pos_site_id
 _symmetry_equiv_pos_as_xyz
  1  'x, y, z'
loop_
 _atom_site_type_symbol
 _atom_site_label
 _atom_site_symmetry_multiplicity
 _atom_site_fract_x
 _atom_site_fract_y
 _atom_site_fract_z
 _atom_site_occupancy
  Ni  Ni0  1  0.00209610  0.00304423  1.00059318  1
  Ni  Ni1  1  0.16756885  0.16923378  0.16764766  1
  Ni  Ni2  1  1.00047754  0.00204829  0.33477330  1
  Ni  Ni3  1  0.00191162  0.33330490  0.00290720  1
  Ni  Ni4  1  0.16923013  0.49809005  0.16860877  1
  Fe  Fe5  1  1.00060948  0.33480127  0.33425580  1
  Cr  Cr6  1  0.00166302  0.66590905  1.00008851  1
  Cr  Cr7  1  0.16963064  0.83456985  0.16837465  1
  Ni  Ni8  1  0.00137849  0.66715182  0.33431561  1
  Ni  Ni9  1  0.33508608  0.00190911  1.00057981  1
  Ni  Ni10  1  0.49952519  0.16726384  0.16631384  1
  Fe  Fe11  1  0.33587576  0.00094648  0.33509209  1
  Ni  Ni12  1  0.33403720  0.33363363  1.00049732  1
  Ni  Ni13  1  0.49917195  0.50128081  0.16632601  1
  Ni  Ni14  1  0.33272476  0.33381959  0.33433516  1
  Ni  Ni15  1  0.33614921  0.66662542  0.99943088  1
  Ni  Ni16  1  0.50247634  0.83337067  0.16777915  1
  Ni  Ni17  1  0.33437937  0.66505365  0.33540409  1
  Ni  Ni18  1  0.66532455  0.00125277  0.00318264  1
  Ni  Ni19  1  0.83494557  0.16649189  0.16644196  1
  Ni  Ni20  1  0.66774656  0.00095280  0.33316033  1
  Ni  Ni21  1  0.66621794  0.33442722  0.00121189  1
  Ni  Ni22  1  0.83348034  0.50063357  0.16746429  1
  Cr  Cr23  1  0.66509735  0.33298909  0.33509136  1
  Ni  Ni24  1  0.66509875  0.66655543  0.00215675  1
  Ni  Ni25  1  0.83228123  0.83519349  0.16811901  1
  Ni  Ni26  1  0.66666666  0.66794148  0.33316484  1
  Ni  Ni27  1  0.16803969  0.16802896  0.50003220  1
  Fe  Fe28  1  0.00391582  0.00197847  0.66654229  1
  Ni  Ni29  1  0.16925600  0.16817743  0.83442633  1
  Ni  Ni30  1  0.16827099  0.50053779  0.50009389  1
  Ni  Ni31  1  0.00227274  0.33580196  0.66527537  1
  Ni  Ni32  1  0.16889748  0.49901345  0.83344985  1
  Ni  Ni33  1  0.16918725  0.83378021  0.50111163  1
  Ni  Ni34  1  0.00341595  0.66469472  0.66735253  1
  Ni  Ni35  1  0.17069703  0.83519992  0.83247037  1
  Ni  Ni36  1  0.49965637  0.16710064  0.50178036  1
  Ni  Ni37  1  0.33475134  0.00103985  0.66643079  1
  Ni  Ni38  1  0.49888339  0.16768350  0.83409288  1
  Ni  Ni39  1  0.49924213  0.50147006  0.50215452  1
  Ni  Ni40  1  0.33368761  0.33336442  0.66735629  1
  Ni  Ni41  1  0.50041006  0.50047076  0.83382779  1
  Ni  Ni42  1  0.49930687  0.83346778  0.50003046  1
  Ni  Ni43  1  0.33321012  0.66776275  0.66739730  1
  Ni  Ni44  1  0.49906391  0.83400986  0.83432504  1
  Ni  Ni45  1  0.83483645  0.16792222  0.50202406  1
  Ni  Ni46  1  0.66289981  0.00214332  0.66588680  1
  Cr  Cr47  1  0.83347340  0.16984935  0.83341743  1
  Ni  Ni48  1  0.83451378  0.50025313  0.50194606  1
  Ni  Ni49  1  0.66633386  0.33411810  0.66613428  1
  Ni  Ni50  1  0.83301645  0.49959678  0.83284955  1
  Cr  Cr51  1  0.83340432  0.83340709  0.50157916  1
  Ni  Ni52  1  0.66559350  0.66584898  0.66702971  1
  Cr  Cr53  1  0.83217835  0.83404963  0.83293228  1
" 