8229,Ni85Cr15_3,-205.696311684752, 170.087371356638,Ni85Cr15,"# generated using pymatgen
 data_Cr5Ni
_symmetry_space_group_name_H-M   'P 1'
_cell_length_a   7.58584740
_cell_length_b   7.58584740
_cell_length_c   10.72800827
_cell_angle_alpha   90.00000000
_cell_angle_beta   90.00000000
_cell_angle_gamma   90.00000000
_symmetry_Int_Tables_number   1
_chemical_formula_structural   Cr5Ni
_chemical_formula_sum   'Cr45 Ni9'
_cell_volume   617.34410226
_cell_formula_units_Z   9
loop_
 _symmetry_equiv_pos_site_id
 _symmetry_equiv_pos_as_xyz
  1  'x, y, z'
loop_
 _atom_site_type_symbol
 _atom_site_label
 _atom_site_symmetry_multiplicity
 _atom_site_fract_x
 _atom_site_fract_y
 _atom_site_fract_z
 _atom_site_occupancy
  Cr  Cr0  1  -0.00761302  -0.00724497  0.99116353  1
  Cr  Cr1  1  0.15938800  0.15938050  0.15934024  1
  Cr  Cr2  1  0.99193519  -0.00761357  0.32605367  1
  Cr  Cr3  1  -0.00648967  0.32613781  0.99191357  1
  Ni  Ni4  1  0.15979622  0.49313295  0.15818004  1
  Cr  Cr5  1  -0.00744930  0.32591520  0.32475708  1
  Cr  Cr6  1  0.99184208  0.65761812  -0.00715471  1
  Cr  Cr7  1  0.15994205  0.82440818  0.15951246  1
  Cr  Cr8  1  -0.00690176  0.65820616  0.32494852  1
  Cr  Cr9  1  0.32510252  -0.00773884  0.99064628  1
  Cr  Cr10  1  0.49157206  0.15832338  0.16006333  1
  Ni  Ni11  1  0.32555920  0.99207505  0.32556084  1
  Cr  Cr12  1  0.32399112  0.32664960  -0.00715630  1
  Cr  Cr13  1  0.49107323  0.49327289  0.15728456  1
  Cr  Cr14  1  0.32494899  0.32540364  0.32382103  1
  Ni  Ni15  1  0.32670270  0.65815900  -0.00662260  1
  Cr  Cr16  1  0.49157040  0.82491264  0.15783744  1
  Cr  Cr17  1  0.32439408  0.65870703  0.32547037  1
  Cr  Cr18  1  0.65902012  0.99058544  -0.00738125  1
  Cr  Cr19  1  0.82554801  0.15888273  0.15955381  1
  Cr  Cr20  1  0.65850574  -0.00705643  0.32627918  1
  Cr  Cr21  1  0.65900816  0.32718991  0.99191157  1
  Cr  Cr22  1  0.82605170  0.49271940  0.15778825  1
  Cr  Cr23  1  0.65901014  0.32424270  0.32643755  1
  Ni  Ni24  1  0.65778199  0.65827016  0.99130402  1
  Cr  Cr25  1  0.82499488  0.82490540  0.15783009  1
  Cr  Cr26  1  0.65901801  0.65932116  0.32568314  1
  Cr  Cr27  1  0.15751200  0.15838820  0.49243577  1
  Cr  Cr28  1  0.99212387  -0.00559484  0.65929286  1
  Ni  Ni29  1  0.15779992  0.15957210  0.82464010  1
  Cr  Cr30  1  0.15801406  0.49201443  0.49222676  1
  Ni  Ni31  1  0.98930121  0.32454108  0.65960657  1
  Cr  Cr32  1  0.15751325  0.49084899  0.82532430  1
  Cr  Cr33  1  0.15968142  0.82610660  0.49128037  1
  Cr  Cr34  1  0.99157683  0.65714732  0.65871176  1
  Cr  Cr35  1  0.15967853  0.82667796  0.82571578  1
  Cr  Cr36  1  0.49359684  0.15895201  0.49149198  1
  Cr  Cr37  1  0.32495490  -0.00718903  0.65979735  1
  Cr  Cr38  1  0.49133143  0.15955077  0.82495308  1
  Cr  Cr39  1  0.49310319  0.49145563  0.49317495  1
  Cr  Cr40  1  0.32495385  0.32495294  0.65984046  1
  Cr  Cr41  1  0.49456035  0.49300993  0.82605415  1
  Cr  Cr42  1  0.49087006  0.82610158  0.49127965  1
  Cr  Cr43  1  0.32550321  0.65874634  0.65820768  1
  Cr  Cr44  1  0.49183329  0.82394805  0.82739189  1
  Ni  Ni45  1  0.82526029  0.16047010  0.49383597  1
  Cr  Cr46  1  0.65943048  -0.00614154  0.65761383  1
  Cr  Cr47  1  0.82716184  0.16170960  0.82380318  1
  Cr  Cr48  1  0.82539199  0.48929207  0.49432414  1
  Ni  Ni49  1  0.66266432  0.32550032  0.65853072  1
  Ni  Ni50  1  0.82465916  0.49113696  0.82449205  1
  Cr  Cr51  1  0.82595695  0.82660446  0.49149664  1
  Cr  Cr52  1  0.65942975  0.65715220  0.65943223  1
  Cr  Cr53  1  0.82499488  0.82344124  0.82718076  1
" 