4146,Ni85Fe12Cr2_1,-239.378658738001, 189.447672304773,Ni85Fe12Cr2,"# generated using pymatgen
 data_CrFe2Ni15
_symmetry_space_group_name_H-M   'P 1'
_cell_length_a   7.43966864
_cell_length_b   7.43966864
_cell_length_c   10.52128029
_cell_angle_alpha   90.00000000
_cell_angle_beta   90.00000000
_cell_angle_gamma   90.00000000
_symmetry_Int_Tables_number   1
_chemical_formula_structural   CrFe2Ni15
_chemical_formula_sum   'Cr3 Fe6 Ni45'
_cell_volume   582.33886447
_cell_formula_units_Z   3
loop_
 _symmetry_equiv_pos_site_id
 _symmetry_equiv_pos_as_xyz
  1  'x, y, z'
loop_
 _atom_site_type_symbol
 _atom_site_label
 _atom_site_symmetry_multiplicity
 _atom_site_fract_x
 _atom_site_fract_y
 _atom_site_fract_z
 _atom_site_occupancy
  Cr  Cr0  1  1.00165890  0.00330623  1.00178554  1
  Ni  Ni1  1  0.16954053  0.16890459  0.16889205  1
  Ni  Ni2  1  1.00064785  1.00085253  0.33411759  1
  Ni  Ni3  1  1.00160628  0.33539314  0.00208502  1
  Ni  Ni4  1  0.16986631  0.50037311  0.16944536  1
  Ni  Ni5  1  1.00064720  0.33594660  0.33367305  1
  Cr  Cr6  1  0.00208191  0.66687214  1.00164601  1
  Ni  Ni7  1  0.16986256  0.83624222  0.17054509  1
  Fe  Fe8  1  0.00237652  0.66862292  0.33548619  1
  Ni  Ni9  1  0.33689411  1.00151645  0.00230397  1
  Ni  Ni10  1  0.50151034  0.16890582  0.16843956  1
  Ni  Ni11  1  0.33552911  1.00002433  0.33398369  1
  Ni  Ni12  1  0.33530604  0.33572648  0.00235766  1
  Ni  Ni13  1  0.50192938  0.50111631  0.16839792  1
  Ni  Ni14  1  0.33579369  0.33703732  0.33413855  1
  Ni  Ni15  1  0.33694215  0.66827776  1.00170957  1
  Fe  Fe16  1  0.50158474  0.83547413  0.16816281  1
  Ni  Ni17  1  0.33448107  0.66845553  0.33518878  1
  Ni  Ni18  1  0.66702024  1.00179846  0.00203686  1
  Ni  Ni19  1  0.83446957  0.16890355  0.16971691  1
  Ni  Ni20  1  0.66934712  0.00216086  0.33502749  1
  Ni  Ni21  1  0.66860884  0.33544311  0.00208916  1
  Ni  Ni22  1  0.83372160  0.50079105  0.16891368  1
  Ni  Ni23  1  0.66908130  0.33490036  0.33518178  1
  Ni  Ni24  1  0.66668939  0.66827927  0.00220316  1
  Ni  Ni25  1  0.83371839  0.83582160  0.17001363  1
  Fe  Fe26  1  0.66829639  0.66823317  0.33547898  1
  Cr  Cr27  1  0.16867602  0.16833745  0.50165934  1
  Ni  Ni28  1  1.00086608  1.00039155  0.66937365  1
  Ni  Ni29  1  0.16868284  0.16912560  0.83502669  1
  Ni  Ni30  1  0.16905224  0.50258673  0.50197453  1
  Ni  Ni31  1  1.00086704  0.33637621  0.66976423  1
  Ni  Ni32  1  0.16977132  0.50006558  0.83409639  1
  Ni  Ni33  1  0.16878714  0.83465662  0.50224291  1
  Ni  Ni34  1  0.00217135  0.66875366  0.66800194  1
  Ni  Ni35  1  0.17060405  0.83632898  0.83272637  1
  Fe  Fe36  1  0.50320459  0.16844929  0.50124580  1
  Ni  Ni37  1  0.33554411  1.00026954  0.66923204  1
  Fe  Fe38  1  0.50182659  0.16839282  0.83565032  1
  Ni  Ni39  1  0.50232066  0.50204278  0.50197748  1
  Ni  Ni40  1  0.33573997  0.33669213  0.66902343  1
  Ni  Ni41  1  0.50202868  0.50247442  0.83514927  1
  Ni  Ni42  1  0.50232152  0.83493271  0.50148545  1
  Ni  Ni43  1  0.33455640  0.66855842  0.66862368  1
  Ni  Ni44  1  0.50202861  0.83475296  0.83589534  1
  Fe  Fe45  1  0.83381631  0.16851099  0.50178870  1
  Ni  Ni46  1  0.66911443  1.00157720  0.66845590  1
  Ni  Ni47  1  0.83529956  0.16912552  0.83414718  1
  Ni  Ni48  1  0.83414444  0.50198085  0.50203284  1
  Ni  Ni49  1  0.66891750  0.33538498  0.66824824  1
  Ni  Ni50  1  0.83372022  0.50055259  0.83457492  1
  Ni  Ni51  1  0.83440951  0.83526562  0.50230076  1
  Ni  Ni52  1  0.66879297  0.66855812  0.66844021  1
  Ni  Ni53  1  0.83288790  0.83584122  0.83320590  1
" 