3708,Ni85Fe5Cr9_11,-236.483898395288, 176.664250780634,Ni85Fe5Cr9,"# generated using pymatgen
 data_Cr2FeNi15
_symmetry_space_group_name_H-M   'P 1'
_cell_length_a   7.45575127
_cell_length_b   7.45575127
_cell_length_c   10.54402456
_cell_angle_alpha   90.00000000
_cell_angle_beta   90.00000000
_cell_angle_gamma   90.00000000
_symmetry_Int_Tables_number   1
_chemical_formula_structural   Cr2FeNi15
_chemical_formula_sum   'Cr6 Fe3 Ni45'
_cell_volume   586.12363097
_cell_formula_units_Z   3
loop_
 _symmetry_equiv_pos_site_id
 _symmetry_equiv_pos_as_xyz
  1  'x, y, z'
loop_
 _atom_site_type_symbol
 _atom_site_label
 _atom_site_symmetry_multiplicity
 _atom_site_fract_x
 _atom_site_fract_y
 _atom_site_fract_z
 _atom_site_occupancy
  Ni  Ni0  1  1.00006152  0.00080423  0.99993004  1
  Ni  Ni1  1  0.16784076  0.16853640  0.16749676  1
  Ni  Ni2  1  0.00159189  0.00161040  0.33486345  1
  Fe  Fe3  1  0.00140128  0.33300288  0.00135076  1
  Fe  Fe4  1  0.16780395  0.49925213  0.16794725  1
  Ni  Ni5  1  0.00079030  0.33436123  0.33351512  1
  Ni  Ni6  1  0.99912373  0.66809353  1.00047725  1
  Cr  Cr7  1  0.16707942  0.83509056  0.16743139  1
  Ni  Ni8  1  0.99992960  0.66630022  0.33517393  1
  Ni  Ni9  1  0.33459079  0.00186466  0.99969323  1
  Ni  Ni10  1  0.49878796  0.16851557  0.16737356  1
  Ni  Ni11  1  0.33318103  0.00192644  0.33478916  1
  Ni  Ni12  1  0.33290917  0.33232528  0.00256694  1
  Ni  Ni13  1  0.50071317  0.50142928  0.16822964  1
  Ni  Ni14  1  0.33325806  0.33332062  0.33290837  1
  Ni  Ni15  1  0.33447988  0.66808011  0.00152479  1
  Ni  Ni16  1  0.50140564  0.83232432  0.16676262  1
  Ni  Ni17  1  0.33379979  0.66702666  0.33382214  1
  Ni  Ni18  1  0.66762035  0.99923890  1.00063463  1
  Ni  Ni19  1  0.83564680  0.16783540  0.16768320  1
  Cr  Cr20  1  0.66754261  0.00108050  0.33355112  1
  Cr  Cr21  1  0.66759302  0.33306517  0.00136242  1
  Ni  Ni22  1  0.83334692  0.50174667  0.16854158  1
  Ni  Ni23  1  0.66822423  0.33497991  0.33344369  1
  Ni  Ni24  1  0.66866711  0.66976671  0.00177708  1
  Ni  Ni25  1  0.83333566  0.83268984  0.16633100  1
  Ni  Ni26  1  0.66854371  0.66622083  0.33252159  1
  Ni  Ni27  1  0.16777946  0.16665201  0.50059694  1
  Ni  Ni28  1  1.00070449  0.00080541  0.66748066  1
  Ni  Ni29  1  0.16765886  0.16528760  0.83417705  1
  Ni  Ni30  1  0.16638441  0.50142357  0.50018357  1
  Ni  Ni31  1  0.99966912  0.33370786  0.66723848  1
  Cr  Cr32  1  0.16664916  0.50108071  0.83423587  1
  Ni  Ni33  1  0.16672119  0.83419683  0.50096714  1
  Ni  Ni34  1  0.99984852  0.66775799  0.66662281  1
  Ni  Ni35  1  0.16734046  0.83591119  0.83388144  1
  Ni  Ni36  1  0.49963110  0.16759580  0.50158239  1
  Ni  Ni37  1  0.33430172  0.00112323  0.66779200  1
  Ni  Ni38  1  0.49981419  0.16516951  0.83331873  1
  Cr  Cr39  1  0.50113709  0.49994107  0.50116461  1
  Ni  Ni40  1  0.33356255  0.33161683  0.66680048  1
  Cr  Cr41  1  0.50162319  0.50140373  0.83286452  1
  Fe  Fe42  1  0.49984079  0.83490042  0.50162489  1
  Ni  Ni43  1  0.33307000  0.66953602  0.66692652  1
  Ni  Ni44  1  0.50067438  0.83548926  0.83411281  1
  Ni  Ni45  1  0.83486101  0.16793273  0.50139738  1
  Ni  Ni46  1  0.66726682  0.00130495  0.66811026  1
  Ni  Ni47  1  0.83479990  0.16625371  0.83318825  1
  Ni  Ni48  1  0.83516031  0.50124444  0.50096578  1
  Ni  Ni49  1  0.66904136  0.33247191  0.66729175  1
  Ni  Ni50  1  0.83437695  0.50193319  0.83276423  1
  Ni  Ni51  1  0.83610762  0.83309629  0.50121316  1
  Ni  Ni52  1  0.66935800  0.66849856  0.66797456  1
  Ni  Ni53  1  0.83425720  0.83408491  0.83472920  1
" 