12,Ni85Fe12Cr2_14,-239.781265408517, 190.634528613689,Ni85Fe12Cr2,"# generated using pymatgen
 data_CrFe2Ni15
_symmetry_space_group_name_H-M   'P 1'
_cell_length_a   7.44244063
_cell_length_b   7.44244063
_cell_length_c   10.52520048
_cell_angle_alpha   90.00000000
_cell_angle_beta   90.00000000
_cell_angle_gamma   90.00000000
_symmetry_Int_Tables_number   1
_chemical_formula_structural   CrFe2Ni15
_chemical_formula_sum   'Cr3 Fe6 Ni45'
_cell_volume   582.99003962
_cell_formula_units_Z   3
loop_
 _symmetry_equiv_pos_site_id
 _symmetry_equiv_pos_as_xyz
  1  'x, y, z'
loop_
 _atom_site_type_symbol
 _atom_site_label
 _atom_site_symmetry_multiplicity
 _atom_site_fract_x
 _atom_site_fract_y
 _atom_site_fract_z
 _atom_site_occupancy
  Ni  Ni0  1  0.99961715  0.00292290  1.00159985  1
  Ni  Ni1  1  0.16691882  0.16854961  0.16923944  1
  Ni  Ni2  1  0.00242733  1.00134002  0.33343535  1
  Ni  Ni3  1  1.00135573  0.33364842  1.00140246  1
  Ni  Ni4  1  0.16896668  0.50142427  0.16882453  1
  Fe  Fe5  1  1.00128664  0.33530270  0.33424258  1
  Cr  Cr6  1  0.00269146  0.66878567  1.00132270  1
  Ni  Ni7  1  0.16872915  0.83498699  0.17010217  1
  Ni  Ni8  1  0.00279468  0.66835027  0.33454286  1
  Cr  Cr9  1  0.33487425  0.00188512  1.00117829  1
  Ni  Ni10  1  0.50290708  0.16860342  0.16911991  1
  Ni  Ni11  1  0.33461066  0.00173101  0.33567271  1
  Ni  Ni12  1  0.33559866  0.33698305  0.00169511  1
  Ni  Ni13  1  0.50157985  0.50209022  0.16815570  1
  Ni  Ni14  1  0.33589473  0.33513764  0.33431686  1
  Ni  Ni15  1  0.33562353  0.66615771  1.00165157  1
  Ni  Ni16  1  0.50176443  0.83426606  0.16941963  1
  Ni  Ni17  1  0.33411217  0.66809168  0.33496013  1
  Ni  Ni18  1  0.67023982  0.00289862  1.00159975  1
  Ni  Ni19  1  0.83513129  0.16836166  0.16798900  1
  Ni  Ni20  1  0.66792157  0.00312238  0.33417694  1
  Ni  Ni21  1  0.66800257  0.33416769  1.00140242  1
  Ni  Ni22  1  0.83441054  0.50027708  0.16955712  1
  Ni  Ni23  1  0.66766244  0.33477099  0.33534405  1
  Fe  Fe24  1  0.66663846  0.66778314  1.00140387  1
  Fe  Fe25  1  0.83441707  0.83615855  0.16913364  1
  Ni  Ni26  1  0.66805071  0.66706608  0.33401175  1
  Fe  Fe27  1  0.16885233  0.16836013  0.50140710  1
  Ni  Ni28  1  0.00176444  1.00125051  0.66992553  1
  Ni  Ni29  1  0.16702871  0.16885215  0.83436607  1
  Ni  Ni30  1  0.16837701  0.50253190  0.50140146  1
  Fe  Fe31  1  1.00088621  0.33575633  0.66901649  1
  Ni  Ni32  1  0.16914168  0.50121535  0.83473121  1
  Ni  Ni33  1  0.16999574  0.83428958  0.50159869  1
  Ni  Ni34  1  0.00290716  0.66865254  0.66906639  1
  Ni  Ni35  1  0.16806239  0.83489288  0.83325993  1
  Ni  Ni36  1  0.50244377  0.16825397  0.50134836  1
  Fe  Fe37  1  0.33569716  1.00089812  0.66821594  1
  Ni  Ni38  1  0.50279673  0.16890533  0.83449134  1
  Ni  Ni39  1  0.50135686  0.50139608  0.50140211  1
  Ni  Ni40  1  0.33589138  0.33570918  0.66894786  1
  Ni  Ni41  1  0.50140441  0.50188349  0.83540208  1
  Ni  Ni42  1  0.49962266  0.83530721  0.50159588  1
  Ni  Ni43  1  0.33411137  0.66754432  0.66834780  1
  Ni  Ni44  1  0.50243483  0.83416746  0.83394605  1
  Ni  Ni45  1  0.83420548  0.16987384  0.50165154  1
  Ni  Ni46  1  0.66859481  0.00302957  0.66918259  1
  Ni  Ni47  1  0.83513301  0.16782464  0.83531742  1
  Ni  Ni48  1  0.83522420  0.49971232  0.50169326  1
  Ni  Ni49  1  0.66748532  0.33456284  0.66821285  1
  Ni  Ni50  1  0.83440948  0.50085290  0.83370902  1
  Cr  Cr51  1  0.83481311  0.83503439  0.50117829  1
  Ni  Ni52  1  0.66793852  0.66736649  0.66959741  1
  Ni  Ni53  1  0.83446399  0.83628374  0.83475718  1
" 