6361,Ni85Fe9Cr4_17,-238.283620615437, 181.897600845825,Ni85Fe9Cr4,"# generated using pymatgen
 data_Cr2Fe2Ni23
_symmetry_space_group_name_H-M   'P 1'
_cell_length_a   7.44924576
_cell_length_b   7.44924576
_cell_length_c   10.53482439
_cell_angle_alpha   90.00000000
_cell_angle_beta   90.00000000
_cell_angle_gamma   90.00000000
_symmetry_Int_Tables_number   1
_chemical_formula_structural   Cr2Fe2Ni23
_chemical_formula_sum   'Cr4 Fe4 Ni46'
_cell_volume   584.59070468
_cell_formula_units_Z   2
loop_
 _symmetry_equiv_pos_site_id
 _symmetry_equiv_pos_as_xyz
  1  'x, y, z'
loop_
 _atom_site_type_symbol
 _atom_site_label
 _atom_site_symmetry_multiplicity
 _atom_site_fract_x
 _atom_site_fract_y
 _atom_site_fract_z
 _atom_site_occupancy
  Fe  Fe0  1  0.00120340  1.00113447  0.00124743  1
  Ni  Ni1  1  0.16790370  0.16850219  0.16862889  1
  Ni  Ni2  1  1.00072049  1.00084962  0.33426558  1
  Ni  Ni3  1  1.00095472  0.33473146  0.00144118  1
  Ni  Ni4  1  0.16771105  0.50104341  0.16844330  1
  Ni  Ni5  1  0.00315658  0.33224946  0.33314973  1
  Ni  Ni6  1  1.00114641  0.66785103  0.00149190  1
  Ni  Ni7  1  0.16604955  0.83404152  0.16813012  1
  Ni  Ni8  1  0.00154989  0.67048279  0.33286720  1
  Ni  Ni9  1  0.33436468  0.00206004  1.00090497  1
  Ni  Ni10  1  0.50047725  0.16902280  0.16705600  1
  Fe  Fe11  1  0.33300636  0.00205039  0.33520100  1
  Ni  Ni12  1  0.33478582  0.33390317  0.00143383  1
  Ni  Ni13  1  0.50039496  0.50025849  0.16746281  1
  Ni  Ni14  1  0.33382660  0.33414634  0.33368229  1
  Ni  Ni15  1  0.33353908  0.66762237  1.00017876  1
  Cr  Cr16  1  0.50157456  0.83448313  0.16804666  1
  Ni  Ni17  1  0.33429954  0.66745870  0.33467856  1
  Ni  Ni18  1  0.66807250  0.00225229  1.00014813  1
  Ni  Ni19  1  0.83520502  0.16735660  0.16762813  1
  Ni  Ni20  1  0.66962484  1.00037457  0.33596995  1
  Ni  Ni21  1  0.66784416  0.33390327  0.00156043  1
  Ni  Ni22  1  0.83547829  0.50210748  0.16741993  1
  Cr  Cr23  1  0.66693531  0.33368024  0.33309118  1
  Ni  Ni24  1  0.66889910  0.66742916  1.00087443  1
  Ni  Ni25  1  0.83599214  0.83412061  0.16843994  1
  Ni  Ni26  1  0.66773288  0.66989681  0.33442426  1
  Ni  Ni27  1  0.16838237  0.16586075  0.50095911  1
  Ni  Ni28  1  0.00175473  0.00126694  0.66782744  1
  Ni  Ni29  1  0.16818888  0.16800831  0.83399238  1
  Cr  Cr30  1  0.16909324  0.50108846  0.50138407  1
  Ni  Ni31  1  1.00073640  0.33224531  0.66899845  1
  Ni  Ni32  1  0.16791498  0.50145868  0.83420145  1
  Ni  Ni33  1  0.16749167  0.83627495  0.50101013  1
  Ni  Ni34  1  1.00092582  0.67006891  0.66922840  1
  Ni  Ni35  1  0.16812646  0.83411831  0.83443843  1
  Ni  Ni36  1  0.50037377  0.16737245  0.50176250  1
  Ni  Ni37  1  0.33362474  0.00134243  0.66718586  1
  Ni  Ni38  1  0.50108894  0.16787425  0.83476578  1
  Ni  Ni39  1  0.50037240  0.50161658  0.50176592  1
  Ni  Ni40  1  0.33578709  0.33332013  0.66847419  1
  Ni  Ni41  1  0.50117080  0.50140189  0.83435380  1
  Fe  Fe42  1  0.50124879  0.83459544  0.50144177  1
  Ni  Ni43  1  0.33551978  0.66892338  0.66873002  1
  Ni  Ni44  1  0.50109315  0.83430917  0.83391292  1
  Ni  Ni45  1  0.83482762  0.16479586  0.50189744  1
  Fe  Fe46  1  0.66819131  0.00152421  0.66801865  1
  Ni  Ni47  1  0.83430706  0.16808531  0.83405988  1
  Cr  Cr48  1  0.83413765  0.50213158  0.50197245  1
  Ni  Ni49  1  0.66706146  0.33414764  0.66859881  1
  Ni  Ni50  1  0.83449878  0.50146294  0.83424389  1
  Ni  Ni51  1  0.83465311  0.83627795  0.50064182  1
  Ni  Ni52  1  0.66713784  0.66790302  0.66828497  1
  Ni  Ni53  1  0.83436559  0.83403605  0.83450618  1
" 