6247,Ni85Cr15_19,-205.674581012897, 167.831189213364,Ni85Cr15,"# generated using pymatgen
 data_Cr5Ni
_symmetry_space_group_name_H-M   'P 1'
_cell_length_a   7.58695555
_cell_length_b   7.58695555
_cell_length_c   10.72957544
_cell_angle_alpha   90.00000000
_cell_angle_beta   90.00000000
_cell_angle_gamma   90.00000000
_symmetry_Int_Tables_number   1
_chemical_formula_structural   Cr5Ni
_chemical_formula_sum   'Cr45 Ni9'
_cell_volume   617.61468965
_cell_formula_units_Z   9
loop_
 _symmetry_equiv_pos_site_id
 _symmetry_equiv_pos_as_xyz
  1  'x, y, z'
loop_
 _atom_site_type_symbol
 _atom_site_label
 _atom_site_symmetry_multiplicity
 _atom_site_fract_x
 _atom_site_fract_y
 _atom_site_fract_z
 _atom_site_occupancy
  Cr  Cr0  1  -0.00730813  -0.00666312  -0.00517128  1
  Ni  Ni1  1  0.16171456  0.15906519  0.15885974  1
  Ni  Ni2  1  -0.00571313  -0.00731998  0.32521650  1
  Cr  Cr3  1  -0.00769722  0.32570479  0.99153598  1
  Cr  Cr4  1  0.16154071  0.48985939  0.15645875  1
  Cr  Cr5  1  -0.00748494  0.32391857  0.32481067  1
  Cr  Cr6  1  0.99063172  0.65713487  0.98998441  1
  Cr  Cr7  1  0.15732564  0.82652857  0.15938323  1
  Cr  Cr8  1  -0.00703326  0.65965436  0.32654114  1
  Cr  Cr9  1  0.32656023  -0.00504070  -0.00506234  1
  Ni  Ni10  1  0.49054263  0.16298808  0.15871678  1
  Cr  Cr11  1  0.32394841  -0.00719351  0.32536999  1
  Ni  Ni12  1  0.32720496  0.32399741  -0.00379023  1
  Ni  Ni13  1  0.49338116  0.48778776  0.16000014  1
  Cr  Cr14  1  0.32710598  0.32435539  0.32253383  1
  Cr  Cr15  1  0.32655805  0.65692168  -0.00618623  1
  Cr  Cr16  1  0.49356089  0.82293826  0.15862982  1
  Cr  Cr17  1  0.32618956  0.65868551  0.32619058  1
  Cr  Cr18  1  0.65716460  -0.00601486  -0.00787160  1
  Cr  Cr19  1  0.82635398  0.15833512  0.16188048  1
  Cr  Cr20  1  0.65666907  -0.00570450  0.32395123  1
  Cr  Cr21  1  0.65789989  0.32553361  -0.00708333  1
  Cr  Cr22  1  0.82377808  0.49274687  0.16110325  1
  Ni  Ni23  1  0.65652784  0.32734173  0.32275845  1
  Cr  Cr24  1  0.65925113  0.65656867  -0.00788353  1
  Cr  Cr25  1  0.82519335  0.82556652  0.16083325  1
  Ni  Ni26  1  0.65706379  0.65536042  0.32356904  1
  Cr  Cr27  1  0.15755968  0.15853881  0.49169412  1
  Cr  Cr28  1  -0.00745592  0.99126947  0.65664674  1
  Cr  Cr29  1  0.16007500  0.15985078  0.82713188  1
  Cr  Cr30  1  0.15943111  0.49271588  0.49311999  1
  Cr  Cr31  1  0.99043232  0.32715035  0.66012803  1
  Cr  Cr32  1  0.15974823  0.49063660  0.82677507  1
  Ni  Ni33  1  0.15670333  0.82716489  0.49043421  1
  Cr  Cr34  1  0.99168774  0.65816419  0.65968034  1
  Cr  Cr35  1  0.15966381  0.82584195  0.82587446  1
  Cr  Cr36  1  0.49357900  0.16067233  0.49281382  1
  Cr  Cr37  1  0.32500317  0.99106182  0.65613160  1
  Cr  Cr38  1  0.49041734  0.15958784  0.82515083  1
  Cr  Cr39  1  0.49341341  0.49165993  0.48935399  1
  Cr  Cr40  1  0.32543971  0.32523618  0.65817549  1
  Cr  Cr41  1  0.49050880  0.49130548  0.82609525  1
  Cr  Cr42  1  0.49264257  0.82404765  0.49250028  1
  Cr  Cr43  1  0.32410534  0.66032659  0.65580891  1
  Cr  Cr44  1  0.49145026  0.82548715  0.82524034  1
  Cr  Cr45  1  0.82485862  0.15908643  0.48985037  1
  Cr  Cr46  1  0.65835667  -0.00752070  0.66069063  1
  Cr  Cr47  1  0.82592403  0.15921988  0.82434491  1
  Cr  Cr48  1  0.82351392  0.49143724  0.48936284  1
  Cr  Cr49  1  0.66028567  0.32628306  0.65904984  1
  Ni  Ni50  1  0.82460904  0.49154082  0.82548177  1
  Cr  Cr51  1  0.82502534  0.82607270  0.48805353  1
  Cr  Cr52  1  0.66026635  0.65772453  0.66055872  1
  Cr  Cr53  1  0.82510480  0.82566089  0.82785214  1
" 