3200,Ni85Fe12Cr2_11,-239.519462153399, 190.0452829669,Ni85Fe12Cr2,"# generated using pymatgen
 data_CrFe2Ni15
_symmetry_space_group_name_H-M   'P 1'
_cell_length_a   7.44359391
_cell_length_b   7.44359391
_cell_length_c   10.52683146
_cell_angle_alpha   90.00000000
_cell_angle_beta   90.00000000
_cell_angle_gamma   90.00000000
_symmetry_Int_Tables_number   1
_chemical_formula_structural   CrFe2Ni15
_chemical_formula_sum   'Cr3 Fe6 Ni45'
_cell_volume   583.26110095
_cell_formula_units_Z   3
loop_
 _symmetry_equiv_pos_site_id
 _symmetry_equiv_pos_as_xyz
  1  'x, y, z'
loop_
 _atom_site_type_symbol
 _atom_site_label
 _atom_site_symmetry_multiplicity
 _atom_site_fract_x
 _atom_site_fract_y
 _atom_site_fract_z
 _atom_site_occupancy
  Fe  Fe0  1  1.00149111  1.00101061  1.00066360  1
  Ni  Ni1  1  0.16751039  0.16778398  0.16922502  1
  Fe  Fe2  1  1.00096946  0.00192624  0.33573922  1
  Ni  Ni3  1  1.00000315  0.33637373  1.00148398  1
  Ni  Ni4  1  0.16743455  0.50183769  0.16917707  1
  Ni  Ni5  1  0.00202546  0.33473667  0.33319187  1
  Ni  Ni6  1  1.00152580  0.66769569  1.00138913  1
  Ni  Ni7  1  0.16734908  0.83513891  0.16837736  1
  Ni  Ni8  1  1.00103027  0.66978906  0.33328051  1
  Ni  Ni9  1  0.33588408  0.99964062  1.00125289  1
  Ni  Ni10  1  0.50217940  0.16759267  0.16899860  1
  Ni  Ni11  1  0.33575857  0.00199224  0.33508051  1
  Cr  Cr12  1  0.33461375  0.33432032  1.00041648  1
  Ni  Ni13  1  0.50263739  0.50200043  0.16953901  1
  Ni  Ni14  1  0.33538933  0.33239923  0.33457446  1
  Ni  Ni15  1  0.33406994  0.67067292  0.00271115  1
  Ni  Ni16  1  0.50269748  0.83508408  0.16797439  1
  Fe  Fe17  1  0.33681508  0.66864874  0.33385406  1
  Ni  Ni18  1  0.66722636  1.00115693  0.00176778  1
  Fe  Fe19  1  0.83424006  0.16780503  0.16820411  1
  Ni  Ni20  1  0.66679035  1.00091921  0.33520318  1
  Ni  Ni21  1  0.67039209  0.33444019  0.00216939  1
  Fe  Fe22  1  0.83477176  0.50250074  0.16788019  1
  Ni  Ni23  1  0.66726793  0.33373709  0.33372621  1
  Ni  Ni24  1  0.66918296  0.66917458  1.00102565  1
  Ni  Ni25  1  0.83470586  0.83491530  0.16837542  1
  Ni  Ni26  1  0.66915012  0.67008778  0.33474737  1
  Ni  Ni27  1  0.16822725  0.16660546  0.50171590  1
  Ni  Ni28  1  1.00116299  1.00073822  0.66751587  1
  Ni  Ni29  1  0.16702188  0.16740369  0.83353356  1
  Cr  Cr30  1  0.17002484  0.50085486  0.50184049  1
  Ni  Ni31  1  1.00117247  0.33360701  0.67025411  1
  Ni  Ni32  1  0.16711600  0.50247194  0.83408408  1
  Ni  Ni33  1  0.16792924  0.83690090  0.50082467  1
  Ni  Ni34  1  0.00217716  0.67036695  0.67025536  1
  Ni  Ni35  1  0.16812942  0.83483167  0.83548298  1
  Ni  Ni36  1  0.50176471  0.16836923  0.50143312  1
  Ni  Ni37  1  0.33548523  1.00108218  0.66839178  1
  Ni  Ni38  1  0.50295242  0.16726199  0.83418784  1
  Ni  Ni39  1  0.50193067  0.50099106  0.50121696  1
  Ni  Ni40  1  0.33608716  0.33389153  0.66887736  1
  Ni  Ni41  1  0.50270778  0.50245875  0.83388101  1
  Ni  Ni42  1  0.50200397  0.83531744  0.50109469  1
  Ni  Ni43  1  0.33456621  0.66979196  0.66858432  1
  Ni  Ni44  1  0.50175304  0.83502008  0.83574952  1
  Ni  Ni45  1  0.83464945  0.16654906  0.50084257  1
  Ni  Ni46  1  0.66807145  0.00206173  0.66776045  1
  Ni  Ni47  1  0.83471512  0.16833538  0.83540049  1
  Cr  Cr48  1  0.83332998  0.50135313  0.50216709  1
  Ni  Ni49  1  0.66747020  0.33271935  0.66901865  1
  Ni  Ni50  1  0.83490355  0.50133315  0.83560743  1
  Ni  Ni51  1  0.83479409  0.83686695  0.50183940  1
  Fe  Fe52  1  0.66707389  0.66946178  0.66914203  1
  Ni  Ni53  1  0.83474117  0.83504704  0.83434279  1
" 