510,Ni85Fe14Cr0_7,-241.515336743051, 197.438106133578,Ni85Fe14Cr0,"# generated using pymatgen
 data_CrFe7Ni46
_symmetry_space_group_name_H-M   'P 1'
_cell_length_a   7.43732372
_cell_length_b   7.43732372
_cell_length_c   10.51796408
_cell_angle_alpha   90.00000000
_cell_angle_beta   90.00000000
_cell_angle_gamma   90.00000000
_symmetry_Int_Tables_number   1
_chemical_formula_structural   CrFe7Ni46
_chemical_formula_sum   'Cr1 Fe7 Ni46'
_cell_volume   581.78839464
_cell_formula_units_Z   1
loop_
 _symmetry_equiv_pos_site_id
 _symmetry_equiv_pos_as_xyz
  1  'x, y, z'
loop_
 _atom_site_type_symbol
 _atom_site_label
 _atom_site_symmetry_multiplicity
 _atom_site_fract_x
 _atom_site_fract_y
 _atom_site_fract_z
 _atom_site_occupancy
  Ni  Ni0  1  0.00236308  0.00349927  1.00130510  1
  Ni  Ni1  1  0.16894519  0.16881419  0.16827850  1
  Ni  Ni2  1  1.00130116  0.00347217  0.33581054  1
  Ni  Ni3  1  0.00231806  0.33431758  0.00248393  1
  Ni  Ni4  1  0.16759320  0.50111099  0.16932424  1
  Ni  Ni5  1  1.00144218  0.33420179  0.33500081  1
  Ni  Ni6  1  0.99981482  0.66817958  0.00208182  1
  Ni  Ni7  1  0.16758131  0.83611199  0.16909218  1
  Ni  Ni8  1  0.00262191  0.66832785  0.33510836  1
  Ni  Ni9  1  0.33545169  0.00419074  0.00243804  1
  Ni  Ni10  1  0.50186328  0.16855618  0.16858988  1
  Fe  Fe11  1  0.33502950  1.00139524  0.33541594  1
  Ni  Ni12  1  0.33500779  0.33330542  1.00199704  1
  Ni  Ni13  1  0.50297347  0.50101044  0.16886645  1
  Fe  Fe14  1  0.33548860  0.33596005  0.33477143  1
  Cr  Cr15  1  0.33587540  0.66917707  1.00154770  1
  Ni  Ni16  1  0.50302933  0.83634760  0.16966714  1
  Ni  Ni17  1  0.33622695  0.66830598  0.33512050  1
  Fe  Fe18  1  0.66907710  1.00163044  1.00195100  1
  Ni  Ni19  1  0.83524348  0.16875646  0.16835547  1
  Ni  Ni20  1  0.66885661  0.00277062  0.33504004  1
  Fe  Fe21  1  0.66928355  0.33527106  0.00292196  1
  Ni  Ni22  1  0.83549991  0.50229468  0.16895897  1
  Ni  Ni23  1  0.66899065  0.33483700  0.33539804  1
  Ni  Ni24  1  0.66951650  0.66852417  0.00247583  1
  Ni  Ni25  1  0.83535579  0.83490644  0.16845466  1
  Ni  Ni26  1  0.66716992  0.66837588  0.33550240  1
  Ni  Ni27  1  0.16893278  0.16896071  0.50224620  1
  Ni  Ni28  1  1.00182810  0.00375672  0.66886630  1
  Ni  Ni29  1  0.16942524  0.16903780  0.83549395  1
  Ni  Ni30  1  0.16854816  0.50212515  0.50189027  1
  Ni  Ni31  1  1.00187491  0.33461861  0.66847457  1
  Ni  Ni32  1  0.16673601  0.50095031  0.83468825  1
  Ni  Ni33  1  0.16869532  0.83486886  0.50265495  1
  Ni  Ni34  1  0.00204632  0.66759845  0.66877903  1
  Ni  Ni35  1  0.16806851  0.83597512  0.83431069  1
  Ni  Ni36  1  0.50203779  0.16842091  0.50175737  1
  Ni  Ni37  1  0.33603386  1.00185640  0.66841027  1
  Ni  Ni38  1  0.50182367  0.16797986  0.83561980  1
  Ni  Ni39  1  0.50186531  0.50194803  0.50265264  1
  Fe  Fe40  1  0.33451883  0.33497029  0.66905295  1
  Fe  Fe41  1  0.50302467  0.50156387  0.83472282  1
  Ni  Ni42  1  0.50211166  0.83551251  0.50181402  1
  Ni  Ni43  1  0.33635321  0.66890285  0.66928387  1
  Ni  Ni44  1  0.50300112  0.83727069  0.83450946  1
  Ni  Ni45  1  0.83499929  0.16869399  0.50226779  1
  Ni  Ni46  1  0.66816211  0.00209356  0.66882390  1
  Ni  Ni47  1  0.83482340  0.16933568  0.83532137  1
  Ni  Ni48  1  0.83560878  0.50226202  0.50148330  1
  Fe  Fe49  1  0.66972400  0.33492962  0.66767872  1
  Ni  Ni50  1  0.83602608  0.50216258  0.83553673  1
  Ni  Ni51  1  0.83513443  0.83503392  0.50230983  1
  Ni  Ni52  1  0.66761504  0.66893630  0.66809750  1
  Ni  Ni53  1  0.83496874  0.83449202  0.83520327  1
" 