3758,Ni85Fe5Cr9_17,-236.491085330767, 176.519923943444,Ni85Fe5Cr9,"# generated using pymatgen
 data_Cr2FeNi15
_symmetry_space_group_name_H-M   'P 1'
_cell_length_a   7.45631177
_cell_length_b   7.45631177
_cell_length_c   10.54481723
_cell_angle_alpha   90.00000000
_cell_angle_beta   90.00000000
_cell_angle_gamma   90.00000000
_symmetry_Int_Tables_number   1
_chemical_formula_structural   Cr2FeNi15
_chemical_formula_sum   'Cr6 Fe3 Ni45'
_cell_volume   586.25582881
_cell_formula_units_Z   3
loop_
 _symmetry_equiv_pos_site_id
 _symmetry_equiv_pos_as_xyz
  1  'x, y, z'
loop_
 _atom_site_type_symbol
 _atom_site_label
 _atom_site_symmetry_multiplicity
 _atom_site_fract_x
 _atom_site_fract_y
 _atom_site_fract_z
 _atom_site_occupancy
  Cr  Cr0  1  0.00185626  1.00014151  0.00351097  1
  Ni  Ni1  1  0.16956530  0.16992248  0.16714805  1
  Cr  Cr2  1  0.00222126  0.00083194  0.33306430  1
  Ni  Ni3  1  1.00012779  0.33672303  0.00221433  1
  Ni  Ni4  1  0.16714338  0.50058202  0.16745616  1
  Ni  Ni5  1  1.00064494  0.33576303  0.33286267  1
  Ni  Ni6  1  0.00105429  0.66571160  1.00038252  1
  Ni  Ni7  1  0.16924744  0.83155107  0.16733069  1
  Ni  Ni8  1  0.99900474  0.66676491  0.33310812  1
  Ni  Ni9  1  0.33487085  0.99974976  0.00162331  1
  Ni  Ni10  1  0.50021495  0.16840327  0.16751008  1
  Ni  Ni11  1  0.33530913  0.00156344  0.33357965  1
  Ni  Ni12  1  0.33519129  0.33557113  0.00173912  1
  Ni  Ni13  1  0.50118836  0.50054472  0.16796596  1
  Ni  Ni14  1  0.33513263  0.33237592  0.33319133  1
  Ni  Ni15  1  0.33435504  0.66674477  0.00108282  1
  Ni  Ni16  1  0.50051649  0.83313285  0.16837819  1
  Fe  Fe17  1  0.33501743  0.66755797  0.33381837  1
  Cr  Cr18  1  0.66600752  0.00083966  0.00135661  1
  Ni  Ni19  1  0.83228502  0.17063209  0.16939907  1
  Ni  Ni20  1  0.66507496  1.00025065  0.33410224  1
  Ni  Ni21  1  0.66681325  0.33617325  1.00050392  1
  Ni  Ni22  1  0.83387790  0.50096131  0.16666128  1
  Ni  Ni23  1  0.66637319  0.33528028  0.33434414  1
  Ni  Ni24  1  0.66678775  0.66540218  1.00066594  1
  Ni  Ni25  1  0.83264872  0.83090540  0.16830648  1
  Ni  Ni26  1  0.66783359  0.66671793  0.33389379  1
  Ni  Ni27  1  0.16909896  0.16720789  0.50177622  1
  Ni  Ni28  1  1.00025408  0.99976042  0.66593664  1
  Cr  Cr29  1  0.16840740  0.16872294  0.83351695  1
  Cr  Cr30  1  0.16727298  0.50042927  0.50054726  1
  Ni  Ni31  1  0.99950929  0.33432762  0.66680729  1
  Ni  Ni32  1  0.16783938  0.50213364  0.83383494  1
  Ni  Ni33  1  0.16751924  0.83514567  0.50218844  1
  Ni  Ni34  1  0.00123608  0.66808934  0.66842480  1
  Ni  Ni35  1  0.16784788  0.83109322  0.83267015  1
  Ni  Ni36  1  0.50030084  0.16737244  0.50131151  1
  Ni  Ni37  1  0.33491496  0.99993253  0.66700891  1
  Ni  Ni38  1  0.50225062  0.16858290  0.83339554  1
  Ni  Ni39  1  0.50221157  0.49928065  0.49958457  1
  Ni  Ni40  1  0.33589135  0.33448948  0.66733582  1
  Ni  Ni41  1  0.49876964  0.49959721  0.83472025  1
  Ni  Ni42  1  0.50085185  0.83543074  0.49974012  1
  Ni  Ni43  1  0.33365121  0.66776196  0.66710043  1
  Ni  Ni44  1  0.49965367  0.83378597  0.83413877  1
  Fe  Fe45  1  0.83293676  0.16802638  0.50082343  1
  Ni  Ni46  1  0.66695198  0.00158817  0.66682902  1
  Ni  Ni47  1  0.83249248  0.16858742  0.83150011  1
  Ni  Ni48  1  0.83354955  0.50067450  0.50045668  1
  Ni  Ni49  1  0.66648065  0.33288334  0.66706597  1
  Fe  Fe50  1  0.83452459  0.49986930  0.83473978  1
  Ni  Ni51  1  0.83363798  0.83307881  0.50062579  1
  Cr  Cr52  1  0.66577897  0.66616199  0.66814124  1
  Ni  Ni53  1  0.83467805  0.83406354  0.83345473  1
" 