1499,Ni85Fe14Cr0_18,-241.517278687681, 197.812271495561,Ni85Fe14Cr0,"# generated using pymatgen
 data_CrFe7Ni46
_symmetry_space_group_name_H-M   'P 1'
_cell_length_a   7.43535888
_cell_length_b   7.43535888
_cell_length_c   10.51518537
_cell_angle_alpha   90.00000000
_cell_angle_beta   90.00000000
_cell_angle_gamma   90.00000000
_symmetry_Int_Tables_number   1
_chemical_formula_structural   CrFe7Ni46
_chemical_formula_sum   'Cr1 Fe7 Ni46'
_cell_volume   581.32741351
_cell_formula_units_Z   1
loop_
 _symmetry_equiv_pos_site_id
 _symmetry_equiv_pos_as_xyz
  1  'x, y, z'
loop_
 _atom_site_type_symbol
 _atom_site_label
 _atom_site_symmetry_multiplicity
 _atom_site_fract_x
 _atom_site_fract_y
 _atom_site_fract_z
 _atom_site_occupancy
  Ni  Ni0  1  1.00202803  1.00179682  1.00124673  1
  Cr  Cr1  1  0.16782868  0.16861027  0.16931854  1
  Ni  Ni2  1  1.00168165  1.00205193  0.33671623  1
  Ni  Ni3  1  1.00089289  0.33572017  1.00129216  1
  Ni  Ni4  1  0.16914120  0.50421301  0.16802335  1
  Ni  Ni5  1  1.00060204  0.33598889  0.33616855  1
  Ni  Ni6  1  1.00204044  0.66887746  0.00229327  1
  Ni  Ni7  1  0.16918738  0.83347954  0.16861082  1
  Ni  Ni8  1  0.00256689  0.66835199  0.33538955  1
  Ni  Ni9  1  0.33584036  1.00142442  1.00111685  1
  Ni  Ni10  1  0.50456496  0.16903160  0.16812258  1
  Ni  Ni11  1  0.33649532  1.00092195  0.33661654  1
  Ni  Ni12  1  0.33670146  0.33582025  1.00192335  1
  Ni  Ni13  1  0.50215428  0.50283551  0.16883954  1
  Fe  Fe14  1  0.33644915  0.33645232  0.33639197  1
  Ni  Ni15  1  0.33592543  0.66914882  0.00216454  1
  Ni  Ni16  1  0.50177723  0.83452575  0.16865691  1
  Ni  Ni17  1  0.33565775  0.66943753  0.33529342  1
  Fe  Fe18  1  0.66885608  0.00225277  0.00219996  1
  Ni  Ni19  1  0.83405225  0.16907873  0.16865709  1
  Ni  Ni20  1  0.66821585  0.00288324  0.33485159  1
  Ni  Ni21  1  0.66879897  0.33580524  1.00190084  1
  Fe  Fe22  1  0.83516597  0.50186359  0.16874108  1
  Ni  Ni23  1  0.66929977  0.33515225  0.33582982  1
  Ni  Ni24  1  0.66842516  0.66801158  0.00231446  1
  Fe  Fe25  1  0.83542304  0.83542446  0.16905093  1
  Ni  Ni26  1  0.66816816  0.66835741  0.33564743  1
  Ni  Ni27  1  0.16820213  0.16861858  0.50175721  1
  Ni  Ni28  1  1.00192031  0.00275673  0.66843396  1
  Ni  Ni29  1  0.16770005  0.16815771  0.83579666  1
  Ni  Ni30  1  0.16875122  0.50200702  0.50240460  1
  Ni  Ni31  1  0.00240692  0.33518568  0.66893351  1
  Fe  Fe32  1  0.16827220  0.50247617  0.83554003  1
  Ni  Ni33  1  0.16880098  0.83576828  0.50192264  1
  Ni  Ni34  1  1.00158777  0.66845149  0.66871104  1
  Ni  Ni35  1  0.16905508  0.83654252  0.83585957  1
  Ni  Ni36  1  0.50210315  0.16883766  0.50208291  1
  Ni  Ni37  1  0.33580670  0.00243468  0.66865968  1
  Fe  Fe38  1  0.50202602  0.16832506  0.83553686  1
  Ni  Ni39  1  0.50230938  0.50254425  0.50180640  1
  Ni  Ni40  1  0.33504520  0.33523247  0.66839908  1
  Ni  Ni41  1  0.50276997  0.50304405  0.83574823  1
  Ni  Ni42  1  0.50204140  0.83501270  0.50208182  1
  Ni  Ni43  1  0.33618502  0.66872563  0.66893356  1
  Ni  Ni44  1  0.50168887  0.83409907  0.83565296  1
  Ni  Ni45  1  0.83608820  0.16888642  0.50209624  1
  Ni  Ni46  1  0.66866640  1.00161676  0.66892697  1
  Ni  Ni47  1  0.83699928  0.16923876  0.83563796  1
  Ni  Ni48  1  0.83533247  0.50194491  0.50181910  1
  Fe  Fe49  1  0.66899685  0.33571910  0.66860038  1
  Ni  Ni50  1  0.83455709  0.50169046  0.83596316  1
  Ni  Ni51  1  0.83555044  0.83556173  0.50208711  1
  Ni  Ni52  1  0.66861880  0.66921229  0.66843397  1
  Ni  Ni53  1  0.83564890  0.83546354  0.83586747  1
" 