2559,Ni85Fe14Cr0_10,-241.795198569397, 198.501007762866,Ni85Fe14Cr0,"# generated using pymatgen
 data_CrFe7Ni46
_symmetry_space_group_name_H-M   'P 1'
_cell_length_a   7.43864952
_cell_length_b   7.43864952
_cell_length_c   10.51983904
_cell_angle_alpha   90.00000000
_cell_angle_beta   90.00000000
_cell_angle_gamma   90.00000000
_symmetry_Int_Tables_number   1
_chemical_formula_structural   CrFe7Ni46
_chemical_formula_sum   'Cr1 Fe7 Ni46'
_cell_volume   582.09958388
_cell_formula_units_Z   1
loop_
 _symmetry_equiv_pos_site_id
 _symmetry_equiv_pos_as_xyz
  1  'x, y, z'
loop_
 _atom_site_type_symbol
 _atom_site_label
 _atom_site_symmetry_multiplicity
 _atom_site_fract_x
 _atom_site_fract_y
 _atom_site_fract_z
 _atom_site_occupancy
  Ni  Ni0  1  0.00197825  1.00179400  1.00163436  1
  Ni  Ni1  1  0.16820421  0.16812062  0.16912502  1
  Ni  Ni2  1  1.00163403  1.00099447  0.33543644  1
  Ni  Ni3  1  1.00180460  0.33525111  1.00160741  1
  Fe  Fe4  1  0.16926018  0.50191297  0.16837789  1
  Fe  Fe5  1  1.00185238  0.33473171  0.33540286  1
  Ni  Ni6  1  1.00188390  0.66871558  1.00165964  1
  Ni  Ni7  1  0.16772424  0.83520226  0.16875053  1
  Ni  Ni8  1  1.00176696  0.66915134  0.33525900  1
  Ni  Ni9  1  0.33499256  0.00222581  0.00195543  1
  Ni  Ni10  1  0.50209836  0.16973640  0.16872446  1
  Ni  Ni11  1  0.33538780  1.00182874  0.33573200  1
  Ni  Ni12  1  0.33556531  0.33537136  1.00164721  1
  Ni  Ni13  1  0.50159510  0.50173525  0.16878553  1
  Ni  Ni14  1  0.33649679  0.33563569  0.33554455  1
  Ni  Ni15  1  0.33513904  0.66817028  0.00235342  1
  Ni  Ni16  1  0.50207124  0.83424865  0.16880852  1
  Ni  Ni17  1  0.33507281  0.66812829  0.33498503  1
  Ni  Ni18  1  0.66874074  0.00220723  0.00232398  1
  Ni  Ni19  1  0.83546457  0.16790390  0.16803981  1
  Ni  Ni20  1  0.66886408  0.00230638  0.33496082  1
  Ni  Ni21  1  0.66828567  0.33546250  1.00181696  1
  Fe  Fe22  1  0.83416400  0.50240772  0.16756929  1
  Ni  Ni23  1  0.66804611  0.33547151  0.33497226  1
  Ni  Ni24  1  0.66861972  0.66813671  1.00130638  1
  Ni  Ni25  1  0.83593831  0.83569037  0.16877017  1
  Ni  Ni26  1  0.66877062  0.66798285  0.33607495  1
  Fe  Fe27  1  0.17054940  0.16853514  0.50150807  1
  Cr  Cr28  1  1.00175480  1.00133931  0.66909074  1
  Ni  Ni29  1  0.16960606  0.16974760  0.83511777  1
  Ni  Ni30  1  0.16940851  0.50269273  0.50157809  1
  Ni  Ni31  1  1.00145223  0.33753811  0.66799886  1
  Ni  Ni32  1  0.16907910  0.50236508  0.83592046  1
  Ni  Ni33  1  0.16879157  0.83245049  0.50076907  1
  Ni  Ni34  1  0.00266873  0.66707402  0.66871692  1
  Ni  Ni35  1  0.16852448  0.83369403  0.83622970  1
  Ni  Ni36  1  0.50354747  0.16960184  0.50137887  1
  Ni  Ni37  1  0.33746329  1.00144791  0.66815571  1
  Ni  Ni38  1  0.50223314  0.17004065  0.83557245  1
  Ni  Ni39  1  0.50034548  0.50128631  0.50205700  1
  Ni  Ni40  1  0.33590644  0.33596628  0.66867522  1
  Ni  Ni41  1  0.50143813  0.50098896  0.83496210  1
  Ni  Ni42  1  0.50185649  0.83481182  0.50183561  1
  Ni  Ni43  1  0.33412547  0.66826100  0.66856114  1
  Fe  Fe44  1  0.50155657  0.83555327  0.83566089  1
  Ni  Ni45  1  0.83368618  0.16889339  0.50097156  1
  Ni  Ni46  1  0.66735262  0.00300082  0.66850930  1
  Ni  Ni47  1  0.83398559  0.16932139  0.83658718  1
  Fe  Fe48  1  0.83425658  0.50272536  0.50247625  1
  Ni  Ni49  1  0.66842520  0.33454248  0.66872704  1
  Ni  Ni50  1  0.83512248  0.50200605  0.83469561  1
  Ni  Ni51  1  0.83511174  0.83565620  0.50095971  1
  Fe  Fe52  1  0.66806631  0.66858367  0.66855938  1
  Ni  Ni53  1  0.83534065  0.83442870  0.83617768  1
" 