8381,Ni85Fe15_17,-230.971684125896, 173.516363663945,Ni85Fe15,"# generated using pymatgen
 data_Fe5Ni
_symmetry_space_group_name_H-M   'P 1'
_cell_length_a   7.40194112
_cell_length_b   7.40194112
_cell_length_c   10.46792551
_cell_angle_alpha   90.00000000
_cell_angle_beta   90.00000000
_cell_angle_gamma   90.00000000
_symmetry_Int_Tables_number   1
_chemical_formula_structural   Fe5Ni
_chemical_formula_sum   'Fe45 Ni9'
_cell_volume   573.52436848
_cell_formula_units_Z   9
loop_
 _symmetry_equiv_pos_site_id
 _symmetry_equiv_pos_as_xyz
  1  'x, y, z'
loop_
 _atom_site_type_symbol
 _atom_site_label
 _atom_site_symmetry_multiplicity
 _atom_site_fract_x
 _atom_site_fract_y
 _atom_site_fract_z
 _atom_site_occupancy
  Ni  Ni0  1  1.00377736  1.00337084  0.00470227  1
  Fe  Fe1  1  0.17139692  0.17073479  0.17081563  1
  Fe  Fe2  1  0.00498036  1.00398877  0.33701331  1
  Fe  Fe3  1  0.00505950  0.33722876  1.00432067  1
  Fe  Fe4  1  0.17106383  0.50439863  0.17051701  1
  Fe  Fe5  1  0.00452951  0.33792726  0.33797903  1
  Fe  Fe6  1  0.00519210  0.67084159  1.00423623  1
  Fe  Fe7  1  0.17073321  0.83806099  0.17148473  1
  Ni  Ni8  1  1.00316622  0.67113131  0.33720800  1
  Fe  Fe9  1  0.33723485  0.00480670  0.00520098  1
  Fe  Fe10  1  0.50390658  0.17106762  0.17123680  1
  Ni  Ni11  1  0.33845345  0.00542444  0.33732619  1
  Ni  Ni12  1  0.33885365  0.33777395  0.00481523  1
  Fe  Fe13  1  0.50423700  0.50406720  0.17010002  1
  Fe  Fe14  1  0.33718278  0.33770725  0.33764618  1
  Fe  Fe15  1  0.33735368  0.67062333  1.00390386  1
  Fe  Fe16  1  0.50423580  0.83806218  0.17148148  1
  Fe  Fe17  1  0.33731581  0.67181479  0.33756106  1
  Fe  Fe18  1  0.67117622  0.00494465  1.00439501  1
  Fe  Fe19  1  0.83789302  0.17073412  0.17064735  1
  Fe  Fe20  1  0.67095191  1.00385135  0.33773162  1
  Fe  Fe21  1  0.67095975  0.33734997  1.00431981  1
  Fe  Fe22  1  0.83789242  0.50472870  0.17219908  1
  Fe  Fe23  1  0.67148126  0.33797945  0.33797845  1
  Fe  Fe24  1  0.67064763  0.67090009  1.00423535  1
  Fe  Fe25  1  0.83822254  0.83772764  0.17089228  1
  Fe  Fe26  1  0.67116942  0.67136220  0.33789399  1
  Fe  Fe27  1  0.17118146  0.17152506  0.50431062  1
  Fe  Fe28  1  0.00486151  0.00453997  0.67178547  1
  Fe  Fe29  1  0.17194723  0.17235339  0.83806675  1
  Fe  Fe30  1  0.17014911  0.50465185  0.50519241  1
  Fe  Fe31  1  0.00481313  0.33863622  0.67089562  1
  Ni  Ni32  1  0.17178761  0.50427891  0.83762471  1
  Fe  Fe33  1  0.17018240  0.83702020  0.50397648  1
  Ni  Ni34  1  1.00327727  0.67137946  0.67179596  1
  Fe  Fe35  1  0.17094823  0.83669321  0.83773267  1
  Fe  Fe36  1  0.50445337  0.17152640  0.50430988  1
  Fe  Fe37  1  0.33726766  1.00425584  0.67017373  1
  Fe  Fe38  1  0.50335570  0.17268350  0.83764500  1
  Fe  Fe39  1  0.50481350  0.50398297  0.50519028  1
  Ni  Ni40  1  0.33885212  0.33741751  0.67054608  1
  Ni  Ni41  1  0.50347640  0.50428177  0.83752257  1
  Fe  Fe42  1  0.50478032  0.83768575  0.50397969  1
  Fe  Fe43  1  0.33731658  0.67016059  0.67172773  1
  Fe  Fe44  1  0.50401982  0.83669400  0.83773101  1
  Fe  Fe45  1  0.83756351  0.17155606  0.50439859  1
  Fe  Fe46  1  0.67106458  1.00439793  0.67106716  1
  Fe  Fe47  1  0.83789427  0.17165774  0.83814912  1
  Ni  Ni48  1  0.83794622  0.50451337  0.50470708  1
  Fe  Fe49  1  0.67120663  0.33868681  0.67089586  1
  Fe  Fe50  1  0.83789210  0.50481287  0.83685391  1
  Fe  Fe51  1  0.83822851  0.83665746  0.50448435  1
  Fe  Fe52  1  0.67092117  0.67010906  0.67106507  1
  Fe  Fe53  1  0.83822123  0.83672198  0.83781904  1
" 