6865,Ni85Fe9Cr4_6,-238.470206247412, 183.758278071378,Ni85Fe9Cr4,"# generated using pymatgen
 data_Cr2Fe2Ni23
_symmetry_space_group_name_H-M   'P 1'
_cell_length_a   7.45099439
_cell_length_b   7.45099439
_cell_length_c   10.53729732
_cell_angle_alpha   90.00000000
_cell_angle_beta   90.00000000
_cell_angle_gamma   90.00000000
_symmetry_Int_Tables_number   1
_chemical_formula_structural   Cr2Fe2Ni23
_chemical_formula_sum   'Cr4 Fe4 Ni46'
_cell_volume   585.00248017
_cell_formula_units_Z   2
loop_
 _symmetry_equiv_pos_site_id
 _symmetry_equiv_pos_as_xyz
  1  'x, y, z'
loop_
 _atom_site_type_symbol
 _atom_site_label
 _atom_site_symmetry_multiplicity
 _atom_site_fract_x
 _atom_site_fract_y
 _atom_site_fract_z
 _atom_site_occupancy
  Ni  Ni0  1  1.00015560  0.00115370  1.00078811  1
  Ni  Ni1  1  0.16660354  0.16973644  0.16689831  1
  Ni  Ni2  1  1.00033001  0.00212698  0.33391671  1
  Ni  Ni3  1  0.00128390  0.33416751  0.00129826  1
  Ni  Ni4  1  0.16826064  0.49970945  0.16765760  1
  Ni  Ni5  1  0.00117252  0.33457470  0.33407184  1
  Ni  Ni6  1  0.00157142  0.66786724  1.00043718  1
  Fe  Fe7  1  0.16629863  0.83311612  0.16640787  1
  Ni  Ni8  1  0.00223992  0.66646461  0.33330842  1
  Fe  Fe9  1  0.33452119  1.00077867  1.00068666  1
  Ni  Ni10  1  0.50127068  0.16840293  0.16641449  1
  Cr  Cr11  1  0.33519954  1.00079224  0.33393829  1
  Ni  Ni12  1  0.33427459  0.33536699  1.00105651  1
  Ni  Ni13  1  0.50015531  0.50166198  0.16837308  1
  Ni  Ni14  1  0.33437767  0.33601644  0.33459041  1
  Ni  Ni15  1  0.33444551  0.66709242  0.00129744  1
  Ni  Ni16  1  0.50324200  0.83308985  0.16707294  1
  Ni  Ni17  1  0.33440178  0.66598857  0.33457458  1
  Ni  Ni18  1  0.66836925  1.00098606  0.00153131  1
  Ni  Ni19  1  0.83525821  0.16677737  0.16861754  1
  Ni  Ni20  1  0.66820600  0.00215897  0.33327369  1
  Ni  Ni21  1  0.66768743  0.33409608  1.00090184  1
  Ni  Ni22  1  0.83478496  0.50167946  0.16769556  1
  Ni  Ni23  1  0.66768240  0.33416015  0.33478865  1
  Ni  Ni24  1  0.66717616  0.66819008  1.00083626  1
  Ni  Ni25  1  0.83338960  0.83474695  0.16747491  1
  Ni  Ni26  1  0.66658770  0.66687374  0.33334649  1
  Ni  Ni27  1  0.16793170  0.16851971  0.50129880  1
  Ni  Ni28  1  0.00387540  1.00044552  0.66833939  1
  Ni  Ni29  1  0.16821222  0.16698163  0.83513103  1
  Ni  Ni30  1  0.16923445  0.50066595  0.50028359  1
  Cr  Cr31  1  1.00012431  0.33492528  0.66819248  1
  Ni  Ni32  1  0.16964671  0.50128004  0.83532649  1
  Fe  Fe33  1  0.16846246  0.83324723  0.50250821  1
  Ni  Ni34  1  0.00248160  0.66837179  0.66939711  1
  Ni  Ni35  1  0.16805273  0.83497428  0.83378118  1
  Ni  Ni36  1  0.49994511  0.16926086  0.50166337  1
  Ni  Ni37  1  0.33289602  1.00073148  0.66849677  1
  Fe  Fe38  1  0.50030252  0.16929653  0.83530662  1
  Ni  Ni39  1  0.50021033  0.50166735  0.50090814  1
  Ni  Ni40  1  0.33591226  0.33463699  0.66759222  1
  Ni  Ni41  1  0.50038433  0.50225926  0.83393476  1
  Ni  Ni42  1  0.50001682  0.83232444  0.50109566  1
  Ni  Ni43  1  0.33441376  0.66783103  0.66724864  1
  Ni  Ni44  1  0.50032990  0.83252457  0.83514630  1
  Ni  Ni45  1  0.83534771  0.16866808  0.49856221  1
  Cr  Cr46  1  0.66725135  0.00263854  0.66851037  1
  Ni  Ni47  1  0.83591955  0.16706375  0.83611960  1
  Ni  Ni48  1  0.83376949  0.50096561  0.50034373  1
  Ni  Ni49  1  0.66596792  0.33629446  0.66754929  1
  Ni  Ni50  1  0.83310896  0.50225289  0.83525492  1
  Cr  Cr51  1  0.83418473  0.83333014  0.50057828  1
  Ni  Ni52  1  0.66642090  0.66523932  0.66906093  1
  Ni  Ni53  1  0.83482230  0.83399925  0.83528667  1
" 