6823,Ni85Fe5Cr9_8,-236.475587124008, 175.861123785574,Ni85Fe5Cr9,"# generated using pymatgen
 data_Cr2FeNi15
_symmetry_space_group_name_H-M   'P 1'
_cell_length_a   7.45920674
_cell_length_b   7.45920674
_cell_length_c   10.54891134
_cell_angle_alpha   90.00000000
_cell_angle_beta   90.00000000
_cell_angle_gamma   90.00000000
_symmetry_Int_Tables_number   1
_chemical_formula_structural   Cr2FeNi15
_chemical_formula_sum   'Cr6 Fe3 Ni45'
_cell_volume   586.93895009
_cell_formula_units_Z   3
loop_
 _symmetry_equiv_pos_site_id
 _symmetry_equiv_pos_as_xyz
  1  'x, y, z'
loop_
 _atom_site_type_symbol
 _atom_site_label
 _atom_site_symmetry_multiplicity
 _atom_site_fract_x
 _atom_site_fract_y
 _atom_site_fract_z
 _atom_site_occupancy
  Ni  Ni0  1  1.00019935  0.00081942  0.00056000  1
  Ni  Ni1  1  0.16703748  0.16724393  0.16775898  1
  Ni  Ni2  1  0.00213867  0.00098946  0.33398915  1
  Ni  Ni3  1  1.00020116  0.33380484  0.00143127  1
  Ni  Ni4  1  0.16693031  0.50036682  0.16774773  1
  Ni  Ni5  1  0.00299004  0.33316480  0.33311785  1
  Ni  Ni6  1  0.00088369  0.66695268  1.00037206  1
  Ni  Ni7  1  0.16703236  0.83396852  0.16786124  1
  Ni  Ni8  1  0.00377682  0.66742251  0.33291186  1
  Ni  Ni9  1  0.33432340  1.00038588  0.00146979  1
  Ni  Ni10  1  0.49904872  0.16705914  0.16576936  1
  Fe  Fe11  1  0.33037789  0.00157384  0.33306254  1
  Ni  Ni12  1  0.33413820  0.33405382  1.00032956  1
  Ni  Ni13  1  0.50015848  0.50155023  0.16703882  1
  Ni  Ni14  1  0.33240957  0.33533948  0.33504749  1
  Ni  Ni15  1  0.33388827  0.66713745  0.00055912  1
  Ni  Ni16  1  0.50023861  0.83296700  0.16658300  1
  Ni  Ni17  1  0.33207010  0.66569065  0.33355544  1
  Ni  Ni18  1  0.66705282  0.00106905  1.00031044  1
  Ni  Ni19  1  0.83548636  0.16715845  0.16603197  1
  Cr  Cr20  1  0.66773484  0.00151353  0.33237986  1
  Ni  Ni21  1  0.66723843  0.33336930  0.00061371  1
  Ni  Ni22  1  0.83449025  0.50155554  0.16668579  1
  Cr  Cr23  1  0.66650414  0.33343050  0.33344898  1
  Ni  Ni24  1  0.66680441  0.66713769  0.00141222  1
  Ni  Ni25  1  0.83430311  0.83285986  0.16684273  1
  Fe  Fe26  1  0.66676968  0.66581523  0.33115758  1
  Ni  Ni27  1  0.16795119  0.16649877  0.49920334  1
  Ni  Ni28  1  0.00102028  0.99963417  0.66702901  1
  Ni  Ni29  1  0.16786374  0.16619886  0.83461891  1
  Ni  Ni30  1  0.16966666  0.50092064  0.49940376  1
  Cr  Cr31  1  1.00044324  0.33318797  0.66745817  1
  Ni  Ni32  1  0.16767373  0.50156661  0.83443100  1
  Ni  Ni33  1  0.16696725  0.83415843  0.50062281  1
  Ni  Ni34  1  0.00277666  0.66897189  0.66829060  1
  Ni  Ni35  1  0.16687566  0.83381144  0.83309012  1
  Ni  Ni36  1  0.49877343  0.16920447  0.50245199  1
  Ni  Ni37  1  0.33368317  1.00015812  0.66679395  1
  Ni  Ni38  1  0.50073566  0.16708604  0.83335698  1
  Ni  Ni39  1  0.49805665  0.49921010  0.50137345  1
  Fe  Fe40  1  0.33574632  0.33387422  0.66697662  1
  Ni  Ni41  1  0.50093350  0.50068571  0.83316774  1
  Cr  Cr42  1  0.49879836  0.83297568  0.50126730  1
  Ni  Ni43  1  0.33325010  0.66712105  0.66745853  1
  Ni  Ni44  1  0.50084783  0.83380451  0.83371535  1
  Ni  Ni45  1  0.83484773  0.16650146  0.50138136  1
  Ni  Ni46  1  0.66687395  0.00276947  0.66853821  1
  Ni  Ni47  1  0.83297772  0.16628788  0.83416185  1
  Cr  Cr48  1  0.83378384  0.50093835  0.50026470  1
  Ni  Ni49  1  0.66502267  0.33253950  0.66721896  1
  Ni  Ni50  1  0.83297046  0.50167675  0.83454245  1
  Cr  Cr51  1  0.83621017  0.83432108  0.50174917  1
  Ni  Ni52  1  0.66555121  0.66626650  0.66851516  1
  Ni  Ni53  1  0.83385317  0.83361218  0.83325142  1
" 