5383,Ni85Fe5Cr9_2,-236.624181929417, 175.801563261394,Ni85Fe5Cr9,"# generated using pymatgen
 data_Cr2FeNi15
_symmetry_space_group_name_H-M   'P 1'
_cell_length_a   7.45699883
_cell_length_b   7.45699883
_cell_length_c   10.54578889
_cell_angle_alpha   90.00000000
_cell_angle_beta   90.00000000
_cell_angle_gamma   90.00000000
_symmetry_Int_Tables_number   1
_chemical_formula_structural   Cr2FeNi15
_chemical_formula_sum   'Cr6 Fe3 Ni45'
_cell_volume   586.41790694
_cell_formula_units_Z   3
loop_
 _symmetry_equiv_pos_site_id
 _symmetry_equiv_pos_as_xyz
  1  'x, y, z'
loop_
 _atom_site_type_symbol
 _atom_site_label
 _atom_site_symmetry_multiplicity
 _atom_site_fract_x
 _atom_site_fract_y
 _atom_site_fract_z
 _atom_site_occupancy
  Ni  Ni0  1  0.00084434  0.00110039  0.00102482  1
  Ni  Ni1  1  0.16693238  0.16666440  0.16658143  1
  Ni  Ni2  1  1.00047999  0.00215906  0.33385223  1
  Ni  Ni3  1  0.00253945  0.33202895  1.00049325  1
  Ni  Ni4  1  0.16881382  0.50080963  0.16678941  1
  Ni  Ni5  1  0.00261464  0.33248261  0.33490584  1
  Ni  Ni6  1  0.00225057  0.66906447  0.00141492  1
  Ni  Ni7  1  0.16749107  0.83468235  0.16716393  1
  Fe  Fe8  1  0.00271352  0.66957161  0.33503481  1
  Ni  Ni9  1  0.33387211  0.00068482  0.00095482  1
  Ni  Ni10  1  0.49975605  0.16543789  0.16796113  1
  Ni  Ni11  1  0.33369394  0.00079161  0.33430987  1
  Ni  Ni12  1  0.33170649  0.33192636  0.00275684  1
  Ni  Ni13  1  0.49734784  0.50094662  0.16867567  1
  Ni  Ni14  1  0.33118081  0.33340772  0.33277618  1
  Ni  Ni15  1  0.33253105  0.66937386  0.00296727  1
  Ni  Ni16  1  0.49971393  0.83539681  0.16794661  1
  Ni  Ni17  1  0.33447846  0.66777162  0.33282230  1
  Ni  Ni18  1  0.66738880  1.00041824  0.00096701  1
  Ni  Ni19  1  0.83513363  0.16431434  0.16804123  1
  Ni  Ni20  1  0.66786283  0.99888589  0.33357041  1
  Cr  Cr21  1  0.66705272  0.33084532  0.00145096  1
  Cr  Cr22  1  0.83630198  0.50036553  0.16948328  1
  Fe  Fe23  1  0.66636093  0.33114103  0.33458346  1
  Cr  Cr24  1  0.66675512  0.67106106  0.99988288  1
  Ni  Ni25  1  0.83498048  0.83697289  0.16723745  1
  Ni  Ni26  1  0.66692253  0.66996862  0.33411853  1
  Ni  Ni27  1  0.16694862  0.16672041  0.50133721  1
  Ni  Ni28  1  0.00084957  0.00118847  0.66707791  1
  Ni  Ni29  1  0.16678643  0.16465558  0.83410604  1
  Ni  Ni30  1  0.16564714  0.50085028  0.50081740  1
  Ni  Ni31  1  0.99994180  0.33291019  0.66667709  1
  Cr  Cr32  1  0.16571145  0.50124597  0.83433332  1
  Ni  Ni33  1  0.16749705  0.83463360  0.50073320  1
  Ni  Ni34  1  0.99968825  0.66802424  0.66568912  1
  Ni  Ni35  1  0.16789149  0.83581443  0.83412849  1
  Ni  Ni36  1  0.50080673  0.16488769  0.50115507  1
  Ni  Ni37  1  0.33373812  0.00070364  0.66674132  1
  Ni  Ni38  1  0.50040859  0.16385702  0.83305747  1
  Cr  Cr39  1  0.50063275  0.50080077  0.50155602  1
  Ni  Ni40  1  0.33237615  0.33088922  0.66653373  1
  Cr  Cr41  1  0.50007592  0.50065291  0.83198709  1
  Ni  Ni42  1  0.50075340  0.83573749  0.50098319  1
  Ni  Ni43  1  0.33314071  0.67035839  0.66627976  1
  Ni  Ni44  1  0.49882795  0.83715009  0.83302737  1
  Ni  Ni45  1  0.83415334  0.16679076  0.50048391  1
  Ni  Ni46  1  0.66748933  1.00045765  0.66738966  1
  Ni  Ni47  1  0.83486673  0.16678345  0.83352494  1
  Ni  Ni48  1  0.83564771  0.50068463  0.50109839  1
  Ni  Ni49  1  0.66972961  0.33222048  0.66645912  1
  Ni  Ni50  1  0.83604105  0.49997806  0.83162823  1
  Ni  Ni51  1  0.83397376  0.83458666  0.50113178  1
  Ni  Ni52  1  0.66932498  0.66940897  0.66763584  1
  Fe  Fe53  1  0.83571609  0.83611946  0.83304498  1
" 