8020,Ni85Fe12Cr2_19,-239.496839342473, 189.771513181638,Ni85Fe12Cr2,"# generated using pymatgen
 data_CrFe2Ni15
_symmetry_space_group_name_H-M   'P 1'
_cell_length_a   7.44096584
_cell_length_b   7.44096584
_cell_length_c   10.52311480
_cell_angle_alpha   90.00000000
_cell_angle_beta   90.00000000
_cell_angle_gamma   90.00000000
_symmetry_Int_Tables_number   1
_chemical_formula_structural   CrFe2Ni15
_chemical_formula_sum   'Cr3 Fe6 Ni45'
_cell_volume   582.64353212
_cell_formula_units_Z   3
loop_
 _symmetry_equiv_pos_site_id
 _symmetry_equiv_pos_as_xyz
  1  'x, y, z'
loop_
 _atom_site_type_symbol
 _atom_site_label
 _atom_site_symmetry_multiplicity
 _atom_site_fract_x
 _atom_site_fract_y
 _atom_site_fract_z
 _atom_site_occupancy
  Ni  Ni0  1  0.00313999  0.00237981  0.00274322  1
  Ni  Ni1  1  0.16883964  0.16740707  0.16922155  1
  Fe  Fe2  1  1.00138855  1.00110160  0.33447661  1
  Ni  Ni3  1  0.00178036  0.33533362  0.00234975  1
  Ni  Ni4  1  0.16921081  0.50244886  0.16898917  1
  Ni  Ni5  1  1.00067371  0.33527966  0.33553123  1
  Ni  Ni6  1  0.00187675  0.66758474  1.00168365  1
  Ni  Ni7  1  0.16762031  0.83554342  0.16728512  1
  Ni  Ni8  1  1.00096306  0.66570468  0.33455688  1
  Ni  Ni9  1  0.33354853  0.00182103  1.00120387  1
  Ni  Ni10  1  0.50103506  0.17077497  0.16871487  1
  Ni  Ni11  1  0.33696293  0.00263657  0.33409786  1
  Ni  Ni12  1  0.33423731  0.33473354  0.00309034  1
  Ni  Ni13  1  0.50223260  0.50131601  0.16802152  1
  Fe  Fe14  1  0.33449031  0.33640456  0.33437368  1
  Ni  Ni15  1  0.33469085  0.66868974  0.00217244  1
  Fe  Fe16  1  0.50088699  0.83449627  0.16792895  1
  Ni  Ni17  1  0.33474646  0.67159575  0.33319375  1
  Cr  Cr18  1  0.66812626  0.00186465  0.00179277  1
  Ni  Ni19  1  0.83537774  0.16853075  0.16929755  1
  Fe  Fe20  1  0.66901155  1.00139800  0.33521911  1
  Ni  Ni21  1  0.66916186  0.33619868  0.00181401  1
  Ni  Ni22  1  0.83388715  0.50203843  0.16795698  1
  Ni  Ni23  1  0.67085004  0.33422023  0.33397163  1
  Ni  Ni24  1  0.66863655  0.66716550  0.00211753  1
  Ni  Ni25  1  0.83718861  0.83398990  0.16900492  1
  Ni  Ni26  1  0.66921631  0.66876029  0.33394399  1
  Ni  Ni27  1  0.16909514  0.16855626  0.50082853  1
  Ni  Ni28  1  1.00109028  0.00342197  0.66861553  1
  Ni  Ni29  1  0.16778076  0.16805550  0.83523019  1
  Ni  Ni30  1  0.16782994  0.50099392  0.50150620  1
  Ni  Ni31  1  1.00166963  0.33521563  0.66714322  1
  Ni  Ni32  1  0.16969793  0.50137360  0.83463860  1
  Cr  Cr33  1  0.16689046  0.83470323  0.50377773  1
  Ni  Ni34  1  1.00080294  0.66657355  0.66924296  1
  Ni  Ni35  1  0.16806362  0.83588779  0.83555962  1
  Ni  Ni36  1  0.50205999  0.16813439  0.50219087  1
  Ni  Ni37  1  0.33605495  0.00298788  0.66994816  1
  Fe  Fe38  1  0.50112372  0.16955110  0.83454639  1
  Cr  Cr39  1  0.50184649  0.50130001  0.50219303  1
  Ni  Ni40  1  0.33346856  0.33370638  0.66782278  1
  Ni  Ni41  1  0.50163330  0.50165941  0.83564356  1
  Fe  Fe42  1  0.50231102  0.83620373  0.50246880  1
  Ni  Ni43  1  0.33471887  0.66852613  0.66992250  1
  Ni  Ni44  1  0.50107150  0.83282464  0.83363844  1
  Ni  Ni45  1  0.83451525  0.16783931  0.50137934  1
  Ni  Ni46  1  0.66809712  0.00199079  0.66705578  1
  Ni  Ni47  1  0.83673366  0.16859453  0.83434032  1
  Ni  Ni48  1  0.83484729  0.50211023  0.50206745  1
  Ni  Ni49  1  0.66986327  0.33394222  0.66968974  1
  Ni  Ni50  1  0.83386962  0.50155799  0.83524971  1
  Ni  Ni51  1  0.83406015  0.83487515  0.50215165  1
  Ni  Ni52  1  0.66959679  0.66940735  0.66899574  1
  Ni  Ni53  1  0.83606678  0.83522828  0.83403950  1
" 