3318,Ni85Fe9Cr4_10,-238.398107073085, 182.133944654172,Ni85Fe9Cr4,"# generated using pymatgen
 data_Cr2Fe2Ni23
_symmetry_space_group_name_H-M   'P 1'
_cell_length_a   7.45321656
_cell_length_b   7.45321656
_cell_length_c   10.54043994
_cell_angle_alpha   90.00000000
_cell_angle_beta   90.00000000
_cell_angle_gamma   90.00000000
_symmetry_Int_Tables_number   1
_chemical_formula_structural   Cr2Fe2Ni23
_chemical_formula_sum   'Cr4 Fe4 Ni46'
_cell_volume   585.52604599
_cell_formula_units_Z   2
loop_
 _symmetry_equiv_pos_site_id
 _symmetry_equiv_pos_as_xyz
  1  'x, y, z'
loop_
 _atom_site_type_symbol
 _atom_site_label
 _atom_site_symmetry_multiplicity
 _atom_site_fract_x
 _atom_site_fract_y
 _atom_site_fract_z
 _atom_site_occupancy
  Ni  Ni0  1  0.00145124  1.00032432  1.00083270  1
  Ni  Ni1  1  0.16805498  0.16550199  0.16757568  1
  Ni  Ni2  1  0.00136238  1.00064710  0.33385999  1
  Ni  Ni3  1  1.00021114  0.33384344  0.99999310  1
  Cr  Cr4  1  0.16735575  0.50068872  0.16781970  1
  Ni  Ni5  1  1.00019711  0.33382811  0.33499498  1
  Ni  Ni6  1  0.99921208  0.66861387  0.99972040  1
  Ni  Ni7  1  0.16691248  0.83619105  0.16769101  1
  Ni  Ni8  1  0.99990145  0.66830198  0.33533142  1
  Ni  Ni9  1  0.33328396  0.00238094  0.00176690  1
  Ni  Ni10  1  0.50084794  0.16806639  0.16715802  1
  Ni  Ni11  1  0.33403413  0.00102689  0.33421551  1
  Ni  Ni12  1  0.33558024  0.33284848  0.99971916  1
  Ni  Ni13  1  0.50286399  0.50024784  0.16768902  1
  Ni  Ni14  1  0.33527004  0.33353295  0.33533107  1
  Fe  Fe15  1  0.33429313  0.66760634  1.00089107  1
  Fe  Fe16  1  0.50147880  0.83481063  0.16813882  1
  Ni  Ni17  1  0.33519379  0.66822787  0.33498322  1
  Ni  Ni18  1  0.66805274  0.00138687  0.00113311  1
  Ni  Ni19  1  0.83388059  0.16722255  0.16774413  1
  Ni  Ni20  1  0.66739292  1.00072555  0.33451607  1
  Ni  Ni21  1  0.66699163  0.33508054  1.00082527  1
  Ni  Ni22  1  0.83215993  0.50138808  0.16757602  1
  Ni  Ni23  1  0.66731433  0.33499291  0.33386936  1
  Ni  Ni24  1  0.66904367  0.66631776  0.00176103  1
  Ni  Ni25  1  0.83472509  0.83417182  0.16715786  1
  Ni  Ni26  1  0.66769378  0.66706674  0.33422488  1
  Ni  Ni27  1  0.16844050  0.16775611  0.50073270  1
  Ni  Ni28  1  0.00145609  1.00041545  0.66808778  1
  Ni  Ni29  1  0.16768328  0.16734388  0.83447127  1
  Ni  Ni30  1  0.16743324  0.50076761  0.50176686  1
  Ni  Ni31  1  0.00287833  0.33434169  0.66780156  1
  Fe  Fe32  1  0.16704966  0.50038332  0.83361634  1
  Ni  Ni33  1  0.16737452  0.83425959  0.50115254  1
  Ni  Ni34  1  0.00258086  0.66802245  0.66773576  1
  Ni  Ni35  1  0.16565163  0.83471759  0.83394212  1
  Ni  Ni36  1  0.49953372  0.16687871  0.50080788  1
  Ni  Ni37  1  0.33326387  0.00169862  0.66679832  1
  Ni  Ni38  1  0.49991949  0.16893357  0.83481418  1
  Ni  Ni39  1  0.49959221  0.50070295  0.49938623  1
  Ni  Ni40  1  0.33282651  0.33403854  0.66773651  1
  Ni  Ni41  1  0.50004690  0.49898961  0.83570837  1
  Ni  Ni42  1  0.50053357  0.83519927  0.50000078  1
  Ni  Ni43  1  0.33183567  0.66704032  0.66715079  1
  Cr  Cr44  1  0.50055183  0.83528460  0.83463769  1
  Fe  Fe45  1  0.83505346  0.16675429  0.50014661  1
  Ni  Ni46  1  0.66807305  0.00140622  0.66713123  1
  Ni  Ni47  1  0.83518456  0.16719401  0.83464810  1
  Ni  Ni48  1  0.83575820  0.50177247  0.49896650  1
  Cr  Cr49  1  0.66710016  0.33312900  0.66789110  1
  Ni  Ni50  1  0.83534022  0.50101048  0.83623087  1
  Ni  Ni51  1  0.83487595  0.83419780  0.50080536  1
  Cr  Cr52  1  0.66839021  0.66824766  0.66659934  1
  Ni  Ni53  1  0.83691730  0.83457680  0.83481804  1
" 