7148,Ni85Cr15_7,-205.749993946281, 169.435353258345,Ni85Cr15,"# generated using pymatgen
 data_Cr5Ni
_symmetry_space_group_name_H-M   'P 1'
_cell_length_a   7.58417094
_cell_length_b   7.58417094
_cell_length_c   10.72563740
_cell_angle_alpha   90.00000000
_cell_angle_beta   90.00000000
_cell_angle_gamma   90.00000000
_symmetry_Int_Tables_number   1
_chemical_formula_structural   Cr5Ni
_chemical_formula_sum   'Cr45 Ni9'
_cell_volume   616.93489681
_cell_formula_units_Z   9
loop_
 _symmetry_equiv_pos_site_id
 _symmetry_equiv_pos_as_xyz
  1  'x, y, z'
loop_
 _atom_site_type_symbol
 _atom_site_label
 _atom_site_symmetry_multiplicity
 _atom_site_fract_x
 _atom_site_fract_y
 _atom_site_fract_z
 _atom_site_occupancy
  Ni  Ni0  1  -0.00656042  -0.00670590  0.99098008  1
  Cr  Cr1  1  0.15920766  0.15945246  0.15835712  1
  Cr  Cr2  1  -0.00717290  -0.00609879  0.32534662  1
  Cr  Cr3  1  -0.00611183  0.32278783  0.99211048  1
  Cr  Cr4  1  0.15866043  0.49112339  0.15960196  1
  Ni  Ni5  1  0.99222325  0.32551228  0.32581931  1
  Cr  Cr6  1  0.99177635  0.66096850  -0.00750158  1
  Cr  Cr7  1  0.16024205  0.82626007  0.15872420  1
  Cr  Cr8  1  0.99227310  0.65730775  0.32626426  1
  Cr  Cr9  1  0.32334299  -0.00642366  -0.00713341  1
  Cr  Cr10  1  0.49184457  0.15678658  0.16035728  1
  Ni  Ni11  1  0.32815754  0.99145264  0.32491611  1
  Ni  Ni12  1  0.32526099  0.32577577  0.99013548  1
  Cr  Cr13  1  0.49129164  0.49269323  0.15694336  1
  Cr  Cr14  1  0.32425434  0.32405301  0.32589333  1
  Cr  Cr15  1  0.32763361  0.65781276  -0.00750370  1
  Ni  Ni16  1  0.49251938  0.82720991  0.16117862  1
  Cr  Cr17  1  0.32637686  0.66154540  0.32517853  1
  Cr  Cr18  1  0.66008618  0.99145968  -0.00641632  1
  Cr  Cr19  1  0.82578369  0.15836520  0.15981237  1
  Ni  Ni20  1  0.65634455  0.99150480  0.32517741  1
  Cr  Cr21  1  0.65692721  0.32708000  0.99141003  1
  Cr  Cr22  1  0.82688348  0.49165962  0.16014150  1
  Cr  Cr23  1  0.66085159  0.32460211  0.32571777  1
  Cr  Cr24  1  0.65742601  0.65829657  -0.00728359  1
  Cr  Cr25  1  0.82421348  0.82680969  0.15785011  1
  Cr  Cr26  1  0.65818457  0.66045211  0.32408458  1
  Cr  Cr27  1  0.15938682  0.15959609  0.49079972  1
  Cr  Cr28  1  0.99218077  -0.00705982  0.66094886  1
  Ni  Ni29  1  0.15901964  0.15935376  0.82736171  1
  Cr  Cr30  1  0.15775965  0.49205913  0.49096674  1
  Cr  Cr31  1  -0.00732740  0.32436651  0.65824146  1
  Cr  Cr32  1  0.16132000  0.49066661  0.82626495  1
  Cr  Cr33  1  0.15992645  0.82518046  0.49206306  1
  Cr  Cr34  1  0.99213393  0.65952863  0.65807139  1
  Cr  Cr35  1  0.15758227  0.82707866  0.82604801  1
  Cr  Cr36  1  0.49336653  0.15634258  0.49152032  1
  Cr  Cr37  1  0.32538496  -0.00706318  0.65878866  1
  Cr  Cr38  1  0.49120571  0.16066035  0.82495949  1
  Cr  Cr39  1  0.49173213  0.49205720  0.49352075  1
  Cr  Cr40  1  0.32597653  0.32545336  0.66116049  1
  Ni  Ni41  1  0.49111554  0.49112142  0.82645897  1
  Cr  Cr42  1  0.49282341  0.82843462  0.49137157  1
  Cr  Cr43  1  0.32651919  0.65844646  0.65916044  1
  Cr  Cr44  1  0.49332148  0.82501928  0.82424300  1
  Cr  Cr45  1  0.82408344  0.15850454  0.49151877  1
  Ni  Ni46  1  0.65909337  0.99194686  0.65847658  1
  Cr  Cr47  1  0.82641802  0.15692324  0.82550656  1
  Cr  Cr48  1  0.82734481  0.49151730  0.49118521  1
  Cr  Cr49  1  0.65818686  0.32549805  0.65970735  1
  Cr  Cr50  1  0.82436203  0.49278015  0.82550723  1
  Cr  Cr51  1  0.82408596  0.82681226  0.49370233  1
  Cr  Cr52  1  0.65818330  0.65893635  0.66003326  1
  Cr  Cr53  1  0.82592975  0.82713165  0.82528677  1
" 