5903,Ni85Fe14Cr0_1,-241.469639597423, 196.442823083583,Ni85Fe14Cr0,"# generated using pymatgen
 data_CrFe7Ni46
_symmetry_space_group_name_H-M   'P 1'
_cell_length_a   7.43862407
_cell_length_b   7.43862407
_cell_length_c   10.51980305
_cell_angle_alpha   90.00000000
_cell_angle_beta   90.00000000
_cell_angle_gamma   90.00000000
_symmetry_Int_Tables_number   1
_chemical_formula_structural   CrFe7Ni46
_chemical_formula_sum   'Cr1 Fe7 Ni46'
_cell_volume   582.09360921
_cell_formula_units_Z   1
loop_
 _symmetry_equiv_pos_site_id
 _symmetry_equiv_pos_as_xyz
  1  'x, y, z'
loop_
 _atom_site_type_symbol
 _atom_site_label
 _atom_site_symmetry_multiplicity
 _atom_site_fract_x
 _atom_site_fract_y
 _atom_site_fract_z
 _atom_site_occupancy
  Ni  Ni0  1  0.00429771  1.00138637  1.00136031  1
  Ni  Ni1  1  0.16878565  0.16880975  0.16819823  1
  Ni  Ni2  1  0.00254538  0.00249789  0.33534226  1
  Fe  Fe3  1  1.00069150  0.33471285  1.00187106  1
  Ni  Ni4  1  0.16856646  0.50180665  0.16872085  1
  Ni  Ni5  1  0.00244161  0.33449816  0.33399329  1
  Fe  Fe6  1  1.00051439  0.66792488  1.00147042  1
  Ni  Ni7  1  0.16818369  0.83515361  0.16743759  1
  Fe  Fe8  1  0.00219725  0.66834230  0.33605264  1
  Fe  Fe9  1  0.33611589  0.00326755  0.00196030  1
  Ni  Ni10  1  0.50061392  0.16982344  0.16969737  1
  Ni  Ni11  1  0.33391957  1.00125765  0.33375324  1
  Ni  Ni12  1  0.33451741  0.33661619  1.00165010  1
  Ni  Ni13  1  0.50156176  0.50191562  0.16835157  1
  Ni  Ni14  1  0.33449304  0.33627175  0.33596700  1
  Fe  Fe15  1  0.33629840  0.66818130  0.00212946  1
  Ni  Ni16  1  0.50151079  0.83417115  0.16949658  1
  Ni  Ni17  1  0.33536593  0.66820296  0.33440757  1
  Cr  Cr18  1  0.67073742  1.00190870  0.00242479  1
  Ni  Ni19  1  0.83632792  0.16915086  0.16906379  1
  Ni  Ni20  1  0.66921896  1.00154864  0.33488764  1
  Ni  Ni21  1  0.66702566  0.33750969  0.00198706  1
  Ni  Ni22  1  0.83525159  0.50241827  0.16820037  1
  Ni  Ni23  1  0.66881188  0.33613321  0.33410097  1
  Ni  Ni24  1  0.66801844  0.66705211  1.00161080  1
  Ni  Ni25  1  0.83626520  0.83399929  0.16993092  1
  Ni  Ni26  1  0.66737559  0.66805206  0.33492197  1
  Ni  Ni27  1  0.16859651  0.16845516  0.50199236  1
  Ni  Ni28  1  0.00250581  0.00244266  0.66876935  1
  Ni  Ni29  1  0.16860754  0.16918044  0.83554879  1
  Ni  Ni30  1  0.16844668  0.50174387  0.50205879  1
  Ni  Ni31  1  0.00193184  0.33533842  0.66967647  1
  Ni  Ni32  1  0.16854598  0.50123260  0.83515668  1
  Ni  Ni33  1  0.16906611  0.83545927  0.50255727  1
  Ni  Ni34  1  0.00268469  0.66796788  0.66855763  1
  Fe  Fe35  1  0.16813605  0.83528407  0.83455409  1
  Ni  Ni36  1  0.50168846  0.16791470  0.50191123  1
  Ni  Ni37  1  0.33451174  1.00092159  0.66964901  1
  Ni  Ni38  1  0.50079168  0.16922377  0.83423524  1
  Ni  Ni39  1  0.50188536  0.50230059  0.50244815  1
  Fe  Fe40  1  0.33504672  0.33532757  0.66853746  1
  Ni  Ni41  1  0.50146923  0.50236461  0.83511188  1
  Ni  Ni42  1  0.50167632  0.83545482  0.50181935  1
  Ni  Ni43  1  0.33507608  0.66847453  0.66935660  1
  Ni  Ni44  1  0.50206567  0.83431863  0.83441807  1
  Ni  Ni45  1  0.83546587  0.16869287  0.50223028  1
  Ni  Ni46  1  0.66859996  0.00199110  0.66879607  1
  Ni  Ni47  1  0.83626685  0.16894493  0.83446878  1
  Ni  Ni48  1  0.83537894  0.50177993  0.50227176  1
  Ni  Ni49  1  0.66936215  0.33585019  0.66967062  1
  Ni  Ni50  1  0.83543121  0.50254649  0.83528880  1
  Ni  Ni51  1  0.83492941  0.83525209  0.50229447  1
  Ni  Ni52  1  0.66798676  0.66790508  0.66914126  1
  Ni  Ni53  1  0.83536241  0.83418826  0.83366043  1
" 