279,Ni85Fe9Cr4_18,-238.521961068142, 183.914654627265,Ni85Fe9Cr4,"# generated using pymatgen
 data_Cr2Fe2Ni23
_symmetry_space_group_name_H-M   'P 1'
_cell_length_a   7.45106109
_cell_length_b   7.45106109
_cell_length_c   10.53739165
_cell_angle_alpha   90.00000000
_cell_angle_beta   90.00000000
_cell_angle_gamma   90.00000000
_symmetry_Int_Tables_number   1
_chemical_formula_structural   Cr2Fe2Ni23
_chemical_formula_sum   'Cr4 Fe4 Ni46'
_cell_volume   585.01819098
_cell_formula_units_Z   2
loop_
 _symmetry_equiv_pos_site_id
 _symmetry_equiv_pos_as_xyz
  1  'x, y, z'
loop_
 _atom_site_type_symbol
 _atom_site_label
 _atom_site_symmetry_multiplicity
 _atom_site_fract_x
 _atom_site_fract_y
 _atom_site_fract_z
 _atom_site_occupancy
  Ni  Ni0  1  0.00170633  0.99988877  0.00115984  1
  Ni  Ni1  1  0.16758696  0.16785775  0.16777883  1
  Ni  Ni2  1  0.00196990  0.99849407  0.33486650  1
  Ni  Ni3  1  0.00144820  0.33478188  0.00163347  1
  Ni  Ni4  1  0.16763099  0.50072215  0.16725119  1
  Fe  Fe5  1  0.00178280  0.33368714  0.33412038  1
  Ni  Ni6  1  1.00089273  0.66858323  0.00113903  1
  Ni  Ni7  1  0.16780968  0.83464235  0.16766574  1
  Ni  Ni8  1  1.00067385  0.66873162  0.33449706  1
  Ni  Ni9  1  0.33383317  0.00123136  0.00124750  1
  Ni  Ni10  1  0.49999345  0.16686404  0.16654710  1
  Ni  Ni11  1  0.33257600  0.00368840  0.33360737  1
  Ni  Ni12  1  0.33482094  0.33412011  0.00128890  1
  Ni  Ni13  1  0.50029420  0.50212022  0.16691387  1
  Ni  Ni14  1  0.33321790  0.33398379  0.33455929  1
  Ni  Ni15  1  0.33391815  0.66787414  0.00121366  1
  Ni  Ni16  1  0.50111872  0.83436573  0.16732600  1
  Fe  Fe17  1  0.33350735  0.66814332  0.33260205  1
  Ni  Ni18  1  0.66765751  1.00069880  0.00115072  1
  Ni  Ni19  1  0.83564892  0.16684501  0.16637531  1
  Ni  Ni20  1  0.66876527  1.00006184  0.33392005  1
  Ni  Ni21  1  0.66697206  0.33489482  1.00090212  1
  Ni  Ni22  1  0.83529606  0.50190060  0.16663561  1
  Cr  Cr23  1  0.66594725  0.33479584  0.33504520  1
  Ni  Ni24  1  0.66827173  0.66760571  0.00149496  1
  Ni  Ni25  1  0.83435721  0.83430131  0.16768144  1
  Ni  Ni26  1  0.67067861  0.66794619  0.33362964  1
  Ni  Ni27  1  0.16645663  0.16710607  0.50010102  1
  Ni  Ni28  1  0.00201796  0.99964147  0.66723325  1
  Ni  Ni29  1  0.16615913  0.16638293  0.83531246  1
  Ni  Ni30  1  0.16666335  0.50180395  0.50058697  1
  Ni  Ni31  1  0.00188263  0.33519751  0.66659658  1
  Fe  Fe32  1  0.16609033  0.50146637  0.83588251  1
  Ni  Ni33  1  0.16626660  0.83446615  0.50133663  1
  Ni  Ni34  1  1.00029178  0.66850813  0.66769607  1
  Ni  Ni35  1  0.16788111  0.83537015  0.83422555  1
  Ni  Ni36  1  0.49981015  0.16644215  0.50045352  1
  Ni  Ni37  1  0.33272728  0.00128096  0.66833273  1
  Ni  Ni38  1  0.50067768  0.16591660  0.83633272  1
  Ni  Ni39  1  0.49991921  0.50287967  0.50011298  1
  Cr  Cr40  1  0.33357964  0.33311796  0.66808864  1
  Ni  Ni41  1  0.50202146  0.50342816  0.83633034  1
  Cr  Cr42  1  0.50120106  0.83446929  0.50129564  1
  Fe  Fe43  1  0.33309850  0.66904891  0.66926911  1
  Ni  Ni44  1  0.50078433  0.83398038  0.83443890  1
  Ni  Ni45  1  0.83700333  0.16587812  0.50171215  1
  Ni  Ni46  1  0.66846605  0.99965192  0.66812518  1
  Ni  Ni47  1  0.83636808  0.16756516  0.83493576  1
  Ni  Ni48  1  0.83648531  0.50291406  0.50118852  1
  Cr  Cr49  1  0.66819399  0.33461200  0.66724958  1
  Ni  Ni50  1  0.83483591  0.50159398  0.83521467  1
  Ni  Ni51  1  0.83601456  0.83418300  0.50140451  1
  Ni  Ni52  1  0.67014847  0.66817321  0.66807715  1
  Ni  Ni53  1  0.83450901  0.83402103  0.83414348  1
" 