3806,Ni85Fe14Cr0_3,-241.378348108977, 195.986173193878,Ni85Fe14Cr0,"# generated using pymatgen
 data_CrFe7Ni46
_symmetry_space_group_name_H-M   'P 1'
_cell_length_a   7.43550614
_cell_length_b   7.43550614
_cell_length_c   10.51539362
_cell_angle_alpha   90.00000000
_cell_angle_beta   90.00000000
_cell_angle_gamma   90.00000000
_symmetry_Int_Tables_number   1
_chemical_formula_structural   CrFe7Ni46
_chemical_formula_sum   'Cr1 Fe7 Ni46'
_cell_volume   581.36195394
_cell_formula_units_Z   1
loop_
 _symmetry_equiv_pos_site_id
 _symmetry_equiv_pos_as_xyz
  1  'x, y, z'
loop_
 _atom_site_type_symbol
 _atom_site_label
 _atom_site_symmetry_multiplicity
 _atom_site_fract_x
 _atom_site_fract_y
 _atom_site_fract_z
 _atom_site_occupancy
  Ni  Ni0  1  1.00066703  1.00052411  1.00093863  1
  Cr  Cr1  1  0.16897270  0.16836347  0.16892707  1
  Ni  Ni2  1  1.00090565  1.00132409  0.33671762  1
  Fe  Fe3  1  1.00061966  0.33644893  1.00158107  1
  Ni  Ni4  1  0.16860327  0.50428321  0.16874815  1
  Ni  Ni5  1  1.00113652  0.33653454  0.33599608  1
  Ni  Ni6  1  1.00205715  0.66934461  0.00237742  1
  Ni  Ni7  1  0.16910726  0.83343180  0.16864373  1
  Ni  Ni8  1  0.00229549  0.66850461  0.33533035  1
  Ni  Ni9  1  0.33641338  1.00162656  1.00099107  1
  Ni  Ni10  1  0.50396206  0.16870335  0.16891924  1
  Ni  Ni11  1  0.33653257  1.00154764  0.33649143  1
  Ni  Ni12  1  0.33723042  0.33643870  1.00136284  1
  Ni  Ni13  1  0.50230547  0.50229455  0.16842640  1
  Ni  Ni14  1  0.33653106  0.33654072  0.33654301  1
  Ni  Ni15  1  0.33497330  0.66829939  0.00242754  1
  Ni  Ni16  1  0.50174664  0.83536561  0.16831487  1
  Ni  Ni17  1  0.33514832  0.66827452  0.33510306  1
  Ni  Ni18  1  0.66928048  0.00278130  0.00255295  1
  Ni  Ni19  1  0.83351877  0.16920688  0.16841437  1
  Ni  Ni20  1  0.66892380  0.00270858  0.33477723  1
  Ni  Ni21  1  0.66823256  0.33505178  0.00216110  1
  Ni  Ni22  1  0.83545326  0.50206779  0.16869060  1
  Ni  Ni23  1  0.66869482  0.33515115  0.33559618  1
  Ni  Ni24  1  0.66933322  0.66853106  1.00184919  1
  Ni  Ni25  1  0.83550902  0.83508888  0.16858538  1
  Ni  Ni26  1  0.66891923  0.66850412  0.33553156  1
  Ni  Ni27  1  0.16856899  0.16848804  0.50285234  1
  Ni  Ni28  1  1.00118590  1.00207416  0.66870463  1
  Fe  Fe29  1  0.16856384  0.16759843  0.83484317  1
  Ni  Ni30  1  0.16829236  0.50234835  0.50213050  1
  Ni  Ni31  1  0.00218608  0.33585552  0.66905118  1
  Fe  Fe32  1  0.16853058  0.50281350  0.83516330  1
  Ni  Ni33  1  0.16967103  0.83552640  0.50196588  1
  Ni  Ni34  1  0.00228351  0.66843283  0.66865108  1
  Ni  Ni35  1  0.16932217  0.83531121  0.83575295  1
  Ni  Ni36  1  0.50198349  0.16843082  0.50186409  1
  Ni  Ni37  1  0.33620744  0.00230192  0.66888187  1
  Ni  Ni38  1  0.50215641  0.16821537  0.83557905  1
  Ni  Ni39  1  0.50214404  0.50228954  0.50252288  1
  Ni  Ni40  1  0.33538823  0.33580390  0.66845833  1
  Fe  Fe41  1  0.50260616  0.50254919  0.83601502  1
  Ni  Ni42  1  0.50081976  0.83564262  0.50235437  1
  Ni  Ni43  1  0.33505911  0.66825702  0.66883345  1
  Ni  Ni44  1  0.50099869  0.83625021  0.83569351  1
  Ni  Ni45  1  0.83581135  0.16981172  0.50213954  1
  Ni  Ni46  1  0.66896803  0.00240247  0.66903000  1
  Ni  Ni47  1  0.83510775  0.16953740  0.83581007  1
  Ni  Ni48  1  0.83592777  0.50118794  0.50202923  1
  Fe  Fe49  1  0.66915372  0.33468497  0.66864566  1
  Ni  Ni50  1  0.83604904  0.50167481  0.83564435  1
  Fe  Fe51  1  0.83564573  0.83570531  0.50192768  1
  Fe  Fe52  1  0.66878829  0.66924780  0.66884536  1
  Ni  Ni53  1  0.83604160  0.83515082  0.83514656  1
" 