502,Ni85Fe15_12,-231.102088192548, 169.816558128614,Ni85Fe15,"# generated using pymatgen
 data_Fe5Ni
_symmetry_space_group_name_H-M   'P 1'
_cell_length_a   7.40603676
_cell_length_b   7.40603676
_cell_length_c   10.47371762
_cell_angle_alpha   90.00000000
_cell_angle_beta   90.00000000
_cell_angle_gamma   90.00000000
_symmetry_Int_Tables_number   1
_chemical_formula_structural   Fe5Ni
_chemical_formula_sum   'Fe45 Ni9'
_cell_volume   574.47692257
_cell_formula_units_Z   9
loop_
 _symmetry_equiv_pos_site_id
 _symmetry_equiv_pos_as_xyz
  1  'x, y, z'
loop_
 _atom_site_type_symbol
 _atom_site_label
 _atom_site_symmetry_multiplicity
 _atom_site_fract_x
 _atom_site_fract_y
 _atom_site_fract_z
 _atom_site_occupancy
  Fe  Fe0  1  0.00436935  0.00437242  1.00386378  1
  Fe  Fe1  1  0.17022519  0.17125924  0.17014389  1
  Fe  Fe2  1  1.00282409  1.00394819  0.33753945  1
  Fe  Fe3  1  0.00420173  0.33745522  1.00403087  1
  Fe  Fe4  1  0.17035806  0.50420509  0.17061713  1
  Fe  Fe5  1  1.00262217  0.33852709  0.33737213  1
  Fe  Fe6  1  1.00394313  0.67053056  0.00445716  1
  Fe  Fe7  1  0.17022514  0.83689283  0.17062247  1
  Fe  Fe8  1  1.00236313  0.66987989  0.33753540  1
  Fe  Fe9  1  0.33720588  0.00436960  1.00330830  1
  Fe  Fe10  1  0.50493771  0.17168623  0.17096039  1
  Fe  Fe11  1  0.33882767  1.00395276  0.33818538  1
  Fe  Fe12  1  0.33711578  0.33719992  1.00378050  1
  Fe  Fe13  1  0.50505771  0.50403345  0.17112041  1
  Fe  Fe14  1  0.33843726  0.33792757  0.33728885  1
  Fe  Fe15  1  0.33737280  0.67078732  0.00420511  1
  Fe  Fe16  1  0.50476516  0.83663812  0.17143315  1
  Fe  Fe17  1  0.33869918  0.67048316  0.33745439  1
  Fe  Fe18  1  0.67078451  1.00411263  0.00411916  1
  Fe  Fe19  1  0.83719389  0.17155569  0.17087426  1
  Fe  Fe20  1  0.67070013  1.00369166  0.33779037  1
  Fe  Fe21  1  0.67104165  0.33762377  0.00502061  1
  Ni  Ni22  1  0.83724823  0.50421374  0.17055060  1
  Ni  Ni23  1  0.67131077  0.33889290  0.33745332  1
  Fe  Fe24  1  0.67104217  0.67061989  0.00427961  1
  Fe  Fe25  1  0.83736617  0.83677088  0.17134652  1
  Ni  Ni26  1  0.67130496  0.66966688  0.33682738  1
  Fe  Fe27  1  0.17047457  0.16988624  0.50502171  1
  Fe  Fe28  1  0.00414096  1.00364271  0.67095571  1
  Ni  Ni29  1  0.17148305  0.17068433  0.83795342  1
  Fe  Fe30  1  0.17028165  0.50524294  0.50411901  1
  Fe  Fe31  1  0.00429052  0.33744866  0.67095712  1
  Fe  Fe32  1  0.17087005  0.50352581  0.83762100  1
  Fe  Fe33  1  0.17047603  0.83723236  0.50428507  1
  Fe  Fe34  1  1.00365871  0.67126327  0.67035875  1
  Fe  Fe35  1  0.17103659  0.83830156  0.83745402  1
  Fe  Fe36  1  0.50515580  0.17028073  0.50403716  1
  Ni  Ni37  1  0.33630925  0.00456367  0.67129205  1
  Fe  Fe38  1  0.50327653  0.17061722  0.83736499  1
  Fe  Fe39  1  0.50596790  0.50545971  0.50386549  1
  Fe  Fe40  1  0.33758840  0.33716539  0.67129364  1
  Fe  Fe41  1  0.50373540  0.50372929  0.83736758  1
  Ni  Ni42  1  0.50460551  0.83786880  0.50413490  1
  Fe  Fe43  1  0.33823119  0.67156178  0.67069628  1
  Fe  Fe44  1  0.50347727  0.83800859  0.83645692  1
  Fe  Fe45  1  0.83671793  0.17047933  0.50377719  1
  Fe  Fe46  1  0.67017840  1.00300072  0.67044271  1
  Fe  Fe47  1  0.83805019  0.17078694  0.83770675  1
  Ni  Ni48  1  0.83736565  0.50480325  0.50424892  1
  Fe  Fe49  1  0.67048275  0.33765308  0.67013513  1
  Fe  Fe50  1  0.83775617  0.50372476  0.83728030  1
  Ni  Ni51  1  0.83600458  0.83610129  0.50371571  1
  Ni  Ni52  1  0.67142552  0.67025606  0.67089994  1
  Fe  Fe53  1  0.83784151  0.83784053  0.83680364  1
" 