1065,Ni85Fe15_3,-230.633538405186, 173.437638156055,Ni85Fe15,"# generated using pymatgen
 data_Fe5Ni
_symmetry_space_group_name_H-M   'P 1'
_cell_length_a   7.39900812
_cell_length_b   7.39900812
_cell_length_c   10.46377763
_cell_angle_alpha   90.00000000
_cell_angle_beta   90.00000000
_cell_angle_gamma   90.00000000
_symmetry_Int_Tables_number   1
_chemical_formula_structural   Fe5Ni
_chemical_formula_sum   'Fe45 Ni9'
_cell_volume   572.84286697
_cell_formula_units_Z   9
loop_
 _symmetry_equiv_pos_site_id
 _symmetry_equiv_pos_as_xyz
  1  'x, y, z'
loop_
 _atom_site_type_symbol
 _atom_site_label
 _atom_site_symmetry_multiplicity
 _atom_site_fract_x
 _atom_site_fract_y
 _atom_site_fract_z
 _atom_site_occupancy
  Fe  Fe0  1  0.00524000  0.00532355  1.00429789  1
  Ni  Ni1  1  0.17163677  0.17154039  0.17154071  1
  Fe  Fe2  1  0.00504328  0.00488247  0.33793130  1
  Ni  Ni3  1  0.00544361  0.33783709  1.00450279  1
  Fe  Fe4  1  0.17118388  0.50362756  0.17082017  1
  Fe  Fe5  1  0.00501875  0.33706441  0.33742962  1
  Fe  Fe6  1  0.00509742  0.67076211  1.00415607  1
  Fe  Fe7  1  0.17156754  0.83860149  0.17122511  1
  Fe  Fe8  1  0.00517965  0.67184741  0.33793321  1
  Fe  Fe9  1  0.33698641  0.00562357  0.00518139  1
  Fe  Fe10  1  0.50362735  0.17118459  0.17176569  1
  Ni  Ni11  1  0.33793601  0.00498956  0.33793249  1
  Ni  Ni12  1  0.33671270  0.33746367  0.00497837  1
  Fe  Fe13  1  0.50395425  0.50403364  0.17096083  1
  Fe  Fe14  1  0.33801208  0.33712197  0.33742945  1
  Fe  Fe15  1  0.33720899  0.67037926  1.00437721  1
  Fe  Fe16  1  0.50395446  0.83857587  0.17164512  1
  Fe  Fe17  1  0.33785010  0.67178971  0.33793324  1
  Fe  Fe18  1  0.67156785  0.00545897  1.00437377  1
  Fe  Fe19  1  0.83868107  0.17156747  0.17154322  1
  Fe  Fe20  1  0.67081964  0.00504209  0.33837389  1
  Fe  Fe21  1  0.67118246  0.33792862  0.00467574  1
  Fe  Fe22  1  0.83865502  0.50395353  0.17112330  1
  Fe  Fe23  1  0.67076281  0.33698748  0.33853266  1
  Fe  Fe24  1  0.67148725  0.67040495  1.00395439  1
  Fe  Fe25  1  0.83827219  0.83827334  0.17075973  1
  Fe  Fe26  1  0.67076389  0.67176587  0.33827159  1
  Fe  Fe27  1  0.17148758  0.17112247  0.50379507  1
  Fe  Fe28  1  1.00379594  1.00371668  0.67156665  1
  Fe  Fe29  1  0.17076511  0.17076199  0.83903509  1
  Fe  Fe30  1  0.17118458  0.50351337  0.50459822  1
  Fe  Fe31  1  1.00379513  0.33828669  0.67138421  1
  Fe  Fe32  1  0.17076429  0.50509296  0.83837595  1
  Fe  Fe33  1  0.17156728  0.83915842  0.50479770  1
  Fe  Fe34  1  1.00423557  0.67178908  0.67170658  1
  Ni  Ni35  1  0.17051694  0.83737650  0.83867680  1
  Ni  Ni36  1  0.50524517  0.17171505  0.50394852  1
  Fe  Fe37  1  0.33843112  1.00401884  0.67068190  1
  Fe  Fe38  1  0.50429278  0.17040500  0.83765262  1
  Fe  Fe39  1  0.50539927  0.50387610  0.50489988  1
  Fe  Fe40  1  0.33881494  0.33836622  0.67154588  1
  Fe  Fe41  1  0.50459694  0.50575729  0.83793305  1
  Fe  Fe42  1  0.50509751  0.83888123  0.50443637  1
  Fe  Fe43  1  0.33807253  0.67140790  0.67148571  1
  Fe  Fe44  1  0.50490188  0.83763097  0.83771078  1
  Ni  Ni45  1  0.83690758  0.17134265  0.50432165  1
  Fe  Fe46  1  0.67156627  1.00445803  0.67104304  1
  Fe  Fe47  1  0.83873499  0.17046169  0.83765142  1
  Fe  Fe48  1  0.83720994  0.50379539  0.50473733  1
  Fe  Fe49  1  0.67118339  0.33793057  0.67058234  1
  Fe  Fe50  1  0.83843185  0.50570043  0.83793125  1
  Fe  Fe51  1  0.83712953  0.83857586  0.50532084  1
  Ni  Ni52  1  0.67163888  0.67173512  0.67098928  1
  Ni  Ni53  1  0.83867304  0.83737833  0.83782839  1
" 