3051,Ni85Fe14Cr0_4,-241.444583262935, 197.061853344895,Ni85Fe14Cr0,"# generated using pymatgen
 data_CrFe7Ni46
_symmetry_space_group_name_H-M   'P 1'
_cell_length_a   7.43413821
_cell_length_b   7.43413821
_cell_length_c   10.51345908
_cell_angle_alpha   90.00000000
_cell_angle_beta   90.00000000
_cell_angle_gamma   90.00000000
_symmetry_Int_Tables_number   1
_chemical_formula_structural   CrFe7Ni46
_chemical_formula_sum   'Cr1 Fe7 Ni46'
_cell_volume   581.04114995
_cell_formula_units_Z   1
loop_
 _symmetry_equiv_pos_site_id
 _symmetry_equiv_pos_as_xyz
  1  'x, y, z'
loop_
 _atom_site_type_symbol
 _atom_site_label
 _atom_site_symmetry_multiplicity
 _atom_site_fract_x
 _atom_site_fract_y
 _atom_site_fract_z
 _atom_site_occupancy
  Fe  Fe0  1  1.00195618  0.00241947  1.00213128  1
  Ni  Ni1  1  0.16824193  0.16742030  0.16873039  1
  Ni  Ni2  1  0.00252625  0.00297678  0.33494978  1
  Ni  Ni3  1  1.00194313  0.33470251  1.00120212  1
  Cr  Cr4  1  0.16928553  0.50231140  0.16972740  1
  Ni  Ni5  1  1.00161564  0.33361515  0.33627663  1
  Ni  Ni6  1  1.00199443  0.66958421  1.00167192  1
  Ni  Ni7  1  0.16942193  0.83663806  0.16868689  1
  Fe  Fe8  1  1.00150917  0.67016930  0.33671798  1
  Fe  Fe9  1  0.33607172  1.00215711  0.00229162  1
  Ni  Ni10  1  0.50312450  0.16907416  0.16932229  1
  Ni  Ni11  1  0.33490932  1.00179776  0.33484409  1
  Ni  Ni12  1  0.33562067  0.33498839  1.00163843  1
  Ni  Ni13  1  0.50393610  0.50262941  0.16835549  1
  Ni  Ni14  1  0.33582629  0.33480457  0.33617080  1
  Ni  Ni15  1  0.33590516  0.66963325  1.00129208  1
  Ni  Ni16  1  0.50198703  0.83493620  0.16926029  1
  Ni  Ni17  1  0.33695200  0.67003701  0.33623217  1
  Ni  Ni18  1  0.66902453  1.00207246  0.00235967  1
  Ni  Ni19  1  0.83527240  0.16937237  0.16897389  1
  Ni  Ni20  1  0.66920234  1.00185001  0.33579451  1
  Ni  Ni21  1  0.66907407  0.33493687  0.00267544  1
  Fe  Fe22  1  0.83343479  0.50142625  0.16855356  1
  Ni  Ni23  1  0.66919638  0.33566674  0.33488603  1
  Ni  Ni24  1  0.66873417  0.66963321  0.00234218  1
  Fe  Fe25  1  0.83471662  0.83644258  0.16882408  1
  Ni  Ni26  1  0.66801396  0.66912691  0.33493036  1
  Ni  Ni27  1  0.16868549  0.16869482  0.50174921  1
  Ni  Ni28  1  1.00212302  0.00225600  0.66940894  1
  Ni  Ni29  1  0.16886579  0.16975089  0.83615541  1
  Fe  Fe30  1  0.16914441  0.50194927  0.50278214  1
  Ni  Ni31  1  0.00235235  0.33517390  0.66916849  1
  Ni  Ni32  1  0.16800640  0.50245841  0.83504348  1
  Ni  Ni33  1  0.16902400  0.83558313  0.50208084  1
  Ni  Ni34  1  0.00234340  0.66920936  0.66865440  1
  Ni  Ni35  1  0.16914308  0.83443134  0.83586892  1
  Ni  Ni36  1  0.50217941  0.16933412  0.50162310  1
  Ni  Ni37  1  0.33535125  1.00197916  0.66906013  1
  Ni  Ni38  1  0.50250622  0.16863090  0.83569209  1
  Ni  Ni39  1  0.50281790  0.50240795  0.50226346  1
  Ni  Ni40  1  0.33506830  0.33539412  0.66883506  1
  Fe  Fe41  1  0.50208547  0.50220657  0.83568174  1
  Ni  Ni42  1  0.50189090  0.83489885  0.50197228  1
  Ni  Ni43  1  0.33535592  0.66926477  0.66912170  1
  Ni  Ni44  1  0.50221795  0.83555713  0.83540533  1
  Ni  Ni45  1  0.83577562  0.16962187  0.50254576  1
  Ni  Ni46  1  0.66916577  1.00196800  0.66848587  1
  Ni  Ni47  1  0.83526969  0.16976547  0.83512028  1
  Ni  Ni48  1  0.83509016  0.50206891  0.50156844  1
  Ni  Ni49  1  0.66921986  0.33517770  0.66907331  1
  Ni  Ni50  1  0.83639835  0.50217129  0.83624870  1
  Ni  Ni51  1  0.83572426  0.83494985  0.50207744  1
  Ni  Ni52  1  0.66894148  0.66949372  0.66936204  1
  Ni  Ni53  1  0.83528078  0.83470348  0.83563349  1
" 