4316,Ni85Fe14Cr0_12,-241.374597944137, 197.241201963172,Ni85Fe14Cr0,"# generated using pymatgen
 data_CrFe7Ni46
_symmetry_space_group_name_H-M   'P 1'
_cell_length_a   7.43828286
_cell_length_b   7.43828286
_cell_length_c   10.51932050
_cell_angle_alpha   90.00000000
_cell_angle_beta   90.00000000
_cell_angle_gamma   90.00000000
_symmetry_Int_Tables_number   1
_chemical_formula_structural   CrFe7Ni46
_chemical_formula_sum   'Cr1 Fe7 Ni46'
_cell_volume   582.01351073
_cell_formula_units_Z   1
loop_
 _symmetry_equiv_pos_site_id
 _symmetry_equiv_pos_as_xyz
  1  'x, y, z'
loop_
 _atom_site_type_symbol
 _atom_site_label
 _atom_site_symmetry_multiplicity
 _atom_site_fract_x
 _atom_site_fract_y
 _atom_site_fract_z
 _atom_site_occupancy
  Ni  Ni0  1  0.00260788  0.00218569  1.00160564  1
  Ni  Ni1  1  0.16828044  0.16815063  0.16866345  1
  Ni  Ni2  1  0.00232342  0.00254667  0.33590937  1
  Ni  Ni3  1  1.00183849  0.33548025  1.00168896  1
  Fe  Fe4  1  0.16765527  0.50233538  0.16956109  1
  Ni  Ni5  1  0.00195683  0.33474856  0.33553097  1
  Ni  Ni6  1  0.00389770  0.66808852  0.00198867  1
  Ni  Ni7  1  0.16861164  0.83667815  0.16963252  1
  Ni  Ni8  1  0.00202178  0.66851235  0.33581225  1
  Ni  Ni9  1  0.33478573  1.00186069  0.00202399  1
  Fe  Fe10  1  0.50246610  0.16768294  0.16865807  1
  Ni  Ni11  1  0.33546273  0.00195614  0.33566459  1
  Ni  Ni12  1  0.33469664  0.33545439  1.00162860  1
  Ni  Ni13  1  0.50074083  0.50129395  0.16980725  1
  Ni  Ni14  1  0.33500055  0.33483973  0.33564151  1
  Ni  Ni15  1  0.33315858  0.66852568  1.00159818  1
  Ni  Ni16  1  0.50059962  0.83400194  0.16864310  1
  Ni  Ni17  1  0.33540526  0.66897786  0.33522963  1
  Ni  Ni18  1  0.66862949  0.00400132  1.00157034  1
  Ni  Ni19  1  0.83728661  0.16861677  0.16803846  1
  Ni  Ni20  1  0.66836568  1.00190288  0.33494154  1
  Ni  Ni21  1  0.66891165  0.33420735  0.00216359  1
  Ni  Ni22  1  0.83447469  0.50099394  0.17030022  1
  Ni  Ni23  1  0.66875545  0.33481934  0.33528219  1
  Cr  Cr24  1  0.66907409  0.66871085  1.00121041  1
  Ni  Ni25  1  0.83660368  0.83628027  0.16907896  1
  Ni  Ni26  1  0.66826596  0.66866807  0.33605948  1
  Ni  Ni27  1  0.16811868  0.16960980  0.50230438  1
  Ni  Ni28  1  0.00239100  0.00263857  0.66841736  1
  Ni  Ni29  1  0.16877590  0.16728143  0.83473899  1
  Ni  Ni30  1  0.16983334  0.50156890  0.50193354  1
  Ni  Ni31  1  1.00118169  0.33477395  0.66863929  1
  Fe  Fe32  1  0.16729889  0.50119665  0.83449615  1
  Fe  Fe33  1  0.16948503  0.83567282  0.50208943  1
  Ni  Ni34  1  0.00226706  0.66812162  0.66823200  1
  Ni  Ni35  1  0.16796314  0.83591356  0.83473247  1
  Ni  Ni36  1  0.50177261  0.16909646  0.50106367  1
  Ni  Ni37  1  0.33550308  1.00192525  0.66816062  1
  Ni  Ni38  1  0.50113694  0.17084858  0.83578302  1
  Ni  Ni39  1  0.50073802  0.50254405  0.50189021  1
  Fe  Fe40  1  0.33544755  0.33454630  0.66797608  1
  Ni  Ni41  1  0.50083165  0.50085120  0.83391300  1
  Ni  Ni42  1  0.50312540  0.83420442  0.50256458  1
  Ni  Ni43  1  0.33521445  0.66934369  0.66918828  1
  Fe  Fe44  1  0.50170684  0.83741148  0.83438801  1
  Ni  Ni45  1  0.83588517  0.16704988  0.50220803  1
  Ni  Ni46  1  0.66814580  0.00299812  0.66919849  1
  Ni  Ni47  1  0.83587315  0.16848139  0.83554374  1
  Fe  Fe48  1  0.83481397  0.50094807  0.50198166  1
  Ni  Ni49  1  0.66911683  0.33465565  0.66833613  1
  Ni  Ni50  1  0.83442675  0.50144883  0.83370471  1
  Ni  Ni51  1  0.83511631  0.83551884  0.50185288  1
  Ni  Ni52  1  0.66829920  0.66824171  0.66836782  1
  Ni  Ni53  1  0.83806710  0.83600079  0.83477477  1
" 