2976,Ni85Fe9Cr4_16,-238.414622242469, 182.213027117722,Ni85Fe9Cr4,"# generated using pymatgen
 data_Cr2Fe2Ni23
_symmetry_space_group_name_H-M   'P 1'
_cell_length_a   7.45024520
_cell_length_b   7.45024520
_cell_length_c   10.53623780
_cell_angle_alpha   90.00000000
_cell_angle_beta   90.00000000
_cell_angle_gamma   90.00000000
_symmetry_Int_Tables_number   1
_chemical_formula_structural   Cr2Fe2Ni23
_chemical_formula_sum   'Cr4 Fe4 Ni46'
_cell_volume   584.82603249
_cell_formula_units_Z   2
loop_
 _symmetry_equiv_pos_site_id
 _symmetry_equiv_pos_as_xyz
  1  'x, y, z'
loop_
 _atom_site_type_symbol
 _atom_site_label
 _atom_site_symmetry_multiplicity
 _atom_site_fract_x
 _atom_site_fract_y
 _atom_site_fract_z
 _atom_site_occupancy
  Ni  Ni0  1  0.00216128  0.99887976  0.00215860  1
  Ni  Ni1  1  0.16847160  0.16662699  0.16870404  1
  Ni  Ni2  1  0.00161791  1.00090568  0.33397308  1
  Cr  Cr3  1  0.00253588  0.33514471  1.00102780  1
  Ni  Ni4  1  0.16670391  0.50250683  0.16905066  1
  Ni  Ni5  1  0.00122904  0.33464715  0.33493990  1
  Ni  Ni6  1  0.00138276  0.66932616  1.00079249  1
  Ni  Ni7  1  0.16903465  0.83418549  0.16803966  1
  Ni  Ni8  1  0.00115072  0.66793315  0.33421951  1
  Ni  Ni9  1  0.33448738  1.00076648  1.00076105  1
  Ni  Ni10  1  0.50167883  0.16611004  0.16753125  1
  Ni  Ni11  1  0.33464088  1.00087888  0.33444314  1
  Ni  Ni12  1  0.33473868  0.33339852  0.00177339  1
  Fe  Fe13  1  0.49981174  0.50087730  0.16831954  1
  Ni  Ni14  1  0.33426086  0.33410398  0.33450525  1
  Ni  Ni15  1  0.33344515  0.66897637  0.00187999  1
  Ni  Ni16  1  0.50078330  0.83500831  0.16797540  1
  Ni  Ni17  1  0.33431841  0.66826158  0.33476947  1
  Ni  Ni18  1  0.66684212  1.00008368  0.00151021  1
  Ni  Ni19  1  0.83333561  0.16821125  0.16935880  1
  Ni  Ni20  1  0.66746982  1.00077352  0.33485506  1
  Ni  Ni21  1  0.66638733  0.33440384  0.00305713  1
  Ni  Ni22  1  0.83386886  0.50166835  0.16805103  1
  Ni  Ni23  1  0.66768942  0.33446807  0.33408258  1
  Ni  Ni24  1  0.66848855  0.66906485  0.00184655  1
  Fe  Fe25  1  0.83508098  0.83532833  0.16757734  1
  Ni  Ni26  1  0.66788549  0.66812053  0.33443068  1
  Ni  Ni27  1  0.16796656  0.16709994  0.50082114  1
  Ni  Ni28  1  0.00238386  0.99995981  0.66733664  1
  Ni  Ni29  1  0.16985622  0.16644260  0.83371310  1
  Ni  Ni30  1  0.16673954  0.50154346  0.50111098  1
  Ni  Ni31  1  0.00361723  0.33527443  0.66697867  1
  Ni  Ni32  1  0.16689645  0.50244292  0.83311270  1
  Ni  Ni33  1  0.16830395  0.83472562  0.50071772  1
  Ni  Ni34  1  0.00133377  0.66806800  0.66845200  1
  Ni  Ni35  1  0.16792508  0.83443973  0.83464618  1
  Ni  Ni36  1  0.50023311  0.16614872  0.50039487  1
  Ni  Ni37  1  0.33442172  1.00092300  0.66812512  1
  Ni  Ni38  1  0.49910111  0.16496728  0.83545269  1
  Ni  Ni39  1  0.50123447  0.50228389  0.49913595  1
  Ni  Ni40  1  0.33229490  0.33360214  0.66704924  1
  Cr  Cr41  1  0.50054300  0.50245463  0.83586121  1
  Ni  Ni42  1  0.50090986  0.83484034  0.50144548  1
  Ni  Ni43  1  0.33372029  0.66878459  0.66662700  1
  Ni  Ni44  1  0.50109215  0.83588399  0.83397088  1
  Fe  Fe45  1  0.83547913  0.16713590  0.49987576  1
  Ni  Ni46  1  0.66676443  0.99854181  0.66721702  1
  Cr  Cr47  1  0.83421424  0.16648227  0.83424480  1
  Ni  Ni48  1  0.83544066  0.50201693  0.50078171  1
  Cr  Cr49  1  0.66701527  0.33470606  0.66642437  1
  Ni  Ni50  1  0.83584536  0.50433506  0.83443989  1
  Fe  Fe51  1  0.83515806  0.83395119  0.50141279  1
  Ni  Ni52  1  0.66850770  0.67013798  0.66713823  1
  Ni  Ni53  1  0.83439340  0.83304056  0.83477290  1
" 