6342,Ni85Fe9Cr4_1,-238.328998012318, 183.438957194256,Ni85Fe9Cr4,"# generated using pymatgen
 data_Cr2Fe2Ni23
_symmetry_space_group_name_H-M   'P 1'
_cell_length_a   7.44698102
_cell_length_b   7.44698102
_cell_length_c   10.53162156
_cell_angle_alpha   90.00000000
_cell_angle_beta   90.00000000
_cell_angle_gamma   90.00000000
_symmetry_Int_Tables_number   1
_chemical_formula_structural   Cr2Fe2Ni23
_chemical_formula_sum   'Cr4 Fe4 Ni46'
_cell_volume   584.05768032
_cell_formula_units_Z   2
loop_
 _symmetry_equiv_pos_site_id
 _symmetry_equiv_pos_as_xyz
  1  'x, y, z'
loop_
 _atom_site_type_symbol
 _atom_site_label
 _atom_site_symmetry_multiplicity
 _atom_site_fract_x
 _atom_site_fract_y
 _atom_site_fract_z
 _atom_site_occupancy
  Ni  Ni0  1  1.00134705  1.00120232  1.00088578  1
  Ni  Ni1  1  0.16822575  0.16859509  0.16770409  1
  Ni  Ni2  1  1.00051566  1.00054679  0.33395607  1
  Ni  Ni3  1  0.00179276  0.33456774  1.00094482  1
  Ni  Ni4  1  0.16795367  0.50057935  0.16809672  1
  Ni  Ni5  1  1.00103526  0.33532228  0.33395685  1
  Ni  Ni6  1  1.00046836  0.66827450  1.00131956  1
  Fe  Fe7  1  0.16773882  0.83490179  0.16834909  1
  Ni  Ni8  1  0.00334235  0.66817256  0.33531309  1
  Ni  Ni9  1  0.33426726  1.00122124  0.00145689  1
  Ni  Ni10  1  0.50071817  0.16778888  0.16843974  1
  Ni  Ni11  1  0.33569486  1.00079127  0.33468177  1
  Ni  Ni12  1  0.33407931  0.33479588  0.00223707  1
  Ni  Ni13  1  0.50020213  0.50060327  0.16713944  1
  Ni  Ni14  1  0.33542881  0.33532607  0.33396060  1
  Fe  Fe15  1  0.33529563  0.66804714  1.00130630  1
  Ni  Ni16  1  0.50099308  0.83564858  0.16688925  1
  Ni  Ni17  1  0.33288477  0.66792144  0.33458483  1
  Ni  Ni18  1  0.66842518  0.99990324  0.00250818  1
  Ni  Ni19  1  0.83509825  0.16780277  0.16801715  1
  Ni  Ni20  1  0.66782870  0.00308783  0.33457230  1
  Ni  Ni21  1  0.66817553  0.33567644  0.00198444  1
  Ni  Ni22  1  0.83588336  0.50085716  0.16727507  1
  Ni  Ni23  1  0.66757703  0.33250276  0.33514829  1
  Ni  Ni24  1  0.66818874  0.66846435  1.00051209  1
  Ni  Ni25  1  0.83507473  0.83538045  0.16702409  1
  Cr  Cr26  1  0.66806568  0.66815429  0.33547433  1
  Cr  Cr27  1  0.16803081  0.16798980  0.50158770  1
  Ni  Ni28  1  0.00177729  1.00050363  0.66919660  1
  Ni  Ni29  1  0.16619491  0.16727515  0.83459589  1
  Ni  Ni30  1  0.16803531  0.50320740  0.50159560  1
  Ni  Ni31  1  1.00117688  0.33511700  0.66913948  1
  Fe  Fe32  1  0.16749771  0.50138453  0.83436624  1
  Ni  Ni33  1  0.16797418  0.83296272  0.50083725  1
  Ni  Ni34  1  0.00179037  0.66842434  0.66740566  1
  Ni  Ni35  1  0.16769516  0.83565301  0.83463691  1
  Ni  Ni36  1  0.50212851  0.16892023  0.50007945  1
  Fe  Fe37  1  0.33288612  0.99954048  0.66812155  1
  Cr  Cr38  1  0.50028828  0.16911806  0.83541857  1
  Ni  Ni39  1  0.50073605  0.50065460  0.50234959  1
  Ni  Ni40  1  0.33468916  0.33697810  0.66784184  1
  Ni  Ni41  1  0.50207626  0.50312737  0.83455347  1
  Ni  Ni42  1  0.49974599  0.83446709  0.50175543  1
  Ni  Ni43  1  0.33486964  0.66736214  0.66812225  1
  Ni  Ni44  1  0.50027702  0.83177350  0.83540534  1
  Ni  Ni45  1  0.83376052  0.16885775  0.50050775  1
  Cr  Cr46  1  0.66935561  1.00035826  0.66696303  1
  Ni  Ni47  1  0.83807151  0.16907148  0.83551671  1
  Ni  Ni48  1  0.83527160  0.50083142  0.50220762  1
  Ni  Ni49  1  0.66817334  0.33695101  0.66690821  1
  Ni  Ni50  1  0.83420116  0.50162477  0.83456254  1
  Ni  Ni51  1  0.83631282  0.83435222  0.50161562  1
  Ni  Ni52  1  0.66737786  0.66676723  0.66832008  1
  Ni  Ni53  1  0.83605908  0.83334524  0.83540572  1
" 