8063,Ni85Cr15_8,-205.654464787397, 168.63819114165,Ni85Cr15,"# generated using pymatgen
 data_Cr5Ni
_symmetry_space_group_name_H-M   'P 1'
_cell_length_a   7.58693882
_cell_length_b   7.58693882
_cell_length_c   10.72955178
_cell_angle_alpha   90.00000000
_cell_angle_beta   90.00000000
_cell_angle_gamma   90.00000000
_symmetry_Int_Tables_number   1
_chemical_formula_structural   Cr5Ni
_chemical_formula_sum   'Cr45 Ni9'
_cell_volume   617.61060479
_cell_formula_units_Z   9
loop_
 _symmetry_equiv_pos_site_id
 _symmetry_equiv_pos_as_xyz
  1  'x, y, z'
loop_
 _atom_site_type_symbol
 _atom_site_label
 _atom_site_symmetry_multiplicity
 _atom_site_fract_x
 _atom_site_fract_y
 _atom_site_fract_z
 _atom_site_occupancy
  Cr  Cr0  1  -0.00548701  0.99118032  0.99122549  1
  Cr  Cr1  1  0.15834006  0.15754818  0.16095584  1
  Ni  Ni2  1  -0.00786171  0.99154785  0.32558945  1
  Cr  Cr3  1  -0.00777618  0.32468289  0.99082358  1
  Cr  Cr4  1  0.15725819  0.49353951  0.15861315  1
  Cr  Cr5  1  0.99056905  0.32316076  0.32722062  1
  Ni  Ni6  1  -0.00506903  0.66189538  0.99202129  1
  Ni  Ni7  1  0.15820129  0.82579128  0.15837466  1
  Cr  Cr8  1  -0.00724340  0.65997968  0.32327717  1
  Cr  Cr9  1  0.32375839  0.99032758  0.99177377  1
  Cr  Cr10  1  0.49250543  0.15842669  0.15647373  1
  Cr  Cr11  1  0.32470505  0.98967803  0.32164682  1
  Cr  Cr12  1  0.32408694  0.32415132  0.99119022  1
  Cr  Cr13  1  0.49237346  0.49060669  0.15773034  1
  Cr  Cr14  1  0.32613467  0.32708798  0.32663893  1
  Cr  Cr15  1  0.32394756  0.66177205  -0.00634611  1
  Ni  Ni16  1  0.48977996  0.82513862  0.15883268  1
  Cr  Cr17  1  0.32703749  0.65933033  0.32429453  1
  Cr  Cr18  1  0.65805057  0.99155456  -0.00684509  1
  Cr  Cr19  1  0.82513937  0.15862347  0.15948460  1
  Cr  Cr20  1  0.66009812  0.99163411  0.32527638  1
  Ni  Ni21  1  0.65901562  0.32567992  0.99200811  1
  Cr  Cr22  1  0.82638220  0.49233300  0.15447109  1
  Cr  Cr23  1  0.65965711  0.32617087  0.32693615  1
  Cr  Cr24  1  0.65840845  0.65975892  -0.00649803  1
  Cr  Cr25  1  0.82746146  0.82538136  0.15909886  1
  Cr  Cr26  1  0.65667782  0.65863241  0.32603548  1
  Cr  Cr27  1  0.15819806  0.15692971  0.49056712  1
  Cr  Cr28  1  -0.00739992  -0.00619204  0.65985961  1
  Ni  Ni29  1  0.15827168  0.15643931  0.82533512  1
  Cr  Cr30  1  0.16023321  0.49287059  0.49153721  1
  Cr  Cr31  1  0.99180620  0.32321605  0.65851713  1
  Cr  Cr32  1  0.15800275  0.49324681  0.82618063  1
  Cr  Cr33  1  0.15784351  0.82619413  0.49125237  1
  Cr  Cr34  1  -0.00698580  0.65937682  0.66132260  1
  Ni  Ni35  1  0.15755645  0.82629765  0.82723757  1
  Cr  Cr36  1  0.49160179  0.15833799  0.49246565  1
  Cr  Cr37  1  0.32297080  0.99186248  0.66310754  1
  Cr  Cr38  1  0.49138975  0.15947029  0.82728262  1
  Ni  Ni39  1  0.49248433  0.49160512  0.49219842  1
  Cr  Cr40  1  0.32427159  0.32541996  0.65846037  1
  Cr  Cr41  1  0.49280636  0.49101962  0.82549567  1
  Cr  Cr42  1  0.49140193  0.82577732  0.49285400  1
  Cr  Cr43  1  0.32562235  0.65891546  0.65806224  1
  Cr  Cr44  1  0.49203465  0.82574194  0.82429983  1
  Ni  Ni45  1  0.82659531  0.15747036  0.49048594  1
  Cr  Cr46  1  0.66051233  -0.00703343  0.65785790  1
  Cr  Cr47  1  0.82386967  0.15902139  0.82646595  1
  Cr  Cr48  1  0.82650620  0.49318412  0.49240584  1
  Cr  Cr49  1  0.66012876  0.32573408  0.65677657  1
  Cr  Cr50  1  0.82541507  0.49343559  0.82933427  1
  Cr  Cr51  1  0.82724798  0.82772142  0.49196709  1
  Cr  Cr52  1  0.65802681  0.65780971  0.65643598  1
  Cr  Cr53  1  0.82677464  0.82385121  0.82526849  1
" 