8649,Ni85Fe5Cr9_5,-236.421715334121, 174.507892983427,Ni85Fe5Cr9,"# generated using pymatgen
 data_Cr2FeNi15
_symmetry_space_group_name_H-M   'P 1'
_cell_length_a   7.45855335
_cell_length_b   7.45855335
_cell_length_c   10.54798731
_cell_angle_alpha   90.00000000
_cell_angle_beta   90.00000000
_cell_angle_gamma   90.00000000
_symmetry_Int_Tables_number   1
_chemical_formula_structural   Cr2FeNi15
_chemical_formula_sum   'Cr6 Fe3 Ni45'
_cell_volume   586.78472540
_cell_formula_units_Z   3
loop_
 _symmetry_equiv_pos_site_id
 _symmetry_equiv_pos_as_xyz
  1  'x, y, z'
loop_
 _atom_site_type_symbol
 _atom_site_label
 _atom_site_symmetry_multiplicity
 _atom_site_fract_x
 _atom_site_fract_y
 _atom_site_fract_z
 _atom_site_occupancy
  Ni  Ni0  1  0.00072424  0.00112153  1.00046692  1
  Ni  Ni1  1  0.16759012  0.16866302  0.16636960  1
  Cr  Cr2  1  0.00214721  0.00099123  0.33279860  1
  Ni  Ni3  1  0.00121499  0.33294193  0.00070484  1
  Ni  Ni4  1  0.16759551  0.50093827  0.16715635  1
  Ni  Ni5  1  0.00183708  0.33568174  0.33297001  1
  Fe  Fe6  1  0.00108169  0.66704156  0.99979658  1
  Ni  Ni7  1  0.16625916  0.83181015  0.16594540  1
  Fe  Fe8  1  0.00137988  0.66623482  0.33411837  1
  Ni  Ni9  1  0.33163721  0.00124409  1.00024017  1
  Ni  Ni10  1  0.50113330  0.16934127  0.16751494  1
  Ni  Ni11  1  0.33326697  0.00089774  0.33436929  1
  Ni  Ni12  1  0.33284125  0.33482770  0.00133107  1
  Ni  Ni13  1  0.49959707  0.49951048  0.16698568  1
  Ni  Ni14  1  0.33278684  0.33494781  0.33308872  1
  Ni  Ni15  1  0.33361371  0.66567197  0.99904614  1
  Cr  Cr16  1  0.49988853  0.83355424  0.16671817  1
  Ni  Ni17  1  0.33380565  0.66578024  0.33508676  1
  Ni  Ni18  1  0.66920275  1.00055617  1.00019425  1
  Ni  Ni19  1  0.83302342  0.16767902  0.16602686  1
  Ni  Ni20  1  0.66712983  0.99960366  0.33344984  1
  Ni  Ni21  1  0.66763583  0.33489241  1.00028251  1
  Fe  Fe22  1  0.83366844  0.49970361  0.16688233  1
  Ni  Ni23  1  0.66695703  0.33593119  0.33297151  1
  Ni  Ni24  1  0.66766551  0.66634225  0.99952034  1
  Ni  Ni25  1  0.83466745  0.83299533  0.16624846  1
  Ni  Ni26  1  0.66758538  0.66617273  0.33456240  1
  Ni  Ni27  1  0.16869037  0.16787531  0.50076524  1
  Ni  Ni28  1  0.00319667  0.99944938  0.66849091  1
  Ni  Ni29  1  0.16613084  0.16688580  0.83460801  1
  Ni  Ni30  1  0.16645158  0.50146171  0.50007904  1
  Ni  Ni31  1  0.00098337  0.33520618  0.66817851  1
  Ni  Ni32  1  0.16631881  0.50150220  0.83445238  1
  Ni  Ni33  1  0.16842873  0.83237858  0.50161785  1
  Ni  Ni34  1  0.00136162  0.66702766  0.66699408  1
  Ni  Ni35  1  0.16749249  0.83342671  0.83393592  1
  Ni  Ni36  1  0.49933420  0.16760009  0.49760171  1
  Ni  Ni37  1  0.33156499  0.99917206  0.66691445  1
  Ni  Ni38  1  0.50075326  0.16739464  0.83665119  1
  Ni  Ni39  1  0.50027296  0.50051397  0.49880476  1
  Cr  Cr40  1  0.33474341  0.33482510  0.66776814  1
  Ni  Ni41  1  0.50020103  0.50058606  0.83615544  1
  Ni  Ni42  1  0.49847891  0.83355484  0.49847823  1
  Ni  Ni43  1  0.33220816  0.66842563  0.66750092  1
  Ni  Ni44  1  0.49835714  0.83388969  0.83613480  1
  Cr  Cr45  1  0.83421417  0.16954300  0.50237877  1
  Cr  Cr46  1  0.66568067  0.99997652  0.66834941  1
  Ni  Ni47  1  0.83491477  0.16844897  0.83435990  1
  Ni  Ni48  1  0.83514500  0.50108710  0.49930506  1
  Ni  Ni49  1  0.66813978  0.33570891  0.66848233  1
  Ni  Ni50  1  0.83524546  0.49927303  0.83484035  1
  Ni  Ni51  1  0.83499042  0.83144838  0.49967882  1
  Cr  Cr52  1  0.66558066  0.66519719  0.66775014  1
  Ni  Ni53  1  0.83593369  0.83381436  0.83562679  1
" 