5061,Ni85Fe14Cr0_19,-241.584187028883, 196.590647955472,Ni85Fe14Cr0,"# generated using pymatgen
 data_CrFe7Ni46
_symmetry_space_group_name_H-M   'P 1'
_cell_length_a   7.43962073
_cell_length_b   7.43962073
_cell_length_c   10.52121254
_cell_angle_alpha   90.00000000
_cell_angle_beta   90.00000000
_cell_angle_gamma   90.00000000
_symmetry_Int_Tables_number   1
_chemical_formula_structural   CrFe7Ni46
_chemical_formula_sum   'Cr1 Fe7 Ni46'
_cell_volume   582.32761599
_cell_formula_units_Z   1
loop_
 _symmetry_equiv_pos_site_id
 _symmetry_equiv_pos_as_xyz
  1  'x, y, z'
loop_
 _atom_site_type_symbol
 _atom_site_label
 _atom_site_symmetry_multiplicity
 _atom_site_fract_x
 _atom_site_fract_y
 _atom_site_fract_z
 _atom_site_occupancy
  Fe  Fe0  1  0.00208657  0.00247232  1.00160175  1
  Ni  Ni1  1  0.16949046  0.16862931  0.16868983  1
  Ni  Ni2  1  0.00271469  0.99973739  0.33315866  1
  Fe  Fe3  1  0.00191552  0.33477330  0.00190101  1
  Ni  Ni4  1  0.16863172  0.50193264  0.16847859  1
  Ni  Ni5  1  0.00306455  0.33686014  0.33349995  1
  Ni  Ni6  1  0.00211726  0.66892756  1.00171496  1
  Ni  Ni7  1  0.16923094  0.83507018  0.16809549  1
  Ni  Ni8  1  0.00217034  0.66893614  0.33589382  1
  Ni  Ni9  1  0.33633638  0.00264142  1.00096031  1
  Ni  Ni10  1  0.50145547  0.16828686  0.16924102  1
  Ni  Ni11  1  0.33534187  1.00172111  0.33588394  1
  Ni  Ni12  1  0.33617164  0.33449591  1.00166171  1
  Ni  Ni13  1  0.50172971  0.50167483  0.16803250  1
  Ni  Ni14  1  0.33568693  0.33555054  0.33511655  1
  Fe  Fe15  1  0.33562720  0.66888040  0.00199933  1
  Ni  Ni16  1  0.50144161  0.83562299  0.16884416  1
  Ni  Ni17  1  0.33462826  0.66827666  0.33374196  1
  Ni  Ni18  1  0.66790601  0.00265763  0.00212040  1
  Ni  Ni19  1  0.83461682  0.16892089  0.16816844  1
  Ni  Ni20  1  0.66747724  1.00089479  0.33363685  1
  Ni  Ni21  1  0.66744216  0.33391194  1.00158249  1
  Ni  Ni22  1  0.83521151  0.50178944  0.16904533  1
  Ni  Ni23  1  0.66679436  0.33605417  0.33397535  1
  Fe  Fe24  1  0.66854721  0.66871577  0.00283468  1
  Ni  Ni25  1  0.83495089  0.83486146  0.16854152  1
  Ni  Ni26  1  0.66875044  0.66860727  0.33509113  1
  Ni  Ni27  1  0.16975789  0.16895154  0.50237074  1
  Ni  Ni28  1  1.00124283  0.99958011  0.67094544  1
  Ni  Ni29  1  0.16929023  0.16930993  0.83466854  1
  Ni  Ni30  1  0.16875074  0.50181598  0.50153121  1
  Ni  Ni31  1  0.00287755  0.33684110  0.67049254  1
  Ni  Ni32  1  0.16787011  0.50193455  0.83560558  1
  Ni  Ni33  1  0.16907414  0.83484884  0.50202749  1
  Ni  Ni34  1  0.00322599  0.66908192  0.66789429  1
  Ni  Ni35  1  0.16923493  0.83447379  0.83542605  1
  Ni  Ni36  1  0.50038420  0.16843440  0.50169095  1
  Fe  Fe37  1  0.33429757  0.00235025  0.66863829  1
  Ni  Ni38  1  0.50175474  0.16766003  0.83461123  1
  Ni  Ni39  1  0.50140436  0.50222628  0.50218846  1
  Ni  Ni40  1  0.33571965  0.33650816  0.66872672  1
  Fe  Fe41  1  0.50147495  0.50114256  0.83511852  1
  Ni  Ni42  1  0.50142023  0.83482581  0.50177415  1
  Ni  Ni43  1  0.33370295  0.66792205  0.66987184  1
  Ni  Ni44  1  0.50202415  0.83570101  0.83488382  1
  Cr  Cr45  1  0.83581756  0.16907520  0.50118547  1
  Ni  Ni46  1  0.66793438  1.00150623  0.66964676  1
  Ni  Ni47  1  0.83439463  0.16911054  0.83560451  1
  Ni  Ni48  1  0.83544080  0.50293587  0.50179232  1
  Ni  Ni49  1  0.66688958  0.33439608  0.66980554  1
  Ni  Ni50  1  0.83566501  0.50198958  0.83482723  1
  Ni  Ni51  1  0.83495480  0.83377209  0.50191640  1
  Fe  Fe52  1  0.66912753  0.66796079  0.66761033  1
  Ni  Ni53  1  0.83426883  0.83428038  0.83517195  1
" 