7669,Ni85Fe5Cr9_18,-236.526220490344, 176.44908750644,Ni85Fe5Cr9,"# generated using pymatgen
 data_Cr2FeNi15
_symmetry_space_group_name_H-M   'P 1'
_cell_length_a   7.45611847
_cell_length_b   7.45611847
_cell_length_c   10.54454387
_cell_angle_alpha   90.00000000
_cell_angle_beta   90.00000000
_cell_angle_gamma   90.00000000
_symmetry_Int_Tables_number   1
_chemical_formula_structural   Cr2FeNi15
_chemical_formula_sum   'Cr6 Fe3 Ni45'
_cell_volume   586.21023650
_cell_formula_units_Z   3
loop_
 _symmetry_equiv_pos_site_id
 _symmetry_equiv_pos_as_xyz
  1  'x, y, z'
loop_
 _atom_site_type_symbol
 _atom_site_label
 _atom_site_symmetry_multiplicity
 _atom_site_fract_x
 _atom_site_fract_y
 _atom_site_fract_z
 _atom_site_occupancy
  Ni  Ni0  1  0.00174576  0.00096646  1.00010517  1
  Ni  Ni1  1  0.16674358  0.16708885  0.16840179  1
  Ni  Ni2  1  0.00295866  0.00266561  0.33469975  1
  Cr  Cr3  1  1.00070841  0.33265072  0.99924246  1
  Ni  Ni4  1  0.16681710  0.50058395  0.16726029  1
  Ni  Ni5  1  1.00072284  0.33310898  0.33471294  1
  Fe  Fe6  1  0.00172036  0.66733753  0.99870486  1
  Ni  Ni7  1  0.16741556  0.83471464  0.16661920  1
  Fe  Fe8  1  0.00108500  0.66607178  0.33571710  1
  Ni  Ni9  1  0.33200919  0.99909761  1.00030430  1
  Cr  Cr10  1  0.49954770  0.16841599  0.16658692  1
  Ni  Ni11  1  0.32925017  0.00149397  0.33403619  1
  Ni  Ni12  1  0.33373502  0.33606888  1.00030009  1
  Ni  Ni13  1  0.50153079  0.50099378  0.16672654  1
  Ni  Ni14  1  0.33226894  0.33477035  0.33454743  1
  Ni  Ni15  1  0.33457613  0.66707661  1.00036967  1
  Ni  Ni16  1  0.49932617  0.83254538  0.16534077  1
  Cr  Cr17  1  0.33494021  0.66683448  0.33392397  1
  Ni  Ni18  1  0.66848619  1.00029699  0.99849814  1
  Ni  Ni19  1  0.83592319  0.16915590  0.16733227  1
  Cr  Cr20  1  0.66867585  0.00110281  0.33571471  1
  Ni  Ni21  1  0.66785944  0.33589237  1.00041513  1
  Ni  Ni22  1  0.83381404  0.50027047  0.16849838  1
  Ni  Ni23  1  0.66914886  0.33721082  0.33436452  1
  Ni  Ni24  1  0.66547187  0.66609669  0.99998544  1
  Cr  Cr25  1  0.83520119  0.83276593  0.16666274  1
  Ni  Ni26  1  0.66833612  0.66362845  0.33443409  1
  Ni  Ni27  1  0.16768181  0.16767340  0.50044778  1
  Ni  Ni28  1  1.00057529  1.00059240  0.66730086  1
  Ni  Ni29  1  0.16893186  0.16659002  0.83318067  1
  Ni  Ni30  1  0.16630393  0.49944612  0.50202932  1
  Fe  Fe31  1  1.00051892  0.33396051  0.66745397  1
  Ni  Ni32  1  0.16845376  0.50156007  0.83282862  1
  Ni  Ni33  1  0.16444758  0.83495917  0.50144667  1
  Ni  Ni34  1  0.00091554  0.66807385  0.66736321  1
  Ni  Ni35  1  0.16720720  0.83415289  0.83404190  1
  Ni  Ni36  1  0.49939989  0.17052163  0.50139027  1
  Ni  Ni37  1  0.33204447  0.00151659  0.66793638  1
  Ni  Ni38  1  0.50024013  0.16773377  0.83414128  1
  Ni  Ni39  1  0.50151235  0.49759379  0.50140458  1
  Ni  Ni40  1  0.33418490  0.33473521  0.66732849  1
  Ni  Ni41  1  0.50076903  0.50027202  0.83413066  1
  Cr  Cr42  1  0.50057216  0.83443368  0.50347396  1
  Ni  Ni43  1  0.33292234  0.66601656  0.66848188  1
  Ni  Ni44  1  0.50068197  0.83418064  0.83413937  1
  Ni  Ni45  1  0.83515949  0.16860770  0.50149396  1
  Ni  Ni46  1  0.66949635  0.00184047  0.66853063  1
  Ni  Ni47  1  0.83304696  0.16668538  0.83344015  1
  Ni  Ni48  1  0.83428110  0.50078032  0.50047473  1
  Ni  Ni49  1  0.66749935  0.33438936  0.66730664  1
  Ni  Ni50  1  0.83300622  0.50192811  0.83307213  1
  Ni  Ni51  1  0.83698240  0.83282065  0.50175047  1
  Ni  Ni52  1  0.66842186  0.66590475  0.66789486  1
  Ni  Ni53  1  0.83430125  0.83370142  0.83358817  1
" 