6966,Ni85Cr15_9,-205.660611838467, 167.930539088349,Ni85Cr15,"# generated using pymatgen
 data_Cr5Ni
_symmetry_space_group_name_H-M   'P 1'
_cell_length_a   7.58535121
_cell_length_b   7.58535121
_cell_length_c   10.72730655
_cell_angle_alpha   90.00000000
_cell_angle_beta   90.00000000
_cell_angle_gamma   90.00000000
_symmetry_Int_Tables_number   1
_chemical_formula_structural   Cr5Ni
_chemical_formula_sum   'Cr45 Ni9'
_cell_volume   617.22296900
_cell_formula_units_Z   9
loop_
 _symmetry_equiv_pos_site_id
 _symmetry_equiv_pos_as_xyz
  1  'x, y, z'
loop_
 _atom_site_type_symbol
 _atom_site_label
 _atom_site_symmetry_multiplicity
 _atom_site_fract_x
 _atom_site_fract_y
 _atom_site_fract_z
 _atom_site_occupancy
  Cr  Cr0  1  -0.00689500  0.99129301  0.99094513  1
  Cr  Cr1  1  0.16036275  0.15897170  0.15623535  1
  Cr  Cr2  1  -0.00731418  -0.00697717  0.32562638  1
  Cr  Cr3  1  -0.00731717  0.32635170  0.99131135  1
  Cr  Cr4  1  0.16063634  0.49057737  0.15943181  1
  Cr  Cr5  1  -0.00700836  0.32489482  0.32504730  1
  Cr  Cr6  1  -0.00760856  0.65874250  0.98949743  1
  Cr  Cr7  1  0.15973448  0.82685021  0.15814252  1
  Cr  Cr8  1  -0.00674634  0.65874922  0.32506700  1
  Ni  Ni9  1  0.32508858  -0.00536692  0.99196009  1
  Ni  Ni10  1  0.48910297  0.15911572  0.15650394  1
  Cr  Cr11  1  0.32768285  -0.00565209  0.32606070  1
  Ni  Ni12  1  0.32722308  0.32177456  -0.00603892  1
  Cr  Cr13  1  0.49113793  0.49101543  0.15745479  1
  Cr  Cr14  1  0.32720266  0.32291124  0.32589270  1
  Cr  Cr15  1  0.32410209  0.65992896  0.99043847  1
  Cr  Cr16  1  0.49113117  0.82611298  0.15739029  1
  Cr  Cr17  1  0.32539729  0.65926592  0.32704439  1
  Cr  Cr18  1  0.65642195  -0.00640669  -0.00453764  1
  Cr  Cr19  1  0.82554254  0.15874264  0.15892897  1
  Cr  Cr20  1  0.65616644  -0.00529160  0.32412366  1
  Cr  Cr21  1  0.65864945  0.32435814  0.99100242  1
  Cr  Cr22  1  0.82488655  0.49222174  0.15916662  1
  Cr  Cr23  1  0.65670091  0.32231931  0.32651305  1
  Cr  Cr24  1  0.66028382  0.65888927  0.99014932  1
  Cr  Cr25  1  0.82520201  0.82577670  0.16066704  1
  Cr  Cr26  1  0.65793677  0.65970973  0.32521733  1
  Cr  Cr27  1  0.15888291  0.15742095  0.49454831  1
  Ni  Ni28  1  -0.00449064  0.99096079  0.66021879  1
  Cr  Cr29  1  0.16036406  0.15644790  0.82597882  1
  Cr  Cr30  1  0.15929852  0.49146660  0.48983613  1
  Cr  Cr31  1  0.99132513  0.32579285  0.65990052  1
  Cr  Cr32  1  0.16110290  0.49001765  0.82722332  1
  Cr  Cr33  1  0.15859464  0.82747450  0.49413965  1
  Cr  Cr34  1  -0.00665025  0.65930621  0.66184427  1
  Ni  Ni35  1  0.16026802  0.82917359  0.82436096  1
  Ni  Ni36  1  0.49206463  0.15840241  0.49486170  1
  Ni  Ni37  1  0.32349286  -0.00687351  0.65908604  1
  Cr  Cr38  1  0.49030280  0.15895220  0.82575803  1
  Cr  Cr39  1  0.49314394  0.49123050  0.49358492  1
  Cr  Cr40  1  0.32751940  0.32359240  0.65679913  1
  Cr  Cr41  1  0.49336563  0.49016138  0.82543690  1
  Cr  Cr42  1  0.49164432  0.82655180  0.49345018  1
  Cr  Cr43  1  0.32412012  0.66074410  0.65916559  1
  Cr  Cr44  1  0.48899722  0.82793925  0.82602547  1
  Cr  Cr45  1  0.82604541  0.15834621  0.49468829  1
  Cr  Cr46  1  0.65677653  -0.00548076  0.65735845  1
  Cr  Cr47  1  0.82582392  0.15952124  0.82279354  1
  Cr  Cr48  1  0.82448708  0.49171105  0.49273249  1
  Ni  Ni49  1  0.65856724  0.32461012  0.65869129  1
  Ni  Ni50  1  0.82482603  0.49071262  0.82396180  1
  Cr  Cr51  1  0.82601668  0.82682809  0.49130916  1
  Cr  Cr52  1  0.65935105  0.65752505  0.66113645  1
  Cr  Cr53  1  0.82595608  0.82748559  0.82476755  1
" 