4539,Ni85Cr15_11,-205.734991977247, 170.842253305011,Ni85Cr15,"# generated using pymatgen
 data_Cr5Ni
_symmetry_space_group_name_H-M   'P 1'
_cell_length_a   7.58529455
_cell_length_b   7.58529455
_cell_length_c   10.72722643
_cell_angle_alpha   90.00000000
_cell_angle_beta   90.00000000
_cell_angle_gamma   90.00000000
_symmetry_Int_Tables_number   1
_chemical_formula_structural   Cr5Ni
_chemical_formula_sum   'Cr45 Ni9'
_cell_volume   617.20913795
_cell_formula_units_Z   9
loop_
 _symmetry_equiv_pos_site_id
 _symmetry_equiv_pos_as_xyz
  1  'x, y, z'
loop_
 _atom_site_type_symbol
 _atom_site_label
 _atom_site_symmetry_multiplicity
 _atom_site_fract_x
 _atom_site_fract_y
 _atom_site_fract_z
 _atom_site_occupancy
  Ni  Ni0  1  0.98958838  -0.00667053  -0.00681083  1
  Cr  Cr1  1  0.15779182  0.15929268  0.15680935  1
  Cr  Cr2  1  0.99187545  -0.00618606  0.32503615  1
  Cr  Cr3  1  0.99134957  0.32402987  -0.00710568  1
  Cr  Cr4  1  0.16001480  0.49140316  0.15914756  1
  Cr  Cr5  1  0.99129268  0.32564340  0.32565089  1
  Cr  Cr6  1  0.99197795  0.65896071  0.99082980  1
  Cr  Cr7  1  0.15880742  0.82591653  0.15795176  1
  Cr  Cr8  1  -0.00641702  0.65715844  0.32714020  1
  Cr  Cr9  1  0.32599846  0.99185157  -0.00665500  1
  Cr  Cr10  1  0.49332981  0.15821753  0.15796439  1
  Cr  Cr11  1  0.32667700  0.99038068  0.32542544  1
  Ni  Ni12  1  0.32627191  0.32607718  0.99098322  1
  Cr  Cr13  1  0.49111085  0.49249016  0.15836838  1
  Cr  Cr14  1  0.32439475  0.32621127  0.32656279  1
  Cr  Cr15  1  0.32713525  0.65851843  -0.00710345  1
  Ni  Ni16  1  0.49342902  0.82679438  0.15845639  1
  Cr  Cr17  1  0.32553986  0.66002480  0.32507264  1
  Ni  Ni18  1  0.66075391  -0.00771641  -0.00560773  1
  Ni  Ni19  1  0.82536379  0.15641588  0.15741388  1
  Cr  Cr20  1  0.65806436  -0.00733003  0.32424047  1
  Cr  Cr21  1  0.65927237  0.32516521  0.99140914  1
  Cr  Cr22  1  0.82549306  0.49146849  0.15985481  1
  Cr  Cr23  1  0.66092872  0.32450382  0.32484940  1
  Cr  Cr24  1  0.65750456  0.65896782  0.99083423  1
  Cr  Cr25  1  0.82441271  0.82812589  0.15762441  1
  Cr  Cr26  1  0.65749379  0.65944370  0.32484707  1
  Cr  Cr27  1  0.16024607  0.16103891  0.49358028  1
  Cr  Cr28  1  -0.00717578  -0.00750871  0.65880833  1
  Cr  Cr29  1  0.16024269  0.15952909  0.82622653  1
  Ni  Ni30  1  0.15976486  0.49131662  0.49297150  1
  Cr  Cr31  1  -0.00724578  0.32690141  0.65807492  1
  Cr  Cr32  1  0.16080830  0.49060638  0.82561721  1
  Cr  Cr33  1  0.15795047  0.82416917  0.49243852  1
  Cr  Cr34  1  -0.00774708  0.65722258  0.65865251  1
  Cr  Cr35  1  0.15681359  0.82648142  0.82622748  1
  Cr  Cr36  1  0.49125321  0.15995653  0.49358211  1
  Cr  Cr37  1  0.32553887  -0.00700966  0.65784124  1
  Cr  Cr38  1  0.49087552  0.16175841  0.82507045  1
  Cr  Cr39  1  0.49016635  0.49083264  0.49281606  1
  Ni  Ni40  1  0.32553349  0.32735842  0.65869641  1
  Ni  Ni41  1  0.49229741  0.49036899  0.82528725  1
  Cr  Cr42  1  0.49297432  0.82582865  0.49147251  1
  Cr  Cr43  1  0.32553926  0.65730603  0.65864981  1
  Cr  Cr44  1  0.49373158  0.82482854  0.82603823  1
  Cr  Cr45  1  0.82511734  0.15822802  0.49147267  1
  Cr  Cr46  1  0.65825345  -0.00751465  0.65811914  1
  Cr  Cr47  1  0.82549569  0.15776303  0.82717765  1
  Cr  Cr48  1  0.82677609  0.49312671  0.49167661  1
  Cr  Cr49  1  0.65832859  0.32690065  0.66035573  1
  Ni  Ni50  1  0.82351812  0.49257456  0.82512691  1
  Cr  Cr51  1  0.82569168  0.82526138  0.49278405  1
  Cr  Cr52  1  0.65882542  0.65723083  0.66093220  1
  Cr  Cr53  1  0.82606881  0.82538327  0.82621178  1
" 