8637,Ni85Fe9Cr4_3,-238.231859966965, 182.51189877505,Ni85Fe9Cr4,"# generated using pymatgen
 data_Cr2Fe2Ni23
_symmetry_space_group_name_H-M   'P 1'
_cell_length_a   7.44885653
_cell_length_b   7.44885653
_cell_length_c   10.53427393
_cell_angle_alpha   90.00000000
_cell_angle_beta   90.00000000
_cell_angle_gamma   90.00000000
_symmetry_Int_Tables_number   1
_chemical_formula_structural   Cr2Fe2Ni23
_chemical_formula_sum   'Cr4 Fe4 Ni46'
_cell_volume   584.49907318
_cell_formula_units_Z   2
loop_
 _symmetry_equiv_pos_site_id
 _symmetry_equiv_pos_as_xyz
  1  'x, y, z'
loop_
 _atom_site_type_symbol
 _atom_site_label
 _atom_site_symmetry_multiplicity
 _atom_site_fract_x
 _atom_site_fract_y
 _atom_site_fract_z
 _atom_site_occupancy
  Ni  Ni0  1  0.00182600  0.00218612  1.00074443  1
  Ni  Ni1  1  0.16822710  0.16943663  0.16831854  1
  Ni  Ni2  1  0.99992414  0.00198934  0.33480158  1
  Ni  Ni3  1  0.00257832  0.33385783  1.00049480  1
  Ni  Ni4  1  0.16952313  0.49955492  0.16785722  1
  Ni  Ni5  1  0.00233351  0.33375254  0.33513865  1
  Ni  Ni6  1  0.00130006  0.66762112  0.99926704  1
  Cr  Cr7  1  0.16800497  0.83433981  0.16738617  1
  Ni  Ni8  1  1.00119626  0.66791908  0.33648765  1
  Ni  Ni9  1  0.33354996  0.00212728  1.00008045  1
  Ni  Ni10  1  0.50025289  0.16843175  0.16840104  1
  Ni  Ni11  1  0.33542230  0.00193325  0.33542966  1
  Ni  Ni12  1  0.33400889  0.33512719  0.00163647  1
  Ni  Ni13  1  0.49949023  0.50109369  0.16807719  1
  Ni  Ni14  1  0.33415691  0.33495217  0.33393994  1
  Ni  Ni15  1  0.33534502  0.66640888  1.00055721  1
  Ni  Ni16  1  0.50179218  0.83413832  0.16888482  1
  Ni  Ni17  1  0.33535269  0.66677733  0.33513891  1
  Cr  Cr18  1  0.66840006  1.00091440  0.00182086  1
  Ni  Ni19  1  0.83518306  0.16713509  0.16864377  1
  Ni  Ni20  1  0.66831279  1.00079743  0.33441057  1
  Ni  Ni21  1  0.66707537  0.33565359  0.99997970  1
  Cr  Cr22  1  0.83492603  0.50126077  0.16748473  1
  Ni  Ni23  1  0.66717287  0.33368195  0.33542860  1
  Ni  Ni24  1  0.66701823  0.66716158  1.00068076  1
  Ni  Ni25  1  0.83364523  0.83543319  0.16912808  1
  Ni  Ni26  1  0.66711628  0.66918714  0.33480091  1
  Fe  Fe27  1  0.16653144  0.16646149  0.50040581  1
  Ni  Ni28  1  1.00066918  0.00170911  0.66811870  1
  Ni  Ni29  1  0.16729283  0.16750981  0.83525189  1
  Ni  Ni30  1  0.16635536  0.50272382  0.49983919  1
  Ni  Ni31  1  0.99938781  0.33395652  0.66803152  1
  Ni  Ni32  1  0.16693287  0.50156355  0.83596159  1
  Ni  Ni33  1  0.16859193  0.83356469  0.50186376  1
  Fe  Fe34  1  1.00072235  0.66786613  0.66753041  1
  Fe  Fe35  1  0.16820940  0.83492446  0.83446769  1
  Ni  Ni36  1  0.50240493  0.16627892  0.50055492  1
  Ni  Ni37  1  0.33452606  0.99913335  0.66815466  1
  Ni  Ni38  1  0.50082944  0.16743468  0.83470568  1
  Fe  Fe39  1  0.50260232  0.50257704  0.50035758  1
  Cr  Cr40  1  0.33434448  0.33497138  0.66785200  1
  Ni  Ni41  1  0.50179166  0.50223894  0.83525234  1
  Ni  Ni42  1  0.50041099  0.83557073  0.50111055  1
  Ni  Ni43  1  0.33524629  0.66959991  0.66796821  1
  Ni  Ni44  1  0.50041727  0.83399109  0.83366888  1
  Ni  Ni45  1  0.83374844  0.16851691  0.50135253  1
  Ni  Ni46  1  0.66846472  1.00067164  0.66779192  1
  Ni  Ni47  1  0.83554081  0.16888141  0.83366864  1
  Ni  Ni48  1  0.83575578  0.50072818  0.50165055  1
  Ni  Ni49  1  0.67006969  0.33467689  0.66825403  1
  Ni  Ni50  1  0.83493944  0.50115135  0.83438855  1
  Ni  Ni51  1  0.83466050  0.83441749  0.50062486  1
  Ni  Ni52  1  0.66749257  0.66831620  0.66818077  1
  Ni  Ni53  1  0.83486445  0.83362944  0.83391054  1
" 