2185,Ni85Fe12Cr2_0,-239.671688105088, 190.011294595544,Ni85Fe12Cr2,"# generated using pymatgen
 data_CrFe2Ni15
_symmetry_space_group_name_H-M   'P 1'
_cell_length_a   7.44176879
_cell_length_b   7.44176879
_cell_length_c   10.52425035
_cell_angle_alpha   90.00000000
_cell_angle_beta   90.00000000
_cell_angle_gamma   90.00000000
_symmetry_Int_Tables_number   1
_chemical_formula_structural   CrFe2Ni15
_chemical_formula_sum   'Cr3 Fe6 Ni45'
_cell_volume   582.83217019
_cell_formula_units_Z   3
loop_
 _symmetry_equiv_pos_site_id
 _symmetry_equiv_pos_as_xyz
  1  'x, y, z'
loop_
 _atom_site_type_symbol
 _atom_site_label
 _atom_site_symmetry_multiplicity
 _atom_site_fract_x
 _atom_site_fract_y
 _atom_site_fract_z
 _atom_site_occupancy
  Ni  Ni0  1  0.00182184  0.00360130  1.00129180  1
  Ni  Ni1  1  0.16811268  0.16896394  0.16852791  1
  Ni  Ni2  1  0.00189011  0.00170385  0.33505892  1
  Ni  Ni3  1  0.00189452  0.33322246  1.00134653  1
  Ni  Ni4  1  0.16892613  0.50046434  0.16982477  1
  Ni  Ni5  1  0.00182880  0.33508706  0.33496027  1
  Cr  Cr6  1  1.00129230  0.66818873  1.00107340  1
  Fe  Fe7  1  0.16922033  0.83588511  0.16937857  1
  Ni  Ni8  1  1.00156666  0.66830730  0.33594981  1
  Ni  Ni9  1  0.33473347  0.00178645  1.00111407  1
  Ni  Ni10  1  0.50126074  0.16788603  0.16877906  1
  Ni  Ni11  1  0.33455522  1.00164220  0.33544966  1
  Ni  Ni12  1  0.33467534  0.33504898  1.00116705  1
  Ni  Ni13  1  0.50151816  0.50261234  0.16874621  1
  Ni  Ni14  1  0.33449828  0.33502219  0.33532975  1
  Ni  Ni15  1  0.33681613  0.66826068  1.00109781  1
  Ni  Ni16  1  0.50206545  0.83459714  0.16826532  1
  Ni  Ni17  1  0.33481773  0.66842700  0.33515429  1
  Ni  Ni18  1  0.66853978  1.00145751  1.00090425  1
  Ni  Ni19  1  0.83572247  0.16841319  0.16852821  1
  Ni  Ni20  1  0.66864906  1.00138261  0.33565035  1
  Ni  Ni21  1  0.66852573  0.33530570  1.00095131  1
  Ni  Ni22  1  0.83465139  0.50127060  0.16908166  1
  Ni  Ni23  1  0.66876963  0.33534807  0.33555623  1
  Ni  Ni24  1  0.66671284  0.66833207  1.00163244  1
  Ni  Ni25  1  0.83357079  0.83541152  0.17008855  1
  Ni  Ni26  1  0.66871142  0.66836592  0.33462545  1
  Ni  Ni27  1  0.17002104  0.16776315  0.50000497  1
  Cr  Cr28  1  0.00192826  1.00071921  0.66896445  1
  Ni  Ni29  1  0.16977852  0.16836644  0.83656551  1
  Fe  Fe30  1  0.16915920  0.50166196  0.50028747  1
  Cr  Cr31  1  0.00201312  0.33578668  0.66919246  1
  Ni  Ni32  1  0.16950670  0.50170176  0.83429367  1
  Ni  Ni33  1  0.17001612  0.83457900  0.50049812  1
  Fe  Fe34  1  1.00117945  0.66831121  0.66852313  1
  Ni  Ni35  1  0.17003153  0.83503042  0.83525549  1
  Ni  Ni36  1  0.50150898  0.16749453  0.50194711  1
  Ni  Ni37  1  0.33641696  0.00175262  0.66853036  1
  Ni  Ni38  1  0.50150978  0.16810189  0.83436885  1
  Fe  Fe39  1  0.50200966  0.50095652  0.50155275  1
  Ni  Ni40  1  0.33642422  0.33482045  0.66859583  1
  Ni  Ni41  1  0.50183169  0.50201691  0.83475339  1
  Ni  Ni42  1  0.50075432  0.83560545  0.50185689  1
  Fe  Fe43  1  0.33607969  0.66894121  0.66889581  1
  Ni  Ni44  1  0.50156971  0.83497784  0.83497333  1
  Ni  Ni45  1  0.83356406  0.16966921  0.49978686  1
  Ni  Ni46  1  0.66646995  1.00073845  0.66853921  1
  Ni  Ni47  1  0.83380616  0.16862715  0.83678215  1
  Ni  Ni48  1  0.83459765  0.50199849  0.50077221  1
  Ni  Ni49  1  0.66659361  0.33595797  0.66858577  1
  Ni  Ni50  1  0.83375935  0.50175860  0.83524378  1
  Fe  Fe51  1  0.83397568  0.83527603  0.50059861  1
  Ni  Ni52  1  0.66836680  0.66840108  0.66883655  1
  Ni  Ni53  1  0.83349665  0.83470733  0.83397747  1
" 