4325,Ni85Fe9Cr4_0,-238.318561725108, 183.19578911678,Ni85Fe9Cr4,"# generated using pymatgen
 data_Cr2Fe2Ni23
_symmetry_space_group_name_H-M   'P 1'
_cell_length_a   7.45011302
_cell_length_b   7.45011302
_cell_length_c   10.53605088
_cell_angle_alpha   90.00000000
_cell_angle_beta   90.00000000
_cell_angle_gamma   90.00000000
_symmetry_Int_Tables_number   1
_chemical_formula_structural   Cr2Fe2Ni23
_chemical_formula_sum   'Cr4 Fe4 Ni46'
_cell_volume   584.79490705
_cell_formula_units_Z   2
loop_
 _symmetry_equiv_pos_site_id
 _symmetry_equiv_pos_as_xyz
  1  'x, y, z'
loop_
 _atom_site_type_symbol
 _atom_site_label
 _atom_site_symmetry_multiplicity
 _atom_site_fract_x
 _atom_site_fract_y
 _atom_site_fract_z
 _atom_site_occupancy
  Ni  Ni0  1  0.00259477  1.00070355  0.00200158  1
  Ni  Ni1  1  0.16740463  0.16596855  0.16749722  1
  Ni  Ni2  1  0.00169583  0.00168547  0.33403241  1
  Fe  Fe3  1  1.00060566  0.33321195  1.00077768  1
  Cr  Cr4  1  0.16831026  0.50140498  0.16791773  1
  Ni  Ni5  1  0.99884787  0.33387573  0.33467559  1
  Ni  Ni6  1  1.00061256  0.66928605  0.99984371  1
  Ni  Ni7  1  0.16752610  0.83611356  0.16710270  1
  Ni  Ni8  1  1.00062332  0.66780211  0.33588757  1
  Ni  Ni9  1  0.33213546  0.00138935  1.00069279  1
  Ni  Ni10  1  0.50035202  0.16890634  0.16761307  1
  Ni  Ni11  1  0.33449871  1.00070206  0.33397483  1
  Ni  Ni12  1  0.33521943  0.33254632  0.00185158  1
  Ni  Ni13  1  0.50275344  0.50122489  0.16802631  1
  Fe  Fe14  1  0.33517426  0.33308099  0.33544770  1
  Ni  Ni15  1  0.33378189  0.66903442  0.00150751  1
  Ni  Ni16  1  0.50047728  0.83326454  0.16790401  1
  Ni  Ni17  1  0.33492972  0.66960311  0.33515082  1
  Cr  Cr18  1  0.66853593  0.00201667  0.00244128  1
  Ni  Ni19  1  0.83553516  0.16835484  0.16895673  1
  Ni  Ni20  1  0.66722497  0.00233287  0.33426286  1
  Ni  Ni21  1  0.66863225  0.33499275  0.00195584  1
  Ni  Ni22  1  0.83276518  0.50108533  0.16623475  1
  Ni  Ni23  1  0.66874053  0.33425889  0.33404930  1
  Ni  Ni24  1  0.66928114  0.66653721  0.00245142  1
  Ni  Ni25  1  0.83543749  0.83380446  0.16918651  1
  Ni  Ni26  1  0.66793497  0.66679133  0.33394459  1
  Ni  Ni27  1  0.16703979  0.16772664  0.50120413  1
  Ni  Ni28  1  0.00138092  0.00148160  0.66726948  1
  Ni  Ni29  1  0.16612759  0.16816318  0.83473467  1
  Ni  Ni30  1  0.16670619  0.49948960  0.50061768  1
  Ni  Ni31  1  1.00108389  0.33440628  0.66853086  1
  Ni  Ni32  1  0.16702544  0.49932415  0.83520265  1
  Ni  Ni33  1  0.16651910  0.83606271  0.50046630  1
  Ni  Ni34  1  1.00002508  0.66769457  0.66764234  1
  Ni  Ni35  1  0.16636796  0.83567680  0.83563890  1
  Ni  Ni36  1  0.50153999  0.16761142  0.50258752  1
  Ni  Ni37  1  0.33385874  0.00283271  0.66891068  1
  Fe  Fe38  1  0.49970350  0.16645781  0.83366612  1
  Ni  Ni39  1  0.50241837  0.50020416  0.49947571  1
  Ni  Ni40  1  0.33334498  0.33205844  0.66593191  1
  Cr  Cr41  1  0.50147620  0.50088002  0.83521939  1
  Ni  Ni42  1  0.50277695  0.83547162  0.50072864  1
  Cr  Cr43  1  0.33208536  0.66905247  0.66583385  1
  Ni  Ni44  1  0.50212368  0.83459597  0.83470866  1
  Ni  Ni45  1  0.83480468  0.16748959  0.50105827  1
  Ni  Ni46  1  0.66801987  0.00185481  0.66771076  1
  Ni  Ni47  1  0.83618851  0.16771546  0.83366251  1
  Ni  Ni48  1  0.83427559  0.50073360  0.50251466  1
  Ni  Ni49  1  0.66909039  0.33320413  0.66725856  1
  Fe  Fe50  1  0.83649001  0.50218824  0.83424697  1
  Ni  Ni51  1  0.83411375  0.83518019  0.50118369  1
  Ni  Ni52  1  0.67020597  0.66827552  0.66677564  1
  Ni  Ni53  1  0.83494942  0.83556271  0.83320405  1
" 