6394,Ni85Fe15_6,-231.092765072739, 172.939536707391,Ni85Fe15,"# generated using pymatgen
 data_Fe5Ni
_symmetry_space_group_name_H-M   'P 1'
_cell_length_a   7.40341845
_cell_length_b   7.40341845
_cell_length_c   10.47001477
_cell_angle_alpha   90.00000000
_cell_angle_beta   90.00000000
_cell_angle_gamma   90.00000000
_symmetry_Int_Tables_number   1
_chemical_formula_structural   Fe5Ni
_chemical_formula_sum   'Fe45 Ni9'
_cell_volume   573.86784073
_cell_formula_units_Z   9
loop_
 _symmetry_equiv_pos_site_id
 _symmetry_equiv_pos_as_xyz
  1  'x, y, z'
loop_
 _atom_site_type_symbol
 _atom_site_label
 _atom_site_symmetry_multiplicity
 _atom_site_fract_x
 _atom_site_fract_y
 _atom_site_fract_z
 _atom_site_occupancy
  Fe  Fe0  1  0.00557285  0.00516569  1.00380032  1
  Fe  Fe1  1  0.17191252  0.17091139  0.16968240  1
  Fe  Fe2  1  1.00331275  1.00405199  0.33796061  1
  Fe  Fe3  1  0.00581668  0.33708665  1.00429611  1
  Ni  Ni4  1  0.17064790  0.50357098  0.16954640  1
  Fe  Fe5  1  1.00425519  0.33766715  0.33754532  1
  Fe  Fe6  1  0.00553930  0.67063950  0.00454023  1
  Fe  Fe7  1  0.17170601  0.83730000  0.17063504  1
  Fe  Fe8  1  1.00400970  0.67116950  0.33796280  1
  Ni  Ni9  1  0.33762749  0.00509233  0.00449242  1
  Fe  Fe10  1  0.50359356  0.17077186  0.17134611  1
  Fe  Fe11  1  0.33878068  0.00430013  0.33708949  1
  Ni  Ni12  1  0.33723041  0.33712561  1.00409852  1
  Fe  Fe13  1  0.50363939  0.50462662  0.17055049  1
  Fe  Fe14  1  0.33783615  0.33742238  0.33750521  1
  Fe  Fe15  1  0.33771608  0.67096706  0.00487357  1
  Ni  Ni16  1  0.50540510  0.83846071  0.17106370  1
  Fe  Fe17  1  0.33783526  0.67116789  0.33738239  1
  Fe  Fe18  1  0.66968949  0.00451212  0.00516940  1
  Fe  Fe19  1  0.83738455  0.17080071  0.17129446  1
  Ni  Ni20  1  0.67105563  1.00390275  0.33793432  1
  Fe  Fe21  1  0.67001299  0.33717068  1.00413046  1
  Fe  Fe22  1  0.83757745  0.50483767  0.17079434  1
  Fe  Fe23  1  0.67079863  0.33672473  0.33796070  1
  Fe  Fe24  1  0.66963740  0.67121123  0.00437272  1
  Fe  Fe25  1  0.83744143  0.83725304  0.17183372  1
  Fe  Fe26  1  0.67104643  0.67211168  0.33754747  1
  Fe  Fe27  1  0.17091821  0.17091293  0.50500646  1
  Fe  Fe28  1  1.00421329  1.00421428  0.67113002  1
  Ni  Ni29  1  0.17127287  0.17174833  0.83774221  1
  Ni  Ni30  1  0.17066729  0.50390801  0.50521783  1
  Fe  Fe31  1  0.00478797  0.33771242  0.67104842  1
  Fe  Fe32  1  0.17112795  0.50356444  0.83779259  1
  Fe  Fe33  1  0.17092868  0.83759638  0.50446391  1
  Fe  Fe34  1  1.00421319  0.67096588  0.67038648  1
  Fe  Fe35  1  0.17112877  0.83853748  0.83779378  1
  Ni  Ni36  1  0.50460309  0.17046578  0.50448468  1
  Fe  Fe37  1  0.33763256  0.00478852  0.67167323  1
  Fe  Fe38  1  0.50331469  0.17104580  0.83749612  1
  Fe  Fe39  1  0.50434336  0.50426060  0.50454759  1
  Fe  Fe40  1  0.33738626  0.33746696  0.67117381  1
  Fe  Fe41  1  0.50375909  0.50351090  0.83779302  1
  Fe  Fe42  1  0.50448968  0.83782718  0.50350835  1
  Fe  Fe43  1  0.33738610  0.67063677  0.67063536  1
  Fe  Fe44  1  0.50350977  0.83833544  0.83850296  1
  Fe  Fe45  1  0.83735146  0.17076635  0.50396660  1
  Fe  Fe46  1  0.67104568  1.00421255  0.66976193  1
  Fe  Fe47  1  0.83820355  0.17104612  0.83763107  1
  Fe  Fe48  1  0.83758083  0.50424856  0.50446396  1
  Fe  Fe49  1  0.67071751  0.33746601  0.67080171  1
  Fe  Fe50  1  0.83800498  0.50375602  0.83763335  1
  Ni  Ni51  1  0.83684034  0.83773511  0.50409420  1
  Fe  Fe52  1  0.67129080  0.67121251  0.67097162  1
  Fe  Fe53  1  0.83825427  0.83808985  0.83692329  1
" 