7126,Ni85Fe12Cr2_13,-239.71296756247, 190.506667829321,Ni85Fe12Cr2,"# generated using pymatgen
 data_CrFe2Ni15
_symmetry_space_group_name_H-M   'P 1'
_cell_length_a   7.44584041
_cell_length_b   7.44584041
_cell_length_c   10.53000849
_cell_angle_alpha   90.00000000
_cell_angle_beta   90.00000000
_cell_angle_gamma   90.00000000
_symmetry_Int_Tables_number   1
_chemical_formula_structural   CrFe2Ni15
_chemical_formula_sum   'Cr3 Fe6 Ni45'
_cell_volume   583.78935015
_cell_formula_units_Z   3
loop_
 _symmetry_equiv_pos_site_id
 _symmetry_equiv_pos_as_xyz
  1  'x, y, z'
loop_
 _atom_site_type_symbol
 _atom_site_label
 _atom_site_symmetry_multiplicity
 _atom_site_fract_x
 _atom_site_fract_y
 _atom_site_fract_z
 _atom_site_occupancy
  Ni  Ni0  1  0.00331058  0.00163261  1.00101941  1
  Ni  Ni1  1  0.16971652  0.16837485  0.16727898  1
  Cr  Cr2  1  0.00151368  0.00168569  0.33408691  1
  Ni  Ni3  1  1.00127509  0.33460885  0.00150157  1
  Ni  Ni4  1  0.16764815  0.50121089  0.16854435  1
  Ni  Ni5  1  1.00110507  0.33633419  0.33488076  1
  Ni  Ni6  1  0.00166064  0.66803237  1.00103249  1
  Ni  Ni7  1  0.16841694  0.83468744  0.16703007  1
  Ni  Ni8  1  0.00149500  0.66627697  0.33530765  1
  Ni  Ni9  1  0.33273309  1.00117905  0.00143507  1
  Ni  Ni10  1  0.49958658  0.16912000  0.16908381  1
  Ni  Ni11  1  0.33642670  1.00127550  0.33465932  1
  Ni  Ni12  1  0.33469564  0.33499465  1.00064678  1
  Ni  Ni13  1  0.50214771  0.50095555  0.16781938  1
  Ni  Ni14  1  0.33500057  0.33499592  0.33549916  1
  Ni  Ni15  1  0.33476691  0.66809957  0.00159851  1
  Ni  Ni16  1  0.50063515  0.83419889  0.16954457  1
  Ni  Ni17  1  0.33500400  0.66800026  0.33450161  1
  Cr  Cr18  1  0.66810163  0.00143364  1.00092275  1
  Fe  Fe19  1  0.83474986  0.16981697  0.16808741  1
  Ni  Ni20  1  0.66643458  0.00166249  0.33556202  1
  Ni  Ni21  1  0.66829901  0.33664322  1.00136391  1
  Ni  Ni22  1  0.83447590  0.50225288  0.16830677  1
  Ni  Ni23  1  0.66816172  0.33491272  0.33458689  1
  Ni  Ni24  1  0.66784568  0.66606908  1.00105027  1
  Ni  Ni25  1  0.83522076  0.83212275  0.16805561  1
  Ni  Ni26  1  0.66777424  0.66770057  0.33485048  1
  Ni  Ni27  1  0.16928000  0.16794573  0.50232270  1
  Ni  Ni28  1  0.00166498  0.00238057  0.66849189  1
  Ni  Ni29  1  0.16828413  0.16714172  0.83466281  1
  Fe  Fe30  1  0.16758283  0.50091018  0.50047981  1
  Ni  Ni31  1  0.00226760  0.33369821  0.66789090  1
  Fe  Fe32  1  0.16808891  0.50136434  0.83563919  1
  Ni  Ni33  1  0.16811426  0.83492454  0.50183313  1
  Fe  Fe34  1  1.00077115  0.66942884  0.66797733  1
  Ni  Ni35  1  0.16789973  0.83594956  0.83540392  1
  Ni  Ni36  1  0.50005631  0.16822516  0.50056875  1
  Ni  Ni37  1  0.33418388  1.00034885  0.66818129  1
  Ni  Ni38  1  0.49926061  0.16866117  0.83462328  1
  Ni  Ni39  1  0.50158982  0.50144889  0.50026542  1
  Fe  Fe40  1  0.33405435  0.33382837  0.66804395  1
  Ni  Ni41  1  0.50181994  0.50202588  0.83618972  1
  Fe  Fe42  1  0.50188425  0.83521763  0.50152135  1
  Ni  Ni43  1  0.33531734  0.66898371  0.66817686  1
  Ni  Ni44  1  0.50047901  0.83358268  0.83337719  1
  Ni  Ni45  1  0.83493740  0.16827036  0.50113898  1
  Ni  Ni46  1  0.66842219  0.99986294  0.66781889  1
  Ni  Ni47  1  0.83672684  0.16847770  0.83482704  1
  Ni  Ni48  1  0.83460832  0.50261286  0.50027981  1
  Cr  Cr49  1  0.66907833  0.33456301  0.66865636  1
  Ni  Ni50  1  0.83436338  0.50240821  0.83568980  1
  Ni  Ni51  1  0.83489422  0.83339493  0.50261320  1
  Ni  Ni52  1  0.66717845  0.66957609  0.66837241  1
  Ni  Ni53  1  0.83589161  0.83339154  0.83359875  1
" 