6469,Ni85Fe9Cr4_15,-238.205179080513, 182.445884736316,Ni85Fe9Cr4,"# generated using pymatgen
 data_Cr2Fe2Ni23
_symmetry_space_group_name_H-M   'P 1'
_cell_length_a   7.44943019
_cell_length_b   7.44943019
_cell_length_c   10.53508521
_cell_angle_alpha   90.00000000
_cell_angle_beta   90.00000000
_cell_angle_gamma   90.00000000
_symmetry_Int_Tables_number   1
_chemical_formula_structural   Cr2Fe2Ni23
_chemical_formula_sum   'Cr4 Fe4 Ni46'
_cell_volume   584.63412584
_cell_formula_units_Z   2
loop_
 _symmetry_equiv_pos_site_id
 _symmetry_equiv_pos_as_xyz
  1  'x, y, z'
loop_
 _atom_site_type_symbol
 _atom_site_label
 _atom_site_symmetry_multiplicity
 _atom_site_fract_x
 _atom_site_fract_y
 _atom_site_fract_z
 _atom_site_occupancy
  Ni  Ni0  1  1.00049207  1.00075598  0.00174014  1
  Fe  Fe1  1  0.16750925  0.16819702  0.16815333  1
  Ni  Ni2  1  0.00142605  1.00078103  0.33485125  1
  Ni  Ni3  1  1.00037192  0.33490163  0.00211311  1
  Ni  Ni4  1  0.16785253  0.50110694  0.16797117  1
  Ni  Ni5  1  0.00296287  0.33479390  0.33472388  1
  Fe  Fe6  1  0.00159689  0.66811111  0.00137451  1
  Ni  Ni7  1  0.16606997  0.83401609  0.16749472  1
  Ni  Ni8  1  0.00124818  0.66797205  0.33409304  1
  Ni  Ni9  1  0.33419031  1.00079479  1.00111242  1
  Ni  Ni10  1  0.50098996  0.16894458  0.16660984  1
  Ni  Ni11  1  0.33343881  0.00161605  0.33520233  1
  Ni  Ni12  1  0.33520743  0.33575897  0.00216728  1
  Ni  Ni13  1  0.49989373  0.49980244  0.16707343  1
  Ni  Ni14  1  0.33273262  0.33478959  0.33436825  1
  Ni  Ni15  1  0.33413927  0.66699467  0.99974039  1
  Cr  Cr16  1  0.50143598  0.83465844  0.16825138  1
  Ni  Ni17  1  0.33361184  0.66714188  0.33583241  1
  Ni  Ni18  1  0.66886418  0.00182420  1.00013695  1
  Ni  Ni19  1  0.83501932  0.16716103  0.16688827  1
  Ni  Ni20  1  0.66868244  0.99990299  0.33538026  1
  Ni  Ni21  1  0.66796648  0.33484998  1.00066856  1
  Ni  Ni22  1  0.83580228  0.50127287  0.16668440  1
  Cr  Cr23  1  0.66784928  0.33503432  0.33472390  1
  Ni  Ni24  1  0.66800730  0.66687338  1.00071012  1
  Ni  Ni25  1  0.83632532  0.83511449  0.16815669  1
  Ni  Ni26  1  0.66868807  0.66867732  0.33534432  1
  Ni  Ni27  1  0.16844794  0.16745969  0.49974292  1
  Ni  Ni28  1  1.00079821  0.99838694  0.66695535  1
  Cr  Cr29  1  0.16824044  0.16746043  0.83541727  1
  Ni  Ni30  1  0.16861686  0.50148846  0.50025454  1
  Cr  Cr31  1  1.00060925  0.33519545  0.66647832  1
  Ni  Ni32  1  0.16929309  0.50352557  0.83532323  1
  Ni  Ni33  1  0.16753823  0.83459942  0.50156519  1
  Ni  Ni34  1  1.00084643  0.66956330  0.66836705  1
  Ni  Ni35  1  0.16742601  0.83258450  0.83448846  1
  Ni  Ni36  1  0.50043320  0.16727768  0.50241290  1
  Ni  Ni37  1  0.33526310  1.00072588  0.66723272  1
  Ni  Ni38  1  0.50333134  0.16827269  0.83452451  1
  Ni  Ni39  1  0.50020072  0.50160904  0.50168203  1
  Ni  Ni40  1  0.33699131  0.33486977  0.66701095  1
  Ni  Ni41  1  0.50058093  0.50097201  0.83479321  1
  Ni  Ni42  1  0.50146332  0.83466181  0.50102952  1
  Fe  Fe43  1  0.33469983  0.66809721  0.66800733  1
  Ni  Ni44  1  0.50161567  0.83430278  0.83466680  1
  Ni  Ni45  1  0.83466625  0.16619707  0.50137252  1
  Ni  Ni46  1  0.66748521  1.00089137  0.66803206  1
  Ni  Ni47  1  0.83195288  0.16640505  0.83528783  1
  Ni  Ni48  1  0.83472925  0.50251800  0.50136401  1
  Ni  Ni49  1  0.66587273  0.33482120  0.66833107  1
  Fe  Fe50  1  0.83311099  0.50211823  0.83506271  1
  Ni  Ni51  1  0.83454616  0.83483163  0.50072655  1
  Ni  Ni52  1  0.66821339  0.66783519  0.66749237  1
  Ni  Ni53  1  0.83450616  0.83533514  0.83466550  1
" 