3597,Ni85Fe5Cr9_13,-236.493259703349, 176.331837061316,Ni85Fe5Cr9,"# generated using pymatgen
 data_Cr2FeNi15
_symmetry_space_group_name_H-M   'P 1'
_cell_length_a   7.45632701
_cell_length_b   7.45632701
_cell_length_c   10.54483878
_cell_angle_alpha   90.00000000
_cell_angle_beta   90.00000000
_cell_angle_gamma   90.00000000
_symmetry_Int_Tables_number   1
_chemical_formula_structural   Cr2FeNi15
_chemical_formula_sum   'Cr6 Fe3 Ni45'
_cell_volume   586.25942346
_cell_formula_units_Z   3
loop_
 _symmetry_equiv_pos_site_id
 _symmetry_equiv_pos_as_xyz
  1  'x, y, z'
loop_
 _atom_site_type_symbol
 _atom_site_label
 _atom_site_symmetry_multiplicity
 _atom_site_fract_x
 _atom_site_fract_y
 _atom_site_fract_z
 _atom_site_occupancy
  Cr  Cr0  1  0.99950386  0.00231409  0.99878398  1
  Ni  Ni1  1  0.16838398  0.16984530  0.16808247  1
  Ni  Ni2  1  1.00063764  0.00319883  0.33594839  1
  Ni  Ni3  1  0.99988974  0.33472479  0.00161662  1
  Ni  Ni4  1  0.16750960  0.49920743  0.16815280  1
  Ni  Ni5  1  0.00181218  0.33264329  0.33279203  1
  Ni  Ni6  1  0.99876046  0.66581311  0.00146423  1
  Cr  Cr7  1  0.16907270  0.83376156  0.16694033  1
  Fe  Fe8  1  0.99984639  0.66867134  0.33402952  1
  Ni  Ni9  1  0.33549005  0.00256837  0.00090399  1
  Ni  Ni10  1  0.50144641  0.16702394  0.16717695  1
  Ni  Ni11  1  0.33463861  0.99993907  0.33452261  1
  Ni  Ni12  1  0.33517729  0.33354737  0.00258014  1
  Ni  Ni13  1  0.50083897  0.50054945  0.16711128  1
  Fe  Fe14  1  0.33612376  0.33313121  0.33413834  1
  Ni  Ni15  1  0.33570029  0.66610341  0.00088298  1
  Ni  Ni16  1  0.50207706  0.83433766  0.16727074  1
  Ni  Ni17  1  0.33606482  0.66681344  0.33569052  1
  Ni  Ni18  1  0.66651626  0.00131888  0.00236984  1
  Ni  Ni19  1  0.83274162  0.16856439  0.16856504  1
  Ni  Ni20  1  0.66682662  1.00029252  0.33413618  1
  Ni  Ni21  1  0.66710037  0.33470818  1.00009570  1
  Ni  Ni22  1  0.83391050  0.50005336  0.16685109  1
  Ni  Ni23  1  0.66744743  0.33413091  0.33371348  1
  Ni  Ni24  1  0.66758946  0.66611196  0.00201595  1
  Ni  Ni25  1  0.83127500  0.83363468  0.16868122  1
  Ni  Ni26  1  0.66418594  0.66761794  0.33291225  1
  Ni  Ni27  1  0.16847574  0.16649437  0.49959040  1
  Ni  Ni28  1  0.00147834  0.99874397  0.66709342  1
  Ni  Ni29  1  0.17010517  0.16618127  0.83444020  1
  Ni  Ni30  1  0.16948573  0.50131206  0.49892144  1
  Cr  Cr31  1  0.00077876  0.33147023  0.66831758  1
  Cr  Cr32  1  0.16873214  0.50181919  0.83523696  1
  Ni  Ni33  1  0.16764386  0.83451642  0.50161704  1
  Ni  Ni34  1  1.00010742  0.67048448  0.66657922  1
  Ni  Ni35  1  0.16655824  0.83479629  0.83280905  1
  Ni  Ni36  1  0.50130889  0.16682622  0.50075338  1
  Ni  Ni37  1  0.33299370  0.00226554  0.66660652  1
  Ni  Ni38  1  0.50073875  0.16883437  0.83412601  1
  Ni  Ni39  1  0.49958916  0.50042822  0.50145470  1
  Ni  Ni40  1  0.33640212  0.33261792  0.66521226  1
  Ni  Ni41  1  0.50253520  0.49849580  0.83356039  1
  Ni  Ni42  1  0.50087354  0.83473399  0.50032454  1
  Fe  Fe43  1  0.33480583  0.66772244  0.66557910  1
  Cr  Cr44  1  0.50048634  0.83502482  0.83504470  1
  Ni  Ni45  1  0.83276383  0.16504317  0.50024846  1
  Ni  Ni46  1  0.66758903  0.00081327  0.66583827  1
  Ni  Ni47  1  0.83119424  0.16723738  0.83349517  1
  Cr  Cr48  1  0.83275978  0.50035563  0.50005855  1
  Ni  Ni49  1  0.66396770  0.33391620  0.66836552  1
  Ni  Ni50  1  0.83175201  0.50181450  0.83543040  1
  Ni  Ni51  1  0.83352879  0.83591925  0.50048534  1
  Ni  Ni52  1  0.66738363  0.66731639  0.66721643  1
  Ni  Ni53  1  0.83421530  0.83301033  0.83298655  1
" 