6637,Ni85Fe12Cr2_3,-239.773758914078, 191.209665964356,Ni85Fe12Cr2,"# generated using pymatgen
 data_CrFe2Ni15
_symmetry_space_group_name_H-M   'P 1'
_cell_length_a   7.44060576
_cell_length_b   7.44060576
_cell_length_c   10.52260557
_cell_angle_alpha   90.00000000
_cell_angle_beta   90.00000000
_cell_angle_gamma   90.00000000
_symmetry_Int_Tables_number   1
_chemical_formula_structural   CrFe2Ni15
_chemical_formula_sum   'Cr3 Fe6 Ni45'
_cell_volume   582.55895110
_cell_formula_units_Z   3
loop_
 _symmetry_equiv_pos_site_id
 _symmetry_equiv_pos_as_xyz
  1  'x, y, z'
loop_
 _atom_site_type_symbol
 _atom_site_label
 _atom_site_symmetry_multiplicity
 _atom_site_fract_x
 _atom_site_fract_y
 _atom_site_fract_z
 _atom_site_occupancy
  Ni  Ni0  1  1.00097145  0.00310588  0.99989945  1
  Ni  Ni1  1  0.16864635  0.16936082  0.16857850  1
  Ni  Ni2  1  1.00072016  0.00423393  0.33632522  1
  Ni  Ni3  1  0.00198148  0.33519961  0.00193356  1
  Ni  Ni4  1  0.16938722  0.50047635  0.16844994  1
  Ni  Ni5  1  0.00192489  0.33409149  0.33463833  1
  Ni  Ni6  1  1.00049301  0.66709781  1.00162195  1
  Cr  Cr7  1  0.16750378  0.83581791  0.16841747  1
  Fe  Fe8  1  0.00274098  0.66808744  0.33557069  1
  Ni  Ni9  1  0.33621124  0.00347759  1.00092100  1
  Ni  Ni10  1  0.50246242  0.16989241  0.17011566  1
  Ni  Ni11  1  0.33540355  0.00260005  0.33648125  1
  Ni  Ni12  1  0.33491448  0.33457966  0.00230981  1
  Ni  Ni13  1  0.50144825  0.49941766  0.16695428  1
  Ni  Ni14  1  0.33452430  0.33534156  0.33474296  1
  Ni  Ni15  1  0.33613742  0.66730659  1.00006696  1
  Fe  Fe16  1  0.50148217  0.83596754  0.16756698  1
  Ni  Ni17  1  0.33555455  0.66709753  0.33635878  1
  Ni  Ni18  1  0.66806206  0.00180641  0.00270963  1
  Ni  Ni19  1  0.83437820  0.16825098  0.16768006  1
  Ni  Ni20  1  0.66902426  0.00288468  0.33459344  1
  Ni  Ni21  1  0.66847746  0.33516569  1.00147465  1
  Ni  Ni22  1  0.83483366  0.50049844  0.16860589  1
  Ni  Ni23  1  0.66898164  0.33396263  0.33634609  1
  Ni  Ni24  1  0.66868142  0.66840719  0.00187165  1
  Ni  Ni25  1  0.83491488  0.83666899  0.16766277  1
  Cr  Cr26  1  0.66775065  0.66867325  0.33433655  1
  Ni  Ni27  1  0.16696515  0.16868577  0.50142195  1
  Ni  Ni28  1  1.00141428  0.00406544  0.66890279  1
  Ni  Ni29  1  0.16928255  0.16844734  0.83534641  1
  Ni  Ni30  1  0.17111798  0.50038853  0.50021994  1
  Ni  Ni31  1  0.00288188  0.33352782  0.66885329  1
  Ni  Ni32  1  0.16919299  0.50050224  0.83644638  1
  Ni  Ni33  1  0.16919925  0.83631119  0.50147353  1
  Cr  Cr34  1  0.00240431  0.66836173  0.66733193  1
  Ni  Ni35  1  0.16879527  0.83641177  0.83495549  1
  Fe  Fe36  1  0.50072783  0.16739475  0.50158851  1
  Ni  Ni37  1  0.33534105  0.00208064  0.66795174  1
  Ni  Ni38  1  0.50138807  0.16872685  0.83397912  1
  Ni  Ni39  1  0.50106176  0.50066262  0.50356222  1
  Ni  Ni40  1  0.33356276  0.33501040  0.66824174  1
  Ni  Ni41  1  0.50216905  0.50095175  0.83497657  1
  Ni  Ni42  1  0.50168313  0.83442391  0.50218972  1
  Ni  Ni43  1  0.33743839  0.66800361  0.66889760  1
  Ni  Ni44  1  0.50248920  0.83555197  0.83571651  1
  Ni  Ni45  1  0.83488751  0.16788785  0.50263783  1
  Ni  Ni46  1  0.66824161  1.00030957  0.66805603  1
  Fe  Fe47  1  0.83461658  0.16855796  0.83514463  1
  Fe  Fe48  1  0.83583920  0.50051914  0.50207539  1
  Fe  Fe49  1  0.66780631  0.33463031  0.66860912  1
  Ni  Ni50  1  0.83381150  0.50166461  0.83510967  1
  Ni  Ni51  1  0.83477013  0.83845954  0.50131457  1
  Ni  Ni52  1  0.66698297  0.66935310  0.66874655  1
  Ni  Ni53  1  0.83426786  0.83558999  0.83596778  1
" 