5626,Ni85Fe15_14,-230.783839225464, 169.882877824054,Ni85Fe15,"# generated using pymatgen
 data_Fe5Ni
_symmetry_space_group_name_H-M   'P 1'
_cell_length_a   7.40412782
_cell_length_b   7.40412782
_cell_length_c   10.47101798
_cell_angle_alpha   90.00000000
_cell_angle_beta   90.00000000
_cell_angle_gamma   90.00000000
_symmetry_Int_Tables_number   1
_chemical_formula_structural   Fe5Ni
_chemical_formula_sum   'Fe45 Ni9'
_cell_volume   574.03281518
_cell_formula_units_Z   9
loop_
 _symmetry_equiv_pos_site_id
 _symmetry_equiv_pos_as_xyz
  1  'x, y, z'
loop_
 _atom_site_type_symbol
 _atom_site_label
 _atom_site_symmetry_multiplicity
 _atom_site_fract_x
 _atom_site_fract_y
 _atom_site_fract_z
 _atom_site_occupancy
  Fe  Fe0  1  1.00380352  1.00407136  0.00495864  1
  Fe  Fe1  1  0.17073511  0.16894633  0.17108806  1
  Fe  Fe2  1  1.00356500  1.00375761  0.33704832  1
  Fe  Fe3  1  1.00407424  0.33731614  0.00442638  1
  Fe  Fe4  1  0.17023799  0.50526750  0.17073576  1
  Fe  Fe5  1  1.00380472  0.33704665  0.33767013  1
  Fe  Fe6  1  0.00442752  0.67136108  0.00451123  1
  Ni  Ni7  1  0.17189564  0.83670260  0.17081327  1
  Fe  Fe8  1  0.00449207  0.67194469  0.33714080  1
  Fe  Fe9  1  0.33758385  1.00371513  0.00459980  1
  Fe  Fe10  1  0.50433752  0.16894605  0.17099739  1
  Ni  Ni11  1  0.33670256  0.00437208  0.33636470  1
  Fe  Fe12  1  0.33749378  0.33785257  1.00407317  1
  Fe  Fe13  1  0.50519271  0.50561982  0.17108986  1
  Fe  Fe14  1  0.33807886  0.33791113  0.33757840  1
  Fe  Fe15  1  0.33749423  0.67117215  0.00459753  1
  Ni  Ni16  1  0.50338264  0.83669750  0.17082596  1
  Fe  Fe17  1  0.33811964  0.67179700  0.33705488  1
  Fe  Fe18  1  0.67135870  1.00407105  0.00495826  1
  Ni  Ni19  1  0.83747789  0.17108115  0.17056273  1
  Fe  Fe20  1  0.67100129  1.00371711  0.33695703  1
  Fe  Fe21  1  0.67117932  0.33722555  1.00365759  1
  Fe  Fe22  1  0.83732031  0.50577447  0.17108960  1
  Fe  Fe23  1  0.67086303  0.33698361  0.33834714  1
  Fe  Fe24  1  0.67082546  0.67145076  0.00527817  1
  Ni  Ni25  1  0.83747014  0.83854801  0.17123907  1
  Ni  Ni26  1  0.67200610  0.67026427  0.33703753  1
  Fe  Fe27  1  0.17101181  0.17037801  0.50433682  1
  Fe  Fe28  1  1.00383572  0.00509479  0.67074346  1
  Fe  Fe29  1  0.17136028  0.17064830  0.83732074  1
  Fe  Fe30  1  0.17015058  0.50357527  0.50433756  1
  Fe  Fe31  1  1.00404440  0.33673232  0.67065338  1
  Fe  Fe32  1  0.17082334  0.50424826  0.83767348  1
  Fe  Fe33  1  0.17086539  0.83879474  0.50393484  1
  Fe  Fe34  1  0.00442990  0.67091984  0.67109560  1
  Fe  Fe35  1  0.17117823  0.83784936  0.83772439  1
  Fe  Fe36  1  0.50432741  0.17073236  0.50479121  1
  Ni  Ni37  1  0.33670290  1.00411343  0.67169141  1
  Fe  Fe38  1  0.50407087  0.17100494  0.83695768  1
  Fe  Fe39  1  0.50554771  0.50357449  0.50433881  1
  Fe  Fe40  1  0.33812155  0.33722903  0.67109521  1
  Fe  Fe41  1  0.50461004  0.50389487  0.83731717  1
  Fe  Fe42  1  0.50447261  0.83844233  0.50348321  1
  Fe  Fe43  1  0.33807957  0.67077334  0.67109175  1
  Fe  Fe44  1  0.50389565  0.83785002  0.83781530  1
  Ni  Ni45  1  0.83736104  0.17134349  0.50535020  1
  Fe  Fe46  1  0.67073059  0.00513861  0.67083379  1
  Fe  Fe47  1  0.83731558  0.17136110  0.83731759  1
  Fe  Fe48  1  0.83705489  0.50372195  0.50442998  1
  Ni  Ni49  1  0.67190000  0.33846234  0.67101843  1
  Fe  Fe50  1  0.83731673  0.50407921  0.83722650  1
  Fe  Fe51  1  0.83740622  0.83757765  0.50357683  1
  Fe  Fe52  1  0.67023770  0.67097989  0.67041720  1
  Fe  Fe53  1  0.83766969  0.83731089  0.83817026  1
" 