3551,Ni85Fe9Cr4_14,-238.41107814944, 182.592610320994,Ni85Fe9Cr4,"# generated using pymatgen
 data_Cr2Fe2Ni23
_symmetry_space_group_name_H-M   'P 1'
_cell_length_a   7.45238371
_cell_length_b   7.45238371
_cell_length_c   10.53926211
_cell_angle_alpha   90.00000000
_cell_angle_beta   90.00000000
_cell_angle_gamma   90.00000000
_symmetry_Int_Tables_number   1
_chemical_formula_structural   Cr2Fe2Ni23
_chemical_formula_sum   'Cr4 Fe4 Ni46'
_cell_volume   585.32978095
_cell_formula_units_Z   2
loop_
 _symmetry_equiv_pos_site_id
 _symmetry_equiv_pos_as_xyz
  1  'x, y, z'
loop_
 _atom_site_type_symbol
 _atom_site_label
 _atom_site_symmetry_multiplicity
 _atom_site_fract_x
 _atom_site_fract_y
 _atom_site_fract_z
 _atom_site_occupancy
  Ni  Ni0  1  0.99988775  0.00104101  0.00119427  1
  Ni  Ni1  1  0.16541412  0.16589872  0.16924361  1
  Fe  Fe2  1  0.99957522  0.99972806  0.33392486  1
  Ni  Ni3  1  0.99848400  0.33368959  1.00044500  1
  Cr  Cr4  1  0.16668084  0.50225555  0.16769863  1
  Ni  Ni5  1  0.99958067  0.33400199  0.33471629  1
  Ni  Ni6  1  0.99995729  0.66818207  1.00024879  1
  Ni  Ni7  1  0.16667799  0.83480115  0.16820895  1
  Ni  Ni8  1  1.00014036  0.66706897  0.33529234  1
  Cr  Cr9  1  0.33549757  0.99932964  0.00154953  1
  Ni  Ni10  1  0.50343080  0.16754386  0.16901200  1
  Ni  Ni11  1  0.33484379  1.00055069  0.33410875  1
  Cr  Cr12  1  0.33517441  0.33402786  0.99993741  1
  Ni  Ni13  1  0.50382311  0.50232448  0.16803811  1
  Fe  Fe14  1  0.33612435  0.33444920  0.33547996  1
  Ni  Ni15  1  0.33500408  0.66914335  1.00024902  1
  Ni  Ni16  1  0.50203250  0.83329423  0.16828015  1
  Ni  Ni17  1  0.33470689  0.67052365  0.33502399  1
  Ni  Ni18  1  0.66879012  1.00096446  0.00123888  1
  Ni  Ni19  1  0.83408432  0.16758427  0.16721774  1
  Ni  Ni20  1  0.66617213  0.00100297  0.33415099  1
  Ni  Ni21  1  0.66983858  0.33409108  0.00101648  1
  Ni  Ni22  1  0.83280677  0.50087917  0.16748309  1
  Ni  Ni23  1  0.66953412  0.33381446  0.33448882  1
  Ni  Ni24  1  0.66793114  0.66787011  0.00151697  1
  Ni  Ni25  1  0.83409978  0.83434838  0.16693078  1
  Ni  Ni26  1  0.66818361  0.66810234  0.33447090  1
  Ni  Ni27  1  0.16820692  0.16638450  0.49995912  1
  Fe  Fe28  1  1.00089006  0.99986469  0.66791776  1
  Ni  Ni29  1  0.16628054  0.16627694  0.83368939  1
  Ni  Ni30  1  0.16851960  0.50211500  0.50062221  1
  Cr  Cr31  1  1.00031357  0.33598472  0.66774996  1
  Ni  Ni32  1  0.16749045  0.50317100  0.83435946  1
  Ni  Ni33  1  0.16769876  0.83431288  0.50099848  1
  Ni  Ni34  1  1.00091969  0.66817874  0.66737070  1
  Ni  Ni35  1  0.16724316  0.83335956  0.83384732  1
  Ni  Ni36  1  0.50148583  0.16729015  0.50144451  1
  Ni  Ni37  1  0.33500351  1.00073067  0.66768726  1
  Ni  Ni38  1  0.50348812  0.16736083  0.83248923  1
  Ni  Ni39  1  0.50132003  0.50139978  0.50142414  1
  Ni  Ni40  1  0.33493768  0.33358918  0.66700649  1
  Ni  Ni41  1  0.50230118  0.50229689  0.83340505  1
  Ni  Ni42  1  0.50101048  0.83438585  0.50099248  1
  Ni  Ni43  1  0.33381701  0.66855982  0.66772519  1
  Ni  Ni44  1  0.50138376  0.83336562  0.83375139  1
  Ni  Ni45  1  0.83325703  0.16654626  0.50021434  1
  Ni  Ni46  1  0.66644896  1.00093409  0.66753360  1
  Ni  Ni47  1  0.83305404  0.16713536  0.83557264  1
  Ni  Ni48  1  0.83332319  0.50170344  0.49996883  1
  Ni  Ni49  1  0.66714930  0.33391638  0.66756909  1
  Ni  Ni50  1  0.83318895  0.50120358  0.83554128  1
  Ni  Ni51  1  0.83407717  0.83446757  0.50169789  1
  Ni  Ni52  1  0.66820388  0.66803420  0.66699608  1
  Fe  Fe53  1  0.83363816  0.83404832  0.83442712  1
" 