8167,Ni85Fe9Cr4_7,-238.10409589401, 181.137553074267,Ni85Fe9Cr4,"# generated using pymatgen
 data_Cr2Fe2Ni23
_symmetry_space_group_name_H-M   'P 1'
_cell_length_a   7.44891480
_cell_length_b   7.44891480
_cell_length_c   10.53435633
_cell_angle_alpha   90.00000000
_cell_angle_beta   90.00000000
_cell_angle_gamma   90.00000000
_symmetry_Int_Tables_number   1
_chemical_formula_structural   Cr2Fe2Ni23
_chemical_formula_sum   'Cr4 Fe4 Ni46'
_cell_volume   584.51278961
_cell_formula_units_Z   2
loop_
 _symmetry_equiv_pos_site_id
 _symmetry_equiv_pos_as_xyz
  1  'x, y, z'
loop_
 _atom_site_type_symbol
 _atom_site_label
 _atom_site_symmetry_multiplicity
 _atom_site_fract_x
 _atom_site_fract_y
 _atom_site_fract_z
 _atom_site_occupancy
  Ni  Ni0  1  1.00055308  1.00106384  0.00247542  1
  Ni  Ni1  1  0.16869789  0.16732281  0.16796956  1
  Ni  Ni2  1  0.00191759  1.00046565  0.33358586  1
  Ni  Ni3  1  1.00073299  0.33339429  0.00130723  1
  Ni  Ni4  1  0.17010973  0.50107201  0.16800421  1
  Ni  Ni5  1  1.00113011  0.33442544  0.33435200  1
  Fe  Fe6  1  0.00264194  0.66829152  1.00026879  1
  Ni  Ni7  1  0.16769676  0.83525460  0.16803379  1
  Ni  Ni8  1  0.00218526  0.66876071  0.33497442  1
  Ni  Ni9  1  0.33440022  1.00006714  0.00220810  1
  Ni  Ni10  1  0.49969256  0.16926453  0.16719358  1
  Ni  Ni11  1  0.33328955  1.00028150  0.33364139  1
  Ni  Ni12  1  0.33528288  0.33545208  0.00238723  1
  Ni  Ni13  1  0.49961093  0.50045525  0.16774880  1
  Ni  Ni14  1  0.33520747  0.33573682  0.33308623  1
  Ni  Ni15  1  0.33523432  0.66813214  0.00127291  1
  Fe  Fe16  1  0.49977139  0.83358685  0.16716949  1
  Ni  Ni17  1  0.33433384  0.66763003  0.33445361  1
  Fe  Fe18  1  0.66768828  0.00201756  1.00059840  1
  Ni  Ni19  1  0.83525691  0.16685389  0.16697860  1
  Cr  Cr20  1  0.66842129  0.00143149  0.33429279  1
  Ni  Ni21  1  0.66763717  0.33423157  1.00047526  1
  Cr  Cr22  1  0.83400963  0.50163669  0.16868948  1
  Ni  Ni23  1  0.66731304  0.33546966  0.33544439  1
  Ni  Ni24  1  0.66663777  0.66830907  1.00065548  1
  Ni  Ni25  1  0.83587687  0.83534402  0.16703865  1
  Ni  Ni26  1  0.66713124  0.66684213  0.33551443  1
  Cr  Cr27  1  0.16837528  0.16751838  0.50121442  1
  Ni  Ni28  1  0.99937535  0.99962228  0.66758703  1
  Cr  Cr29  1  0.16868809  0.16803011  0.83408205  1
  Ni  Ni30  1  0.16782552  0.50292176  0.50096618  1
  Ni  Ni31  1  0.99932000  0.33584906  0.66799104  1
  Ni  Ni32  1  0.16732228  0.50281819  0.83468274  1
  Ni  Ni33  1  0.16801664  0.83303447  0.50141520  1
  Ni  Ni34  1  0.00143195  0.66818010  0.66846123  1
  Ni  Ni35  1  0.16833341  0.83265264  0.83420385  1
  Ni  Ni36  1  0.50194089  0.16874310  0.50222032  1
  Ni  Ni37  1  0.33614595  0.99936568  0.66779899  1
  Ni  Ni38  1  0.50264897  0.16743040  0.83423757  1
  Ni  Ni39  1  0.50177932  0.50126310  0.50125047  1
  Ni  Ni40  1  0.33613071  0.33603438  0.66817622  1
  Fe  Fe41  1  0.50163718  0.50162398  0.83476254  1
  Ni  Ni42  1  0.50053725  0.83364482  0.50155732  1
  Ni  Ni43  1  0.33427245  0.66825416  0.66792453  1
  Ni  Ni44  1  0.50124938  0.83499077  0.83486279  1
  Ni  Ni45  1  0.83343810  0.16893572  0.50202924  1
  Ni  Ni46  1  0.66812999  0.00147910  0.66864403  1
  Ni  Ni47  1  0.83248467  0.16844030  0.83464347  1
  Ni  Ni48  1  0.83404686  0.50151972  0.50090500  1
  Ni  Ni49  1  0.66820340  0.33397740  0.66773314  1
  Ni  Ni50  1  0.83481936  0.50141948  0.83446255  1
  Ni  Ni51  1  0.83509621  0.83319639  0.50208539  1
  Ni  Ni52  1  0.66794784  0.66819592  0.66748258  1
  Ni  Ni53  1  0.83406802  0.83379111  0.83452581  1
" 