875,Ni85Fe12Cr2_18,-239.726557566367, 191.604116020256,Ni85Fe12Cr2,"# generated using pymatgen
 data_CrFe2Ni15
_symmetry_space_group_name_H-M   'P 1'
_cell_length_a   7.44202196
_cell_length_b   7.44202196
_cell_length_c   10.52460839
_cell_angle_alpha   90.00000000
_cell_angle_beta   90.00000000
_cell_angle_gamma   90.00000000
_symmetry_Int_Tables_number   1
_chemical_formula_structural   CrFe2Ni15
_chemical_formula_sum   'Cr3 Fe6 Ni45'
_cell_volume   582.89165838
_cell_formula_units_Z   3
loop_
 _symmetry_equiv_pos_site_id
 _symmetry_equiv_pos_as_xyz
  1  'x, y, z'
loop_
 _atom_site_type_symbol
 _atom_site_label
 _atom_site_symmetry_multiplicity
 _atom_site_fract_x
 _atom_site_fract_y
 _atom_site_fract_z
 _atom_site_occupancy
  Ni  Ni0  1  0.00273594  0.00259690  1.00120739  1
  Ni  Ni1  1  0.16821394  0.16674542  0.16830112  1
  Ni  Ni2  1  0.00235598  0.00350359  0.33494906  1
  Ni  Ni3  1  1.00070710  0.33409834  1.00120706  1
  Cr  Cr4  1  0.16869674  0.50175522  0.16894170  1
  Ni  Ni5  1  1.00127625  0.33401624  0.33602298  1
  Ni  Ni6  1  1.00119765  0.66834912  1.00070630  1
  Ni  Ni7  1  0.17009533  0.83672064  0.16774854  1
  Ni  Ni8  1  0.99994409  0.66752450  0.33580798  1
  Ni  Ni9  1  0.33504625  0.00179029  0.00249793  1
  Ni  Ni10  1  0.50144422  0.16829701  0.16820568  1
  Ni  Ni11  1  0.33529445  0.00263036  0.33355918  1
  Ni  Ni12  1  0.33605883  0.33389116  1.00116237  1
  Ni  Ni13  1  0.50285136  0.50196135  0.16804484  1
  Ni  Ni14  1  0.33529456  0.33380936  0.33595639  1
  Ni  Ni15  1  0.33637614  0.66936473  1.00125108  1
  Ni  Ni16  1  0.49994713  0.83478591  0.16824724  1
  Ni  Ni17  1  0.33749739  0.66860357  0.33516563  1
  Ni  Ni18  1  0.66726322  0.00227927  1.00111856  1
  Ni  Ni19  1  0.83538650  0.16964993  0.16798877  1
  Fe  Fe20  1  0.66770133  0.00174494  0.33572996  1
  Ni  Ni21  1  0.66827605  0.33542808  0.00245380  1
  Ni  Ni22  1  0.83344983  0.50008079  0.16782848  1
  Fe  Fe23  1  0.66867482  0.33585602  0.33462191  1
  Ni  Ni24  1  0.66747035  0.66733563  1.00120782  1
  Cr  Cr25  1  0.83526465  0.83518496  0.16876200  1
  Ni  Ni26  1  0.66760310  0.66752456  0.33576193  1
  Ni  Ni27  1  0.16740184  0.17055221  0.50160414  1
  Ni  Ni28  1  1.00105360  0.00234727  0.66888827  1
  Ni  Ni29  1  0.16778671  0.16937423  0.83513998  1
  Ni  Ni30  1  0.16868023  0.49945353  0.50162477  1
  Ni  Ni31  1  0.00224458  0.33517058  0.66781359  1
  Ni  Ni32  1  0.16906191  0.50103171  0.83455377  1
  Cr  Cr33  1  0.16807212  0.83487258  0.50176569  1
  Ni  Ni34  1  0.99977574  0.66752516  0.66852975  1
  Fe  Fe35  1  0.16849280  0.83567669  0.83570291  1
  Fe  Fe36  1  0.50141025  0.16864202  0.50225507  1
  Ni  Ni37  1  0.33602105  0.00336108  0.66898778  1
  Ni  Ni38  1  0.50167411  0.16829777  0.83466339  1
  Ni  Ni39  1  0.50131094  0.50246403  0.50160498  1
  Ni  Ni40  1  0.33488734  0.33421731  0.66792612  1
  Ni  Ni41  1  0.50044962  0.50215962  0.83539624  1
  Ni  Ni42  1  0.50385368  0.83410727  0.50160227  1
  Fe  Fe43  1  0.33623215  0.66713337  0.66899298  1
  Ni  Ni44  1  0.50280408  0.83458604  0.83519468  1
  Ni  Ni45  1  0.83598289  0.16801151  0.50175770  1
  Ni  Ni46  1  0.66797104  1.00089417  0.66770925  1
  Ni  Ni47  1  0.83558334  0.16701992  0.83529664  1
  Ni  Ni48  1  0.83505253  0.50164744  0.50193462  1
  Ni  Ni49  1  0.66791071  0.33549081  0.66794637  1
  Fe  Fe50  1  0.83460558  0.50132462  0.83509826  1
  Ni  Ni51  1  0.83297320  0.83538493  0.50177623  1
  Ni  Ni52  1  0.66892311  0.66865830  0.66807456  1
  Ni  Ni53  1  0.83445590  0.83586215  0.83449849  1
" 