2458,Ni85Fe12Cr2_7,-239.566263586787, 190.241511684368,Ni85Fe12Cr2,"# generated using pymatgen
 data_CrFe2Ni15
_symmetry_space_group_name_H-M   'P 1'
_cell_length_a   7.44073304
_cell_length_b   7.44073304
_cell_length_c   10.52278558
_cell_angle_alpha   90.00000000
_cell_angle_beta   90.00000000
_cell_angle_gamma   90.00000000
_symmetry_Int_Tables_number   1
_chemical_formula_structural   CrFe2Ni15
_chemical_formula_sum   'Cr3 Fe6 Ni45'
_cell_volume   582.58884837
_cell_formula_units_Z   3
loop_
 _symmetry_equiv_pos_site_id
 _symmetry_equiv_pos_as_xyz
  1  'x, y, z'
loop_
 _atom_site_type_symbol
 _atom_site_label
 _atom_site_symmetry_multiplicity
 _atom_site_fract_x
 _atom_site_fract_y
 _atom_site_fract_z
 _atom_site_occupancy
  Ni  Ni0  1  0.00190956  1.00159193  0.00181745  1
  Ni  Ni1  1  0.16844141  0.16943993  0.16703717  1
  Ni  Ni2  1  0.00275976  0.00295100  0.33372286  1
  Ni  Ni3  1  0.99992585  0.33552021  1.00146127  1
  Ni  Ni4  1  0.16798181  0.49996045  0.16891763  1
  Ni  Ni5  1  1.00126599  0.33463598  0.33505871  1
  Ni  Ni6  1  1.00042167  0.66841731  0.00190989  1
  Fe  Fe7  1  0.16769960  0.83651387  0.16867911  1
  Ni  Ni8  1  0.00280287  0.66766924  0.33359847  1
  Ni  Ni9  1  0.33539120  0.00272954  1.00145363  1
  Ni  Ni10  1  0.50119378  0.16841167  0.16889843  1
  Ni  Ni11  1  0.33524417  1.00154336  0.33523223  1
  Ni  Ni12  1  0.33619611  0.33365598  0.00177262  1
  Ni  Ni13  1  0.50163821  0.50069880  0.16890869  1
  Ni  Ni14  1  0.33431901  0.33389082  0.33325704  1
  Cr  Cr15  1  0.33484158  0.66845823  0.00222089  1
  Ni  Ni16  1  0.50372449  0.83634359  0.16893276  1
  Ni  Ni17  1  0.33458713  0.67009047  0.33390043  1
  Fe  Fe18  1  0.66879004  0.00341652  0.00210108  1
  Ni  Ni19  1  0.83568940  0.16752341  0.16841700  1
  Ni  Ni20  1  0.66746362  0.00274194  0.33388421  1
  Ni  Ni21  1  0.66901408  0.33516905  0.00237845  1
  Ni  Ni22  1  0.83587263  0.50216509  0.16892299  1
  Ni  Ni23  1  0.66987762  0.33376668  0.33417162  1
  Fe  Fe24  1  0.67014575  0.66708925  0.00198478  1
  Ni  Ni25  1  0.83529483  0.83564838  0.16763944  1
  Ni  Ni26  1  0.66808911  0.66859748  0.33238098  1
  Ni  Ni27  1  0.16839885  0.16896324  0.50292102  1
  Ni  Ni28  1  0.00258900  0.00254057  0.66954023  1
  Fe  Fe29  1  0.16736530  0.16911421  0.83585504  1
  Ni  Ni30  1  0.16808831  0.50155310  0.50207790  1
  Ni  Ni31  1  1.00066897  0.33500098  0.66893356  1
  Ni  Ni32  1  0.16839016  0.50200600  0.83443982  1
  Ni  Ni33  1  0.16890029  0.83472863  0.50090425  1
  Ni  Ni34  1  0.00280435  0.66780367  0.66924571  1
  Ni  Ni35  1  0.16642939  0.83548670  0.83438915  1
  Ni  Ni36  1  0.50176809  0.16741387  0.50123105  1
  Ni  Ni37  1  0.33506185  1.00143581  0.66856916  1
  Ni  Ni38  1  0.50197660  0.16921041  0.83513501  1
  Cr  Cr39  1  0.50026929  0.50148823  0.50127237  1
  Ni  Ni40  1  0.33478396  0.33403314  0.67037115  1
  Ni  Ni41  1  0.50176174  0.49917851  0.83484261  1
  Ni  Ni42  1  0.50107224  0.83622480  0.50289959  1
  Ni  Ni43  1  0.33427192  0.66979269  0.66927433  1
  Fe  Fe44  1  0.50234692  0.83547587  0.83419990  1
  Ni  Ni45  1  0.83527965  0.16806895  0.50166480  1
  Ni  Ni46  1  0.66758487  0.00312766  0.66986044  1
  Ni  Ni47  1  0.83395126  0.16748512  0.83527796  1
  Fe  Fe48  1  0.83614568  0.50089603  0.50166341  1
  Ni  Ni49  1  0.66962194  0.33386187  0.66854076  1
  Ni  Ni50  1  0.83545265  0.50197130  0.83444509  1
  Cr  Cr51  1  0.83486471  0.83600710  0.50202278  1
  Ni  Ni52  1  0.66836169  0.66811246  0.67157924  1
  Ni  Ni53  1  0.83669603  0.83586593  0.83567089  1
" 