1285,Ni85Cr15_2,-205.658977342395, 169.418759021655,Ni85Cr15,"# generated using pymatgen
 data_Cr5Ni
_symmetry_space_group_name_H-M   'P 1'
_cell_length_a   7.58599800
_cell_length_b   7.58599800
_cell_length_c   10.72822125
_cell_angle_alpha   90.00000000
_cell_angle_beta   90.00000000
_cell_angle_gamma   90.00000000
_symmetry_Int_Tables_number   1
_chemical_formula_structural   Cr5Ni
_chemical_formula_sum   'Cr45 Ni9'
_cell_volume   617.38087046
_cell_formula_units_Z   9
loop_
 _symmetry_equiv_pos_site_id
 _symmetry_equiv_pos_as_xyz
  1  'x, y, z'
loop_
 _atom_site_type_symbol
 _atom_site_label
 _atom_site_symmetry_multiplicity
 _atom_site_fract_x
 _atom_site_fract_y
 _atom_site_fract_z
 _atom_site_occupancy
  Cr  Cr0  1  0.99195619  -0.00766268  0.99097889  1
  Cr  Cr1  1  0.15860541  0.15818788  0.16004954  1
  Ni  Ni2  1  0.99092271  -0.00678156  0.32704605  1
  Cr  Cr3  1  -0.00767375  0.32637836  0.99156547  1
  Cr  Cr4  1  0.15793839  0.49248344  0.15820663  1
  Cr  Cr5  1  0.99022874  0.32316016  0.32579720  1
  Ni  Ni6  1  0.98971329  0.65896809  0.99194722  1
  Cr  Cr7  1  0.15765486  0.82579976  0.15988140  1
  Cr  Cr8  1  0.99162131  0.65956180  0.32580561  1
  Cr  Cr9  1  0.32726998  0.99132385  -0.00755963  1
  Cr  Cr10  1  0.49246781  0.15698331  0.15752020  1
  Cr  Cr11  1  0.32503923  0.98990431  0.32359073  1
  Cr  Cr12  1  0.32428623  0.32471974  0.99142245  1
  Cr  Cr13  1  0.49375069  0.49415556  0.15956400  1
  Cr  Cr14  1  0.32546657  0.32615946  0.32466079  1
  Cr  Cr15  1  0.32612865  0.66042050  -0.00625445  1
  Ni  Ni16  1  0.49540614  0.82424194  0.15779414  1
  Cr  Cr17  1  0.32794870  0.66042718  0.32467608  1
  Ni  Ni18  1  0.65798351  0.98850966  -0.00684067  1
  Cr  Cr19  1  0.82543736  0.15675634  0.15963537  1
  Cr  Cr20  1  0.65990969  0.99136389  0.32582536  1
  Cr  Cr21  1  0.65982426  0.32519942  -0.00752454  1
  Cr  Cr22  1  0.82484802  0.49509445  0.15722252  1
  Cr  Cr23  1  0.66076199  0.32608957  0.32687334  1
  Ni  Ni24  1  0.65987455  0.66209090  -0.00655126  1
  Cr  Cr25  1  0.82383272  0.82463078  0.15728642  1
  Ni  Ni26  1  0.65786291  0.66010989  0.32427038  1
  Cr  Cr27  1  0.15811584  0.15852490  0.49182119  1
  Cr  Cr28  1  0.99188984  -0.00620878  0.65800320  1
  Ni  Ni29  1  0.16001256  0.16009926  0.82416470  1
  Cr  Cr30  1  0.16034181  0.49136636  0.49314128  1
  Cr  Cr31  1  -0.00773037  0.32403573  0.65913429  1
  Cr  Cr32  1  0.15889151  0.49067282  0.82514358  1
  Cr  Cr33  1  0.15717544  0.82650803  0.49124750  1
  Cr  Cr34  1  -0.00746295  0.65866552  0.65956875  1
  Cr  Cr35  1  0.15686480  0.82608707  0.82536426  1
  Cr  Cr36  1  0.49225063  0.16037454  0.49381861  1
  Cr  Cr37  1  0.32486597  -0.00715607  0.66041651  1
  Cr  Cr38  1  0.49026779  0.15919757  0.82514681  1
  Cr  Cr39  1  0.49183229  0.49141456  0.49278177  1
  Ni  Ni40  1  0.32424323  0.32441052  0.65994557  1
  Cr  Cr41  1  0.49211089  0.49115689  0.82403136  1
  Cr  Cr42  1  0.49319296  0.82470111  0.49146430  1
  Cr  Cr43  1  0.32549106  0.65832614  0.65805716  1
  Cr  Cr44  1  0.49468206  0.82610730  0.82706591  1
  Ni  Ni45  1  0.82670891  0.15769541  0.49101658  1
  Cr  Cr46  1  0.65970329  -0.00688655  0.65827696  1
  Cr  Cr47  1  0.82537577  0.15716145  0.82627659  1
  Cr  Cr48  1  0.82435068  0.49238810  0.49123304  1
  Cr  Cr49  1  0.65936486  0.32459423  0.65717420  1
  Cr  Cr50  1  0.82548416  0.49504633  0.82803509  1
  Cr  Cr51  1  0.82613609  0.82696202  0.49104826  1
  Cr  Cr52  1  0.65846342  0.65879814  0.65817831  1
  Cr  Cr53  1  0.82494441  0.82431448  0.82818807  1
" 