4366,Ni85Cr15_5,-205.710573235812, 170.396072780541,Ni85Cr15,"# generated using pymatgen
 data_Cr5Ni
_symmetry_space_group_name_H-M   'P 1'
_cell_length_a   7.58561668
_cell_length_b   7.58561668
_cell_length_c   10.72768199
_cell_angle_alpha   90.00000000
_cell_angle_beta   90.00000000
_cell_angle_gamma   90.00000000
_symmetry_Int_Tables_number   1
_chemical_formula_structural   Cr5Ni
_chemical_formula_sum   'Cr45 Ni9'
_cell_volume   617.28777636
_cell_formula_units_Z   9
loop_
 _symmetry_equiv_pos_site_id
 _symmetry_equiv_pos_as_xyz
  1  'x, y, z'
loop_
 _atom_site_type_symbol
 _atom_site_label
 _atom_site_symmetry_multiplicity
 _atom_site_fract_x
 _atom_site_fract_y
 _atom_site_fract_z
 _atom_site_occupancy
  Cr  Cr0  1  0.99101530  0.99214556  0.99097878  1
  Cr  Cr1  1  0.15730230  0.15951413  0.15911445  1
  Cr  Cr2  1  0.99098822  -0.00649388  0.32495618  1
  Cr  Cr3  1  0.98990848  0.32433244  0.99208136  1
  Cr  Cr4  1  0.15945814  0.49291808  0.15795909  1
  Cr  Cr5  1  -0.00740926  0.32392464  0.32551767  1
  Cr  Cr6  1  -0.00683517  0.66007700  0.98987172  1
  Cr  Cr7  1  0.15946361  0.82412089  0.15724397  1
  Cr  Cr8  1  0.99203867  0.65912353  0.32607741  1
  Cr  Cr9  1  0.32440810  0.98998364  0.99136347  1
  Cr  Cr10  1  0.49461326  0.15784635  0.15928498  1
  Cr  Cr11  1  0.32583829  -0.00704193  0.32700382  1
  Cr  Cr12  1  0.32607717  0.32705096  -0.00658859  1
  Cr  Cr13  1  0.49079259  0.49291790  0.15762343  1
  Cr  Cr14  1  0.32479285  0.32502981  0.32662732  1
  Ni  Ni15  1  0.32456661  0.65947154  0.99168457  1
  Cr  Cr16  1  0.49245422  0.82578919  0.15929489  1
  Cr  Cr17  1  0.32589333  0.65856454  0.32480300  1
  Cr  Cr18  1  0.66112974  -0.00675443  -0.00753682  1
  Ni  Ni19  1  0.82441074  0.15808360  0.15978941  1
  Ni  Ni20  1  0.65995479  -0.00700406  0.32444536  1
  Cr  Cr21  1  0.66056973  0.32489611  0.99118554  1
  Cr  Cr22  1  0.82630304  0.49075710  0.15947482  1
  Cr  Cr23  1  0.65917007  0.32398255  0.32440937  1
  Cr  Cr24  1  0.65841084  0.65841324  0.99041652  1
  Cr  Cr25  1  0.82463397  0.82794601  0.16114659  1
  Cr  Cr26  1  0.65862245  0.66017032  0.32641337  1
  Ni  Ni27  1  0.16019598  0.15828635  0.49285747  1
  Cr  Cr28  1  -0.00583498  0.99196316  0.66061437  1
  Cr  Cr29  1  0.15844980  0.15699424  0.82403216  1
  Cr  Cr30  1  0.15817384  0.49052997  0.49140581  1
  Cr  Cr31  1  0.99145624  0.32469827  0.65895395  1
  Cr  Cr32  1  0.15788857  0.49415094  0.82718480  1
  Cr  Cr33  1  0.15927901  0.82727901  0.49322960  1
  Cr  Cr34  1  0.99089834  0.65989203  0.66060893  1
  Ni  Ni35  1  0.15842342  0.82527151  0.82557643  1
  Cr  Cr36  1  0.49065877  0.15707821  0.49286183  1
  Ni  Ni37  1  0.32364571  -0.00766647  0.65854472  1
  Cr  Cr38  1  0.49287836  0.15803295  0.82441066  1
  Cr  Cr39  1  0.49226019  0.49214054  0.49230161  1
  Cr  Cr40  1  0.32529824  0.32309275  0.65651284  1
  Cr  Cr41  1  0.49287126  0.49255035  0.82662547  1
  Cr  Cr42  1  0.49281870  0.82733550  0.49174027  1
  Cr  Cr43  1  0.32530232  0.66094185  0.65910993  1
  Cr  Cr44  1  0.49072615  0.82596923  0.82551957  1
  Cr  Cr45  1  0.82606646  0.15818331  0.49063491  1
  Cr  Cr46  1  0.65875184  0.99195806  0.66024169  1
  Ni  Ni47  1  0.82553801  0.15883404  0.82599498  1
  Cr  Cr48  1  0.82612029  0.49269332  0.49245644  1
  Cr  Cr49  1  0.65979940  0.32636609  0.66096200  1
  Ni  Ni50  1  0.82559829  0.49244322  0.82530749  1
  Cr  Cr51  1  0.82445573  0.82567931  0.49045034  1
  Cr  Cr52  1  0.66035150  0.65823007  0.65972918  1
  Ni  Ni53  1  0.82732552  0.82527641  0.82545996  1
" 