8663,Ni85Fe15_5,-230.67804365149, 170.362478301944,Ni85Fe15,"# generated using pymatgen
 data_Fe5Ni
_symmetry_space_group_name_H-M   'P 1'
_cell_length_a   7.39793036
_cell_length_b   7.39793036
_cell_length_c   10.46225345
_cell_angle_alpha   90.00000000
_cell_angle_beta   90.00000000
_cell_angle_gamma   90.00000000
_symmetry_Int_Tables_number   1
_chemical_formula_structural   Fe5Ni
_chemical_formula_sum   'Fe45 Ni9'
_cell_volume   572.59257856
_cell_formula_units_Z   9
loop_
 _symmetry_equiv_pos_site_id
 _symmetry_equiv_pos_as_xyz
  1  'x, y, z'
loop_
 _atom_site_type_symbol
 _atom_site_label
 _atom_site_symmetry_multiplicity
 _atom_site_fract_x
 _atom_site_fract_y
 _atom_site_fract_z
 _atom_site_occupancy
  Fe  Fe0  1  0.00467851  0.00468647  0.00468449  1
  Ni  Ni1  1  0.17131838  0.17134217  0.17134379  1
  Ni  Ni2  1  1.00466874  0.00468303  0.33800556  1
  Fe  Fe3  1  0.00467838  0.33799777  0.00467839  1
  Fe  Fe4  1  0.17134505  0.50466343  0.17134418  1
  Fe  Fe5  1  0.00467388  0.33800851  0.33800222  1
  Fe  Fe6  1  0.00467851  0.67132994  1.00466641  1
  Fe  Fe7  1  0.17133694  0.83802081  0.17134407  1
  Fe  Fe8  1  0.00467490  0.67134057  0.33801120  1
  Fe  Fe9  1  0.33800472  0.00467838  0.00467641  1
  Fe  Fe10  1  0.50466788  0.17133456  0.17133257  1
  Fe  Fe11  1  0.33800584  1.00465529  0.33799872  1
  Ni  Ni12  1  0.33800584  0.33800469  1.00466713  1
  Fe  Fe13  1  0.50466890  0.50466760  0.17133345  1
  Fe  Fe14  1  0.33799675  0.33801269  0.33799959  1
  Fe  Fe15  1  0.33801170  0.67133105  0.00467650  1
  Ni  Ni16  1  0.50467404  0.83799202  0.17133618  1
  Ni  Ni17  1  0.33802066  0.67133028  0.33800270  1
  Fe  Fe18  1  0.67133094  0.00467852  0.00467639  1
  Ni  Ni19  1  0.83802214  0.17133703  0.17133940  1
  Fe  Fe20  1  0.67133792  1.00465631  0.33799873  1
  Fe  Fe21  1  0.67133206  0.33800473  1.00466839  1
  Fe  Fe22  1  0.83800024  0.50466792  0.17134056  1
  Fe  Fe23  1  0.67134354  0.33800820  0.33800322  1
  Fe  Fe24  1  0.67132397  0.67133092  0.00467650  1
  Fe  Fe25  1  0.83800486  0.83801980  0.17134405  1
  Ni  Ni26  1  0.67132439  0.67133542  0.33800709  1
  Fe  Fe27  1  0.17133459  0.17134154  0.50466277  1
  Fe  Fe28  1  1.00467040  0.00467140  0.67133194  1
  Fe  Fe29  1  0.17134965  0.17134765  0.83801533  1
  Ni  Ni30  1  0.17133945  0.50467288  0.50467525  1
  Fe  Fe31  1  0.00467387  0.33800821  0.67133357  1
  Fe  Fe32  1  0.17134856  0.50466891  0.83800011  1
  Fe  Fe33  1  0.17133707  0.83799774  0.50466737  1
  Fe  Fe34  1  0.00467488  0.67133456  0.67133656  1
  Fe  Fe35  1  0.17134318  0.83799762  0.83800274  1
  Fe  Fe36  1  0.50466427  0.17134616  0.50467637  1
  Fe  Fe37  1  0.33800573  1.00467138  0.67133905  1
  Fe  Fe38  1  0.50466790  0.17134956  0.83800522  1
  Fe  Fe39  1  0.50466442  0.50467736  0.50467250  1
  Fe  Fe40  1  0.33800474  0.33801071  0.67134618  1
  Ni  Ni41  1  0.50466891  0.50467834  0.83799874  1
  Fe  Fe42  1  0.50466427  0.83799064  0.50465728  1
  Fe  Fe43  1  0.33800375  0.67133209  0.67133095  1
  Fe  Fe44  1  0.50467238  0.83799772  0.83801085  1
  Fe  Fe45  1  0.83801530  0.17134169  0.50466277  1
  Fe  Fe46  1  0.67133804  0.00467239  0.67133904  1
  Fe  Fe47  1  0.83799662  0.17134417  0.83800985  1
  Fe  Fe48  1  0.83800820  0.50467489  0.50466989  1
  Fe  Fe49  1  0.67133556  0.33800623  0.67134255  1
  Fe  Fe50  1  0.83799671  0.50467339  0.83800373  1
  Fe  Fe51  1  0.83801283  0.83799760  0.50466739  1
  Fe  Fe52  1  0.67133555  0.67133556  0.67133643  1
  Fe  Fe53  1  0.83799862  0.83799661  0.83800275  1
" 