8011,Ni85Fe5Cr9_4,-236.460113860497, 173.066916826728,Ni85Fe5Cr9,"# generated using pymatgen
 data_Cr2FeNi15
_symmetry_space_group_name_H-M   'P 1'
_cell_length_a   7.45621840
_cell_length_b   7.45621840
_cell_length_c   10.54468518
_cell_angle_alpha   90.00000000
_cell_angle_beta   90.00000000
_cell_angle_gamma   90.00000000
_symmetry_Int_Tables_number   1
_chemical_formula_structural   Cr2FeNi15
_chemical_formula_sum   'Cr6 Fe3 Ni45'
_cell_volume   586.23380569
_cell_formula_units_Z   3
loop_
 _symmetry_equiv_pos_site_id
 _symmetry_equiv_pos_as_xyz
  1  'x, y, z'
loop_
 _atom_site_type_symbol
 _atom_site_label
 _atom_site_symmetry_multiplicity
 _atom_site_fract_x
 _atom_site_fract_y
 _atom_site_fract_z
 _atom_site_occupancy
  Ni  Ni0  1  0.00229151  0.99917836  0.99956167  1
  Ni  Ni1  1  0.16999464  0.16995646  0.16646877  1
  Cr  Cr2  1  1.00019554  0.99955789  0.33644131  1
  Ni  Ni3  1  0.00444746  0.33624046  1.00036664  1
  Ni  Ni4  1  0.16776953  0.49966409  0.16685011  1
  Ni  Ni5  1  0.00409753  0.33611077  0.33535630  1
  Ni  Ni6  1  1.00046541  0.66710664  1.00017990  1
  Cr  Cr7  1  0.16925183  0.83243568  0.16717679  1
  Ni  Ni8  1  0.00074170  0.66572966  0.33491554  1
  Ni  Ni9  1  0.33448678  0.00142573  1.00043622  1
  Ni  Ni10  1  0.49692053  0.16535408  0.16719523  1
  Fe  Fe11  1  0.33563330  0.00079896  0.33526965  1
  Ni  Ni12  1  0.33247938  0.33438665  0.00082272  1
  Ni  Ni13  1  0.49833239  0.50335683  0.16747831  1
  Ni  Ni14  1  0.33267768  0.33483026  0.33350459  1
  Ni  Ni15  1  0.33467054  0.66647163  0.99931229  1
  Ni  Ni16  1  0.50169328  0.83314283  0.16732826  1
  Ni  Ni17  1  0.33452016  0.66493796  0.33559740  1
  Ni  Ni18  1  0.66532237  0.99737838  1.00038619  1
  Cr  Cr19  1  0.83600112  0.16669248  0.16540470  1
  Ni  Ni20  1  0.66580210  0.99844594  0.33494026  1
  Cr  Cr21  1  0.66362474  0.33684174  0.00122559  1
  Ni  Ni22  1  0.83620168  0.50412501  0.16779465  1
  Cr  Cr23  1  0.66547511  0.33473398  0.33458942  1
  Ni  Ni24  1  0.66714132  0.66891165  0.00100052  1
  Ni  Ni25  1  0.83195340  0.83104336  0.16589864  1
  Ni  Ni26  1  0.66706766  0.66923684  0.33394219  1
  Ni  Ni27  1  0.16862642  0.16864040  0.50138482  1
  Ni  Ni28  1  0.00204322  0.99869324  0.66674039  1
  Ni  Ni29  1  0.16920062  0.16669648  0.83459671  1
  Ni  Ni30  1  0.16791464  0.50103321  0.50121620  1
  Fe  Fe31  1  0.00187487  0.33506468  0.66649059  1
  Fe  Fe32  1  0.16822288  0.50177185  0.83388212  1
  Ni  Ni33  1  0.16883258  0.83256444  0.50175969  1
  Ni  Ni34  1  0.00104910  0.66904646  0.66699689  1
  Ni  Ni35  1  0.16810477  0.83464731  0.83372628  1
  Ni  Ni36  1  0.49962042  0.16677609  0.50169249  1
  Ni  Ni37  1  0.33315240  0.00100549  0.66655788  1
  Ni  Ni38  1  0.49773083  0.16674092  0.83326053  1
  Ni  Ni39  1  0.49974841  0.50193591  0.50159849  1
  Ni  Ni40  1  0.33491952  0.33414648  0.66772979  1
  Ni  Ni41  1  0.50056947  0.50203906  0.83297230  1
  Ni  Ni42  1  0.50037291  0.83325456  0.50093651  1
  Ni  Ni43  1  0.33355292  0.66713835  0.66744502  1
  Ni  Ni44  1  0.49975027  0.83333565  0.83386023  1
  Ni  Ni45  1  0.83423754  0.16786620  0.50320215  1
  Ni  Ni46  1  0.66688462  0.99982664  0.66668372  1
  Cr  Cr47  1  0.83453444  0.16720502  0.83278197  1
  Ni  Ni48  1  0.83478426  0.50176829  0.50121381  1
  Ni  Ni49  1  0.66497006  0.33519162  0.66610096  1
  Ni  Ni50  1  0.83423247  0.50313984  0.83330191  1
  Ni  Ni51  1  0.83309718  0.83262414  0.50176754  1
  Ni  Ni52  1  0.66759668  0.66712148  0.66725967  1
  Ni  Ni53  1  0.83433189  0.83184600  0.83461156  1
" 