6680,Ni85Fe15_19,-230.666843741805, 174.249442135165,Ni85Fe15,"# generated using pymatgen
 data_Fe5Ni
_symmetry_space_group_name_H-M   'P 1'
_cell_length_a   7.39759861
_cell_length_b   7.39759861
_cell_length_c   10.46178429
_cell_angle_alpha   90.00000000
_cell_angle_beta   90.00000000
_cell_angle_gamma   90.00000000
_symmetry_Int_Tables_number   1
_chemical_formula_structural   Fe5Ni
_chemical_formula_sum   'Fe45 Ni9'
_cell_volume   572.51555078
_cell_formula_units_Z   9
loop_
 _symmetry_equiv_pos_site_id
 _symmetry_equiv_pos_as_xyz
  1  'x, y, z'
loop_
 _atom_site_type_symbol
 _atom_site_label
 _atom_site_symmetry_multiplicity
 _atom_site_fract_x
 _atom_site_fract_y
 _atom_site_fract_z
 _atom_site_occupancy
  Fe  Fe0  1  1.00459933  1.00408022  1.00391086  1
  Fe  Fe1  1  0.17076990  0.17185433  0.17198535  1
  Fe  Fe2  1  0.00531198  0.00521789  0.33872091  1
  Fe  Fe3  1  0.00478910  0.33916321  0.00547631  1
  Fe  Fe4  1  0.17013107  0.50469244  0.17058048  1
  Ni  Ni5  1  1.00388630  0.33871274  0.33825896  1
  Ni  Ni6  1  0.00469426  0.67113703  0.00469403  1
  Fe  Fe7  1  0.17086472  0.83753415  0.17136337  1
  Fe  Fe8  1  0.00502534  0.67117405  0.33698802  1
  Fe  Fe9  1  0.33762467  1.00410683  0.00548240  1
  Fe  Fe10  1  0.50502401  0.17150611  0.17202208  1
  Ni  Ni11  1  0.33871276  1.00423522  0.33837455  1
  Fe  Fe12  1  0.33717885  0.33887806  1.00424356  1
  Fe  Fe13  1  0.50540644  0.50478530  0.17185997  1
  Fe  Fe14  1  0.33792418  0.33740627  0.33854614  1
  Fe  Fe15  1  0.33724543  0.67109640  1.00424356  1
  Fe  Fe16  1  0.50502327  0.83778802  0.17152998  1
  Fe  Fe17  1  0.33769361  0.67111668  0.33838334  1
  Fe  Fe18  1  0.67185822  1.00401221  1.00468991  1
  Fe  Fe19  1  0.83828899  0.17224174  0.17152716  1
  Fe  Fe20  1  0.67108261  0.00545156  0.33809794  1
  Fe  Fe21  1  0.67211528  0.33878458  1.00436097  1
  Ni  Ni22  1  0.83857880  0.50502407  0.17102696  1
  Fe  Fe23  1  0.67103071  0.33769827  0.33887384  1
  Fe  Fe24  1  0.67214230  0.67128643  0.00514434  1
  Fe  Fe25  1  0.83819753  0.83715390  0.17091083  1
  Fe  Fe26  1  0.67136357  0.67093286  0.33793134  1
  Fe  Fe27  1  0.17221077  0.17150261  0.50423960  1
  Ni  Ni28  1  0.00550079  1.00423704  0.67125000  1
  Fe  Fe29  1  0.17110008  0.17152811  0.83786192  1
  Fe  Fe30  1  0.17229902  0.50393944  0.50502872  1
  Fe  Fe31  1  1.00442902  0.33767318  0.67112121  1
  Ni  Ni32  1  0.17080567  0.50501977  0.83823608  1
  Fe  Fe33  1  0.17263747  0.83863573  0.50469552  1
  Fe  Fe34  1  1.00436025  0.67121031  0.67239747  1
  Fe  Fe35  1  0.17084443  0.83750679  0.83802572  1
  Ni  Ni36  1  0.50469634  0.17158397  0.50469624  1
  Fe  Fe37  1  0.33836454  0.00554527  0.67050742  1
  Fe  Fe38  1  0.50436328  0.17221210  0.83736711  1
  Ni  Ni39  1  0.50468997  0.50358851  0.50456891  1
  Fe  Fe40  1  0.33830589  0.33779097  0.67129061  1
  Fe  Fe41  1  0.50433844  0.50443620  0.83707723  1
  Fe  Fe42  1  0.50434210  0.83818635  0.50424252  1
  Fe  Fe43  1  0.33802688  0.67074323  0.67145310  1
  Fe  Fe44  1  0.50400769  0.83743762  0.83831191  1
  Fe  Fe45  1  0.83717802  0.17221225  0.50515199  1
  Fe  Fe46  1  0.67181423  0.00548211  0.67129387  1
  Fe  Fe47  1  0.83861958  0.17186289  0.83740497  1
  Fe  Fe48  1  0.83672697  0.50358829  0.50391212  1
  Ni  Ni49  1  0.67067537  0.33871353  0.67113455  1
  Fe  Fe50  1  0.83854412  0.50468989  0.83880923  1
  Fe  Fe51  1  0.83710883  0.83828501  0.50514465  1
  Fe  Fe52  1  0.67169151  0.67126560  0.67100171  1
  Fe  Fe53  1  0.83923276  0.83752992  0.83802576  1
" 