1858,Ni85Fe14Cr0_13,-241.399123560823, 197.018722526384,Ni85Fe14Cr0,"# generated using pymatgen
 data_CrFe7Ni46
_symmetry_space_group_name_H-M   'P 1'
_cell_length_a   7.43558663
_cell_length_b   7.43558663
_cell_length_c   10.51550746
_cell_angle_alpha   90.00000000
_cell_angle_beta   90.00000000
_cell_angle_gamma   90.00000000
_symmetry_Int_Tables_number   1
_chemical_formula_structural   CrFe7Ni46
_chemical_formula_sum   'Cr1 Fe7 Ni46'
_cell_volume   581.38083545
_cell_formula_units_Z   1
loop_
 _symmetry_equiv_pos_site_id
 _symmetry_equiv_pos_as_xyz
  1  'x, y, z'
loop_
 _atom_site_type_symbol
 _atom_site_label
 _atom_site_symmetry_multiplicity
 _atom_site_fract_x
 _atom_site_fract_y
 _atom_site_fract_z
 _atom_site_occupancy
  Ni  Ni0  1  1.00207143  0.00299011  0.00234758  1
  Ni  Ni1  1  0.16925722  0.16828352  0.16891947  1
  Ni  Ni2  1  1.00175962  0.00255002  0.33562402  1
  Ni  Ni3  1  0.00229978  0.33425435  0.00228389  1
  Ni  Ni4  1  0.16660477  0.50207767  0.16886709  1
  Ni  Ni5  1  0.00285936  0.33529489  0.33486773  1
  Fe  Fe6  1  0.00231698  0.66749732  0.00249598  1
  Ni  Ni7  1  0.16820602  0.83598393  0.16901739  1
  Ni  Ni8  1  1.00170721  0.66850097  0.33427272  1
  Fe  Fe9  1  0.33548160  0.00259184  0.00218605  1
  Ni  Ni10  1  0.50160460  0.16690961  0.16859523  1
  Ni  Ni11  1  0.33578447  0.00238426  0.33450168  1
  Ni  Ni12  1  0.33455542  0.33529871  1.00117385  1
  Cr  Cr13  1  0.50238671  0.50172578  0.16889922  1
  Ni  Ni14  1  0.33390806  0.33468770  0.33587445  1
  Ni  Ni15  1  0.33593611  0.66915869  1.00155755  1
  Ni  Ni16  1  0.50247332  0.83753228  0.16945908  1
  Ni  Ni17  1  0.33522957  0.66927506  0.33604846  1
  Fe  Fe18  1  0.66823373  0.00264755  0.00224197  1
  Fe  Fe19  1  0.83631345  0.16837572  0.16861854  1
  Ni  Ni20  1  0.66880509  1.00123216  0.33454699  1
  Ni  Ni21  1  0.66949412  0.33535277  1.00167415  1
  Ni  Ni22  1  0.83704042  0.50294865  0.16909761  1
  Fe  Fe23  1  0.66940476  0.33471361  0.33663534  1
  Ni  Ni24  1  0.66839242  0.66938502  1.00127634  1
  Ni  Ni25  1  0.83566654  0.83488441  0.16846736  1
  Ni  Ni26  1  0.66940996  0.67037575  0.33610229  1
  Ni  Ni27  1  0.16909710  0.16810734  0.50238662  1
  Ni  Ni28  1  1.00197565  0.00253435  0.66837209  1
  Ni  Ni29  1  0.16860608  0.16828849  0.83503893  1
  Ni  Ni30  1  0.16901874  0.50260837  0.50189814  1
  Ni  Ni31  1  0.00219884  0.33494018  0.66919280  1
  Ni  Ni32  1  0.16864964  0.50246632  0.83558013  1
  Ni  Ni33  1  0.16799130  0.83563096  0.50178073  1
  Ni  Ni34  1  1.00198166  0.66887316  0.66941705  1
  Ni  Ni35  1  0.16920424  0.83558987  0.83554495  1
  Ni  Ni36  1  0.50220637  0.16935836  0.50222113  1
  Ni  Ni37  1  0.33531086  0.00225135  0.66923849  1
  Ni  Ni38  1  0.50252133  0.16883959  0.83552919  1
  Ni  Ni39  1  0.50248294  0.50155532  0.50233828  1
  Ni  Ni40  1  0.33536282  0.33549818  0.66930118  1
  Ni  Ni41  1  0.50279642  0.50223783  0.83545923  1
  Fe  Fe42  1  0.50222477  0.83538611  0.50204638  1
  Ni  Ni43  1  0.33586177  0.66859749  0.66874526  1
  Ni  Ni44  1  0.50169308  0.83527304  0.83526082  1
  Ni  Ni45  1  0.83504326  0.16833229  0.50166473  1
  Ni  Ni46  1  0.66906045  1.00203468  0.66946529  1
  Ni  Ni47  1  0.83521840  0.16939243  0.83553449  1
  Ni  Ni48  1  0.83484496  0.50265975  0.50194501  1
  Ni  Ni49  1  0.66878553  0.33549112  0.66875327  1
  Ni  Ni50  1  0.83490047  0.50163953  0.83530526  1
  Ni  Ni51  1  0.83609615  0.83535376  0.50260432  1
  Ni  Ni52  1  0.66850277  0.66882118  0.66897215  1
  Fe  Fe53  1  0.83540231  0.83556726  0.83499273  1
" 