3461,Ni85Fe12Cr2_10,-239.505472389398, 189.743465473985,Ni85Fe12Cr2,"# generated using pymatgen
 data_CrFe2Ni15
_symmetry_space_group_name_H-M   'P 1'
_cell_length_a   7.44092300
_cell_length_b   7.44092300
_cell_length_c   10.52305423
_cell_angle_alpha   90.00000000
_cell_angle_beta   90.00000000
_cell_angle_gamma   90.00000000
_symmetry_Int_Tables_number   1
_chemical_formula_structural   CrFe2Ni15
_chemical_formula_sum   'Cr3 Fe6 Ni45'
_cell_volume   582.63347019
_cell_formula_units_Z   3
loop_
 _symmetry_equiv_pos_site_id
 _symmetry_equiv_pos_as_xyz
  1  'x, y, z'
loop_
 _atom_site_type_symbol
 _atom_site_label
 _atom_site_symmetry_multiplicity
 _atom_site_fract_x
 _atom_site_fract_y
 _atom_site_fract_z
 _atom_site_occupancy
  Fe  Fe0  1  0.00226031  0.00229332  0.00205192  1
  Ni  Ni1  1  0.16815159  0.16748935  0.16944674  1
  Ni  Ni2  1  0.00262451  1.00157035  0.33477389  1
  Ni  Ni3  1  0.00185521  0.33578922  0.00245968  1
  Ni  Ni4  1  0.16843212  0.50237834  0.16844312  1
  Ni  Ni5  1  1.00136951  0.33520932  0.33481832  1
  Ni  Ni6  1  1.00167047  0.66768638  1.00147320  1
  Ni  Ni7  1  0.16869369  0.83547144  0.16786688  1
  Ni  Ni8  1  1.00158572  0.66846814  0.33507692  1
  Ni  Ni9  1  0.33475098  0.00291283  0.00201475  1
  Ni  Ni10  1  0.50220351  0.16877872  0.16744950  1
  Ni  Ni11  1  0.33469889  0.00206332  0.33550789  1
  Ni  Ni12  1  0.33347898  0.33356572  0.00313488  1
  Ni  Ni13  1  0.50215781  0.50139806  0.16834523  1
  Ni  Ni14  1  0.33542230  0.33447927  0.33441744  1
  Ni  Ni15  1  0.33296484  0.66884903  0.00400923  1
  Fe  Fe16  1  0.50098745  0.83500741  0.16858988  1
  Ni  Ni17  1  0.33489224  0.66894139  0.33452889  1
  Ni  Ni18  1  0.66877356  0.00243006  0.00334807  1
  Ni  Ni19  1  0.83491744  0.16858175  0.16879114  1
  Fe  Fe20  1  0.66832597  0.00257000  0.33530864  1
  Ni  Ni21  1  0.66976696  0.33399778  0.00187493  1
  Ni  Ni22  1  0.83462778  0.50066817  0.16837448  1
  Ni  Ni23  1  0.66843561  0.33551090  0.33510557  1
  Ni  Ni24  1  0.67094999  0.66867190  0.00337599  1
  Fe  Fe25  1  0.83631324  0.83441385  0.16884737  1
  Ni  Ni26  1  0.66889844  0.66780097  0.33537743  1
  Fe  Fe27  1  0.16787527  0.16879935  0.50120664  1
  Ni  Ni28  1  0.00294457  1.00172162  0.66915612  1
  Ni  Ni29  1  0.16707052  0.16816982  0.83491403  1
  Ni  Ni30  1  0.16858217  0.50280918  0.50104572  1
  Ni  Ni31  1  0.00177875  0.33532628  0.66810387  1
  Ni  Ni32  1  0.16735489  0.50157360  0.83570507  1
  Ni  Ni33  1  0.16822645  0.83527358  0.50250743  1
  Ni  Ni34  1  1.00158561  0.66838953  0.66883609  1
  Ni  Ni35  1  0.16713465  0.83567572  0.83493652  1
  Ni  Ni36  1  0.50164593  0.16959854  0.50176326  1
  Ni  Ni37  1  0.33263664  0.00269197  0.66743614  1
  Fe  Fe38  1  0.50085149  0.16871550  0.83587736  1
  Ni  Ni39  1  0.50144223  0.50145393  0.50176776  1
  Ni  Ni40  1  0.33365376  0.33409430  0.66767740  1
  Cr  Cr41  1  0.50156650  0.50094020  0.83484896  1
  Ni  Ni42  1  0.50012211  0.83441175  0.50015209  1
  Ni  Ni43  1  0.33289273  0.66855679  0.66639775  1
  Cr  Cr44  1  0.50018617  0.83412532  0.83550025  1
  Ni  Ni45  1  0.83578351  0.16921874  0.50038287  1
  Cr  Cr46  1  0.66934286  0.00191580  0.66695099  1
  Ni  Ni47  1  0.83678756  0.16909239  0.83641387  1
  Ni  Ni48  1  0.83517904  0.50099360  0.50211772  1
  Ni  Ni49  1  0.66960557  0.33539233  0.66820331  1
  Ni  Ni50  1  0.83634333  0.50102106  0.83472361  1
  Ni  Ni51  1  0.83694594  0.83509205  0.50048653  1
  Ni  Ni52  1  0.67080818  0.66740100  0.66637541  1
  Ni  Ni53  1  0.83723973  0.83534435  0.83649653  1
" 