3445,Ni85Cr15_1,-205.617194274358, 167.170806625572,Ni85Cr15,"# generated using pymatgen
 data_Cr5Ni
_symmetry_space_group_name_H-M   'P 1'
_cell_length_a   7.58512272
_cell_length_b   7.58512272
_cell_length_c   10.72698342
_cell_angle_alpha   90.00000000
_cell_angle_beta   90.00000000
_cell_angle_gamma   90.00000000
_symmetry_Int_Tables_number   1
_chemical_formula_structural   Cr5Ni
_chemical_formula_sum   'Cr45 Ni9'
_cell_volume   617.16719399
_cell_formula_units_Z   9
loop_
 _symmetry_equiv_pos_site_id
 _symmetry_equiv_pos_as_xyz
  1  'x, y, z'
loop_
 _atom_site_type_symbol
 _atom_site_label
 _atom_site_symmetry_multiplicity
 _atom_site_fract_x
 _atom_site_fract_y
 _atom_site_fract_z
 _atom_site_occupancy
  Cr  Cr0  1  -0.00628406  0.99144687  0.99214135  1
  Cr  Cr1  1  0.15876446  0.15629835  0.15988963  1
  Ni  Ni2  1  -0.00481715  0.99112912  0.32462802  1
  Cr  Cr3  1  -0.00686914  0.32524797  0.99150737  1
  Cr  Cr4  1  0.15935896  0.49386287  0.15971430  1
  Cr  Cr5  1  0.99190799  0.32490796  0.32590872  1
  Cr  Cr6  1  0.99139805  0.65995516  -0.00671255  1
  Ni  Ni7  1  0.15970392  0.82673675  0.16191489  1
  Cr  Cr8  1  -0.00691930  0.66093243  0.32472325  1
  Cr  Cr9  1  0.32417840  -0.00735685  -0.00749585  1
  Cr  Cr10  1  0.49134049  0.15800095  0.15971538  1
  Ni  Ni11  1  0.32266009  0.98932818  0.32456644  1
  Cr  Cr12  1  0.32595261  0.32523804  0.99031651  1
  Cr  Cr13  1  0.49311698  0.49451452  0.15906181  1
  Cr  Cr14  1  0.32614903  0.32543485  0.32530726  1
  Cr  Cr15  1  0.32648208  0.65876655  0.99209726  1
  Cr  Cr16  1  0.49080943  0.82413582  0.16029322  1
  Ni  Ni17  1  0.32633537  0.66203311  0.32497456  1
  Cr  Cr18  1  0.65875461  0.99091129  0.99149711  1
  Cr  Cr19  1  0.82654536  0.15860543  0.15947325  1
  Cr  Cr20  1  0.65859938  0.99146600  0.32650986  1
  Cr  Cr21  1  0.65756737  0.32755170  0.99187342  1
  Cr  Cr22  1  0.82417410  0.49332490  0.15828335  1
  Cr  Cr23  1  0.65859276  0.32656761  0.32614935  1
  Ni  Ni24  1  0.65827703  0.65759519  0.99110878  1
  Cr  Cr25  1  0.82588247  0.82472252  0.15850921  1
  Ni  Ni26  1  0.65699978  0.65908777  0.32536549  1
  Cr  Cr27  1  0.15840947  0.15782243  0.49120864  1
  Cr  Cr28  1  -0.00750059  -0.00772588  0.65978669  1
  Ni  Ni29  1  0.15890195  0.15922436  0.82555113  1
  Cr  Cr30  1  0.16019049  0.49352118  0.49293816  1
  Cr  Cr31  1  -0.00690602  0.32524927  0.65923300  1
  Cr  Cr32  1  0.16088714  0.49115299  0.82399971  1
  Cr  Cr33  1  0.16078376  0.82530701  0.49076056  1
  Cr  Cr34  1  -0.00636290  0.65912646  0.65864244  1
  Cr  Cr35  1  0.15976409  0.82620973  0.82440893  1
  Cr  Cr36  1  0.49185290  0.15780765  0.49114537  1
  Cr  Cr37  1  0.32520157  0.99174628  0.66002577  1
  Cr  Cr38  1  0.49079766  0.15981527  0.82579173  1
  Cr  Cr39  1  0.49126186  0.49471011  0.49179609  1
  Cr  Cr40  1  0.32579372  0.32696092  0.66102219  1
  Ni  Ni41  1  0.49213697  0.49378512  0.82544784  1
  Cr  Cr42  1  0.49067368  0.82413197  0.49116568  1
  Ni  Ni43  1  0.32641749  0.65769874  0.65972592  1
  Cr  Cr44  1  0.49252542  0.82275991  0.82519002  1
  Cr  Cr45  1  0.82638748  0.15841011  0.49174707  1
  Cr  Cr46  1  0.65894997  -0.00771297  0.65864285  1
  Cr  Cr47  1  0.82728605  0.15869346  0.82543084  1
  Cr  Cr48  1  0.82519941  0.49233651  0.49138291  1
  Cr  Cr49  1  0.65776349  0.32582735  0.65862697  1
  Cr  Cr50  1  0.82383299  0.49288159  0.82698142  1
  Cr  Cr51  1  0.82519207  0.82590522  0.49175688  1
  Cr  Cr52  1  0.65723930  0.65853416  0.65958929  1
  Cr  Cr53  1  0.82435940  0.82507586  0.82638040  1
" 