1300,Ni85Fe14Cr0_6,-241.523898376404, 197.927799093216,Ni85Fe14Cr0,"# generated using pymatgen
 data_CrFe7Ni46
_symmetry_space_group_name_H-M   'P 1'
_cell_length_a   7.43487000
_cell_length_b   7.43487000
_cell_length_c   10.51449399
_cell_angle_alpha   90.00000000
_cell_angle_beta   90.00000000
_cell_angle_gamma   90.00000000
_symmetry_Int_Tables_number   1
_chemical_formula_structural   CrFe7Ni46
_chemical_formula_sum   'Cr1 Fe7 Ni46'
_cell_volume   581.21275444
_cell_formula_units_Z   1
loop_
 _symmetry_equiv_pos_site_id
 _symmetry_equiv_pos_as_xyz
  1  'x, y, z'
loop_
 _atom_site_type_symbol
 _atom_site_label
 _atom_site_symmetry_multiplicity
 _atom_site_fract_x
 _atom_site_fract_y
 _atom_site_fract_z
 _atom_site_occupancy
  Ni  Ni0  1  1.00087672  1.00190414  0.00233428  1
  Ni  Ni1  1  0.16829314  0.16905515  0.16913816  1
  Ni  Ni2  1  1.00176828  0.00262316  0.33490579  1
  Ni  Ni3  1  0.00219405  0.33550913  1.00212173  1
  Ni  Ni4  1  0.16912442  0.50182640  0.16883392  1
  Ni  Ni5  1  1.00202134  0.33605426  0.33570340  1
  Ni  Ni6  1  0.00245521  0.66907832  0.00243862  1
  Ni  Ni7  1  0.16913885  0.83561093  0.16887017  1
  Ni  Ni8  1  0.00339564  0.66781469  0.33437006  1
  Fe  Fe9  1  0.33530365  1.00192033  1.00186917  1
  Fe  Fe10  1  0.50215873  0.16888828  0.16887931  1
  Ni  Ni11  1  0.33656989  1.00151220  0.33554034  1
  Ni  Ni12  1  0.33570941  0.33655889  1.00212270  1
  Ni  Ni13  1  0.50185419  0.50261630  0.16853767  1
  Ni  Ni14  1  0.33552635  0.33637456  0.33576424  1
  Ni  Ni15  1  0.33549721  0.66808033  0.00243211  1
  Ni  Ni16  1  0.50215359  0.83513622  0.16930229  1
  Ni  Ni17  1  0.33526395  0.66860563  0.33574866  1
  Ni  Ni18  1  0.66958374  1.00211616  1.00207709  1
  Ni  Ni19  1  0.83598663  0.16875555  0.16873041  1
  Ni  Ni20  1  0.66815498  0.00288673  0.33473239  1
  Ni  Ni21  1  0.66858829  0.33498149  0.00259516  1
  Ni  Ni22  1  0.83551258  0.50176942  0.16916173  1
  Fe  Fe23  1  0.66914005  0.33525769  0.33591472  1
  Ni  Ni24  1  0.66853847  0.66939325  0.00216743  1
  Ni  Ni25  1  0.83519786  0.83596614  0.16861874  1
  Fe  Fe26  1  0.66787849  0.66841883  0.33409599  1
  Fe  Fe27  1  0.16916807  0.16916674  0.50205745  1
  Ni  Ni28  1  1.00197533  0.00246113  0.66925111  1
  Ni  Ni29  1  0.16907533  0.16930193  0.83487936  1
  Ni  Ni30  1  0.16912892  0.50239990  0.50194308  1
  Ni  Ni31  1  1.00144408  0.33597260  0.66866506  1
  Ni  Ni32  1  0.16834122  0.50199120  0.83571509  1
  Ni  Ni33  1  0.17098860  0.83496038  0.50215561  1
  Ni  Ni34  1  0.00360075  0.66805896  0.66968364  1
  Ni  Ni35  1  0.16913678  0.83519908  0.83546407  1
  Ni  Ni36  1  0.50248562  0.16881648  0.50178008  1
  Ni  Ni37  1  0.33641768  1.00140358  0.66860776  1
  Ni  Ni38  1  0.50230520  0.16825578  0.83587802  1
  Ni  Ni39  1  0.50134996  0.50157536  0.50272623  1
  Ni  Ni40  1  0.33610422  0.33618515  0.66860618  1
  Fe  Fe41  1  0.50186737  0.50186611  0.83584771  1
  Ni  Ni42  1  0.49980810  0.83609867  0.50220747  1
  Ni  Ni43  1  0.33500716  0.66890352  0.66831341  1
  Ni  Ni44  1  0.50219648  0.83629125  0.83497851  1
  Ni  Ni45  1  0.83486958  0.17067430  0.50251752  1
  Ni  Ni46  1  0.66810039  0.00355722  0.66968279  1
  Ni  Ni47  1  0.83511018  0.16905279  0.83524546  1
  Ni  Ni48  1  0.83601225  0.49971981  0.50198859  1
  Ni  Ni49  1  0.66894395  0.33455953  0.66837044  1
  Ni  Ni50  1  0.83620152  0.50188126  0.83534145  1
  Cr  Cr51  1  0.83599645  0.83611042  0.50239060  1
  Fe  Fe52  1  0.66817595  0.66812025  0.66988642  1
  Ni  Ni53  1  0.83515728  0.83555654  0.83566472  1
" 