2828,Ni85Fe14Cr0_15,-241.240978406979, 196.050986377578,Ni85Fe14Cr0,"# generated using pymatgen
 data_CrFe7Ni46
_symmetry_space_group_name_H-M   'P 1'
_cell_length_a   7.43448238
_cell_length_b   7.43448238
_cell_length_c   10.51394581
_cell_angle_alpha   90.00000000
_cell_angle_beta   90.00000000
_cell_angle_gamma   90.00000000
_symmetry_Int_Tables_number   1
_chemical_formula_structural   CrFe7Ni46
_chemical_formula_sum   'Cr1 Fe7 Ni46'
_cell_volume   581.12185216
_cell_formula_units_Z   1
loop_
 _symmetry_equiv_pos_site_id
 _symmetry_equiv_pos_as_xyz
  1  'x, y, z'
loop_
 _atom_site_type_symbol
 _atom_site_label
 _atom_site_symmetry_multiplicity
 _atom_site_fract_x
 _atom_site_fract_y
 _atom_site_fract_z
 _atom_site_occupancy
  Ni  Ni0  1  0.00234248  0.00283267  1.00180814  1
  Ni  Ni1  1  0.16930241  0.16875996  0.16890356  1
  Ni  Ni2  1  0.00287757  0.00233982  0.33594943  1
  Ni  Ni3  1  1.00204601  0.33491745  0.00296007  1
  Ni  Ni4  1  0.16699817  0.50209331  0.16901152  1
  Ni  Ni5  1  1.00171207  0.33527341  0.33520508  1
  Fe  Fe6  1  1.00213036  0.66877715  0.00259587  1
  Ni  Ni7  1  0.16876113  0.83571746  0.16836643  1
  Ni  Ni8  1  1.00171770  0.66895736  0.33514827  1
  Ni  Ni9  1  0.33504096  1.00142063  0.00232008  1
  Ni  Ni10  1  0.50204074  0.16705037  0.16879659  1
  Ni  Ni11  1  0.33456626  1.00179741  0.33509774  1
  Ni  Ni12  1  0.33379973  0.33479374  1.00118804  1
  Cr  Cr13  1  0.50213006  0.50149645  0.16811852  1
  Ni  Ni14  1  0.33431365  0.33439753  0.33662441  1
  Ni  Ni15  1  0.33526732  0.67035841  1.00142798  1
  Ni  Ni16  1  0.50233745  0.83767087  0.16908511  1
  Ni  Ni17  1  0.33485125  0.67037532  0.33657296  1
  Ni  Ni18  1  0.66918910  1.00136622  0.00289507  1
  Ni  Ni19  1  0.83522718  0.16881355  0.16832937  1
  Fe  Fe20  1  0.66911173  0.00246373  0.33523780  1
  Ni  Ni21  1  0.67072578  0.33514417  1.00094173  1
  Ni  Ni22  1  0.83718035  0.50238893  0.16924844  1
  Ni  Ni23  1  0.67054441  0.33556030  0.33662409  1
  Ni  Ni24  1  0.66931158  0.67005995  1.00118993  1
  Ni  Ni25  1  0.83547233  0.83536895  0.16861177  1
  Ni  Ni26  1  0.67000049  0.66921208  0.33657320  1
  Ni  Ni27  1  0.16982424  0.16882643  0.50223888  1
  Fe  Fe28  1  0.00240418  0.00234332  0.66853029  1
  Ni  Ni29  1  0.17051790  0.16923531  0.83542711  1
  Ni  Ni30  1  0.16945684  0.50231973  0.50195192  1
  Ni  Ni31  1  1.00204477  0.33528088  0.66840652  1
  Ni  Ni32  1  0.16845650  0.50176203  0.83560526  1
  Ni  Ni33  1  0.16841179  0.83542308  0.50247962  1
  Fe  Fe34  1  1.00213023  0.66830983  0.66840890  1
  Ni  Ni35  1  0.16915931  0.83557180  0.83572216  1
  Ni  Ni36  1  0.50204035  0.16992507  0.50187453  1
  Ni  Ni37  1  0.33530285  1.00152623  0.66915351  1
  Ni  Ni38  1  0.50150520  0.16853640  0.83589963  1
  Ni  Ni39  1  0.50239014  0.50120173  0.50306118  1
  Ni  Ni40  1  0.33443169  0.33547033  0.66875738  1
  Fe  Fe41  1  0.50168106  0.50287679  0.83514315  1
  Fe  Fe42  1  0.50191922  0.83512059  0.50256124  1
  Ni  Ni43  1  0.33583831  0.66957584  0.66857015  1
  Ni  Ni44  1  0.50266721  0.83646801  0.83537485  1
  Ni  Ni45  1  0.83470551  0.16888063  0.50281368  1
  Ni  Ni46  1  0.66892793  1.00147222  0.66857875  1
  Fe  Fe47  1  0.83588666  0.16861290  0.83578734  1
  Ni  Ni48  1  0.83472380  0.50261497  0.50171530  1
  Ni  Ni49  1  0.67009499  0.33581933  0.66900496  1
  Ni  Ni50  1  0.83544498  0.50292788  0.83560511  1
  Ni  Ni51  1  0.83581950  0.83507401  0.50223505  1
  Ni  Ni52  1  0.66874081  0.66927907  0.66880817  1
  Ni  Ni53  1  0.83474373  0.83440639  0.83572214  1
" 