4177,Ni85Fe5Cr9_15,-236.550681744465, 176.951175375928,Ni85Fe5Cr9,"# generated using pymatgen
 data_Cr2FeNi15
_symmetry_space_group_name_H-M   'P 1'
_cell_length_a   7.45499036
_cell_length_b   7.45499036
_cell_length_c   10.54294847
_cell_angle_alpha   90.00000000
_cell_angle_beta   90.00000000
_cell_angle_gamma   90.00000000
_symmetry_Int_Tables_number   1
_chemical_formula_structural   Cr2FeNi15
_chemical_formula_sum   'Cr6 Fe3 Ni45'
_cell_volume   585.94419553
_cell_formula_units_Z   3
loop_
 _symmetry_equiv_pos_site_id
 _symmetry_equiv_pos_as_xyz
  1  'x, y, z'
loop_
 _atom_site_type_symbol
 _atom_site_label
 _atom_site_symmetry_multiplicity
 _atom_site_fract_x
 _atom_site_fract_y
 _atom_site_fract_z
 _atom_site_occupancy
  Ni  Ni0  1  0.99865307  0.00198072  0.00094252  1
  Ni  Ni1  1  0.16679891  0.16828065  0.16798477  1
  Ni  Ni2  1  0.00127653  0.00149372  0.33447427  1
  Ni  Ni3  1  1.00024301  0.33471553  1.00033108  1
  Ni  Ni4  1  0.16783949  0.50086469  0.16743970  1
  Ni  Ni5  1  0.00109291  0.33316905  0.33294475  1
  Ni  Ni6  1  0.00130828  0.66573266  1.00033495  1
  Ni  Ni7  1  0.16837772  0.83328088  0.16885003  1
  Ni  Ni8  1  0.00229772  0.66776197  0.33415619  1
  Cr  Cr9  1  0.33522519  0.00116518  0.00142180  1
  Ni  Ni10  1  0.50102905  0.16864231  0.16849913  1
  Ni  Ni11  1  0.33424616  1.00045424  0.33393365  1
  Ni  Ni12  1  0.33348315  0.33544463  0.00131753  1
  Ni  Ni13  1  0.50033812  0.50084898  0.16784123  1
  Ni  Ni14  1  0.33442606  0.33420751  0.33385470  1
  Ni  Ni15  1  0.33345926  0.66604541  0.00259991  1
  Ni  Ni16  1  0.49943654  0.83293211  0.16814238  1
  Ni  Ni17  1  0.33426153  0.66776419  0.33378671  1
  Ni  Ni18  1  0.66838588  0.00200240  0.99929008  1
  Ni  Ni19  1  0.83459661  0.16918236  0.16782648  1
  Ni  Ni20  1  0.66690584  0.00165862  0.33518760  1
  Ni  Ni21  1  0.66869846  0.33278634  0.00179341  1
  Ni  Ni22  1  0.83424962  0.49927316  0.16734113  1
  Ni  Ni23  1  0.66690780  0.33318390  0.33310714  1
  Fe  Fe24  1  0.66777410  0.66721847  1.00075681  1
  Cr  Cr25  1  0.83462709  0.83432178  0.16755399  1
  Ni  Ni26  1  0.66587158  0.66758270  0.33365017  1
  Ni  Ni27  1  0.16841113  0.16791368  0.50024520  1
  Cr  Cr28  1  0.99945761  0.00164271  0.66718867  1
  Ni  Ni29  1  0.16724062  0.17067336  0.83419615  1
  Fe  Fe30  1  0.16921012  0.50030562  0.50098310  1
  Ni  Ni31  1  0.00156345  0.33535478  0.66914587  1
  Ni  Ni32  1  0.16547902  0.49909814  0.83351510  1
  Fe  Fe33  1  0.16859174  0.83413331  0.49956841  1
  Ni  Ni34  1  1.00068980  0.66557612  0.66793408  1
  Cr  Cr35  1  0.16747695  0.83304742  0.83425004  1
  Ni  Ni36  1  0.49980346  0.16723877  0.50128580  1
  Ni  Ni37  1  0.33723369  0.00149530  0.66711827  1
  Ni  Ni38  1  0.50139574  0.16646509  0.83264048  1
  Ni  Ni39  1  0.49929103  0.50135322  0.50067817  1
  Ni  Ni40  1  0.33356670  0.33358858  0.66725027  1
  Cr  Cr41  1  0.50048732  0.50066546  0.83386289  1
  Ni  Ni42  1  0.50087621  0.83383307  0.50128618  1
  Ni  Ni43  1  0.33444350  0.66734281  0.66603817  1
  Ni  Ni44  1  0.50333625  0.83510897  0.83299740  1
  Ni  Ni45  1  0.83421255  0.16633072  0.49987611  1
  Ni  Ni46  1  0.66552866  1.00061997  0.66794683  1
  Ni  Ni47  1  0.83378954  0.16804479  0.83472414  1
  Cr  Cr48  1  0.83357566  0.50110606  0.50084923  1
  Ni  Ni49  1  0.66729758  0.33256311  0.66752508  1
  Ni  Ni50  1  0.83624112  0.50103325  0.83398484  1
  Ni  Ni51  1  0.83332501  0.83455299  0.50043024  1
  Ni  Ni52  1  0.66729622  0.66924100  0.66825872  1
  Ni  Ni53  1  0.83203776  0.83334573  0.83452660  1
" 