1590,Ni85Fe15_7,-230.853723898778, 170.262779982557,Ni85Fe15,"# generated using pymatgen
 data_Fe5Ni
_symmetry_space_group_name_H-M   'P 1'
_cell_length_a   7.40335408
_cell_length_b   7.40335408
_cell_length_c   10.46992375
_cell_angle_alpha   90.00000000
_cell_angle_beta   90.00000000
_cell_angle_gamma   90.00000000
_symmetry_Int_Tables_number   1
_chemical_formula_structural   Fe5Ni
_chemical_formula_sum   'Fe45 Ni9'
_cell_volume   573.85287396
_cell_formula_units_Z   9
loop_
 _symmetry_equiv_pos_site_id
 _symmetry_equiv_pos_as_xyz
  1  'x, y, z'
loop_
 _atom_site_type_symbol
 _atom_site_label
 _atom_site_symmetry_multiplicity
 _atom_site_fract_x
 _atom_site_fract_y
 _atom_site_fract_z
 _atom_site_occupancy
  Fe  Fe0  1  0.00462337  1.00351233  1.00385430  1
  Fe  Fe1  1  0.17135980  0.17057603  0.17080807  1
  Fe  Fe2  1  1.00427410  1.00323520  0.33768911  1
  Fe  Fe3  1  1.00422385  0.33771644  1.00414220  1
  Fe  Fe4  1  0.17167306  0.50492509  0.17180482  1
  Fe  Fe5  1  0.00453771  0.33795119  0.33811219  1
  Fe  Fe6  1  0.00446482  0.67167585  0.00445509  1
  Ni  Ni7  1  0.16931917  0.83753278  0.17175922  1
  Fe  Fe8  1  0.00448567  0.67171808  0.33740409  1
  Fe  Fe9  1  0.33731433  1.00421840  1.00430129  1
  Ni  Ni10  1  0.50486874  0.17261799  0.17116274  1
  Fe  Fe11  1  0.33818914  1.00390824  0.33716042  1
  Fe  Fe12  1  0.33826184  0.33755566  0.00469275  1
  Ni  Ni13  1  0.50448391  0.50236824  0.17153678  1
  Fe  Fe14  1  0.33846277  0.33781636  0.33748443  1
  Fe  Fe15  1  0.33731269  0.67113013  0.00490289  1
  Fe  Fe16  1  0.50438047  0.83763382  0.17152177  1
  Ni  Ni17  1  0.33741410  0.67017581  0.33706304  1
  Fe  Fe18  1  0.67096608  0.00446073  0.00529769  1
  Fe  Fe19  1  0.83693606  0.17026349  0.17120506  1
  Ni  Ni20  1  0.67147009  0.00470732  0.33732945  1
  Fe  Fe21  1  0.67042089  0.33771449  0.00460791  1
  Fe  Fe22  1  0.83716665  0.50469383  0.17072770  1
  Fe  Fe23  1  0.66990582  0.33760616  0.33716884  1
  Fe  Fe24  1  0.67112605  0.67072942  0.00453784  1
  Ni  Ni25  1  0.83909739  0.83791877  0.17078641  1
  Fe  Fe26  1  0.67057898  0.67144319  0.33723933  1
  Fe  Fe27  1  0.17057293  0.17144084  0.50477699  1
  Ni  Ni28  1  1.00411740  0.00448915  0.67115685  1
  Fe  Fe29  1  0.17065199  0.17026098  0.83731995  1
  Ni  Ni30  1  0.17106801  0.50459217  0.50477048  1
  Fe  Fe31  1  0.00445644  0.33740020  0.67065309  1
  Fe  Fe32  1  0.17097047  0.50469412  0.83703452  1
  Fe  Fe33  1  0.17104977  0.83708700  0.50446023  1
  Fe  Fe34  1  0.00468798  0.67144352  0.67104606  1
  Ni  Ni35  1  0.17020744  0.83764223  0.83646854  1
  Fe  Fe36  1  0.50409670  0.17124965  0.50362481  1
  Fe  Fe37  1  0.33692867  1.00414802  0.67144237  1
  Fe  Fe38  1  0.50378322  0.17044611  0.83815694  1
  Fe  Fe39  1  0.50351620  0.50461965  0.50370805  1
  Fe  Fe40  1  0.33696519  0.33726922  0.67073361  1
  Fe  Fe41  1  0.50385878  0.50490459  0.83815425  1
  Fe  Fe42  1  0.50386178  0.83703550  0.50398613  1
  Fe  Fe43  1  0.33664755  0.67148834  0.67044660  1
  Fe  Fe44  1  0.50382676  0.83755435  0.83739458  1
  Fe  Fe45  1  0.83823624  0.17109649  0.50445917  1
  Fe  Fe46  1  0.67143705  0.00438142  0.67036263  1
  Fe  Fe47  1  0.83846841  0.17029224  0.83723996  1
  Fe  Fe48  1  0.83818395  0.50414345  0.50454165  1
  Fe  Fe49  1  0.67148340  0.33711556  0.67113159  1
  Fe  Fe50  1  0.83807559  0.50474133  0.83763576  1
  Fe  Fe51  1  0.83799485  0.83766752  0.50386061  1
  Fe  Fe52  1  0.67156815  0.67140801  0.67112851  1
  Fe  Fe53  1  0.83825751  0.83787331  0.83784069  1
" 