3992,Ni85Fe12Cr2_5,-239.722473681813, 190.393065128644,Ni85Fe12Cr2,"# generated using pymatgen
 data_CrFe2Ni15
_symmetry_space_group_name_H-M   'P 1'
_cell_length_a   7.44212521
_cell_length_b   7.44212521
_cell_length_c   10.52475440
_cell_angle_alpha   90.00000000
_cell_angle_beta   90.00000000
_cell_angle_gamma   90.00000000
_symmetry_Int_Tables_number   1
_chemical_formula_structural   CrFe2Ni15
_chemical_formula_sum   'Cr3 Fe6 Ni45'
_cell_volume   582.91591749
_cell_formula_units_Z   3
loop_
 _symmetry_equiv_pos_site_id
 _symmetry_equiv_pos_as_xyz
  1  'x, y, z'
loop_
 _atom_site_type_symbol
 _atom_site_label
 _atom_site_symmetry_multiplicity
 _atom_site_fract_x
 _atom_site_fract_y
 _atom_site_fract_z
 _atom_site_occupancy
  Ni  Ni0  1  1.00102757  0.00234757  1.00145813  1
  Ni  Ni1  1  0.16761148  0.16777327  0.16941408  1
  Ni  Ni2  1  0.00293621  0.00171476  0.33477901  1
  Ni  Ni3  1  1.00019558  0.33427286  1.00064868  1
  Cr  Cr4  1  0.16812960  0.50148664  0.16896049  1
  Ni  Ni5  1  0.99990550  0.33364367  0.33499149  1
  Fe  Fe6  1  0.99930866  0.66942216  1.00061278  1
  Ni  Ni7  1  0.16767113  0.83567677  0.16946948  1
  Ni  Ni8  1  1.00045618  0.66966507  0.33448771  1
  Cr  Cr9  1  0.33445747  1.00097221  0.00217717  1
  Ni  Ni10  1  0.50275994  0.16898843  0.16943024  1
  Ni  Ni11  1  0.33447868  1.00116367  0.33518033  1
  Fe  Fe12  1  0.33618515  0.33463653  1.00148772  1
  Ni  Ni13  1  0.50317837  0.50163981  0.16810656  1
  Ni  Ni14  1  0.33675225  0.33343881  0.33477958  1
  Fe  Fe15  1  0.33628788  0.66815483  1.00088296  1
  Ni  Ni16  1  0.50276433  0.83439317  0.16947278  1
  Ni  Ni17  1  0.33675103  0.67041976  0.33427576  1
  Ni  Ni18  1  0.66951696  1.00148913  1.00151647  1
  Ni  Ni19  1  0.83465323  0.16819076  0.16796393  1
  Ni  Ni20  1  0.66760842  0.00171454  0.33423068  1
  Ni  Ni21  1  0.66928584  0.33619287  0.00211448  1
  Ni  Ni22  1  0.83337042  0.50158044  0.16881906  1
  Ni  Ni23  1  0.66836562  0.33591787  0.33444254  1
  Ni  Ni24  1  0.66787070  0.66734204  1.00133656  1
  Ni  Ni25  1  0.83458456  0.83525401  0.16802388  1
  Ni  Ni26  1  0.66781456  0.66739070  0.33549421  1
  Ni  Ni27  1  0.16847883  0.16690010  0.50155169  1
  Ni  Ni28  1  0.00267413  0.00171539  0.66878510  1
  Ni  Ni29  1  0.16774415  0.17000295  0.83405834  1
  Cr  Cr30  1  0.16791818  0.50163301  0.50097081  1
  Ni  Ni31  1  0.99992193  0.33470859  0.66938242  1
  Ni  Ni32  1  0.16774843  0.50163194  0.83512601  1
  Ni  Ni33  1  0.16853979  0.83637615  0.50156690  1
  Ni  Ni34  1  0.00219544  0.66859815  0.66988489  1
  Ni  Ni35  1  0.16786342  0.83338655  0.83399017  1
  Ni  Ni36  1  0.50181906  0.16811801  0.50144356  1
  Ni  Ni37  1  0.33493130  1.00030535  0.66806209  1
  Ni  Ni38  1  0.50262829  0.16844950  0.83415046  1
  Ni  Ni39  1  0.50324011  0.50167467  0.50168021  1
  Fe  Fe40  1  0.33519138  0.33326749  0.66865044  1
  Fe  Fe41  1  0.50200457  0.50172370  0.83513556  1
  Ni  Ni42  1  0.50169049  0.83523098  0.50144414  1
  Ni  Ni43  1  0.33514704  0.67027561  0.66976333  1
  Ni  Ni44  1  0.50250579  0.83494227  0.83410721  1
  Ni  Ni45  1  0.83472441  0.16845169  0.50177827  1
  Ni  Ni46  1  0.66741793  0.00257934  0.66927579  1
  Ni  Ni47  1  0.83465129  0.16856953  0.83528053  1
  Ni  Ni48  1  0.83357713  0.50161422  0.50123254  1
  Ni  Ni49  1  0.66909660  0.33492369  0.66846605  1
  Ni  Ni50  1  0.83621152  0.50151214  0.83497199  1
  Ni  Ni51  1  0.83479555  0.83495980  0.50176287  1
  Fe  Fe52  1  0.66912039  0.66903921  0.66810426  1
  Ni  Ni53  1  0.83465388  0.83494599  0.83523595  1
" 