2894,Ni85Fe14Cr0_2,-241.601760195193, 197.29780806805,Ni85Fe14Cr0,"# generated using pymatgen
 data_CrFe7Ni46
_symmetry_space_group_name_H-M   'P 1'
_cell_length_a   7.43692489
_cell_length_b   7.43692489
_cell_length_c   10.51740004
_cell_angle_alpha   90.00000000
_cell_angle_beta   90.00000000
_cell_angle_gamma   90.00000000
_symmetry_Int_Tables_number   1
_chemical_formula_structural   CrFe7Ni46
_chemical_formula_sum   'Cr1 Fe7 Ni46'
_cell_volume   581.69480223
_cell_formula_units_Z   1
loop_
 _symmetry_equiv_pos_site_id
 _symmetry_equiv_pos_as_xyz
  1  'x, y, z'
loop_
 _atom_site_type_symbol
 _atom_site_label
 _atom_site_symmetry_multiplicity
 _atom_site_fract_x
 _atom_site_fract_y
 _atom_site_fract_z
 _atom_site_occupancy
  Ni  Ni0  1  1.00169506  0.00254326  0.00205603  1
  Ni  Ni1  1  0.16805461  0.16791422  0.16766432  1
  Fe  Fe2  1  0.00338478  1.00135340  0.33485407  1
  Ni  Ni3  1  0.00204359  0.33524645  1.00158552  1
  Ni  Ni4  1  0.16707950  0.50276509  0.16853464  1
  Ni  Ni5  1  0.00230140  0.33524242  0.33544203  1
  Ni  Ni6  1  1.00132406  0.66835214  0.00209869  1
  Ni  Ni7  1  0.16942989  0.83494773  0.16885423  1
  Ni  Ni8  1  1.00085104  0.66655402  0.33578935  1
  Ni  Ni9  1  0.33581937  0.00248352  1.00201122  1
  Ni  Ni10  1  0.50266701  0.16675301  0.16842228  1
  Ni  Ni11  1  0.33724346  0.00302460  0.33544532  1
  Ni  Ni12  1  0.33393038  0.33361300  1.00107998  1
  Cr  Cr13  1  0.50139091  0.50262619  0.16821827  1
  Ni  Ni14  1  0.33199650  0.33308502  0.33652428  1
  Ni  Ni15  1  0.33459022  0.66997290  1.00067496  1
  Ni  Ni16  1  0.50086140  0.83684132  0.16809684  1
  Ni  Ni17  1  0.33489932  0.66991394  0.33749453  1
  Ni  Ni18  1  0.66857495  1.00182961  1.00170138  1
  Ni  Ni19  1  0.83537480  0.16888648  0.16889672  1
  Ni  Ni20  1  0.66827601  1.00157014  0.33575639  1
  Ni  Ni21  1  0.67011010  0.33405511  1.00130957  1
  Ni  Ni22  1  0.83698023  0.50096344  0.16798569  1
  Fe  Fe23  1  0.66849353  0.33571348  0.33534872  1
  Ni  Ni24  1  0.67009157  0.67016022  1.00093757  1
  Fe  Fe25  1  0.83541890  0.83547900  0.16845845  1
  Ni  Ni26  1  0.67034335  0.67172183  0.33638192  1
  Ni  Ni27  1  0.16793021  0.16768519  0.50261535  1
  Fe  Fe28  1  0.00347779  1.00051915  0.66928544  1
  Fe  Fe29  1  0.16881967  0.16849399  0.83523195  1
  Ni  Ni30  1  0.16836686  0.50221267  0.50185982  1
  Ni  Ni31  1  1.00186694  0.33530512  0.66893649  1
  Ni  Ni32  1  0.16855764  0.50337776  0.83573631  1
  Ni  Ni33  1  0.16867615  0.83532546  0.50209002  1
  Ni  Ni34  1  1.00048292  0.66701576  0.66833656  1
  Ni  Ni35  1  0.16878535  0.83465537  0.83514952  1
  Ni  Ni36  1  0.50266078  0.16902535  0.50141907  1
  Ni  Ni37  1  0.33720451  0.00293649  0.66841980  1
  Ni  Ni38  1  0.50309332  0.16861041  0.83623053  1
  Ni  Ni39  1  0.50194413  0.50207924  0.50209504  1
  Ni  Ni40  1  0.33376796  0.33412147  0.66840605  1
  Ni  Ni41  1  0.50135102  0.50204570  0.83570802  1
  Ni  Ni42  1  0.50187738  0.83570586  0.50236536  1
  Ni  Ni43  1  0.33581052  0.66905614  0.66791771  1
  Ni  Ni44  1  0.50132830  0.83582380  0.83558717  1
  Ni  Ni45  1  0.83555813  0.16873372  0.50216097  1
  Fe  Fe46  1  0.66863939  1.00188683  0.66868075  1
  Ni  Ni47  1  0.83509930  0.16855168  0.83502653  1
  Ni  Ni48  1  0.83507619  0.50130886  0.50217813  1
  Fe  Fe49  1  0.66744757  0.33713082  0.66951965  1
  Ni  Ni50  1  0.83576860  0.50152132  0.83590855  1
  Ni  Ni51  1  0.83639234  0.83604989  0.50177950  1
  Ni  Ni52  1  0.66976891  0.67053573  0.66889025  1
  Ni  Ni53  1  0.83638373  0.83603622  0.83620402  1
" 