3508,Ni86Fe2Cr11_19,-235.029138378926, 164.802007932761,Ni86Fe2Cr11,"# generated using pymatgen
 data_Cr7FeNi46
_symmetry_space_group_name_H-M   'P 1'
_cell_length_a   7.46601566
_cell_length_b   7.46601566
_cell_length_c   10.55854060
_cell_angle_alpha   90.00000000
_cell_angle_beta   90.00000000
_cell_angle_gamma   90.00000000
_symmetry_Int_Tables_number   1
_chemical_formula_structural   Cr7FeNi46
_chemical_formula_sum   'Cr7 Fe1 Ni46'
_cell_volume   588.54772686
_cell_formula_units_Z   1
loop_
 _symmetry_equiv_pos_site_id
 _symmetry_equiv_pos_as_xyz
  1  'x, y, z'
loop_
 _atom_site_type_symbol
 _atom_site_label
 _atom_site_symmetry_multiplicity
 _atom_site_fract_x
 _atom_site_fract_y
 _atom_site_fract_z
 _atom_site_occupancy
  Ni  Ni0  1  0.99957676  1.00000675  0.99987376  1
  Ni  Ni1  1  0.16475347  0.16473169  0.16667889  1
  Ni  Ni2  1  0.00187428  0.00195473  0.33267415  1
  Ni  Ni3  1  0.99822637  0.33333116  1.00004809  1
  Ni  Ni4  1  0.16221755  0.50103658  0.16580947  1
  Ni  Ni5  1  0.99857590  0.33260298  0.33324332  1
  Ni  Ni6  1  0.99984701  0.66684014  0.00093231  1
  Ni  Ni7  1  0.16554023  0.83451795  0.16626508  1
  Fe  Fe8  1  0.99956369  0.66630416  0.33284892  1
  Ni  Ni9  1  0.33216972  0.99719388  0.00199403  1
  Ni  Ni10  1  0.50087565  0.16425359  0.16636245  1
  Ni  Ni11  1  0.33126835  0.99940855  0.33324475  1
  Cr  Cr12  1  0.33004763  0.33406218  0.00006998  1
  Cr  Cr13  1  0.50289407  0.50042968  0.16480465  1
  Cr  Cr14  1  0.33207935  0.33139764  0.33431995  1
  Ni  Ni15  1  0.33223711  0.66935747  0.99880610  1
  Ni  Ni16  1  0.49991683  0.83480050  0.16491075  1
  Cr  Cr17  1  0.33345473  0.66893330  0.33418646  1
  Ni  Ni18  1  0.66847057  0.99867425  0.00104518  1
  Ni  Ni19  1  0.83462708  0.16750415  0.16578496  1
  Cr  Cr20  1  0.66635079  0.00029786  0.33276733  1
  Ni  Ni21  1  0.67078633  0.33342952  0.00062908  1
  Ni  Ni22  1  0.83513109  0.50017515  0.16728894  1
  Ni  Ni23  1  0.66997725  0.33421956  0.33423107  1
  Ni  Ni24  1  0.66802404  0.66806326  0.99929453  1
  Ni  Ni25  1  0.83467281  0.83250067  0.16594573  1
  Ni  Ni26  1  0.66770922  0.66558536  0.33339942  1
  Ni  Ni27  1  0.16576663  0.16571822  0.50084481  1
  Ni  Ni28  1  0.00059430  0.00092301  0.66766801  1
  Ni  Ni29  1  0.16455774  0.16559815  0.83254878  1
  Ni  Ni30  1  0.16475320  0.49995743  0.50167755  1
  Ni  Ni31  1  0.99995906  0.33348468  0.66685899  1
  Ni  Ni32  1  0.16547573  0.50121882  0.83273741  1
  Ni  Ni33  1  0.16740992  0.83459370  0.50070311  1
  Ni  Ni34  1  0.00081821  0.66580908  0.66672172  1
  Ni  Ni35  1  0.16638881  0.83342975  0.83329547  1
  Ni  Ni36  1  0.49985072  0.16685487  0.50106223  1
  Ni  Ni37  1  0.33228705  0.99878612  0.66504846  1
  Cr  Cr38  1  0.50053893  0.16611772  0.83305019  1
  Ni  Ni39  1  0.50184172  0.49992105  0.50216789  1
  Ni  Ni40  1  0.33198239  0.33473683  0.66549122  1
  Ni  Ni41  1  0.50107324  0.50219603  0.83237571  1
  Ni  Ni42  1  0.49862291  0.83340172  0.50181388  1
  Ni  Ni43  1  0.33320318  0.66669770  0.66701260  1
  Ni  Ni44  1  0.49985292  0.83215548  0.83356597  1
  Ni  Ni45  1  0.83466999  0.16898716  0.50116576  1
  Ni  Ni46  1  0.66730106  0.99974591  0.66680876  1
  Ni  Ni47  1  0.83492649  0.16678153  0.83329715  1
  Ni  Ni48  1  0.83351181  0.49857781  0.49945295  1
  Ni  Ni49  1  0.66827654  0.33442607  0.66533286  1
  Ni  Ni50  1  0.83364831  0.50034551  0.83355281  1
  Cr  Cr51  1  0.83541063  0.83243907  0.50117431  1
  Ni  Ni52  1  0.66617132  0.66611902  0.66737100  1
  Ni  Ni53  1  0.83397123  0.83309680  0.83347300  1
" 