3844,Ni86Fe2Cr11_4,-235.105413568215, 167.150467011783,Ni86Fe2Cr11,"# generated using pymatgen
 data_Cr7FeNi46
_symmetry_space_group_name_H-M   'P 1'
_cell_length_a   7.46743830
_cell_length_b   7.46743830
_cell_length_c   10.56055252
_cell_angle_alpha   90.00000000
_cell_angle_beta   90.00000000
_cell_angle_gamma   90.00000000
_symmetry_Int_Tables_number   1
_chemical_formula_structural   Cr7FeNi46
_chemical_formula_sum   'Cr7 Fe1 Ni46'
_cell_volume   588.88423238
_cell_formula_units_Z   1
loop_
 _symmetry_equiv_pos_site_id
 _symmetry_equiv_pos_as_xyz
  1  'x, y, z'
loop_
 _atom_site_type_symbol
 _atom_site_label
 _atom_site_symmetry_multiplicity
 _atom_site_fract_x
 _atom_site_fract_y
 _atom_site_fract_z
 _atom_site_occupancy
  Ni  Ni0  1  0.99942771  0.99753872  0.99892617  1
  Ni  Ni1  1  0.17000150  0.16868633  0.16717272  1
  Cr  Cr2  1  0.00183483  0.99931546  0.33418928  1
  Cr  Cr3  1  0.00085374  0.33658649  0.99937188  1
  Ni  Ni4  1  0.16788352  0.49971407  0.16754067  1
  Ni  Ni5  1  0.00099430  0.33610094  0.33463348  1
  Ni  Ni6  1  0.99920054  0.66727610  0.99908482  1
  Cr  Cr7  1  0.16756562  0.83193842  0.16548782  1
  Ni  Ni8  1  0.99940027  0.66386973  0.33398308  1
  Ni  Ni9  1  0.33543471  0.99957030  0.00063173  1
  Ni  Ni10  1  0.49778260  0.16792890  0.16590863  1
  Ni  Ni11  1  0.33433560  0.00054298  0.33447359  1
  Ni  Ni12  1  0.33605026  0.33454259  0.00067605  1
  Ni  Ni13  1  0.50009659  0.50025897  0.16671742  1
  Ni  Ni14  1  0.33343359  0.33394291  0.33300194  1
  Ni  Ni15  1  0.33425448  0.66589701  0.99869588  1
  Ni  Ni16  1  0.50072139  0.83168256  0.16637245  1
  Ni  Ni17  1  0.33411793  0.66573580  0.33414783  1
  Ni  Ni18  1  0.66499157  0.99862026  0.99864854  1
  Cr  Cr19  1  0.83201002  0.16731771  0.16483663  1
  Cr  Cr20  1  0.66378700  0.99810085  0.33461006  1
  Ni  Ni21  1  0.66425901  0.33466203  0.99890280  1
  Ni  Ni22  1  0.83215454  0.50237019  0.16864386  1
  Ni  Ni23  1  0.66551567  0.33569159  0.33408202  1
  Ni  Ni24  1  0.66632340  0.66646211  0.00006315  1
  Ni  Ni25  1  0.83144124  0.82924161  0.16452066  1
  Ni  Ni26  1  0.66626170  0.66475002  0.33355001  1
  Ni  Ni27  1  0.16728080  0.16808445  0.50046232  1
  Ni  Ni28  1  0.99927865  0.99883318  0.66589479  1
  Cr  Cr29  1  0.16794084  0.16554823  0.83214904  1
  Ni  Ni30  1  0.16759629  0.50023797  0.50022981  1
  Ni  Ni31  1  0.00088016  0.33438450  0.66560376  1
  Ni  Ni32  1  0.16792910  0.50260977  0.83215890  1
  Ni  Ni33  1  0.16720360  0.83169033  0.50120622  1
  Ni  Ni34  1  0.00046217  0.66683076  0.66705151  1
  Ni  Ni35  1  0.16674803  0.83123651  0.83282329  1
  Ni  Ni36  1  0.49871438  0.16753580  0.50009912  1
  Ni  Ni37  1  0.33435808  0.99877077  0.66476194  1
  Ni  Ni38  1  0.50079798  0.16605517  0.83418485  1
  Ni  Ni39  1  0.49829175  0.50110062  0.49913342  1
  Ni  Ni40  1  0.33255897  0.33458451  0.66628545  1
  Ni  Ni41  1  0.49916731  0.50127274  0.83418005  1
  Ni  Ni42  1  0.49949603  0.83137614  0.50083511  1
  Ni  Ni43  1  0.33334028  0.66663861  0.66698240  1
  Ni  Ni44  1  0.50008665  0.83267876  0.83277138  1
  Ni  Ni45  1  0.83401332  0.16689267  0.50148054  1
  Ni  Ni46  1  0.66634328  0.99847731  0.66671682  1
  Ni  Ni47  1  0.83176261  0.16507834  0.83302872  1
  Fe  Fe48  1  0.83351172  0.50099711  0.49971842  1
  Cr  Cr49  1  0.66545981  0.33392167  0.66760330  1
  Ni  Ni50  1  0.83285800  0.50214428  0.83248544  1
  Ni  Ni51  1  0.83324512  0.83174811  0.50166027  1
  Ni  Ni52  1  0.66608487  0.66863899  0.66655547  1
  Ni  Ni53  1  0.83304425  0.83287545  0.83365191  1
" 