2600,Ni86Fe11Cr1_9,-240.543104953692, 192.341970821716,Ni86Fe11Cr1,"# generated using pymatgen
 data_CrFe3Ni23
_symmetry_space_group_name_H-M   'P 1'
_cell_length_a   7.44030782
_cell_length_b   7.44030782
_cell_length_c   10.52218422
_cell_angle_alpha   90.00000000
_cell_angle_beta   90.00000000
_cell_angle_gamma   90.00000000
_symmetry_Int_Tables_number   1
_chemical_formula_structural   CrFe3Ni23
_chemical_formula_sum   'Cr2 Fe6 Ni46'
_cell_volume   582.48897213
_cell_formula_units_Z   2
loop_
 _symmetry_equiv_pos_site_id
 _symmetry_equiv_pos_as_xyz
  1  'x, y, z'
loop_
 _atom_site_type_symbol
 _atom_site_label
 _atom_site_symmetry_multiplicity
 _atom_site_fract_x
 _atom_site_fract_y
 _atom_site_fract_z
 _atom_site_occupancy
  Ni  Ni0  1  1.00165131  1.00148204  0.00225181  1
  Ni  Ni1  1  0.16917536  0.16771524  0.16784305  1
  Ni  Ni2  1  0.00205603  1.00169203  0.33523012  1
  Ni  Ni3  1  0.00187726  0.33558724  0.00190418  1
  Fe  Fe4  1  0.16870788  0.50199787  0.16825237  1
  Ni  Ni5  1  0.00319280  0.33561853  0.33528261  1
  Ni  Ni6  1  1.00084536  0.66832108  0.00190137  1
  Ni  Ni7  1  0.16761986  0.83636459  0.16894476  1
  Ni  Ni8  1  0.00223331  0.66807756  0.33551232  1
  Ni  Ni9  1  0.33562936  0.00183845  0.00202284  1
  Ni  Ni10  1  0.50081227  0.16884745  0.16859904  1
  Ni  Ni11  1  0.33556064  0.00301388  0.33522998  1
  Ni  Ni12  1  0.33540348  0.33523057  1.00166784  1
  Ni  Ni13  1  0.50208493  0.49989240  0.16734953  1
  Ni  Ni14  1  0.33443466  0.33430999  0.33528848  1
  Ni  Ni15  1  0.33608332  0.66832431  0.00248878  1
  Ni  Ni16  1  0.50094070  0.83664874  0.16740184  1
  Fe  Fe17  1  0.33296332  0.66927950  0.33548950  1
  Ni  Ni18  1  0.66810770  1.00080227  0.00195097  1
  Fe  Fe19  1  0.83487561  0.16764753  0.16767217  1
  Ni  Ni20  1  0.66777157  0.00205813  0.33540400  1
  Ni  Ni21  1  0.66811139  0.33603541  0.00243536  1
  Ni  Ni22  1  0.83569380  0.50144270  0.16711029  1
  Fe  Fe23  1  0.66842650  0.33330217  0.33514518  1
  Ni  Ni24  1  0.66846425  0.66854795  1.00161566  1
  Ni  Ni25  1  0.83682266  0.83508536  0.16716845  1
  Cr  Cr26  1  0.66873324  0.66948428  0.33543128  1
  Ni  Ni27  1  0.16918092  0.16837886  0.50246104  1
  Ni  Ni28  1  0.00188619  1.00167857  0.66791019  1
  Fe  Fe29  1  0.16834678  0.16851756  0.83519256  1
  Ni  Ni30  1  0.16762390  0.50159814  0.50115386  1
  Ni  Ni31  1  0.00218731  0.33550310  0.66820163  1
  Ni  Ni32  1  0.16797015  0.50230213  0.83534319  1
  Ni  Ni33  1  0.16761971  0.83541761  0.50163777  1
  Ni  Ni34  1  0.00317529  0.66820878  0.66797261  1
  Ni  Ni35  1  0.16797011  0.83467351  0.83480783  1
  Ni  Ni36  1  0.50133344  0.16861074  0.50168854  1
  Ni  Ni37  1  0.33539510  0.00203573  0.66813946  1
  Ni  Ni38  1  0.50246038  0.16871862  0.83510098  1
  Ni  Ni39  1  0.50048714  0.49896697  0.50203593  1
  Ni  Ni40  1  0.33509283  0.33514722  0.66843228  1
  Ni  Ni41  1  0.50093245  0.49988898  0.83600703  1
  Ni  Ni42  1  0.50025398  0.83781082  0.50169236  1
  Ni  Ni43  1  0.33374936  0.66820858  0.66738171  1
  Ni  Ni44  1  0.50062872  0.83678358  0.83630129  1
  Fe  Fe45  1  0.83533391  0.16817438  0.50265865  1
  Ni  Ni46  1  0.66811056  0.00302458  0.66803575  1
  Ni  Ni47  1  0.83437754  0.16871849  0.83510101  1
  Ni  Ni48  1  0.83727432  0.50052056  0.50227740  1
  Ni  Ni49  1  0.66811197  0.33385580  0.66749855  1
  Ni  Ni50  1  0.83648799  0.50046964  0.83600593  1
  Ni  Ni51  1  0.83750831  0.83625224  0.50192737  1
  Cr  Cr52  1  0.66846665  0.66872010  0.66917652  1
  Ni  Ni53  1  0.83679198  0.83620298  0.83630032  1
" 