4763,Ni86Fe8Cr5_14,-238.469898031969, 182.994403652194,Ni86Fe8Cr5,"# generated using pymatgen
 data_Cr2Fe2Ni23
_symmetry_space_group_name_H-M   'P 1'
_cell_length_a   7.45096389
_cell_length_b   7.45096389
_cell_length_c   10.53725419
_cell_angle_alpha   90.00000000
_cell_angle_beta   90.00000000
_cell_angle_gamma   90.00000000
_symmetry_Int_Tables_number   1
_chemical_formula_structural   Cr2Fe2Ni23
_chemical_formula_sum   'Cr4 Fe4 Ni46'
_cell_volume   584.99529688
_cell_formula_units_Z   2
loop_
 _symmetry_equiv_pos_site_id
 _symmetry_equiv_pos_as_xyz
  1  'x, y, z'
loop_
 _atom_site_type_symbol
 _atom_site_label
 _atom_site_symmetry_multiplicity
 _atom_site_fract_x
 _atom_site_fract_y
 _atom_site_fract_z
 _atom_site_occupancy
  Ni  Ni0  1  0.00296266  1.00094502  0.00149905  1
  Ni  Ni1  1  0.16882609  0.16785265  0.16738784  1
  Fe  Fe2  1  0.00211018  0.00227041  0.33376157  1
  Ni  Ni3  1  0.00156651  0.33497391  0.00130947  1
  Ni  Ni4  1  0.16709804  0.50051354  0.16779274  1
  Ni  Ni5  1  0.00341863  0.33596168  0.33459041  1
  Ni  Ni6  1  0.00112302  0.66740930  1.00062476  1
  Ni  Ni7  1  0.16700216  0.83489557  0.16776675  1
  Ni  Ni8  1  0.00159858  0.66572570  0.33389928  1
  Ni  Ni9  1  0.33203918  0.99999638  0.00146153  1
  Ni  Ni10  1  0.49824408  0.16803501  0.16772594  1
  Ni  Ni11  1  0.33529993  0.00164746  0.33475592  1
  Ni  Ni12  1  0.33296434  0.33536987  0.00241332  1
  Ni  Ni13  1  0.50084789  0.50110359  0.16644251  1
  Ni  Ni14  1  0.33218386  0.33308375  0.33442189  1
  Ni  Ni15  1  0.33416001  0.66787649  0.00177534  1
  Ni  Ni16  1  0.50067706  0.83396710  0.16873837  1
  Fe  Fe17  1  0.33467678  0.66703175  0.33422148  1
  Cr  Cr18  1  0.66806629  0.99916006  0.00229298  1
  Fe  Fe19  1  0.83616799  0.16830356  0.16769250  1
  Ni  Ni20  1  0.66529335  0.99985813  0.33370968  1
  Ni  Ni21  1  0.66883202  0.33709228  0.00162750  1
  Ni  Ni22  1  0.83536959  0.50311205  0.16670546  1
  Cr  Cr23  1  0.66760025  0.33463921  0.33490900  1
  Ni  Ni24  1  0.66796271  0.66635347  0.00134465  1
  Ni  Ni25  1  0.83556147  0.83247546  0.16853101  1
  Ni  Ni26  1  0.66798833  0.66896046  0.33330285  1
  Ni  Ni27  1  0.16815713  0.16792764  0.50124238  1
  Ni  Ni28  1  0.00191953  0.00247363  0.66811597  1
  Ni  Ni29  1  0.16606974  0.16784088  0.83460705  1
  Ni  Ni30  1  0.16751341  0.50076590  0.50054392  1
  Ni  Ni31  1  0.00200619  0.33468578  0.66726670  1
  Ni  Ni32  1  0.16779677  0.50081423  0.83475837  1
  Ni  Ni33  1  0.16915515  0.83452734  0.50095138  1
  Ni  Ni34  1  0.00203242  0.66609676  0.66871715  1
  Ni  Ni35  1  0.16728418  0.83457813  0.83444153  1
  Ni  Ni36  1  0.49991651  0.16697559  0.50200828  1
  Ni  Ni37  1  0.33383767  1.00031016  0.66701979  1
  Cr  Cr38  1  0.49885575  0.16931918  0.83363878  1
  Ni  Ni39  1  0.50035154  0.50156289  0.50178703  1
  Ni  Ni40  1  0.33209254  0.33538335  0.66641420  1
  Ni  Ni41  1  0.50092505  0.50272558  0.83507176  1
  Ni  Ni42  1  0.49996422  0.83467700  0.50076255  1
  Ni  Ni43  1  0.33447397  0.66753432  0.66682180  1
  Ni  Ni44  1  0.50026198  0.83186695  0.83358797  1
  Ni  Ni45  1  0.83525005  0.16845159  0.50144261  1
  Ni  Ni46  1  0.66754321  1.00024997  0.66705761  1
  Ni  Ni47  1  0.83719429  0.16850417  0.83402873  1
  Ni  Ni48  1  0.83540885  0.50066843  0.50219662  1
  Fe  Fe49  1  0.66861017  0.33545754  0.66730257  1
  Ni  Ni50  1  0.83455164  0.50143702  0.83441765  1
  Cr  Cr51  1  0.83499179  0.83366683  0.50103540  1
  Ni  Ni52  1  0.66680595  0.66775508  0.66862037  1
  Ni  Ni53  1  0.83567170  0.83341264  0.83372047  1
" 