4678,Ni86Fe8Cr5_9,-238.178858786281, 180.037593418611,Ni86Fe8Cr5,"# generated using pymatgen
 data_Cr2Fe2Ni23
_symmetry_space_group_name_H-M   'P 1'
_cell_length_a   7.45284864
_cell_length_b   7.45284864
_cell_length_c   10.53991962
_cell_angle_alpha   90.00000000
_cell_angle_beta   90.00000000
_cell_angle_gamma   90.00000000
_symmetry_Int_Tables_number   1
_chemical_formula_structural   Cr2Fe2Ni23
_chemical_formula_sum   'Cr4 Fe4 Ni46'
_cell_volume   585.43933750
_cell_formula_units_Z   2
loop_
 _symmetry_equiv_pos_site_id
 _symmetry_equiv_pos_as_xyz
  1  'x, y, z'
loop_
 _atom_site_type_symbol
 _atom_site_label
 _atom_site_symmetry_multiplicity
 _atom_site_fract_x
 _atom_site_fract_y
 _atom_site_fract_z
 _atom_site_occupancy
  Ni  Ni0  1  1.00020539  0.00195105  0.00114909  1
  Ni  Ni1  1  0.16645083  0.16656888  0.16806838  1
  Ni  Ni2  1  1.00024574  0.00163460  0.33399739  1
  Ni  Ni3  1  0.99896719  0.33327100  0.00193645  1
  Ni  Ni4  1  0.16746934  0.50098925  0.16992497  1
  Fe  Fe5  1  0.00185049  0.33347431  0.33416036  1
  Cr  Cr6  1  0.00291075  0.66698615  0.00179561  1
  Ni  Ni7  1  0.16889031  0.83550041  0.16868323  1
  Fe  Fe8  1  0.00216049  0.66922782  0.33446413  1
  Ni  Ni9  1  0.33440014  0.99974557  0.00200271  1
  Ni  Ni10  1  0.50155281  0.16653327  0.16881702  1
  Ni  Ni11  1  0.33388381  0.00170185  0.33394745  1
  Cr  Cr12  1  0.33275901  0.33488613  0.00152359  1
  Ni  Ni13  1  0.50163645  0.50175102  0.16815274  1
  Ni  Ni14  1  0.33338389  0.33481658  0.33396095  1
  Ni  Ni15  1  0.33517760  0.66832880  0.00159475  1
  Ni  Ni16  1  0.50069443  0.83428907  0.16755031  1
  Ni  Ni17  1  0.33522386  0.66632012  0.33397258  1
  Ni  Ni18  1  0.66807725  0.00179733  0.00159729  1
  Ni  Ni19  1  0.83442132  0.16764923  0.16748666  1
  Ni  Ni20  1  0.66868389  0.99988145  0.33471848  1
  Ni  Ni21  1  0.66857168  0.33356496  0.00169737  1
  Ni  Ni22  1  0.83356706  0.49960124  0.16901730  1
  Fe  Fe23  1  0.66582777  0.33310279  0.33438177  1
  Fe  Fe24  1  0.66730503  0.66777351  0.00152415  1
  Ni  Ni25  1  0.83374315  0.83522177  0.16837659  1
  Ni  Ni26  1  0.66808469  0.66756533  0.33346003  1
  Ni  Ni27  1  0.16752502  0.16737297  0.50139387  1
  Ni  Ni28  1  0.00184383  0.00098585  0.66772662  1
  Ni  Ni29  1  0.16646139  0.16650760  0.83368893  1
  Ni  Ni30  1  0.16779313  0.50092103  0.50115582  1
  Ni  Ni31  1  0.00113946  0.33444429  0.66756706  1
  Ni  Ni32  1  0.16722257  0.50112966  0.83192548  1
  Ni  Ni33  1  0.16807851  0.83478217  0.50104274  1
  Ni  Ni34  1  0.00204925  0.66745123  0.66616695  1
  Ni  Ni35  1  0.16867226  0.83514387  0.83299478  1
  Ni  Ni36  1  0.49965439  0.16841570  0.49977448  1
  Ni  Ni37  1  0.33284637  0.00133870  0.66694908  1
  Ni  Ni38  1  0.50111604  0.16755639  0.83398057  1
  Ni  Ni39  1  0.50046704  0.50036573  0.50028574  1
  Ni  Ni40  1  0.33407189  0.33451055  0.66745621  1
  Ni  Ni41  1  0.50104121  0.50072766  0.83447154  1
  Ni  Ni42  1  0.49899449  0.83393059  0.49858901  1
  Ni  Ni43  1  0.33271537  0.66696206  0.66735782  1
  Ni  Ni44  1  0.49854160  0.83463894  0.83679255  1
  Ni  Ni45  1  0.83545156  0.16861439  0.50013195  1
  Cr  Cr46  1  0.66795829  0.00232695  0.66577569  1
  Ni  Ni47  1  0.83499260  0.16891637  0.83520840  1
  Ni  Ni48  1  0.83485471  0.50007848  0.49964939  1
  Ni  Ni49  1  0.66766836  0.33463399  0.66647338  1
  Ni  Ni50  1  0.83450857  0.49865424  0.83429922  1
  Ni  Ni51  1  0.83622058  0.83410590  0.49888769  1
  Cr  Cr52  1  0.66785587  0.66749059  0.66836021  1
  Ni  Ni53  1  0.83555097  0.83530031  0.83537318  1
" 