5790,Ni86Fe11Cr1_19,-240.583087177681, 192.360795378805,Ni86Fe11Cr1,"# generated using pymatgen
 data_CrFe3Ni23
_symmetry_space_group_name_H-M   'P 1'
_cell_length_a   7.44211890
_cell_length_b   7.44211890
_cell_length_c   10.52474548
_cell_angle_alpha   90.00000000
_cell_angle_beta   90.00000000
_cell_angle_gamma   90.00000000
_symmetry_Int_Tables_number   1
_chemical_formula_structural   CrFe3Ni23
_chemical_formula_sum   'Cr2 Fe6 Ni46'
_cell_volume   582.91443643
_cell_formula_units_Z   2
loop_
 _symmetry_equiv_pos_site_id
 _symmetry_equiv_pos_as_xyz
  1  'x, y, z'
loop_
 _atom_site_type_symbol
 _atom_site_label
 _atom_site_symmetry_multiplicity
 _atom_site_fract_x
 _atom_site_fract_y
 _atom_site_fract_z
 _atom_site_occupancy
  Ni  Ni0  1  0.00381573  1.00011459  1.00039427  1
  Ni  Ni1  1  0.16920215  0.16754604  0.16876351  1
  Ni  Ni2  1  0.00350444  1.00043135  0.33550164  1
  Ni  Ni3  1  0.00348152  0.33621251  1.00102709  1
  Ni  Ni4  1  0.16787862  0.50231152  0.16883784  1
  Ni  Ni5  1  0.00384932  0.33436294  0.33549259  1
  Ni  Ni6  1  1.00069189  0.66866574  0.00187258  1
  Ni  Ni7  1  0.16948945  0.83491588  0.16788955  1
  Fe  Fe8  1  0.00354619  0.66752980  0.33425191  1
  Ni  Ni9  1  0.33414917  0.00200723  1.00165242  1
  Ni  Ni10  1  0.49942874  0.16661050  0.16781038  1
  Ni  Ni11  1  0.33275200  1.00081836  0.33524676  1
  Ni  Ni12  1  0.33470809  0.33431744  0.00275072  1
  Ni  Ni13  1  0.50111974  0.50346645  0.16736691  1
  Ni  Ni14  1  0.33290679  0.33507458  0.33524360  1
  Fe  Fe15  1  0.33451204  0.66836510  1.00139810  1
  Ni  Ni16  1  0.50064061  0.83492697  0.16828658  1
  Ni  Ni17  1  0.33671407  0.66893904  0.33433210  1
  Ni  Ni18  1  0.66699030  0.99941989  1.00137107  1
  Cr  Cr19  1  0.83598827  0.16874922  0.16593186  1
  Fe  Fe20  1  0.66631023  1.00086357  0.33592124  1
  Ni  Ni21  1  0.66687846  0.33719384  1.00023707  1
  Ni  Ni22  1  0.83608841  0.50331024  0.16732637  1
  Cr  Cr23  1  0.66672934  0.33835156  0.33606166  1
  Ni  Ni24  1  0.66877782  0.66809823  0.00176336  1
  Fe  Fe25  1  0.83535955  0.83365086  0.16711093  1
  Ni  Ni26  1  0.66847284  0.67009138  0.33482055  1
  Ni  Ni27  1  0.16742809  0.16761326  0.50107681  1
  Ni  Ni28  1  0.00241650  0.00216108  0.66909849  1
  Ni  Ni29  1  0.16797081  0.16822638  0.83526820  1
  Ni  Ni30  1  0.16792397  0.50283353  0.50112418  1
  Ni  Ni31  1  0.00190786  0.33400828  0.66829564  1
  Ni  Ni32  1  0.16810025  0.50190467  0.83516811  1
  Ni  Ni33  1  0.16943817  0.83442490  0.50211601  1
  Fe  Fe34  1  0.00235178  0.66806538  0.66980554  1
  Ni  Ni35  1  0.16878891  0.83488333  0.83512028  1
  Ni  Ni36  1  0.50110558  0.16658197  0.50243754  1
  Ni  Ni37  1  0.33383162  1.00110676  0.66820777  1
  Ni  Ni38  1  0.50238459  0.16764538  0.83483268  1
  Ni  Ni39  1  0.50097382  0.50379073  0.50248312  1
  Ni  Ni40  1  0.33442594  0.33529523  0.66706281  1
  Ni  Ni41  1  0.50183687  0.50220461  0.83505456  1
  Ni  Ni42  1  0.50045074  0.83461100  0.50157108  1
  Ni  Ni43  1  0.33611646  0.66867747  0.66896211  1
  Ni  Ni44  1  0.50166386  0.83518950  0.83505936  1
  Ni  Ni45  1  0.83620934  0.16823087  0.50298896  1
  Ni  Ni46  1  0.66877322  1.00063378  0.66765306  1
  Ni  Ni47  1  0.83466253  0.16832892  0.83522888  1
  Ni  Ni48  1  0.83643355  0.50185703  0.50266447  1
  Ni  Ni49  1  0.66869877  0.33617404  0.66874338  1
  Ni  Ni50  1  0.83508519  0.50133756  0.83533440  1
  Fe  Fe51  1  0.83517103  0.83498427  0.50268881  1
  Ni  Ni52  1  0.66772479  0.66806634  0.66844251  1
  Ni  Ni53  1  0.83458130  0.83526021  0.83528989  1
" 