8950,Ni86Fe2Cr10_18,-235.060785642147, 165.413452830632,Ni86Fe2Cr10,"# generated using pymatgen
 data_Cr7FeNi46
_symmetry_space_group_name_H-M   'P 1'
_cell_length_a   7.46626659
_cell_length_b   7.46626659
_cell_length_c   10.55889548
_cell_angle_alpha   90.00000000
_cell_angle_beta   90.00000000
_cell_angle_gamma   90.00000000
_symmetry_Int_Tables_number   1
_chemical_formula_structural   Cr7FeNi46
_chemical_formula_sum   'Cr7 Fe1 Ni46'
_cell_volume   588.60707301
_cell_formula_units_Z   1
loop_
 _symmetry_equiv_pos_site_id
 _symmetry_equiv_pos_as_xyz
  1  'x, y, z'
loop_
 _atom_site_type_symbol
 _atom_site_label
 _atom_site_symmetry_multiplicity
 _atom_site_fract_x
 _atom_site_fract_y
 _atom_site_fract_z
 _atom_site_occupancy
  Ni  Ni0  1  0.00065245  0.99994120  0.99996569  1
  Ni  Ni1  1  0.16722833  0.16744246  0.16608246  1
  Cr  Cr2  1  0.00237593  0.99988648  0.33286782  1
  Ni  Ni3  1  0.00064384  0.33365055  0.99961535  1
  Ni  Ni4  1  0.16665972  0.50038231  0.16671520  1
  Ni  Ni5  1  0.00073144  0.33514111  0.33400401  1
  Ni  Ni6  1  0.00035928  0.66656931  0.99998545  1
  Ni  Ni7  1  0.16735049  0.83235612  0.16585618  1
  Ni  Ni8  1  0.00036092  0.66521847  0.33346687  1
  Ni  Ni9  1  0.33314231  0.00008280  0.00046652  1
  Ni  Ni10  1  0.49928676  0.16757032  0.16579610  1
  Ni  Ni11  1  0.33259882  0.99921245  0.33251236  1
  Ni  Ni12  1  0.33219227  0.33265575  0.00063071  1
  Ni  Ni13  1  0.49982949  0.50024871  0.16696349  1
  Ni  Ni14  1  0.33114922  0.33359642  0.33166834  1
  Ni  Ni15  1  0.33233292  0.66751603  0.99996883  1
  Ni  Ni16  1  0.49901866  0.83238876  0.16617886  1
  Ni  Ni17  1  0.33224113  0.66750807  0.33344812  1
  Ni  Ni18  1  0.66636833  0.99981843  0.99922460  1
  Ni  Ni19  1  0.83371861  0.16832484  0.16500159  1
  Cr  Cr20  1  0.66660024  0.99893129  0.33305477  1
  Ni  Ni21  1  0.66735591  0.33280397  0.00074856  1
  Ni  Ni22  1  0.83368315  0.50013191  0.16690097  1
  Ni  Ni23  1  0.66835605  0.33516330  0.33176110  1
  Ni  Ni24  1  0.66735375  0.66752990  0.00100944  1
  Ni  Ni25  1  0.83376728  0.83177621  0.16483041  1
  Ni  Ni26  1  0.66742147  0.66612300  0.33265603  1
  Ni  Ni27  1  0.16573546  0.16725295  0.50057954  1
  Ni  Ni28  1  0.00089246  0.99961796  0.66663975  1
  Ni  Ni29  1  0.16633917  0.16639721  0.83330699  1
  Ni  Ni30  1  0.16480486  0.50023638  0.50042775  1
  Ni  Ni31  1  0.00257181  0.33387670  0.66651094  1
  Ni  Ni32  1  0.16464884  0.50011923  0.83309466  1
  Ni  Ni33  1  0.16697551  0.83272285  0.50073105  1
  Ni  Ni34  1  0.00119509  0.66665679  0.66670655  1
  Ni  Ni35  1  0.16607931  0.83372902  0.83350100  1
  Cr  Cr36  1  0.49839889  0.16594080  0.50002801  1
  Ni  Ni37  1  0.33214362  0.99982133  0.66718337  1
  Ni  Ni38  1  0.49905513  0.16431110  0.83425577  1
  Cr  Cr39  1  0.49797149  0.50096938  0.49793230  1
  Ni  Ni40  1  0.32890828  0.33160686  0.66779941  1
  Cr  Cr41  1  0.49791164  0.49985574  0.83541030  1
  Ni  Ni42  1  0.49825872  0.83348306  0.50029129  1
  Fe  Fe43  1  0.33018161  0.66839812  0.66716705  1
  Ni  Ni44  1  0.49918816  0.83605390  0.83388296  1
  Ni  Ni45  1  0.83614319  0.16729999  0.50127815  1
  Ni  Ni46  1  0.66696556  0.99861438  0.66759078  1
  Ni  Ni47  1  0.83470082  0.16544869  0.83374336  1
  Ni  Ni48  1  0.83667906  0.50029108  0.49810979  1
  Cr  Cr49  1  0.66933332  0.33189557  0.66802375  1
  Ni  Ni50  1  0.83674080  0.50019206  0.83527310  1
  Ni  Ni51  1  0.83466216  0.83262947  0.50088188  1
  Cr  Cr52  1  0.66899111  0.66903320  0.66684140  1
  Ni  Ni53  1  0.83456954  0.83440032  0.83425364  1
" 