3386,Ni86Fe2Cr10_13,-235.073584881329, 166.815997112762,Ni86Fe2Cr10,"# generated using pymatgen
 data_Cr7FeNi46
_symmetry_space_group_name_H-M   'P 1'
_cell_length_a   7.46610452
_cell_length_b   7.46610452
_cell_length_c   10.55866627
_cell_angle_alpha   90.00000000
_cell_angle_beta   90.00000000
_cell_angle_gamma   90.00000000
_symmetry_Int_Tables_number   1
_chemical_formula_structural   Cr7FeNi46
_chemical_formula_sum   'Cr7 Fe1 Ni46'
_cell_volume   588.56874245
_cell_formula_units_Z   1
loop_
 _symmetry_equiv_pos_site_id
 _symmetry_equiv_pos_as_xyz
  1  'x, y, z'
loop_
 _atom_site_type_symbol
 _atom_site_label
 _atom_site_symmetry_multiplicity
 _atom_site_fract_x
 _atom_site_fract_y
 _atom_site_fract_z
 _atom_site_occupancy
  Ni  Ni0  1  0.99853167  0.99858487  0.99925392  1
  Ni  Ni1  1  0.16531017  0.16661588  0.16669321  1
  Cr  Cr2  1  0.00121104  0.99920832  0.33421051  1
  Cr  Cr3  1  0.00146347  0.33422382  0.00169415  1
  Ni  Ni4  1  0.16656369  0.50251659  0.16655467  1
  Ni  Ni5  1  0.99801532  0.33497937  0.33331212  1
  Ni  Ni6  1  0.00028229  0.66825880  0.99973665  1
  Ni  Ni7  1  0.16632212  0.83114295  0.16688360  1
  Ni  Ni8  1  0.00030184  0.66475653  0.33391620  1
  Cr  Cr9  1  0.33199547  0.99840724  0.99956118  1
  Cr  Cr10  1  0.50130088  0.16574692  0.16787871  1
  Ni  Ni11  1  0.33436839  0.99744954  0.33506895  1
  Ni  Ni12  1  0.33255170  0.33610647  0.99808264  1
  Ni  Ni13  1  0.49999580  0.50351832  0.16628628  1
  Cr  Cr14  1  0.33128516  0.33552313  0.33381965  1
  Ni  Ni15  1  0.33342718  0.66510669  0.00035194  1
  Ni  Ni16  1  0.50122823  0.83052854  0.16802067  1
  Ni  Ni17  1  0.33346063  0.66865822  0.33324157  1
  Ni  Ni18  1  0.66881621  0.99775952  0.99888918  1
  Ni  Ni19  1  0.83423532  0.16542191  0.16799934  1
  Ni  Ni20  1  0.66645227  0.99869913  0.33459298  1
  Cr  Cr21  1  0.66658152  0.33565514  0.99864711  1
  Ni  Ni22  1  0.83340346  0.50265937  0.16929811  1
  Ni  Ni23  1  0.66882660  0.33470692  0.33475332  1
  Ni  Ni24  1  0.66647771  0.66849781  0.99932022  1
  Ni  Ni25  1  0.83279985  0.83216158  0.16531663  1
  Ni  Ni26  1  0.66647438  0.66655307  0.33403471  1
  Ni  Ni27  1  0.16672176  0.16681987  0.50204922  1
  Ni  Ni28  1  0.00228641  0.00034874  0.66724382  1
  Ni  Ni29  1  0.16655784  0.16697620  0.83145538  1
  Ni  Ni30  1  0.16548812  0.50146233  0.50086894  1
  Ni  Ni31  1  0.99926192  0.33371003  0.66609381  1
  Ni  Ni32  1  0.16728080  0.50129648  0.83257507  1
  Ni  Ni33  1  0.16765696  0.83222507  0.50130964  1
  Ni  Ni34  1  0.00069663  0.66619673  0.66654818  1
  Ni  Ni35  1  0.16578796  0.83242380  0.83221303  1
  Ni  Ni36  1  0.50011925  0.16670160  0.50000471  1
  Ni  Ni37  1  0.33186955  0.99905980  0.66583474  1
  Ni  Ni38  1  0.49906413  0.16754165  0.83200826  1
  Ni  Ni39  1  0.50093299  0.50118232  0.50096602  1
  Fe  Fe40  1  0.33308561  0.33428398  0.66684943  1
  Ni  Ni41  1  0.49902159  0.50135623  0.83236468  1
  Ni  Ni42  1  0.49912179  0.83236872  0.49859246  1
  Ni  Ni43  1  0.33344540  0.66763211  0.66655058  1
  Ni  Ni44  1  0.49993404  0.83158283  0.83371420  1
  Ni  Ni45  1  0.83339212  0.16833152  0.49980120  1
  Cr  Cr46  1  0.66655377  0.99846300  0.66684894  1
  Ni  Ni47  1  0.83436972  0.16587557  0.83269370  1
  Ni  Ni48  1  0.83351839  0.50025144  0.50005601  1
  Ni  Ni49  1  0.66748475  0.33470877  0.66642331  1
  Ni  Ni50  1  0.83365882  0.50211681  0.83105706  1
  Ni  Ni51  1  0.83369972  0.83104040  0.50072288  1
  Ni  Ni52  1  0.66610575  0.66403508  0.66688133  1
  Ni  Ni53  1  0.83461236  0.83197283  0.83426575  1
" 