5185,Ni86Fe2Cr10_6,-235.014954687025, 165.879338382989,Ni86Fe2Cr10,"# generated using pymatgen
 data_Cr7FeNi46
_symmetry_space_group_name_H-M   'P 1'
_cell_length_a   7.46386496
_cell_length_b   7.46386496
_cell_length_c   10.55549905
_cell_angle_alpha   90.00000000
_cell_angle_beta   90.00000000
_cell_angle_gamma   90.00000000
_symmetry_Int_Tables_number   1
_chemical_formula_structural   Cr7FeNi46
_chemical_formula_sum   'Cr7 Fe1 Ni46'
_cell_volume   588.03925303
_cell_formula_units_Z   1
loop_
 _symmetry_equiv_pos_site_id
 _symmetry_equiv_pos_as_xyz
  1  'x, y, z'
loop_
 _atom_site_type_symbol
 _atom_site_label
 _atom_site_symmetry_multiplicity
 _atom_site_fract_x
 _atom_site_fract_y
 _atom_site_fract_z
 _atom_site_occupancy
  Ni  Ni0  1  1.00003428  0.00033210  0.00063385  1
  Ni  Ni1  1  0.16669839  0.16666681  0.16702650  1
  Ni  Ni2  1  0.00024331  0.00052857  0.33337197  1
  Ni  Ni3  1  0.00150902  0.33202821  0.99897946  1
  Ni  Ni4  1  0.16692649  0.49956789  0.16778840  1
  Ni  Ni5  1  0.00130929  0.33222740  0.33460378  1
  Ni  Ni6  1  0.00091345  0.66825473  0.99902138  1
  Ni  Ni7  1  0.16641802  0.83441541  0.16761278  1
  Ni  Ni8  1  0.00102540  0.66792670  0.33445443  1
  Ni  Ni9  1  0.33322526  0.00200697  0.99982797  1
  Ni  Ni10  1  0.50041753  0.16632066  0.16704291  1
  Ni  Ni11  1  0.33245595  0.00142083  0.33292939  1
  Ni  Ni12  1  0.33348507  0.33197726  0.00063521  1
  Ni  Ni13  1  0.49909506  0.49842292  0.16912945  1
  Ni  Ni14  1  0.33342577  0.33343643  0.33338022  1
  Cr  Cr15  1  0.33289742  0.66622384  0.00035017  1
  Ni  Ni16  1  0.49978103  0.83586344  0.16838130  1
  Ni  Ni17  1  0.33280033  0.66579118  0.33287605  1
  Ni  Ni18  1  0.66738393  0.00161508  1.00005230  1
  Ni  Ni19  1  0.83349134  0.16569566  0.16668207  1
  Ni  Ni20  1  0.66805163  0.00126585  0.33274652  1
  Ni  Ni21  1  0.66565490  0.33115270  0.99899344  1
  Cr  Cr22  1  0.83513582  0.49821147  0.16695573  1
  Ni  Ni23  1  0.66589638  0.33260303  0.33458976  1
  Cr  Cr24  1  0.66719479  0.66812105  0.99994597  1
  Ni  Ni25  1  0.83450502  0.83571489  0.16828422  1
  Ni  Ni26  1  0.66689521  0.66679752  0.33326503  1
  Ni  Ni27  1  0.16657455  0.16642449  0.49843875  1
  Cr  Cr28  1  0.00024462  0.00133833  0.66615513  1
  Ni  Ni29  1  0.16672863  0.16664814  0.83501942  1
  Ni  Ni30  1  0.16518939  0.50160562  0.49947382  1
  Ni  Ni31  1  0.99889009  0.33458824  0.66692406  1
  Ni  Ni32  1  0.16459550  0.50042275  0.83336479  1
  Ni  Ni33  1  0.16712281  0.83256841  0.49971280  1
  Ni  Ni34  1  0.00171473  0.66571366  0.66715494  1
  Ni  Ni35  1  0.16715261  0.83357694  0.83321490  1
  Ni  Ni36  1  0.50159197  0.16673668  0.49970215  1
  Ni  Ni37  1  0.33372619  0.99998819  0.66792990  1
  Ni  Ni38  1  0.50124578  0.16549861  0.83384304  1
  Ni  Ni39  1  0.50075808  0.49933232  0.49835532  1
  Cr  Cr40  1  0.33310511  0.33316620  0.66631440  1
  Ni  Ni41  1  0.50033946  0.49842861  0.83330307  1
  Cr  Cr42  1  0.49790839  0.83508850  0.49999547  1
  Ni  Ni43  1  0.33145555  0.66702023  0.66774576  1
  Ni  Ni44  1  0.49904742  0.83659454  0.83264793  1
  Ni  Ni45  1  0.83253563  0.16899542  0.49942068  1
  Ni  Ni46  1  0.66664737  0.00277996  0.66803182  1
  Ni  Ni47  1  0.83265125  0.16806373  0.83434101  1
  Ni  Ni48  1  0.83473751  0.49843930  0.49992404  1
  Ni  Ni49  1  0.66816245  0.33205638  0.66692011  1
  Ni  Ni50  1  0.83562688  0.49818124  0.83329740  1
  Fe  Fe51  1  0.83456140  0.83351764  0.49867564  1
  Cr  Cr52  1  0.66776978  0.66566598  0.66812152  1
  Ni  Ni53  1  0.83455983  0.83448433  0.83392488  1
" 