4149,Ni86Fe8Cr5_3,-238.294386683012, 181.645589967389,Ni86Fe8Cr5,"# generated using pymatgen
 data_Cr2Fe2Ni23
_symmetry_space_group_name_H-M   'P 1'
_cell_length_a   7.45080798
_cell_length_b   7.45080798
_cell_length_c   10.53703370
_cell_angle_alpha   90.00000000
_cell_angle_beta   90.00000000
_cell_angle_gamma   90.00000000
_symmetry_Int_Tables_number   1
_chemical_formula_structural   Cr2Fe2Ni23
_chemical_formula_sum   'Cr4 Fe4 Ni46'
_cell_volume   584.95857470
_cell_formula_units_Z   2
loop_
 _symmetry_equiv_pos_site_id
 _symmetry_equiv_pos_as_xyz
  1  'x, y, z'
loop_
 _atom_site_type_symbol
 _atom_site_label
 _atom_site_symmetry_multiplicity
 _atom_site_fract_x
 _atom_site_fract_y
 _atom_site_fract_z
 _atom_site_occupancy
  Cr  Cr0  1  1.00083659  0.00311570  0.00125410  1
  Ni  Ni1  1  0.16886425  0.16871854  0.16848146  1
  Ni  Ni2  1  0.00177537  0.00294321  0.33441188  1
  Ni  Ni3  1  0.00278131  0.33612287  0.00111613  1
  Ni  Ni4  1  0.16760235  0.50120373  0.16807526  1
  Ni  Ni5  1  1.00064164  0.33369909  0.33366505  1
  Ni  Ni6  1  0.00135515  0.66684864  0.00230251  1
  Ni  Ni7  1  0.16844744  0.83359849  0.16873873  1
  Fe  Fe8  1  1.00086830  0.66885389  0.33475268  1
  Ni  Ni9  1  0.33513709  1.00065766  0.00115434  1
  Ni  Ni10  1  0.50052140  0.16637686  0.16897907  1
  Ni  Ni11  1  0.33364473  0.99916063  0.33442946  1
  Ni  Ni12  1  0.33311863  0.33468085  0.00204255  1
  Ni  Ni13  1  0.49916951  0.50053489  0.16770903  1
  Fe  Fe14  1  0.33543902  0.33339910  0.33428801  1
  Ni  Ni15  1  0.33464670  0.66773478  0.00140586  1
  Ni  Ni16  1  0.49993368  0.83562774  0.16635035  1
  Ni  Ni17  1  0.33312642  0.66805368  0.33449529  1
  Ni  Ni18  1  0.66648605  0.99947903  0.00212606  1
  Ni  Ni19  1  0.83443925  0.16780883  0.16974287  1
  Ni  Ni20  1  0.66802382  0.00247358  0.33375784  1
  Cr  Cr21  1  0.66930405  0.33407426  0.00221367  1
  Ni  Ni22  1  0.83665351  0.50096362  0.16768605  1
  Ni  Ni23  1  0.66948791  0.33362760  0.33448076  1
  Ni  Ni24  1  0.66734136  0.66850522  1.00054084  1
  Ni  Ni25  1  0.83444313  0.83497857  0.16788298  1
  Cr  Cr26  1  0.66521221  0.66692102  0.33559203  1
  Fe  Fe27  1  0.16734997  0.16764634  0.50033206  1
  Ni  Ni28  1  0.00162634  0.00178502  0.66733324  1
  Fe  Fe29  1  0.16873638  0.16859105  0.83424208  1
  Ni  Ni30  1  0.16677384  0.50075270  0.49935267  1
  Ni  Ni31  1  0.00127291  0.33370653  0.66838261  1
  Ni  Ni32  1  0.16685871  0.50079717  0.83568253  1
  Ni  Ni33  1  0.16693988  0.83445676  0.49987028  1
  Ni  Ni34  1  1.00048710  0.66764406  0.66638792  1
  Ni  Ni35  1  0.16738496  0.83325662  0.83450168  1
  Ni  Ni36  1  0.50188903  0.16721985  0.50061087  1
  Ni  Ni37  1  0.33347223  0.00265952  0.66767923  1
  Ni  Ni38  1  0.50060962  0.16696999  0.83364901  1
  Ni  Ni39  1  0.50023798  0.49822825  0.50149438  1
  Ni  Ni40  1  0.33370227  0.33299097  0.66671335  1
  Ni  Ni41  1  0.50023362  0.49963337  0.83414730  1
  Ni  Ni42  1  0.50041414  0.83717262  0.50160826  1
  Cr  Cr43  1  0.33555254  0.66817514  0.66721583  1
  Ni  Ni44  1  0.50146705  0.83664642  0.83536196  1
  Ni  Ni45  1  0.83356852  0.16785991  0.50094989  1
  Ni  Ni46  1  0.66785428  0.00130705  0.66729653  1
  Ni  Ni47  1  0.83300532  0.16768728  0.83240105  1
  Ni  Ni48  1  0.83626288  0.49932265  0.50279338  1
  Ni  Ni49  1  0.66791392  0.33463845  0.66695341  1
  Ni  Ni50  1  0.83657282  0.50151477  0.83306041  1
  Ni  Ni51  1  0.83572454  0.83644907  0.50243274  1
  Ni  Ni52  1  0.66907216  0.66734066  0.66766992  1
  Ni  Ni53  1  0.83456475  0.83423434  0.83305122  1
" 