7879,Ni86Fe2Cr11_17,-234.834799027496, 163.761509931911,Ni86Fe2Cr11,"# generated using pymatgen
 data_Cr7FeNi46
_symmetry_space_group_name_H-M   'P 1'
_cell_length_a   7.46890030
_cell_length_b   7.46890030
_cell_length_c   10.56262010
_cell_angle_alpha   90.00000000
_cell_angle_beta   90.00000000
_cell_angle_gamma   90.00000000
_symmetry_Int_Tables_number   1
_chemical_formula_structural   Cr7FeNi46
_chemical_formula_sum   'Cr7 Fe1 Ni46'
_cell_volume   589.23018161
_cell_formula_units_Z   1
loop_
 _symmetry_equiv_pos_site_id
 _symmetry_equiv_pos_as_xyz
  1  'x, y, z'
loop_
 _atom_site_type_symbol
 _atom_site_label
 _atom_site_symmetry_multiplicity
 _atom_site_fract_x
 _atom_site_fract_y
 _atom_site_fract_z
 _atom_site_occupancy
  Ni  Ni0  1  0.99713099  -0.00008125  0.99744149  1
  Cr  Cr1  1  0.16566915  0.16850838  0.16469879  1
  Cr  Cr2  1  0.99727061  0.99985949  0.33482479  1
  Ni  Ni3  1  0.99903202  0.33442462  0.99956580  1
  Ni  Ni4  1  0.16611714  0.50004491  0.16784099  1
  Ni  Ni5  1  -0.00002794  0.33495635  0.33305065  1
  Ni  Ni6  1  0.99901741  0.66530913  0.99907209  1
  Cr  Cr7  1  0.16778537  0.83196856  0.16412957  1
  Ni  Ni8  1  0.00000518  0.66485260  0.33324390  1
  Ni  Ni9  1  0.33361648  0.99981725  0.99770190  1
  Cr  Cr10  1  0.50036031  0.16599798  0.16659863  1
  Ni  Ni11  1  0.33620804  0.99874300  0.33632554  1
  Ni  Ni12  1  0.33312288  0.33589506  0.99788424  1
  Ni  Ni13  1  0.50033870  0.50156654  0.16618233  1
  Ni  Ni14  1  0.33240835  0.33461514  0.33425146  1
  Ni  Ni15  1  0.33320951  0.66392254  0.00024635  1
  Ni  Ni16  1  0.50155208  0.83106022  0.16750424  1
  Ni  Ni17  1  0.33339605  0.66629676  0.33302574  1
  Ni  Ni18  1  0.66886110  0.99986576  0.00049926  1
  Ni  Ni19  1  0.83230655  0.16816025  0.16606444  1
  Ni  Ni20  1  0.66569217  0.99882732  0.33436016  1
  Ni  Ni21  1  0.66737510  0.33417360  0.99889605  1
  Ni  Ni22  1  0.83313113  0.49993104  0.16667029  1
  Ni  Ni23  1  0.66722559  0.33212395  0.33197478  1
  Ni  Ni24  1  0.66738935  0.66555223  0.00114762  1
  Ni  Ni25  1  0.83070292  0.83154093  0.16580583  1
  Ni  Ni26  1  0.66629646  0.66864360  0.33094102  1
  Ni  Ni27  1  0.16749350  0.16652476  0.50062557  1
  Ni  Ni28  1  0.99975548  -0.00007574  0.66687806  1
  Ni  Ni29  1  0.16641019  0.16636428  0.83348897  1
  Fe  Fe30  1  0.16645603  0.49987574  0.50010769  1
  Ni  Ni31  1  0.00094093  0.33185481  0.66717541  1
  Ni  Ni32  1  0.16608367  0.49982259  0.83252850  1
  Ni  Ni33  1  0.16751928  0.83322849  0.50110850  1
  Ni  Ni34  1  0.00095885  0.66785927  0.66743500  1
  Ni  Ni35  1  0.16472824  0.83343515  0.83326120  1
  Ni  Ni36  1  0.49923041  0.16519374  0.49995068  1
  Ni  Ni37  1  0.33220961  0.00092757  0.66530384  1
  Ni  Ni38  1  0.49956086  0.16847051  0.83264976  1
  Cr  Cr39  1  0.50039793  0.49988235  0.50071324  1
  Ni  Ni40  1  0.33237845  0.33218434  0.66764425  1
  Ni  Ni41  1  0.50025974  0.49812879  0.83341941  1
  Ni  Ni42  1  0.49922485  0.83457422  0.49899913  1
  Ni  Ni43  1  0.33131961  0.66646140  0.66648673  1
  Cr  Cr44  1  0.49968896  0.83313838  0.83321761  1
  Ni  Ni45  1  0.83290881  0.16653029  0.50039912  1
  Ni  Ni46  1  0.66771606  0.00099129  0.66468947  1
  Ni  Ni47  1  0.83366692  0.16704934  0.83312036  1
  Cr  Cr48  1  0.83397783  0.49986323  0.50047276  1
  Ni  Ni49  1  0.66634170  0.33081138  0.66892811  1
  Ni  Ni50  1  0.83328631  0.49982925  0.83318167  1
  Ni  Ni51  1  0.83287456  0.83322017  0.50087628  1
  Ni  Ni52  1  0.66733231  0.66783143  0.66779686  1
  Ni  Ni53  1  0.83538874  0.83274957  0.83289645  1
" 