734,Ni86Fe2Cr10_1,-235.068006408016, 166.87460595535,Ni86Fe2Cr10,"# generated using pymatgen
 data_Cr7FeNi46
_symmetry_space_group_name_H-M   'P 1'
_cell_length_a   7.46566666
_cell_length_b   7.46566666
_cell_length_c   10.55804704
_cell_angle_alpha   90.00000000
_cell_angle_beta   90.00000000
_cell_angle_gamma   90.00000000
_symmetry_Int_Tables_number   1
_chemical_formula_structural   Cr7FeNi46
_chemical_formula_sum   'Cr7 Fe1 Ni46'
_cell_volume   588.46519591
_cell_formula_units_Z   1
loop_
 _symmetry_equiv_pos_site_id
 _symmetry_equiv_pos_as_xyz
  1  'x, y, z'
loop_
 _atom_site_type_symbol
 _atom_site_label
 _atom_site_symmetry_multiplicity
 _atom_site_fract_x
 _atom_site_fract_y
 _atom_site_fract_z
 _atom_site_occupancy
  Ni  Ni0  1  0.99915682  0.00144981  0.99835982  1
  Ni  Ni1  1  0.16805180  0.16829012  0.16631372  1
  Ni  Ni2  1  0.99984705  0.99993170  0.33508585  1
  Ni  Ni3  1  0.00050705  0.33141503  0.99982080  1
  Ni  Ni4  1  0.16756729  0.49823630  0.16817784  1
  Ni  Ni5  1  0.00124879  0.33406453  0.33418654  1
  Cr  Cr6  1  0.99713473  0.66757012  0.00063437  1
  Cr  Cr7  1  0.16720640  0.83367448  0.16849416  1
  Ni  Ni8  1  0.99882577  0.66612508  0.33419624  1
  Fe  Fe9  1  0.33439123  1.00001342  0.00052969  1
  Ni  Ni10  1  0.49933014  0.16675146  0.16723462  1
  Ni  Ni11  1  0.33450869  0.00118913  0.33395747  1
  Ni  Ni12  1  0.33386186  0.33411616  0.00259281  1
  Ni  Ni13  1  0.50030072  0.50020893  0.16640961  1
  Ni  Ni14  1  0.33382867  0.33348364  0.33305858  1
  Ni  Ni15  1  0.33657443  0.66576216  0.99999840  1
  Ni  Ni16  1  0.50158141  0.83322166  0.16671645  1
  Ni  Ni17  1  0.33492049  0.66561178  0.33441770  1
  Ni  Ni18  1  0.66774169  0.99828823  0.00024315  1
  Cr  Cr19  1  0.83282022  0.16652337  0.16761548  1
  Ni  Ni20  1  0.66574396  0.99883759  0.33455792  1
  Ni  Ni21  1  0.66592144  0.33469785  0.00012173  1
  Ni  Ni22  1  0.83231739  0.50019874  0.16750896  1
  Ni  Ni23  1  0.66515209  0.33446815  0.33441889  1
  Ni  Ni24  1  0.66423679  0.66734382  0.00039987  1
  Ni  Ni25  1  0.83072782  0.83277771  0.16822949  1
  Ni  Ni26  1  0.66649486  0.66692533  0.33229201  1
  Ni  Ni27  1  0.16668757  0.16639374  0.49781038  1
  Cr  Cr28  1  0.99976435  0.00028277  0.66680819  1
  Ni  Ni29  1  0.16558550  0.16524122  0.83598494  1
  Ni  Ni30  1  0.16564564  0.50150354  0.49885801  1
  Ni  Ni31  1  0.99803710  0.33373897  0.66635387  1
  Cr  Cr32  1  0.16725537  0.50062692  0.83233486  1
  Ni  Ni33  1  0.16807036  0.83230434  0.49955987  1
  Ni  Ni34  1  0.99883815  0.66685403  0.66582494  1
  Ni  Ni35  1  0.16863773  0.83456202  0.83316330  1
  Ni  Ni36  1  0.50151028  0.16543095  0.49876296  1
  Ni  Ni37  1  0.33414886  0.99787155  0.66652588  1
  Cr  Cr38  1  0.50186566  0.16649409  0.83376354  1
  Ni  Ni39  1  0.50149637  0.50140504  0.49962336  1
  Cr  Cr40  1  0.33413835  0.33285195  0.66315351  1
  Ni  Ni41  1  0.50273623  0.50252450  0.83401658  1
  Ni  Ni42  1  0.49994705  0.83352340  0.50033339  1
  Ni  Ni43  1  0.33498203  0.66891306  0.66587583  1
  Ni  Ni44  1  0.50034715  0.83212259  0.83335558  1
  Ni  Ni45  1  0.83200813  0.16799343  0.49950882  1
  Ni  Ni46  1  0.66623045  0.99888938  0.66546391  1
  Ni  Ni47  1  0.83366259  0.16771309  0.83392574  1
  Ni  Ni48  1  0.83329530  0.50002596  0.50039020  1
  Ni  Ni49  1  0.66866411  0.33446022  0.66594687  1
  Ni  Ni50  1  0.83104787  0.49915832  0.83261868  1
  Ni  Ni51  1  0.83224997  0.83233003  0.49837331  1
  Ni  Ni52  1  0.66661266  0.66709691  0.66753350  1
  Ni  Ni53  1  0.83152983  0.83350597  0.83355210  1
" 