7258,Ni86Fe2Cr11_2,-235.146891399882, 167.069561666133,Ni86Fe2Cr11,"# generated using pymatgen
 data_Cr7FeNi46
_symmetry_space_group_name_H-M   'P 1'
_cell_length_a   7.46536335
_cell_length_b   7.46536335
_cell_length_c   10.55761809
_cell_angle_alpha   90.00000000
_cell_angle_beta   90.00000000
_cell_angle_gamma   90.00000000
_symmetry_Int_Tables_number   1
_chemical_formula_structural   Cr7FeNi46
_chemical_formula_sum   'Cr7 Fe1 Ni46'
_cell_volume   588.39347524
_cell_formula_units_Z   1
loop_
 _symmetry_equiv_pos_site_id
 _symmetry_equiv_pos_as_xyz
  1  'x, y, z'
loop_
 _atom_site_type_symbol
 _atom_site_label
 _atom_site_symmetry_multiplicity
 _atom_site_fract_x
 _atom_site_fract_y
 _atom_site_fract_z
 _atom_site_occupancy
  Ni  Ni0  1  0.00291262  0.00104367  0.00083879  1
  Ni  Ni1  1  0.16907851  0.16828566  0.16554956  1
  Cr  Cr2  1  0.00260508  1.00005767  0.33329824  1
  Ni  Ni3  1  0.00135961  0.33490795  0.99863595  1
  Ni  Ni4  1  0.16729270  0.49988027  0.16687762  1
  Ni  Ni5  1  0.00143815  0.33649389  0.33521715  1
  Ni  Ni6  1  0.00058185  0.66440387  0.00249207  1
  Ni  Ni7  1  0.16675914  0.83205552  0.16583477  1
  Ni  Ni8  1  0.00130975  0.66396906  0.33231563  1
  Ni  Ni9  1  0.33177639  0.00179500  0.00016673  1
  Ni  Ni10  1  0.49721399  0.16967543  0.16804628  1
  Ni  Ni11  1  0.33422029  0.00103485  0.33424443  1
  Ni  Ni12  1  0.33343603  0.33377169  0.00018279  1
  Ni  Ni13  1  0.49968071  0.49831667  0.16669675  1
  Ni  Ni14  1  0.33336160  0.33377908  0.33318915  1
  Ni  Ni15  1  0.33346797  0.66455438  0.99887750  1
  Cr  Cr16  1  0.49893258  0.83193302  0.16781697  1
  Ni  Ni17  1  0.33260001  0.66553874  0.33548881  1
  Cr  Cr18  1  0.66549010  0.00144605  0.99883126  1
  Cr  Cr19  1  0.83255753  0.17030570  0.16754046  1
  Ni  Ni20  1  0.66397394  0.00084279  0.33516184  1
  Ni  Ni21  1  0.66550381  0.33669738  0.99869726  1
  Ni  Ni22  1  0.83349008  0.50154575  0.16696486  1
  Ni  Ni23  1  0.66521273  0.33521042  0.33485642  1
  Ni  Ni24  1  0.66667972  0.66314648  0.99994024  1
  Ni  Ni25  1  0.83500296  0.83041354  0.16661693  1
  Ni  Ni26  1  0.66660452  0.66455463  0.33320477  1
  Ni  Ni27  1  0.16795657  0.16805117  0.50097510  1
  Ni  Ni28  1  0.00174511  0.00242920  0.66601592  1
  Ni  Ni29  1  0.16705750  0.16845350  0.83372912  1
  Ni  Ni30  1  0.16711724  0.49959152  0.50033527  1
  Ni  Ni31  1  0.00088258  0.33433697  0.66660364  1
  Ni  Ni32  1  0.16692173  0.49785085  0.83316247  1
  Ni  Ni33  1  0.16932105  0.83238551  0.50108658  1
  Ni  Ni34  1  0.00025698  0.66362959  0.66534003  1
  Cr  Cr35  1  0.16853929  0.83273793  0.83286016  1
  Ni  Ni36  1  0.49979542  0.16721940  0.49934316  1
  Ni  Ni37  1  0.33445064  0.00193725  0.66575757  1
  Ni  Ni38  1  0.49890385  0.16815286  0.83292886  1
  Ni  Ni39  1  0.49984661  0.49970302  0.50001096  1
  Ni  Ni40  1  0.33348828  0.33279405  0.66688879  1
  Ni  Ni41  1  0.49985995  0.49952382  0.83363635  1
  Ni  Ni42  1  0.49818197  0.83318163  0.50083002  1
  Fe  Fe43  1  0.33430753  0.66494914  0.66587020  1
  Ni  Ni44  1  0.49938444  0.83240984  0.83183709  1
  Ni  Ni45  1  0.83249404  0.16970297  0.50184659  1
  Ni  Ni46  1  0.66421314  0.00149968  0.66661562  1
  Ni  Ni47  1  0.83433846  0.16970920  0.83152602  1
  Ni  Ni48  1  0.83341962  0.49822687  0.49990595  1
  Ni  Ni49  1  0.66600170  0.33427881  0.66695834  1
  Ni  Ni50  1  0.83349757  0.49818232  0.83346796  1
  Cr  Cr51  1  0.83234643  0.83246191  0.50064000  1
  Ni  Ni52  1  0.66550260  0.66467983  0.66722238  1
  Cr  Cr53  1  0.83371877  0.83235350  0.83311409  1
" 