5896,Ni86Fe11Cr1_18,-240.712097225895, 192.880917678816,Ni86Fe11Cr1,"# generated using pymatgen
 data_CrFe3Ni23
_symmetry_space_group_name_H-M   'P 1'
_cell_length_a   7.44283454
_cell_length_b   7.44283454
_cell_length_c   10.52575755
_cell_angle_alpha   90.00000000
_cell_angle_beta   90.00000000
_cell_angle_gamma   90.00000000
_symmetry_Int_Tables_number   1
_chemical_formula_structural   CrFe3Ni23
_chemical_formula_sum   'Cr2 Fe6 Ni46'
_cell_volume   583.08261280
_cell_formula_units_Z   2
loop_
 _symmetry_equiv_pos_site_id
 _symmetry_equiv_pos_as_xyz
  1  'x, y, z'
loop_
 _atom_site_type_symbol
 _atom_site_label
 _atom_site_symmetry_multiplicity
 _atom_site_fract_x
 _atom_site_fract_y
 _atom_site_fract_z
 _atom_site_occupancy
  Ni  Ni0  1  0.00197706  1.00147979  0.00215855  1
  Ni  Ni1  1  0.16675177  0.16838529  0.16816664  1
  Fe  Fe2  1  1.00142040  0.00194325  0.33424701  1
  Ni  Ni3  1  0.00197697  0.33514377  0.00170229  1
  Ni  Ni4  1  0.16768372  0.50122975  0.16816734  1
  Ni  Ni5  1  0.00218182  0.33592398  0.33506468  1
  Ni  Ni6  1  0.00186377  0.66825630  1.00142327  1
  Ni  Ni7  1  0.16774211  0.83526450  0.16811496  1
  Ni  Ni8  1  1.00129494  0.66768560  0.33509412  1
  Ni  Ni9  1  0.33403263  1.00081474  1.00038559  1
  Cr  Cr10  1  0.50140622  0.16850531  0.16786442  1
  Ni  Ni11  1  0.33460402  1.00138552  0.33613119  1
  Ni  Ni12  1  0.33378192  0.33555833  1.00063465  1
  Ni  Ni13  1  0.50214558  0.50277770  0.16820836  1
  Ni  Ni14  1  0.33357813  0.33477708  0.33613124  1
  Ni  Ni15  1  0.33455914  0.66850690  0.00219148  1
  Ni  Ni16  1  0.50214410  0.83377505  0.16816724  1
  Fe  Fe17  1  0.33547274  0.66784342  0.33461444  1
  Ni  Ni18  1  0.66887058  1.00070230  1.00088237  1
  Ni  Ni19  1  0.83654119  0.16838651  0.16820786  1
  Ni  Ni20  1  0.66808903  1.00049864  0.33588367  1
  Ni  Ni21  1  0.66912141  0.33567091  1.00113133  1
  Ni  Ni22  1  0.83505204  0.50178863  0.16822115  1
  Ni  Ni23  1  0.66912020  0.33566962  0.33588369  1
  Ni  Ni24  1  0.66845693  0.66850677  1.00141314  1
  Ni  Ni25  1  0.83499378  0.83470547  0.16816621  1
  Ni  Ni26  1  0.66923812  0.66871192  0.33535398  1
  Ni  Ni27  1  0.16965487  0.16838128  0.50153906  1
  Fe  Fe28  1  0.00183646  1.00091982  0.66874164  1
  Ni  Ni29  1  0.16959933  0.16829118  0.83517612  1
  Ni  Ni30  1  0.16698893  0.50016001  0.50100571  1
  Fe  Fe31  1  0.00183646  0.33561763  0.66824222  1
  Ni  Ni32  1  0.16704833  0.50025222  0.83570674  1
  Ni  Ni33  1  0.16704305  0.83633920  0.50105697  1
  Ni  Ni34  1  0.99998852  0.66825652  0.66836199  1
  Ni  Ni35  1  0.16704580  0.83633617  0.83570807  1
  Ni  Ni36  1  0.50077442  0.16832716  0.50195612  1
  Ni  Ni37  1  0.33518783  0.00368544  0.66836194  1
  Ni  Ni38  1  0.50074125  0.16829395  0.83470258  1
  Ni  Ni39  1  0.50313833  0.49990845  0.50086699  1
  Ni  Ni40  1  0.33493767  0.33268703  0.66811265  1
  Ni  Ni41  1  0.50304426  0.50000238  0.83580432  1
  Ni  Ni42  1  0.50313627  0.83664259  0.50090855  1
  Cr  Cr43  1  0.33428612  0.66845481  0.66787244  1
  Ni  Ni44  1  0.50304417  0.83658332  0.83580416  1
  Fe  Fe45  1  0.83415205  0.16854043  0.50086292  1
  Ni  Ni46  1  0.66779570  0.00177804  0.66811292  1
  Fe  Fe47  1  0.83439838  0.16829296  0.83597160  1
  Ni  Ni48  1  0.83475393  0.50252134  0.50173102  1
  Ni  Ni49  1  0.66804594  0.33459490  0.66786381  1
  Ni  Ni50  1  0.83478681  0.50255504  0.83492797  1
  Ni  Ni51  1  0.83469948  0.83397727  0.50178527  1
  Ni  Ni52  1  0.67098246  0.66850688  0.66811261  1
  Ni  Ni53  1  0.83478943  0.83403350  0.83492930  1
" 