7642,Ni86Fe2Cr11_5,-235.058786451764, 165.720456696309,Ni86Fe2Cr11,"# generated using pymatgen
 data_Cr7FeNi46
_symmetry_space_group_name_H-M   'P 1'
_cell_length_a   7.46412097
_cell_length_b   7.46412097
_cell_length_c   10.55586111
_cell_angle_alpha   90.00000000
_cell_angle_beta   90.00000000
_cell_angle_gamma   90.00000000
_symmetry_Int_Tables_number   1
_chemical_formula_structural   Cr7FeNi46
_chemical_formula_sum   'Cr7 Fe1 Ni46'
_cell_volume   588.09976484
_cell_formula_units_Z   1
loop_
 _symmetry_equiv_pos_site_id
 _symmetry_equiv_pos_as_xyz
  1  'x, y, z'
loop_
 _atom_site_type_symbol
 _atom_site_label
 _atom_site_symmetry_multiplicity
 _atom_site_fract_x
 _atom_site_fract_y
 _atom_site_fract_z
 _atom_site_occupancy
  Ni  Ni0  1  0.00061320  0.99895640  0.00030363  1
  Ni  Ni1  1  0.16800108  0.16598525  0.16851979  1
  Ni  Ni2  1  0.00308994  0.00322573  0.33475292  1
  Cr  Cr3  1  0.99931095  0.33515034  0.00117780  1
  Ni  Ni4  1  0.16921799  0.49989013  0.16621823  1
  Ni  Ni5  1  0.99923932  0.33131756  0.33264815  1
  Ni  Ni6  1  0.00159141  0.66718463  0.99849843  1
  Ni  Ni7  1  0.16909140  0.83479775  0.16596624  1
  Cr  Cr8  1  0.00048905  0.66660421  0.33360667  1
  Ni  Ni9  1  0.33486370  0.99904963  0.00124514  1
  Ni  Ni10  1  0.49903845  0.16808717  0.16534273  1
  Ni  Ni11  1  0.33233506  1.00006286  0.33351330  1
  Ni  Ni12  1  0.33514921  0.33351140  0.00120438  1
  Ni  Ni13  1  0.50009138  0.50000904  0.16745751  1
  Ni  Ni14  1  0.33453296  0.33251597  0.33315080  1
  Ni  Ni15  1  0.33250380  0.66801315  0.00122933  1
  Ni  Ni16  1  0.49790457  0.83239911  0.16598432  1
  Ni  Ni17  1  0.33591046  0.66798467  0.33249696  1
  Ni  Ni18  1  0.66517253  0.00148131  0.99842088  1
  Ni  Ni19  1  0.83358259  0.16808373  0.16688839  1
  Cr  Cr20  1  0.66485347  0.00114004  0.33521763  1
  Ni  Ni21  1  0.66620452  0.33240252  0.00125003  1
  Ni  Ni22  1  0.83126247  0.49890157  0.16702569  1
  Ni  Ni23  1  0.66687325  0.33472410  0.33326847  1
  Ni  Ni24  1  0.66641992  0.66662104  0.00029525  1
  Cr  Cr25  1  0.83293978  0.83418257  0.16498864  1
  Ni  Ni26  1  0.66370904  0.66396663  0.33499574  1
  Ni  Ni27  1  0.16675212  0.16502623  0.49961778  1
  Ni  Ni28  1  0.99982727  0.99975056  0.66552358  1
  Cr  Cr29  1  0.16827808  0.16598270  0.83208427  1
  Cr  Cr30  1  0.16829167  0.49879295  0.50187761  1
  Ni  Ni31  1  0.99732679  0.33377599  0.66666260  1
  Ni  Ni32  1  0.16631819  0.50278492  0.83277734  1
  Ni  Ni33  1  0.16762522  0.83616312  0.50086600  1
  Ni  Ni34  1  0.99998855  0.66706315  0.66854004  1
  Ni  Ni35  1  0.16663565  0.83232934  0.83374464  1
  Ni  Ni36  1  0.49926553  0.16791009  0.50156160  1
  Ni  Ni37  1  0.33486070  0.99827796  0.66575436  1
  Ni  Ni38  1  0.50200722  0.16520370  0.83371617  1
  Ni  Ni39  1  0.50204388  0.50024786  0.49957656  1
  Fe  Fe40  1  0.33481422  0.33249442  0.66610933  1
  Cr  Cr41  1  0.49992763  0.49983277  0.83326324  1
  Ni  Ni42  1  0.49946999  0.83241007  0.50088093  1
  Ni  Ni43  1  0.33341133  0.66994046  0.66685766  1
  Ni  Ni44  1  0.50051308  0.83471742  0.83377546  1
  Ni  Ni45  1  0.83455448  0.16750907  0.50082433  1
  Ni  Ni46  1  0.66593644  0.00082770  0.66745124  1
  Ni  Ni47  1  0.83139648  0.16552859  0.83294157  1
  Ni  Ni48  1  0.83088631  0.49935072  0.50084871  1
  Ni  Ni49  1  0.66872266  0.33232294  0.66595361  1
  Ni  Ni50  1  0.83367008  0.50138604  0.83265695  1
  Ni  Ni51  1  0.83348456  0.83368719  0.50245633  1
  Ni  Ni52  1  0.66714773  0.66737139  0.66532106  1
  Ni  Ni53  1  0.83343919  0.83365068  0.83327652  1
" 