2723,Ni86Fe2Cr10_15,-234.981480734447, 165.79360560332,Ni86Fe2Cr10,"# generated using pymatgen
 data_Cr7FeNi46
_symmetry_space_group_name_H-M   'P 1'
_cell_length_a   7.46521923
_cell_length_b   7.46521923
_cell_length_c   10.55741427
_cell_angle_alpha   90.00000000
_cell_angle_beta   90.00000000
_cell_angle_gamma   90.00000000
_symmetry_Int_Tables_number   1
_chemical_formula_structural   Cr7FeNi46
_chemical_formula_sum   'Cr7 Fe1 Ni46'
_cell_volume   588.35939858
_cell_formula_units_Z   1
loop_
 _symmetry_equiv_pos_site_id
 _symmetry_equiv_pos_as_xyz
  1  'x, y, z'
loop_
 _atom_site_type_symbol
 _atom_site_label
 _atom_site_symmetry_multiplicity
 _atom_site_fract_x
 _atom_site_fract_y
 _atom_site_fract_z
 _atom_site_occupancy
  Ni  Ni0  1  0.00054974  0.00031843  0.00073256  1
  Ni  Ni1  1  0.16657081  0.16578520  0.16572128  1
  Ni  Ni2  1  1.00001576  0.99872000  0.33333463  1
  Ni  Ni3  1  0.00073126  0.33257160  0.99994842  1
  Ni  Ni4  1  0.16643366  0.50020712  0.16657469  1
  Cr  Cr5  1  0.99992575  0.33118536  0.33222723  1
  Ni  Ni6  1  0.99857677  0.66739650  0.99990236  1
  Ni  Ni7  1  0.16596620  0.83437064  0.16774332  1
  Ni  Ni8  1  0.00098336  0.66941986  0.33260458  1
  Ni  Ni9  1  0.33161668  1.00008761  0.99880287  1
  Cr  Cr10  1  0.49813968  0.16526404  0.16749556  1
  Ni  Ni11  1  0.33253524  0.99888473  0.33446573  1
  Ni  Ni12  1  0.33170040  0.33263077  0.99930234  1
  Ni  Ni13  1  0.50013274  0.50133099  0.16893930  1
  Ni  Ni14  1  0.33421850  0.33436220  0.33392905  1
  Cr  Cr15  1  0.33492382  0.66683756  0.00029187  1
  Ni  Ni16  1  0.50086822  0.83304214  0.16738330  1
  Ni  Ni17  1  0.33392149  0.66718797  0.33315856  1
  Fe  Fe18  1  0.66795184  0.99864768  0.99948557  1
  Ni  Ni19  1  0.83487287  0.16491161  0.16705506  1
  Ni  Ni20  1  0.66790275  0.99928060  0.33376572  1
  Cr  Cr21  1  0.66773566  0.33546100  0.00017734  1
  Ni  Ni22  1  0.83383082  0.50226453  0.16656803  1
  Ni  Ni23  1  0.66543109  0.33329766  0.33361292  1
  Ni  Ni24  1  0.66799043  0.66779417  1.00008869  1
  Ni  Ni25  1  0.83367036  0.83299713  0.16683323  1
  Ni  Ni26  1  0.66550575  0.66768278  0.33230983  1
  Ni  Ni27  1  0.16916804  0.16691550  0.49998600  1
  Cr  Cr28  1  0.00049831  0.00018503  0.66530753  1
  Ni  Ni29  1  0.16794373  0.16756445  0.83452570  1
  Ni  Ni30  1  0.16802421  0.50014327  0.50033656  1
  Ni  Ni31  1  0.00054137  0.33315534  0.66828224  1
  Ni  Ni32  1  0.16464033  0.49832098  0.83345757  1
  Ni  Ni33  1  0.16679709  0.83331594  0.49822172  1
  Ni  Ni34  1  0.99956496  0.66676390  0.66794734  1
  Ni  Ni35  1  0.16568642  0.83445770  0.83419506  1
  Ni  Ni36  1  0.49985776  0.16640613  0.50047458  1
  Ni  Ni37  1  0.33487598  0.00140527  0.66694755  1
  Ni  Ni38  1  0.49883424  0.16587023  0.83232927  1
  Ni  Ni39  1  0.49949046  0.49919279  0.49897230  1
  Ni  Ni40  1  0.33383440  0.33223289  0.66710399  1
  Ni  Ni41  1  0.50114133  0.49894541  0.83249202  1
  Ni  Ni42  1  0.50119046  0.83479330  0.49929936  1
  Cr  Cr43  1  0.33369206  0.66804442  0.66690502  1
  Ni  Ni44  1  0.50197370  0.83562136  0.83376384  1
  Ni  Ni45  1  0.83132561  0.16526745  0.49990154  1
  Ni  Ni46  1  0.66574891  0.00020953  0.66739819  1
  Ni  Ni47  1  0.83355032  0.16675891  0.83339927  1
  Cr  Cr48  1  0.83311557  0.50184943  0.50174552  1
  Ni  Ni49  1  0.66601876  0.33243230  0.66714932  1
  Ni  Ni50  1  0.83448887  0.50113128  0.83264703  1
  Ni  Ni51  1  0.83237089  0.83379679  0.49927234  1
  Ni  Ni52  1  0.66673750  0.66761845  0.66794924  1
  Ni  Ni53  1  0.83279991  0.83227490  0.83414867  1
" 