7355,Ni86Fe11Cr1_3,-240.325033951112, 191.716975595133,Ni86Fe11Cr1,"# generated using pymatgen
 data_CrFe3Ni23
_symmetry_space_group_name_H-M   'P 1'
_cell_length_a   7.43984572
_cell_length_b   7.43984572
_cell_length_c   10.52153072
_cell_angle_alpha   90.00000000
_cell_angle_beta   90.00000000
_cell_angle_gamma   90.00000000
_symmetry_Int_Tables_number   1
_chemical_formula_structural   CrFe3Ni23
_chemical_formula_sum   'Cr2 Fe6 Ni46'
_cell_volume   582.38044985
_cell_formula_units_Z   2
loop_
 _symmetry_equiv_pos_site_id
 _symmetry_equiv_pos_as_xyz
  1  'x, y, z'
loop_
 _atom_site_type_symbol
 _atom_site_label
 _atom_site_symmetry_multiplicity
 _atom_site_fract_x
 _atom_site_fract_y
 _atom_site_fract_z
 _atom_site_occupancy
  Ni  Ni0  1  1.00160211  0.00479535  1.00081798  1
  Ni  Ni1  1  0.16851738  0.17062267  0.16866287  1
  Ni  Ni2  1  1.00121359  0.00362324  0.33635350  1
  Ni  Ni3  1  1.00140013  0.33442247  1.00160635  1
  Ni  Ni4  1  0.16936220  0.50048381  0.16799455  1
  Ni  Ni5  1  0.00188631  0.33487055  0.33526478  1
  Fe  Fe6  1  1.00031518  0.66871242  1.00089137  1
  Cr  Cr7  1  0.16776937  0.83488192  0.16970503  1
  Ni  Ni8  1  1.00131357  0.66684781  0.33557019  1
  Ni  Ni9  1  0.33543497  1.00121789  1.00103200  1
  Ni  Ni10  1  0.50270565  0.16885896  0.16848646  1
  Ni  Ni11  1  0.33611055  0.00238813  0.33571333  1
  Fe  Fe12  1  0.33652776  0.33475612  0.00252338  1
  Ni  Ni13  1  0.50122295  0.50163915  0.16944985  1
  Ni  Ni14  1  0.33480114  0.33550807  0.33474517  1
  Ni  Ni15  1  0.33691905  0.66788111  1.00100326  1
  Ni  Ni16  1  0.50395323  0.83493329  0.16794705  1
  Ni  Ni17  1  0.33650098  0.66762307  0.33616541  1
  Ni  Ni18  1  0.66837428  0.00201085  1.00133955  1
  Ni  Ni19  1  0.83445897  0.16752165  0.16867916  1
  Ni  Ni20  1  0.66813206  0.00186080  0.33489460  1
  Ni  Ni21  1  0.66991992  0.33593017  0.00195610  1
  Fe  Fe22  1  0.83463973  0.50115166  0.16884140  1
  Ni  Ni23  1  0.66880423  0.33534755  0.33496502  1
  Ni  Ni24  1  0.66632487  0.66743671  1.00175835  1
  Ni  Ni25  1  0.83307089  0.83579494  0.16885302  1
  Ni  Ni26  1  0.66763005  0.66822843  0.33496104  1
  Ni  Ni27  1  0.17023502  0.17006903  0.50046087  1
  Cr  Cr28  1  0.00248435  0.00309982  0.66770640  1
  Ni  Ni29  1  0.17022136  0.16956729  0.83616649  1
  Ni  Ni30  1  0.16786030  0.50226304  0.50206842  1
  Ni  Ni31  1  1.00107845  0.33678845  0.66867028  1
  Ni  Ni32  1  0.16909527  0.50221995  0.83542417  1
  Ni  Ni33  1  0.16948204  0.83320287  0.50058461  1
  Ni  Ni34  1  0.00241442  0.66601482  0.66944650  1
  Ni  Ni35  1  0.16860788  0.83379705  0.83578664  1
  Ni  Ni36  1  0.50236987  0.16806820  0.50150208  1
  Ni  Ni37  1  0.33633543  1.00073028  0.66880456  1
  Ni  Ni38  1  0.50233787  0.16943987  0.83547225  1
  Fe  Fe39  1  0.50243083  0.50181243  0.50149924  1
  Fe  Fe40  1  0.33519702  0.33499634  0.66805145  1
  Ni  Ni41  1  0.50182212  0.50072937  0.83430439  1
  Ni  Ni42  1  0.50222836  0.83597019  0.50204732  1
  Ni  Ni43  1  0.33528079  0.66921144  0.66826566  1
  Fe  Fe44  1  0.50184085  0.83491550  0.83512254  1
  Ni  Ni45  1  0.83295242  0.16981402  0.50115817  1
  Ni  Ni46  1  0.66625285  0.00223132  0.66920874  1
  Ni  Ni47  1  0.83321169  0.16919557  0.83551405  1
  Ni  Ni48  1  0.83579839  0.50218401  0.50161865  1
  Ni  Ni49  1  0.66982518  0.33564546  0.66866583  1
  Ni  Ni50  1  0.83457428  0.50220586  0.83568991  1
  Ni  Ni51  1  0.83374507  0.83348406  0.50088023  1
  Ni  Ni52  1  0.66769721  0.66753603  0.66869417  1
  Ni  Ni53  1  0.83442811  0.83417750  0.83572418  1
" 