2072,Ni86Fe2Cr10_8,-235.153503579511, 166.982678665288,Ni86Fe2Cr10,"# generated using pymatgen
 data_Cr7FeNi46
_symmetry_space_group_name_H-M   'P 1'
_cell_length_a   7.46448261
_cell_length_b   7.46448261
_cell_length_c   10.55637254
_cell_angle_alpha   90.00000000
_cell_angle_beta   90.00000000
_cell_angle_gamma   90.00000000
_symmetry_Int_Tables_number   1
_chemical_formula_structural   Cr7FeNi46
_chemical_formula_sum   'Cr7 Fe1 Ni46'
_cell_volume   588.18525023
_cell_formula_units_Z   1
loop_
 _symmetry_equiv_pos_site_id
 _symmetry_equiv_pos_as_xyz
  1  'x, y, z'
loop_
 _atom_site_type_symbol
 _atom_site_label
 _atom_site_symmetry_multiplicity
 _atom_site_fract_x
 _atom_site_fract_y
 _atom_site_fract_z
 _atom_site_occupancy
  Cr  Cr0  1  0.99981591  0.99736887  0.00035568  1
  Cr  Cr1  1  0.16788801  0.16879915  0.16745737  1
  Ni  Ni2  1  0.99911754  0.99916751  0.33420772  1
  Ni  Ni3  1  0.99839219  0.33672329  0.99961120  1
  Ni  Ni4  1  0.16656667  0.50115508  0.16666646  1
  Ni  Ni5  1  0.99923003  0.33440506  0.33482786  1
  Ni  Ni6  1  0.00064061  0.66473152  0.00024227  1
  Fe  Fe7  1  0.16763659  0.83090617  0.16817349  1
  Ni  Ni8  1  0.00044626  0.66678194  0.33337591  1
  Ni  Ni9  1  0.33443075  0.99707854  0.00114690  1
  Ni  Ni10  1  0.50023700  0.16695852  0.16755156  1
  Ni  Ni11  1  0.33438445  0.99900609  0.33417466  1
  Ni  Ni12  1  0.33466693  0.33682464  0.00103995  1
  Ni  Ni13  1  0.50000075  0.50107851  0.16667464  1
  Ni  Ni14  1  0.33457709  0.33476204  0.33474994  1
  Ni  Ni15  1  0.33344435  0.66620778  0.00034558  1
  Ni  Ni16  1  0.50040521  0.83239814  0.16750667  1
  Ni  Ni17  1  0.33353150  0.66641180  0.33336122  1
  Cr  Cr18  1  0.66686077  0.99952523  0.00038408  1
  Ni  Ni19  1  0.83251604  0.16817050  0.16842272  1
  Ni  Ni20  1  0.66701725  0.00020783  0.33375390  1
  Ni  Ni21  1  0.66740500  0.33626983  0.00168022  1
  Ni  Ni22  1  0.83392892  0.50129698  0.16676288  1
  Ni  Ni23  1  0.66662605  0.33366970  0.33270330  1
  Ni  Ni24  1  0.66645825  0.66487775  0.99991138  1
  Ni  Ni25  1  0.83227992  0.83102998  0.16897908  1
  Ni  Ni26  1  0.66656121  0.66655027  0.33362179  1
  Ni  Ni27  1  0.16787425  0.16785874  0.49965940  1
  Cr  Cr28  1  0.99918169  0.99893000  0.66629736  1
  Cr  Cr29  1  0.16760848  0.16941165  0.83337036  1
  Ni  Ni30  1  0.16655672  0.50004578  0.50044568  1
  Ni  Ni31  1  0.00073000  0.33618949  0.66607322  1
  Ni  Ni32  1  0.16647175  0.50213333  0.83344120  1
  Ni  Ni33  1  0.16769448  0.83246470  0.49843786  1
  Ni  Ni34  1  0.00076987  0.66547674  0.66702330  1
  Ni  Ni35  1  0.16861213  0.83003439  0.83454236  1
  Ni  Ni36  1  0.49879030  0.16564638  0.49884436  1
  Ni  Ni37  1  0.33469071  0.99777358  0.66523339  1
  Cr  Cr38  1  0.49921988  0.16660569  0.83383141  1
  Ni  Ni39  1  0.49926888  0.50165662  0.49898768  1
  Ni  Ni40  1  0.33240147  0.33603194  0.66464309  1
  Ni  Ni41  1  0.49942065  0.50334641  0.83477886  1
  Ni  Ni42  1  0.50050226  0.83331491  0.50072393  1
  Ni  Ni43  1  0.33334726  0.66664317  0.66690745  1
  Ni  Ni44  1  0.49966471  0.83074146  0.83230127  1
  Ni  Ni45  1  0.83379223  0.16678388  0.49808225  1
  Ni  Ni46  1  0.66612031  0.99803763  0.66606719  1
  Ni  Ni47  1  0.83375615  0.16871599  0.83389982  1
  Ni  Ni48  1  0.83462108  0.50181312  0.49895367  1
  Cr  Cr49  1  0.66733974  0.33514294  0.66561580  1
  Ni  Ni50  1  0.83458091  0.50209312  0.83476254  1
  Ni  Ni51  1  0.83236789  0.83203669  0.49939935  1
  Ni  Ni52  1  0.66640513  0.66811347  0.66701153  1
  Ni  Ni53  1  0.83242378  0.82987341  0.83225517  1
" 