8493,Ni86Fe11Cr1_12,-240.710200226178, 192.859419123779,Ni86Fe11Cr1,"# generated using pymatgen
 data_CrFe3Ni23
_symmetry_space_group_name_H-M   'P 1'
_cell_length_a   7.44078532
_cell_length_b   7.44078532
_cell_length_c   10.52285952
_cell_angle_alpha   90.00000000
_cell_angle_beta   90.00000000
_cell_angle_gamma   90.00000000
_symmetry_Int_Tables_number   1
_chemical_formula_structural   CrFe3Ni23
_chemical_formula_sum   'Cr2 Fe6 Ni46'
_cell_volume   582.60112931
_cell_formula_units_Z   2
loop_
 _symmetry_equiv_pos_site_id
 _symmetry_equiv_pos_as_xyz
  1  'x, y, z'
loop_
 _atom_site_type_symbol
 _atom_site_label
 _atom_site_symmetry_multiplicity
 _atom_site_fract_x
 _atom_site_fract_y
 _atom_site_fract_z
 _atom_site_occupancy
  Ni  Ni0  1  1.00030815  1.00061252  1.00034524  1
  Cr  Cr1  1  0.16845182  0.16787600  0.16799764  1
  Ni  Ni2  1  1.00042575  1.00044943  0.33592130  1
  Ni  Ni3  1  0.99840497  0.33677785  1.00074521  1
  Ni  Ni4  1  0.16806146  0.50306483  0.16895368  1
  Ni  Ni5  1  1.00017412  0.33658223  0.33582540  1
  Ni  Ni6  1  0.00355478  0.66792591  0.00192563  1
  Ni  Ni7  1  0.16804566  0.83398403  0.16896432  1
  Ni  Ni8  1  0.00201627  0.66818872  0.33460335  1
  Ni  Ni9  1  0.33716746  0.99807529  1.00058665  1
  Ni  Ni10  1  0.50329011  0.16840369  0.16851195  1
  Ni  Ni11  1  0.33668175  0.99995461  0.33571489  1
  Fe  Fe12  1  0.33547277  0.33544353  1.00132826  1
  Ni  Ni13  1  0.50185809  0.50115116  0.16869105  1
  Ni  Ni14  1  0.33655327  0.33665282  0.33516332  1
  Ni  Ni15  1  0.33503146  0.66894283  0.00229225  1
  Ni  Ni16  1  0.50171507  0.83574252  0.16907084  1
  Ni  Ni17  1  0.33536035  0.66869571  0.33512341  1
  Ni  Ni18  1  0.66791644  0.00333417  0.00226682  1
  Ni  Ni19  1  0.83384133  0.16841345  0.16932280  1
  Ni  Ni20  1  0.66806843  0.00179117  0.33450317  1
  Ni  Ni21  1  0.66902668  0.33463702  0.00194091  1
  Ni  Ni22  1  0.83538512  0.50165374  0.16860110  1
  Ni  Ni23  1  0.66854419  0.33509263  0.33519838  1
  Fe  Fe24  1  0.66884775  0.66957207  0.00233678  1
  Ni  Ni25  1  0.83578458  0.83549372  0.16827181  1
  Ni  Ni26  1  0.66789899  0.66839196  0.33490719  1
  Fe  Fe27  1  0.17026936  0.16768878  0.50076862  1
  Ni  Ni28  1  1.00136358  0.99954871  0.66913192  1
  Fe  Fe29  1  0.16890370  0.16727861  0.83610794  1
  Ni  Ni30  1  0.16907276  0.50276947  0.50041666  1
  Cr  Cr31  1  1.00086731  0.33601475  0.66839280  1
  Ni  Ni32  1  0.16923723  0.50327030  0.83610696  1
  Ni  Ni33  1  0.16768514  0.83493334  0.50151022  1
  Ni  Ni34  1  0.00316085  0.66926755  0.66873012  1
  Ni  Ni35  1  0.16821942  0.83441137  0.83478433  1
  Ni  Ni36  1  0.50141613  0.16863099  0.50152612  1
  Ni  Ni37  1  0.33591165  1.00073953  0.66874938  1
  Ni  Ni38  1  0.50240447  0.16850654  0.83544745  1
  Ni  Ni39  1  0.50152175  0.50039791  0.50223778  1
  Ni  Ni40  1  0.33708047  0.33582344  0.66960083  1
  Ni  Ni41  1  0.50170853  0.50117658  0.83447444  1
  Ni  Ni42  1  0.50183091  0.83628058  0.50194348  1
  Ni  Ni43  1  0.33442067  0.66858535  0.66787022  1
  Ni  Ni44  1  0.50180931  0.83562942  0.83411580  1
  Fe  Fe45  1  0.83329751  0.16731571  0.50110238  1
  Ni  Ni46  1  0.66799435  0.00286648  0.66868010  1
  Ni  Ni47  1  0.83320098  0.16751951  0.83532708  1
  Ni  Ni48  1  0.83471486  0.50324318  0.50100384  1
  Ni  Ni49  1  0.66716934  0.33439769  0.66825178  1
  Ni  Ni50  1  0.83439696  0.50266704  0.83541526  1
  Ni  Ni51  1  0.83586284  0.83503446  0.50215340  1
  Fe  Fe52  1  0.66826080  0.66890410  0.66758957  1
  Ni  Ni53  1  0.83562891  0.83549166  0.83474477  1
" 