4834,Ni86Fe2Cr11_15,-234.896304113435, 164.5631216552,Ni86Fe2Cr11,"# generated using pymatgen
 data_Cr7FeNi46
_symmetry_space_group_name_H-M   'P 1'
_cell_length_a   7.47045594
_cell_length_b   7.47045594
_cell_length_c   10.56482010
_cell_angle_alpha   90.00000000
_cell_angle_beta   90.00000000
_cell_angle_gamma   90.00000000
_symmetry_Int_Tables_number   1
_chemical_formula_structural   Cr7FeNi46
_chemical_formula_sum   'Cr7 Fe1 Ni46'
_cell_volume   589.59843647
_cell_formula_units_Z   1
loop_
 _symmetry_equiv_pos_site_id
 _symmetry_equiv_pos_as_xyz
  1  'x, y, z'
loop_
 _atom_site_type_symbol
 _atom_site_label
 _atom_site_symmetry_multiplicity
 _atom_site_fract_x
 _atom_site_fract_y
 _atom_site_fract_z
 _atom_site_occupancy
  Ni  Ni0  1  0.99967913  0.00163296  0.99967324  1
  Ni  Ni1  1  0.16649635  0.16638126  0.16694716  1
  Ni  Ni2  1  0.99918410  0.99933737  0.33309609  1
  Ni  Ni3  1  0.99967956  0.33101119  0.99930535  1
  Ni  Ni4  1  0.16649343  0.49845678  0.16625206  1
  Ni  Ni5  1  0.99918393  0.33307888  0.33323108  1
  Cr  Cr6  1  0.00160906  0.66665566  0.00011771  1
  Ni  Ni7  1  0.16666859  0.83447792  0.16642607  1
  Ni  Ni8  1  0.99768853  0.66690030  0.33357803  1
  Ni  Ni9  1  0.33315982  -0.00012910  0.99947925  1
  Ni  Ni10  1  0.49978747  0.16620667  0.16665903  1
  Ni  Ni11  1  0.33246108  0.00214034  0.33259987  1
  Ni  Ni12  1  0.33333455  0.33294890  0.99965323  1
  Ni  Ni13  1  0.49956075  0.49840159  0.16665387  1
  Ni  Ni14  1  0.33367388  0.33148531  0.33346522  1
  Ni  Ni15  1  0.33316505  0.66649610  0.99945839  1
  Ni  Ni16  1  0.49956062  0.83470661  0.16628571  1
  Cr  Cr17  1  0.33230906  0.66545014  0.33114040  1
  Ni  Ni18  1  0.66647648  0.00180268  0.99949991  1
  Ni  Ni19  1  0.83303221  0.16638094  0.16602045  1
  Ni  Ni20  1  0.66766873  0.00064547  0.33232228  1
  Ni  Ni21  1  0.66630149  0.33101386  0.99967312  1
  Ni  Ni22  1  0.83326248  0.49822931  0.16855976  1
  Ni  Ni23  1  0.66645774  0.33298305  0.33318809  1
  Cr  Cr24  1  0.66477832  0.66626109  0.99972684  1
  Ni  Ni25  1  0.83308683  0.83470475  0.16873264  1
  Ni  Ni26  1  0.66926109  0.66568633  0.33273118  1
  Fe  Fe27  1  0.16703028  0.16762590  0.49895862  1
  Cr  Cr28  1  0.00085553  0.99954930  0.66660696  1
  Ni  Ni29  1  0.16707494  0.16718803  0.83316833  1
  Ni  Ni30  1  0.16526758  0.49924808  0.50103952  1
  Ni  Ni31  1  0.00152622  0.33542337  0.66677840  1
  Ni  Ni32  1  0.16707147  0.49903889  0.83202276  1
  Ni  Ni33  1  0.16470909  0.83268841  0.50000307  1
  Ni  Ni34  1  0.00002838  0.66494761  0.66608544  1
  Ni  Ni35  1  0.16828200  0.83309037  0.83288435  1
  Ni  Ni36  1  0.49856707  0.16794101  0.49815795  1
  Ni  Ni37  1  0.33226322  -0.00000505  0.66723642  1
  Ni  Ni38  1  0.49839622  0.16597986  0.83449864  1
  Ni  Ni39  1  0.49955791  0.49759702  0.50000389  1
  Ni  Ni40  1  0.33171749  0.33382563  0.66619733  1
  Ni  Ni41  1  0.49817520  0.50001810  0.83265575  1
  Cr  Cr42  1  0.49972492  0.83357572  0.50020258  1
  Ni  Ni43  1  0.33217399  0.66549679  0.66786079  1
  Ni  Ni44  1  0.49817236  0.83331672  0.83279417  1
  Ni  Ni45  1  0.83340414  0.16738545  0.49734962  1
  Cr  Cr46  1  0.66597814  0.99925395  0.66766705  1
  Ni  Ni47  1  0.83384447  0.16719320  0.83594574  1
  Ni  Ni48  1  0.83449143  0.50022774  0.49920120  1
  Cr  Cr49  1  0.66624920  0.33441612  0.66663550  1
  Ni  Ni50  1  0.83406980  0.49880956  0.83155899  1
  Ni  Ni51  1  0.83505477  0.83170240  0.49815884  1
  Ni  Ni52  1  0.66711433  0.66548887  0.66710550  1
  Ni  Ni53  1  0.83286099  0.83331212  0.83242801  1
" 