6873,Ni86Fe11Cr1_6,-240.395102534805, 191.920953006639,Ni86Fe11Cr1,"# generated using pymatgen
 data_CrFe3Ni23
_symmetry_space_group_name_H-M   'P 1'
_cell_length_a   7.43852488
_cell_length_b   7.43852488
_cell_length_c   10.51966276
_cell_angle_alpha   90.00000000
_cell_angle_beta   90.00000000
_cell_angle_gamma   90.00000000
_symmetry_Int_Tables_number   1
_chemical_formula_structural   CrFe3Ni23
_chemical_formula_sum   'Cr2 Fe6 Ni46'
_cell_volume   582.07032278
_cell_formula_units_Z   2
loop_
 _symmetry_equiv_pos_site_id
 _symmetry_equiv_pos_as_xyz
  1  'x, y, z'
loop_
 _atom_site_type_symbol
 _atom_site_label
 _atom_site_symmetry_multiplicity
 _atom_site_fract_x
 _atom_site_fract_y
 _atom_site_fract_z
 _atom_site_occupancy
  Ni  Ni0  1  0.00211659  0.00326128  1.00129800  1
  Ni  Ni1  1  0.16859180  0.16858922  0.16867567  1
  Ni  Ni2  1  0.00266234  0.00315353  0.33574554  1
  Ni  Ni3  1  0.00218405  0.33555375  0.00261563  1
  Ni  Ni4  1  0.16664499  0.50206211  0.16890332  1
  Ni  Ni5  1  1.00174701  0.33541597  0.33464656  1
  Ni  Ni6  1  0.00218091  0.66694242  1.00099883  1
  Ni  Ni7  1  0.17050958  0.83509968  0.16834262  1
  Ni  Ni8  1  0.00264261  0.66718801  0.33593456  1
  Ni  Ni9  1  0.33591949  1.00188906  0.00239189  1
  Ni  Ni10  1  0.50173108  0.16632023  0.16867883  1
  Ni  Ni11  1  0.33545052  1.00170060  0.33464563  1
  Ni  Ni12  1  0.33363790  0.33472950  1.00096828  1
  Cr  Cr13  1  0.50160917  0.50232400  0.16886954  1
  Ni  Ni14  1  0.33401466  0.33451466  0.33629355  1
  Ni  Ni15  1  0.33503042  0.66913522  1.00149756  1
  Ni  Ni16  1  0.49985177  0.83732586  0.16835366  1
  Ni  Ni17  1  0.33456880  0.66953241  0.33543195  1
  Ni  Ni18  1  0.66772173  1.00187186  1.00117653  1
  Ni  Ni19  1  0.83542742  0.17019342  0.16867423  1
  Ni  Ni20  1  0.66764299  0.00259827  0.33598274  1
  Fe  Fe21  1  0.66956781  0.33425773  1.00098386  1
  Ni  Ni22  1  0.83765551  0.50017565  0.16812243  1
  Ni  Ni23  1  0.66999033  0.33453196  0.33547688  1
  Ni  Ni24  1  0.66854147  0.66920135  1.00027876  1
  Cr  Cr25  1  0.83519771  0.83519087  0.16934621  1
  Ni  Ni26  1  0.66853964  0.66861987  0.33678091  1
  Ni  Ni27  1  0.16862236  0.16862071  0.50219637  1
  Ni  Ni28  1  1.00159127  0.00291507  0.66871396  1
  Fe  Fe29  1  0.16852764  0.16917781  0.83523521  1
  Ni  Ni30  1  0.16777007  0.50231962  0.50143027  1
  Ni  Ni31  1  1.00185994  0.33464969  0.66849436  1
  Ni  Ni32  1  0.16861488  0.50214343  0.83541673  1
  Ni  Ni33  1  0.16959739  0.83481023  0.50193337  1
  Fe  Fe34  1  0.00197925  0.66799277  0.66858369  1
  Fe  Fe35  1  0.16872016  0.83499807  0.83552536  1
  Ni  Ni36  1  0.50223257  0.16744142  0.50181866  1
  Ni  Ni37  1  0.33518944  1.00172932  0.66872027  1
  Ni  Ni38  1  0.50230422  0.16796543  0.83525600  1
  Fe  Fe39  1  0.50142290  0.50146115  0.50228608  1
  Ni  Ni40  1  0.33478767  0.33569772  0.66848935  1
  Ni  Ni41  1  0.50119225  0.50224860  0.83442107  1
  Ni  Ni42  1  0.50132185  0.83592107  0.50154678  1
  Ni  Ni43  1  0.33618928  0.66832182  0.66881884  1
  Ni  Ni44  1  0.50229231  0.83553291  0.83585272  1
  Ni  Ni45  1  0.83489604  0.16927554  0.50175865  1
  Ni  Ni46  1  0.66897258  1.00151423  0.66859194  1
  Ni  Ni47  1  0.83482064  0.16810389  0.83531819  1
  Ni  Ni48  1  0.83601484  0.50141216  0.50177116  1
  Ni  Ni49  1  0.66910123  0.33564685  0.66915327  1
  Ni  Ni50  1  0.83594616  0.50212234  0.83585550  1
  Fe  Fe51  1  0.83554755  0.83601945  0.50202303  1
  Ni  Ni52  1  0.66792534  0.66858964  0.66869041  1
  Ni  Ni53  1  0.83471233  0.83552106  0.83451505  1
" 