5362,Ni86Fe11Cr1_14,-240.566418616078, 193.818978427139,Ni86Fe11Cr1,"# generated using pymatgen
 data_CrFe3Ni23
_symmetry_space_group_name_H-M   'P 1'
_cell_length_a   7.44121104
_cell_length_b   7.44121104
_cell_length_c   10.52346157
_cell_angle_alpha   90.00000000
_cell_angle_beta   90.00000000
_cell_angle_gamma   90.00000000
_symmetry_Int_Tables_number   1
_chemical_formula_structural   CrFe3Ni23
_chemical_formula_sum   'Cr2 Fe6 Ni46'
_cell_volume   582.70113330
_cell_formula_units_Z   2
loop_
 _symmetry_equiv_pos_site_id
 _symmetry_equiv_pos_as_xyz
  1  'x, y, z'
loop_
 _atom_site_type_symbol
 _atom_site_label
 _atom_site_symmetry_multiplicity
 _atom_site_fract_x
 _atom_site_fract_y
 _atom_site_fract_z
 _atom_site_occupancy
  Ni  Ni0  1  0.00253160  1.00078325  0.00234034  1
  Ni  Ni1  1  0.16802325  0.16830854  0.16814443  1
  Ni  Ni2  1  0.00220450  1.00088370  0.33451910  1
  Ni  Ni3  1  0.00247388  0.33586687  0.00204110  1
  Ni  Ni4  1  0.16765494  0.50139423  0.16835861  1
  Ni  Ni5  1  0.00221010  0.33567013  0.33476478  1
  Ni  Ni6  1  1.00096065  0.66855783  0.00182686  1
  Ni  Ni7  1  0.16632525  0.83550496  0.16861833  1
  Ni  Ni8  1  1.00063765  0.66865353  0.33492239  1
  Ni  Ni9  1  0.33430141  0.00316402  1.00091641  1
  Ni  Ni10  1  0.50155016  0.16989716  0.16866086  1
  Ni  Ni11  1  0.33442964  0.00325799  0.33583662  1
  Ni  Ni12  1  0.33535930  0.33449139  0.00192736  1
  Ni  Ni13  1  0.50217545  0.50006164  0.16814319  1
  Ni  Ni14  1  0.33549224  0.33436024  0.33477569  1
  Fe  Fe15  1  0.33423400  0.66756232  1.00026189  1
  Cr  Cr16  1  0.50207848  0.83541860  0.16840176  1
  Fe  Fe17  1  0.33474830  0.66750753  0.33598135  1
  Ni  Ni18  1  0.66837786  1.00165198  1.00108032  1
  Ni  Ni19  1  0.83563472  0.16856976  0.16844708  1
  Ni  Ni20  1  0.66857351  1.00168830  0.33587897  1
  Ni  Ni21  1  0.66737411  0.33605894  0.00208892  1
  Ni  Ni22  1  0.83537591  0.50175937  0.16866116  1
  Ni  Ni23  1  0.66750720  0.33592684  0.33481880  1
  Ni  Ni24  1  0.66975437  0.66749885  1.00114352  1
  Ni  Ni25  1  0.83696429  0.83487883  0.16818829  1
  Ni  Ni26  1  0.66988068  0.66759325  0.33571270  1
  Ni  Ni27  1  0.16823085  0.16813330  0.50191190  1
  Ni  Ni28  1  0.00235917  1.00151257  0.66835301  1
  Ni  Ni29  1  0.16860742  0.16792382  0.83515212  1
  Fe  Fe30  1  0.16814761  0.50102725  0.50205722  1
  Ni  Ni31  1  0.00230392  0.33538270  0.66840369  1
  Ni  Ni32  1  0.16749632  0.50190061  0.83437949  1
  Fe  Fe33  1  0.16816405  0.83576886  0.50204092  1
  Ni  Ni34  1  0.00331583  0.66831301  0.66845517  1
  Ni  Ni35  1  0.16875239  0.83538409  0.83457802  1
  Ni  Ni36  1  0.50133685  0.16793740  0.50195923  1
  Ni  Ni37  1  0.33507175  0.00203223  0.66845544  1
  Ni  Ni38  1  0.50138049  0.16772536  0.83458727  1
  Ni  Ni39  1  0.50164947  0.50151289  0.50121214  1
  Ni  Ni40  1  0.33507286  0.33480717  0.66850206  1
  Ni  Ni41  1  0.50169374  0.50130037  0.83585140  1
  Ni  Ni42  1  0.50138846  0.83575731  0.50133046  1
  Ni  Ni43  1  0.33354134  0.66836750  0.66855400  1
  Ni  Ni44  1  0.50063551  0.83618256  0.83547533  1
  Ni  Ni45  1  0.83564012  0.16839493  0.50232521  1
  Ni  Ni46  1  0.66777728  0.00304496  0.66825150  1
  Fe  Fe47  1  0.83501177  0.16891849  0.83500453  1
  Ni  Ni48  1  0.83564005  0.50136509  0.50084307  1
  Ni  Ni49  1  0.66783207  0.33385121  0.66830441  1
  Ni  Ni50  1  0.83601608  0.50115533  0.83570563  1
  Ni  Ni51  1  0.83543879  0.83544861  0.50111659  1
  Cr  Cr52  1  0.66845964  0.66822554  0.66845299  1
  Fe  Fe53  1  0.83594921  0.83540332  0.83602289  1
" 