700,Ni86Fe8Cr5_18,-238.370766227257, 183.042062067451,Ni86Fe8Cr5,"# generated using pymatgen
 data_Cr2Fe2Ni23
_symmetry_space_group_name_H-M   'P 1'
_cell_length_a   7.44751975
_cell_length_b   7.44751975
_cell_length_c   10.53238344
_cell_angle_alpha   90.00000000
_cell_angle_beta   90.00000000
_cell_angle_gamma   90.00000000
_symmetry_Int_Tables_number   1
_chemical_formula_structural   Cr2Fe2Ni23
_chemical_formula_sum   'Cr4 Fe4 Ni46'
_cell_volume   584.18444555
_cell_formula_units_Z   2
loop_
 _symmetry_equiv_pos_site_id
 _symmetry_equiv_pos_as_xyz
  1  'x, y, z'
loop_
 _atom_site_type_symbol
 _atom_site_label
 _atom_site_symmetry_multiplicity
 _atom_site_fract_x
 _atom_site_fract_y
 _atom_site_fract_z
 _atom_site_occupancy
  Ni  Ni0  1  0.00214779  0.00140759  0.00138706  1
  Ni  Ni1  1  0.16862711  0.16857778  0.16799989  1
  Ni  Ni2  1  0.00168533  1.00097163  0.33516746  1
  Ni  Ni3  1  1.00083880  0.33463690  0.00163101  1
  Ni  Ni4  1  0.16744971  0.50119015  0.16788995  1
  Ni  Ni5  1  0.00416371  0.33399736  0.33346834  1
  Ni  Ni6  1  1.00077571  0.66788863  1.00082797  1
  Ni  Ni7  1  0.16828896  0.83416647  0.16794423  1
  Ni  Ni8  1  0.00140233  0.66896155  0.33385854  1
  Ni  Ni9  1  0.33410960  0.00153969  1.00108995  1
  Ni  Ni10  1  0.50044480  0.16691297  0.16703485  1
  Ni  Ni11  1  0.33441020  0.00187918  0.33476216  1
  Ni  Ni12  1  0.33412430  0.33322452  0.00205419  1
  Fe  Fe13  1  0.50077646  0.50199866  0.16705917  1
  Ni  Ni14  1  0.33274236  0.33391261  0.33501493  1
  Ni  Ni15  1  0.33405399  0.66917273  0.00260815  1
  Ni  Ni16  1  0.50160702  0.83500601  0.16757042  1
  Fe  Fe17  1  0.33406463  0.66852531  0.33497098  1
  Fe  Fe18  1  0.66814243  0.00163515  0.00164047  1
  Ni  Ni19  1  0.83486364  0.16775336  0.16721771  1
  Ni  Ni20  1  0.66783853  0.99911912  0.33452399  1
  Ni  Ni21  1  0.66896845  0.33459304  0.00192525  1
  Ni  Ni22  1  0.83570290  0.50235294  0.16651822  1
  Cr  Cr23  1  0.66722273  0.33409518  0.33439287  1
  Ni  Ni24  1  0.66910202  0.66786780  0.00231685  1
  Ni  Ni25  1  0.83403737  0.83382532  0.16852552  1
  Ni  Ni26  1  0.66792379  0.67062226  0.33398470  1
  Ni  Ni27  1  0.16943359  0.16729689  0.50030461  1
  Ni  Ni28  1  1.00127549  0.99937626  0.66737724  1
  Ni  Ni29  1  0.16931472  0.16685650  0.83562819  1
  Ni  Ni30  1  0.17095434  0.50203702  0.50083038  1
  Cr  Cr31  1  0.00198096  0.33397002  0.66885255  1
  Ni  Ni32  1  0.16722232  0.50261307  0.83521356  1
  Ni  Ni33  1  0.16800309  0.83460248  0.50145414  1
  Ni  Ni34  1  0.00184995  0.67051320  0.66924680  1
  Ni  Ni35  1  0.16712474  0.83446880  0.83453623  1
  Ni  Ni36  1  0.50036399  0.16748777  0.50268906  1
  Ni  Ni37  1  0.33493903  0.00135690  0.66808174  1
  Ni  Ni38  1  0.50126384  0.16721223  0.83421158  1
  Ni  Ni39  1  0.49877342  0.50177746  0.50187341  1
  Ni  Ni40  1  0.33603390  0.33379456  0.66685812  1
  Cr  Cr41  1  0.50128255  0.50041251  0.83427828  1
  Ni  Ni42  1  0.50153083  0.83467400  0.50190000  1
  Ni  Ni43  1  0.33411395  0.66878368  0.66650543  1
  Fe  Fe44  1  0.50102653  0.83613330  0.83443277  1
  Ni  Ni45  1  0.83413584  0.16453501  0.50135370  1
  Ni  Ni46  1  0.66771642  1.00129129  0.66786006  1
  Ni  Ni47  1  0.83335269  0.16711873  0.83536446  1
  Cr  Cr48  1  0.83450624  0.50299940  0.50214367  1
  Ni  Ni49  1  0.66598753  0.33322204  0.66782067  1
  Ni  Ni50  1  0.83518453  0.50260560  0.83555583  1
  Ni  Ni51  1  0.83439642  0.83619231  0.50113629  1
  Ni  Ni52  1  0.66796509  0.66942225  0.66763258  1
  Ni  Ni53  1  0.83554902  0.83420846  0.83426947  1
" 