5597,Ni86Fe11Cr1_13,-240.512701637915, 192.848427330929,Ni86Fe11Cr1,"# generated using pymatgen
 data_CrFe3Ni23
_symmetry_space_group_name_H-M   'P 1'
_cell_length_a   7.43976092
_cell_length_b   7.43976092
_cell_length_c   10.52141080
_cell_angle_alpha   90.00000000
_cell_angle_beta   90.00000000
_cell_angle_gamma   90.00000000
_symmetry_Int_Tables_number   1
_chemical_formula_structural   CrFe3Ni23
_chemical_formula_sum   'Cr2 Fe6 Ni46'
_cell_volume   582.36053607
_cell_formula_units_Z   2
loop_
 _symmetry_equiv_pos_site_id
 _symmetry_equiv_pos_as_xyz
  1  'x, y, z'
loop_
 _atom_site_type_symbol
 _atom_site_label
 _atom_site_symmetry_multiplicity
 _atom_site_fract_x
 _atom_site_fract_y
 _atom_site_fract_z
 _atom_site_occupancy
  Ni  Ni0  1  1.00177359  1.00101460  0.00227157  1
  Ni  Ni1  1  0.16789665  0.16866267  0.16799685  1
  Ni  Ni2  1  0.00251834  1.00175165  0.33530080  1
  Fe  Fe3  1  0.00190276  0.33522020  0.00196514  1
  Ni  Ni4  1  0.16732870  0.50204577  0.16850520  1
  Ni  Ni5  1  1.00027491  0.33536787  0.33458010  1
  Ni  Ni6  1  1.00167633  0.66900541  0.00222108  1
  Ni  Ni7  1  0.16790552  0.83479206  0.16845637  1
  Ni  Ni8  1  0.00234695  0.66838287  0.33530475  1
  Ni  Ni9  1  0.33530067  0.00187347  0.00231498  1
  Ni  Ni10  1  0.50231044  0.16709924  0.16836054  1
  Ni  Ni11  1  0.33502804  1.00089609  0.33470114  1
  Ni  Ni12  1  0.33559039  0.33439570  0.00191316  1
  Cr  Cr13  1  0.50067509  0.50189407  0.16796128  1
  Fe  Fe14  1  0.33313573  0.33425224  0.33600031  1
  Ni  Ni15  1  0.33432491  0.66922671  1.00086168  1
  Ni  Ni16  1  0.50190411  0.83676832  0.16801459  1
  Ni  Ni17  1  0.33412126  0.67031265  0.33610433  1
  Ni  Ni18  1  0.66842914  0.00227988  0.00250099  1
  Ni  Ni19  1  0.83529416  0.16765912  0.16845343  1
  Fe  Fe20  1  0.66899358  1.00181093  0.33511293  1
  Ni  Ni21  1  0.66865091  0.33449578  1.00053318  1
  Fe  Fe22  1  0.83699233  0.50177483  0.16860641  1
  Ni  Ni23  1  0.66988202  0.33446433  0.33643757  1
  Ni  Ni24  1  0.66950529  0.66872980  1.00166378  1
  Ni  Ni25  1  0.83570547  0.83620998  0.16811974  1
  Fe  Fe26  1  0.66967831  0.66968649  0.33607832  1
  Ni  Ni27  1  0.16820157  0.16872681  0.50214051  1
  Ni  Ni28  1  0.00191778  1.00182747  0.66792505  1
  Fe  Fe29  1  0.16877383  0.16821890  0.83488913  1
  Ni  Ni30  1  0.16869403  0.50219244  0.50195988  1
  Ni  Ni31  1  1.00134790  0.33514355  0.66843754  1
  Ni  Ni32  1  0.16891196  0.50285443  0.83502832  1
  Ni  Ni33  1  0.16827754  0.83458225  0.50189575  1
  Ni  Ni34  1  0.00366430  0.66852865  0.66798102  1
  Ni  Ni35  1  0.16834226  0.83394764  0.83515056  1
  Ni  Ni36  1  0.50233119  0.16899326  0.50177549  1
  Ni  Ni37  1  0.33509670  1.00182405  0.66848141  1
  Ni  Ni38  1  0.50300164  0.16895729  0.83536520  1
  Ni  Ni39  1  0.50064277  0.50073029  0.50160144  1
  Ni  Ni40  1  0.33564689  0.33512777  0.66741726  1
  Ni  Ni41  1  0.50045006  0.50053407  0.83581916  1
  Ni  Ni42  1  0.50080119  0.83577991  0.50093916  1
  Ni  Ni43  1  0.33333181  0.66854749  0.66853769  1
  Ni  Ni44  1  0.50075155  0.83601127  0.83655700  1
  Ni  Ni45  1  0.83496189  0.16857273  0.50222801  1
  Ni  Ni46  1  0.66848894  0.00414243  0.66802794  1
  Ni  Ni47  1  0.83408636  0.16839093  0.83481621  1
  Ni  Ni48  1  0.83615658  0.50066492  0.50064938  1
  Ni  Ni49  1  0.66850738  0.33338176  0.66853880  1
  Ni  Ni50  1  0.83614736  0.50060569  0.83667707  1
  Ni  Ni51  1  0.83643272  0.83627090  0.50138266  1
  Cr  Cr52  1  0.66850940  0.66789678  0.66845958  1
  Ni  Ni53  1  0.83640622  0.83650104  0.83600596  1
" 