3984,Ni86Fe11Cr1_4,-240.337278246465, 193.295959496566,Ni86Fe11Cr1,"# generated using pymatgen
 data_CrFe3Ni23
_symmetry_space_group_name_H-M   'P 1'
_cell_length_a   7.44037217
_cell_length_b   7.44037217
_cell_length_c   10.52227523
_cell_angle_alpha   90.00000000
_cell_angle_beta   90.00000000
_cell_angle_gamma   90.00000000
_symmetry_Int_Tables_number   1
_chemical_formula_structural   CrFe3Ni23
_chemical_formula_sum   'Cr2 Fe6 Ni46'
_cell_volume   582.50408686
_cell_formula_units_Z   2
loop_
 _symmetry_equiv_pos_site_id
 _symmetry_equiv_pos_as_xyz
  1  'x, y, z'
loop_
 _atom_site_type_symbol
 _atom_site_label
 _atom_site_symmetry_multiplicity
 _atom_site_fract_x
 _atom_site_fract_y
 _atom_site_fract_z
 _atom_site_occupancy
  Ni  Ni0  1  1.00075261  0.00248741  0.00197401  1
  Ni  Ni1  1  0.16824939  0.16823939  0.16799547  1
  Ni  Ni2  1  1.00084661  1.00154877  0.33543628  1
  Ni  Ni3  1  1.00086753  0.33477967  0.00191302  1
  Ni  Ni4  1  0.16820660  0.50161470  0.16805086  1
  Ni  Ni5  1  0.00211632  0.33487635  0.33425753  1
  Ni  Ni6  1  1.00142931  0.66810619  0.00216061  1
  Ni  Ni7  1  0.16775655  0.83559960  0.16932346  1
  Ni  Ni8  1  0.00219640  0.66893233  0.33537816  1
  Ni  Ni9  1  0.33582617  0.00192562  0.00293856  1
  Ni  Ni10  1  0.50179269  0.16909502  0.16839041  1
  Fe  Fe11  1  0.33537635  0.00208648  0.33517892  1
  Ni  Ni12  1  0.33454087  0.33426694  0.00186576  1
  Ni  Ni13  1  0.50215766  0.50108367  0.16909828  1
  Ni  Ni14  1  0.33490268  0.33615246  0.33502626  1
  Ni  Ni15  1  0.33466339  0.66915760  0.00334965  1
  Ni  Ni16  1  0.50191493  0.83529524  0.16843326  1
  Ni  Ni17  1  0.33512413  0.66833951  0.33541229  1
  Fe  Fe18  1  0.66872124  0.00266772  0.00204539  1
  Ni  Ni19  1  0.83532157  0.16854258  0.16933948  1
  Ni  Ni20  1  0.66915427  1.00135751  0.33471073  1
  Ni  Ni21  1  0.66994366  0.33350254  0.00243554  1
  Ni  Ni22  1  0.83508446  0.50173068  0.16866456  1
  Ni  Ni23  1  0.66835329  0.33465223  0.33586100  1
  Fe  Fe24  1  0.66928325  0.66850785  0.00267350  1
  Ni  Ni25  1  0.83576959  0.83512672  0.16817177  1
  Ni  Ni26  1  0.66806298  0.66936544  0.33465457  1
  Ni  Ni27  1  0.16908108  0.16856554  0.50187610  1
  Fe  Fe28  1  1.00108603  0.00343821  0.66757438  1
  Ni  Ni29  1  0.16864256  0.16964528  0.83550590  1
  Ni  Ni30  1  0.16799882  0.50105709  0.50221869  1
  Ni  Ni31  1  1.00164415  0.33492710  0.66914983  1
  Ni  Ni32  1  0.16642726  0.49997014  0.83508111  1
  Ni  Ni33  1  0.16784528  0.83581360  0.50143875  1
  Fe  Fe34  1  1.00069380  0.66667269  0.66748264  1
  Cr  Cr35  1  0.16883942  0.83529415  0.83419331  1
  Ni  Ni36  1  0.50125710  0.16868581  0.50221607  1
  Ni  Ni37  1  0.33681323  0.00205527  0.66734139  1
  Ni  Ni38  1  0.50167410  0.16697555  0.83501529  1
  Ni  Ni39  1  0.50250083  0.50115995  0.50179790  1
  Ni  Ni40  1  0.33342295  0.33410167  0.66848887  1
  Cr  Cr41  1  0.50151468  0.50118103  0.83443324  1
  Ni  Ni42  1  0.50258898  0.83564515  0.50201620  1
  Ni  Ni43  1  0.33557463  0.66914170  0.66657283  1
  Ni  Ni44  1  0.50347059  0.83718862  0.83517339  1
  Fe  Fe45  1  0.83502188  0.16853715  0.50131611  1
  Ni  Ni46  1  0.66824493  1.00122563  0.66945315  1
  Ni  Ni47  1  0.83508510  0.16856933  0.83446832  1
  Ni  Ni48  1  0.83477622  0.50249291  0.50150086  1
  Ni  Ni49  1  0.67029148  0.33387106  0.66702139  1
  Ni  Ni50  1  0.83643537  0.50167842  0.83516150  1
  Ni  Ni51  1  0.83487276  0.83452181  0.50204450  1
  Ni  Ni52  1  0.66890271  0.67021787  0.66816046  1
  Ni  Ni53  1  0.83368072  0.83512825  0.83535968  1
" 