1440,Ni86Fe11Cr1_15,-240.525953214282, 192.623885269028,Ni86Fe11Cr1,"# generated using pymatgen
 data_CrFe3Ni23
_symmetry_space_group_name_H-M   'P 1'
_cell_length_a   7.44063943
_cell_length_b   7.44063943
_cell_length_c   10.52265319
_cell_angle_alpha   90.00000000
_cell_angle_beta   90.00000000
_cell_angle_gamma   90.00000000
_symmetry_Int_Tables_number   1
_chemical_formula_structural   CrFe3Ni23
_chemical_formula_sum   'Cr2 Fe6 Ni46'
_cell_volume   582.56685942
_cell_formula_units_Z   2
loop_
 _symmetry_equiv_pos_site_id
 _symmetry_equiv_pos_as_xyz
  1  'x, y, z'
loop_
 _atom_site_type_symbol
 _atom_site_label
 _atom_site_symmetry_multiplicity
 _atom_site_fract_x
 _atom_site_fract_y
 _atom_site_fract_z
 _atom_site_occupancy
  Ni  Ni0  1  0.00324639  1.00094023  1.00143781  1
  Ni  Ni1  1  0.16783793  0.16689405  0.16972650  1
  Ni  Ni2  1  0.00188315  1.00154273  0.33554953  1
  Ni  Ni3  1  1.00112853  0.33439834  1.00021640  1
  Ni  Ni4  1  0.16880316  0.50281497  0.16926807  1
  Ni  Ni5  1  0.00253610  0.33429573  0.33547852  1
  Ni  Ni6  1  1.00086369  0.67003819  1.00084249  1
  Ni  Ni7  1  0.16852575  0.83552898  0.16828775  1
  Ni  Ni8  1  0.00262950  0.66954977  0.33637866  1
  Ni  Ni9  1  0.33517110  1.00039959  1.00131184  1
  Ni  Ni10  1  0.50246075  0.16725680  0.16988490  1
  Ni  Ni11  1  0.33551703  1.00128684  0.33521414  1
  Cr  Cr12  1  0.33514794  0.33342224  1.00164034  1
  Ni  Ni13  1  0.50176541  0.50298309  0.16991572  1
  Ni  Ni14  1  0.33543402  0.33511372  0.33637103  1
  Fe  Fe15  1  0.33406115  0.66819692  1.00166052  1
  Ni  Ni16  1  0.50179266  0.83509614  0.16694427  1
  Ni  Ni17  1  0.33557618  0.66896611  0.33345356  1
  Fe  Fe18  1  0.66996721  0.00223907  0.00183135  1
  Ni  Ni19  1  0.83536372  0.16669476  0.16758315  1
  Ni  Ni20  1  0.66795041  1.00142482  0.33429011  1
  Ni  Ni21  1  0.66804338  0.33575389  1.00119213  1
  Cr  Cr22  1  0.83509603  0.50162427  0.16861444  1
  Ni  Ni23  1  0.66744247  0.33436697  0.33542194  1
  Ni  Ni24  1  0.66791774  0.66909787  0.99962249  1
  Ni  Ni25  1  0.83507525  0.83603260  0.16943894  1
  Ni  Ni26  1  0.66724072  0.66963077  0.33751907  1
  Ni  Ni27  1  0.16779735  0.16732511  0.50252458  1
  Ni  Ni28  1  0.00181336  1.00144523  0.66838006  1
  Ni  Ni29  1  0.16786357  0.16639640  0.83317416  1
  Ni  Ni30  1  0.16817063  0.50286683  0.50175831  1
  Ni  Ni31  1  0.99993675  0.33550800  0.66973309  1
  Ni  Ni32  1  0.16746939  0.50326527  0.83433266  1
  Ni  Ni33  1  0.16973760  0.83493961  0.50159964  1
  Ni  Ni34  1  0.00306787  0.66840686  0.66832474  1
  Ni  Ni35  1  0.16803757  0.83534193  0.83530494  1
  Ni  Ni36  1  0.50252059  0.16748790  0.50177578  1
  Ni  Ni37  1  0.33541338  1.00038414  0.66847878  1
  Ni  Ni38  1  0.50263806  0.16803715  0.83380511  1
  Ni  Ni39  1  0.50201773  0.50256836  0.50188340  1
  Fe  Fe40  1  0.33406641  0.33453410  0.66774201  1
  Ni  Ni41  1  0.50289121  0.50204011  0.83347325  1
  Ni  Ni42  1  0.50067761  0.83537723  0.50264035  1
  Ni  Ni43  1  0.33483303  0.66902517  0.66977836  1
  Fe  Fe44  1  0.50162715  0.83569383  0.83470415  1
  Ni  Ni45  1  0.83468970  0.16904518  0.50165169  1
  Ni  Ni46  1  0.66809543  0.00335215  0.66931123  1
  Ni  Ni47  1  0.83473161  0.16816992  0.83608741  1
  Ni  Ni48  1  0.83513465  0.50100726  0.50219559  1
  Ni  Ni49  1  0.66846010  0.33499119  0.66882904  1
  Ni  Ni50  1  0.83458996  0.50226518  0.83503963  1
  Fe  Fe51  1  0.83530182  0.83612058  0.50198434  1
  Fe  Fe52  1  0.66953647  0.66927202  0.66811867  1
  Ni  Ni53  1  0.83623149  0.83537171  0.83410126  1
" 