5428,Ni86Fe8Cr5_6,-238.37852871919, 181.615518101828,Ni86Fe8Cr5,"# generated using pymatgen
 data_Cr2Fe2Ni23
_symmetry_space_group_name_H-M   'P 1'
_cell_length_a   7.45144599
_cell_length_b   7.45144599
_cell_length_c   10.53793598
_cell_angle_alpha   90.00000000
_cell_angle_beta   90.00000000
_cell_angle_gamma   90.00000000
_symmetry_Int_Tables_number   1
_chemical_formula_structural   Cr2Fe2Ni23
_chemical_formula_sum   'Cr4 Fe4 Ni46'
_cell_volume   585.10885613
_cell_formula_units_Z   2
loop_
 _symmetry_equiv_pos_site_id
 _symmetry_equiv_pos_as_xyz
  1  'x, y, z'
loop_
 _atom_site_type_symbol
 _atom_site_label
 _atom_site_symmetry_multiplicity
 _atom_site_fract_x
 _atom_site_fract_y
 _atom_site_fract_z
 _atom_site_occupancy
  Ni  Ni0  1  0.99962821  0.00357409  1.00000898  1
  Ni  Ni1  1  0.16766373  0.16775551  0.16776650  1
  Ni  Ni2  1  1.00001842  0.00234034  0.33503796  1
  Ni  Ni3  1  1.00070366  0.33286580  1.00003821  1
  Cr  Cr4  1  0.16625674  0.49946765  0.16789763  1
  Ni  Ni5  1  1.00031803  0.33330368  0.33539900  1
  Fe  Fe6  1  1.00003531  0.66836493  0.99948765  1
  Cr  Cr7  1  0.16630914  0.83644603  0.16734262  1
  Ni  Ni8  1  0.99736367  0.66752475  0.33514515  1
  Ni  Ni9  1  0.33433720  1.00100984  0.00143457  1
  Ni  Ni10  1  0.50120027  0.16751388  0.16789766  1
  Ni  Ni11  1  0.33524891  0.00344934  0.33436477  1
  Ni  Ni12  1  0.33288663  0.33494952  0.00147700  1
  Ni  Ni13  1  0.50343624  0.49980946  0.16698290  1
  Ni  Ni14  1  0.33496341  0.33221377  0.33470669  1
  Ni  Ni15  1  0.33791269  0.66723389  0.99842649  1
  Ni  Ni16  1  0.50339561  0.83561890  0.16714068  1
  Cr  Cr17  1  0.33726643  0.66757811  0.33703189  1
  Ni  Ni18  1  0.66925877  0.99850950  0.00163754  1
  Ni  Ni19  1  0.83420401  0.16760265  0.16820082  1
  Ni  Ni20  1  0.66781843  1.00054011  0.33432496  1
  Fe  Fe21  1  0.66834047  0.33393021  0.00149810  1
  Ni  Ni22  1  0.83287299  0.50101984  0.16758359  1
  Ni  Ni23  1  0.66781465  0.33481802  0.33368024  1
  Ni  Ni24  1  0.66714499  0.66805676  0.00144089  1
  Ni  Ni25  1  0.83287527  0.83449322  0.16794396  1
  Ni  Ni26  1  0.66905590  0.66782095  0.33411741  1
  Ni  Ni27  1  0.16861717  0.16757845  0.50061256  1
  Ni  Ni28  1  0.00134103  0.00106779  0.66809794  1
  Ni  Ni29  1  0.16683544  0.16769628  0.83472519  1
  Ni  Ni30  1  0.16586389  0.49992160  0.50179845  1
  Ni  Ni31  1  0.00161745  0.33457513  0.66778809  1
  Ni  Ni32  1  0.16739088  0.50081955  0.83395118  1
  Ni  Ni33  1  0.16582387  0.83567109  0.50177167  1
  Ni  Ni34  1  0.99992602  0.66749880  0.66840310  1
  Ni  Ni35  1  0.16744102  0.83477764  0.83419794  1
  Ni  Ni36  1  0.50080642  0.16784324  0.50068933  1
  Ni  Ni37  1  0.33330960  1.00082743  0.66732795  1
  Cr  Cr38  1  0.50152436  0.16741471  0.83440556  1
  Ni  Ni39  1  0.50285286  0.49914116  0.50192427  1
  Ni  Ni40  1  0.33308894  0.33494889  0.66706573  1
  Ni  Ni41  1  0.50137939  0.50197287  0.83408463  1
  Ni  Ni42  1  0.50262723  0.83619515  0.50191136  1
  Fe  Fe43  1  0.33414562  0.66780026  0.66768899  1
  Ni  Ni44  1  0.50142260  0.83356811  0.83402378  1
  Fe  Fe45  1  0.83388028  0.16781579  0.50152995  1
  Ni  Ni46  1  0.66862655  0.99931995  0.66719715  1
  Ni  Ni47  1  0.83556636  0.16757521  0.83321849  1
  Ni  Ni48  1  0.83432129  0.50180129  0.50062804  1
  Ni  Ni49  1  0.66861051  0.33608082  0.66784533  1
  Ni  Ni50  1  0.83427473  0.50117616  0.83486447  1
  Ni  Ni51  1  0.83458408  0.83349086  0.50063869  1
  Ni  Ni52  1  0.66808769  0.66778535  0.66759387  1
  Ni  Ni53  1  0.83423674  0.83435747  0.83453423  1
" 