6700,Ni86Fe8Cr5_5,-238.307933719927, 183.358971527867,Ni86Fe8Cr5,"# generated using pymatgen
 data_Cr2Fe2Ni23
_symmetry_space_group_name_H-M   'P 1'
_cell_length_a   7.44893062
_cell_length_b   7.44893062
_cell_length_c   10.53437871
_cell_angle_alpha   90.00000000
_cell_angle_beta   90.00000000
_cell_angle_gamma   90.00000000
_symmetry_Int_Tables_number   1
_chemical_formula_structural   Cr2Fe2Ni23
_chemical_formula_sum   'Cr4 Fe4 Ni46'
_cell_volume   584.51651357
_cell_formula_units_Z   2
loop_
 _symmetry_equiv_pos_site_id
 _symmetry_equiv_pos_as_xyz
  1  'x, y, z'
loop_
 _atom_site_type_symbol
 _atom_site_label
 _atom_site_symmetry_multiplicity
 _atom_site_fract_x
 _atom_site_fract_y
 _atom_site_fract_z
 _atom_site_occupancy
  Ni  Ni0  1  0.00150020  1.00113670  1.00105849  1
  Ni  Ni1  1  0.16709551  0.16757705  0.16865973  1
  Ni  Ni2  1  0.00175319  1.00103353  0.33480435  1
  Ni  Ni3  1  0.99952539  0.33474395  1.00119947  1
  Ni  Ni4  1  0.16672384  0.50157077  0.16846986  1
  Ni  Ni5  1  0.00340851  0.33450698  0.33435340  1
  Ni  Ni6  1  0.00130630  0.66776686  1.00113453  1
  Ni  Ni7  1  0.16733207  0.83450146  0.16761844  1
  Ni  Ni8  1  0.00155869  0.66810685  0.33448303  1
  Ni  Ni9  1  0.33483754  0.99954987  1.00114528  1
  Ni  Ni10  1  0.50124162  0.16671551  0.16742028  1
  Ni  Ni11  1  0.33442541  0.00129946  0.33421726  1
  Cr  Cr12  1  0.33391637  0.33351865  0.00203651  1
  Ni  Ni13  1  0.50180290  0.50262050  0.16779283  1
  Ni  Ni14  1  0.33284554  0.33430943  0.33492245  1
  Ni  Ni15  1  0.33378851  0.67060150  0.00190605  1
  Ni  Ni16  1  0.50205464  0.83431215  0.16766921  1
  Ni  Ni17  1  0.33442150  0.66803922  0.33450807  1
  Ni  Ni18  1  0.66731227  0.00132557  1.00100709  1
  Fe  Fe19  1  0.83544052  0.16709010  0.16689979  1
  Ni  Ni20  1  0.66747058  0.99945563  0.33480455  1
  Ni  Ni21  1  0.67014560  0.33369233  0.00187781  1
  Ni  Ni22  1  0.83512402  0.50238461  0.16662162  1
  Cr  Cr23  1  0.66750972  0.33471520  0.33417980  1
  Ni  Ni24  1  0.66855514  0.66862819  0.00237611  1
  Ni  Ni25  1  0.83426219  0.83393819  0.16763287  1
  Ni  Ni26  1  0.66766947  0.66969167  0.33448285  1
  Ni  Ni27  1  0.16628144  0.16941644  0.50068934  1
  Ni  Ni28  1  0.99965111  0.00141337  0.66778953  1
  Ni  Ni29  1  0.16507721  0.16797420  0.83429727  1
  Ni  Ni30  1  0.16858876  0.50097609  0.50142998  1
  Ni  Ni31  1  0.00129244  0.33473138  0.66809412  1
  Ni  Ni32  1  0.16560075  0.50224033  0.83375053  1
  Ni  Ni33  1  0.16628590  0.83325591  0.50043128  1
  Ni  Ni34  1  0.00137004  0.66750367  0.66802934  1
  Ni  Ni35  1  0.16694446  0.83343366  0.83559799  1
  Ni  Ni36  1  0.50205711  0.16855748  0.50192759  1
  Cr  Cr37  1  0.33457982  0.00145490  0.66823388  1
  Ni  Ni38  1  0.50389394  0.16638553  0.83429725  1
  Ni  Ni39  1  0.49994133  0.50202573  0.50210629  1
  Ni  Ni40  1  0.33397900  0.33539435  0.66671162  1
  Cr  Cr41  1  0.50137952  0.50214928  0.83389943  1
  Ni  Ni42  1  0.50309949  0.83306610  0.50038178  1
  Ni  Ni43  1  0.33379111  0.66672603  0.66723571  1
  Ni  Ni44  1  0.50203213  0.83501980  0.83559747  1
  Ni  Ni45  1  0.83531117  0.16625637  0.50181487  1
  Ni  Ni46  1  0.66915692  0.00160166  0.66784110  1
  Ni  Ni47  1  0.83467900  0.16772627  0.83501853  1
  Fe  Fe48  1  0.83537497  0.50209405  0.50168369  1
  Ni  Ni49  1  0.66838020  0.33368272  0.66741606  1
  Fe  Fe50  1  0.83629405  0.50057386  0.83512847  1
  Ni  Ni51  1  0.83426236  0.83537115  0.50170779  1
  Ni  Ni52  1  0.66849047  0.66836349  0.66678829  1
  Fe  Fe53  1  0.83484638  0.83544257  0.83448736  1
" 