1647,Ni86Fe2Cr10_17,-234.993201240434, 163.756665406994,Ni86Fe2Cr10,"# generated using pymatgen
 data_Cr7FeNi46
_symmetry_space_group_name_H-M   'P 1'
_cell_length_a   7.46792080
_cell_length_b   7.46792080
_cell_length_c   10.56123488
_cell_angle_alpha   90.00000000
_cell_angle_beta   90.00000000
_cell_angle_gamma   90.00000000
_symmetry_Int_Tables_number   1
_chemical_formula_structural   Cr7FeNi46
_chemical_formula_sum   'Cr7 Fe1 Ni46'
_cell_volume   588.99839049
_cell_formula_units_Z   1
loop_
 _symmetry_equiv_pos_site_id
 _symmetry_equiv_pos_as_xyz
  1  'x, y, z'
loop_
 _atom_site_type_symbol
 _atom_site_label
 _atom_site_symmetry_multiplicity
 _atom_site_fract_x
 _atom_site_fract_y
 _atom_site_fract_z
 _atom_site_occupancy
  Cr  Cr0  1  0.00128659  0.00261240  0.99877828  1
  Cr  Cr1  1  0.17003276  0.16952128  0.16727725  1
  Cr  Cr2  1  0.99931291  0.00080061  0.33444356  1
  Ni  Ni3  1  0.99891914  0.33566512  0.99927089  1
  Ni  Ni4  1  0.16713387  0.50129164  0.16708247  1
  Ni  Ni5  1  0.99869958  0.33555272  0.33411069  1
  Ni  Ni6  1  0.00207717  0.66298394  0.00014863  1
  Ni  Ni7  1  0.17021349  0.82993854  0.16647823  1
  Ni  Ni8  1  0.00216325  0.66413854  0.33396271  1
  Ni  Ni9  1  0.33581486  0.99902872  0.99903183  1
  Ni  Ni10  1  0.50093835  0.16704064  0.16672407  1
  Ni  Ni11  1  0.33547554  0.99898171  0.33409581  1
  Ni  Ni12  1  0.33424304  0.33436193  0.99884200  1
  Ni  Ni13  1  0.49878158  0.49870224  0.16585291  1
  Ni  Ni14  1  0.33448414  0.33450491  0.33435422  1
  Ni  Ni15  1  0.33376908  0.66636998  0.00040729  1
  Ni  Ni16  1  0.49771538  0.83412422  0.16632907  1
  Ni  Ni17  1  0.33208805  0.66625312  0.33278954  1
  Ni  Ni18  1  0.66304364  0.00210825  0.00039810  1
  Ni  Ni19  1  0.82945357  0.17021902  0.16684174  1
  Ni  Ni20  1  0.66408660  0.00241592  0.33382677  1
  Ni  Ni21  1  0.66654932  0.33344316  0.00023314  1
  Ni  Ni22  1  0.83390093  0.49794499  0.16590643  1
  Ni  Ni23  1  0.66656445  0.33212817  0.33295795  1
  Ni  Ni24  1  0.66408567  0.66437919  0.99946022  1
  Cr  Cr25  1  0.83235409  0.83182885  0.16519639  1
  Cr  Cr26  1  0.66517737  0.66480271  0.33478490  1
  Ni  Ni27  1  0.16836650  0.16741064  0.50105683  1
  Ni  Ni28  1  0.00084119  0.00126840  0.66594115  1
  Ni  Ni29  1  0.16824206  0.16782017  0.83171633  1
  Ni  Ni30  1  0.16639829  0.49913681  0.49865223  1
  Ni  Ni31  1  0.99976291  0.33301964  0.66650739  1
  Ni  Ni32  1  0.16604811  0.49889161  0.83409559  1
  Ni  Ni33  1  0.16584598  0.83321610  0.49959929  1
  Ni  Ni34  1  -0.00005123  0.66549990  0.66563312  1
  Ni  Ni35  1  0.16797469  0.83300299  0.83364326  1
  Ni  Ni36  1  0.49961799  0.16748443  0.49961760  1
  Ni  Ni37  1  0.33308662  0.00121312  0.66685146  1
  Ni  Ni38  1  0.49971466  0.16692372  0.83342964  1
  Ni  Ni39  1  0.49981385  0.49675026  0.50004529  1
  Ni  Ni40  1  0.33352316  0.33211731  0.66666073  1
  Ni  Ni41  1  0.50078926  0.49868045  0.83396031  1
  Fe  Fe42  1  0.49971801  0.83476631  0.50031944  1
  Cr  Cr43  1  0.33388411  0.66535044  0.66674564  1
  Ni  Ni44  1  0.49959832  0.83424304  0.83367470  1
  Ni  Ni45  1  0.83173962  0.16726620  0.50042399  1
  Ni  Ni46  1  0.66577585  0.00133827  0.66559954  1
  Ni  Ni47  1  0.83177464  0.16875011  0.83248598  1
  Ni  Ni48  1  0.83373084  0.49956421  0.50091266  1
  Ni  Ni49  1  0.66653956  0.33343095  0.66662632  1
  Ni  Ni50  1  0.83305753  0.49875847  0.83311192  1
  Ni  Ni51  1  0.83380876  0.83315860  0.50179916  1
  Ni  Ni52  1  0.66684622  0.66510428  0.66602587  1
  Cr  Cr53  1  0.83203107  0.83153405  0.83212249  1
" 