2706,Ni86Fe2Cr11_3,-235.075834093564, 166.241852404011,Ni86Fe2Cr11,"# generated using pymatgen
 data_Cr7FeNi46
_symmetry_space_group_name_H-M   'P 1'
_cell_length_a   7.46433331
_cell_length_b   7.46433331
_cell_length_c   10.55616140
_cell_angle_alpha   90.00000000
_cell_angle_beta   90.00000000
_cell_angle_gamma   90.00000000
_symmetry_Int_Tables_number   1
_chemical_formula_structural   Cr7FeNi46
_chemical_formula_sum   'Cr7 Fe1 Ni46'
_cell_volume   588.14995648
_cell_formula_units_Z   1
loop_
 _symmetry_equiv_pos_site_id
 _symmetry_equiv_pos_as_xyz
  1  'x, y, z'
loop_
 _atom_site_type_symbol
 _atom_site_label
 _atom_site_symmetry_multiplicity
 _atom_site_fract_x
 _atom_site_fract_y
 _atom_site_fract_z
 _atom_site_occupancy
  Ni  Ni0  1  0.00248252  0.00334835  0.00020192  1
  Ni  Ni1  1  0.16547825  0.16718285  0.16691207  1
  Ni  Ni2  1  0.00235814  1.00007643  0.33347089  1
  Ni  Ni3  1  0.00142335  0.33101431  0.99896415  1
  Ni  Ni4  1  0.16967697  0.49916105  0.16768976  1
  Ni  Ni5  1  0.00216800  0.33364429  0.33329502  1
  Cr  Cr6  1  0.00326637  0.66572967  0.99957393  1
  Ni  Ni7  1  0.16966646  0.83425969  0.16776141  1
  Ni  Ni8  1  0.00197889  0.66677006  0.33576813  1
  Ni  Ni9  1  0.33275021  0.99957245  0.99933276  1
  Cr  Cr10  1  0.49976943  0.16759101  0.16785441  1
  Ni  Ni11  1  0.33169932  0.00033302  0.33366681  1
  Ni  Ni12  1  0.33285107  0.33420624  0.99950051  1
  Ni  Ni13  1  0.49787907  0.50190923  0.16689749  1
  Ni  Ni14  1  0.33271032  0.33430768  0.33479761  1
  Ni  Ni15  1  0.33528581  0.66682777  0.99979699  1
  Ni  Ni16  1  0.49796391  0.83201709  0.16625417  1
  Ni  Ni17  1  0.33261430  0.66599338  0.33270757  1
  Ni  Ni18  1  0.66539190  0.00127737  0.99908025  1
  Ni  Ni19  1  0.83529700  0.16680950  0.16617715  1
  Ni  Ni20  1  0.66645886  0.00026782  0.33380071  1
  Ni  Ni21  1  0.66626963  0.33347760  0.99786410  1
  Cr  Cr22  1  0.83280138  0.49711404  0.16726496  1
  Ni  Ni23  1  0.66571060  0.33458911  0.33495835  1
  Ni  Ni24  1  0.66254104  0.66573728  0.99938094  1
  Cr  Cr25  1  0.83235714  0.83575514  0.16822538  1
  Ni  Ni26  1  0.66578809  0.66580865  0.33427274  1
  Ni  Ni27  1  0.16851542  0.16713169  0.50008276  1
  Ni  Ni28  1  0.00268931  0.99967116  0.66687197  1
  Ni  Ni29  1  0.16715229  0.16716197  0.83360524  1
  Ni  Ni30  1  0.16686629  0.49980669  0.50011911  1
  Ni  Ni31  1  0.00160867  0.33486278  0.66816668  1
  Ni  Ni32  1  0.16801105  0.49898682  0.83264907  1
  Ni  Ni33  1  0.16521637  0.83353453  0.50041338  1
  Ni  Ni34  1  0.00066169  0.66595321  0.66534123  1
  Ni  Ni35  1  0.16965591  0.83426181  0.83231015  1
  Ni  Ni36  1  0.49818664  0.16860836  0.50043186  1
  Ni  Ni37  1  0.33250540  0.00201437  0.66771688  1
  Ni  Ni38  1  0.49970449  0.16696235  0.83275755  1
  Ni  Ni39  1  0.49993572  0.49854731  0.49973741  1
  Ni  Ni40  1  0.33363053  0.33267692  0.66630676  1
  Ni  Ni41  1  0.49966545  0.49991875  0.83374687  1
  Cr  Cr42  1  0.49969870  0.83436079  0.50042992  1
  Fe  Fe43  1  0.33290301  0.66581953  0.66754274  1
  Ni  Ni44  1  0.49840580  0.83351084  0.83408297  1
  Cr  Cr45  1  0.83356440  0.16687516  0.50023477  1
  Ni  Ni46  1  0.66533119  0.00073185  0.66783073  1
  Ni  Ni47  1  0.83368383  0.16858887  0.83418707  1
  Ni  Ni48  1  0.83379534  0.50160884  0.50044014  1
  Ni  Ni49  1  0.66526576  0.33484090  0.66765453  1
  Ni  Ni50  1  0.83287357  0.49759687  0.83242769  1
  Ni  Ni51  1  0.83496210  0.83183663  0.50009068  1
  Ni  Ni52  1  0.66758947  0.66493741  0.66684666  1
  Cr  Cr53  1  0.83310180  0.83423068  0.83232314  1
" 