4502,Ni86Fe2Cr10_7,-235.155794242378, 169.498634475131,Ni86Fe2Cr10,"# generated using pymatgen
 data_Cr7FeNi46
_symmetry_space_group_name_H-M   'P 1'
_cell_length_a   7.46405186
_cell_length_b   7.46405186
_cell_length_c   10.55576337
_cell_angle_alpha   90.00000000
_cell_angle_beta   90.00000000
_cell_angle_gamma   90.00000000
_symmetry_Int_Tables_number   1
_chemical_formula_structural   Cr7FeNi46
_chemical_formula_sum   'Cr7 Fe1 Ni46'
_cell_volume   588.08342958
_cell_formula_units_Z   1
loop_
 _symmetry_equiv_pos_site_id
 _symmetry_equiv_pos_as_xyz
  1  'x, y, z'
loop_
 _atom_site_type_symbol
 _atom_site_label
 _atom_site_symmetry_multiplicity
 _atom_site_fract_x
 _atom_site_fract_y
 _atom_site_fract_z
 _atom_site_occupancy
  Ni  Ni0  1  0.00158522  0.00242017  1.00002883  1
  Ni  Ni1  1  0.16701091  0.16677103  0.16652885  1
  Ni  Ni2  1  1.00010417  0.99986642  0.33355034  1
  Ni  Ni3  1  0.00088214  0.33227418  0.00120329  1
  Ni  Ni4  1  0.16692268  0.49980435  0.16701875  1
  Ni  Ni5  1  0.00080658  0.33423758  0.33249282  1
  Fe  Fe6  1  0.00135469  0.66573005  0.00103190  1
  Ni  Ni7  1  0.16879649  0.83402607  0.16726290  1
  Ni  Ni8  1  0.00127742  0.66649819  0.33427521  1
  Ni  Ni9  1  0.33227240  0.00037846  0.00125819  1
  Ni  Ni10  1  0.49829221  0.16677381  0.16720551  1
  Ni  Ni11  1  0.33342214  0.99963981  0.33131935  1
  Ni  Ni12  1  0.33297873  0.33431513  0.99997454  1
  Ni  Ni13  1  0.49963789  0.50105771  0.16588363  1
  Ni  Ni14  1  0.33272104  0.33446631  0.33271994  1
  Ni  Ni15  1  0.33484603  0.66590817  0.00103145  1
  Ni  Ni16  1  0.49776190  0.83276992  0.16753165  1
  Ni  Ni17  1  0.33247632  0.66649667  0.33271858  1
  Cr  Cr18  1  0.66653921  0.00073859  0.99921088  1
  Ni  Ni19  1  0.83529882  0.16864539  0.16688615  1
  Ni  Ni20  1  0.66707557  1.00011142  0.33368163  1
  Ni  Ni21  1  0.66674099  0.33484726  0.00107443  1
  Ni  Ni22  1  0.83404329  0.49927102  0.16614589  1
  Cr  Cr23  1  0.66701271  0.33326941  0.33338438  1
  Ni  Ni24  1  0.66469926  0.66520419  1.00019961  1
  Cr  Cr25  1  0.83378835  0.83253761  0.16764212  1
  Ni  Ni26  1  0.66684749  0.66719891  0.33332455  1
  Cr  Cr27  1  0.16723038  0.16683800  0.50020107  1
  Ni  Ni28  1  0.99814263  1.00004753  0.66702284  1
  Ni  Ni29  1  0.16701041  0.16806416  0.83387244  1
  Ni  Ni30  1  0.16645758  0.50178787  0.50037202  1
  Ni  Ni31  1  1.00014515  0.33346155  0.66690788  1
  Ni  Ni32  1  0.16862538  0.49832478  0.83321076  1
  Ni  Ni33  1  0.16492341  0.83181806  0.49990115  1
  Ni  Ni34  1  0.00031597  0.66709240  0.66529614  1
  Cr  Cr35  1  0.16699786  0.83407500  0.83337520  1
  Ni  Ni36  1  0.50114182  0.16769772  0.50103225  1
  Ni  Ni37  1  0.33438346  0.00082229  0.66802348  1
  Ni  Ni38  1  0.49925253  0.16736638  0.83236564  1
  Ni  Ni39  1  0.49977871  0.49955502  0.50120238  1
  Ni  Ni40  1  0.33438227  0.33468946  0.66790706  1
  Ni  Ni41  1  0.49889706  0.50028185  0.83351712  1
  Cr  Cr42  1  0.50020878  0.83372860  0.49982936  1
  Ni  Ni43  1  0.33343608  0.66509080  0.66685161  1
  Ni  Ni44  1  0.50112623  0.83295279  0.83304029  1
  Ni  Ni45  1  0.83283427  0.16616405  0.50103173  1
  Ni  Ni46  1  0.66807638  0.00099351  0.66772159  1
  Ni  Ni47  1  0.83433961  0.16583521  0.83268459  1
  Ni  Ni48  1  0.83436533  0.50125898  0.50067562  1
  Ni  Ni49  1  0.66607536  0.33251529  0.66620458  1
  Cr  Cr50  1  0.83319913  0.50027605  0.83411949  1
  Ni  Ni51  1  0.83506547  0.83317891  0.50055695  1
  Ni  Ni52  1  0.66684969  0.66709358  0.66707879  1
  Ni  Ni53  1  0.83238100  0.83456894  0.83224921  1
" 