1058,Ni86Fe2Cr11_18,-234.877321324284, 164.229693262728,Ni86Fe2Cr11,"# generated using pymatgen
 data_Cr7FeNi46
_symmetry_space_group_name_H-M   'P 1'
_cell_length_a   7.46705618
_cell_length_b   7.46705618
_cell_length_c   10.56001212
_cell_angle_alpha   90.00000000
_cell_angle_beta   90.00000000
_cell_angle_gamma   90.00000000
_symmetry_Int_Tables_number   1
_chemical_formula_structural   Cr7FeNi46
_chemical_formula_sum   'Cr7 Fe1 Ni46'
_cell_volume   588.79383484
_cell_formula_units_Z   1
loop_
 _symmetry_equiv_pos_site_id
 _symmetry_equiv_pos_as_xyz
  1  'x, y, z'
loop_
 _atom_site_type_symbol
 _atom_site_label
 _atom_site_symmetry_multiplicity
 _atom_site_fract_x
 _atom_site_fract_y
 _atom_site_fract_z
 _atom_site_occupancy
  Ni  Ni0  1  0.00101333  0.99900898  0.00108312  1
  Ni  Ni1  1  0.16690996  0.16665621  0.16712143  1
  Ni  Ni2  1  0.00189553  0.00001572  0.33334436  1
  Ni  Ni3  1  0.00243120  0.33400167  0.00089108  1
  Ni  Ni4  1  0.16600578  0.49893626  0.16601070  1
  Ni  Ni5  1  0.00155803  0.33313588  0.33343111  1
  Ni  Ni6  1  0.00011842  0.66699628  0.99981648  1
  Ni  Ni7  1  0.16577093  0.83439869  0.16600629  1
  Ni  Ni8  1  0.99857267  0.66684756  0.33354254  1
  Ni  Ni9  1  0.33323153  0.99984773  0.00020499  1
  Ni  Ni10  1  0.49735400  0.16576914  0.16578283  1
  Ni  Ni11  1  0.33115947  0.00172818  0.33326947  1
  Ni  Ni12  1  0.33178022  0.33309974  0.00000755  1
  Ni  Ni13  1  0.49928600  0.50086600  0.16596973  1
  Ni  Ni14  1  0.33163171  0.33152404  0.33335194  1
  Ni  Ni15  1  0.33323270  0.66704757  0.99966755  1
  Ni  Ni16  1  0.50042907  0.83336375  0.16545092  1
  Cr  Cr17  1  0.33322126  0.66665410  0.33338531  1
  Ni  Ni18  1  0.66575388  0.99757124  0.00049757  1
  Ni  Ni19  1  0.83574555  0.16552143  0.16618674  1
  Cr  Cr20  1  0.66679478  0.99904635  0.33339038  1
  Cr  Cr21  1  0.66603383  0.33432416  0.00136069  1
  Ni  Ni22  1  0.83472156  0.50203009  0.16711615  1
  Cr  Cr23  1  0.66684288  0.33514621  0.33261907  1
  Ni  Ni24  1  0.66664877  0.66847949  0.00038918  1
  Ni  Ni25  1  0.83380414  0.83246419  0.16581147  1
  Ni  Ni26  1  0.66854194  0.66643236  0.33309007  1
  Ni  Ni27  1  0.16715893  0.16796037  0.49787136  1
  Cr  Cr28  1  0.99966921  0.99905107  0.66602838  1
  Ni  Ni29  1  0.16868075  0.16841504  0.83503852  1
  Ni  Ni30  1  0.16626789  0.49937471  0.50110883  1
  Ni  Ni31  1  0.00034425  0.33606888  0.66568063  1
  Ni  Ni32  1  0.16703791  0.50014542  0.83287106  1
  Ni  Ni33  1  0.16506046  0.83265751  0.49896336  1
  Ni  Ni34  1  0.99980185  0.66475122  0.66664501  1
  Ni  Ni35  1  0.16679183  0.83143957  0.83506262  1
  Ni  Ni36  1  0.49911170  0.16801114  0.50107066  1
  Cr  Cr37  1  0.33413128  0.99968761  0.66659670  1
  Ni  Ni38  1  0.49822231  0.16649250  0.83313052  1
  Ni  Ni39  1  0.50002970  0.49927646  0.50168665  1
  Ni  Ni40  1  0.33385975  0.33513374  0.66663901  1
  Ni  Ni41  1  0.49882705  0.50097441  0.83232062  1
  Fe  Fe42  1  0.50089515  0.83237681  0.50085685  1
  Ni  Ni43  1  0.33341999  0.66464608  0.66685880  1
  Ni  Ni44  1  0.50094436  0.83251939  0.83366475  1
  Ni  Ni45  1  0.83372869  0.16685720  0.50092085  1
  Ni  Ni46  1  0.66585976  0.99957502  0.66601326  1
  Cr  Cr47  1  0.83316888  0.16633519  0.83296903  1
  Ni  Ni48  1  0.83371242  0.50134688  0.50081175  1
  Ni  Ni49  1  0.66580542  0.33430569  0.66558601  1
  Ni  Ni50  1  0.83414524  0.50287516  0.83204540  1
  Ni  Ni51  1  0.83377260  0.83180316  0.50001882  1
  Ni  Ni52  1  0.66677306  0.66608860  0.66651024  1
  Ni  Ni53  1  0.83225946  0.83088716  0.83420056  1
" 