1834,Ni86Fe2Cr11_16,-235.096773209907, 167.230538577138,Ni86Fe2Cr11,"# generated using pymatgen
 data_Cr7FeNi46
_symmetry_space_group_name_H-M   'P 1'
_cell_length_a   7.46686049
_cell_length_b   7.46686049
_cell_length_c   10.55973538
_cell_angle_alpha   90.00000000
_cell_angle_beta   90.00000000
_cell_angle_gamma   90.00000000
_symmetry_Int_Tables_number   1
_chemical_formula_structural   Cr7FeNi46
_chemical_formula_sum   'Cr7 Fe1 Ni46'
_cell_volume   588.74754560
_cell_formula_units_Z   1
loop_
 _symmetry_equiv_pos_site_id
 _symmetry_equiv_pos_as_xyz
  1  'x, y, z'
loop_
 _atom_site_type_symbol
 _atom_site_label
 _atom_site_symmetry_multiplicity
 _atom_site_fract_x
 _atom_site_fract_y
 _atom_site_fract_z
 _atom_site_occupancy
  Cr  Cr0  1  0.00111893  0.99964199  0.00053657  1
  Ni  Ni1  1  0.16558316  0.16744668  0.16766978  1
  Ni  Ni2  1  0.99931912  0.00104032  0.33319147  1
  Ni  Ni3  1  0.00051194  0.33560581  0.00131344  1
  Ni  Ni4  1  0.16627756  0.50008768  0.16684682  1
  Ni  Ni5  1  0.00182012  0.33297455  0.33303625  1
  Ni  Ni6  1  0.99951688  0.66474576  0.99941201  1
  Ni  Ni7  1  0.16726165  0.83250417  0.16726269  1
  Ni  Ni8  1  0.99914900  0.66602150  0.33279009  1
  Ni  Ni9  1  0.33429367  0.99951971  0.99898222  1
  Cr  Cr10  1  0.49960773  0.16587012  0.16533354  1
  Ni  Ni11  1  0.33301416  0.99988698  0.33321996  1
  Ni  Ni12  1  0.33255027  0.33386905  0.99876024  1
  Ni  Ni13  1  0.49924362  0.50242208  0.16591224  1
  Ni  Ni14  1  0.33028684  0.33390790  0.33476596  1
  Ni  Ni15  1  0.33371033  0.66664969  0.99980646  1
  Ni  Ni16  1  0.50006664  0.83197860  0.16684681  1
  Ni  Ni17  1  0.33411678  0.66624297  0.33278711  1
  Ni  Ni18  1  0.66507578  0.99852326  0.99997159  1
  Ni  Ni19  1  0.83504235  0.16662325  0.16686329  1
  Ni  Ni20  1  0.66770459  0.99721581  0.33437643  1
  Ni  Ni21  1  0.66697519  0.33503032  0.99923347  1
  Ni  Ni22  1  0.83451491  0.50074080  0.16552218  1
  Cr  Cr23  1  0.66763353  0.33434440  0.33483468  1
  Ni  Ni24  1  0.66681025  0.66648497  0.00010113  1
  Ni  Ni25  1  0.83270922  0.83267346  0.16766834  1
  Ni  Ni26  1  0.66677210  0.66874852  0.33342519  1
  Ni  Ni27  1  0.16754514  0.16786560  0.49892673  1
  Fe  Fe28  1  0.00032098  0.99867072  0.66637830  1
  Ni  Ni29  1  0.17017853  0.16655774  0.83344183  1
  Ni  Ni30  1  0.16745895  0.49903217  0.49923027  1
  Cr  Cr31  1  0.00076307  0.33455141  0.66570206  1
  Ni  Ni32  1  0.16742084  0.50129334  0.83396012  1
  Cr  Cr33  1  0.16663618  0.83265241  0.50026927  1
  Ni  Ni34  1  0.00060773  0.66712208  0.66783566  1
  Ni  Ni35  1  0.16750289  0.83218561  0.83241019  1
  Ni  Ni36  1  0.49981349  0.16627104  0.50156052  1
  Ni  Ni37  1  0.33455015  0.00105344  0.66783407  1
  Ni  Ni38  1  0.49853400  0.16663975  0.83295589  1
  Ni  Ni39  1  0.49865438  0.49939120  0.50007520  1
  Ni  Ni40  1  0.33438369  0.33252054  0.66651129  1
  Ni  Ni41  1  0.49906431  0.49898348  0.83404986  1
  Ni  Ni42  1  0.50115892  0.83437583  0.49884009  1
  Ni  Ni43  1  0.33217974  0.66646117  0.66744412  1
  Ni  Ni44  1  0.49890150  0.83441332  0.83434988  1
  Ni  Ni45  1  0.83268060  0.16536508  0.49978958  1
  Ni  Ni46  1  0.66540033  0.00075150  0.66568802  1
  Cr  Cr47  1  0.83106883  0.16699911  0.83366569  1
  Ni  Ni48  1  0.83392154  0.50038037  0.49939793  1
  Ni  Ni49  1  0.66474324  0.33199652  0.66609431  1
  Ni  Ni50  1  0.83355195  0.50166054  0.83511688  1
  Ni  Ni51  1  0.83232508  0.83429050  0.49932158  1
  Cr  Cr52  1  0.66698944  0.66673451  0.66631073  1
  Ni  Ni53  1  0.83363477  0.83165727  0.83304657  1
" 