1777,Ni86Fe8Cr5_2,-238.469581442452, 182.735153992934,Ni86Fe8Cr5,"# generated using pymatgen
 data_Cr2Fe2Ni23
_symmetry_space_group_name_H-M   'P 1'
_cell_length_a   7.45180399
_cell_length_b   7.45180399
_cell_length_c   10.53844227
_cell_angle_alpha   90.00000000
_cell_angle_beta   90.00000000
_cell_angle_gamma   90.00000000
_symmetry_Int_Tables_number   1
_chemical_formula_structural   Cr2Fe2Ni23
_chemical_formula_sum   'Cr4 Fe4 Ni46'
_cell_volume   585.19319426
_cell_formula_units_Z   2
loop_
 _symmetry_equiv_pos_site_id
 _symmetry_equiv_pos_as_xyz
  1  'x, y, z'
loop_
 _atom_site_type_symbol
 _atom_site_label
 _atom_site_symmetry_multiplicity
 _atom_site_fract_x
 _atom_site_fract_y
 _atom_site_fract_z
 _atom_site_occupancy
  Ni  Ni0  1  0.99915848  1.00053728  1.00089294  1
  Fe  Fe1  1  0.16726631  0.16842096  0.16770714  1
  Ni  Ni2  1  0.00275706  1.00092365  0.33429109  1
  Ni  Ni3  1  1.00076673  0.33497770  1.00039737  1
  Ni  Ni4  1  0.16793708  0.50100439  0.16737560  1
  Ni  Ni5  1  0.00113692  0.33472889  0.33466772  1
  Ni  Ni6  1  0.00116081  0.66777546  0.00111870  1
  Ni  Ni7  1  0.16465526  0.83191307  0.16878888  1
  Ni  Ni8  1  0.00119344  0.66761285  0.33404401  1
  Cr  Cr9  1  0.33303615  0.00102686  1.00036356  1
  Ni  Ni10  1  0.50239735  0.17127980  0.16759592  1
  Ni  Ni11  1  0.33188286  0.00169303  0.33542586  1
  Ni  Ni12  1  0.33456119  0.33634906  1.00022822  1
  Ni  Ni13  1  0.49911378  0.49874038  0.16802013  1
  Ni  Ni14  1  0.33412264  0.33455791  0.33464507  1
  Ni  Ni15  1  0.33313838  0.66536052  1.00002051  1
  Cr  Cr16  1  0.50111617  0.83179461  0.16797902  1
  Ni  Ni17  1  0.33294398  0.66677343  0.33501444  1
  Ni  Ni18  1  0.66982094  0.00196693  0.99962772  1
  Ni  Ni19  1  0.83548112  0.16846258  0.16648857  1
  Cr  Cr20  1  0.66843806  0.00180439  0.33536049  1
  Ni  Ni21  1  0.66773574  0.33474643  0.00148239  1
  Fe  Fe22  1  0.83385576  0.50193144  0.16759250  1
  Ni  Ni23  1  0.66778686  0.33607126  0.33395819  1
  Ni  Ni24  1  0.66861240  0.66676107  0.99943442  1
  Ni  Ni25  1  0.83735944  0.83532891  0.16689676  1
  Ni  Ni26  1  0.66863911  0.66516893  0.33640417  1
  Fe  Fe27  1  0.16750293  0.16788059  0.50233993  1
  Ni  Ni28  1  1.00081947  1.00010586  0.66791565  1
  Ni  Ni29  1  0.16629812  0.16899348  0.83318901  1
  Ni  Ni30  1  0.16760548  0.50144142  0.50144431  1
  Ni  Ni31  1  0.00190416  0.33549903  0.66787188  1
  Ni  Ni32  1  0.16759396  0.50096925  0.83424112  1
  Ni  Ni33  1  0.16736285  0.83320106  0.50036832  1
  Ni  Ni34  1  0.00164287  0.66748168  0.66780369  1
  Ni  Ni35  1  0.16656119  0.83312074  0.83401964  1
  Ni  Ni36  1  0.50032742  0.16811120  0.50065224  1
  Ni  Ni37  1  0.33469899  1.00026072  0.66760082  1
  Ni  Ni38  1  0.50128812  0.16802349  0.83490641  1
  Ni  Ni39  1  0.49908535  0.50111931  0.49939977  1
  Ni  Ni40  1  0.33358892  0.33502523  0.66827282  1
  Ni  Ni41  1  0.49951516  0.50154873  0.83566536  1
  Ni  Ni42  1  0.49959457  0.83383374  0.50181265  1
  Ni  Ni43  1  0.33327029  0.66781463  0.66814756  1
  Ni  Ni44  1  0.50170706  0.83350354  0.83328832  1
  Ni  Ni45  1  0.83579124  0.16778057  0.50124058  1
  Ni  Ni46  1  0.66760679  1.00023037  0.66812852  1
  Ni  Ni47  1  0.83541925  0.16701645  0.83527749  1
  Ni  Ni48  1  0.83645195  0.50087681  0.49890915  1
  Cr  Cr49  1  0.66840463  0.33479241  0.66748369  1
  Ni  Ni50  1  0.83605307  0.50132044  0.83597948  1
  Ni  Ni51  1  0.83609051  0.83427318  0.50175974  1
  Fe  Fe52  1  0.66809645  0.66847682  0.66729346  1
  Ni  Ni53  1  0.83487714  0.83481944  0.83439896  1
" 