3093,Ni86Fe11Cr1_2,-240.369752793218, 192.664221937445,Ni86Fe11Cr1,"# generated using pymatgen
 data_CrFe3Ni23
_symmetry_space_group_name_H-M   'P 1'
_cell_length_a   7.44016796
_cell_length_b   7.44016796
_cell_length_c   10.52198644
_cell_angle_alpha   90.00000000
_cell_angle_beta   90.00000000
_cell_angle_gamma   90.00000000
_symmetry_Int_Tables_number   1
_chemical_formula_structural   CrFe3Ni23
_chemical_formula_sum   'Cr2 Fe6 Ni46'
_cell_volume   582.45612611
_cell_formula_units_Z   2
loop_
 _symmetry_equiv_pos_site_id
 _symmetry_equiv_pos_as_xyz
  1  'x, y, z'
loop_
 _atom_site_type_symbol
 _atom_site_label
 _atom_site_symmetry_multiplicity
 _atom_site_fract_x
 _atom_site_fract_y
 _atom_site_fract_z
 _atom_site_occupancy
  Fe  Fe0  1  0.00207728  1.00177321  1.00169494  1
  Ni  Ni1  1  0.16888202  0.16721478  0.16894326  1
  Ni  Ni2  1  1.00150856  1.00131606  0.33443659  1
  Ni  Ni3  1  1.00110547  0.33594225  1.00152501  1
  Fe  Fe4  1  0.16809234  0.50187902  0.16847452  1
  Ni  Ni5  1  0.00252936  0.33556146  0.33582815  1
  Ni  Ni6  1  1.00168087  0.66795489  1.00123622  1
  Ni  Ni7  1  0.16817560  0.83592710  0.16832403  1
  Ni  Ni8  1  0.00235653  0.66860245  0.33547314  1
  Ni  Ni9  1  0.33611016  1.00146056  0.00200307  1
  Ni  Ni10  1  0.50036138  0.16815832  0.16736835  1
  Ni  Ni11  1  0.33561556  1.00120570  0.33509378  1
  Ni  Ni12  1  0.33394275  0.33360683  0.00311484  1
  Ni  Ni13  1  0.50109538  0.50260156  0.16745652  1
  Ni  Ni14  1  0.33397677  0.33514436  0.33502534  1
  Ni  Ni15  1  0.33352511  0.67043670  0.00250916  1
  Ni  Ni16  1  0.50147074  0.83471137  0.16855509  1
  Ni  Ni17  1  0.33410782  0.66918496  0.33500418  1
  Ni  Ni18  1  0.66771002  0.00203464  1.00149891  1
  Ni  Ni19  1  0.83631460  0.16722091  0.16740558  1
  Ni  Ni20  1  0.66825624  1.00084990  0.33551648  1
  Ni  Ni21  1  0.67021037  0.33361423  0.00258000  1
  Ni  Ni22  1  0.83482802  0.50327970  0.16734407  1
  Cr  Cr23  1  0.66913316  0.33397769  0.33451380  1
  Ni  Ni24  1  0.67010501  0.66992980  0.00369997  1
  Ni  Ni25  1  0.83579565  0.83490770  0.16867323  1
  Fe  Fe26  1  0.66863635  0.66960189  0.33492634  1
  Ni  Ni27  1  0.16896317  0.16743280  0.50161380  1
  Ni  Ni28  1  0.00246246  1.00145517  0.66877983  1
  Ni  Ni29  1  0.16920152  0.16780494  0.83478974  1
  Ni  Ni30  1  0.16939858  0.50247452  0.50182599  1
  Ni  Ni31  1  1.00109684  0.33516510  0.66806800  1
  Ni  Ni32  1  0.16769923  0.50230278  0.83514654  1
  Ni  Ni33  1  0.16731572  0.83550907  0.50185482  1
  Ni  Ni34  1  1.00163436  0.66880746  0.66868907  1
  Ni  Ni35  1  0.16759285  0.83538230  0.83515314  1
  Ni  Ni36  1  0.50047131  0.16896725  0.50265430  1
  Ni  Ni37  1  0.33493358  1.00139100  0.66838902  1
  Ni  Ni38  1  0.50137536  0.16796787  0.83539364  1
  Ni  Ni39  1  0.50069375  0.50197754  0.50249693  1
  Ni  Ni40  1  0.33446705  0.33383665  0.66734296  1
  Cr  Cr41  1  0.50203234  0.50067774  0.83576701  1
  Fe  Fe42  1  0.50116950  0.83520096  0.50113003  1
  Ni  Ni43  1  0.33413745  0.67040966  0.66798394  1
  Fe  Fe44  1  0.50184515  0.83617109  0.83602825  1
  Ni  Ni45  1  0.83603562  0.16679653  0.50274278  1
  Fe  Fe46  1  0.66917005  0.00204677  0.66852362  1
  Ni  Ni47  1  0.83492065  0.16797534  0.83514122  1
  Ni  Ni48  1  0.83531779  0.50350840  0.50327207  1
  Ni  Ni49  1  0.66982810  0.33448881  0.66813132  1
  Ni  Ni50  1  0.83574037  0.50273314  0.83476114  1
  Ni  Ni51  1  0.83654320  0.83508861  0.50116007  1
  Ni  Ni52  1  0.66966904  0.66913988  0.66695098  1
  Ni  Ni53  1  0.83622674  0.83473548  0.83553012  1
" 