1956,Ni86Fe8Cr5_11,-238.110060015867, 180.975778793089,Ni86Fe8Cr5,"# generated using pymatgen
 data_Cr2Fe2Ni23
_symmetry_space_group_name_H-M   'P 1'
_cell_length_a   7.44906638
_cell_length_b   7.44906638
_cell_length_c   10.53457069
_cell_angle_alpha   90.00000000
_cell_angle_beta   90.00000000
_cell_angle_gamma   90.00000000
_symmetry_Int_Tables_number   1
_chemical_formula_structural   Cr2Fe2Ni23
_chemical_formula_sum   'Cr4 Fe4 Ni46'
_cell_volume   584.54847264
_cell_formula_units_Z   2
loop_
 _symmetry_equiv_pos_site_id
 _symmetry_equiv_pos_as_xyz
  1  'x, y, z'
loop_
 _atom_site_type_symbol
 _atom_site_label
 _atom_site_symmetry_multiplicity
 _atom_site_fract_x
 _atom_site_fract_y
 _atom_site_fract_z
 _atom_site_occupancy
  Fe  Fe0  1  0.00297642  0.00287529  0.00203900  1
  Ni  Ni1  1  0.16745502  0.16838612  0.16764561  1
  Ni  Ni2  1  0.00233444  0.00266880  0.33541586  1
  Ni  Ni3  1  1.00117487  0.33531899  1.00060204  1
  Ni  Ni4  1  0.16884742  0.50069565  0.16793635  1
  Ni  Ni5  1  1.00104454  0.33468451  0.33452823  1
  Ni  Ni6  1  0.00315296  0.66480775  0.00189035  1
  Ni  Ni7  1  0.16847886  0.83486203  0.16806423  1
  Ni  Ni8  1  0.00248243  0.66632714  0.33504286  1
  Ni  Ni9  1  0.33325947  1.00117163  0.00122855  1
  Fe  Fe10  1  0.50046347  0.16948199  0.16841628  1
  Ni  Ni11  1  0.33369525  0.00176103  0.33533789  1
  Ni  Ni12  1  0.33273061  0.33481049  0.00201692  1
  Ni  Ni13  1  0.50076552  0.49980987  0.16751865  1
  Ni  Ni14  1  0.33378101  0.33429339  0.33439812  1
  Ni  Ni15  1  0.33273429  0.66784523  0.99963245  1
  Cr  Cr16  1  0.50029380  0.83282684  0.16751481  1
  Ni  Ni17  1  0.33332247  0.66760848  0.33550188  1
  Ni  Ni18  1  0.66693954  0.00326778  0.00141140  1
  Ni  Ni19  1  0.83525753  0.16920474  0.16732881  1
  Ni  Ni20  1  0.66771461  0.00307480  0.33640671  1
  Ni  Ni21  1  0.66967713  0.33478384  0.00202930  1
  Ni  Ni22  1  0.83402937  0.49947720  0.16762897  1
  Ni  Ni23  1  0.66871594  0.33426229  0.33415229  1
  Ni  Ni24  1  0.66760921  0.66584623  0.99965544  1
  Cr  Cr25  1  0.83640356  0.83395082  0.16908017  1
  Ni  Ni26  1  0.66790869  0.66624870  0.33676133  1
  Ni  Ni27  1  0.16822557  0.16834532  0.50180557  1
  Fe  Fe28  1  0.00214249  0.00143656  0.66623622  1
  Ni  Ni29  1  0.16682508  0.16761033  0.83416611  1
  Ni  Ni30  1  0.16851945  0.50080706  0.50113631  1
  Ni  Ni31  1  1.00105457  0.33543520  0.66845258  1
  Ni  Ni32  1  0.16867060  0.50107104  0.83453994  1
  Ni  Ni33  1  0.16790363  0.83445999  0.50025066  1
  Ni  Ni34  1  0.00214711  0.66599962  0.66677775  1
  Ni  Ni35  1  0.16834431  0.83471139  0.83528916  1
  Ni  Ni36  1  0.50082628  0.16859546  0.49998899  1
  Ni  Ni37  1  0.33420189  1.00041442  0.66688187  1
  Cr  Cr38  1  0.50068312  0.17054657  0.83457663  1
  Ni  Ni39  1  0.50074334  0.50073457  0.50162366  1
  Ni  Ni40  1  0.33292153  0.33468644  0.66702123  1
  Ni  Ni41  1  0.50076188  0.50202878  0.83449615  1
  Ni  Ni42  1  0.50113106  0.83425926  0.50223983  1
  Ni  Ni43  1  0.33337738  0.66866102  0.66855025  1
  Fe  Fe44  1  0.49982041  0.83397414  0.83399106  1
  Ni  Ni45  1  0.83465036  0.16800736  0.50176415  1
  Ni  Ni46  1  0.66710252  0.00168909  0.66580782  1
  Ni  Ni47  1  0.83584610  0.16872979  0.83450341  1
  Ni  Ni48  1  0.83436600  0.50111706  0.50107667  1
  Ni  Ni49  1  0.66963689  0.33468617  0.66721920  1
  Ni  Ni50  1  0.83411261  0.50019230  0.83487542  1
  Ni  Ni51  1  0.83455423  0.83445211  0.50025450  1
  Ni  Ni52  1  0.66791790  0.66742495  0.66743182  1
  Cr  Cr53  1  0.83544032  0.83474744  0.83503365  1
" 