2308,Ni86Fe8Cr5_12,-238.291259370663, 183.700895651044,Ni86Fe8Cr5,"# generated using pymatgen
 data_Cr2Fe2Ni23
_symmetry_space_group_name_H-M   'P 1'
_cell_length_a   7.44828410
_cell_length_b   7.44828410
_cell_length_c   10.53346439
_cell_angle_alpha   90.00000000
_cell_angle_beta   90.00000000
_cell_angle_gamma   90.00000000
_symmetry_Int_Tables_number   1
_chemical_formula_structural   Cr2Fe2Ni23
_chemical_formula_sum   'Cr4 Fe4 Ni46'
_cell_volume   584.36433063
_cell_formula_units_Z   2
loop_
 _symmetry_equiv_pos_site_id
 _symmetry_equiv_pos_as_xyz
  1  'x, y, z'
loop_
 _atom_site_type_symbol
 _atom_site_label
 _atom_site_symmetry_multiplicity
 _atom_site_fract_x
 _atom_site_fract_y
 _atom_site_fract_z
 _atom_site_occupancy
  Ni  Ni0  1  0.00245609  1.00111891  0.00222817  1
  Ni  Ni1  1  0.16918055  0.16936788  0.16690136  1
  Cr  Cr2  1  0.00149662  1.00082110  0.33496501  1
  Fe  Fe3  1  0.00301560  0.33463059  1.00125861  1
  Ni  Ni4  1  0.16671437  0.50106391  0.16812410  1
  Ni  Ni5  1  0.00229498  0.33592206  0.33305104  1
  Ni  Ni6  1  0.00219635  0.66815394  0.00183033  1
  Ni  Ni7  1  0.16883833  0.83334810  0.16682388  1
  Ni  Ni8  1  0.00138878  0.66699521  0.33422090  1
  Ni  Ni9  1  0.33350196  1.00113226  1.00096959  1
  Ni  Ni10  1  0.50055728  0.16615346  0.16901534  1
  Ni  Ni11  1  0.33594295  0.00196754  0.33457196  1
  Ni  Ni12  1  0.33308269  0.33463601  1.00095595  1
  Fe  Fe13  1  0.50067378  0.50184168  0.16858172  1
  Ni  Ni14  1  0.33468525  0.33445304  0.33494808  1
  Ni  Ni15  1  0.33388994  0.66800984  0.00144904  1
  Ni  Ni16  1  0.50191476  0.83554443  0.16762061  1
  Fe  Fe17  1  0.33457616  0.66783637  0.33498384  1
  Ni  Ni18  1  0.66782134  1.00031751  0.00231785  1
  Ni  Ni19  1  0.83404184  0.16827909  0.16803092  1
  Ni  Ni20  1  0.66643099  1.00105866  0.33462507  1
  Cr  Cr21  1  0.66744471  0.33491443  1.00070392  1
  Ni  Ni22  1  0.83623870  0.50242145  0.16869355  1
  Ni  Ni23  1  0.66679725  0.33446791  0.33424497  1
  Ni  Ni24  1  0.66769244  0.66856804  0.00205253  1
  Ni  Ni25  1  0.83302788  0.83307995  0.16722372  1
  Ni  Ni26  1  0.66790261  0.66825148  0.33334202  1
  Ni  Ni27  1  0.16906926  0.16881064  0.50192341  1
  Ni  Ni28  1  0.00202127  0.00253995  0.66676583  1
  Ni  Ni29  1  0.16836101  0.16849037  0.83495371  1
  Ni  Ni30  1  0.16936094  0.50110863  0.50109622  1
  Ni  Ni31  1  0.00182381  0.33307815  0.66924379  1
  Ni  Ni32  1  0.16797493  0.50088019  0.83455991  1
  Ni  Ni33  1  0.16887145  0.83385880  0.50212779  1
  Fe  Fe34  1  0.00314809  0.66794617  0.66785936  1
  Ni  Ni35  1  0.17000891  0.83440795  0.83483058  1
  Ni  Ni36  1  0.50120875  0.16745473  0.50113201  1
  Ni  Ni37  1  0.33371629  1.00086950  0.66823754  1
  Ni  Ni38  1  0.50034139  0.16720805  0.83363108  1
  Ni  Ni39  1  0.49963677  0.50118250  0.50092567  1
  Ni  Ni40  1  0.33437672  0.33521321  0.66787332  1
  Ni  Ni41  1  0.50053570  0.50196944  0.83395722  1
  Ni  Ni42  1  0.50148160  0.83514327  0.50135929  1
  Ni  Ni43  1  0.33501911  0.66769599  0.66769941  1
  Ni  Ni44  1  0.49978103  0.83460152  0.83480035  1
  Ni  Ni45  1  0.83350038  0.16696516  0.50208287  1
  Ni  Ni46  1  0.66804171  0.00189785  0.66683544  1
  Ni  Ni47  1  0.83507823  0.16924383  0.83366367  1
  Cr  Cr48  1  0.83485275  0.50106914  0.50152869  1
  Ni  Ni49  1  0.66757920  0.33438272  0.66857027  1
  Ni  Ni50  1  0.83527135  0.50032097  0.83385584  1
  Ni  Ni51  1  0.83342757  0.83543151  0.50167292  1
  Ni  Ni52  1  0.66590759  0.66749793  0.66838321  1
  Cr  Cr53  1  0.83381763  0.83439459  0.83471417  1
" 