2721,Ni86Fe2Cr11_7,-235.015587762479, 165.16862303952,Ni86Fe2Cr11,"# generated using pymatgen
 data_Cr7FeNi46
_symmetry_space_group_name_H-M   'P 1'
_cell_length_a   7.46691836
_cell_length_b   7.46691836
_cell_length_c   10.55981722
_cell_angle_alpha   90.00000000
_cell_angle_beta   90.00000000
_cell_angle_gamma   90.00000000
_symmetry_Int_Tables_number   1
_chemical_formula_structural   Cr7FeNi46
_chemical_formula_sum   'Cr7 Fe1 Ni46'
_cell_volume   588.76123444
_cell_formula_units_Z   1
loop_
 _symmetry_equiv_pos_site_id
 _symmetry_equiv_pos_as_xyz
  1  'x, y, z'
loop_
 _atom_site_type_symbol
 _atom_site_label
 _atom_site_symmetry_multiplicity
 _atom_site_fract_x
 _atom_site_fract_y
 _atom_site_fract_z
 _atom_site_occupancy
  Ni  Ni0  1  0.00044213  0.99965789  0.99769394  1
  Cr  Cr1  1  0.16637432  0.16656418  0.16632918  1
  Ni  Ni2  1  0.00072496  0.99990770  0.33577158  1
  Ni  Ni3  1  0.00180916  0.33327047  0.99773878  1
  Ni  Ni4  1  0.16958652  0.50150348  0.16639669  1
  Ni  Ni5  1  0.00173079  0.33329581  0.33501183  1
  Ni  Ni6  1  0.00235084  0.66687252  0.99814128  1
  Ni  Ni7  1  0.16872375  0.83190748  0.16687642  1
  Ni  Ni8  1  0.00403476  0.66654382  0.33550545  1
  Ni  Ni9  1  0.33357154  0.99879080  0.99872074  1
  Ni  Ni10  1  0.49878117  0.16457692  0.16692859  1
  Ni  Ni11  1  0.33378521  0.99867270  0.33431169  1
  Ni  Ni12  1  0.33261425  0.33398944  0.99893154  1
  Ni  Ni13  1  0.49549466  0.50121297  0.16558538  1
  Ni  Ni14  1  0.33235106  0.33410072  0.33431009  1
  Ni  Ni15  1  0.33266967  0.66717621  0.99987857  1
  Ni  Ni16  1  0.49789311  0.83433485  0.16485976  1
  Ni  Ni17  1  0.33133863  0.66730728  0.33338863  1
  Ni  Ni18  1  0.66568036  0.99945275  0.99924237  1
  Ni  Ni19  1  0.83349040  0.16413485  0.16654818  1
  Ni  Ni20  1  0.66559263  0.00073174  0.33411455  1
  Cr  Cr21  1  0.66654021  0.33307656  0.00079407  1
  Cr  Cr22  1  0.83803798  0.50058986  0.16516563  1
  Cr  Cr23  1  0.66655819  0.33188754  0.33325739  1
  Ni  Ni24  1  0.66478474  0.66837813  0.99778098  1
  Cr  Cr25  1  0.83525680  0.83532682  0.16598917  1
  Cr  Cr26  1  0.66467933  0.66747223  0.33484081  1
  Ni  Ni27  1  0.16619000  0.16759276  0.49991769  1
  Ni  Ni28  1  0.99828987  0.99987858  0.66684862  1
  Ni  Ni29  1  0.16655900  0.16716486  0.83394661  1
  Ni  Ni30  1  0.16722330  0.49986736  0.50025886  1
  Ni  Ni31  1  0.99998789  0.33329769  0.66736513  1
  Ni  Ni32  1  0.16752715  0.50034722  0.83337611  1
  Ni  Ni33  1  0.16584599  0.83249911  0.49886714  1
  Ni  Ni34  1  0.00041812  0.66683740  0.66652137  1
  Ni  Ni35  1  0.16454517  0.83238103  0.83440540  1
  Ni  Ni36  1  0.49962192  0.16668002  0.49997147  1
  Cr  Cr37  1  0.33069529  0.99946962  0.66708561  1
  Ni  Ni38  1  0.49985759  0.16767785  0.83324936  1
  Ni  Ni39  1  0.49788072  0.49994616  0.50231774  1
  Ni  Ni40  1  0.33324134  0.33450773  0.66688539  1
  Ni  Ni41  1  0.49894059  0.50025558  0.83207750  1
  Ni  Ni42  1  0.49996648  0.83337133  0.50100729  1
  Ni  Ni43  1  0.33262746  0.66507989  0.66645175  1
  Fe  Fe44  1  0.50027311  0.83270337  0.83321558  1
  Ni  Ni45  1  0.83413525  0.16546431  0.50088195  1
  Ni  Ni46  1  0.66773031  0.00042313  0.66641686  1
  Ni  Ni47  1  0.83367642  0.16513797  0.83281249  1
  Ni  Ni48  1  0.83511451  0.50038261  0.50273598  1
  Ni  Ni49  1  0.66690187  0.33339337  0.66647796  1
  Ni  Ni50  1  0.83372839  0.50161929  0.83221889  1
  Ni  Ni51  1  0.83412515  0.83412297  0.50121938  1
  Ni  Ni52  1  0.66684025  0.66634433  0.66686275  1
  Ni  Ni53  1  0.83362699  0.83328608  0.83295923  1
" 