7819,Ni86Fe11Cr1_8,-240.363395542057, 192.044440087127,Ni86Fe11Cr1,"# generated using pymatgen
 data_CrFe3Ni23
_symmetry_space_group_name_H-M   'P 1'
_cell_length_a   7.44077264
_cell_length_b   7.44077264
_cell_length_c   10.52284159
_cell_angle_alpha   90.00000000
_cell_angle_beta   90.00000000
_cell_angle_gamma   90.00000000
_symmetry_Int_Tables_number   1
_chemical_formula_structural   CrFe3Ni23
_chemical_formula_sum   'Cr2 Fe6 Ni46'
_cell_volume   582.59815049
_cell_formula_units_Z   2
loop_
 _symmetry_equiv_pos_site_id
 _symmetry_equiv_pos_as_xyz
  1  'x, y, z'
loop_
 _atom_site_type_symbol
 _atom_site_label
 _atom_site_symmetry_multiplicity
 _atom_site_fract_x
 _atom_site_fract_y
 _atom_site_fract_z
 _atom_site_occupancy
  Ni  Ni0  1  0.00242814  0.00312929  1.00131326  1
  Ni  Ni1  1  0.16985196  0.16865207  0.16836681  1
  Ni  Ni2  1  0.00232696  1.00165300  0.33527260  1
  Ni  Ni3  1  0.00196085  0.33354845  1.00168575  1
  Ni  Ni4  1  0.16855648  0.49964801  0.16901390  1
  Ni  Ni5  1  1.00119365  0.33377159  0.33402291  1
  Cr  Cr6  1  1.00171250  0.66881911  1.00175218  1
  Ni  Ni7  1  0.16885458  0.83709403  0.16903953  1
  Ni  Ni8  1  1.00127751  0.66974339  0.33503737  1
  Ni  Ni9  1  0.33517933  0.00265897  1.00128729  1
  Ni  Ni10  1  0.50088932  0.16819137  0.16860114  1
  Ni  Ni11  1  0.33511560  1.00175978  0.33623956  1
  Ni  Ni12  1  0.33538792  0.33427873  1.00103645  1
  Ni  Ni13  1  0.50270729  0.50079536  0.16724264  1
  Ni  Ni14  1  0.33648457  0.33421682  0.33517439  1
  Fe  Fe15  1  0.33594257  0.66889055  0.00197740  1
  Ni  Ni16  1  0.50289005  0.83636327  0.16779245  1
  Ni  Ni17  1  0.33639384  0.66929686  0.33273565  1
  Ni  Ni18  1  0.66795271  0.00202597  1.00166691  1
  Fe  Fe19  1  0.83469328  0.16803585  0.16877480  1
  Ni  Ni20  1  0.66787381  0.00182915  0.33538558  1
  Ni  Ni21  1  0.66794674  0.33493751  1.00117197  1
  Ni  Ni22  1  0.83417835  0.50157600  0.16983793  1
  Ni  Ni23  1  0.66753398  0.33518259  0.33552729  1
  Ni  Ni24  1  0.66721793  0.66824729  1.00102159  1
  Ni  Ni25  1  0.83366097  0.83505045  0.16912246  1
  Ni  Ni26  1  0.66758635  0.66822711  0.33597187  1
  Ni  Ni27  1  0.16849344  0.16717208  0.50218839  1
  Ni  Ni28  1  0.00219876  0.00182413  0.66881547  1
  Ni  Ni29  1  0.16992482  0.16893215  0.83485145  1
  Cr  Cr30  1  0.16744722  0.50174304  0.50072887  1
  Ni  Ni31  1  1.00085076  0.33379083  0.66950851  1
  Ni  Ni32  1  0.16729143  0.50000766  0.83478439  1
  Ni  Ni33  1  0.16861166  0.83658683  0.50210915  1
  Ni  Ni34  1  0.00202849  0.66924283  0.66883592  1
  Ni  Ni35  1  0.16898884  0.83635417  0.83445467  1
  Ni  Ni36  1  0.50212652  0.16808673  0.50182309  1
  Fe  Fe37  1  0.33573556  1.00125596  0.66846628  1
  Ni  Ni38  1  0.50166535  0.16801317  0.83495803  1
  Ni  Ni39  1  0.50327089  0.50166958  0.50248439  1
  Fe  Fe40  1  0.33575570  0.33475185  0.66874895  1
  Fe  Fe41  1  0.50133271  0.50252891  0.83501950  1
  Ni  Ni42  1  0.50221461  0.83544057  0.50168252  1
  Ni  Ni43  1  0.33575677  0.66967207  0.67041183  1
  Ni  Ni44  1  0.50298989  0.83714673  0.83593721  1
  Ni  Ni45  1  0.83487765  0.16846702  0.50187435  1
  Ni  Ni46  1  0.66830798  0.00211838  0.66831690  1
  Fe  Fe47  1  0.83552316  0.16724370  0.83467931  1
  Ni  Ni48  1  0.83363247  0.50165026  0.50193755  1
  Ni  Ni49  1  0.66816082  0.33460438  0.66856653  1
  Ni  Ni50  1  0.83468760  0.50125612  0.83361735  1
  Ni  Ni51  1  0.83465444  0.83514128  0.50232044  1
  Ni  Ni52  1  0.66733153  0.66851617  0.66823461  1
  Ni  Ni53  1  0.83368650  0.83450363  0.83391548  1
" 