535,Ni86Fe11Cr1_5,-240.306957940491, 191.456870683484,Ni86Fe11Cr1,"# generated using pymatgen
 data_CrFe3Ni23
_symmetry_space_group_name_H-M   'P 1'
_cell_length_a   7.44118918
_cell_length_b   7.44118918
_cell_length_c   10.52343066
_cell_angle_alpha   90.00000000
_cell_angle_beta   90.00000000
_cell_angle_gamma   90.00000000
_symmetry_Int_Tables_number   1
_chemical_formula_structural   CrFe3Ni23
_chemical_formula_sum   'Cr2 Fe6 Ni46'
_cell_volume   582.69599798
_cell_formula_units_Z   2
loop_
 _symmetry_equiv_pos_site_id
 _symmetry_equiv_pos_as_xyz
  1  'x, y, z'
loop_
 _atom_site_type_symbol
 _atom_site_label
 _atom_site_symmetry_multiplicity
 _atom_site_fract_x
 _atom_site_fract_y
 _atom_site_fract_z
 _atom_site_occupancy
  Ni  Ni0  1  0.99976319  0.00180452  0.00345536  1
  Ni  Ni1  1  0.16733191  0.16811262  0.16821131  1
  Ni  Ni2  1  0.00180814  0.00181016  0.33515971  1
  Fe  Fe3  1  1.00072623  0.33543751  0.00257234  1
  Ni  Ni4  1  0.16854888  0.50165258  0.16812162  1
  Ni  Ni5  1  0.00207798  0.33484274  0.33452472  1
  Fe  Fe6  1  1.00095444  0.66756746  0.00324320  1
  Ni  Ni7  1  0.16943386  0.83538897  0.16820997  1
  Ni  Ni8  1  0.00201907  0.66854821  0.33403816  1
  Ni  Ni9  1  0.33599656  0.00197031  0.00388366  1
  Fe  Fe10  1  0.50202822  0.16894186  0.16834245  1
  Ni  Ni11  1  0.33439530  0.00187181  0.33432384  1
  Ni  Ni12  1  0.33582223  0.33650544  0.00231156  1
  Ni  Ni13  1  0.50257609  0.50328215  0.16804330  1
  Ni  Ni14  1  0.33473881  0.33563659  0.33520715  1
  Ni  Ni15  1  0.33603694  0.66673416  0.00249289  1
  Ni  Ni16  1  0.50172116  0.83440763  0.16815561  1
  Ni  Ni17  1  0.33486731  0.66780490  0.33485177  1
  Ni  Ni18  1  0.66953329  1.00171999  1.00161221  1
  Ni  Ni19  1  0.83524418  0.16891647  0.16807771  1
  Ni  Ni20  1  0.66902709  0.00180182  0.33422394  1
  Ni  Ni21  1  0.66811149  0.33547796  0.00181102  1
  Ni  Ni22  1  0.83398357  0.50100395  0.16870329  1
  Ni  Ni23  1  0.66834598  0.33539757  0.33481020  1
  Ni  Ni24  1  0.66820787  0.66801436  1.00141253  1
  Ni  Ni25  1  0.83394814  0.83523347  0.16806534  1
  Ni  Ni26  1  0.66835624  0.66809765  0.33479066  1
  Ni  Ni27  1  0.16779929  0.16799986  0.50244447  1
  Ni  Ni28  1  0.99939260  1.00155095  0.66637512  1
  Cr  Cr29  1  0.16822976  0.16947477  0.83391181  1
  Ni  Ni30  1  0.16746854  0.50228594  0.50213433  1
  Ni  Ni31  1  1.00078316  0.33619316  0.66817230  1
  Ni  Ni32  1  0.16680156  0.50233972  0.83509772  1
  Ni  Ni33  1  0.16990322  0.83493355  0.50170647  1
  Ni  Ni34  1  1.00071713  0.66752506  0.66812730  1
  Cr  Cr35  1  0.17108487  0.83373822  0.83524595  1
  Ni  Ni36  1  0.50274269  0.16755898  0.50148849  1
  Ni  Ni37  1  0.33684774  0.00194220  0.66687827  1
  Ni  Ni38  1  0.50415831  0.16660912  0.83561256  1
  Ni  Ni39  1  0.50296518  0.50260596  0.50266181  1
  Ni  Ni40  1  0.33595687  0.33621936  0.66779552  1
  Fe  Fe41  1  0.50152869  0.50084180  0.83524160  1
  Ni  Ni42  1  0.50104143  0.83503043  0.50182486  1
  Ni  Ni43  1  0.33563707  0.66692159  0.66802197  1
  Ni  Ni44  1  0.50295156  0.83526805  0.83525701  1
  Ni  Ni45  1  0.83470169  0.16991553  0.50225062  1
  Ni  Ni46  1  0.66896331  1.00172181  0.66924970  1
  Ni  Ni47  1  0.83282677  0.17012207  0.83494523  1
  Ni  Ni48  1  0.83480564  0.50055871  0.50119385  1
  Ni  Ni49  1  0.66836903  0.33511617  0.66879362  1
  Ni  Ni50  1  0.83486403  0.50073431  0.83542451  1
  Fe  Fe51  1  0.83473042  0.83470287  0.50080420  1
  Ni  Ni52  1  0.66879055  0.66830710  0.66903310  1
  Fe  Fe53  1  0.83416085  0.83562591  0.83547819  1
" 