7050,Ni86Fe8Cr5_4,-238.299885187692, 181.433012838511,Ni86Fe8Cr5,"# generated using pymatgen
 data_Cr2Fe2Ni23
_symmetry_space_group_name_H-M   'P 1'
_cell_length_a   7.44837622
_cell_length_b   7.44837622
_cell_length_c   10.53359467
_cell_angle_alpha   90.00000000
_cell_angle_beta   90.00000000
_cell_angle_gamma   90.00000000
_symmetry_Int_Tables_number   1
_chemical_formula_structural   Cr2Fe2Ni23
_chemical_formula_sum   'Cr4 Fe4 Ni46'
_cell_volume   584.38601350
_cell_formula_units_Z   2
loop_
 _symmetry_equiv_pos_site_id
 _symmetry_equiv_pos_as_xyz
  1  'x, y, z'
loop_
 _atom_site_type_symbol
 _atom_site_label
 _atom_site_symmetry_multiplicity
 _atom_site_fract_x
 _atom_site_fract_y
 _atom_site_fract_z
 _atom_site_occupancy
  Ni  Ni0  1  1.00074255  1.00046924  1.00113099  1
  Ni  Ni1  1  0.16833208  0.16687302  0.16805902  1
  Ni  Ni2  1  1.00115884  0.00141023  0.33516511  1
  Fe  Fe3  1  0.00140631  0.33473280  0.00176346  1
  Ni  Ni4  1  0.16753831  0.50244709  0.16839533  1
  Ni  Ni5  1  0.00260524  0.33323085  0.33285249  1
  Ni  Ni6  1  0.00136749  0.66961317  1.00086573  1
  Ni  Ni7  1  0.16718528  0.83454786  0.16799997  1
  Ni  Ni8  1  0.00267248  0.66926194  0.33422032  1
  Ni  Ni9  1  0.33281608  1.00097696  0.00148763  1
  Ni  Ni10  1  0.50105755  0.16796614  0.16843952  1
  Ni  Ni11  1  0.33242313  0.00150235  0.33303386  1
  Ni  Ni12  1  0.33431586  0.33585337  0.00212294  1
  Ni  Ni13  1  0.50159406  0.50061220  0.16878273  1
  Ni  Ni14  1  0.33356093  0.33571299  0.33453839  1
  Ni  Ni15  1  0.33406234  0.66669281  1.00118303  1
  Fe  Fe16  1  0.50090781  0.83449428  0.16699422  1
  Ni  Ni17  1  0.33352996  0.66643741  0.33350814  1
  Ni  Ni18  1  0.67001175  1.00064180  0.00222316  1
  Ni  Ni19  1  0.83427123  0.16775193  0.16797318  1
  Ni  Ni20  1  0.67027680  0.00162046  0.33253321  1
  Ni  Ni21  1  0.66741603  0.33532870  0.00170789  1
  Ni  Ni22  1  0.83457315  0.50217293  0.16761495  1
  Ni  Ni23  1  0.66762581  0.33448320  0.33329248  1
  Ni  Ni24  1  0.66834374  0.66764136  1.00074952  1
  Ni  Ni25  1  0.83593380  0.83400062  0.16912784  1
  Ni  Ni26  1  0.66762042  0.66772826  0.33265934  1
  Ni  Ni27  1  0.16589142  0.16749048  0.50111278  1
  Ni  Ni28  1  1.00052773  0.00143520  0.66747503  1
  Ni  Ni29  1  0.16624148  0.16743439  0.83462269  1
  Ni  Ni30  1  0.16820621  0.50208246  0.50067281  1
  Ni  Ni31  1  0.00282419  0.33319420  0.66968121  1
  Ni  Ni32  1  0.16720869  0.50189199  0.83487788  1
  Ni  Ni33  1  0.16703192  0.83417765  0.50115424  1
  Ni  Ni34  1  0.00289268  0.66926582  0.66860309  1
  Ni  Ni35  1  0.16769683  0.83438373  0.83442544  1
  Cr  Cr36  1  0.50190500  0.16938641  0.50163364  1
  Fe  Fe37  1  0.33189513  0.99992661  0.66862054  1
  Cr  Cr38  1  0.50090372  0.16741722  0.83364330  1
  Ni  Ni39  1  0.50037806  0.50212391  0.50142880  1
  Ni  Ni40  1  0.33211064  0.33786562  0.66717772  1
  Ni  Ni41  1  0.50143397  0.50267699  0.83359938  1
  Cr  Cr42  1  0.50069634  0.83309508  0.50077431  1
  Ni  Ni43  1  0.33356459  0.66566997  0.66915450  1
  Ni  Ni44  1  0.50102900  0.83317828  0.83588608  1
  Ni  Ni45  1  0.83610521  0.16731000  0.50099560  1
  Ni  Ni46  1  0.67271149  1.00021407  0.66907867  1
  Ni  Ni47  1  0.83584287  0.16804578  0.83500889  1
  Cr  Cr48  1  0.83508206  0.50080668  0.50083505  1
  Ni  Ni49  1  0.66863579  0.33529777  0.66877025  1
  Ni  Ni50  1  0.83503348  0.50171020  0.83512402  1
  Fe  Fe51  1  0.83616520  0.83501802  0.50104724  1
  Ni  Ni52  1  0.66728024  0.66822368  0.67026896  1
  Ni  Ni53  1  0.83503988  0.83415668  0.83358629  1
" 