563,Ni86Fe11Cr1_16,-240.575603973565, 192.911372078428,Ni86Fe11Cr1,"# generated using pymatgen
 data_CrFe3Ni23
_symmetry_space_group_name_H-M   'P 1'
_cell_length_a   7.44173376
_cell_length_b   7.44173376
_cell_length_c   10.52420081
_cell_angle_alpha   90.00000000
_cell_angle_beta   90.00000000
_cell_angle_gamma   90.00000000
_symmetry_Int_Tables_number   1
_chemical_formula_structural   CrFe3Ni23
_chemical_formula_sum   'Cr2 Fe6 Ni46'
_cell_volume   582.82394093
_cell_formula_units_Z   2
loop_
 _symmetry_equiv_pos_site_id
 _symmetry_equiv_pos_as_xyz
  1  'x, y, z'
loop_
 _atom_site_type_symbol
 _atom_site_label
 _atom_site_symmetry_multiplicity
 _atom_site_fract_x
 _atom_site_fract_y
 _atom_site_fract_z
 _atom_site_occupancy
  Ni  Ni0  1  0.00220666  1.00107734  1.00116628  1
  Ni  Ni1  1  0.16585001  0.16728935  0.16805649  1
  Ni  Ni2  1  1.00148453  1.00149601  0.33563496  1
  Fe  Fe3  1  0.00232530  0.33600756  1.00144716  1
  Ni  Ni4  1  0.16737531  0.50301869  0.16780615  1
  Ni  Ni5  1  0.99982271  0.33480049  0.33366132  1
  Ni  Ni6  1  1.00113356  0.67009222  1.00168141  1
  Ni  Ni7  1  0.16814812  0.83498384  0.16922613  1
  Ni  Ni8  1  1.00111703  0.66877694  0.33468746  1
  Ni  Ni9  1  0.33232664  1.00112114  1.00110224  1
  Cr  Cr10  1  0.50283311  0.16699343  0.16789941  1
  Ni  Ni11  1  0.33382670  0.99956094  0.33553255  1
  Ni  Ni12  1  0.33514640  0.33525769  1.00025549  1
  Ni  Ni13  1  0.50236330  0.50417784  0.16815707  1
  Cr  Cr14  1  0.33490735  0.33588737  0.33580227  1
  Ni  Ni15  1  0.33468927  0.66866874  0.00177017  1
  Ni  Ni16  1  0.50104553  0.83304412  0.16892481  1
  Ni  Ni17  1  0.33495372  0.67015468  0.33445736  1
  Fe  Fe18  1  0.66888246  0.99965163  1.00060185  1
  Ni  Ni19  1  0.83732127  0.16837742  0.16875944  1
  Ni  Ni20  1  0.66968489  1.00069849  0.33493407  1
  Ni  Ni21  1  0.66918084  0.33642239  1.00067117  1
  Ni  Ni22  1  0.83545692  0.50180846  0.16912886  1
  Ni  Ni23  1  0.67095955  0.33588825  0.33646270  1
  Ni  Ni24  1  0.66931198  0.66719197  1.00151710  1
  Ni  Ni25  1  0.83579555  0.83495570  0.16894987  1
  Ni  Ni26  1  0.66894865  0.66845805  0.33501071  1
  Fe  Fe27  1  0.16729384  0.16766991  0.50251324  1
  Fe  Fe28  1  1.00080467  0.00178541  0.66905447  1
  Ni  Ni29  1  0.16855439  0.16834932  0.83461557  1
  Fe  Fe30  1  0.16707435  0.50300018  0.50272200  1
  Ni  Ni31  1  1.00121216  0.33536319  0.66932120  1
  Ni  Ni32  1  0.16844103  0.50219473  0.83469354  1
  Fe  Fe33  1  0.16830282  0.83430864  0.50175560  1
  Ni  Ni34  1  1.00099139  0.66813022  0.66886711  1
  Ni  Ni35  1  0.16849575  0.83470466  0.83433036  1
  Ni  Ni36  1  0.50257060  0.16704930  0.50273396  1
  Ni  Ni37  1  0.33548763  0.00193000  0.66847963  1
  Ni  Ni38  1  0.50127859  0.16844561  0.83427658  1
  Ni  Ni39  1  0.50230520  0.50297392  0.50273360  1
  Ni  Ni40  1  0.33500065  0.33427988  0.66896508  1
  Ni  Ni41  1  0.50132002  0.50173919  0.83421322  1
  Ni  Ni42  1  0.50147009  0.83513360  0.50121262  1
  Ni  Ni43  1  0.33487488  0.66889681  0.66893058  1
  Ni  Ni44  1  0.50087964  0.83476592  0.83494581  1
  Ni  Ni45  1  0.83529203  0.16843646  0.50133692  1
  Ni  Ni46  1  0.66797526  0.00171158  0.66928723  1
  Ni  Ni47  1  0.83525401  0.16866812  0.83497874  1
  Ni  Ni48  1  0.83577791  0.50172259  0.50146848  1
  Ni  Ni49  1  0.66877731  0.33461832  0.66794214  1
  Ni  Ni50  1  0.83545816  0.50182723  0.83438029  1
  Ni  Ni51  1  0.83515131  0.83496761  0.50186604  1
  Ni  Ni52  1  0.66908406  0.66874580  0.66855305  1
  Ni  Ni53  1  0.83561826  0.83456442  0.83436179  1
" 