8956,Ni86Fe11Cr1_11,-240.382666454209, 192.583062690017,Ni86Fe11Cr1,"# generated using pymatgen
 data_CrFe3Ni23
_symmetry_space_group_name_H-M   'P 1'
_cell_length_a   7.44140200
_cell_length_b   7.44140200
_cell_length_c   10.52373163
_cell_angle_alpha   90.00000000
_cell_angle_beta   90.00000000
_cell_angle_gamma   90.00000000
_symmetry_Int_Tables_number   1
_chemical_formula_structural   CrFe3Ni23
_chemical_formula_sum   'Cr2 Fe6 Ni46'
_cell_volume   582.74599478
_cell_formula_units_Z   2
loop_
 _symmetry_equiv_pos_site_id
 _symmetry_equiv_pos_as_xyz
  1  'x, y, z'
loop_
 _atom_site_type_symbol
 _atom_site_label
 _atom_site_symmetry_multiplicity
 _atom_site_fract_x
 _atom_site_fract_y
 _atom_site_fract_z
 _atom_site_occupancy
  Ni  Ni0  1  1.00104985  0.00282086  1.00063671  1
  Ni  Ni1  1  0.16870815  0.17013998  0.16840081  1
  Ni  Ni2  1  1.00107681  0.00345948  0.33579308  1
  Ni  Ni3  1  0.00322721  0.33385944  1.00170051  1
  Ni  Ni4  1  0.16831099  0.49996727  0.16875069  1
  Ni  Ni5  1  0.00260263  0.33392349  0.33432992  1
  Fe  Fe6  1  0.99950069  0.66696166  1.00006998  1
  Cr  Cr7  1  0.16751461  0.83519180  0.16847232  1
  Fe  Fe8  1  0.00220053  0.66768227  0.33686638  1
  Fe  Fe9  1  0.33668341  0.00467837  1.00099641  1
  Ni  Ni10  1  0.50199725  0.16919007  0.16881195  1
  Ni  Ni11  1  0.33521093  0.00224126  0.33491732  1
  Ni  Ni12  1  0.33408377  0.33601623  0.00194959  1
  Ni  Ni13  1  0.50065600  0.50012096  0.16766167  1
  Ni  Ni14  1  0.33415442  0.33563393  0.33493878  1
  Fe  Fe15  1  0.33641575  0.66689505  1.00113189  1
  Ni  Ni16  1  0.50332646  0.83601603  0.16755007  1
  Ni  Ni17  1  0.33527308  0.66726852  0.33518460  1
  Ni  Ni18  1  0.66963271  1.00034964  0.00228860  1
  Fe  Fe19  1  0.83504337  0.16806190  0.16801315  1
  Ni  Ni20  1  0.66905554  0.00209185  0.33436605  1
  Ni  Ni21  1  0.66790665  0.33572731  0.00201458  1
  Fe  Fe22  1  0.83501278  0.50063425  0.16729609  1
  Ni  Ni23  1  0.66857073  0.33422006  0.33422562  1
  Ni  Ni24  1  0.66741440  0.66900847  1.00150608  1
  Ni  Ni25  1  0.83488188  0.83580897  0.16772143  1
  Cr  Cr26  1  0.66679782  0.66870965  0.33595378  1
  Ni  Ni27  1  0.16841860  0.16847332  0.50145403  1
  Ni  Ni28  1  0.00206105  0.00200755  0.66864095  1
  Ni  Ni29  1  0.16827411  0.16865434  0.83525465  1
  Ni  Ni30  1  0.16832889  0.50160520  0.50124910  1
  Ni  Ni31  1  0.00231861  0.33465865  0.66902033  1
  Ni  Ni32  1  0.16823328  0.50150173  0.83513018  1
  Ni  Ni33  1  0.16824600  0.83504674  0.50127460  1
  Ni  Ni34  1  0.00188618  0.66848394  0.66841125  1
  Ni  Ni35  1  0.16783298  0.83503206  0.83542405  1
  Ni  Ni36  1  0.50214020  0.16868881  0.50109693  1
  Ni  Ni37  1  0.33437230  1.00138003  0.66898669  1
  Ni  Ni38  1  0.50254626  0.16900751  0.83519403  1
  Ni  Ni39  1  0.50101893  0.50006584  0.50262087  1
  Ni  Ni40  1  0.33417021  0.33536117  0.66824136  1
  Ni  Ni41  1  0.50203786  0.50112153  0.83503241  1
  Ni  Ni42  1  0.50084792  0.83641760  0.50203321  1
  Ni  Ni43  1  0.33527962  0.66843152  0.66873794  1
  Ni  Ni44  1  0.50227452  0.83520203  0.83574973  1
  Ni  Ni45  1  0.83460503  0.16860801  0.50112643  1
  Ni  Ni46  1  0.66873663  1.00090355  0.66837559  1
  Ni  Ni47  1  0.83452605  0.16847703  0.83560445  1
  Ni  Ni48  1  0.83591783  0.50022568  0.50232608  1
  Ni  Ni49  1  0.66866445  0.33557656  0.66878338  1
  Ni  Ni50  1  0.83476732  0.50137312  0.83545352  1
  Ni  Ni51  1  0.83611559  0.83623444  0.50276895  1
  Ni  Ni52  1  0.66804997  0.66868498  0.66876012  1
  Ni  Ni53  1  0.83507239  0.83514948  0.83475230  1
" 