7383,Ni86Fe2Cr10_0,-235.100135206487, 166.236121107766,Ni86Fe2Cr10,"# generated using pymatgen
 data_Cr7FeNi46
_symmetry_space_group_name_H-M   'P 1'
_cell_length_a   7.46518790
_cell_length_b   7.46518790
_cell_length_c   10.55736998
_cell_angle_alpha   90.00000000
_cell_angle_beta   90.00000000
_cell_angle_gamma   90.00000000
_symmetry_Int_Tables_number   1
_chemical_formula_structural   Cr7FeNi46
_chemical_formula_sum   'Cr7 Fe1 Ni46'
_cell_volume   588.35199242
_cell_formula_units_Z   1
loop_
 _symmetry_equiv_pos_site_id
 _symmetry_equiv_pos_as_xyz
  1  'x, y, z'
loop_
 _atom_site_type_symbol
 _atom_site_label
 _atom_site_symmetry_multiplicity
 _atom_site_fract_x
 _atom_site_fract_y
 _atom_site_fract_z
 _atom_site_occupancy
  Ni  Ni0  1  0.00124289  0.99952157  0.99921049  1
  Ni  Ni1  1  0.16747985  0.16703302  0.16710786  1
  Ni  Ni2  1  0.00126838  0.00134673  0.33275792  1
  Ni  Ni3  1  0.00142026  0.33430385  0.99922412  1
  Ni  Ni4  1  0.16726529  0.49978107  0.16685648  1
  Ni  Ni5  1  0.00134609  0.33436140  0.33470559  1
  Ni  Ni6  1  0.00032250  0.66658251  0.00055447  1
  Ni  Ni7  1  0.16592990  0.83363738  0.16671787  1
  Ni  Ni8  1  0.00031871  0.66462296  0.33127053  1
  Ni  Ni9  1  0.33212627  0.00105548  0.99920049  1
  Fe  Fe10  1  0.49897941  0.16847064  0.16615373  1
  Ni  Ni11  1  0.33212265  0.00120018  0.33273812  1
  Ni  Ni12  1  0.33282428  0.33354635  0.00045711  1
  Ni  Ni13  1  0.50010798  0.49920964  0.16689584  1
  Ni  Ni14  1  0.33215151  0.33440450  0.33236479  1
  Ni  Ni15  1  0.33244221  0.66587358  0.99901177  1
  Cr  Cr16  1  0.50015405  0.83260982  0.16729683  1
  Ni  Ni17  1  0.33325592  0.66483975  0.33404352  1
  Ni  Ni18  1  0.66693907  0.99977275  0.99818941  1
  Cr  Cr19  1  0.83361827  0.16741558  0.16672252  1
  Ni  Ni20  1  0.66686101  1.00010214  0.33358260  1
  Ni  Ni21  1  0.66603115  0.33471136  0.99886270  1
  Ni  Ni22  1  0.83293960  0.50086575  0.16691224  1
  Ni  Ni23  1  0.66681560  0.33556310  0.33380608  1
  Ni  Ni24  1  0.66761055  0.66599763  0.99938135  1
  Ni  Ni25  1  0.83454436  0.83244527  0.16671955  1
  Ni  Ni26  1  0.66677011  0.66486634  0.33362052  1
  Ni  Ni27  1  0.16524308  0.16849191  0.50006971  1
  Ni  Ni28  1  0.00187591  0.00216456  0.66848162  1
  Ni  Ni29  1  0.16672597  0.16715691  0.83315197  1
  Ni  Ni30  1  0.16709582  0.49841802  0.49996938  1
  Ni  Ni31  1  0.00051823  0.33355960  0.66639080  1
  Ni  Ni32  1  0.16704633  0.49988893  0.83349041  1
  Cr  Cr33  1  0.16845671  0.83317824  0.50048406  1
  Ni  Ni34  1  0.00161519  0.66462042  0.66871757  1
  Ni  Ni35  1  0.16707063  0.83332676  0.83370086  1
  Cr  Cr36  1  0.49898603  0.16775055  0.49857973  1
  Ni  Ni37  1  0.33183389  0.00058107  0.66845606  1
  Ni  Ni38  1  0.49917341  0.16817401  0.83540586  1
  Ni  Ni39  1  0.49899435  0.50045847  0.49936112  1
  Ni  Ni40  1  0.33238904  0.33418718  0.66757885  1
  Ni  Ni41  1  0.49903757  0.49908980  0.83408474  1
  Ni  Ni42  1  0.49805002  0.83163223  0.49859630  1
  Ni  Ni43  1  0.33269573  0.66555247  0.66741247  1
  Ni  Ni44  1  0.49782663  0.83313628  0.83446030  1
  Ni  Ni45  1  0.83585186  0.16967875  0.49968988  1
  Cr  Cr46  1  0.66680427  0.00134662  0.66864441  1
  Ni  Ni47  1  0.83450442  0.16822669  0.83359672  1
  Ni  Ni48  1  0.83429862  0.49720585  0.49897370  1
  Ni  Ni49  1  0.66749387  0.33428919  0.66757972  1
  Ni  Ni50  1  0.83434719  0.49865677  0.83450846  1
  Cr  Cr51  1  0.83449124  0.83357366  0.49756931  1
  Cr  Cr52  1  0.66597547  0.66470384  0.66737847  1
  Ni  Ni53  1  0.83543682  0.83353702  0.83602919  1
" 