2785,Ni86Fe11Cr1_0,-240.358173832039, 192.196966771466,Ni86Fe11Cr1,"# generated using pymatgen
 data_CrFe3Ni23
_symmetry_space_group_name_H-M   'P 1'
_cell_length_a   7.44134136
_cell_length_b   7.44134136
_cell_length_c   10.52364588
_cell_angle_alpha   90.00000000
_cell_angle_beta   90.00000000
_cell_angle_gamma   90.00000000
_symmetry_Int_Tables_number   1
_chemical_formula_structural   CrFe3Ni23
_chemical_formula_sum   'Cr2 Fe6 Ni46'
_cell_volume   582.73175021
_cell_formula_units_Z   2
loop_
 _symmetry_equiv_pos_site_id
 _symmetry_equiv_pos_as_xyz
  1  'x, y, z'
loop_
 _atom_site_type_symbol
 _atom_site_label
 _atom_site_symmetry_multiplicity
 _atom_site_fract_x
 _atom_site_fract_y
 _atom_site_fract_z
 _atom_site_occupancy
  Fe  Fe0  1  1.00163509  0.00245541  1.00158160  1
  Ni  Ni1  1  0.16788348  0.16665427  0.16864499  1
  Ni  Ni2  1  0.00244810  1.00080811  0.33446080  1
  Ni  Ni3  1  0.00179802  0.33554243  1.00134347  1
  Cr  Cr4  1  0.16777290  0.50144643  0.16859412  1
  Ni  Ni5  1  0.00400487  0.33472255  0.33595767  1
  Ni  Ni6  1  1.00046393  0.66866689  1.00108769  1
  Ni  Ni7  1  0.16884843  0.83679586  0.16838940  1
  Ni  Ni8  1  1.00085436  0.66965045  0.33601201  1
  Ni  Ni9  1  0.33549003  0.00252168  0.00243269  1
  Ni  Ni10  1  0.50163831  0.16713645  0.16751810  1
  Fe  Fe11  1  0.33464889  0.00178938  0.33489067  1
  Ni  Ni12  1  0.33569691  0.33312046  1.00112911  1
  Ni  Ni13  1  0.50330273  0.50280490  0.16752832  1
  Ni  Ni14  1  0.33391903  0.33393664  0.33564918  1
  Fe  Fe15  1  0.33643159  0.66893741  1.00092314  1
  Ni  Ni16  1  0.50174460  0.83524033  0.16859060  1
  Fe  Fe17  1  0.33566964  0.66912682  0.33591263  1
  Ni  Ni18  1  0.66680808  1.00118694  0.00185014  1
  Ni  Ni19  1  0.83565852  0.16821216  0.16762895  1
  Ni  Ni20  1  0.66801384  0.99919447  0.33518936  1
  Ni  Ni21  1  0.66768792  0.33553370  0.00203716  1
  Ni  Ni22  1  0.83410827  0.50183870  0.16761859  1
  Cr  Cr23  1  0.66746533  0.33542748  0.33491701  1
  Ni  Ni24  1  0.66923050  0.66846078  0.00236216  1
  Fe  Fe25  1  0.83444018  0.83504794  0.16876861  1
  Ni  Ni26  1  0.66879710  0.67045206  0.33467805  1
  Ni  Ni27  1  0.16799861  0.16876027  0.50109126  1
  Ni  Ni28  1  0.00252299  1.00088671  0.66882152  1
  Ni  Ni29  1  0.16819752  0.16851407  0.83544387  1
  Ni  Ni30  1  0.16795250  0.50151707  0.50141458  1
  Ni  Ni31  1  0.00258968  0.33576199  0.66788036  1
  Ni  Ni32  1  0.16802181  0.50176522  0.83511985  1
  Ni  Ni33  1  0.16814861  0.83490374  0.50160268  1
  Ni  Ni34  1  1.00118321  0.66853313  0.66808198  1
  Ni  Ni35  1  0.16834865  0.83490450  0.83518861  1
  Ni  Ni36  1  0.50124458  0.16749169  0.50236757  1
  Ni  Ni37  1  0.33514504  0.00249406  0.66786531  1
  Ni  Ni38  1  0.50197250  0.16825221  0.83529786  1
  Ni  Ni39  1  0.50109637  0.50259131  0.50210842  1
  Ni  Ni40  1  0.33508484  0.33416016  0.66840330  1
  Ni  Ni41  1  0.50188966  0.50176457  0.83554622  1
  Ni  Ni42  1  0.50217041  0.83509916  0.50155408  1
  Fe  Fe43  1  0.33505697  0.66844923  0.66834607  1
  Ni  Ni44  1  0.50182183  0.83516416  0.83503760  1
  Ni  Ni45  1  0.83593853  0.16768656  0.50257483  1
  Ni  Ni46  1  0.66751360  1.00108680  0.66814211  1
  Ni  Ni47  1  0.83500906  0.16858268  0.83497776  1
  Ni  Ni48  1  0.83613257  0.50244080  0.50232618  1
  Ni  Ni49  1  0.66750727  0.33550151  0.66852261  1
  Ni  Ni50  1  0.83527304  0.50161413  0.83523816  1
  Ni  Ni51  1  0.83486345  0.83505372  0.50102193  1
  Ni  Ni52  1  0.66911642  0.66859342  0.66814167  1
  Ni  Ni53  1  0.83501156  0.83498839  0.83545937  1
" 