6155,Ni86Fe2Cr10_16,-235.164907885375, 169.747067962293,Ni86Fe2Cr10,"# generated using pymatgen
 data_Cr7FeNi46
_symmetry_space_group_name_H-M   'P 1'
_cell_length_a   7.46401293
_cell_length_b   7.46401293
_cell_length_c   10.55570831
_cell_angle_alpha   90.00000000
_cell_angle_beta   90.00000000
_cell_angle_gamma   90.00000000
_symmetry_Int_Tables_number   1
_chemical_formula_structural   Cr7FeNi46
_chemical_formula_sum   'Cr7 Fe1 Ni46'
_cell_volume   588.07422777
_cell_formula_units_Z   1
loop_
 _symmetry_equiv_pos_site_id
 _symmetry_equiv_pos_as_xyz
  1  'x, y, z'
loop_
 _atom_site_type_symbol
 _atom_site_label
 _atom_site_symmetry_multiplicity
 _atom_site_fract_x
 _atom_site_fract_y
 _atom_site_fract_z
 _atom_site_occupancy
  Ni  Ni0  1  0.99966224  0.00027745  0.00076232  1
  Ni  Ni1  1  0.16501951  0.16715594  0.16648284  1
  Ni  Ni2  1  0.99996286  1.00009100  0.33355182  1
  Ni  Ni3  1  0.00020435  0.33291274  0.00178299  1
  Ni  Ni4  1  0.16612620  0.50106435  0.16602475  1
  Ni  Ni5  1  0.99907712  0.33272578  0.33287761  1
  Fe  Fe6  1  0.00068214  0.66742351  0.00100090  1
  Ni  Ni7  1  0.16629761  0.83238923  0.16752732  1
  Ni  Ni8  1  0.00063411  0.66779246  0.33207805  1
  Cr  Cr9  1  0.33293193  1.00016671  1.00016151  1
  Ni  Ni10  1  0.50224278  0.16698167  0.16640298  1
  Ni  Ni11  1  0.33343378  0.99830411  0.33345508  1
  Ni  Ni12  1  0.33398942  0.33451303  0.00039965  1
  Ni  Ni13  1  0.50002981  0.50013273  0.16659951  1
  Cr  Cr14  1  0.33342655  0.33351395  0.33376378  1
  Ni  Ni15  1  0.33331565  0.66568311  0.00116595  1
  Ni  Ni16  1  0.50003327  0.83349532  0.16863811  1
  Ni  Ni17  1  0.33383757  0.66850122  0.33337835  1
  Ni  Ni18  1  0.66815189  0.00095179  0.00082003  1
  Ni  Ni19  1  0.83334834  0.16715345  0.16696136  1
  Ni  Ni20  1  0.66721302  0.99986140  0.33332335  1
  Ni  Ni21  1  0.66641693  0.33343618  0.00112516  1
  Ni  Ni22  1  0.83445358  0.49885501  0.16739526  1
  Ni  Ni23  1  0.66792231  0.33312985  0.33211344  1
  Cr  Cr24  1  0.66658910  0.66665368  0.99940246  1
  Ni  Ni25  1  0.83428006  0.83460248  0.16747034  1
  Ni  Ni26  1  0.66613722  0.66761812  0.33306669  1
  Ni  Ni27  1  0.16598213  0.16640432  0.50168580  1
  Ni  Ni28  1  0.00135500  0.99929706  0.66629547  1
  Ni  Ni29  1  0.16773324  0.16625362  0.83244364  1
  Ni  Ni30  1  0.16771652  0.50071571  0.50114993  1
  Ni  Ni31  1  0.00292356  0.33272845  0.66594839  1
  Cr  Cr32  1  0.16700270  0.50001267  0.83337348  1
  Ni  Ni33  1  0.16717141  0.83348975  0.50026101  1
  Ni  Ni34  1  0.99998935  0.66858454  0.66777157  1
  Ni  Ni35  1  0.16625739  0.83412073  0.83282285  1
  Ni  Ni36  1  0.50024385  0.16520776  0.50048865  1
  Ni  Ni37  1  0.33302058  0.00026283  0.66723895  1
  Ni  Ni38  1  0.49892246  0.16679211  0.83371833  1
  Ni  Ni39  1  0.49833105  0.50173303  0.50048846  1
  Ni  Ni40  1  0.33247504  0.33278365  0.66671268  1
  Ni  Ni41  1  0.50017775  0.50032212  0.83352212  1
  Ni  Ni42  1  0.50007225  0.83366862  0.50031821  1
  Ni  Ni43  1  0.33444187  0.66756237  0.66606674  1
  Ni  Ni44  1  0.50048429  0.83349647  0.83165372  1
  Ni  Ni45  1  0.83438446  0.16466435  0.49910600  1
  Ni  Ni46  1  0.66623379  0.99732987  0.66646611  1
  Cr  Cr47  1  0.83396331  0.16610057  0.83434790  1
  Cr  Cr48  1  0.83455163  0.50058895  0.49961581  1
  Cr  Cr49  1  0.66538188  0.33427449  0.66706372  1
  Ni  Ni50  1  0.83333046  0.50179781  0.83357192  1
  Ni  Ni51  1  0.83336600  0.83540161  0.50072233  1
  Ni  Ni52  1  0.66617734  0.66913072  0.66797515  1
  Ni  Ni53  1  0.83386888  0.83286709  0.83241694  1
" 