588,Ni86Fe11Cr1_10,-240.273844044499, 191.431870648271,Ni86Fe11Cr1,"# generated using pymatgen
 data_CrFe3Ni23
_symmetry_space_group_name_H-M   'P 1'
_cell_length_a   7.44030208
_cell_length_b   7.44030208
_cell_length_c   10.52217610
_cell_angle_alpha   90.00000000
_cell_angle_beta   90.00000000
_cell_angle_gamma   90.00000000
_symmetry_Int_Tables_number   1
_chemical_formula_structural   CrFe3Ni23
_chemical_formula_sum   'Cr2 Fe6 Ni46'
_cell_volume   582.48762420
_cell_formula_units_Z   2
loop_
 _symmetry_equiv_pos_site_id
 _symmetry_equiv_pos_as_xyz
  1  'x, y, z'
loop_
 _atom_site_type_symbol
 _atom_site_label
 _atom_site_symmetry_multiplicity
 _atom_site_fract_x
 _atom_site_fract_y
 _atom_site_fract_z
 _atom_site_occupancy
  Ni  Ni0  1  1.00079734  1.00054331  0.00285637  1
  Fe  Fe1  1  0.16584309  0.16931554  0.16792903  1
  Ni  Ni2  1  1.00072045  1.00142340  0.33539111  1
  Ni  Ni3  1  1.00025312  0.33613230  0.00306076  1
  Ni  Ni4  1  0.16881689  0.50280353  0.16831713  1
  Ni  Ni5  1  1.00098160  0.33506304  0.33496619  1
  Ni  Ni6  1  1.00136946  0.66869774  1.00127393  1
  Ni  Ni7  1  0.16799405  0.83254292  0.16724598  1
  Ni  Ni8  1  1.00137648  0.66887449  0.33532578  1
  Ni  Ni9  1  0.33581777  1.00064444  0.00255293  1
  Ni  Ni10  1  0.50298820  0.16950491  0.16662832  1
  Cr  Cr11  1  0.33369016  0.00182890  0.33505945  1
  Ni  Ni12  1  0.33624029  0.33599337  0.00330530  1
  Fe  Fe13  1  0.50309639  0.50197057  0.16787538  1
  Ni  Ni14  1  0.33621565  0.33624954  0.33498099  1
  Ni  Ni15  1  0.33518067  0.66865128  0.00193088  1
  Fe  Fe16  1  0.50333347  0.83353182  0.16753591  1
  Ni  Ni17  1  0.33556245  0.66724193  0.33529257  1
  Ni  Ni18  1  0.66876870  1.00175414  0.00230796  1
  Ni  Ni19  1  0.83257636  0.16872193  0.16883870  1
  Fe  Fe20  1  0.66962008  0.00249011  0.33538536  1
  Ni  Ni21  1  0.66883033  0.33536809  1.00113297  1
  Ni  Ni22  1  0.83591205  0.50178422  0.16796288  1
  Ni  Ni23  1  0.66829342  0.33602109  0.33534861  1
  Ni  Ni24  1  0.66916326  0.66818022  1.00164214  1
  Ni  Ni25  1  0.83549476  0.83494902  0.16870667  1
  Ni  Ni26  1  0.66901973  0.66734244  0.33513123  1
  Ni  Ni27  1  0.16839598  0.17014151  0.50129061  1
  Ni  Ni28  1  1.00107271  1.00097048  0.66700965  1
  Cr  Cr29  1  0.16808418  0.16878905  0.83585068  1
  Ni  Ni30  1  0.16832813  0.50190263  0.50170675  1
  Ni  Ni31  1  1.00051354  0.33585861  0.66726432  1
  Ni  Ni32  1  0.16929215  0.50309302  0.83535087  1
  Ni  Ni33  1  0.16843642  0.83341910  0.50311921  1
  Ni  Ni34  1  1.00120553  0.66854299  0.66876110  1
  Ni  Ni35  1  0.16941941  0.83341053  0.83497407  1
  Ni  Ni36  1  0.50278422  0.16891652  0.50372461  1
  Ni  Ni37  1  0.33587503  1.00069413  0.66793096  1
  Fe  Fe38  1  0.50297238  0.16844863  0.83521046  1
  Fe  Fe39  1  0.50242422  0.50214034  0.50240765  1
  Ni  Ni40  1  0.33608368  0.33586601  0.66707303  1
  Ni  Ni41  1  0.50137382  0.50240851  0.83532051  1
  Ni  Ni42  1  0.50274725  0.83492255  0.50163985  1
  Ni  Ni43  1  0.33555633  0.66890734  0.66816850  1
  Ni  Ni44  1  0.50187906  0.83475303  0.83604348  1
  Ni  Ni45  1  0.83416804  0.16902047  0.50121370  1
  Ni  Ni46  1  0.66854157  1.00151875  0.66791105  1
  Ni  Ni47  1  0.83324901  0.16837141  0.83536870  1
  Ni  Ni48  1  0.83577886  0.50175511  0.50170366  1
  Ni  Ni49  1  0.66896332  0.33543061  0.66899100  1
  Ni  Ni50  1  0.83478624  0.50145878  0.83572891  1
  Ni  Ni51  1  0.83428607  0.83467127  0.50134483  1
  Ni  Ni52  1  0.66869779  0.66846520  0.66864436  1
  Ni  Ni53  1  0.83418530  0.83555559  0.83531942  1
" 