2716,Ni86Fe2Cr11_12,-235.142133161983, 167.861547471496,Ni86Fe2Cr11,"# generated using pymatgen
 data_Cr7FeNi46
_symmetry_space_group_name_H-M   'P 1'
_cell_length_a   7.46480120
_cell_length_b   7.46480120
_cell_length_c   10.55682309
_cell_angle_alpha   90.00000000
_cell_angle_beta   90.00000000
_cell_angle_gamma   90.00000000
_symmetry_Int_Tables_number   1
_chemical_formula_structural   Cr7FeNi46
_chemical_formula_sum   'Cr7 Fe1 Ni46'
_cell_volume   588.26056528
_cell_formula_units_Z   1
loop_
 _symmetry_equiv_pos_site_id
 _symmetry_equiv_pos_as_xyz
  1  'x, y, z'
loop_
 _atom_site_type_symbol
 _atom_site_label
 _atom_site_symmetry_multiplicity
 _atom_site_fract_x
 _atom_site_fract_y
 _atom_site_fract_z
 _atom_site_occupancy
  Ni  Ni0  1  0.00111913  0.00145308  0.99970339  1
  Fe  Fe1  1  0.16814097  0.16578469  0.16576433  1
  Ni  Ni2  1  0.00121976  0.99964119  0.33455360  1
  Ni  Ni3  1  0.00015574  0.33335759  0.99966486  1
  Ni  Ni4  1  0.16781468  0.50222969  0.16581476  1
  Cr  Cr5  1  0.00164656  0.33199792  0.33234098  1
  Ni  Ni6  1  0.00128681  0.66569976  0.99873815  1
  Ni  Ni7  1  0.16829838  0.83270747  0.16697861  1
  Ni  Ni8  1  0.00229343  0.66814950  0.33396465  1
  Ni  Ni9  1  0.33361822  0.99999797  0.99990387  1
  Ni  Ni10  1  0.50071210  0.16676022  0.16650420  1
  Ni  Ni11  1  0.33266333  0.99904429  0.33256246  1
  Ni  Ni12  1  0.33249597  0.33271745  0.00121366  1
  Ni  Ni13  1  0.49937533  0.49933158  0.16763880  1
  Ni  Ni14  1  0.33422472  0.33463821  0.33280765  1
  Ni  Ni15  1  0.33291164  0.66771407  0.00091481  1
  Ni  Ni16  1  0.49792598  0.83432268  0.16673092  1
  Ni  Ni17  1  0.33389320  0.66681918  0.33388853  1
  Ni  Ni18  1  0.66580216  0.00104229  0.99854883  1
  Ni  Ni19  1  0.83149116  0.16716406  0.16630796  1
  Ni  Ni20  1  0.66655121  0.99998205  0.33417804  1
  Ni  Ni21  1  0.66776979  0.33260724  0.00118631  1
  Ni  Ni22  1  0.83329114  0.49911698  0.16539945  1
  Ni  Ni23  1  0.66523415  0.33356659  0.33167752  1
  Ni  Ni24  1  0.66626951  0.66679060  0.00057432  1
  Cr  Cr25  1  0.83499151  0.83377242  0.16721433  1
  Ni  Ni26  1  0.66428468  0.66688943  0.33312316  1
  Ni  Ni27  1  0.16747720  0.16661016  0.49943482  1
  Cr  Cr28  1  0.00016881  0.00024222  0.66622670  1
  Ni  Ni29  1  0.16804862  0.16769319  0.83489478  1
  Ni  Ni30  1  0.16945218  0.50134650  0.50165503  1
  Ni  Ni31  1  0.00145048  0.33366704  0.66800424  1
  Ni  Ni32  1  0.16501591  0.50030156  0.83288608  1
  Ni  Ni33  1  0.16763242  0.83243948  0.49904076  1
  Ni  Ni34  1  0.00283274  0.66607175  0.66779582  1
  Ni  Ni35  1  0.16758628  0.83242937  0.83443659  1
  Cr  Cr36  1  0.50008305  0.16746817  0.50123815  1
  Ni  Ni37  1  0.33392105  0.99906631  0.66801491  1
  Ni  Ni38  1  0.49999847  0.16513859  0.83330013  1
  Ni  Ni39  1  0.49689745  0.50041084  0.49847465  1
  Ni  Ni40  1  0.33101555  0.33339432  0.66644259  1
  Cr  Cr41  1  0.49816548  0.49801774  0.83396774  1
  Ni  Ni42  1  0.49864530  0.83352356  0.49913487  1
  Ni  Ni43  1  0.33120762  0.66800031  0.66552084  1
  Ni  Ni44  1  0.49861372  0.83668683  0.83461598  1
  Ni  Ni45  1  0.83312730  0.16487527  0.50007874  1
  Ni  Ni46  1  0.66605510  0.00065901  0.66779737  1
  Ni  Ni47  1  0.83243688  0.16766846  0.83398611  1
  Cr  Cr48  1  0.83366443  0.49993299  0.50013802  1
  Ni  Ni49  1  0.66798242  0.33117574  0.66766382  1
  Ni  Ni50  1  0.83658805  0.49895171  0.83504247  1
  Ni  Ni51  1  0.83408995  0.83535004  0.49798955  1
  Cr  Cr52  1  0.66620986  0.66989232  0.66708999  1
  Ni  Ni53  1  0.83427767  0.83381358  0.83535633  1
" 