5178,Ni86Fe8Cr5_17,-238.257965786464, 183.377843311778,Ni86Fe8Cr5,"# generated using pymatgen
 data_Cr2Fe2Ni23
_symmetry_space_group_name_H-M   'P 1'
_cell_length_a   7.44974659
_cell_length_b   7.44974659
_cell_length_c   10.53553267
_cell_angle_alpha   90.00000000
_cell_angle_beta   90.00000000
_cell_angle_gamma   90.00000000
_symmetry_Int_Tables_number   1
_chemical_formula_structural   Cr2Fe2Ni23
_chemical_formula_sum   'Cr4 Fe4 Ni46'
_cell_volume   584.70862240
_cell_formula_units_Z   2
loop_
 _symmetry_equiv_pos_site_id
 _symmetry_equiv_pos_as_xyz
  1  'x, y, z'
loop_
 _atom_site_type_symbol
 _atom_site_label
 _atom_site_symmetry_multiplicity
 _atom_site_fract_x
 _atom_site_fract_y
 _atom_site_fract_z
 _atom_site_occupancy
  Ni  Ni0  1  0.00292459  0.00156010  0.99909520  1
  Ni  Ni1  1  0.16619180  0.16927967  0.16757945  1
  Ni  Ni2  1  0.00139374  0.00169843  0.33671758  1
  Ni  Ni3  1  0.00141580  0.33509699  1.00106963  1
  Ni  Ni4  1  0.16848203  0.50066685  0.16823584  1
  Ni  Ni5  1  0.00254729  0.33502917  0.33457885  1
  Ni  Ni6  1  0.00197122  0.66676653  1.00001020  1
  Ni  Ni7  1  0.16836605  0.83357520  0.16721912  1
  Ni  Ni8  1  0.00208805  0.66682805  0.33571022  1
  Ni  Ni9  1  0.33421017  0.00142225  0.00116323  1
  Ni  Ni10  1  0.50126676  0.16848040  0.16658852  1
  Cr  Cr11  1  0.33375706  0.00270983  0.33241915  1
  Ni  Ni12  1  0.33432802  0.33381665  0.00128453  1
  Ni  Ni13  1  0.49931770  0.50203882  0.16743249  1
  Ni  Ni14  1  0.33267409  0.33604756  0.33503210  1
  Ni  Ni15  1  0.33388801  0.66818741  1.00024525  1
  Ni  Ni16  1  0.50051708  0.83311516  0.16700008  1
  Ni  Ni17  1  0.33284245  0.66630206  0.33436891  1
  Ni  Ni18  1  0.66634890  0.00194926  1.00030202  1
  Ni  Ni19  1  0.83605414  0.16812677  0.16672204  1
  Ni  Ni20  1  0.66911507  0.00150449  0.33457586  1
  Ni  Ni21  1  0.66771678  0.33479835  1.00032830  1
  Ni  Ni22  1  0.83569817  0.49978678  0.16727351  1
  Cr  Cr23  1  0.66775559  0.33481904  0.33446848  1
  Ni  Ni24  1  0.66761566  0.66667654  0.99995782  1
  Cr  Cr25  1  0.83496377  0.83520386  0.16872317  1
  Ni  Ni26  1  0.66849513  0.66724797  0.33494467  1
  Fe  Fe27  1  0.16611408  0.16929004  0.50224929  1
  Fe  Fe28  1  0.99991962  0.00204730  0.66858976  1
  Ni  Ni29  1  0.16770176  0.16863227  0.83404203  1
  Ni  Ni30  1  0.16836061  0.50091985  0.50098435  1
  Ni  Ni31  1  0.00129768  0.33671731  0.66795365  1
  Ni  Ni32  1  0.16819516  0.50031264  0.83437690  1
  Ni  Ni33  1  0.16607635  0.83349983  0.50251077  1
  Ni  Ni34  1  1.00080027  0.66752404  0.66765877  1
  Ni  Ni35  1  0.16806352  0.83448870  0.83384740  1
  Fe  Fe36  1  0.50168824  0.16878137  0.50308114  1
  Ni  Ni37  1  0.33347092  0.00195702  0.66917697  1
  Ni  Ni38  1  0.50095348  0.16809984  0.83379938  1
  Ni  Ni39  1  0.49958720  0.50005878  0.50235111  1
  Ni  Ni40  1  0.33386470  0.33286252  0.66734595  1
  Ni  Ni41  1  0.50071627  0.50057449  0.83373988  1
  Cr  Cr42  1  0.50190240  0.83238007  0.50138304  1
  Fe  Fe43  1  0.33429944  0.66601348  0.66900087  1
  Ni  Ni44  1  0.50111235  0.83457476  0.83473489  1
  Ni  Ni45  1  0.83562008  0.16734652  0.50208516  1
  Ni  Ni46  1  0.66691875  0.00153480  0.66854015  1
  Ni  Ni47  1  0.83440666  0.16830789  0.83491969  1
  Ni  Ni48  1  0.83554461  0.50081973  0.50167047  1
  Ni  Ni49  1  0.66818216  0.33484920  0.66810853  1
  Ni  Ni50  1  0.83479223  0.50041254  0.83431916  1
  Ni  Ni51  1  0.83600477  0.83573837  0.50113678  1
  Ni  Ni52  1  0.67098056  0.66717073  0.66844973  1
  Ni  Ni53  1  0.83418481  0.83505553  0.83360176  1
" 