8359,Ni86Fe8Cr5_8,-238.28827800186, 181.28946736705,Ni86Fe8Cr5,"# generated using pymatgen
 data_Cr2Fe2Ni23
_symmetry_space_group_name_H-M   'P 1'
_cell_length_a   7.45010258
_cell_length_b   7.45010258
_cell_length_c   10.53603611
_cell_angle_alpha   90.00000000
_cell_angle_beta   90.00000000
_cell_angle_gamma   90.00000000
_symmetry_Int_Tables_number   1
_chemical_formula_structural   Cr2Fe2Ni23
_chemical_formula_sum   'Cr4 Fe4 Ni46'
_cell_volume   584.79244832
_cell_formula_units_Z   2
loop_
 _symmetry_equiv_pos_site_id
 _symmetry_equiv_pos_as_xyz
  1  'x, y, z'
loop_
 _atom_site_type_symbol
 _atom_site_label
 _atom_site_symmetry_multiplicity
 _atom_site_fract_x
 _atom_site_fract_y
 _atom_site_fract_z
 _atom_site_occupancy
  Fe  Fe0  1  0.99987134  0.00181657  0.00161152  1
  Ni  Ni1  1  0.16640492  0.16910746  0.16872043  1
  Ni  Ni2  1  1.00099601  1.00108678  0.33429379  1
  Ni  Ni3  1  0.00209867  0.33501808  0.99997684  1
  Ni  Ni4  1  0.16851656  0.49973319  0.16900620  1
  Ni  Ni5  1  0.00194129  0.33386467  0.33576224  1
  Ni  Ni6  1  1.00036497  0.66798525  1.00057003  1
  Ni  Ni7  1  0.16456819  0.83472557  0.17023640  1
  Ni  Ni8  1  0.00182102  0.66850096  0.33536929  1
  Cr  Cr9  1  0.33490028  0.00418966  1.00092563  1
  Ni  Ni10  1  0.50222059  0.17040843  0.16944481  1
  Ni  Ni11  1  0.33360942  0.00242216  0.33545810  1
  Ni  Ni12  1  0.33380949  0.33344300  0.00116390  1
  Ni  Ni13  1  0.50044725  0.49842468  0.16818873  1
  Ni  Ni14  1  0.33397156  0.33396712  0.33372981  1
  Cr  Cr15  1  0.33255531  0.66580320  0.99942752  1
  Cr  Cr16  1  0.50356347  0.83311334  0.17009251  1
  Ni  Ni17  1  0.33277173  0.66705816  0.33598609  1
  Ni  Ni18  1  0.66929559  0.00235900  1.00016468  1
  Ni  Ni19  1  0.83464978  0.16660672  0.16782734  1
  Ni  Ni20  1  0.66869553  0.00224719  0.33550391  1
  Ni  Ni21  1  0.66744554  0.33262518  0.99973697  1
  Cr  Cr22  1  0.83357919  0.50088806  0.16846946  1
  Ni  Ni23  1  0.66733076  0.33305096  0.33582456  1
  Ni  Ni24  1  0.67074620  0.66834074  0.99889384  1
  Ni  Ni25  1  0.83598804  0.83654545  0.16789060  1
  Ni  Ni26  1  0.66882374  0.66804163  0.33616733  1
  Ni  Ni27  1  0.16719865  0.16793257  0.50096409  1
  Fe  Fe28  1  0.99950223  0.00213151  0.66671268  1
  Ni  Ni29  1  0.16652672  0.16863012  0.83371992  1
  Ni  Ni30  1  0.16836175  0.50012060  0.50079212  1
  Ni  Ni31  1  0.00117265  0.33629226  0.66767821  1
  Ni  Ni32  1  0.16696587  0.49967877  0.83349318  1
  Ni  Ni33  1  0.16845939  0.83530285  0.50107503  1
  Ni  Ni34  1  1.00048227  0.66725642  0.66756116  1
  Ni  Ni35  1  0.16581995  0.83517369  0.83179657  1
  Fe  Fe36  1  0.50067527  0.16797832  0.50152375  1
  Ni  Ni37  1  0.33477998  0.00143057  0.66777855  1
  Ni  Ni38  1  0.50179732  0.16880132  0.83324109  1
  Ni  Ni39  1  0.50130416  0.50153190  0.50068378  1
  Ni  Ni40  1  0.33370640  0.33269070  0.66866440  1
  Ni  Ni41  1  0.50234829  0.49979692  0.83428646  1
  Ni  Ni42  1  0.50109952  0.83388685  0.50124055  1
  Fe  Fe43  1  0.33539881  0.66625288  0.66717092  1
  Ni  Ni44  1  0.50276957  0.83447848  0.83227303  1
  Ni  Ni45  1  0.83520459  0.16809074  0.50093047  1
  Ni  Ni46  1  0.66653224  1.00074670  0.66790424  1
  Ni  Ni47  1  0.83476008  0.16797770  0.83448045  1
  Ni  Ni48  1  0.83401852  0.50053436  0.50127131  1
  Ni  Ni49  1  0.66846606  0.33433205  0.66803861  1
  Ni  Ni50  1  0.83444436  0.50061545  0.83401663  1
  Ni  Ni51  1  0.83385371  0.83496753  0.50035043  1
  Ni  Ni52  1  0.67022556  0.66834450  0.66835626  1
  Ni  Ni53  1  0.83455031  0.83506170  0.83496427  1
" 