2443,Ni86Fe11Cr1_1,-240.545386404154, 192.225264624717,Ni86Fe11Cr1,"# generated using pymatgen
 data_CrFe3Ni23
_symmetry_space_group_name_H-M   'P 1'
_cell_length_a   7.44089078
_cell_length_b   7.44089078
_cell_length_c   10.52300866
_cell_angle_alpha   90.00000000
_cell_angle_beta   90.00000000
_cell_angle_gamma   90.00000000
_symmetry_Int_Tables_number   1
_chemical_formula_structural   CrFe3Ni23
_chemical_formula_sum   'Cr2 Fe6 Ni46'
_cell_volume   582.62590045
_cell_formula_units_Z   2
loop_
 _symmetry_equiv_pos_site_id
 _symmetry_equiv_pos_as_xyz
  1  'x, y, z'
loop_
 _atom_site_type_symbol
 _atom_site_label
 _atom_site_symmetry_multiplicity
 _atom_site_fract_x
 _atom_site_fract_y
 _atom_site_fract_z
 _atom_site_occupancy
  Fe  Fe0  1  0.00283022  1.00070804  0.00257413  1
  Ni  Ni1  1  0.16848719  0.16825573  0.16797825  1
  Ni  Ni2  1  0.00193535  0.00292860  0.33435971  1
  Ni  Ni3  1  0.00295409  0.33688167  0.00244081  1
  Ni  Ni4  1  0.16709118  0.50252156  0.16920971  1
  Ni  Ni5  1  0.00185517  0.33516430  0.33520369  1
  Ni  Ni6  1  0.00189666  0.66672753  0.00192042  1
  Ni  Ni7  1  0.16995556  0.83441719  0.16852802  1
  Ni  Ni8  1  1.00163513  0.66724222  0.33558261  1
  Ni  Ni9  1  0.33657942  0.00176512  1.00164057  1
  Ni  Ni10  1  0.50211057  0.16721225  0.16858261  1
  Ni  Ni11  1  0.33596589  1.00159178  0.33524014  1
  Ni  Ni12  1  0.33415770  0.33446066  0.00214376  1
  Fe  Fe13  1  0.50059170  0.50174021  0.16775043  1
  Fe  Fe14  1  0.33445752  0.33432828  0.33494568  1
  Ni  Ni15  1  0.33477071  0.66894236  0.00194086  1
  Ni  Ni16  1  0.50067305  0.83513328  0.16870652  1
  Ni  Ni17  1  0.33558066  0.66924270  0.33485737  1
  Ni  Ni18  1  0.66606731  1.00076331  0.00276151  1
  Ni  Ni19  1  0.83477988  0.17025042  0.16883140  1
  Ni  Ni20  1  0.66745632  1.00148600  0.33559411  1
  Ni  Ni21  1  0.66797695  0.33537206  0.00295728  1
  Ni  Ni22  1  0.83536984  0.50127996  0.16816440  1
  Fe  Fe23  1  0.66923185  0.33501604  0.33527493  1
  Ni  Ni24  1  0.66858795  0.66922122  0.00209917  1
  Fe  Fe25  1  0.83571489  0.83554694  0.16896899  1
  Ni  Ni26  1  0.66806389  0.66916041  0.33439327  1
  Ni  Ni27  1  0.16936432  0.16624121  0.50052221  1
  Ni  Ni28  1  0.00269932  0.99968589  0.66767758  1
  Ni  Ni29  1  0.17128722  0.16734286  0.83668010  1
  Fe  Fe30  1  0.16979806  0.50304658  0.50087755  1
  Cr  Cr31  1  0.00300610  0.33644048  0.66792960  1
  Ni  Ni32  1  0.16955193  0.50328592  0.83544710  1
  Ni  Ni33  1  0.16875154  0.83549838  0.50146610  1
  Ni  Ni34  1  1.00148497  0.66981513  0.66789757  1
  Ni  Ni35  1  0.16892394  0.83452990  0.83511870  1
  Ni  Ni36  1  0.50143655  0.16863851  0.50200885  1
  Ni  Ni37  1  0.33550004  0.00198745  0.66840366  1
  Ni  Ni38  1  0.50024494  0.16871334  0.83473038  1
  Ni  Ni39  1  0.50270111  0.50242444  0.50098279  1
  Ni  Ni40  1  0.33660129  0.33480479  0.66838473  1
  Ni  Ni41  1  0.50191149  0.50182568  0.83626059  1
  Ni  Ni42  1  0.50093183  0.83426840  0.50199548  1
  Ni  Ni43  1  0.33550792  0.66844578  0.66846234  1
  Ni  Ni44  1  0.50130583  0.83474216  0.83459361  1
  Ni  Ni45  1  0.83453275  0.16810010  0.50052206  1
  Ni  Ni46  1  0.66712628  1.00041253  0.66692250  1
  Cr  Cr47  1  0.83338249  0.16817871  0.83570136  1
  Ni  Ni48  1  0.83325942  0.50284528  0.50137663  1
  Ni  Ni49  1  0.66592531  0.33613228  0.66729982  1
  Ni  Ni50  1  0.83384180  0.50422289  0.83577467  1
  Ni  Ni51  1  0.83560121  0.83438441  0.50094607  1
  Ni  Ni52  1  0.66832038  0.66870302  0.66878056  1
  Ni  Ni53  1  0.83513791  0.83283667  0.83549967  1
" 