8477,Ni86Fe2Cr11_10,-235.093704535853, 167.160082560345,Ni86Fe2Cr11,"# generated using pymatgen
 data_Cr7FeNi46
_symmetry_space_group_name_H-M   'P 1'
_cell_length_a   7.46590741
_cell_length_b   7.46590741
_cell_length_c   10.55838751
_cell_angle_alpha   90.00000000
_cell_angle_beta   90.00000000
_cell_angle_gamma   90.00000000
_symmetry_Int_Tables_number   1
_chemical_formula_structural   Cr7FeNi46
_chemical_formula_sum   'Cr7 Fe1 Ni46'
_cell_volume   588.52212772
_cell_formula_units_Z   1
loop_
 _symmetry_equiv_pos_site_id
 _symmetry_equiv_pos_as_xyz
  1  'x, y, z'
loop_
 _atom_site_type_symbol
 _atom_site_label
 _atom_site_symmetry_multiplicity
 _atom_site_fract_x
 _atom_site_fract_y
 _atom_site_fract_z
 _atom_site_occupancy
  Ni  Ni0  1  0.99970138  0.99976019  0.00033163  1
  Ni  Ni1  1  0.16570368  0.16393414  0.16585810  1
  Ni  Ni2  1  0.99973294  0.00117745  0.33336446  1
  Ni  Ni3  1  0.99897384  0.33184209  0.99900068  1
  Cr  Cr4  1  0.16477449  0.49822906  0.16522011  1
  Ni  Ni5  1  0.99943824  0.33059550  0.33487608  1
  Ni  Ni6  1  0.99761947  0.66845083  0.99850878  1
  Ni  Ni7  1  0.16700014  0.83692104  0.16703001  1
  Cr  Cr8  1  0.99855292  0.66864398  0.33398801  1
  Ni  Ni9  1  0.33326409  0.00185177  0.99927615  1
  Ni  Ni10  1  0.50025758  0.16435378  0.16492078  1
  Ni  Ni11  1  0.33248042  0.99959272  0.33312522  1
  Ni  Ni12  1  0.33459780  0.33094659  0.99923158  1
  Ni  Ni13  1  0.50275224  0.50120141  0.16608926  1
  Cr  Cr14  1  0.33361621  0.33269667  0.33406575  1
  Cr  Cr15  1  0.33387687  0.66815644  0.99916717  1
  Ni  Ni16  1  0.50107406  0.83479055  0.16795914  1
  Ni  Ni17  1  0.33451047  0.66851226  0.33367515  1
  Ni  Ni18  1  0.66723210  0.00023379  0.00011682  1
  Ni  Ni19  1  0.83434904  0.16597708  0.16604318  1
  Ni  Ni20  1  0.66802384  0.99948695  0.33254116  1
  Ni  Ni21  1  0.66651977  0.33283631  0.99959882  1
  Ni  Ni22  1  0.83170602  0.49975821  0.16467432  1
  Cr  Cr23  1  0.66836821  0.33276116  0.33438677  1
  Ni  Ni24  1  0.66841515  0.66715299  0.00022867  1
  Ni  Ni25  1  0.83207176  0.83448991  0.16589318  1
  Ni  Ni26  1  0.66611257  0.66785115  0.33238524  1
  Ni  Ni27  1  0.16452018  0.16515547  0.49959050  1
  Ni  Ni28  1  0.99905806  0.99960190  0.66654285  1
  Ni  Ni29  1  0.16543753  0.16599369  0.83482965  1
  Ni  Ni30  1  0.16539515  0.50065646  0.50095113  1
  Ni  Ni31  1  0.99895405  0.33260276  0.66613124  1
  Ni  Ni32  1  0.16470802  0.49982647  0.83340040  1
  Ni  Ni33  1  0.16619344  0.83441121  0.50088838  1
  Ni  Ni34  1  0.00027768  0.66790337  0.66719538  1
  Ni  Ni35  1  0.16589724  0.83442553  0.83226149  1
  Ni  Ni36  1  0.50114899  0.16541231  0.50116545  1
  Fe  Fe37  1  0.33245248  0.99963626  0.66806712  1
  Ni  Ni38  1  0.50127839  0.16545718  0.83427098  1
  Ni  Ni39  1  0.50119694  0.50142485  0.50076746  1
  Cr  Cr40  1  0.33409015  0.33351523  0.66704292  1
  Ni  Ni41  1  0.50195875  0.50030566  0.83350160  1
  Cr  Cr42  1  0.50086167  0.83388411  0.50031424  1
  Ni  Ni43  1  0.33239258  0.66676900  0.66730531  1
  Ni  Ni44  1  0.50117304  0.83436642  0.83234805  1
  Ni  Ni45  1  0.83444479  0.16584072  0.50096650  1
  Ni  Ni46  1  0.66902510  0.00105487  0.66770515  1
  Ni  Ni47  1  0.83349191  0.16675816  0.83327378  1
  Ni  Ni48  1  0.83368277  0.49986043  0.50213909  1
  Ni  Ni49  1  0.66773780  0.33258330  0.66659881  1
  Ni  Ni50  1  0.83356382  0.49984224  0.83338589  1
  Ni  Ni51  1  0.83387340  0.83440639  0.50086946  1
  Ni  Ni52  1  0.66756582  0.66663039  0.66769204  1
  Ni  Ni53  1  0.83301843  0.83359505  0.83336240  1
" 