7289,Ni86Fe2Cr11_1,-235.039774231475, 166.912709277452,Ni86Fe2Cr11,"# generated using pymatgen
 data_Cr7FeNi46
_symmetry_space_group_name_H-M   'P 1'
_cell_length_a   7.46652897
_cell_length_b   7.46652897
_cell_length_c   10.55926654
_cell_angle_alpha   90.00000000
_cell_angle_beta   90.00000000
_cell_angle_gamma   90.00000000
_symmetry_Int_Tables_number   1
_chemical_formula_structural   Cr7FeNi46
_chemical_formula_sum   'Cr7 Fe1 Ni46'
_cell_volume   588.66913027
_cell_formula_units_Z   1
loop_
 _symmetry_equiv_pos_site_id
 _symmetry_equiv_pos_as_xyz
  1  'x, y, z'
loop_
 _atom_site_type_symbol
 _atom_site_label
 _atom_site_symmetry_multiplicity
 _atom_site_fract_x
 _atom_site_fract_y
 _atom_site_fract_z
 _atom_site_occupancy
  Ni  Ni0  1  0.99977794  0.00007031  0.99829858  1
  Cr  Cr1  1  0.16602642  0.16621915  0.16596300  1
  Ni  Ni2  1  0.99998226  0.99951587  0.33519271  1
  Ni  Ni3  1  0.99977084  0.33339824  0.00066678  1
  Ni  Ni4  1  0.16585277  0.50216554  0.16599017  1
  Ni  Ni5  1  0.99899135  0.33418786  0.33397040  1
  Ni  Ni6  1  0.00159254  0.66664187  0.00015725  1
  Ni  Ni7  1  0.16893418  0.83145811  0.16687997  1
  Ni  Ni8  1  0.00082263  0.66640266  0.33436387  1
  Ni  Ni9  1  0.33422313  0.99924889  0.99972677  1
  Ni  Ni10  1  0.50159895  0.16506565  0.16533375  1
  Ni  Ni11  1  0.33327149  0.99800049  0.33319757  1
  Ni  Ni12  1  0.33431333  0.33430912  0.99916732  1
  Ni  Ni13  1  0.50024791  0.50181678  0.16470924  1
  Cr  Cr14  1  0.33295783  0.33399668  0.33418729  1
  Ni  Ni15  1  0.33330702  0.66654574  0.00039955  1
  Ni  Ni16  1  0.49857486  0.83321400  0.16697306  1
  Ni  Ni17  1  0.33245706  0.66788578  0.33237372  1
  Ni  Ni18  1  0.66610637  0.00107103  0.99933425  1
  Ni  Ni19  1  0.83224039  0.16815257  0.16576458  1
  Ni  Ni20  1  0.66685416  0.99983196  0.33336778  1
  Ni  Ni21  1  0.66601344  0.33247731  0.00121520  1
  Ni  Ni22  1  0.83399679  0.49914079  0.16634818  1
  Cr  Cr23  1  0.66790738  0.33336878  0.33337037  1
  Ni  Ni24  1  0.66519518  0.66655005  0.00053586  1
  Cr  Cr25  1  0.83286597  0.83306331  0.16674682  1
  Ni  Ni26  1  0.66682491  0.66690194  0.33323525  1
  Ni  Ni27  1  0.16590810  0.16646797  0.50092858  1
  Ni  Ni28  1  0.99995278  0.00003855  0.66661726  1
  Ni  Ni29  1  0.16725771  0.16692186  0.83323905  1
  Ni  Ni30  1  0.16551213  0.50051971  0.50074019  1
  Ni  Ni31  1  0.00092891  0.33244370  0.66546690  1
  Ni  Ni32  1  0.16773454  0.50011657  0.83336956  1
  Ni  Ni33  1  0.16522407  0.83311236  0.49985717  1
  Ni  Ni34  1  0.00246714  0.66762367  0.66558757  1
  Ni  Ni35  1  0.16726851  0.83306633  0.83337125  1
  Ni  Ni36  1  0.50012720  0.16675615  0.50157066  1
  Ni  Ni37  1  0.33248551  0.00118515  0.66717866  1
  Ni  Ni38  1  0.49995075  0.16569529  0.83320023  1
  Ni  Ni39  1  0.49945911  0.49918339  0.50136962  1
  Ni  Ni40  1  0.33356165  0.33335240  0.66651945  1
  Fe  Fe41  1  0.49758587  0.49924635  0.83413213  1
  Cr  Cr42  1  0.49942628  0.83436050  0.49844346  1
  Ni  Ni43  1  0.33088203  0.66555811  0.66732755  1
  Ni  Ni44  1  0.49928517  0.83494398  0.83455335  1
  Ni  Ni45  1  0.83406801  0.16646950  0.50079635  1
  Ni  Ni46  1  0.66766593  0.00272555  0.66740380  1
  Ni  Ni47  1  0.83288977  0.16524558  0.83354096  1
  Ni  Ni48  1  0.83512297  0.49985538  0.49939357  1
  Ni  Ni49  1  0.66560409  0.33083089  0.66551782  1
  Cr  Cr50  1  0.83479502  0.49941383  0.83436754  1
  Ni  Ni51  1  0.83541608  0.83378268  0.49955419  1
  Cr  Cr52  1  0.66704068  0.66685426  0.66651344  1
  Ni  Ni53  1  0.83354834  0.83540528  0.83384588  1
" 