3768,Ni86Fe8Cr5_19,-238.350476361432, 182.150252584217,Ni86Fe8Cr5,"# generated using pymatgen
 data_Cr2Fe2Ni23
_symmetry_space_group_name_H-M   'P 1'
_cell_length_a   7.44928919
_cell_length_b   7.44928919
_cell_length_c   10.53488581
_cell_angle_alpha   90.00000000
_cell_angle_beta   90.00000000
_cell_angle_gamma   90.00000000
_symmetry_Int_Tables_number   1
_chemical_formula_structural   Cr2Fe2Ni23
_chemical_formula_sum   'Cr4 Fe4 Ni46'
_cell_volume   584.60092984
_cell_formula_units_Z   2
loop_
 _symmetry_equiv_pos_site_id
 _symmetry_equiv_pos_as_xyz
  1  'x, y, z'
loop_
 _atom_site_type_symbol
 _atom_site_label
 _atom_site_symmetry_multiplicity
 _atom_site_fract_x
 _atom_site_fract_y
 _atom_site_fract_z
 _atom_site_occupancy
  Ni  Ni0  1  1.00034944  0.00130633  1.00074671  1
  Ni  Ni1  1  0.16578725  0.16698094  0.16802870  1
  Ni  Ni2  1  0.00129205  1.00042204  0.33438534  1
  Ni  Ni3  1  1.00019343  0.33476284  0.00224537  1
  Fe  Fe4  1  0.16686203  0.50290768  0.16656175  1
  Fe  Fe5  1  0.99868407  0.33349256  0.33383713  1
  Ni  Ni6  1  1.00114786  0.66764598  1.00075601  1
  Ni  Ni7  1  0.16700430  0.83472137  0.16940813  1
  Ni  Ni8  1  0.99988765  0.66957603  0.33389240  1
  Cr  Cr9  1  0.33522180  0.99993954  0.00157017  1
  Ni  Ni10  1  0.50284770  0.16824827  0.16845118  1
  Ni  Ni11  1  0.33400625  0.99994974  0.33495177  1
  Fe  Fe12  1  0.33511129  0.33516468  1.00076345  1
  Ni  Ni13  1  0.50278962  0.50221158  0.16690368  1
  Cr  Cr14  1  0.33649529  0.33354095  0.33316159  1
  Ni  Ni15  1  0.33443281  0.66693965  0.00171619  1
  Ni  Ni16  1  0.50192279  0.83315447  0.16921521  1
  Ni  Ni17  1  0.33517869  0.67000042  0.33338435  1
  Ni  Ni18  1  0.66906937  0.00175465  0.00178010  1
  Ni  Ni19  1  0.83480110  0.16811256  0.16783336  1
  Ni  Ni20  1  0.66820453  0.00143115  0.33354432  1
  Ni  Ni21  1  0.66857256  0.33470913  1.00097195  1
  Ni  Ni22  1  0.83327282  0.50095858  0.16870484  1
  Ni  Ni23  1  0.66888425  0.33483510  0.33504360  1
  Ni  Ni24  1  0.66790518  0.66718145  0.00137935  1
  Ni  Ni25  1  0.83472281  0.83445731  0.16748488  1
  Ni  Ni26  1  0.66824833  0.66724177  0.33438714  1
  Ni  Ni27  1  0.16731543  0.16436418  0.50135250  1
  Ni  Ni28  1  1.00116305  0.99970433  0.66835382  1
  Ni  Ni29  1  0.16752851  0.16781981  0.83430904  1
  Cr  Cr30  1  0.16857077  0.50335320  0.50087635  1
  Cr  Cr31  1  0.99915770  0.33430409  0.66790846  1
  Ni  Ni32  1  0.16902529  0.50193195  0.83618238  1
  Ni  Ni33  1  0.16820826  0.83669232  0.50129157  1
  Ni  Ni34  1  1.00010495  0.67018839  0.66881879  1
  Ni  Ni35  1  0.16732508  0.83388477  0.83275746  1
  Fe  Fe36  1  0.50268399  0.16636938  0.50193129  1
  Ni  Ni37  1  0.33448998  1.00109452  0.66689832  1
  Ni  Ni38  1  0.50240944  0.16874642  0.83309835  1
  Ni  Ni39  1  0.50334781  0.50277419  0.50238170  1
  Ni  Ni40  1  0.33681123  0.33358858  0.66979485  1
  Ni  Ni41  1  0.50135767  0.50148856  0.83430438  1
  Ni  Ni42  1  0.50120339  0.83348447  0.50037122  1
  Ni  Ni43  1  0.33540634  0.66885051  0.66856950  1
  Ni  Ni44  1  0.50210091  0.83337570  0.83397826  1
  Ni  Ni45  1  0.83430481  0.16652775  0.49984376  1
  Ni  Ni46  1  0.66802375  0.00120507  0.66824315  1
  Ni  Ni47  1  0.83377817  0.16712987  0.83590116  1
  Ni  Ni48  1  0.83111157  0.50194880  0.50010801  1
  Ni  Ni49  1  0.66638729  0.33466940  0.66738500  1
  Ni  Ni50  1  0.83320941  0.50176545  0.83473137  1
  Ni  Ni51  1  0.83411754  0.83508383  0.50122501  1
  Ni  Ni52  1  0.66809837  0.66759851  0.66779645  1
  Ni  Ni53  1  0.83422950  0.83477467  0.83484466  1
" 