5433,Ni86Fe2Cr10_9,-235.039788266911, 165.264470974657,Ni86Fe2Cr10,"# generated using pymatgen
 data_Cr7FeNi46
_symmetry_space_group_name_H-M   'P 1'
_cell_length_a   7.46567349
_cell_length_b   7.46567349
_cell_length_c   10.55805671
_cell_angle_alpha   90.00000000
_cell_angle_beta   90.00000000
_cell_angle_gamma   90.00000000
_symmetry_Int_Tables_number   1
_chemical_formula_structural   Cr7FeNi46
_chemical_formula_sum   'Cr7 Fe1 Ni46'
_cell_volume   588.46681229
_cell_formula_units_Z   1
loop_
 _symmetry_equiv_pos_site_id
 _symmetry_equiv_pos_as_xyz
  1  'x, y, z'
loop_
 _atom_site_type_symbol
 _atom_site_label
 _atom_site_symmetry_multiplicity
 _atom_site_fract_x
 _atom_site_fract_y
 _atom_site_fract_z
 _atom_site_occupancy
  Ni  Ni0  1  0.99981124  0.99854677  0.00034593  1
  Ni  Ni1  1  0.16516537  0.16602908  0.16559043  1
  Ni  Ni2  1  0.99751778  0.99876475  0.33239495  1
  Cr  Cr3  1  0.99940280  0.33440862  0.00014310  1
  Ni  Ni4  1  0.16657198  0.50145482  0.16684460  1
  Ni  Ni5  1  0.99752463  0.33472789  0.33290120  1
  Ni  Ni6  1  0.99982528  0.66825694  0.99978160  1
  Ni  Ni7  1  0.16462095  0.83280434  0.16591138  1
  Ni  Ni8  1  0.99967546  0.66680696  0.33351613  1
  Ni  Ni9  1  0.33280488  0.00067953  0.99930220  1
  Ni  Ni10  1  0.50218138  0.16796628  0.16467576  1
  Cr  Cr11  1  0.33298399  0.99969220  0.33303298  1
  Ni  Ni12  1  0.33472306  0.33358003  0.00019981  1
  Ni  Ni13  1  0.50115884  0.49962136  0.16591262  1
  Cr  Cr14  1  0.33373560  0.33411697  0.33138008  1
  Ni  Ni15  1  0.33245271  0.66600440  0.99967041  1
  Cr  Cr16  1  0.50177801  0.83155210  0.16602129  1
  Ni  Ni17  1  0.33041236  0.66589333  0.33265944  1
  Ni  Ni18  1  0.66773797  0.00070712  0.99940041  1
  Ni  Ni19  1  0.83303872  0.16604904  0.16781561  1
  Ni  Ni20  1  0.67004263  0.00178490  0.33375065  1
  Ni  Ni21  1  0.66551097  0.33360577  0.00036254  1
  Ni  Ni22  1  0.83241379  0.50066750  0.16742349  1
  Ni  Ni23  1  0.66913830  0.33254431  0.33255601  1
  Ni  Ni24  1  0.66799858  0.66600067  0.99917332  1
  Ni  Ni25  1  0.83478565  0.83364155  0.16643378  1
  Ni  Ni26  1  0.67011407  0.66593533  0.33257115  1
  Cr  Cr27  1  0.16354510  0.16738587  0.50217681  1
  Ni  Ni28  1  0.99894677  0.99879305  0.66749778  1
  Ni  Ni29  1  0.16642582  0.16605575  0.83291479  1
  Ni  Ni30  1  0.16436843  0.50198671  0.50111273  1
  Ni  Ni31  1  0.99887421  0.33459245  0.66723362  1
  Ni  Ni32  1  0.16788265  0.50022798  0.83224982  1
  Ni  Ni33  1  0.16426186  0.83153129  0.50095573  1
  Ni  Ni34  1  0.99973739  0.66691695  0.66695231  1
  Ni  Ni35  1  0.16705190  0.83401811  0.83344491  1
  Ni  Ni36  1  0.50343152  0.16698495  0.50239702  1
  Ni  Ni37  1  0.33364164  0.99979388  0.66827534  1
  Fe  Fe38  1  0.50044165  0.16673311  0.83354744  1
  Cr  Cr39  1  0.50108846  0.50012817  0.50032781  1
  Ni  Ni40  1  0.33367702  0.33356500  0.66858281  1
  Ni  Ni41  1  0.50018249  0.50093452  0.83385354  1
  Cr  Cr42  1  0.50118684  0.83314149  0.50061716  1
  Ni  Ni43  1  0.33166483  0.66694443  0.66787633  1
  Ni  Ni44  1  0.50017645  0.83252903  0.83327036  1
  Ni  Ni45  1  0.83246320  0.16689755  0.49986630  1
  Ni  Ni46  1  0.66777984  0.00058915  0.66710272  1
  Ni  Ni47  1  0.83377762  0.16602109  0.83250510  1
  Ni  Ni48  1  0.83473350  0.49969391  0.50037748  1
  Ni  Ni49  1  0.66779977  0.33276548  0.66739420  1
  Ni  Ni50  1  0.83214377  0.50026332  0.83246239  1
  Ni  Ni51  1  0.83477636  0.83367066  0.50014889  1
  Ni  Ni52  1  0.66877650  0.66693549  0.66835565  1
  Ni  Ni53  1  0.83300698  0.83402764  0.83369965  1
" 