3363,Ni86Fe2Cr11_8,-235.022542041477, 165.576163997289,Ni86Fe2Cr11,"# generated using pymatgen
 data_Cr7FeNi46
_symmetry_space_group_name_H-M   'P 1'
_cell_length_a   7.46445822
_cell_length_b   7.46445822
_cell_length_c   10.55633805
_cell_angle_alpha   90.00000000
_cell_angle_beta   90.00000000
_cell_angle_gamma   90.00000000
_symmetry_Int_Tables_number   1
_chemical_formula_structural   Cr7FeNi46
_chemical_formula_sum   'Cr7 Fe1 Ni46'
_cell_volume   588.17948520
_cell_formula_units_Z   1
loop_
 _symmetry_equiv_pos_site_id
 _symmetry_equiv_pos_as_xyz
  1  'x, y, z'
loop_
 _atom_site_type_symbol
 _atom_site_label
 _atom_site_symmetry_multiplicity
 _atom_site_fract_x
 _atom_site_fract_y
 _atom_site_fract_z
 _atom_site_occupancy
  Ni  Ni0  1  0.00176775  0.00050672  1.00001412  1
  Ni  Ni1  1  0.16580885  0.16733563  0.16558866  1
  Ni  Ni2  1  0.99760701  0.99926811  0.33274414  1
  Ni  Ni3  1  0.00108980  0.33287476  0.00101020  1
  Ni  Ni4  1  0.16664380  0.50063896  0.16684682  1
  Ni  Ni5  1  0.99935193  0.33469198  0.33284678  1
  Ni  Ni6  1  0.00132835  0.66716203  0.00136091  1
  Ni  Ni7  1  0.16593800  0.83255584  0.16625823  1
  Ni  Ni8  1  0.00136463  0.66651347  0.33358091  1
  Ni  Ni9  1  0.33206076  0.00026488  0.00023530  1
  Ni  Ni10  1  0.50028415  0.16838531  0.16678373  1
  Cr  Cr11  1  0.33348561  0.99790849  0.33121649  1
  Ni  Ni12  1  0.33317622  0.33364873  0.99969596  1
  Ni  Ni13  1  0.49946416  0.49959434  0.16564338  1
  Ni  Ni14  1  0.33319546  0.33709055  0.33183066  1
  Ni  Ni15  1  0.33335001  0.66664615  0.00025212  1
  Ni  Ni16  1  0.49923191  0.83253267  0.16617082  1
  Ni  Ni17  1  0.33200138  0.66479066  0.33397543  1
  Cr  Cr18  1  0.66688712  0.00045701  0.00033300  1
  Ni  Ni19  1  0.83441667  0.16763011  0.16818240  1
  Ni  Ni20  1  0.66963258  0.00050235  0.33312983  1
  Ni  Ni21  1  0.66625693  0.33420870  0.00124502  1
  Ni  Ni22  1  0.83443737  0.49947222  0.16584667  1
  Ni  Ni23  1  0.66798131  0.33324332  0.33259485  1
  Ni  Ni24  1  0.66584385  0.66594802  0.00103316  1
  Ni  Ni25  1  0.83542019  0.83338891  0.16600628  1
  Cr  Cr26  1  0.66741737  0.66652662  0.33296854  1
  Cr  Cr27  1  0.16379108  0.16821008  0.49997482  1
  Ni  Ni28  1  0.99775097  0.99945570  0.66781228  1
  Ni  Ni29  1  0.16547576  0.16716797  0.83457833  1
  Ni  Ni30  1  0.16651779  0.50216032  0.50048213  1
  Ni  Ni31  1  1.00013372  0.33384020  0.66668108  1
  Ni  Ni32  1  0.16773243  0.50101576  0.83319695  1
  Ni  Ni33  1  0.16491621  0.83020322  0.49990513  1
  Ni  Ni34  1  0.00099603  0.66720025  0.66580247  1
  Ni  Ni35  1  0.16658012  0.83247789  0.83434430  1
  Cr  Cr36  1  0.50321293  0.16826384  0.49986373  1
  Cr  Cr37  1  0.33292315  0.99888171  0.66894174  1
  Ni  Ni38  1  0.50070520  0.16806346  0.83355025  1
  Ni  Ni39  1  0.49971558  0.50117772  0.50142025  1
  Ni  Ni40  1  0.33318775  0.33707196  0.66885692  1
  Ni  Ni41  1  0.49930760  0.50087409  0.83339349  1
  Ni  Ni42  1  0.50109013  0.83098923  0.50090958  1
  Ni  Ni43  1  0.33337298  0.66521954  0.66628074  1
  Ni  Ni44  1  0.49939351  0.83170464  0.83336239  1
  Ni  Ni45  1  0.83350529  0.16682812  0.50013766  1
  Ni  Ni46  1  0.66920243  0.99930640  0.66719266  1
  Ni  Ni47  1  0.83435030  0.16686545  0.83215674  1
  Ni  Ni48  1  0.83429161  0.49952889  0.50071790  1
  Ni  Ni49  1  0.66720276  0.33384937  0.66668796  1
  Cr  Cr50  1  0.83346574  0.50026552  0.83448790  1
  Ni  Ni51  1  0.83448918  0.83409667  0.50172086  1
  Ni  Ni52  1  0.66620018  0.66731871  0.66636637  1
  Fe  Fe53  1  0.83441258  0.83354293  0.83314710  1
" 