244,Ni86Fe8Cr5_10,-238.201327826456, 182.128027632327,Ni86Fe8Cr5,"# generated using pymatgen
 data_Cr2Fe2Ni23
_symmetry_space_group_name_H-M   'P 1'
_cell_length_a   7.44870364
_cell_length_b   7.44870364
_cell_length_c   10.53405771
_cell_angle_alpha   90.00000000
_cell_angle_beta   90.00000000
_cell_angle_gamma   90.00000000
_symmetry_Int_Tables_number   1
_chemical_formula_structural   Cr2Fe2Ni23
_chemical_formula_sum   'Cr4 Fe4 Ni46'
_cell_volume   584.46308168
_cell_formula_units_Z   2
loop_
 _symmetry_equiv_pos_site_id
 _symmetry_equiv_pos_as_xyz
  1  'x, y, z'
loop_
 _atom_site_type_symbol
 _atom_site_label
 _atom_site_symmetry_multiplicity
 _atom_site_fract_x
 _atom_site_fract_y
 _atom_site_fract_z
 _atom_site_occupancy
  Ni  Ni0  1  0.00156452  0.00132821  1.00048424  1
  Ni  Ni1  1  0.16816901  0.16956798  0.16610785  1
  Cr  Cr2  1  0.99957667  1.00046089  0.33467191  1
  Ni  Ni3  1  1.00071075  0.33410021  0.00267850  1
  Ni  Ni4  1  0.16801819  0.50127954  0.16800644  1
  Fe  Fe5  1  1.00083272  0.33630211  0.33442011  1
  Ni  Ni6  1  0.00260897  0.66831662  0.00226470  1
  Ni  Ni7  1  0.16807757  0.83295816  0.16681000  1
  Ni  Ni8  1  1.00115157  0.66640197  0.33413689  1
  Ni  Ni9  1  0.33443066  1.00032258  0.00150416  1
  Ni  Ni10  1  0.50176826  0.16829729  0.16753183  1
  Cr  Cr11  1  0.33593212  1.00107810  0.33509728  1
  Fe  Fe12  1  0.33480734  0.33489735  0.00124978  1
  Ni  Ni13  1  0.50098429  0.50177524  0.16808327  1
  Ni  Ni14  1  0.33586362  0.33648887  0.33433714  1
  Ni  Ni15  1  0.33427495  0.66833257  0.00136988  1
  Ni  Ni16  1  0.50230982  0.83366409  0.16756596  1
  Ni  Ni17  1  0.33422933  0.66545565  0.33472658  1
  Ni  Ni18  1  0.66769693  0.00220211  0.00162232  1
  Ni  Ni19  1  0.83378442  0.16833624  0.16727221  1
  Ni  Ni20  1  0.66834173  0.00212277  0.33434124  1
  Ni  Ni21  1  0.66762834  0.33403480  0.00200205  1
  Ni  Ni22  1  0.83465821  0.50172842  0.16860166  1
  Ni  Ni23  1  0.66740138  0.33498040  0.33477342  1
  Ni  Ni24  1  0.66675944  0.66748549  0.00168973  1
  Ni  Ni25  1  0.83329582  0.83372211  0.16658131  1
  Ni  Ni26  1  0.66826535  0.66662795  0.33477419  1
  Ni  Ni27  1  0.16716612  0.17202871  0.50236073  1
  Ni  Ni28  1  0.99925885  1.00097621  0.66847506  1
  Ni  Ni29  1  0.16689442  0.16896077  0.83525455  1
  Ni  Ni30  1  0.16810655  0.50028565  0.50116212  1
  Ni  Ni31  1  0.00126257  0.33432491  0.66627267  1
  Ni  Ni32  1  0.16926833  0.50097726  0.83461183  1
  Fe  Fe33  1  0.16689342  0.83171723  0.50189103  1
  Ni  Ni34  1  0.00298369  0.66841231  0.66722581  1
  Ni  Ni35  1  0.16715171  0.83371097  0.83477842  1
  Ni  Ni36  1  0.50240201  0.16929068  0.50099026  1
  Cr  Cr37  1  0.33491918  1.00089037  0.66714112  1
  Ni  Ni38  1  0.50181304  0.16823633  0.83529448  1
  Ni  Ni39  1  0.50042914  0.50162530  0.50161957  1
  Ni  Ni40  1  0.33532541  0.33667015  0.66868048  1
  Ni  Ni41  1  0.49912952  0.50156475  0.83414754  1
  Ni  Ni42  1  0.50420562  0.83272533  0.50075021  1
  Ni  Ni43  1  0.33376670  0.66588829  0.66752148  1
  Ni  Ni44  1  0.50211076  0.83396671  0.83541821  1
  Ni  Ni45  1  0.83406523  0.16805472  0.50222194  1
  Ni  Ni46  1  0.66941944  0.00264204  0.66771649  1
  Ni  Ni47  1  0.83494977  0.16612216  0.83408612  1
  Ni  Ni48  1  0.83517201  0.50181534  0.50078308  1
  Ni  Ni49  1  0.66699325  0.33330343  0.66685214  1
  Cr  Cr50  1  0.83523784  0.50143887  0.83407364  1
  Ni  Ni51  1  0.83274475  0.83387112  0.50238121  1
  Fe  Fe52  1  0.66725729  0.66826348  0.66727835  1
  Ni  Ni53  1  0.83442447  0.83646226  0.83479992  1
" 