8163,Ni86Fe2Cr10_2,-235.067014471473, 167.242976601733,Ni86Fe2Cr10,"# generated using pymatgen
 data_Cr7FeNi46
_symmetry_space_group_name_H-M   'P 1'
_cell_length_a   7.46781732
_cell_length_b   7.46781732
_cell_length_c   10.56108853
_cell_angle_alpha   90.00000000
_cell_angle_beta   90.00000000
_cell_angle_gamma   90.00000000
_symmetry_Int_Tables_number   1
_chemical_formula_structural   Cr7FeNi46
_chemical_formula_sum   'Cr7 Fe1 Ni46'
_cell_volume   588.97390627
_cell_formula_units_Z   1
loop_
 _symmetry_equiv_pos_site_id
 _symmetry_equiv_pos_as_xyz
  1  'x, y, z'
loop_
 _atom_site_type_symbol
 _atom_site_label
 _atom_site_symmetry_multiplicity
 _atom_site_fract_x
 _atom_site_fract_y
 _atom_site_fract_z
 _atom_site_occupancy
  Ni  Ni0  1  0.99762732  0.00071453  0.99919058  1
  Ni  Ni1  1  0.16539536  0.16784914  0.16579157  1
  Ni  Ni2  1  0.99917452  0.99907363  0.33390094  1
  Ni  Ni3  1  0.00007913  0.33349687  0.99974156  1
  Ni  Ni4  1  0.16758764  0.49996381  0.16466821  1
  Cr  Cr5  1  0.99873494  0.33338689  0.33364464  1
  Ni  Ni6  1  0.99912512  0.66564227  0.99894900  1
  Cr  Cr7  1  0.16544587  0.83247057  0.16777891  1
  Ni  Ni8  1  0.99913134  0.66761560  0.33411522  1
  Cr  Cr9  1  0.33343886  0.00119863  0.00002745  1
  Ni  Ni10  1  0.50206880  0.16734574  0.16640843  1
  Ni  Ni11  1  0.33424744  0.99906992  0.33415718  1
  Ni  Ni12  1  0.33250290  0.33401777  0.00052010  1
  Ni  Ni13  1  0.50008026  0.50057413  0.16581568  1
  Cr  Cr14  1  0.33439747  0.33294092  0.33331498  1
  Ni  Ni15  1  0.33248582  0.66411576  0.00088468  1
  Ni  Ni16  1  0.50254617  0.83190982  0.16750032  1
  Ni  Ni17  1  0.33417106  0.66764641  0.33388420  1
  Ni  Ni18  1  0.66875344  0.00070525  0.00052419  1
  Ni  Ni19  1  0.83237491  0.16534615  0.16581602  1
  Ni  Ni20  1  0.66642304  0.99968156  0.33311450  1
  Ni  Ni21  1  0.66727075  0.33256183  0.00096821  1
  Fe  Fe22  1  0.83225289  0.50041260  0.16589876  1
  Ni  Ni23  1  0.66648037  0.33318713  0.33320205  1
  Ni  Ni24  1  0.66825649  0.66656962  0.00145170  1
  Ni  Ni25  1  0.83170823  0.83407123  0.16636014  1
  Ni  Ni26  1  0.66654071  0.66698863  0.33333392  1
  Ni  Ni27  1  0.16639491  0.16523872  0.50132556  1
  Ni  Ni28  1  0.00025639  0.99980733  0.66676169  1
  Ni  Ni29  1  0.16535070  0.16760809  0.83275195  1
  Ni  Ni30  1  0.16681890  0.50152591  0.50171783  1
  Ni  Ni31  1  0.00166966  0.33348831  0.66676549  1
  Ni  Ni32  1  0.16513509  0.49980008  0.83345694  1
  Ni  Ni33  1  0.16656272  0.83307708  0.49970309  1
  Ni  Ni34  1  0.00004537  0.66655468  0.66680031  1
  Ni  Ni35  1  0.16394876  0.83241659  0.83260225  1
  Ni  Ni36  1  0.50016019  0.16541607  0.49991875  1
  Ni  Ni37  1  0.33253945  0.00076521  0.66567638  1
  Ni  Ni38  1  0.50016073  0.16684008  0.83352716  1
  Ni  Ni39  1  0.49988032  0.50150799  0.49979527  1
  Ni  Ni40  1  0.33095393  0.33229721  0.66618163  1
  Cr  Cr41  1  0.49898783  0.49934029  0.83381323  1
  Ni  Ni42  1  0.49999806  0.83292468  0.49959942  1
  Ni  Ni43  1  0.33155385  0.66677794  0.66503700  1
  Cr  Cr44  1  0.50091609  0.83344099  0.83266380  1
  Ni  Ni45  1  0.83327986  0.16515658  0.49979601  1
  Ni  Ni46  1  0.66704356  0.99917355  0.66620026  1
  Ni  Ni47  1  0.83432770  0.16566716  0.83423278  1
  Ni  Ni48  1  0.83313126  0.50136823  0.49948834  1
  Cr  Cr49  1  0.66756674  0.33275012  0.66541065  1
  Ni  Ni50  1  0.83572641  0.50056727  0.83450143  1
  Ni  Ni51  1  0.83327962  0.83334130  0.50001157  1
  Ni  Ni52  1  0.66824683  0.66818600  0.66505025  1
  Ni  Ni53  1  0.83498132  0.83362324  0.83346493  1
" 