6169,Ni86Fe2Cr11_13,-234.970188863292, 165.852548509844,Ni86Fe2Cr11,"# generated using pymatgen
 data_Cr7FeNi46
_symmetry_space_group_name_H-M   'P 1'
_cell_length_a   7.46625827
_cell_length_b   7.46625827
_cell_length_c   10.55888371
_cell_angle_alpha   90.00000000
_cell_angle_beta   90.00000000
_cell_angle_gamma   90.00000000
_symmetry_Int_Tables_number   1
_chemical_formula_structural   Cr7FeNi46
_chemical_formula_sum   'Cr7 Fe1 Ni46'
_cell_volume   588.60510505
_cell_formula_units_Z   1
loop_
 _symmetry_equiv_pos_site_id
 _symmetry_equiv_pos_as_xyz
  1  'x, y, z'
loop_
 _atom_site_type_symbol
 _atom_site_label
 _atom_site_symmetry_multiplicity
 _atom_site_fract_x
 _atom_site_fract_y
 _atom_site_fract_z
 _atom_site_occupancy
  Ni  Ni0  1  0.99906905  0.99902516  0.00096993  1
  Ni  Ni1  1  0.16636180  0.16818401  0.16661956  1
  Cr  Cr2  1  0.00110684  0.99879409  0.33222509  1
  Ni  Ni3  1  0.00012586  0.33324879  0.00032798  1
  Ni  Ni4  1  0.16763292  0.50012147  0.16665669  1
  Ni  Ni5  1  0.00207915  0.33488297  0.33320530  1
  Ni  Ni6  1  0.00093707  0.66787365  0.99921592  1
  Ni  Ni7  1  0.16666759  0.83193379  0.16574923  1
  Ni  Ni8  1  0.00116336  0.66639284  0.33428016  1
  Ni  Ni9  1  0.33093767  0.00036748  0.00018851  1
  Cr  Cr10  1  0.50014974  0.16742039  0.16630023  1
  Ni  Ni11  1  0.33294718  1.00003255  0.33518398  1
  Ni  Ni12  1  0.33372419  0.33559745  1.00005081  1
  Ni  Ni13  1  0.49854427  0.50019434  0.16716067  1
  Ni  Ni14  1  0.33279917  0.33456066  0.33410559  1
  Ni  Ni15  1  0.33156522  0.66411384  0.00013106  1
  Cr  Cr16  1  0.50014528  0.83133549  0.16645061  1
  Ni  Ni17  1  0.33242009  0.66555072  0.33389996  1
  Ni  Ni18  1  0.67010171  0.00108577  0.99922107  1
  Ni  Ni19  1  0.83404818  0.16688074  0.16582424  1
  Ni  Ni20  1  0.66640395  0.99928049  0.33410078  1
  Ni  Ni21  1  0.66631998  0.33377128  0.99810371  1
  Cr  Cr22  1  0.83372588  0.50010744  0.16761115  1
  Ni  Ni23  1  0.66525150  0.33438773  0.33427052  1
  Ni  Ni24  1  0.66758063  0.66525603  0.99921727  1
  Ni  Ni25  1  0.83370270  0.83319266  0.16619027  1
  Ni  Ni26  1  0.66644512  0.66651025  0.33525349  1
  Ni  Ni27  1  0.16966682  0.16844240  0.50062482  1
  Ni  Ni28  1  0.99989866  0.99792700  0.66674300  1
  Cr  Cr29  1  0.16696521  0.16686143  0.83221375  1
  Ni  Ni30  1  0.16550556  0.50009379  0.49998353  1
  Ni  Ni31  1  0.00014077  0.33536384  0.66663407  1
  Ni  Ni32  1  0.16620113  0.50140001  0.83350714  1
  Ni  Ni33  1  0.16837939  0.83163954  0.50127257  1
  Ni  Ni34  1  0.00010657  0.66683715  0.66675589  1
  Ni  Ni35  1  0.16543024  0.83142312  0.83319597  1
  Ni  Ni36  1  0.49862580  0.16582044  0.50041285  1
  Ni  Ni37  1  0.33337238  1.00001381  0.66460164  1
  Ni  Ni38  1  0.50131398  0.16793439  0.83311560  1
  Fe  Fe39  1  0.49971456  0.50043990  0.50023086  1
  Ni  Ni40  1  0.33464870  0.33464046  0.66588439  1
  Ni  Ni41  1  0.49996181  0.49911311  0.83328612  1
  Ni  Ni42  1  0.49984878  0.83391677  0.49973056  1
  Ni  Ni43  1  0.33254846  0.66550399  0.66621975  1
  Cr  Cr44  1  0.49876994  0.83390718  0.83396414  1
  Cr  Cr45  1  0.83315131  0.16932887  0.50085637  1
  Ni  Ni46  1  0.66687047  0.00005722  0.66678078  1
  Ni  Ni47  1  0.83214859  0.16730572  0.83357931  1
  Ni  Ni48  1  0.83444578  0.50169870  0.50013218  1
  Ni  Ni49  1  0.66551900  0.33435571  0.66792682  1
  Ni  Ni50  1  0.83399028  0.50005544  0.83286678  1
  Ni  Ni51  1  0.83195431  0.83023264  0.50076992  1
  Ni  Ni52  1  0.66735790  0.66568650  0.66586209  1
  Ni  Ni53  1  0.83436195  0.83275323  0.83318974  1
" 