3402,Ni86Fe8Cr5_13,-238.385177980833, 183.809869910083,Ni86Fe8Cr5,"# generated using pymatgen
 data_Cr2Fe2Ni23
_symmetry_space_group_name_H-M   'P 1'
_cell_length_a   7.44758780
_cell_length_b   7.44758780
_cell_length_c   10.53247968
_cell_angle_alpha   90.00000000
_cell_angle_beta   90.00000000
_cell_angle_gamma   90.00000000
_symmetry_Int_Tables_number   1
_chemical_formula_structural   Cr2Fe2Ni23
_chemical_formula_sum   'Cr4 Fe4 Ni46'
_cell_volume   584.20045896
_cell_formula_units_Z   2
loop_
 _symmetry_equiv_pos_site_id
 _symmetry_equiv_pos_as_xyz
  1  'x, y, z'
loop_
 _atom_site_type_symbol
 _atom_site_label
 _atom_site_symmetry_multiplicity
 _atom_site_fract_x
 _atom_site_fract_y
 _atom_site_fract_z
 _atom_site_occupancy
  Ni  Ni0  1  0.00192157  0.00232765  1.00048391  1
  Ni  Ni1  1  0.16871302  0.16813681  0.16686029  1
  Ni  Ni2  1  0.00345428  1.00107196  0.33483999  1
  Ni  Ni3  1  1.00062965  0.33426781  1.00123258  1
  Ni  Ni4  1  0.16899114  0.50141760  0.16718218  1
  Cr  Cr5  1  1.00015874  0.33431571  0.33528310  1
  Ni  Ni6  1  0.00199677  0.66732144  1.00069234  1
  Fe  Fe7  1  0.16978344  0.83469835  0.16815823  1
  Ni  Ni8  1  0.00254763  0.66871184  0.33497623  1
  Ni  Ni9  1  0.33463374  1.00095484  1.00097037  1
  Ni  Ni10  1  0.50087101  0.16818775  0.16795378  1
  Ni  Ni11  1  0.33417157  1.00049615  0.33525701  1
  Ni  Ni12  1  0.33483856  0.33455498  0.00151902  1
  Ni  Ni13  1  0.50067387  0.50143913  0.16829582  1
  Ni  Ni14  1  0.33723401  0.33434513  0.33497585  1
  Ni  Ni15  1  0.33484364  0.66841104  0.00178458  1
  Ni  Ni16  1  0.50051705  0.83429233  0.16789721  1
  Ni  Ni17  1  0.33528054  0.66908128  0.33476639  1
  Ni  Ni18  1  0.66736598  0.00232161  1.00072366  1
  Ni  Ni19  1  0.83433311  0.16829308  0.16728453  1
  Fe  Fe20  1  0.66574111  0.00282555  0.33470359  1
  Ni  Ni21  1  0.66845158  0.33447756  0.00190506  1
  Ni  Ni22  1  0.83425626  0.50106144  0.16683021  1
  Ni  Ni23  1  0.66667153  0.33524542  0.33465350  1
  Ni  Ni24  1  0.66708245  0.66711787  0.99996671  1
  Cr  Cr25  1  0.83430225  0.83468377  0.16828702  1
  Ni  Ni26  1  0.66609751  0.66563994  0.33521814  1
  Ni  Ni27  1  0.16961311  0.16837461  0.50156857  1
  Cr  Cr28  1  0.00241881  0.00215179  0.66866196  1
  Ni  Ni29  1  0.16828294  0.16928573  0.83549090  1
  Ni  Ni30  1  0.16872824  0.50204597  0.50236365  1
  Ni  Ni31  1  1.00041719  0.33667210  0.66749898  1
  Ni  Ni32  1  0.16829436  0.50134443  0.83437368  1
  Ni  Ni33  1  0.16998926  0.83349850  0.49963138  1
  Ni  Ni34  1  0.00276481  0.66526661  0.66825182  1
  Ni  Ni35  1  0.16785803  0.83328887  0.83605650  1
  Ni  Ni36  1  0.50108252  0.16816379  0.50131375  1
  Ni  Ni37  1  0.33692746  1.00060333  0.66769198  1
  Ni  Ni38  1  0.50162624  0.16783840  0.83465016  1
  Ni  Ni39  1  0.50080214  0.50108875  0.50063709  1
  Ni  Ni40  1  0.33524398  0.33499029  0.66742410  1
  Ni  Ni41  1  0.50036281  0.50154629  0.83498489  1
  Ni  Ni42  1  0.49973846  0.83466671  0.50157970  1
  Ni  Ni43  1  0.33426882  0.66832583  0.66736866  1
  Ni  Ni44  1  0.50225187  0.83453437  0.83444060  1
  Ni  Ni45  1  0.83321960  0.16942987  0.50082280  1
  Ni  Ni46  1  0.66520500  0.00295707  0.66828851  1
  Ni  Ni47  1  0.83401084  0.16739044  0.83581222  1
  Ni  Ni48  1  0.83438549  0.50070853  0.50237425  1
  Ni  Ni49  1  0.66825644  0.33401764  0.66736213  1
  Fe  Fe50  1  0.83499291  0.50114055  0.83486340  1
  Cr  Cr51  1  0.83407800  0.83396512  0.50012612  1
  Fe  Fe52  1  0.66635716  0.66700981  0.66860773  1
  Ni  Ni53  1  0.83380980  0.83454485  0.83560148  1
" 