7053,Ni86Fe11Cr1_7,-240.373186272369, 192.209504829366,Ni86Fe11Cr1,"# generated using pymatgen
 data_CrFe3Ni23
_symmetry_space_group_name_H-M   'P 1'
_cell_length_a   7.44034913
_cell_length_b   7.44034913
_cell_length_c   10.52224265
_cell_angle_alpha   90.00000000
_cell_angle_beta   90.00000000
_cell_angle_gamma   90.00000000
_symmetry_Int_Tables_number   1
_chemical_formula_structural   CrFe3Ni23
_chemical_formula_sum   'Cr2 Fe6 Ni46'
_cell_volume   582.49867524
_cell_formula_units_Z   2
loop_
 _symmetry_equiv_pos_site_id
 _symmetry_equiv_pos_as_xyz
  1  'x, y, z'
loop_
 _atom_site_type_symbol
 _atom_site_label
 _atom_site_symmetry_multiplicity
 _atom_site_fract_x
 _atom_site_fract_y
 _atom_site_fract_z
 _atom_site_occupancy
  Ni  Ni0  1  1.00127337  0.00184799  0.00251892  1
  Fe  Fe1  1  0.16865496  0.16877539  0.16834008  1
  Fe  Fe2  1  1.00056262  0.00446709  0.33459802  1
  Ni  Ni3  1  0.00214133  0.33530612  1.00121241  1
  Ni  Ni4  1  0.16937699  0.50189736  0.16832343  1
  Ni  Ni5  1  1.00167289  0.33370175  0.33615017  1
  Ni  Ni6  1  1.00105730  0.66823200  1.00137416  1
  Ni  Ni7  1  0.16944041  0.83528059  0.16730138  1
  Cr  Cr8  1  1.00009182  0.66723944  0.33403630  1
  Ni  Ni9  1  0.33540547  0.00234582  1.00150751  1
  Ni  Ni10  1  0.50209175  0.16858472  0.16880867  1
  Ni  Ni11  1  0.33691243  0.00318998  0.33425923  1
  Ni  Ni12  1  0.33453500  0.33480672  1.00178790  1
  Ni  Ni13  1  0.50122401  0.50174719  0.16884832  1
  Ni  Ni14  1  0.33496771  0.33428915  0.33563955  1
  Ni  Ni15  1  0.33512193  0.66823105  1.00177990  1
  Ni  Ni16  1  0.50079028  0.83505104  0.16924068  1
  Ni  Ni17  1  0.33777706  0.66790331  0.33443616  1
  Ni  Ni18  1  0.66870345  1.00126010  1.00105095  1
  Ni  Ni19  1  0.83501199  0.16864524  0.16902870  1
  Ni  Ni20  1  0.66789144  0.00181872  0.33620183  1
  Fe  Fe21  1  0.66850702  0.33500640  1.00173099  1
  Ni  Ni22  1  0.83478157  0.50059365  0.16764659  1
  Ni  Ni23  1  0.66874396  0.33457139  0.33457702  1
  Ni  Ni24  1  0.66920408  0.66910229  0.00211669  1
  Ni  Ni25  1  0.83515215  0.83614665  0.16804294  1
  Ni  Ni26  1  0.66730645  0.66899438  0.33558332  1
  Ni  Ni27  1  0.16838842  0.16968449  0.50101172  1
  Ni  Ni28  1  1.00131230  0.00197571  0.66888124  1
  Ni  Ni29  1  0.16855276  0.16804395  0.83546839  1
  Fe  Fe30  1  0.16964080  0.49912342  0.50238402  1
  Fe  Fe31  1  0.00204514  0.33537360  0.66858288  1
  Ni  Ni32  1  0.16856411  0.50224763  0.83439299  1
  Cr  Cr33  1  0.16980007  0.83610349  0.50264267  1
  Ni  Ni34  1  1.00011187  0.66853830  0.66985028  1
  Ni  Ni35  1  0.16849471  0.83509050  0.83536118  1
  Ni  Ni36  1  0.50141772  0.16916592  0.50173687  1
  Ni  Ni37  1  0.33512783  0.00332994  0.66961038  1
  Ni  Ni38  1  0.50134943  0.16861165  0.83483595  1
  Ni  Ni39  1  0.50232868  0.50172020  0.50118678  1
  Ni  Ni40  1  0.33576256  0.33437359  0.66794943  1
  Ni  Ni41  1  0.50141011  0.50175004  0.83534563  1
  Ni  Ni42  1  0.50284572  0.83449292  0.50123902  1
  Ni  Ni43  1  0.33584217  0.66767308  0.66916378  1
  Ni  Ni44  1  0.50090854  0.83501904  0.83490360  1
  Ni  Ni45  1  0.83557512  0.16916579  0.50147334  1
  Fe  Fe46  1  0.66800698  1.00128528  0.66839030  1
  Ni  Ni47  1  0.83547935  0.16854292  0.83488742  1
  Ni  Ni48  1  0.83357415  0.50063314  0.50233577  1
  Ni  Ni49  1  0.66807493  0.33557434  0.66867977  1
  Ni  Ni50  1  0.83541016  0.50180749  0.83540099  1
  Ni  Ni51  1  0.83305626  0.83558575  0.50239018  1
  Ni  Ni52  1  0.66942946  0.66790539  0.66768326  1
  Ni  Ni53  1  0.83597634  0.83503198  0.83495545  1
" 