8162,Ni86Fe11Cr1_17,-240.343342900027, 192.048704973495,Ni86Fe11Cr1,"# generated using pymatgen
 data_CrFe3Ni23
_symmetry_space_group_name_H-M   'P 1'
_cell_length_a   7.43959444
_cell_length_b   7.43959444
_cell_length_c   10.52117535
_cell_angle_alpha   90.00000000
_cell_angle_beta   90.00000000
_cell_angle_gamma   90.00000000
_symmetry_Int_Tables_number   1
_chemical_formula_structural   CrFe3Ni23
_chemical_formula_sum   'Cr2 Fe6 Ni46'
_cell_volume   582.32144058
_cell_formula_units_Z   2
loop_
 _symmetry_equiv_pos_site_id
 _symmetry_equiv_pos_as_xyz
  1  'x, y, z'
loop_
 _atom_site_type_symbol
 _atom_site_label
 _atom_site_symmetry_multiplicity
 _atom_site_fract_x
 _atom_site_fract_y
 _atom_site_fract_z
 _atom_site_occupancy
  Ni  Ni0  1  0.00307476  0.00288230  1.00127257  1
  Ni  Ni1  1  0.16815632  0.16863785  0.16857493  1
  Ni  Ni2  1  1.00167275  1.00168096  0.33483774  1
  Ni  Ni3  1  1.00089614  0.33556415  0.00240674  1
  Ni  Ni4  1  0.16844767  0.50137126  0.16897822  1
  Ni  Ni5  1  0.99998743  0.33674521  0.33396736  1
  Ni  Ni6  1  0.00364224  0.66712396  1.00099681  1
  Ni  Ni7  1  0.16974347  0.83546027  0.16840190  1
  Ni  Ni8  1  0.00426458  0.66689811  0.33614094  1
  Ni  Ni9  1  0.33558987  1.00084143  0.00219396  1
  Ni  Ni10  1  0.50208138  0.16860255  0.16931718  1
  Ni  Ni11  1  0.33662957  0.99980201  0.33393409  1
  Fe  Fe12  1  0.33525402  0.33505650  1.00161589  1
  Ni  Ni13  1  0.50222565  0.50188644  0.16843341  1
  Ni  Ni14  1  0.33657640  0.33702256  0.33368835  1
  Ni  Ni15  1  0.33477941  0.66924315  1.00181103  1
  Ni  Ni16  1  0.50083970  0.83499953  0.16785482  1
  Ni  Ni17  1  0.33428064  0.66879263  0.33506722  1
  Ni  Ni18  1  0.66684260  0.00358708  1.00097239  1
  Ni  Ni19  1  0.83529973  0.16985474  0.16806258  1
  Ni  Ni20  1  0.66724201  0.00420157  0.33619490  1
  Ni  Ni21  1  0.66891179  0.33480910  0.00203061  1
  Ni  Ni22  1  0.83479823  0.50015875  0.16828475  1
  Ni  Ni23  1  0.66900079  0.33438690  0.33513635  1
  Ni  Ni24  1  0.66708466  0.66709950  1.00166521  1
  Cr  Cr25  1  0.83461449  0.83504185  0.16920635  1
  Fe  Fe26  1  0.66725307  0.66724531  0.33581994  1
  Cr  Cr27  1  0.16782860  0.16903384  0.50182362  1
  Ni  Ni28  1  1.00116150  1.00100149  0.66944984  1
  Ni  Ni29  1  0.16835185  0.16881002  0.83500885  1
  Ni  Ni30  1  0.16866824  0.50286533  0.50222468  1
  Ni  Ni31  1  1.00056631  0.33648504  0.66919474  1
  Ni  Ni32  1  0.16883164  0.50110428  0.83423353  1
  Ni  Ni33  1  0.16937598  0.83428338  0.50233617  1
  Ni  Ni34  1  0.00261844  0.66801453  0.66853144  1
  Ni  Ni35  1  0.16779375  0.83556640  0.83487018  1
  Fe  Fe36  1  0.50222709  0.16952088  0.50193757  1
  Ni  Ni37  1  0.33636899  1.00016983  0.66934639  1
  Ni  Ni38  1  0.50159413  0.16882152  0.83389360  1
  Ni  Ni39  1  0.50231084  0.50287858  0.50214682  1
  Ni  Ni40  1  0.33631674  0.33672262  0.66948203  1
  Ni  Ni41  1  0.50215458  0.50188742  0.83490992  1
  Ni  Ni42  1  0.50207164  0.83449479  0.50227439  1
  Ni  Ni43  1  0.33497437  0.66875134  0.66869047  1
  Ni  Ni44  1  0.50313704  0.83480738  0.83549109  1
  Ni  Ni45  1  0.83424453  0.16875934  0.50230331  1
  Ni  Ni46  1  0.66803887  0.00231859  0.66840507  1
  Fe  Fe47  1  0.83507819  0.16802778  0.83512850  1
  Ni  Ni48  1  0.83459951  0.50062901  0.50223170  1
  Ni  Ni49  1  0.66856660  0.33506979  0.66834282  1
  Fe  Fe50  1  0.83493325  0.50280482  0.83526821  1
  Fe  Fe51  1  0.83593475  0.83445496  0.50261415  1
  Ni  Ni52  1  0.66809131  0.66813648  0.66834262  1
  Ni  Ni53  1  0.83460576  0.83521877  0.83428592  1
" 