213,Ni86Fe2Cr10_5,-235.149614668925, 166.824209995422,Ni86Fe2Cr10,"# generated using pymatgen
 data_Cr7FeNi46
_symmetry_space_group_name_H-M   'P 1'
_cell_length_a   7.46385361
_cell_length_b   7.46385361
_cell_length_c   10.55548300
_cell_angle_alpha   90.00000000
_cell_angle_beta   90.00000000
_cell_angle_gamma   90.00000000
_symmetry_Int_Tables_number   1
_chemical_formula_structural   Cr7FeNi46
_chemical_formula_sum   'Cr7 Fe1 Ni46'
_cell_volume   588.03657146
_cell_formula_units_Z   1
loop_
 _symmetry_equiv_pos_site_id
 _symmetry_equiv_pos_as_xyz
  1  'x, y, z'
loop_
 _atom_site_type_symbol
 _atom_site_label
 _atom_site_symmetry_multiplicity
 _atom_site_fract_x
 _atom_site_fract_y
 _atom_site_fract_z
 _atom_site_occupancy
  Ni  Ni0  1  0.99966243  0.00241564  0.99958629  1
  Ni  Ni1  1  0.16523432  0.16811653  0.16713074  1
  Ni  Ni2  1  0.99964393  0.00154359  0.33404772  1
  Ni  Ni3  1  0.00173266  0.33142061  0.99984512  1
  Ni  Ni4  1  0.16851194  0.49896488  0.16718897  1
  Ni  Ni5  1  0.00328048  0.33214069  0.33426319  1
  Fe  Fe6  1  0.00174140  0.66685687  0.99835144  1
  Cr  Cr7  1  0.16646680  0.83413427  0.16643239  1
  Ni  Ni8  1  0.00050509  0.66704924  0.33481803  1
  Ni  Ni9  1  0.33269620  0.99993546  0.99838929  1
  Cr  Cr10  1  0.49914779  0.16568082  0.16564650  1
  Ni  Ni11  1  0.33279269  1.00016225  0.33521390  1
  Ni  Ni12  1  0.33150445  0.33474059  0.99983174  1
  Ni  Ni13  1  0.49698477  0.50161223  0.16669484  1
  Ni  Ni14  1  0.32924220  0.33356585  0.33297889  1
  Ni  Ni15  1  0.33359340  0.66601583  0.99943595  1
  Ni  Ni16  1  0.50057595  0.83315542  0.16813573  1
  Ni  Ni17  1  0.33339457  0.66701937  0.33326721  1
  Ni  Ni18  1  0.66836643  1.00012233  0.99961823  1
  Ni  Ni19  1  0.83589104  0.16430205  0.16591228  1
  Ni  Ni20  1  0.66818146  0.99722355  0.33399589  1
  Ni  Ni21  1  0.66745632  0.33254731  0.99790791  1
  Cr  Cr22  1  0.83582507  0.50017198  0.16715181  1
  Cr  Cr23  1  0.66821844  0.33235920  0.33441742  1
  Cr  Cr24  1  0.66493301  0.66806129  0.99974188  1
  Ni  Ni25  1  0.83307581  0.83637917  0.16801045  1
  Ni  Ni26  1  0.66676751  0.67051805  0.33326377  1
  Ni  Ni27  1  0.16698828  0.16658790  0.49966673  1
  Ni  Ni28  1  0.00057726  0.00065885  0.66688752  1
  Ni  Ni29  1  0.16690135  0.16670003  0.83384252  1
  Ni  Ni30  1  0.16499922  0.50066137  0.49984147  1
  Ni  Ni31  1  0.00078011  0.33295556  0.66643424  1
  Ni  Ni32  1  0.16679040  0.50022030  0.83370052  1
  Ni  Ni33  1  0.16655367  0.83338316  0.50074049  1
  Ni  Ni34  1  0.00194029  0.66702413  0.66755731  1
  Ni  Ni35  1  0.16679133  0.83372081  0.83327946  1
  Ni  Ni36  1  0.49940644  0.16419048  0.50158713  1
  Ni  Ni37  1  0.33278827  1.00015847  0.66702592  1
  Ni  Ni38  1  0.50026735  0.16681145  0.83335560  1
  Cr  Cr39  1  0.49826721  0.49961740  0.50018684  1
  Ni  Ni40  1  0.33163792  0.33254669  0.66789318  1
  Ni  Ni41  1  0.49837560  0.49792172  0.83401336  1
  Ni  Ni42  1  0.49904500  0.83643898  0.49876067  1
  Ni  Ni43  1  0.33112089  0.66788920  0.66785927  1
  Ni  Ni44  1  0.49828557  0.83587643  0.83366981  1
  Ni  Ni45  1  0.83431076  0.16576275  0.50094061  1
  Ni  Ni46  1  0.66726317  0.00136706  0.66700820  1
  Ni  Ni47  1  0.83348975  0.16679150  0.83383926  1
  Ni  Ni48  1  0.83728847  0.50032892  0.50051290  1
  Ni  Ni49  1  0.66822867  0.33118311  0.66857353  1
  Ni  Ni50  1  0.83565814  0.49811110  0.83302881  1
  Ni  Ni51  1  0.83503965  0.83447448  0.49883584  1
  Cr  Cr52  1  0.66756144  0.66827965  0.66736601  1
  Ni  Ni53  1  0.83577171  0.83567752  0.83386929  1
" 