5679,Ni86Fe2Cr11_6,-235.020923324836, 166.531898429697,Ni86Fe2Cr11,"# generated using pymatgen
 data_Cr7FeNi46
_symmetry_space_group_name_H-M   'P 1'
_cell_length_a   7.46568248
_cell_length_b   7.46568248
_cell_length_c   10.55806942
_cell_angle_alpha   90.00000000
_cell_angle_beta   90.00000000
_cell_angle_gamma   90.00000000
_symmetry_Int_Tables_number   1
_chemical_formula_structural   Cr7FeNi46
_chemical_formula_sum   'Cr7 Fe1 Ni46'
_cell_volume   588.46893737
_cell_formula_units_Z   1
loop_
 _symmetry_equiv_pos_site_id
 _symmetry_equiv_pos_as_xyz
  1  'x, y, z'
loop_
 _atom_site_type_symbol
 _atom_site_label
 _atom_site_symmetry_multiplicity
 _atom_site_fract_x
 _atom_site_fract_y
 _atom_site_fract_z
 _atom_site_occupancy
  Ni  Ni0  1  0.99991086  0.99848385  0.99994390  1
  Ni  Ni1  1  0.16693570  0.16538142  0.16714921  1
  Ni  Ni2  1  0.00093829  0.00118031  0.33283159  1
  Cr  Cr3  1  0.00121000  0.33263865  0.00073733  1
  Ni  Ni4  1  0.16674536  0.50169406  0.16626758  1
  Ni  Ni5  1  0.99762664  0.33221199  0.33342965  1
  Ni  Ni6  1  0.00114572  0.66918138  0.00049453  1
  Ni  Ni7  1  0.16660540  0.83320029  0.16715697  1
  Ni  Ni8  1  0.00017115  0.66688014  0.33182753  1
  Ni  Ni9  1  0.33375024  0.00014890  0.99965153  1
  Ni  Ni10  1  0.50091173  0.16639579  0.16543780  1
  Ni  Ni11  1  0.33238431  0.99745237  0.33347660  1
  Ni  Ni12  1  0.33427538  0.33285135  0.00054345  1
  Ni  Ni13  1  0.50094569  0.50052011  0.16615243  1
  Cr  Cr14  1  0.33324189  0.33364381  0.33141082  1
  Ni  Ni15  1  0.33277128  0.66727191  0.00090195  1
  Ni  Ni16  1  0.50006957  0.83336664  0.16720884  1
  Ni  Ni17  1  0.33440000  0.66936555  0.33301091  1
  Ni  Ni18  1  0.66661045  0.99999142  0.99971782  1
  Ni  Ni19  1  0.83241674  0.16624784  0.16799567  1
  Ni  Ni20  1  0.66694382  0.99999096  0.33177914  1
  Ni  Ni21  1  0.66470484  0.33161538  0.00169328  1
  Ni  Ni22  1  0.83258873  0.50085119  0.16818235  1
  Ni  Ni23  1  0.66943081  0.33422598  0.33306806  1
  Ni  Ni24  1  0.66636143  0.66866695  0.00151186  1
  Ni  Ni25  1  0.83359901  0.83317527  0.16622186  1
  Ni  Ni26  1  0.66570627  0.66605695  0.33324430  1
  Ni  Ni27  1  0.16434236  0.16460109  0.50088724  1
  Ni  Ni28  1  0.00029522  0.00133706  0.66748571  1
  Ni  Ni29  1  0.16762553  0.16596107  0.83223594  1
  Cr  Cr30  1  0.16574407  0.50090485  0.50109143  1
  Ni  Ni31  1  0.00051894  0.33138978  0.66618016  1
  Ni  Ni32  1  0.16754485  0.50088513  0.83269992  1
  Ni  Ni33  1  0.16838578  0.83478638  0.49988381  1
  Ni  Ni34  1  0.00136309  0.66754506  0.66793563  1
  Ni  Ni35  1  0.16629293  0.83342076  0.83324434  1
  Cr  Cr36  1  0.50086682  0.16609735  0.50075760  1
  Fe  Fe37  1  0.33260145  0.99921772  0.66749577  1
  Ni  Ni38  1  0.50005834  0.16527583  0.83377903  1
  Ni  Ni39  1  0.50262763  0.50238099  0.50094858  1
  Ni  Ni40  1  0.33242382  0.33347378  0.66813452  1
  Cr  Cr41  1  0.49868581  0.49951113  0.83361103  1
  Ni  Ni42  1  0.49850199  0.83155479  0.50005340  1
  Ni  Ni43  1  0.33360465  0.66747982  0.66637314  1
  Ni  Ni44  1  0.50021206  0.83527232  0.83301700  1
  Ni  Ni45  1  0.83490116  0.16873876  0.50012709  1
  Ni  Ni46  1  0.66739586  0.00015930  0.66875963  1
  Ni  Ni47  1  0.83258862  0.16403866  0.83216198  1
  Ni  Ni48  1  0.83168715  0.49836698  0.49998483  1
  Ni  Ni49  1  0.66732565  0.33239206  0.66552826  1
  Cr  Cr50  1  0.83422425  0.50127703  0.83237003  1
  Cr  Cr51  1  0.83363676  0.83324630  0.49991015  1
  Ni  Ni52  1  0.66531650  0.66771894  0.66552652  1
  Ni  Ni53  1  0.83376446  0.83521367  0.83370738  1
" 