6730,Ni86Fe2Cr10_14,-235.128913610394, 169.38689109654,Ni86Fe2Cr10,"# generated using pymatgen
 data_Cr7FeNi46
_symmetry_space_group_name_H-M   'P 1'
_cell_length_a   7.46569311
_cell_length_b   7.46569311
_cell_length_c   10.55808444
_cell_angle_alpha   90.00000000
_cell_angle_beta   90.00000000
_cell_angle_gamma   90.00000000
_symmetry_Int_Tables_number   1
_chemical_formula_structural   Cr7FeNi46
_chemical_formula_sum   'Cr7 Fe1 Ni46'
_cell_volume   588.47145031
_cell_formula_units_Z   1
loop_
 _symmetry_equiv_pos_site_id
 _symmetry_equiv_pos_as_xyz
  1  'x, y, z'
loop_
 _atom_site_type_symbol
 _atom_site_label
 _atom_site_symmetry_multiplicity
 _atom_site_fract_x
 _atom_site_fract_y
 _atom_site_fract_z
 _atom_site_occupancy
  Ni  Ni0  1  0.00091815  0.99939294  0.99839564  1
  Cr  Cr1  1  0.16733855  0.16589038  0.16726087  1
  Ni  Ni2  1  0.99922984  0.99937863  0.33467775  1
  Ni  Ni3  1  0.00047042  0.33333578  1.00000882  1
  Ni  Ni4  1  0.16659836  0.50177125  0.16687556  1
  Ni  Ni5  1  0.00012590  0.33318234  0.33343044  1
  Ni  Ni6  1  0.00113089  0.66755589  0.00087610  1
  Ni  Ni7  1  0.16672369  0.83180827  0.16716722  1
  Ni  Ni8  1  0.00079869  0.66774708  0.33268209  1
  Ni  Ni9  1  0.33172226  0.99831582  0.99963553  1
  Ni  Ni10  1  0.49996004  0.16656827  0.16707367  1
  Ni  Ni11  1  0.33414415  0.99917358  0.33473332  1
  Ni  Ni12  1  0.33299004  0.33529217  1.00005401  1
  Ni  Ni13  1  0.49847834  0.50017700  0.16443443  1
  Ni  Ni14  1  0.33341477  0.33357959  0.33350321  1
  Ni  Ni15  1  0.33328953  0.66655831  0.99967677  1
  Ni  Ni16  1  0.49819033  0.83355042  0.16671178  1
  Ni  Ni17  1  0.33286719  0.66754544  0.33270817  1
  Cr  Cr18  1  0.66800044  0.99865644  0.00181533  1
  Ni  Ni19  1  0.83363412  0.16674902  0.16646817  1
  Ni  Ni20  1  0.66691736  1.00007822  0.33330009  1
  Ni  Ni21  1  0.66682776  0.33493628  0.00140073  1
  Ni  Ni22  1  0.83522641  0.50039219  0.16509685  1
  Cr  Cr23  1  0.66677078  0.33241854  0.33371879  1
  Ni  Ni24  1  0.66574174  0.66605783  0.00085345  1
  Ni  Ni25  1  0.83529840  0.83322335  0.16671662  1
  Cr  Cr26  1  0.66661216  0.66826456  0.33307849  1
  Ni  Ni27  1  0.16691466  0.16526572  0.50012075  1
  Ni  Ni28  1  0.99980754  0.00057251  0.66730369  1
  Ni  Ni29  1  0.16561824  0.16658992  0.83328542  1
  Cr  Cr30  1  0.16625296  0.50112096  0.49885143  1
  Ni  Ni31  1  0.00120858  0.33165355  0.66666021  1
  Ni  Ni32  1  0.16778686  0.50029135  0.83378752  1
  Ni  Ni33  1  0.16675483  0.83517474  0.49988647  1
  Ni  Ni34  1  1.00000083  0.66814948  0.66651212  1
  Ni  Ni35  1  0.16672859  0.83336165  0.83324136  1
  Ni  Ni36  1  0.49916940  0.16543721  0.50039975  1
  Ni  Ni37  1  0.33275809  0.99962298  0.66609840  1
  Cr  Cr38  1  0.49945469  0.16693551  0.83334452  1
  Ni  Ni39  1  0.49986846  0.50022002  0.50254099  1
  Ni  Ni40  1  0.33238373  0.33358224  0.66673157  1
  Ni  Ni41  1  0.49828269  0.50196772  0.83336943  1
  Ni  Ni42  1  0.49932162  0.83444441  0.50090384  1
  Ni  Ni43  1  0.33448352  0.66711027  0.66776017  1
  Ni  Ni44  1  0.49928161  0.83134576  0.83259612  1
  Ni  Ni45  1  0.83417046  0.16562311  0.50105139  1
  Ni  Ni46  1  0.66775654  0.99829372  0.66546072  1
  Ni  Ni47  1  0.83598286  0.16580325  0.83291270  1
  Ni  Ni48  1  0.83364778  0.50042143  0.50186344  1
  Fe  Fe49  1  0.66671809  0.33299584  0.66546827  1
  Cr  Cr50  1  0.83301706  0.50084263  0.83297350  1
  Ni  Ni51  1  0.83420099  0.83410347  0.50089742  1
  Ni  Ni52  1  0.66567532  0.66851503  0.66595247  1
  Ni  Ni53  1  0.83423232  0.83385453  0.83257106  1
" 