3319,Ni86Fe2Cr11_11,-235.090785474765, 166.925362636926,Ni86Fe2Cr11,"# generated using pymatgen
 data_Cr7FeNi46
_symmetry_space_group_name_H-M   'P 1'
_cell_length_a   7.46487442
_cell_length_b   7.46487442
_cell_length_c   10.55692664
_cell_angle_alpha   90.00000000
_cell_angle_beta   90.00000000
_cell_angle_gamma   90.00000000
_symmetry_Int_Tables_number   1
_chemical_formula_structural   Cr7FeNi46
_chemical_formula_sum   'Cr7 Fe1 Ni46'
_cell_volume   588.27787596
_cell_formula_units_Z   1
loop_
 _symmetry_equiv_pos_site_id
 _symmetry_equiv_pos_as_xyz
  1  'x, y, z'
loop_
 _atom_site_type_symbol
 _atom_site_label
 _atom_site_symmetry_multiplicity
 _atom_site_fract_x
 _atom_site_fract_y
 _atom_site_fract_z
 _atom_site_occupancy
  Ni  Ni0  1  1.00009129  0.99978125  0.00086002  1
  Ni  Ni1  1  0.16651467  0.16658256  0.16690110  1
  Ni  Ni2  1  0.99978509  0.00119226  0.33311388  1
  Ni  Ni3  1  0.00144910  0.33366410  0.00015183  1
  Ni  Ni4  1  0.16731700  0.49952149  0.16596358  1
  Ni  Ni5  1  0.99977540  0.33242603  0.33377087  1
  Ni  Ni6  1  0.00022608  0.66698284  0.99959522  1
  Ni  Ni7  1  0.16759578  0.83437416  0.16586722  1
  Cr  Cr8  1  0.00113764  0.66792338  0.33404909  1
  Ni  Ni9  1  0.33272057  0.99899566  0.00102420  1
  Ni  Ni10  1  0.49922837  0.16554277  0.16803176  1
  Ni  Ni11  1  0.33382003  0.99972872  0.33398167  1
  Ni  Ni12  1  0.33120085  0.33459101  0.00166449  1
  Ni  Ni13  1  0.49900506  0.50124938  0.16750113  1
  Ni  Ni14  1  0.33311996  0.33282082  0.33206557  1
  Ni  Ni15  1  0.33342538  0.66690027  0.99979337  1
  Ni  Ni16  1  0.49985739  0.83372749  0.16680304  1
  Ni  Ni17  1  0.33334241  0.66795936  0.33291643  1
  Ni  Ni18  1  0.66759641  0.99773020  0.00053389  1
  Ni  Ni19  1  0.83463077  0.16579542  0.16749973  1
  Ni  Ni20  1  0.66678114  0.00097770  0.33375313  1
  Cr  Cr21  1  0.66685344  0.33421814  0.00035738  1
  Ni  Ni22  1  0.83395906  0.50001330  0.16698655  1
  Ni  Ni23  1  0.66754649  0.33157431  0.33309199  1
  Ni  Ni24  1  0.66673862  0.66834003  0.00118385  1
  Ni  Ni25  1  0.83290825  0.83471036  0.16567937  1
  Fe  Fe26  1  0.66640947  0.66806308  0.33185485  1
  Ni  Ni27  1  0.16660224  0.16683923  0.49795367  1
  Cr  Cr28  1  0.00061822  0.99945843  0.66613039  1
  Ni  Ni29  1  0.16478296  0.16660599  0.83561702  1
  Ni  Ni30  1  0.16506358  0.50018252  0.50049135  1
  Ni  Ni31  1  0.99850812  0.33497327  0.66648671  1
  Ni  Ni32  1  0.16538056  0.50129618  0.83409444  1
  Ni  Ni33  1  0.16854078  0.83336852  0.50038662  1
  Ni  Ni34  1  0.00181542  0.66560287  0.66677500  1
  Ni  Ni35  1  0.16752895  0.83256698  0.83406255  1
  Ni  Ni36  1  0.50121495  0.16425815  0.49944701  1
  Ni  Ni37  1  0.33423356  0.99731517  0.66546617  1
  Cr  Cr38  1  0.50007686  0.16413986  0.83295204  1
  Cr  Cr39  1  0.50004248  0.50002691  0.49825987  1
  Cr  Cr40  1  0.33159211  0.33299840  0.66728034  1
  Ni  Ni41  1  0.49919473  0.50313632  0.83477495  1
  Ni  Ni42  1  0.49907251  0.83616920  0.49965821  1
  Ni  Ni43  1  0.33085720  0.66949499  0.66764358  1
  Ni  Ni44  1  0.49918215  0.83272011  0.83411480  1
  Ni  Ni45  1  0.83268697  0.16767539  0.49965470  1
  Ni  Ni46  1  0.66640071  0.00070924  0.66602793  1
  Ni  Ni47  1  0.83563195  0.16655092  0.83315390  1
  Ni  Ni48  1  0.83548653  0.49809393  0.50044833  1
  Ni  Ni49  1  0.67016704  0.33182833  0.66664147  1
  Ni  Ni50  1  0.83579271  0.50042472  0.83309492  1
  Ni  Ni51  1  0.83264981  0.83457863  0.49914577  1
  Cr  Cr52  1  0.66799518  0.66807341  0.66757527  1
  Ni  Ni53  1  0.83370631  0.83338653  0.83552808  1
" 