8545,Ni86Fe8Cr5_1,-238.352573332923, 183.222237767517,Ni86Fe8Cr5,"# generated using pymatgen
 data_Cr2Fe2Ni23
_symmetry_space_group_name_H-M   'P 1'
_cell_length_a   7.45383932
_cell_length_b   7.45383932
_cell_length_c   10.54132066
_cell_angle_alpha   90.00000000
_cell_angle_beta   90.00000000
_cell_angle_gamma   90.00000000
_symmetry_Int_Tables_number   1
_chemical_formula_structural   Cr2Fe2Ni23
_chemical_formula_sum   'Cr4 Fe4 Ni46'
_cell_volume   585.67283168
_cell_formula_units_Z   2
loop_
 _symmetry_equiv_pos_site_id
 _symmetry_equiv_pos_as_xyz
  1  'x, y, z'
loop_
 _atom_site_type_symbol
 _atom_site_label
 _atom_site_symmetry_multiplicity
 _atom_site_fract_x
 _atom_site_fract_y
 _atom_site_fract_z
 _atom_site_occupancy
  Ni  Ni0  1  0.00120558  0.00126295  0.00108346  1
  Ni  Ni1  1  0.16828036  0.16749500  0.16693468  1
  Fe  Fe2  1  0.00106452  1.00035335  0.33378994  1
  Ni  Ni3  1  0.00091024  0.33460411  0.00159860  1
  Ni  Ni4  1  0.16743592  0.50117643  0.16729458  1
  Ni  Ni5  1  0.00211667  0.33410989  0.33243387  1
  Ni  Ni6  1  0.00115714  0.66717299  0.00120446  1
  Ni  Ni7  1  0.16837564  0.83393039  0.16730710  1
  Ni  Ni8  1  0.00166608  0.66783961  0.33285592  1
  Ni  Ni9  1  0.33436302  1.00053285  0.00125839  1
  Ni  Ni10  1  0.50079697  0.16716053  0.16696726  1
  Ni  Ni11  1  0.33513900  1.00079251  0.33377450  1
  Ni  Ni12  1  0.33334753  0.33415279  0.00114121  1
  Ni  Ni13  1  0.50101843  0.50095760  0.16782257  1
  Ni  Ni14  1  0.33320385  0.33380550  0.33416622  1
  Ni  Ni15  1  0.33383020  0.66766833  0.00192340  1
  Ni  Ni16  1  0.50054631  0.83453441  0.16734494  1
  Ni  Ni17  1  0.33340399  0.66803128  0.33384561  1
  Ni  Ni18  1  0.66748282  1.00084281  0.00131531  1
  Ni  Ni19  1  0.83362144  0.16792882  0.16770209  1
  Ni  Ni20  1  0.66705966  1.00035446  0.33399933  1
  Ni  Ni21  1  0.66799018  0.33414016  0.00150797  1
  Ni  Ni22  1  0.83412867  0.50085418  0.16736956  1
  Ni  Ni23  1  0.66707789  0.33261329  0.33288319  1
  Ni  Ni24  1  0.66772422  0.66775915  0.00142714  1
  Ni  Ni25  1  0.83384136  0.83376306  0.16673486  1
  Ni  Ni26  1  0.66746944  0.66955882  0.33269434  1
  Ni  Ni27  1  0.16826920  0.16776306  0.49936249  1
  Ni  Ni28  1  0.00100589  0.99914253  0.66664164  1
  Ni  Ni29  1  0.16792037  0.16735744  0.83594420  1
  Ni  Ni30  1  0.16885476  0.50215200  0.50037214  1
  Cr  Cr31  1  0.00238455  0.33238078  0.66859245  1
  Ni  Ni32  1  0.16694903  0.50250559  0.83506648  1
  Ni  Ni33  1  0.16754802  0.83255064  0.50031678  1
  Ni  Ni34  1  0.00153724  0.66936960  0.66883518  1
  Ni  Ni35  1  0.16874817  0.83275571  0.83468666  1
  Ni  Ni36  1  0.50090779  0.16847400  0.49938083  1
  Cr  Cr37  1  0.33289326  0.00142665  0.66760214  1
  Ni  Ni38  1  0.50115013  0.16800409  0.83643898  1
  Fe  Fe39  1  0.49981970  0.50112246  0.49903835  1
  Ni  Ni40  1  0.33580441  0.33630689  0.66729625  1
  Fe  Fe41  1  0.49945538  0.50019016  0.83587411  1
  Ni  Ni42  1  0.50073033  0.83304563  0.49904831  1
  Ni  Ni43  1  0.33459233  0.66592705  0.66689674  1
  Ni  Ni44  1  0.50011722  0.83247940  0.83652045  1
  Ni  Ni45  1  0.83343468  0.16673936  0.49905870  1
  Cr  Cr46  1  0.66885691  0.00109638  0.66806834  1
  Ni  Ni47  1  0.83360231  0.16965502  0.83567857  1
  Cr  Cr48  1  0.83404579  0.50149633  0.49949443  1
  Ni  Ni49  1  0.66489512  0.33537245  0.66808497  1
  Ni  Ni50  1  0.83323473  0.50172370  0.83541050  1
  Ni  Ni51  1  0.83444071  0.83374806  0.50122111  1
  Ni  Ni52  1  0.66622080  0.66699836  0.66879638  1
  Fe  Fe53  1  0.83616832  0.83466570  0.83573663  1
" 