144,Ni86Fe2Cr11_0,-235.022045206779, 166.464635022278,Ni86Fe2Cr11,"# generated using pymatgen
 data_Cr7FeNi46
_symmetry_space_group_name_H-M   'P 1'
_cell_length_a   7.46687238
_cell_length_b   7.46687238
_cell_length_c   10.55975218
_cell_angle_alpha   90.00000000
_cell_angle_beta   90.00000000
_cell_angle_gamma   90.00000000
_symmetry_Int_Tables_number   1
_chemical_formula_structural   Cr7FeNi46
_chemical_formula_sum   'Cr7 Fe1 Ni46'
_cell_volume   588.75035653
_cell_formula_units_Z   1
loop_
 _symmetry_equiv_pos_site_id
 _symmetry_equiv_pos_as_xyz
  1  'x, y, z'
loop_
 _atom_site_type_symbol
 _atom_site_label
 _atom_site_symmetry_multiplicity
 _atom_site_fract_x
 _atom_site_fract_y
 _atom_site_fract_z
 _atom_site_occupancy
  Ni  Ni0  1  0.99839427  0.00094932  0.00051156  1
  Ni  Ni1  1  0.16667943  0.16453269  0.16657973  1
  Ni  Ni2  1  0.00153402  0.00016361  0.33319177  1
  Ni  Ni3  1  0.00081173  0.33172051  0.99972723  1
  Cr  Cr4  1  0.16629986  0.50023937  0.16661484  1
  Ni  Ni5  1  0.99937552  0.33268936  0.33425731  1
  Ni  Ni6  1  0.99890724  0.66736371  0.00034303  1
  Ni  Ni7  1  0.16684924  0.83519438  0.16674497  1
  Ni  Ni8  1  0.99931789  0.66718187  0.33420358  1
  Ni  Ni9  1  0.33400151  0.00179680  0.00158638  1
  Ni  Ni10  1  0.49925347  0.16700457  0.16565356  1
  Ni  Ni11  1  0.33187802  0.99999491  0.33336335  1
  Ni  Ni12  1  0.33361526  0.33290431  0.99831644  1
  Ni  Ni13  1  0.50198441  0.50039573  0.16649215  1
  Ni  Ni14  1  0.33403764  0.33286338  0.33442945  1
  Ni  Ni15  1  0.33467187  0.66533458  0.00070638  1
  Ni  Ni16  1  0.49917185  0.83263554  0.16575750  1
  Ni  Ni17  1  0.33426475  0.66717720  0.33384367  1
  Ni  Ni18  1  0.66763908  0.99989291  0.00028358  1
  Ni  Ni19  1  0.83410225  0.16734704  0.16565407  1
  Cr  Cr20  1  0.66685124  0.99998456  0.33340097  1
  Fe  Fe21  1  0.66578989  0.33244476  0.00086079  1
  Ni  Ni22  1  0.83154188  0.50022720  0.16702450  1
  Ni  Ni23  1  0.66662161  0.33507807  0.33296713  1
  Ni  Ni24  1  0.66645638  0.66775398  0.00135355  1
  Ni  Ni25  1  0.83401444  0.83246168  0.16522482  1
  Ni  Ni26  1  0.66645244  0.66502123  0.33358978  1
  Ni  Ni27  1  0.16690525  0.16622360  0.50035488  1
  Ni  Ni28  1  0.00011422  0.00091230  0.66633127  1
  Ni  Ni29  1  0.16690361  0.16834629  0.83310055  1
  Ni  Ni30  1  0.16571947  0.49950607  0.49987119  1
  Ni  Ni31  1  0.00098508  0.33250505  0.66605260  1
  Ni  Ni32  1  0.16743698  0.49742103  0.83398570  1
  Ni  Ni33  1  0.16605998  0.83430606  0.49915190  1
  Ni  Ni34  1  0.99818791  0.66661841  0.66549001  1
  Cr  Cr35  1  0.16460031  0.83411649  0.83414342  1
  Ni  Ni36  1  0.49815991  0.16808417  0.50052389  1
  Ni  Ni37  1  0.33209287  0.00348760  0.66508301  1
  Ni  Ni38  1  0.49884309  0.16910664  0.83385721  1
  Ni  Ni39  1  0.50120140  0.49950214  0.49951254  1
  Ni  Ni40  1  0.33325234  0.33196111  0.66729139  1
  Ni  Ni41  1  0.49915343  0.49750674  0.83403221  1
  Ni  Ni42  1  0.49899968  0.83244981  0.49932053  1
  Cr  Cr43  1  0.33335172  0.66458669  0.66561542  1
  Cr  Cr44  1  0.50127256  0.83348482  0.83456959  1
  Ni  Ni45  1  0.83496928  0.16842525  0.50029657  1
  Cr  Cr46  1  0.66765469  0.00037714  0.66608407  1
  Ni  Ni47  1  0.83428816  0.16599939  0.83408461  1
  Ni  Ni48  1  0.83311384  0.50034636  0.49999580  1
  Ni  Ni49  1  0.66579663  0.33388706  0.66633082  1
  Cr  Cr50  1  0.83350742  0.50044270  0.83297178  1
  Ni  Ni51  1  0.83497506  0.83126307  0.50086838  1
  Ni  Ni52  1  0.66836921  0.66545777  0.66509038  1
  Ni  Ni53  1  0.83420233  0.83395662  0.83394184  1
" 