8281,Ni86Fe8Cr5_16,-238.38164071106, 182.381121712361,Ni86Fe8Cr5,"# generated using pymatgen
 data_Cr2Fe2Ni23
_symmetry_space_group_name_H-M   'P 1'
_cell_length_a   7.44999314
_cell_length_b   7.44999314
_cell_length_c   10.53588134
_cell_angle_alpha   90.00000000
_cell_angle_beta   90.00000000
_cell_angle_gamma   90.00000000
_symmetry_Int_Tables_number   1
_chemical_formula_structural   Cr2Fe2Ni23
_chemical_formula_sum   'Cr4 Fe4 Ni46'
_cell_volume   584.76667670
_cell_formula_units_Z   2
loop_
 _symmetry_equiv_pos_site_id
 _symmetry_equiv_pos_as_xyz
  1  'x, y, z'
loop_
 _atom_site_type_symbol
 _atom_site_label
 _atom_site_symmetry_multiplicity
 _atom_site_fract_x
 _atom_site_fract_y
 _atom_site_fract_z
 _atom_site_occupancy
  Ni  Ni0  1  0.00211557  0.99971602  1.00056896  1
  Ni  Ni1  1  0.16921371  0.16853995  0.16733381  1
  Ni  Ni2  1  0.00306136  0.99947176  0.33548671  1
  Ni  Ni3  1  0.00204273  0.33572824  1.00054147  1
  Ni  Ni4  1  0.16746474  0.50130404  0.16817561  1
  Ni  Ni5  1  0.00257402  0.33616164  0.33498220  1
  Ni  Ni6  1  0.00175453  0.66799471  1.00080554  1
  Ni  Ni7  1  0.16761331  0.83360761  0.16779127  1
  Ni  Ni8  1  1.00019132  0.66777310  0.33451191  1
  Ni  Ni9  1  0.33240331  1.00084279  0.00299625  1
  Ni  Ni10  1  0.50036140  0.16798842  0.16737997  1
  Ni  Ni11  1  0.33430942  0.00192765  0.33373086  1
  Ni  Ni12  1  0.33411839  0.33583980  0.00216239  1
  Ni  Ni13  1  0.50078604  0.50106048  0.16825902  1
  Ni  Ni14  1  0.33447660  0.33351788  0.33388542  1
  Ni  Ni15  1  0.33273654  0.66658836  0.00259786  1
  Ni  Ni16  1  0.50103943  0.83440505  0.16743448  1
  Fe  Fe17  1  0.33409457  0.66819575  0.33415898  1
  Ni  Ni18  1  0.66896297  1.00093774  0.00254782  1
  Cr  Cr19  1  0.83534609  0.16818712  0.16980788  1
  Ni  Ni20  1  0.66625624  0.99968263  0.33565757  1
  Ni  Ni21  1  0.66756939  0.33610576  1.00102714  1
  Ni  Ni22  1  0.83506000  0.50240306  0.16720157  1
  Ni  Ni23  1  0.66644636  0.33613164  0.33580398  1
  Fe  Fe24  1  0.66806200  0.66718839  0.00253148  1
  Ni  Ni25  1  0.83470160  0.83288167  0.16810987  1
  Ni  Ni26  1  0.66878105  0.66768132  0.33339424  1
  Ni  Ni27  1  0.16784882  0.16877144  0.50133851  1
  Ni  Ni28  1  0.00147875  1.00076805  0.66764287  1
  Ni  Ni29  1  0.16556002  0.16872662  0.83473916  1
  Ni  Ni30  1  0.16699635  0.50121729  0.50100194  1
  Ni  Ni31  1  0.00158297  0.33463371  0.66794127  1
  Ni  Ni32  1  0.16856644  0.50152289  0.83416988  1
  Ni  Ni33  1  0.16805981  0.83341188  0.50172626  1
  Ni  Ni34  1  0.00277916  0.66801461  0.66796657  1
  Ni  Ni35  1  0.16599887  0.83309444  0.83377242  1
  Ni  Ni36  1  0.50117225  0.16730744  0.50152706  1
  Ni  Ni37  1  0.33218494  0.00130794  0.66656737  1
  Cr  Cr38  1  0.50116765  0.16870671  0.83449734  1
  Fe  Fe39  1  0.50042211  0.50049069  0.50042614  1
  Ni  Ni40  1  0.33359330  0.33523335  0.66729018  1
  Ni  Ni41  1  0.49899958  0.50046738  0.83454365  1
  Ni  Ni42  1  0.50024427  0.83561839  0.50051049  1
  Ni  Ni43  1  0.33238676  0.66675289  0.66611292  1
  Cr  Cr44  1  0.49910872  0.83367589  0.83540950  1
  Ni  Ni45  1  0.83434619  0.16847680  0.50107237  1
  Ni  Ni46  1  0.66956829  0.00202688  0.66555408  1
  Ni  Ni47  1  0.83570579  0.16748981  0.83369901  1
  Ni  Ni48  1  0.83656253  0.50030098  0.50062147  1
  Ni  Ni49  1  0.66829120  0.33400465  0.66666972  1
  Fe  Fe50  1  0.83637314  0.49993309  0.83495444  1
  Ni  Ni51  1  0.83504081  0.83459221  0.50002941  1
  Cr  Cr52  1  0.66949031  0.66723197  0.66773133  1
  Ni  Ni53  1  0.83673648  0.83616765  0.83540859  1
" 