2905,Ni86Fe2Cr10_19,-235.031150750585, 166.990585559223,Ni86Fe2Cr10,"# generated using pymatgen
 data_Cr7FeNi46
_symmetry_space_group_name_H-M   'P 1'
_cell_length_a   7.46433781
_cell_length_b   7.46433781
_cell_length_c   10.55616777
_cell_angle_alpha   90.00000000
_cell_angle_beta   90.00000000
_cell_angle_gamma   90.00000000
_symmetry_Int_Tables_number   1
_chemical_formula_structural   Cr7FeNi46
_chemical_formula_sum   'Cr7 Fe1 Ni46'
_cell_volume   588.15102142
_cell_formula_units_Z   1
loop_
 _symmetry_equiv_pos_site_id
 _symmetry_equiv_pos_as_xyz
  1  'x, y, z'
loop_
 _atom_site_type_symbol
 _atom_site_label
 _atom_site_symmetry_multiplicity
 _atom_site_fract_x
 _atom_site_fract_y
 _atom_site_fract_z
 _atom_site_occupancy
  Ni  Ni0  1  0.00114978  0.00059947  0.99925723  1
  Ni  Ni1  1  0.16596064  0.16596369  0.16780187  1
  Ni  Ni2  1  0.00103197  0.00277574  0.33454687  1
  Ni  Ni3  1  0.99822290  0.33368777  0.00043208  1
  Ni  Ni4  1  0.16599383  0.49936820  0.16574542  1
  Ni  Ni5  1  0.99988349  0.33172062  0.33333829  1
  Ni  Ni6  1  0.00115107  0.66625295  0.99925763  1
  Ni  Ni7  1  0.16889384  0.83521664  0.16478785  1
  Cr  Cr8  1  0.99950537  0.66628610  0.33414374  1
  Ni  Ni9  1  0.33271124  0.99898999  0.00159492  1
  Ni  Ni10  1  0.50089452  0.16575859  0.16740270  1
  Ni  Ni11  1  0.33366886  0.00201089  0.33297195  1
  Cr  Cr12  1  0.33409515  0.33326220  0.99948965  1
  Ni  Ni13  1  0.50187310  0.50062998  0.16661031  1
  Ni  Ni14  1  0.33386546  0.33156158  0.33412591  1
  Ni  Ni15  1  0.33254106  0.66798670  0.00104040  1
  Ni  Ni16  1  0.49918492  0.83415430  0.16620665  1
  Cr  Cr17  1  0.33447790  0.66725266  0.33309084  1
  Ni  Ni18  1  0.66671317  0.00195847  0.99991529  1
  Ni  Ni19  1  0.83369473  0.16866737  0.16681099  1
  Ni  Ni20  1  0.66585429  0.00146360  0.33472988  1
  Ni  Ni21  1  0.66847716  0.33352547  0.00039149  1
  Ni  Ni22  1  0.83266540  0.49770272  0.16602097  1
  Ni  Ni23  1  0.66679490  0.33321874  0.33296953  1
  Ni  Ni24  1  0.66686348  0.66506028  0.00046334  1
  Cr  Cr25  1  0.83249897  0.83422744  0.16573920  1
  Ni  Ni26  1  0.66600113  0.66585898  0.33454083  1
  Ni  Ni27  1  0.16580359  0.16762693  0.49940033  1
  Ni  Ni28  1  0.99880666  0.99976387  0.66676891  1
  Ni  Ni29  1  0.16457825  0.16672665  0.83333782  1
  Ni  Ni30  1  0.16681127  0.49856792  0.50242970  1
  Ni  Ni31  1  0.00183491  0.33383810  0.66677123  1
  Ni  Ni32  1  0.16561232  0.50112082  0.83233167  1
  Ni  Ni33  1  0.16609822  0.83436672  0.50097157  1
  Ni  Ni34  1  0.00046617  0.66693002  0.66695010  1
  Ni  Ni35  1  0.16503131  0.83270564  0.83475336  1
  Ni  Ni36  1  0.50022908  0.16645378  0.49876325  1
  Cr  Cr37  1  0.33296339  0.00150748  0.66600712  1
  Ni  Ni38  1  0.50145080  0.16718801  0.83437712  1
  Ni  Ni39  1  0.50021566  0.50077912  0.50058267  1
  Ni  Ni40  1  0.33203454  0.33539921  0.66671478  1
  Ni  Ni41  1  0.50046368  0.50067684  0.83333576  1
  Ni  Ni42  1  0.50214258  0.83331817  0.49978174  1
  Ni  Ni43  1  0.33238983  0.66439911  0.66617068  1
  Cr  Cr44  1  0.50052979  0.83265283  0.83453528  1
  Ni  Ni45  1  0.83452219  0.16569343  0.49919819  1
  Ni  Ni46  1  0.66924097  0.99940957  0.66594014  1
  Ni  Ni47  1  0.83453339  0.16660519  0.83455149  1
  Ni  Ni48  1  0.83349025  0.50048827  0.49977087  1
  Cr  Cr49  1  0.66629412  0.33298816  0.66745429  1
  Ni  Ni50  1  0.83447182  0.50021933  0.83475495  1
  Ni  Ni51  1  0.83230839  0.83435279  0.50203980  1
  Ni  Ni52  1  0.66771165  0.66736693  0.66555882  1
  Fe  Fe53  1  0.83509873  0.83349587  0.83312441  1
" 