4218,Ni86Fe2Cr11_14,-235.046101531768, 166.087495970453,Ni86Fe2Cr11,"# generated using pymatgen
 data_Cr7FeNi46
_symmetry_space_group_name_H-M   'P 1'
_cell_length_a   7.46696239
_cell_length_b   7.46696239
_cell_length_c   10.55987948
_cell_angle_alpha   90.00000000
_cell_angle_beta   90.00000000
_cell_angle_gamma   90.00000000
_symmetry_Int_Tables_number   1
_chemical_formula_structural   Cr7FeNi46
_chemical_formula_sum   'Cr7 Fe1 Ni46'
_cell_volume   588.77164865
_cell_formula_units_Z   1
loop_
 _symmetry_equiv_pos_site_id
 _symmetry_equiv_pos_as_xyz
  1  'x, y, z'
loop_
 _atom_site_type_symbol
 _atom_site_label
 _atom_site_symmetry_multiplicity
 _atom_site_fract_x
 _atom_site_fract_y
 _atom_site_fract_z
 _atom_site_occupancy
  Cr  Cr0  1  0.00059990  0.99901541  0.00127671  1
  Ni  Ni1  1  0.16667067  0.16844071  0.16691153  1
  Ni  Ni2  1  0.99810647  0.99977971  0.33301327  1
  Ni  Ni3  1  0.00134633  0.33490397  0.00044990  1
  Ni  Ni4  1  0.16737596  0.49881407  0.16563298  1
  Ni  Ni5  1  0.00219660  0.33233613  0.33388900  1
  Ni  Ni6  1  0.00068001  0.66611203  0.99967300  1
  Ni  Ni7  1  0.16428860  0.83276187  0.16584813  1
  Ni  Ni8  1  0.99911340  0.66790145  0.33366220  1
  Ni  Ni9  1  0.33429708  0.00084248  0.99917156  1
  Ni  Ni10  1  0.49967056  0.16819942  0.16467826  1
  Cr  Cr11  1  0.33237343  0.00206479  0.33392010  1
  Ni  Ni12  1  0.33402457  0.33336401  0.00101833  1
  Ni  Ni13  1  0.49818362  0.49827350  0.16529846  1
  Ni  Ni14  1  0.33183565  0.33350965  0.33282739  1
  Ni  Ni15  1  0.33284757  0.66581032  0.99971199  1
  Cr  Cr16  1  0.50150269  0.83320448  0.16511725  1
  Cr  Cr17  1  0.33274461  0.66423858  0.33408094  1
  Ni  Ni18  1  0.66494961  0.00017685  0.00073896  1
  Ni  Ni19  1  0.83367548  0.16511387  0.16681975  1
  Ni  Ni20  1  0.66970814  0.99924595  0.33366424  1
  Ni  Ni21  1  0.66464846  0.33345343  0.00023450  1
  Cr  Cr22  1  0.83410863  0.50081837  0.16586725  1
  Cr  Cr23  1  0.66545603  0.33272151  0.33407852  1
  Ni  Ni24  1  0.66648916  0.66638684  0.99874967  1
  Ni  Ni25  1  0.83421518  0.83424869  0.16769521  1
  Ni  Ni26  1  0.66853478  0.66826914  0.33484126  1
  Ni  Ni27  1  0.16589314  0.16766179  0.50042846  1
  Ni  Ni28  1  0.00099509  0.99922585  0.66540783  1
  Ni  Ni29  1  0.16912111  0.16682874  0.83267587  1
  Ni  Ni30  1  0.16589204  0.49899905  0.50053375  1
  Ni  Ni31  1  0.00056590  0.33378813  0.66567667  1
  Fe  Fe32  1  0.16687352  0.50030634  0.83343940  1
  Ni  Ni33  1  0.16522364  0.83335637  0.50132293  1
  Ni  Ni34  1  0.99990003  0.66700352  0.66668105  1
  Ni  Ni35  1  0.16775010  0.83299964  0.83284588  1
  Ni  Ni36  1  0.49985513  0.16671098  0.50148838  1
  Ni  Ni37  1  0.33318403  0.00006211  0.66695517  1
  Ni  Ni38  1  0.49796428  0.16670472  0.83385075  1
  Ni  Ni39  1  0.50007959  0.50017407  0.50092573  1
  Ni  Ni40  1  0.33361553  0.33295262  0.66617027  1
  Ni  Ni41  1  0.50072704  0.50036031  0.83379392  1
  Ni  Ni42  1  0.50169944  0.83313271  0.50167610  1
  Ni  Ni43  1  0.33344480  0.66700247  0.66647029  1
  Ni  Ni44  1  0.49950544  0.83295190  0.83349425  1
  Ni  Ni45  1  0.83426962  0.16604381  0.50035130  1
  Ni  Ni46  1  0.66583795  0.99939604  0.66561400  1
  Cr  Cr47  1  0.83297087  0.16807672  0.83259995  1
  Ni  Ni48  1  0.83404590  0.50084182  0.50084033  1
  Ni  Ni49  1  0.66583703  0.33404779  0.66595081  1
  Ni  Ni50  1  0.83288582  0.50173130  0.83349433  1
  Ni  Ni51  1  0.83309458  0.83313138  0.49930570  1
  Ni  Ni52  1  0.66667275  0.66657281  0.66642879  1
  Ni  Ni53  1  0.83276056  0.83023796  0.83301592  1
" 