6437,Ni86Fe2Cr11_9,-234.954788698892, 164.700829893888,Ni86Fe2Cr11,"# generated using pymatgen
 data_Cr7FeNi46
_symmetry_space_group_name_H-M   'P 1'
_cell_length_a   7.46382682
_cell_length_b   7.46382682
_cell_length_c   10.55544512
_cell_angle_alpha   90.00000000
_cell_angle_beta   90.00000000
_cell_angle_gamma   90.00000000
_symmetry_Int_Tables_number   1
_chemical_formula_structural   Cr7FeNi46
_chemical_formula_sum   'Cr7 Fe1 Ni46'
_cell_volume   588.03024038
_cell_formula_units_Z   1
loop_
 _symmetry_equiv_pos_site_id
 _symmetry_equiv_pos_as_xyz
  1  'x, y, z'
loop_
 _atom_site_type_symbol
 _atom_site_label
 _atom_site_symmetry_multiplicity
 _atom_site_fract_x
 _atom_site_fract_y
 _atom_site_fract_z
 _atom_site_occupancy
  Ni  Ni0  1  0.99930607  0.00123749  0.99872529  1
  Ni  Ni1  1  0.16680790  0.16821929  0.16687544  1
  Ni  Ni2  1  0.99935065  0.00126637  0.33477665  1
  Ni  Ni3  1  0.00143781  0.33282175  0.99987477  1
  Ni  Ni4  1  0.16881277  0.49833811  0.16724755  1
  Ni  Ni5  1  0.00144107  0.33269623  0.33387442  1
  Ni  Ni6  1  1.00017548  0.66656576  0.99787254  1
  Cr  Cr7  1  0.16681546  0.83366593  0.16694228  1
  Ni  Ni8  1  1.00020089  0.66665745  0.33599623  1
  Ni  Ni9  1  0.33364121  0.00232882  0.00030539  1
  Ni  Ni10  1  0.50033960  0.16704551  0.16730608  1
  Ni  Ni11  1  0.33437182  0.00108548  0.33430958  1
  Ni  Ni12  1  0.33336952  0.33348584  1.00005855  1
  Ni  Ni13  1  0.49895817  0.50002293  0.16659403  1
  Ni  Ni14  1  0.33315095  0.33374144  0.33344743  1
  Ni  Ni15  1  0.33340956  0.66480507  1.00010027  1
  Ni  Ni16  1  0.50147276  0.83362934  0.16702030  1
  Ni  Ni17  1  0.33450293  0.66591136  0.33449079  1
  Ni  Ni18  1  0.66770121  0.00116347  0.00134673  1
  Ni  Ni19  1  0.83349885  0.16554171  0.16687692  1
  Ni  Ni20  1  0.66695637  0.99991091  0.33328045  1
  Ni  Ni21  1  0.66592123  0.33262178  0.99857746  1
  Cr  Cr22  1  0.83381322  0.49955069  0.16751405  1
  Ni  Ni23  1  0.66605581  0.33281805  0.33501384  1
  Ni  Ni24  1  0.66705815  0.66690895  0.00051357  1
  Ni  Ni25  1  0.83183183  0.83546643  0.16696346  1
  Ni  Ni26  1  0.66595687  0.66792723  0.33409550  1
  Ni  Ni27  1  0.16603329  0.16676994  0.49843284  1
  Ni  Ni28  1  0.00029289  0.99880997  0.66708195  1
  Ni  Ni29  1  0.16684829  0.16679184  0.83536746  1
  Ni  Ni30  1  0.16825804  0.50059243  0.49920318  1
  Cr  Cr31  1  0.00024993  0.33374639  0.66721937  1
  Ni  Ni32  1  0.16801186  0.50091215  0.83426859  1
  Ni  Ni33  1  0.16645649  0.83326515  0.50024786  1
  Ni  Ni34  1  0.00194083  0.66816815  0.66678788  1
  Ni  Ni35  1  0.16440403  0.83292264  0.83339346  1
  Fe  Fe36  1  0.50001564  0.16875807  0.49853100  1
  Cr  Cr37  1  0.33102780  0.00135998  0.66592962  1
  Ni  Ni38  1  0.50028987  0.17066615  0.83428839  1
  Ni  Ni39  1  0.49942022  0.49969648  0.49987964  1
  Ni  Ni40  1  0.33460082  0.33537385  0.66702745  1
  Ni  Ni41  1  0.49935764  0.49736658  0.83413436  1
  Ni  Ni42  1  0.49898378  0.83175911  0.49697834  1
  Ni  Ni43  1  0.33098376  0.66421557  0.66599710  1
  Cr  Cr44  1  0.49862386  0.83268171  0.83662469  1
  Ni  Ni45  1  0.83417846  0.16714648  0.49862446  1
  Cr  Cr46  1  0.66952362  0.00247204  0.66596627  1
  Ni  Ni47  1  0.83351467  0.16717449  0.83517721  1
  Ni  Ni48  1  0.83293043  0.49940862  0.49880683  1
  Ni  Ni49  1  0.66534644  0.33374789  0.66698297  1
  Ni  Ni50  1  0.83326598  0.49963263  0.83472816  1
  Ni  Ni51  1  0.83522177  0.83415792  0.49843028  1
  Cr  Cr52  1  0.66835915  0.66475028  0.66627494  1
  Ni  Ni53  1  0.83715329  0.83387110  0.83526717  1
" 