3352,Ni86Fe2Cr10_3,-235.066293380582, 164.922639012686,Ni86Fe2Cr10,"# generated using pymatgen
 data_Cr7FeNi46
_symmetry_space_group_name_H-M   'P 1'
_cell_length_a   7.46697269
_cell_length_b   7.46697269
_cell_length_c   10.55989405
_cell_angle_alpha   90.00000000
_cell_angle_beta   90.00000000
_cell_angle_gamma   90.00000000
_symmetry_Int_Tables_number   1
_chemical_formula_structural   Cr7FeNi46
_chemical_formula_sum   'Cr7 Fe1 Ni46'
_cell_volume   588.77408513
_cell_formula_units_Z   1
loop_
 _symmetry_equiv_pos_site_id
 _symmetry_equiv_pos_as_xyz
  1  'x, y, z'
loop_
 _atom_site_type_symbol
 _atom_site_label
 _atom_site_symmetry_multiplicity
 _atom_site_fract_x
 _atom_site_fract_y
 _atom_site_fract_z
 _atom_site_occupancy
  Ni  Ni0  1  0.00154388  0.99871468  0.00099688  1
  Ni  Ni1  1  0.16626723  0.16699751  0.16604076  1
  Ni  Ni2  1  0.00327171  0.00051961  0.33270329  1
  Ni  Ni3  1  0.00301316  0.33436653  0.00119966  1
  Ni  Ni4  1  0.16478514  0.49975736  0.16652276  1
  Ni  Ni5  1  0.00182571  0.33383944  0.33313128  1
  Ni  Ni6  1  0.00086257  0.66700243  0.99962728  1
  Ni  Ni7  1  0.16645538  0.83313459  0.16693678  1
  Ni  Ni8  1  0.00150334  0.66579230  0.33261632  1
  Ni  Ni9  1  0.33279955  0.99957660  0.99963521  1
  Ni  Ni10  1  0.49681406  0.16465929  0.16521003  1
  Ni  Ni11  1  0.33034704  0.00059589  0.33253329  1
  Ni  Ni12  1  0.33075010  0.33251178  0.99887043  1
  Cr  Cr13  1  0.49568624  0.50211896  0.16739662  1
  Ni  Ni14  1  0.33059000  0.33220240  0.33433898  1
  Ni  Ni15  1  0.33177642  0.66786256  0.99882697  1
  Ni  Ni16  1  0.49908657  0.83356783  0.16546714  1
  Ni  Ni17  1  0.33041589  0.66706973  0.33365965  1
  Ni  Ni18  1  0.66581771  0.99785902  0.00104983  1
  Ni  Ni19  1  0.83685426  0.16563842  0.16585256  1
  Cr  Cr20  1  0.66641472  0.00085571  0.33074645  1
  Cr  Cr21  1  0.66643327  0.33333004  0.00039709  1
  Ni  Ni22  1  0.83643987  0.50182487  0.16594713  1
  Cr  Cr23  1  0.66793212  0.33362827  0.33470312  1
  Ni  Ni24  1  0.66748643  0.66908303  0.99929000  1
  Ni  Ni25  1  0.83461813  0.83265816  0.16556122  1
  Ni  Ni26  1  0.66792575  0.66554484  0.33212724  1
  Ni  Ni27  1  0.16618815  0.16720735  0.50041543  1
  Ni  Ni28  1  0.00255616  0.99975198  0.66639963  1
  Ni  Ni29  1  0.16782795  0.16746857  0.83363409  1
  Ni  Ni30  1  0.16692128  0.49969287  0.49950704  1
  Ni  Ni31  1  0.00133996  0.33460522  0.66567566  1
  Ni  Ni32  1  0.16769247  0.49983441  0.83392913  1
  Ni  Ni33  1  0.16641009  0.83317599  0.50027632  1
  Ni  Ni34  1  0.00150929  0.66591831  0.66783604  1
  Ni  Ni35  1  0.16616141  0.83292013  0.83278362  1
  Ni  Ni36  1  0.49785271  0.16832320  0.50229829  1
  Ni  Ni37  1  0.33193428  0.00059782  0.66783782  1
  Ni  Ni38  1  0.49814577  0.16650632  0.83254198  1
  Ni  Ni39  1  0.49858745  0.49930647  0.50069280  1
  Ni  Ni40  1  0.33305257  0.33346859  0.66678356  1
  Ni  Ni41  1  0.49780066  0.50111669  0.83219519  1
  Cr  Cr42  1  0.49755644  0.83165361  0.50037261  1
  Ni  Ni43  1  0.33187238  0.66607039  0.66741013  1
  Ni  Ni44  1  0.50025857  0.83253924  0.83367728  1
  Ni  Ni45  1  0.83581712  0.16826676  0.50185220  1
  Ni  Ni46  1  0.66556534  0.00096755  0.66777207  1
  Cr  Cr47  1  0.83615500  0.16456295  0.83210855  1
  Ni  Ni48  1  0.83465962  0.49953228  0.50152596  1
  Ni  Ni49  1  0.66577293  0.33416141  0.66529354  1
  Fe  Fe50  1  0.83458078  0.50143813  0.83281253  1
  Cr  Cr51  1  0.83598848  0.83339902  0.50116117  1
  Ni  Ni52  1  0.66682243  0.66476218  0.66870800  1
  Ni  Ni53  1  0.83352536  0.83231160  0.83338233  1
" 