5775,Ni86Fe8Cr5_15,-238.449267128439, 181.789744138395,Ni86Fe8Cr5,"# generated using pymatgen
 data_Cr2Fe2Ni23
_symmetry_space_group_name_H-M   'P 1'
_cell_length_a   7.44976575
_cell_length_b   7.44976575
_cell_length_c   10.53555976
_cell_angle_alpha   90.00000000
_cell_angle_beta   90.00000000
_cell_angle_gamma   90.00000000
_symmetry_Int_Tables_number   1
_chemical_formula_structural   Cr2Fe2Ni23
_chemical_formula_sum   'Cr4 Fe4 Ni46'
_cell_volume   584.71313421
_cell_formula_units_Z   2
loop_
 _symmetry_equiv_pos_site_id
 _symmetry_equiv_pos_as_xyz
  1  'x, y, z'
loop_
 _atom_site_type_symbol
 _atom_site_label
 _atom_site_symmetry_multiplicity
 _atom_site_fract_x
 _atom_site_fract_y
 _atom_site_fract_z
 _atom_site_occupancy
  Ni  Ni0  1  1.00074194  1.00004639  0.00179365  1
  Ni  Ni1  1  0.16929629  0.16865436  0.16796845  1
  Ni  Ni2  1  0.00203205  0.00236041  0.33295759  1
  Fe  Fe3  1  0.00195383  0.33299696  0.00136900  1
  Ni  Ni4  1  0.16606624  0.50000274  0.16670002  1
  Ni  Ni5  1  1.00098946  0.33433206  0.33348564  1
  Ni  Ni6  1  0.00173576  0.66836313  1.00087292  1
  Ni  Ni7  1  0.16775094  0.83438779  0.16762147  1
  Ni  Ni8  1  1.00106058  0.66673757  0.33399906  1
  Ni  Ni9  1  0.33408085  0.00126417  0.00119437  1
  Ni  Ni10  1  0.50108684  0.16706565  0.16788346  1
  Ni  Ni11  1  0.33433328  0.00239809  0.33400511  1
  Ni  Ni12  1  0.33621168  0.33484646  0.00146460  1
  Fe  Fe13  1  0.50150990  0.49974083  0.16603920  1
  Ni  Ni14  1  0.33502344  0.33338742  0.33393340  1
  Ni  Ni15  1  0.33295324  0.66722982  1.00075737  1
  Ni  Ni16  1  0.50187355  0.83677582  0.16667849  1
  Cr  Cr17  1  0.33448180  0.66673743  0.33431681  1
  Ni  Ni18  1  0.66863837  0.00322690  1.00053650  1
  Ni  Ni19  1  0.83340612  0.16861822  0.16847178  1
  Ni  Ni20  1  0.66718200  0.00261934  0.33357156  1
  Ni  Ni21  1  0.66760758  0.33407734  1.00084905  1
  Ni  Ni22  1  0.83542502  0.50112162  0.16768819  1
  Ni  Ni23  1  0.66747128  0.33464912  0.33479377  1
  Fe  Fe24  1  0.66692418  0.66863151  0.00125323  1
  Ni  Ni25  1  0.83371872  0.83375226  0.16821950  1
  Ni  Ni26  1  0.66800001  0.66600280  0.33201734  1
  Ni  Ni27  1  0.16965518  0.17007746  0.49968425  1
  Cr  Cr28  1  0.00149697  0.00248015  0.66894793  1
  Ni  Ni29  1  0.16981550  0.16932341  0.83593120  1
  Ni  Ni30  1  0.16589138  0.49942087  0.50245576  1
  Ni  Ni31  1  1.00088804  0.33554674  0.66909607  1
  Ni  Ni32  1  0.16784695  0.50081135  0.83435576  1
  Ni  Ni33  1  0.17042155  0.83390972  0.50099668  1
  Ni  Ni34  1  0.00353896  0.66566965  0.66855735  1
  Ni  Ni35  1  0.16924320  0.83317946  0.83493890  1
  Ni  Ni36  1  0.50072211  0.16698405  0.50137483  1
  Ni  Ni37  1  0.33536765  0.00139099  0.66826485  1
  Ni  Ni38  1  0.50079443  0.16789984  0.83415927  1
  Fe  Fe39  1  0.50089293  0.49936865  0.50188385  1
  Ni  Ni40  1  0.33473582  0.33458899  0.66811337  1
  Ni  Ni41  1  0.50005623  0.49986917  0.83539652  1
  Ni  Ni42  1  0.49992912  0.83740396  0.50131084  1
  Ni  Ni43  1  0.33291203  0.66741946  0.66832234  1
  Ni  Ni44  1  0.49975920  0.83603170  0.83536405  1
  Ni  Ni45  1  0.83306699  0.17149545  0.49999571  1
  Ni  Ni46  1  0.66592357  0.00407800  0.66934122  1
  Ni  Ni47  1  0.83304903  0.16947375  0.83523499  1
  Ni  Ni48  1  0.83649531  0.49871725  0.50024914  1
  Ni  Ni49  1  0.66786606  0.33300053  0.66785216  1
  Ni  Ni50  1  0.83586341  0.50002629  0.83557708  1
  Cr  Cr51  1  0.83358784  0.83385942  0.49835359  1
  Cr  Cr52  1  0.66717696  0.66656979  0.66983751  1
  Ni  Ni53  1  0.83408280  0.83401190  0.83659746  1
" 