5562,Ni86Fe2Cr10_10,-235.153568030324, 167.641054184844,Ni86Fe2Cr10,"# generated using pymatgen
 data_Cr7FeNi46
_symmetry_space_group_name_H-M   'P 1'
_cell_length_a   7.46450152
_cell_length_b   7.46450152
_cell_length_c   10.55639929
_cell_angle_alpha   90.00000000
_cell_angle_beta   90.00000000
_cell_angle_gamma   90.00000000
_symmetry_Int_Tables_number   1
_chemical_formula_structural   Cr7FeNi46
_chemical_formula_sum   'Cr7 Fe1 Ni46'
_cell_volume   588.18972090
_cell_formula_units_Z   1
loop_
 _symmetry_equiv_pos_site_id
 _symmetry_equiv_pos_as_xyz
  1  'x, y, z'
loop_
 _atom_site_type_symbol
 _atom_site_label
 _atom_site_symmetry_multiplicity
 _atom_site_fract_x
 _atom_site_fract_y
 _atom_site_fract_z
 _atom_site_occupancy
  Ni  Ni0  1  0.00106866  0.99900422  0.00123975  1
  Ni  Ni1  1  0.16698497  0.16668204  0.16617378  1
  Ni  Ni2  1  0.99953849  0.99923936  0.33270577  1
  Ni  Ni3  1  0.00211152  0.33332407  0.00022754  1
  Ni  Ni4  1  0.16820538  0.50066990  0.16718575  1
  Ni  Ni5  1  0.00184067  0.33322504  0.33376084  1
  Ni  Ni6  1  0.00123309  0.66811281  0.99909667  1
  Ni  Ni7  1  0.16711874  0.83311143  0.16700202  1
  Ni  Ni8  1  0.00088393  0.66812371  0.33452007  1
  Ni  Ni9  1  0.33330398  1.00007585  0.99983807  1
  Ni  Ni10  1  0.49933634  0.16571529  0.16587469  1
  Ni  Ni11  1  0.33305407  0.99837368  0.33192998  1
  Ni  Ni12  1  0.33343203  0.33348504  0.00060719  1
  Ni  Ni13  1  0.49762358  0.50124069  0.16588100  1
  Ni  Ni14  1  0.33176788  0.33509059  0.33140732  1
  Ni  Ni15  1  0.33333246  0.66693245  1.00005884  1
  Ni  Ni16  1  0.49967403  0.83358679  0.16687241  1
  Ni  Ni17  1  0.33342742  0.66703905  0.33398878  1
  Ni  Ni18  1  0.66619233  0.99916326  0.00122336  1
  Ni  Ni19  1  0.83424121  0.16483437  0.16663636  1
  Ni  Ni20  1  0.66794327  0.99757764  0.33289054  1
  Ni  Ni21  1  0.66508455  0.33336207  0.99964653  1
  Cr  Cr22  1  0.83476277  0.50202147  0.16474351  1
  Cr  Cr23  1  0.66683405  0.33360351  0.33396550  1
  Ni  Ni24  1  0.66588966  0.66807230  0.99930382  1
  Ni  Ni25  1  0.83369350  0.83496177  0.16644282  1
  Ni  Ni26  1  0.66617417  0.66941194  0.33417511  1
  Cr  Cr27  1  0.16529131  0.16535805  0.50001374  1
  Ni  Ni28  1  1.00008578  0.99811756  0.66668406  1
  Fe  Fe29  1  0.16717662  0.16590331  0.83477308  1
  Ni  Ni30  1  0.16580962  0.50275685  0.49917175  1
  Ni  Ni31  1  0.99887015  0.33521734  0.66640361  1
  Ni  Ni32  1  0.16591670  0.50207926  0.83422245  1
  Ni  Ni33  1  0.16702189  0.83170900  0.50049262  1
  Ni  Ni34  1  0.00152177  0.66713750  0.66686573  1
  Ni  Ni35  1  0.16707263  0.83251336  0.83305140  1
  Cr  Cr36  1  0.50114618  0.16418219  0.50062179  1
  Ni  Ni37  1  0.33328307  0.99688523  0.66877149  1
  Ni  Ni38  1  0.50018320  0.16572394  0.83417338  1
  Ni  Ni39  1  0.49905003  0.50255496  0.49937796  1
  Cr  Cr40  1  0.33361643  0.33593723  0.66856992  1
  Ni  Ni41  1  0.49967838  0.50004577  0.83521707  1
  Ni  Ni42  1  0.49889856  0.83292892  0.49963757  1
  Ni  Ni43  1  0.33191414  0.66838284  0.66645408  1
  Ni  Ni44  1  0.49873887  0.83469348  0.83398336  1
  Ni  Ni45  1  0.83434141  0.16589785  0.50088190  1
  Ni  Ni46  1  0.66720350  0.99955025  0.66646629  1
  Cr  Cr47  1  0.83269001  0.16681219  0.83309591  1
  Ni  Ni48  1  0.83560995  0.50025713  0.50099143  1
  Ni  Ni49  1  0.66826701  0.33380751  0.66680936  1
  Ni  Ni50  1  0.83495042  0.50040536  0.83403671  1
  Ni  Ni51  1  0.83458115  0.83434666  0.49947558  1
  Cr  Cr52  1  0.66677557  0.66679365  0.66695375  1
  Ni  Ni53  1  0.83476238  0.83317178  0.83461546  1
" 