5224,Ni86Fe2Cr10_12,-235.064775110201, 166.830092369593,Ni86Fe2Cr10,"# generated using pymatgen
 data_Cr7FeNi46
_symmetry_space_group_name_H-M   'P 1'
_cell_length_a   7.46614122
_cell_length_b   7.46614122
_cell_length_c   10.55871817
_cell_angle_alpha   90.00000000
_cell_angle_beta   90.00000000
_cell_angle_gamma   90.00000000
_symmetry_Int_Tables_number   1
_chemical_formula_structural   Cr7FeNi46
_chemical_formula_sum   'Cr7 Fe1 Ni46'
_cell_volume   588.57742121
_cell_formula_units_Z   1
loop_
 _symmetry_equiv_pos_site_id
 _symmetry_equiv_pos_as_xyz
  1  'x, y, z'
loop_
 _atom_site_type_symbol
 _atom_site_label
 _atom_site_symmetry_multiplicity
 _atom_site_fract_x
 _atom_site_fract_y
 _atom_site_fract_z
 _atom_site_occupancy
  Ni  Ni0  1  0.00086465  0.00287543  0.99934566  1
  Ni  Ni1  1  0.16475966  0.16826044  0.16618543  1
  Ni  Ni2  1  0.99840463  0.00101468  0.33364362  1
  Ni  Ni3  1  0.00056817  0.33128472  0.00057024  1
  Ni  Ni4  1  0.16735913  0.49777768  0.16748502  1
  Ni  Ni5  1  0.00061544  0.33274800  0.33281821  1
  Cr  Cr6  1  0.99919040  0.66611115  0.99880660  1
  Cr  Cr7  1  0.16738530  0.83424825  0.16715147  1
  Ni  Ni8  1  0.99944872  0.66642011  0.33492402  1
  Ni  Ni9  1  0.33166348  0.00018836  0.99861664  1
  Cr  Cr10  1  0.49940652  0.16765170  0.16735912  1
  Fe  Fe11  1  0.33340777  0.00007266  0.33504975  1
  Ni  Ni12  1  0.33218011  0.33419459  0.99916545  1
  Ni  Ni13  1  0.50042047  0.50178315  0.16626520  1
  Ni  Ni14  1  0.33218283  0.33479056  0.33416847  1
  Ni  Ni15  1  0.33603011  0.66579836  0.99916407  1
  Ni  Ni16  1  0.50102735  0.83065601  0.16718567  1
  Ni  Ni17  1  0.33434992  0.66537555  0.33399928  1
  Cr  Cr18  1  0.66775917  0.99866392  0.99905125  1
  Ni  Ni19  1  0.83589097  0.16765264  0.16726121  1
  Ni  Ni20  1  0.66843220  0.99884783  0.33452701  1
  Ni  Ni21  1  0.66743473  0.33565038  0.99899135  1
  Ni  Ni22  1  0.83240287  0.49927871  0.16729557  1
  Ni  Ni23  1  0.66738385  0.33374792  0.33439580  1
  Ni  Ni24  1  0.66474326  0.66549865  0.00074185  1
  Ni  Ni25  1  0.83189053  0.83325035  0.16826224  1
  Ni  Ni26  1  0.66638558  0.66758606  0.33247509  1
  Ni  Ni27  1  0.16840418  0.16659763  0.49814839  1
  Cr  Cr28  1  0.99963464  0.99862161  0.66733184  1
  Ni  Ni29  1  0.16829785  0.16628817  0.83584219  1
  Ni  Ni30  1  0.16732282  0.50122840  0.49947323  1
  Cr  Cr31  1  0.00036401  0.33487011  0.66660810  1
  Ni  Ni32  1  0.16811134  0.50044665  0.83322312  1
  Ni  Ni33  1  0.16723810  0.83235530  0.49990537  1
  Ni  Ni34  1  0.00187028  0.66698393  0.66643748  1
  Ni  Ni35  1  0.16812671  0.83344804  0.83309239  1
  Ni  Ni36  1  0.50033034  0.16677957  0.50089945  1
  Ni  Ni37  1  0.33520213  1.00001299  0.66657063  1
  Ni  Ni38  1  0.49944330  0.16745320  0.83187360  1
  Ni  Ni39  1  0.49925992  0.49890635  0.49925216  1
  Ni  Ni40  1  0.33503029  0.33341774  0.66685009  1
  Ni  Ni41  1  0.49945918  0.49911441  0.83466792  1
  Ni  Ni42  1  0.49916323  0.83449846  0.49915143  1
  Ni  Ni43  1  0.33185488  0.66675027  0.66702224  1
  Ni  Ni44  1  0.49827553  0.83361211  0.83384174  1
  Ni  Ni45  1  0.83145313  0.16669870  0.49847357  1
  Ni  Ni46  1  0.66501767  0.00151724  0.66666820  1
  Ni  Ni47  1  0.83244083  0.16747515  0.83444963  1
  Ni  Ni48  1  0.83360112  0.50006298  0.49861246  1
  Ni  Ni49  1  0.66479318  0.33150433  0.66679383  1
  Ni  Ni50  1  0.83261360  0.49927834  0.83427255  1
  Ni  Ni51  1  0.83378012  0.83342160  0.49847943  1
  Cr  Cr52  1  0.66682463  0.66707473  0.66698443  1
  Ni  Ni53  1  0.83377699  0.83343192  0.83344707  1
" 