2317,Ni86Fe2Cr10_4,-234.996811478722, 165.313949747832,Ni86Fe2Cr10,"# generated using pymatgen
 data_Cr7FeNi46
_symmetry_space_group_name_H-M   'P 1'
_cell_length_a   7.46408694
_cell_length_b   7.46408694
_cell_length_c   10.55581299
_cell_angle_alpha   90.00000000
_cell_angle_beta   90.00000000
_cell_angle_gamma   90.00000000
_symmetry_Int_Tables_number   1
_chemical_formula_structural   Cr7FeNi46
_chemical_formula_sum   'Cr7 Fe1 Ni46'
_cell_volume   588.09172253
_cell_formula_units_Z   1
loop_
 _symmetry_equiv_pos_site_id
 _symmetry_equiv_pos_as_xyz
  1  'x, y, z'
loop_
 _atom_site_type_symbol
 _atom_site_label
 _atom_site_symmetry_multiplicity
 _atom_site_fract_x
 _atom_site_fract_y
 _atom_site_fract_z
 _atom_site_occupancy
  Ni  Ni0  1  0.99844741  0.00208003  0.00051944  1
  Ni  Ni1  1  0.16700463  0.16698223  0.16708116  1
  Ni  Ni2  1  0.00114892  0.99788198  0.33191124  1
  Ni  Ni3  1  0.99967853  0.33231341  0.99992620  1
  Ni  Ni4  1  0.16799904  0.49903796  0.16568283  1
  Cr  Cr5  1  0.99989357  0.33473261  0.33246729  1
  Cr  Cr6  1  0.00042228  0.66760386  0.00102251  1
  Ni  Ni7  1  0.16597571  0.83448268  0.16712272  1
  Ni  Ni8  1  0.99862150  0.66874125  0.33400915  1
  Cr  Cr9  1  0.33369670  0.99926401  0.00029988  1
  Ni  Ni10  1  0.50069938  0.16752334  0.16793253  1
  Ni  Ni11  1  0.33355515  0.00133385  0.33399868  1
  Ni  Ni12  1  0.33374872  0.33423396  0.00027045  1
  Ni  Ni13  1  0.50076798  0.49962106  0.16533715  1
  Ni  Ni14  1  0.33521804  0.33187960  0.33394523  1
  Ni  Ni15  1  0.33533921  0.66535316  0.00027298  1
  Ni  Ni16  1  0.50227821  0.83328371  0.16659770  1
  Cr  Cr17  1  0.33266660  0.66762595  0.33256196  1
  Ni  Ni18  1  0.66803699  0.00048361  0.99997056  1
  Ni  Ni19  1  0.83280622  0.16548985  0.16502233  1
  Ni  Ni20  1  0.66581789  0.99970720  0.33250746  1
  Ni  Ni21  1  0.66715490  0.33320052  1.00016939  1
  Ni  Ni22  1  0.83172320  0.50078406  0.16679669  1
  Ni  Ni23  1  0.66469601  0.33411626  0.33251416  1
  Ni  Ni24  1  0.66578950  0.66692747  0.99993462  1
  Ni  Ni25  1  0.83230462  0.83447854  0.16821600  1
  Ni  Ni26  1  0.66812928  0.66679708  0.33393436  1
  Ni  Ni27  1  0.16913962  0.16603187  0.50115247  1
  Ni  Ni28  1  0.00096294  0.99935806  0.66829156  1
  Ni  Ni29  1  0.16611850  0.16859228  0.83230477  1
  Ni  Ni30  1  0.16629852  0.49931476  0.50127154  1
  Ni  Ni31  1  0.00193409  0.33426071  0.66804244  1
  Ni  Ni32  1  0.16712541  0.49748865  0.83370680  1
  Ni  Ni33  1  0.16506135  0.83537565  0.50086011  1
  Ni  Ni34  1  0.99889808  0.66690038  0.66611370  1
  Fe  Fe35  1  0.16597358  0.83421160  0.83294506  1
  Ni  Ni36  1  0.49741186  0.16560322  0.49938939  1
  Ni  Ni37  1  0.33380933  0.00156544  0.66644495  1
  Ni  Ni38  1  0.49942555  0.16634423  0.83319703  1
  Ni  Ni39  1  0.50060505  0.49981975  0.49925286  1
  Ni  Ni40  1  0.33227639  0.33196107  0.66632495  1
  Ni  Ni41  1  0.49962128  0.50066912  0.83586391  1
  Ni  Ni42  1  0.50214873  0.83518006  0.50023460  1
  Cr  Cr43  1  0.33465242  0.66721902  0.66778355  1
  Ni  Ni44  1  0.50322858  0.83336029  0.83371395  1
  Cr  Cr45  1  0.83389656  0.16391960  0.50042960  1
  Ni  Ni46  1  0.66589329  0.99823472  0.66795953  1
  Ni  Ni47  1  0.83495488  0.16524617  0.83496969  1
  Ni  Ni48  1  0.83367914  0.50388802  0.50054551  1
  Cr  Cr49  1  0.66620395  0.33417707  0.66758365  1
  Ni  Ni50  1  0.83409665  0.50114687  0.83327633  1
  Ni  Ni51  1  0.83336120  0.83203667  0.50011585  1
  Ni  Ni52  1  0.66850507  0.66844231  0.66662874  1
  Ni  Ni53  1  0.83180745  0.83440285  0.83228244  1
" 