5675,Ni86Fe8Cr5_7,-238.29673770445, 183.450156767391,Ni86Fe8Cr5,"# generated using pymatgen
 data_Cr2Fe2Ni23
_symmetry_space_group_name_H-M   'P 1'
_cell_length_a   7.45516095
_cell_length_b   7.45516095
_cell_length_c   10.54318973
_cell_angle_alpha   90.00000000
_cell_angle_beta   90.00000000
_cell_angle_gamma   90.00000000
_symmetry_Int_Tables_number   1
_chemical_formula_structural   Cr2Fe2Ni23
_chemical_formula_sum   'Cr4 Fe4 Ni46'
_cell_volume   585.98442119
_cell_formula_units_Z   2
loop_
 _symmetry_equiv_pos_site_id
 _symmetry_equiv_pos_as_xyz
  1  'x, y, z'
loop_
 _atom_site_type_symbol
 _atom_site_label
 _atom_site_symmetry_multiplicity
 _atom_site_fract_x
 _atom_site_fract_y
 _atom_site_fract_z
 _atom_site_occupancy
  Ni  Ni0  1  0.00217303  0.00127901  0.00175591  1
  Ni  Ni1  1  0.16658625  0.16837726  0.16649626  1
  Cr  Cr2  1  0.00091707  1.00066774  0.33414386  1
  Fe  Fe3  1  0.00203185  0.33297681  0.00085496  1
  Ni  Ni4  1  0.16713223  0.50063744  0.16769733  1
  Ni  Ni5  1  0.00099708  0.33560371  0.33321440  1
  Fe  Fe6  1  0.00144605  0.66749001  0.00174432  1
  Ni  Ni7  1  0.16794309  0.83337616  0.16662037  1
  Ni  Ni8  1  0.00093877  0.66591568  0.33390266  1
  Ni  Ni9  1  0.33203636  1.00025035  0.99952450  1
  Cr  Cr10  1  0.49999116  0.16637079  0.16911176  1
  Ni  Ni11  1  0.33465586  1.00004220  0.33493221  1
  Ni  Ni12  1  0.33168632  0.33474132  1.00005585  1
  Ni  Ni13  1  0.50012547  0.50332917  0.16838925  1
  Ni  Ni14  1  0.33348130  0.33531694  0.33451444  1
  Fe  Fe15  1  0.33492195  0.66835412  1.00074164  1
  Ni  Ni16  1  0.50137860  0.83275389  0.16733708  1
  Ni  Ni17  1  0.33436573  0.66703385  0.33315632  1
  Ni  Ni18  1  0.66818501  0.99859564  0.00106822  1
  Ni  Ni19  1  0.83576008  0.16712196  0.16733874  1
  Ni  Ni20  1  0.66679743  0.99998365  0.33401150  1
  Cr  Cr21  1  0.66748683  0.33551842  0.99941424  1
  Ni  Ni22  1  0.83513354  0.50197658  0.16851253  1
  Ni  Ni23  1  0.66791456  0.33531678  0.33489289  1
  Ni  Ni24  1  0.66668089  0.66821884  0.00169325  1
  Ni  Ni25  1  0.83307522  0.83329172  0.16668433  1
  Ni  Ni26  1  0.66708816  0.66709069  0.33369311  1
  Ni  Ni27  1  0.16837598  0.16835339  0.50132907  1
  Ni  Ni28  1  0.00115179  0.00145679  0.66699928  1
  Ni  Ni29  1  0.16783527  0.16784177  0.83456646  1
  Ni  Ni30  1  0.16719012  0.50079832  0.50052313  1
  Ni  Ni31  1  0.00098233  0.33363112  0.66835988  1
  Ni  Ni32  1  0.16771456  0.50026798  0.83417146  1
  Ni  Ni33  1  0.16800332  0.83323940  0.50171560  1
  Ni  Ni34  1  0.00199246  0.66730208  0.66684724  1
  Ni  Ni35  1  0.16918521  0.83428249  0.83405572  1
  Ni  Ni36  1  0.50095533  0.16727295  0.50063680  1
  Fe  Fe37  1  0.33406887  1.00068425  0.66750748  1
  Ni  Ni38  1  0.49996299  0.16683866  0.83322110  1
  Ni  Ni39  1  0.50086792  0.50061107  0.50057589  1
  Ni  Ni40  1  0.33412988  0.33492307  0.66782610  1
  Ni  Ni41  1  0.49996567  0.50115230  0.83342380  1
  Ni  Ni42  1  0.50114175  0.83450822  0.50044874  1
  Ni  Ni43  1  0.33394210  0.66683504  0.66835794  1
  Ni  Ni44  1  0.49949901  0.83440388  0.83460062  1
  Ni  Ni45  1  0.83306373  0.16808231  0.50159270  1
  Ni  Ni46  1  0.66775397  0.00164446  0.66731294  1
  Ni  Ni47  1  0.83459390  0.16830512  0.83346309  1
  Ni  Ni48  1  0.83433317  0.50098489  0.50075453  1
  Ni  Ni49  1  0.66727995  0.33407681  0.66794384  1
  Ni  Ni50  1  0.83471293  0.49980066  0.83312525  1
  Ni  Ni51  1  0.83324968  0.83332371  0.50140606  1
  Ni  Ni52  1  0.66645782  0.66666980  0.66700371  1
  Cr  Cr53  1  0.83370976  0.83412807  0.83377898  1
" 