5635,Ni86Fe2Cr10_11,-234.991164337649, 164.367419997814,Ni86Fe2Cr10,"# generated using pymatgen
 data_Cr7FeNi46
_symmetry_space_group_name_H-M   'P 1'
_cell_length_a   7.46373244
_cell_length_b   7.46373244
_cell_length_c   10.55531165
_cell_angle_alpha   90.00000000
_cell_angle_beta   90.00000000
_cell_angle_gamma   90.00000000
_symmetry_Int_Tables_number   1
_chemical_formula_structural   Cr7FeNi46
_chemical_formula_sum   'Cr7 Fe1 Ni46'
_cell_volume   588.00793376
_cell_formula_units_Z   1
loop_
 _symmetry_equiv_pos_site_id
 _symmetry_equiv_pos_as_xyz
  1  'x, y, z'
loop_
 _atom_site_type_symbol
 _atom_site_label
 _atom_site_symmetry_multiplicity
 _atom_site_fract_x
 _atom_site_fract_y
 _atom_site_fract_z
 _atom_site_occupancy
  Ni  Ni0  1  0.99879158  0.00160251  0.99931922  1
  Ni  Ni1  1  0.16618189  0.16693479  0.16758160  1
  Ni  Ni2  1  0.99826404  0.00042829  0.33358282  1
  Ni  Ni3  1  0.99876076  0.33328552  0.00044558  1
  Ni  Ni4  1  0.16507756  0.49929287  0.16962126  1
  Ni  Ni5  1  0.00022689  0.33329871  0.33192251  1
  Ni  Ni6  1  0.99772444  0.66584040  0.99906851  1
  Cr  Cr7  1  0.16545777  0.83538746  0.16665882  1
  Ni  Ni8  1  1.00008923  0.66704301  0.33381842  1
  Ni  Ni9  1  0.33472757  0.00115718  0.99934599  1
  Ni  Ni10  1  0.50126890  0.16605681  0.16779130  1
  Ni  Ni11  1  0.33517691  0.00045860  0.33327087  1
  Cr  Cr12  1  0.33280892  0.33204271  0.00081932  1
  Ni  Ni13  1  0.50252757  0.50008626  0.16854812  1
  Ni  Ni14  1  0.33340854  0.33356524  0.33177347  1
  Cr  Cr15  1  0.33465961  0.66692739  0.99903097  1
  Ni  Ni16  1  0.50238580  0.83458503  0.16821835  1
  Ni  Ni17  1  0.33339284  0.66690763  0.33402169  1
  Ni  Ni18  1  0.66714038  1.00015837  1.00017578  1
  Ni  Ni19  1  0.83320246  0.16668859  0.16737030  1
  Ni  Ni20  1  0.66726464  0.00034333  0.33414894  1
  Ni  Ni21  1  0.66852495  0.33316895  0.99999220  1
  Ni  Ni22  1  0.83302214  0.50036556  0.16678966  1
  Ni  Ni23  1  0.66704694  0.33145383  0.33192776  1
  Ni  Ni24  1  0.66843098  0.66733034  0.00056067  1
  Ni  Ni25  1  0.83211912  0.83358728  0.16678784  1
  Ni  Ni26  1  0.66721345  0.66885441  0.33135527  1
  Cr  Cr27  1  0.16727830  0.16681729  0.50001482  1
  Ni  Ni28  1  0.99905741  0.99952601  0.66754876  1
  Ni  Ni29  1  0.16624277  0.16540270  0.83315222  1
  Ni  Ni30  1  0.16734488  0.50236379  0.50020302  1
  Ni  Ni31  1  0.00038893  0.33320707  0.66839541  1
  Ni  Ni32  1  0.16510164  0.50040603  0.83094141  1
  Ni  Ni33  1  0.16630179  0.83268380  0.50058842  1
  Ni  Ni34  1  0.00246881  0.66794563  0.66760379  1
  Ni  Ni35  1  0.16590751  0.83478585  0.83251248  1
  Ni  Ni36  1  0.50152492  0.16578770  0.50042751  1
  Ni  Ni37  1  0.33426535  0.99963375  0.66797440  1
  Ni  Ni38  1  0.50110213  0.16602651  0.83249600  1
  Cr  Cr39  1  0.49854041  0.49762365  0.49972129  1
  Ni  Ni40  1  0.33322521  0.33348981  0.66855926  1
  Ni  Ni41  1  0.50151473  0.49927578  0.83269311  1
  Fe  Fe42  1  0.49931576  0.83548669  0.49955832  1
  Ni  Ni43  1  0.33108742  0.66763190  0.66750040  1
  Ni  Ni44  1  0.50022603  0.83548350  0.83314696  1
  Ni  Ni45  1  0.83158088  0.16483469  0.50043174  1
  Ni  Ni46  1  0.66732187  0.00194568  0.66638152  1
  Ni  Ni47  1  0.83328192  0.16665593  0.83286360  1
  Cr  Cr48  1  0.83514224  0.49872542  0.49965051  1
  Ni  Ni49  1  0.66704038  0.33010873  0.66881710  1
  Ni  Ni50  1  0.83401769  0.49948490  0.83444629  1
  Ni  Ni51  1  0.83551117  0.83572099  0.49910049  1
  Cr  Cr52  1  0.66778563  0.66958095  0.66869233  1
  Ni  Ni53  1  0.83452095  0.83450674  0.83462417  1
" 