5146,Ni86Fe8Cr5_0,-238.284460564545, 182.244988398056,Ni86Fe8Cr5,"# generated using pymatgen
 data_Cr2Fe2Ni23
_symmetry_space_group_name_H-M   'P 1'
_cell_length_a   7.44862850
_cell_length_b   7.44862850
_cell_length_c   10.53395144
_cell_angle_alpha   90.00000000
_cell_angle_beta   90.00000000
_cell_angle_gamma   90.00000000
_symmetry_Int_Tables_number   1
_chemical_formula_structural   Cr2Fe2Ni23
_chemical_formula_sum   'Cr4 Fe4 Ni46'
_cell_volume   584.44539378
_cell_formula_units_Z   2
loop_
 _symmetry_equiv_pos_site_id
 _symmetry_equiv_pos_as_xyz
  1  'x, y, z'
loop_
 _atom_site_type_symbol
 _atom_site_label
 _atom_site_symmetry_multiplicity
 _atom_site_fract_x
 _atom_site_fract_y
 _atom_site_fract_z
 _atom_site_occupancy
  Ni  Ni0  1  0.00130583  0.99956346  1.00061812  1
  Ni  Ni1  1  0.16835188  0.16799357  0.16845575  1
  Ni  Ni2  1  0.00149271  0.00237340  0.33412245  1
  Cr  Cr3  1  0.00168632  0.33423081  0.00131463  1
  Ni  Ni4  1  0.16868005  0.50147337  0.16877279  1
  Ni  Ni5  1  0.00157020  0.33440428  0.33512607  1
  Ni  Ni6  1  1.00117485  0.66961651  1.00098900  1
  Fe  Fe7  1  0.16751241  0.83429421  0.16763226  1
  Ni  Ni8  1  0.00212157  0.66693162  0.33406346  1
  Ni  Ni9  1  0.33479960  1.00123371  0.00150004  1
  Ni  Ni10  1  0.50117078  0.16797984  0.16738797  1
  Fe  Fe11  1  0.33484842  0.00139517  0.33494831  1
  Ni  Ni12  1  0.33614518  0.33459098  1.00093583  1
  Ni  Ni13  1  0.50083791  0.50148555  0.16770771  1
  Ni  Ni14  1  0.33416076  0.33522891  0.33462565  1
  Ni  Ni15  1  0.33499265  0.66788466  1.00039443  1
  Ni  Ni16  1  0.50244330  0.83424410  0.16782928  1
  Ni  Ni17  1  0.33481203  0.66730795  0.33560822  1
  Ni  Ni18  1  0.66760475  1.00071953  1.00068210  1
  Ni  Ni19  1  0.83418750  0.16639270  0.16896832  1
  Ni  Ni20  1  0.66760054  0.00172457  0.33425168  1
  Ni  Ni21  1  0.66587124  0.33472063  1.00084046  1
  Ni  Ni22  1  0.83418974  0.50274218  0.16853182  1
  Ni  Ni23  1  0.66797800  0.33459793  0.33528089  1
  Ni  Ni24  1  0.66754114  0.66826940  0.00162629  1
  Ni  Ni25  1  0.83417825  0.83457513  0.16752338  1
  Ni  Ni26  1  0.66677708  0.66738650  0.33362049  1
  Ni  Ni27  1  0.16850593  0.16756659  0.50073641  1
  Ni  Ni28  1  0.00263222  1.00024705  0.66897025  1
  Ni  Ni29  1  0.16902947  0.16667976  0.83451742  1
  Ni  Ni30  1  0.16876197  0.50204210  0.50060398  1
  Cr  Cr31  1  0.00159409  0.33454214  0.66739915  1
  Ni  Ni32  1  0.17003185  0.50304896  0.83433390  1
  Ni  Ni33  1  0.16898297  0.83409970  0.50151108  1
  Ni  Ni34  1  0.00348906  0.66889923  0.66865674  1
  Ni  Ni35  1  0.16663281  0.83398234  0.83461491  1
  Ni  Ni36  1  0.50147929  0.16838230  0.50179721  1
  Ni  Ni37  1  0.33451427  0.00167631  0.66727177  1
  Ni  Ni38  1  0.50177885  0.16855995  0.83452387  1
  Ni  Ni39  1  0.50015268  0.50015744  0.50034585  1
  Ni  Ni40  1  0.33593622  0.33380399  0.66814888  1
  Ni  Ni41  1  0.49970712  0.50009740  0.83565642  1
  Ni  Ni42  1  0.49911523  0.83517161  0.50067011  1
  Fe  Fe43  1  0.33309477  0.66827365  0.66783589  1
  Ni  Ni44  1  0.50122532  0.83505296  0.83520912  1
  Ni  Ni45  1  0.83372471  0.16860361  0.50045110  1
  Ni  Ni46  1  0.66656063  0.00328531  0.66877571  1
  Ni  Ni47  1  0.83289940  0.16515528  0.83429040  1
  Ni  Ni48  1  0.83479322  0.49968287  0.49977791  1
  Ni  Ni49  1  0.66588859  0.33294728  0.66758682  1
  Fe  Fe50  1  0.83367287  0.50224221  0.83535855  1
  Cr  Cr51  1  0.83539694  0.83563171  0.50060121  1
  Cr  Cr52  1  0.66728208  0.66752178  0.66824127  1
  Ni  Ni53  1  0.83584886  0.83605193  0.83552276  1
" 