2701,Ni87Fe10Cr2_10,-240.423071487733, 190.426138023022,Ni87Fe10Cr2,"# generated using pymatgen
 data_Cr2Fe5Ni47
_symmetry_space_group_name_H-M   'P 1'
_cell_length_a   7.44751740
_cell_length_b   7.44751740
_cell_length_c   10.53238011
_cell_angle_alpha   90.00000000
_cell_angle_beta   90.00000000
_cell_angle_gamma   90.00000000
_symmetry_Int_Tables_number   1
_chemical_formula_structural   Cr2Fe5Ni47
_chemical_formula_sum   'Cr2 Fe5 Ni47'
_cell_volume   584.18389137
_cell_formula_units_Z   1
loop_
 _symmetry_equiv_pos_site_id
 _symmetry_equiv_pos_as_xyz
  1  'x, y, z'
loop_
 _atom_site_type_symbol
 _atom_site_label
 _atom_site_symmetry_multiplicity
 _atom_site_fract_x
 _atom_site_fract_y
 _atom_site_fract_z
 _atom_site_occupancy
  Ni  Ni0  1  1.00108285  1.00130653  0.00197577  1
  Ni  Ni1  1  0.16837570  0.16840976  0.16835926  1
  Ni  Ni2  1  0.00313391  0.00140622  0.33480126  1
  Ni  Ni3  1  0.00151146  0.33478045  0.00157914  1
  Ni  Ni4  1  0.16781785  0.50121592  0.16769838  1
  Ni  Ni5  1  0.00165882  0.33437136  0.33378681  1
  Ni  Ni6  1  1.00102051  0.66784638  0.00157880  1
  Ni  Ni7  1  0.16831235  0.83431135  0.16880397  1
  Ni  Ni8  1  0.99950935  0.66816328  0.33372989  1
  Ni  Ni9  1  0.33505486  0.00155606  0.00176935  1
  Ni  Ni10  1  0.50019273  0.16844425  0.16732828  1
  Ni  Ni11  1  0.33321469  0.00244458  0.33476300  1
  Ni  Ni12  1  0.33456628  0.33447158  0.00139262  1
  Ni  Ni13  1  0.50109907  0.50152520  0.16850075  1
  Ni  Ni14  1  0.33464720  0.33328184  0.33372948  1
  Ni  Ni15  1  0.33480881  0.66790542  0.00210028  1
  Ni  Ni16  1  0.50056527  0.83396582  0.16708365  1
  Fe  Fe17  1  0.33476230  0.66901250  0.33327299  1
  Ni  Ni18  1  0.66779583  1.00106522  0.00140422  1
  Ni  Ni19  1  0.83536849  0.16893990  0.16736615  1
  Cr  Cr20  1  0.66793250  1.00059399  0.33420839  1
  Ni  Ni21  1  0.66785694  0.33453244  0.00229397  1
  Ni  Ni22  1  0.83501799  0.50158655  0.16855052  1
  Fe  Fe23  1  0.66869062  0.33570951  0.33445472  1
  Ni  Ni24  1  0.66810568  0.66833626  0.00158346  1
  Ni  Ni25  1  0.83505407  0.83340704  0.16713775  1
  Ni  Ni26  1  0.66867217  0.66672513  0.33476152  1
  Ni  Ni27  1  0.16858768  0.16729215  0.50135411  1
  Ni  Ni28  1  1.00121799  0.00140600  0.66715763  1
  Ni  Ni29  1  0.16861474  0.16888233  0.83421949  1
  Cr  Cr30  1  0.16693564  0.50069774  0.50148747  1
  Ni  Ni31  1  1.00069033  0.33395847  0.66856771  1
  Ni  Ni32  1  0.16733341  0.50128416  0.83483269  1
  Fe  Fe33  1  0.16725929  0.83713750  0.50150339  1
  Ni  Ni34  1  1.00013327  0.66857431  0.66862375  1
  Ni  Ni35  1  0.16862140  0.83376810  0.83375863  1
  Ni  Ni36  1  0.50015965  0.16747684  0.50219134  1
  Ni  Ni37  1  0.33488727  0.00165048  0.66740170  1
  Ni  Ni38  1  0.50105704  0.16716020  0.83440961  1
  Fe  Fe39  1  0.50354786  0.50084733  0.50129489  1
  Ni  Ni40  1  0.33530256  0.33359397  0.66881545  1
  Fe  Fe41  1  0.50125805  0.50130986  0.83504001  1
  Ni  Ni42  1  0.50131060  0.83471325  0.50218908  1
  Ni  Ni43  1  0.33561258  0.66869194  0.66815836  1
  Ni  Ni44  1  0.50129240  0.83524438  0.83465759  1
  Ni  Ni45  1  0.83519158  0.16876703  0.50240133  1
  Ni  Ni46  1  0.66782501  1.00109420  0.66795155  1
  Ni  Ni47  1  0.83426109  0.16845315  0.83416220  1
  Ni  Ni48  1  0.83389351  0.50179635  0.50116032  1
  Ni  Ni49  1  0.66794620  0.33467813  0.66684449  1
  Ni  Ni50  1  0.83574316  0.50151905  0.83421923  1
  Ni  Ni51  1  0.83408306  0.83337182  0.50238383  1
  Ni  Ni52  1  0.66819131  0.66815960  0.66759407  1
  Ni  Ni53  1  0.83401924  0.83396136  0.83440990  1
" 