7460,Ni87Fe6Cr5_1,-238.029404000522, 178.988456762245,Ni87Fe6Cr5,"# generated using pymatgen
 data_Cr4Fe3Ni47
_symmetry_space_group_name_H-M   'P 1'
_cell_length_a   7.45299345
_cell_length_b   7.45299345
_cell_length_c   10.54012442
_cell_angle_alpha   90.00000000
_cell_angle_beta   90.00000000
_cell_angle_gamma   90.00000000
_symmetry_Int_Tables_number   1
_chemical_formula_structural   Cr4Fe3Ni47
_chemical_formula_sum   'Cr4 Fe3 Ni47'
_cell_volume   585.47346517
_cell_formula_units_Z   1
loop_
 _symmetry_equiv_pos_site_id
 _symmetry_equiv_pos_as_xyz
  1  'x, y, z'
loop_
 _atom_site_type_symbol
 _atom_site_label
 _atom_site_symmetry_multiplicity
 _atom_site_fract_x
 _atom_site_fract_y
 _atom_site_fract_z
 _atom_site_occupancy
  Ni  Ni0  1  0.99941782  0.00156461  1.00012005  1
  Ni  Ni1  1  0.16848423  0.16763511  0.16659705  1
  Ni  Ni2  1  1.00022476  1.00035035  0.33525235  1
  Ni  Ni3  1  0.00147004  0.33366228  1.00069290  1
  Fe  Fe4  1  0.16823179  0.50074673  0.16696525  1
  Cr  Cr5  1  1.00091379  0.33390116  0.33412160  1
  Ni  Ni6  1  1.00058753  0.66744389  1.00037994  1
  Cr  Cr7  1  0.16676667  0.83439890  0.16794294  1
  Ni  Ni8  1  1.00029991  0.66863891  0.33492188  1
  Fe  Fe9  1  0.33450627  1.00072009  0.00126012  1
  Ni  Ni10  1  0.50049318  0.16817045  0.16767583  1
  Ni  Ni11  1  0.33507369  0.00126165  0.33443553  1
  Ni  Ni12  1  0.33333357  0.33597183  0.00211327  1
  Ni  Ni13  1  0.50162324  0.50103534  0.16735399  1
  Ni  Ni14  1  0.33579390  0.33437670  0.33433169  1
  Ni  Ni15  1  0.33532848  0.66632014  0.99991121  1
  Ni  Ni16  1  0.50198978  0.83357514  0.16745178  1
  Ni  Ni17  1  0.33540296  0.66717511  0.33517966  1
  Ni  Ni18  1  0.66916907  0.99968874  0.00212178  1
  Ni  Ni19  1  0.83401054  0.16709704  0.16631093  1
  Ni  Ni20  1  0.66757248  1.00077871  0.33401471  1
  Ni  Ni21  1  0.66807851  0.33471200  0.00176382  1
  Ni  Ni22  1  0.83277304  0.50224626  0.16617592  1
  Ni  Ni23  1  0.66613056  0.33411392  0.33392529  1
  Ni  Ni24  1  0.66694920  0.66839334  1.00065443  1
  Ni  Ni25  1  0.83337338  0.83350245  0.16802427  1
  Ni  Ni26  1  0.66710675  0.66793109  0.33407328  1
  Ni  Ni27  1  0.16875619  0.16656654  0.50194763  1
  Ni  Ni28  1  1.00075803  1.00086852  0.66750175  1
  Ni  Ni29  1  0.16631787  0.16817471  0.83425742  1
  Ni  Ni30  1  0.16822356  0.50201183  0.50086801  1
  Ni  Ni31  1  0.00297152  0.33416546  0.66815963  1
  Ni  Ni32  1  0.16744213  0.50026173  0.83488620  1
  Ni  Ni33  1  0.16755080  0.83427657  0.50154925  1
  Ni  Ni34  1  0.00130704  0.66767957  0.66762385  1
  Fe  Fe35  1  0.16678177  0.83349500  0.83373476  1
  Ni  Ni36  1  0.49950441  0.16670152  0.49981165  1
  Ni  Ni37  1  0.33356678  0.99962821  0.66760879  1
  Cr  Cr38  1  0.50011001  0.16729183  0.83497736  1
  Ni  Ni39  1  0.50014631  0.50199883  0.50054497  1
  Ni  Ni40  1  0.33157915  0.33544088  0.66629319  1
  Ni  Ni41  1  0.49981444  0.50350039  0.83481239  1
  Ni  Ni42  1  0.50067732  0.83415645  0.50073993  1
  Ni  Ni43  1  0.33428684  0.66759693  0.66778605  1
  Ni  Ni44  1  0.50148188  0.83265022  0.83467194  1
  Ni  Ni45  1  0.83455035  0.16596031  0.50127242  1
  Ni  Ni46  1  0.66842035  0.99819340  0.66660845  1
  Ni  Ni47  1  0.83716624  0.16654938  0.83524523  1
  Ni  Ni48  1  0.83445125  0.50319737  0.50131883  1
  Cr  Cr49  1  0.66865954  0.33528904  0.66680183  1
  Ni  Ni50  1  0.83560483  0.50250532  0.83529224  1
  Ni  Ni51  1  0.83459829  0.83366291  0.50025123  1
  Ni  Ni52  1  0.66713933  0.66987186  0.66807306  1
  Ni  Ni53  1  0.83394268  0.83380735  0.83450454  1
" 