6418,Ni87Fe8Cr3_15,-239.226413013626, 184.71121496985,Ni87Fe8Cr3,"# generated using pymatgen
 data_Cr3Fe4Ni47
_symmetry_space_group_name_H-M   'P 1'
_cell_length_a   7.44938217
_cell_length_b   7.44938217
_cell_length_c   10.53501729
_cell_angle_alpha   90.00000000
_cell_angle_beta   90.00000000
_cell_angle_gamma   90.00000000
_symmetry_Int_Tables_number   1
_chemical_formula_structural   Cr3Fe4Ni47
_chemical_formula_sum   'Cr3 Fe4 Ni47'
_cell_volume   584.62281878
_cell_formula_units_Z   1
loop_
 _symmetry_equiv_pos_site_id
 _symmetry_equiv_pos_as_xyz
  1  'x, y, z'
loop_
 _atom_site_type_symbol
 _atom_site_label
 _atom_site_symmetry_multiplicity
 _atom_site_fract_x
 _atom_site_fract_y
 _atom_site_fract_z
 _atom_site_occupancy
  Ni  Ni0  1  1.00033839  0.99954130  0.99979450  1
  Cr  Cr1  1  0.16718291  0.16720228  0.16974619  1
  Ni  Ni2  1  0.99989661  1.00004793  0.33615334  1
  Fe  Fe3  1  0.00173939  0.33542312  0.99967286  1
  Ni  Ni4  1  0.16923118  0.50388222  0.16884332  1
  Ni  Ni5  1  1.00045005  0.33451854  0.33555300  1
  Ni  Ni6  1  0.00164931  0.67056737  1.00016288  1
  Ni  Ni7  1  0.16777873  0.83381042  0.16792025  1
  Ni  Ni8  1  0.00208240  0.66920923  0.33559273  1
  Ni  Ni9  1  0.33366722  0.99941102  0.99999688  1
  Ni  Ni10  1  0.50264281  0.16662543  0.16867578  1
  Ni  Ni11  1  0.33557643  1.00001163  0.33548341  1
  Cr  Cr12  1  0.33801700  0.33572330  0.99933300  1
  Ni  Ni13  1  0.50139670  0.50203374  0.16902991  1
  Ni  Ni14  1  0.33605559  0.33553639  0.33649757  1
  Ni  Ni15  1  0.33448016  0.66935368  0.00149785  1
  Ni  Ni16  1  0.50124743  0.83386173  0.16735055  1
  Ni  Ni17  1  0.33467039  0.66794191  0.33347638  1
  Fe  Fe18  1  0.66692896  0.99909880  1.00085990  1
  Ni  Ni19  1  0.83288488  0.16588928  0.16717510  1
  Ni  Ni20  1  0.66808229  0.00147400  0.33349836  1
  Ni  Ni21  1  0.66869105  0.33349721  1.00052164  1
  Cr  Cr22  1  0.83495357  0.50166004  0.16829375  1
  Ni  Ni23  1  0.66692303  0.33346912  0.33510302  1
  Ni  Ni24  1  0.66736723  0.66624447  0.99907548  1
  Ni  Ni25  1  0.83404768  0.83521046  0.16791770  1
  Ni  Ni26  1  0.66707770  0.66853881  0.33665281  1
  Ni  Ni27  1  0.16737621  0.16755151  0.50177663  1
  Ni  Ni28  1  1.00082318  1.00098613  0.66748506  1
  Ni  Ni29  1  0.16687076  0.16651701  0.83274100  1
  Ni  Ni30  1  0.16737640  0.50115651  0.50070921  1
  Ni  Ni31  1  0.99875150  0.33473686  0.66907429  1
  Ni  Ni32  1  0.16701604  0.50241361  0.83416810  1
  Ni  Ni33  1  0.16841917  0.83448459  0.50100844  1
  Ni  Ni34  1  0.00266646  0.66792339  0.66773351  1
  Ni  Ni35  1  0.16803305  0.83466061  0.83449385  1
  Ni  Ni36  1  0.50118400  0.16723469  0.50119618  1
  Ni  Ni37  1  0.33484385  0.99956120  0.66816981  1
  Ni  Ni38  1  0.50170494  0.16679002  0.83343793  1
  Ni  Ni39  1  0.50121265  0.50176705  0.50167398  1
  Fe  Fe40  1  0.33314476  0.33380040  0.66745093  1
  Ni  Ni41  1  0.50229095  0.50208264  0.83259190  1
  Ni  Ni42  1  0.50130559  0.83491422  0.50158383  1
  Ni  Ni43  1  0.33397240  0.66812533  0.66850036  1
  Ni  Ni44  1  0.50082252  0.83418579  0.83452311  1
  Ni  Ni45  1  0.83432166  0.16809778  0.50065457  1
  Ni  Ni46  1  0.66795717  0.00347788  0.66878173  1
  Ni  Ni47  1  0.83441874  0.16807779  0.83580852  1
  Ni  Ni48  1  0.83460265  0.50130323  0.50155937  1
  Ni  Ni49  1  0.66772849  0.33428377  0.66784996  1
  Ni  Ni50  1  0.83441141  0.50131589  0.83430445  1
  Ni  Ni51  1  0.83427263  0.83495476  0.50150053  1
  Fe  Fe52  1  0.66885653  0.66943874  0.66753327  1
  Ni  Ni53  1  0.83458496  0.83440291  0.83383906  1
" 