507,Ni87Fe10Cr2_17,-240.075730551724, 188.909815182049,Ni87Fe10Cr2,"# generated using pymatgen
 data_Cr2Fe5Ni47
_symmetry_space_group_name_H-M   'P 1'
_cell_length_a   7.44180450
_cell_length_b   7.44180450
_cell_length_c   10.52430086
_cell_angle_alpha   90.00000000
_cell_angle_beta   90.00000000
_cell_angle_gamma   90.00000000
_symmetry_Int_Tables_number   1
_chemical_formula_structural   Cr2Fe5Ni47
_chemical_formula_sum   'Cr2 Fe5 Ni47'
_cell_volume   582.84056228
_cell_formula_units_Z   1
loop_
 _symmetry_equiv_pos_site_id
 _symmetry_equiv_pos_as_xyz
  1  'x, y, z'
loop_
 _atom_site_type_symbol
 _atom_site_label
 _atom_site_symmetry_multiplicity
 _atom_site_fract_x
 _atom_site_fract_y
 _atom_site_fract_z
 _atom_site_occupancy
  Ni  Ni0  1  0.00193432  0.00215177  0.00221573  1
  Ni  Ni1  1  0.16657797  0.16866679  0.16848487  1
  Ni  Ni2  1  0.00182398  0.00398325  0.33459103  1
  Ni  Ni3  1  1.00096367  0.33508416  0.00226824  1
  Ni  Ni4  1  0.16914983  0.50076559  0.16791239  1
  Ni  Ni5  1  1.00162898  0.33307863  0.33483103  1
  Ni  Ni6  1  0.00199191  0.66785284  1.00109988  1
  Fe  Fe7  1  0.16904251  0.83565858  0.16744733  1
  Cr  Cr8  1  1.00168662  0.66781900  0.33508607  1
  Ni  Ni9  1  0.33416301  1.00003272  1.00074403  1
  Cr  Cr10  1  0.50182562  0.16815041  0.16852518  1
  Ni  Ni11  1  0.33414544  1.00096423  0.33606416  1
  Fe  Fe12  1  0.33436476  0.33613968  1.00112301  1
  Ni  Ni13  1  0.50115280  0.50386582  0.16844302  1
  Ni  Ni14  1  0.33414613  0.33590484  0.33560854  1
  Ni  Ni15  1  0.33519376  0.66888318  0.00216106  1
  Ni  Ni16  1  0.50212360  0.83333536  0.16884725  1
  Ni  Ni17  1  0.33697593  0.66821889  0.33478668  1
  Ni  Ni18  1  0.66898953  1.00106178  1.00074242  1
  Ni  Ni19  1  0.83710816  0.16769598  0.16888943  1
  Ni  Ni20  1  0.66911937  1.00115370  0.33576358  1
  Ni  Ni21  1  0.67002326  0.33611439  1.00078450  1
  Ni  Ni22  1  0.83478642  0.50148713  0.16761041  1
  Ni  Ni23  1  0.66931309  0.33591029  0.33602380  1
  Ni  Ni24  1  0.66790259  0.66791262  0.00217042  1
  Ni  Ni25  1  0.83400970  0.83590575  0.16731830  1
  Ni  Ni26  1  0.66629347  0.66802354  0.33448443  1
  Ni  Ni27  1  0.16881846  0.16798391  0.50163435  1
  Ni  Ni28  1  0.00182110  0.00222401  0.66828140  1
  Fe  Fe29  1  0.16812493  0.16806824  0.83484768  1
  Ni  Ni30  1  0.16971337  0.50118485  0.50234338  1
  Ni  Ni31  1  1.00156568  0.33474799  0.66798846  1
  Ni  Ni32  1  0.16862597  0.50243582  0.83483166  1
  Ni  Ni33  1  0.16867873  0.83592028  0.50188520  1
  Fe  Fe34  1  0.00174749  0.66841543  0.66864964  1
  Ni  Ni35  1  0.16843013  0.83455626  0.83558972  1
  Ni  Ni36  1  0.50151558  0.16876300  0.50157443  1
  Ni  Ni37  1  0.33456013  1.00119011  0.66827938  1
  Ni  Ni38  1  0.50218080  0.16809669  0.83506130  1
  Ni  Ni39  1  0.50126493  0.50104662  0.50117711  1
  Ni  Ni40  1  0.33462223  0.33558590  0.66868253  1
  Ni  Ni41  1  0.50115166  0.50127146  0.83546917  1
  Fe  Fe42  1  0.50164923  0.83497846  0.50156936  1
  Ni  Ni43  1  0.33534213  0.66831148  0.66814096  1
  Ni  Ni44  1  0.50134787  0.83571992  0.83481349  1
  Ni  Ni45  1  0.83475425  0.16772878  0.50092764  1
  Ni  Ni46  1  0.66870602  1.00150300  0.66858302  1
  Ni  Ni47  1  0.83414385  0.16790128  0.83527107  1
  Ni  Ni48  1  0.83410946  0.50118803  0.50234421  1
  Ni  Ni49  1  0.66889868  0.33552847  0.66827925  1
  Ni  Ni50  1  0.83531052  0.50160053  0.83513244  1
  Ni  Ni51  1  0.83489076  0.83617179  0.50259237  1
  Ni  Ni52  1  0.66786526  0.66805569  0.66843408  1
  Ni  Ni53  1  0.83531017  0.83558693  0.83517571  1
" 