7684,Ni87Fe13_5,-229.982949052202, 167.39578289111,Ni87Fe13,"# generated using pymatgen
 data_Fe23Ni4
_symmetry_space_group_name_H-M   'P 1'
_cell_length_a   7.40280239
_cell_length_b   7.40280239
_cell_length_c   10.46914354
_cell_angle_alpha   90.00000000
_cell_angle_beta   90.00000000
_cell_angle_gamma   90.00000000
_symmetry_Int_Tables_number   1
_chemical_formula_structural   Fe23Ni4
_chemical_formula_sum   'Fe46 Ni8'
_cell_volume   573.72459451
_cell_formula_units_Z   2
loop_
 _symmetry_equiv_pos_site_id
 _symmetry_equiv_pos_as_xyz
  1  'x, y, z'
loop_
 _atom_site_type_symbol
 _atom_site_label
 _atom_site_symmetry_multiplicity
 _atom_site_fract_x
 _atom_site_fract_y
 _atom_site_fract_z
 _atom_site_occupancy
  Fe  Fe0  1  0.00466197  0.00519322  1.00425497  1
  Fe  Fe1  1  0.17144855  0.17100540  0.17056458  1
  Fe  Fe2  1  0.00501705  1.00366229  0.33767196  1
  Fe  Fe3  1  0.00486705  0.33649662  1.00380173  1
  Fe  Fe4  1  0.17144637  0.50433986  0.17050440  1
  Fe  Fe5  1  0.00483690  0.33834932  0.33767219  1
  Fe  Fe6  1  0.00519354  0.67133025  1.00407249  1
  Fe  Fe7  1  0.17145134  0.83767514  0.17127722  1
  Fe  Fe8  1  0.00487189  0.67100602  0.33767516  1
  Ni  Ni9  1  0.33854107  0.00520474  1.00412376  1
  Fe  Fe10  1  0.50407391  0.17073901  0.17079414  1
  Fe  Fe11  1  0.33776024  1.00398053  0.33743985  1
  Ni  Ni12  1  0.33667117  0.33781467  0.00454447  1
  Fe  Fe13  1  0.50389530  0.50442811  0.17118651  1
  Fe  Fe14  1  0.33794065  0.33802528  0.33744006  1
  Fe  Fe15  1  0.33799622  0.67133263  0.00466076  1
  Fe  Fe16  1  0.50416257  0.83784973  0.17073964  1
  Ni  Ni17  1  0.33714594  0.67037105  0.33756547  1
  Ni  Ni18  1  0.67114400  1.00419953  0.00448435  1
  Fe  Fe19  1  0.83749525  0.17073825  0.17024287  1
  Fe  Fe20  1  0.67024176  1.00401899  0.33802807  1
  Fe  Fe21  1  0.67014444  0.33628022  1.00425526  1
  Fe  Fe22  1  0.83767209  0.50442860  0.17127555  1
  Fe  Fe23  1  0.67024102  0.33817192  0.33802942  1
  Fe  Fe24  1  0.66982869  0.67153684  0.00452085  1
  Fe  Fe25  1  0.83740544  0.83784958  0.17082810  1
  Fe  Fe26  1  0.67055928  0.67082582  0.33758063  1
  Fe  Fe27  1  0.17154368  0.17100672  0.50415763  1
  Fe  Fe28  1  1.00345216  0.00451629  0.67109125  1
  Fe  Fe29  1  0.17091238  0.17172773  0.83829612  1
  Fe  Fe30  1  0.17186246  0.50401422  0.50466831  1
  Fe  Fe31  1  1.00366397  0.33717600  0.67154623  1
  Ni  Ni32  1  0.17147099  0.50510942  0.83821050  1
  Fe  Fe33  1  0.17186294  0.83799576  0.50389064  1
  Fe  Fe34  1  1.00401966  0.67132722  0.67127227  1
  Fe  Fe35  1  0.17059644  0.83781842  0.83784811  1
  Ni  Ni36  1  0.50477363  0.17057733  0.50413294  1
  Fe  Fe37  1  0.33847700  0.00451766  0.67105602  1
  Fe  Fe38  1  0.50428610  0.17105752  0.83761794  1
  Fe  Fe39  1  0.50407055  0.50406956  0.50389085  1
  Fe  Fe40  1  0.33826156  0.33717387  0.67150664  1
  Fe  Fe41  1  0.50403662  0.50357389  0.83794093  1
  Fe  Fe42  1  0.50433744  0.83820575  0.50433782  1
  Fe  Fe43  1  0.33790480  0.67132843  0.67059544  1
  Fe  Fe44  1  0.50470154  0.83838598  0.83793758  1
  Fe  Fe45  1  0.83687466  0.17073963  0.50519178  1
  Ni  Ni46  1  0.67153170  0.00456507  0.67053611  1
  Ni  Ni47  1  0.83676328  0.17020632  0.83778062  1
  Fe  Fe48  1  0.83708440  0.50375081  0.50415748  1
  Fe  Fe49  1  0.67109321  0.33660277  0.67073227  1
  Fe  Fe50  1  0.83838912  0.50389297  0.83758482  1
  Fe  Fe51  1  0.83681784  0.83852671  0.50460444  1
  Fe  Fe52  1  0.67109461  0.67153909  0.67091610  1
  Fe  Fe53  1  0.83772304  0.83806074  0.83758422  1
" 