5298,Ni87Fe9Cr3_1,-239.078649569104, 183.972680773839,Ni87Fe9Cr3,"# generated using pymatgen
 data_Cr3Fe4Ni47
_symmetry_space_group_name_H-M   'P 1'
_cell_length_a   7.44801069
_cell_length_b   7.44801069
_cell_length_c   10.53307773
_cell_angle_alpha   90.00000000
_cell_angle_beta   90.00000000
_cell_angle_gamma   90.00000000
_symmetry_Int_Tables_number   1
_chemical_formula_structural   Cr3Fe4Ni47
_chemical_formula_sum   'Cr3 Fe4 Ni47'
_cell_volume   584.29998051
_cell_formula_units_Z   1
loop_
 _symmetry_equiv_pos_site_id
 _symmetry_equiv_pos_as_xyz
  1  'x, y, z'
loop_
 _atom_site_type_symbol
 _atom_site_label
 _atom_site_symmetry_multiplicity
 _atom_site_fract_x
 _atom_site_fract_y
 _atom_site_fract_z
 _atom_site_occupancy
  Ni  Ni0  1  0.00258481  1.00058062  0.00235655  1
  Ni  Ni1  1  0.16775852  0.16715664  0.16771287  1
  Fe  Fe2  1  0.00133225  1.00120728  0.33462372  1
  Ni  Ni3  1  0.00136433  0.33544542  0.00204586  1
  Fe  Fe4  1  0.16759422  0.50156115  0.16828864  1
  Ni  Ni5  1  1.00113576  0.33518782  0.33474907  1
  Ni  Ni6  1  0.00138098  0.66780985  1.00060943  1
  Ni  Ni7  1  0.16871889  0.83547898  0.16758218  1
  Ni  Ni8  1  0.00140305  0.66739807  0.33474265  1
  Ni  Ni9  1  0.33370825  0.00163116  0.00191458  1
  Ni  Ni10  1  0.50117299  0.16782170  0.16727647  1
  Ni  Ni11  1  0.33445767  0.00212007  0.33380907  1
  Fe  Fe12  1  0.33468418  0.33454388  1.00114183  1
  Ni  Ni13  1  0.50211710  0.50188323  0.16803255  1
  Ni  Ni14  1  0.33451626  0.33403068  0.33450457  1
  Ni  Ni15  1  0.33357868  0.66809779  0.00231410  1
  Ni  Ni16  1  0.50089514  0.83413173  0.16791979  1
  Ni  Ni17  1  0.33337515  0.66768194  0.33387731  1
  Ni  Ni18  1  0.66754051  0.00164436  0.00309287  1
  Ni  Ni19  1  0.83490066  0.16837909  0.16804563  1
  Ni  Ni20  1  0.66789298  0.00238885  0.33349730  1
  Ni  Ni21  1  0.66782508  0.33531645  0.00218556  1
  Ni  Ni22  1  0.83355276  0.50092199  0.16744466  1
  Ni  Ni23  1  0.66818043  0.33410700  0.33493947  1
  Ni  Ni24  1  0.66887226  0.66687425  0.00212044  1
  Ni  Ni25  1  0.83422031  0.83453227  0.16733201  1
  Ni  Ni26  1  0.66905327  0.66733772  0.33353881  1
  Ni  Ni27  1  0.16767344  0.16810408  0.50170029  1
  Ni  Ni28  1  0.00238208  1.00008887  0.66680618  1
  Ni  Ni29  1  0.16893260  0.16788773  0.83442149  1
  Ni  Ni30  1  0.16807661  0.50089959  0.50118950  1
  Ni  Ni31  1  0.00211735  0.33555357  0.66704182  1
  Ni  Ni32  1  0.16836457  0.50096762  0.83492489  1
  Ni  Ni33  1  0.16663957  0.83483055  0.50196930  1
  Ni  Ni34  1  1.00125686  0.66819177  0.66848488  1
  Ni  Ni35  1  0.16693027  0.83498032  0.83428237  1
  Ni  Ni36  1  0.50129801  0.16980017  0.50207425  1
  Ni  Ni37  1  0.33280257  0.00314872  0.66810732  1
  Fe  Fe38  1  0.49967754  0.16948538  0.83426302  1
  Ni  Ni39  1  0.50136227  0.49966363  0.50158859  1
  Ni  Ni40  1  0.33479360  0.33421932  0.66834545  1
  Ni  Ni41  1  0.50127774  0.50060266  0.83421347  1
  Cr  Cr42  1  0.50092824  0.83379773  0.50097046  1
  Ni  Ni43  1  0.33259469  0.66646728  0.66764314  1
  Cr  Cr44  1  0.50137618  0.83375940  0.83451507  1
  Ni  Ni45  1  0.83486139  0.16836819  0.50103034  1
  Ni  Ni46  1  0.66864889  0.00228520  0.66724073  1
  Cr  Cr47  1  0.83564233  0.16802048  0.83472943  1
  Ni  Ni48  1  0.83439555  0.50070001  0.50190038  1
  Ni  Ni49  1  0.66692198  0.33534792  0.66670749  1
  Ni  Ni50  1  0.83419068  0.50260219  0.83448910  1
  Ni  Ni51  1  0.83609368  0.83476613  0.50190810  1
  Ni  Ni52  1  0.66998281  0.66620232  0.66817257  1
  Ni  Ni53  1  0.83597331  0.83300046  0.83459368  1
" 