1598,Ni87Fe8Cr3_5,-239.258453913245, 185.221221932091,Ni87Fe8Cr3,"# generated using pymatgen
 data_Cr3Fe4Ni47
_symmetry_space_group_name_H-M   'P 1'
_cell_length_a   7.44802269
_cell_length_b   7.44802269
_cell_length_c   10.53309470
_cell_angle_alpha   90.00000000
_cell_angle_beta   90.00000000
_cell_angle_gamma   90.00000000
_symmetry_Int_Tables_number   1
_chemical_formula_structural   Cr3Fe4Ni47
_chemical_formula_sum   'Cr3 Fe4 Ni47'
_cell_volume   584.30280468
_cell_formula_units_Z   1
loop_
 _symmetry_equiv_pos_site_id
 _symmetry_equiv_pos_as_xyz
  1  'x, y, z'
loop_
 _atom_site_type_symbol
 _atom_site_label
 _atom_site_symmetry_multiplicity
 _atom_site_fract_x
 _atom_site_fract_y
 _atom_site_fract_z
 _atom_site_occupancy
  Ni  Ni0  1  1.00047458  1.00062941  0.00161331  1
  Ni  Ni1  1  0.16904018  0.16734838  0.16723127  1
  Ni  Ni2  1  1.00088442  1.00103648  0.33482551  1
  Ni  Ni3  1  1.00073536  0.33508713  0.00188234  1
  Ni  Ni4  1  0.16780147  0.50081620  0.16822278  1
  Ni  Ni5  1  0.00202372  0.33442101  0.33477827  1
  Ni  Ni6  1  0.99991334  0.66811726  0.00128672  1
  Ni  Ni7  1  0.16633045  0.83566991  0.16842243  1
  Ni  Ni8  1  0.00196400  0.66837376  0.33435431  1
  Ni  Ni9  1  0.33442184  0.00158481  0.00350471  1
  Ni  Ni10  1  0.50087789  0.16874708  0.16749826  1
  Fe  Fe11  1  0.33432887  0.00144556  0.33488539  1
  Ni  Ni12  1  0.33455158  0.33452158  0.00299939  1
  Ni  Ni13  1  0.50211787  0.49940840  0.16848774  1
  Ni  Ni14  1  0.33457616  0.33550474  0.33435376  1
  Cr  Cr15  1  0.33425633  0.66735850  1.00033581  1
  Fe  Fe16  1  0.50250370  0.83531139  0.16904631  1
  Ni  Ni17  1  0.33451072  0.66717067  0.33532497  1
  Ni  Ni18  1  0.66894075  1.00076111  0.00161404  1
  Ni  Ni19  1  0.83391459  0.16727695  0.16715614  1
  Ni  Ni20  1  0.66843408  1.00110041  0.33489371  1
  Ni  Ni21  1  0.66854380  0.33508350  0.00188039  1
  Ni  Ni22  1  0.83391308  0.50212649  0.16735619  1
  Ni  Ni23  1  0.66723142  0.33442278  0.33482591  1
  Ni  Ni24  1  0.66950384  0.66798369  0.00128428  1
  Ni  Ni25  1  0.83531792  0.83442909  0.16757605  1
  Ni  Ni26  1  0.66735758  0.66830804  0.33442484  1
  Ni  Ni27  1  0.16853025  0.16758492  0.50146555  1
  Ni  Ni28  1  1.00089122  1.00018543  0.66739257  1
  Cr  Cr29  1  0.16697139  0.16748608  0.83523185  1
  Ni  Ni30  1  0.16832184  0.50133653  0.50152019  1
  Ni  Ni31  1  1.00115514  0.33550500  0.66717135  1
  Ni  Ni32  1  0.16753352  0.50297671  0.83408009  1
  Ni  Ni33  1  0.16771250  0.83491174  0.50158844  1
  Ni  Ni34  1  0.00134053  0.66814195  0.66819056  1
  Ni  Ni35  1  0.16614849  0.83361776  0.83381669  1
  Ni  Ni36  1  0.50115582  0.16811909  0.50146534  1
  Ni  Ni37  1  0.33451352  1.00006097  0.66590971  1
  Cr  Cr38  1  0.50269898  0.16888343  0.83482723  1
  Ni  Ni39  1  0.50136368  0.50080160  0.50152026  1
  Ni  Ni40  1  0.33457563  0.33595498  0.66647638  1
  Ni  Ni41  1  0.50238377  0.50158320  0.83381490  1
  Ni  Ni42  1  0.50143772  0.83491153  0.50158835  1
  Fe  Fe43  1  0.33433154  0.66771585  0.66741080  1
  Fe  Fe44  1  0.50281729  0.83365619  0.83345094  1
  Ni  Ni45  1  0.83414492  0.16750810  0.50184242  1
  Ni  Ni46  1  0.66842809  1.00024696  0.66732605  1
  Ni  Ni47  1  0.83391132  0.16725009  0.83483233  1
  Ni  Ni48  1  0.83414579  0.50162122  0.50133835  1
  Ni  Ni49  1  0.66809949  0.33550198  0.66712398  1
  Ni  Ni50  1  0.83391405  0.50247451  0.83513777  1
  Ni  Ni51  1  0.83468102  0.83470215  0.50138539  1
  Ni  Ni52  1  0.66797518  0.66807975  0.66812481  1
  Ni  Ni53  1  0.83531546  0.83410566  0.83487052  1
" 