4388,Ni87Fe8Cr3_13,-239.207634662438, 186.630771221994,Ni87Fe8Cr3,"# generated using pymatgen
 data_Cr3Fe4Ni47
_symmetry_space_group_name_H-M   'P 1'
_cell_length_a   7.44730991
_cell_length_b   7.44730991
_cell_length_c   10.53208668
_cell_angle_alpha   90.00000000
_cell_angle_beta   90.00000000
_cell_angle_gamma   90.00000000
_symmetry_Int_Tables_number   1
_chemical_formula_structural   Cr3Fe4Ni47
_chemical_formula_sum   'Cr3 Fe4 Ni47'
_cell_volume   584.13506635
_cell_formula_units_Z   1
loop_
 _symmetry_equiv_pos_site_id
 _symmetry_equiv_pos_as_xyz
  1  'x, y, z'
loop_
 _atom_site_type_symbol
 _atom_site_label
 _atom_site_symmetry_multiplicity
 _atom_site_fract_x
 _atom_site_fract_y
 _atom_site_fract_z
 _atom_site_occupancy
  Ni  Ni0  1  1.00046960  0.00180188  0.00136921  1
  Ni  Ni1  1  0.16640239  0.16808686  0.16813959  1
  Ni  Ni2  1  1.00016396  0.00165204  0.33371723  1
  Ni  Ni3  1  0.00186334  0.33395135  0.00163402  1
  Ni  Ni4  1  0.16683500  0.50002804  0.16756622  1
  Ni  Ni5  1  1.00069711  0.33433049  0.33318749  1
  Ni  Ni6  1  0.00181424  0.66822125  0.00181548  1
  Ni  Ni7  1  0.16676815  0.83586276  0.16762756  1
  Fe  Fe8  1  0.99949335  0.66799203  0.33477501  1
  Fe  Fe9  1  0.33372664  1.00032527  1.00045498  1
  Cr  Cr10  1  0.50086913  0.16817850  0.16837546  1
  Ni  Ni11  1  0.33442573  1.00115340  0.33438846  1
  Ni  Ni12  1  0.33353117  0.33667460  1.00099287  1
  Ni  Ni13  1  0.50239971  0.50195570  0.16742575  1
  Ni  Ni14  1  0.33415865  0.33509094  0.33462352  1
  Ni  Ni15  1  0.33516848  0.66709611  1.00117761  1
  Ni  Ni16  1  0.50245529  0.83392168  0.16748758  1
  Cr  Cr17  1  0.33554212  0.66758934  0.33507204  1
  Ni  Ni18  1  0.66971070  1.00016386  1.00079021  1
  Ni  Ni19  1  0.83667152  0.16802819  0.16871462  1
  Ni  Ni20  1  0.66938105  1.00026229  0.33566822  1
  Ni  Ni21  1  0.66858007  0.33532224  1.00029088  1
  Ni  Ni22  1  0.83473576  0.50159358  0.16815737  1
  Ni  Ni23  1  0.66911846  0.33545493  0.33590529  1
  Ni  Ni24  1  0.66699023  0.66848752  0.00183694  1
  Ni  Ni25  1  0.83474593  0.83435281  0.16820498  1
  Ni  Ni26  1  0.66861847  0.66825710  0.33410224  1
  Cr  Cr27  1  0.16935082  0.16776014  0.50090167  1
  Ni  Ni28  1  1.00011857  1.00081810  0.66888936  1
  Ni  Ni29  1  0.16818459  0.16806248  0.83502118  1
  Ni  Ni30  1  0.16681267  0.50169076  0.50218725  1
  Ni  Ni31  1  0.00151685  0.33539415  0.66915550  1
  Ni  Ni32  1  0.16777185  0.50083456  0.83422141  1
  Ni  Ni33  1  0.16682378  0.83432540  0.50223523  1
  Ni  Ni34  1  0.00162538  0.66776217  0.66727997  1
  Ni  Ni35  1  0.16770220  0.83507886  0.83411010  1
  Ni  Ni36  1  0.50211682  0.16788658  0.50109750  1
  Ni  Ni37  1  0.33574364  1.00041757  0.66885613  1
  Ni  Ni38  1  0.50103177  0.16798972  0.83429748  1
  Ni  Ni39  1  0.50268184  0.49996294  0.50185964  1
  Ni  Ni40  1  0.33461284  0.33606180  0.66835588  1
  Ni  Ni41  1  0.50143342  0.50089688  0.83469549  1
  Ni  Ni42  1  0.50273736  0.83612426  0.50192079  1
  Ni  Ni43  1  0.33490928  0.66749538  0.66785906  1
  Ni  Ni44  1  0.50157759  0.83508980  0.83456558  1
  Fe  Fe45  1  0.83310001  0.16771731  0.50094138  1
  Ni  Ni46  1  0.66811057  1.00053257  0.66751275  1
  Ni  Ni47  1  0.83475486  0.16791935  0.83425578  1
  Ni  Ni48  1  0.83447273  0.50233322  0.50101489  1
  Fe  Fe49  1  0.66772633  0.33487262  0.66821511  1
  Ni  Ni50  1  0.83477034  0.50138185  0.83480510  1
  Ni  Ni51  1  0.83440293  0.83374466  0.50107803  1
  Ni  Ni52  1  0.66743880  0.66889522  0.66803571  1
  Ni  Ni53  1  0.83469435  0.83467534  0.83468964  1
" 