8451,Ni87Fe9Cr3_18,-239.205655686529, 185.057741731778,Ni87Fe9Cr3,"# generated using pymatgen
 data_Cr3Fe4Ni47
_symmetry_space_group_name_H-M   'P 1'
_cell_length_a   7.45005207
_cell_length_b   7.45005207
_cell_length_c   10.53596468
_cell_angle_alpha   90.00000000
_cell_angle_beta   90.00000000
_cell_angle_gamma   90.00000000
_symmetry_Int_Tables_number   1
_chemical_formula_structural   Cr3Fe4Ni47
_chemical_formula_sum   'Cr3 Fe4 Ni47'
_cell_volume   584.78055461
_cell_formula_units_Z   1
loop_
 _symmetry_equiv_pos_site_id
 _symmetry_equiv_pos_as_xyz
  1  'x, y, z'
loop_
 _atom_site_type_symbol
 _atom_site_label
 _atom_site_symmetry_multiplicity
 _atom_site_fract_x
 _atom_site_fract_y
 _atom_site_fract_z
 _atom_site_occupancy
  Ni  Ni0  1  0.99970254  0.00223760  1.00040917  1
  Fe  Fe1  1  0.16881766  0.16829603  0.16615537  1
  Cr  Cr2  1  0.99965107  1.00065927  0.33548563  1
  Ni  Ni3  1  1.00097267  0.33441560  1.00087457  1
  Ni  Ni4  1  0.16826746  0.50110509  0.16709070  1
  Cr  Cr5  1  1.00111761  0.33573667  0.33484379  1
  Ni  Ni6  1  1.00026207  0.66680027  1.00050454  1
  Cr  Cr7  1  0.16876300  0.83200002  0.16750214  1
  Ni  Ni8  1  1.00008288  0.66668040  0.33551130  1
  Ni  Ni9  1  0.33581224  0.00179348  1.00027000  1
  Ni  Ni10  1  0.50170302  0.16769832  0.16813938  1
  Ni  Ni11  1  0.33741118  0.00168343  0.33551800  1
  Ni  Ni12  1  0.33455116  0.33479535  0.00186005  1
  Fe  Fe13  1  0.50217743  0.50201130  0.16750778  1
  Ni  Ni14  1  0.33603222  0.33488370  0.33385909  1
  Ni  Ni15  1  0.33573918  0.66700445  0.99991264  1
  Ni  Ni16  1  0.50238686  0.83664820  0.16751950  1
  Ni  Ni17  1  0.33610382  0.66700731  0.33574809  1
  Ni  Ni18  1  0.66785578  1.00101901  0.00121359  1
  Ni  Ni19  1  0.82976750  0.16830545  0.16629362  1
  Ni  Ni20  1  0.66594262  1.00067767  0.33449957  1
  Ni  Ni21  1  0.66792129  0.33449257  0.00114165  1
  Ni  Ni22  1  0.83469275  0.50173198  0.16676566  1
  Ni  Ni23  1  0.66624251  0.33480185  0.33451366  1
  Ni  Ni24  1  0.66763244  0.66805139  0.00131370  1
  Ni  Ni25  1  0.83199179  0.83341012  0.16712992  1
  Ni  Ni26  1  0.66739914  0.66814809  0.33398410  1
  Ni  Ni27  1  0.17185311  0.16781520  0.50218311  1
  Ni  Ni28  1  0.00136527  0.00121057  0.66775810  1
  Ni  Ni29  1  0.16873398  0.16755233  0.83570256  1
  Ni  Ni30  1  0.16845802  0.50193763  0.50211295  1
  Ni  Ni31  1  0.00159852  0.33427962  0.66817565  1
  Ni  Ni32  1  0.16786131  0.50156623  0.83420331  1
  Ni  Ni33  1  0.16842840  0.83367963  0.50173283  1
  Ni  Ni34  1  1.00098004  0.66794249  0.66738120  1
  Ni  Ni35  1  0.16685401  0.83436496  0.83413972  1
  Ni  Ni36  1  0.50076742  0.16798932  0.50094470  1
  Ni  Ni37  1  0.33429849  1.00109868  0.66779960  1
  Ni  Ni38  1  0.50134973  0.16857284  0.83435105  1
  Ni  Ni39  1  0.50163754  0.50003016  0.50005335  1
  Ni  Ni40  1  0.33443512  0.33474747  0.66767693  1
  Ni  Ni41  1  0.50135322  0.49914570  0.83513690  1
  Ni  Ni42  1  0.50147832  0.83537832  0.50129784  1
  Ni  Ni43  1  0.33514639  0.66750545  0.66755636  1
  Fe  Fe44  1  0.50136554  0.83441056  0.83438025  1
  Fe  Fe45  1  0.83241017  0.16805741  0.50308675  1
  Ni  Ni46  1  0.66777628  1.00060350  0.66759125  1
  Ni  Ni47  1  0.83332043  0.16770975  0.83401166  1
  Ni  Ni48  1  0.83325651  0.50298925  0.50206239  1
  Ni  Ni49  1  0.66736589  0.33507278  0.66753095  1
  Ni  Ni50  1  0.83421716  0.50135147  0.83475885  1
  Ni  Ni51  1  0.83343695  0.83244883  0.50100827  1
  Ni  Ni52  1  0.66730023  0.66768339  0.66797680  1
  Ni  Ni53  1  0.83554624  0.83435596  0.83541360  1
" 