4790,Ni87Fe6Cr5_4,-238.040083249435, 178.406016415996,Ni87Fe6Cr5,"# generated using pymatgen
 data_Cr4Fe3Ni47
_symmetry_space_group_name_H-M   'P 1'
_cell_length_a   7.45623347
_cell_length_b   7.45623347
_cell_length_c   10.54470649
_cell_angle_alpha   90.00000000
_cell_angle_beta   90.00000000
_cell_angle_gamma   90.00000000
_symmetry_Int_Tables_number   1
_chemical_formula_structural   Cr4Fe3Ni47
_chemical_formula_sum   'Cr4 Fe3 Ni47'
_cell_volume   586.23735998
_cell_formula_units_Z   1
loop_
 _symmetry_equiv_pos_site_id
 _symmetry_equiv_pos_as_xyz
  1  'x, y, z'
loop_
 _atom_site_type_symbol
 _atom_site_label
 _atom_site_symmetry_multiplicity
 _atom_site_fract_x
 _atom_site_fract_y
 _atom_site_fract_z
 _atom_site_occupancy
  Ni  Ni0  1  1.00048816  1.00049750  0.00128622  1
  Ni  Ni1  1  0.16655013  0.16604032  0.16483400  1
  Ni  Ni2  1  0.99833466  0.99848859  0.33372999  1
  Ni  Ni3  1  0.00110974  0.33365962  0.00157735  1
  Ni  Ni4  1  0.16557370  0.50333420  0.16535623  1
  Cr  Cr5  1  0.99967368  0.33391407  0.33505232  1
  Ni  Ni6  1  0.00133119  0.66840049  0.00126412  1
  Ni  Ni7  1  0.16842672  0.83276681  0.16684777  1
  Ni  Ni8  1  0.00121437  0.66873502  0.33401227  1
  Ni  Ni9  1  0.33458034  1.00016945  1.00072090  1
  Ni  Ni10  1  0.50308937  0.16536553  0.16570380  1
  Cr  Cr11  1  0.33398357  0.99959970  0.33503519  1
  Ni  Ni12  1  0.33404638  0.33405132  0.00120498  1
  Fe  Fe13  1  0.50033774  0.50059804  0.16619562  1
  Cr  Cr14  1  0.33549209  0.33562285  0.33392171  1
  Ni  Ni15  1  0.33413088  0.66771940  1.00062295  1
  Ni  Ni16  1  0.50095100  0.83379247  0.16696893  1
  Ni  Ni17  1  0.33350456  0.66758842  0.33407956  1
  Ni  Ni18  1  0.66738511  1.00050957  1.00027078  1
  Ni  Ni19  1  0.83254017  0.16821495  0.16653565  1
  Ni  Ni20  1  0.66878106  0.00119054  0.33403806  1
  Ni  Ni21  1  0.66670579  0.33329423  0.00164180  1
  Ni  Ni22  1  0.83347761  0.50126651  0.16706828  1
  Ni  Ni23  1  0.66763985  0.33348393  0.33405429  1
  Ni  Ni24  1  0.66671711  0.66854639  0.00226643  1
  Fe  Fe25  1  0.83504797  0.83531213  0.16687892  1
  Fe  Fe26  1  0.66766057  0.66787964  0.33422062  1
  Ni  Ni27  1  0.16646339  0.16589721  0.50299788  1
  Ni  Ni28  1  0.99997363  0.99997057  0.66701994  1
  Ni  Ni29  1  0.16752218  0.16710426  0.83463702  1
  Ni  Ni30  1  0.16731839  0.50325278  0.50257136  1
  Ni  Ni31  1  0.00149246  0.33325401  0.66615970  1
  Ni  Ni32  1  0.16871873  0.50090789  0.83424117  1
  Ni  Ni33  1  0.16687540  0.83290706  0.50110480  1
  Ni  Ni34  1  0.00121799  0.66893156  0.66660129  1
  Ni  Ni35  1  0.16784695  0.83417722  0.83428491  1
  Ni  Ni36  1  0.50297342  0.16699382  0.50220565  1
  Ni  Ni37  1  0.33438829  1.00033761  0.66719684  1
  Ni  Ni38  1  0.50068761  0.16701800  0.83427275  1
  Ni  Ni39  1  0.50184679  0.50190607  0.50033363  1
  Ni  Ni40  1  0.33456477  0.33455727  0.66705786  1
  Ni  Ni41  1  0.49976997  0.50108349  0.83511410  1
  Ni  Ni42  1  0.50133162  0.83345802  0.50147590  1
  Ni  Ni43  1  0.33445175  0.66726938  0.66739797  1
  Ni  Ni44  1  0.50056504  0.83409988  0.83392439  1
  Ni  Ni45  1  0.83264461  0.16655146  0.50143619  1
  Ni  Ni46  1  0.66782685  1.00012047  0.66773212  1
  Ni  Ni47  1  0.83395583  0.16615289  0.83425227  1
  Ni  Ni48  1  0.83320460  0.50158967  0.50145974  1
  Ni  Ni49  1  0.66616297  0.33334202  0.66623514  1
  Cr  Cr50  1  0.83427537  0.50041486  0.83319286  1
  Ni  Ni51  1  0.83394208  0.83401923  0.49958731  1
  Ni  Ni52  1  0.66658511  0.66869738  0.66613385  1
  Ni  Ni53  1  0.83378009  0.83510366  0.83514404  1
" 