2873,Ni87Fe13_7,-229.665816538999, 164.259188890279,Ni87Fe13,"# generated using pymatgen
 data_Fe23Ni4
_symmetry_space_group_name_H-M   'P 1'
_cell_length_a   7.40377598
_cell_length_b   7.40377598
_cell_length_c   10.47052041
_cell_angle_alpha   90.00000000
_cell_angle_beta   90.00000000
_cell_angle_gamma   90.00000000
_symmetry_Int_Tables_number   1
_chemical_formula_structural   Fe23Ni4
_chemical_formula_sum   'Fe46 Ni8'
_cell_volume   573.95098673
_cell_formula_units_Z   2
loop_
 _symmetry_equiv_pos_site_id
 _symmetry_equiv_pos_as_xyz
  1  'x, y, z'
loop_
 _atom_site_type_symbol
 _atom_site_label
 _atom_site_symmetry_multiplicity
 _atom_site_fract_x
 _atom_site_fract_y
 _atom_site_fract_z
 _atom_site_occupancy
  Ni  Ni0  1  1.00312623  1.00346437  1.00400573  1
  Fe  Fe1  1  0.17040946  0.17108357  0.17056665  1
  Ni  Ni2  1  1.00349657  1.00360577  0.33786534  1
  Fe  Fe3  1  1.00418355  0.33590057  0.00427306  1
  Fe  Fe4  1  0.17075719  0.50399254  0.17075254  1
  Fe  Fe5  1  1.00380192  0.33741236  0.33742004  1
  Fe  Fe6  1  0.00470861  0.67173259  0.00455064  1
  Fe  Fe7  1  0.16994395  0.83774447  0.17084610  1
  Fe  Fe8  1  1.00399551  0.67111900  0.33741907  1
  Ni  Ni9  1  0.33749392  0.00541225  1.00415683  1
  Fe  Fe10  1  0.50451531  0.17146494  0.17019218  1
  Fe  Fe11  1  0.33704307  1.00408361  0.33717029  1
  Ni  Ni12  1  0.33793943  0.33823110  0.00453547  1
  Fe  Fe13  1  0.50455222  0.50399355  0.17085341  1
  Fe  Fe14  1  0.33698840  0.33698699  0.33779412  1
  Fe  Fe15  1  0.33760493  0.67237551  1.00426849  1
  Fe  Fe16  1  0.50498164  0.83736402  0.17047257  1
  Fe  Fe17  1  0.33698846  0.67174856  0.33779442  1
  Ni  Ni18  1  0.67219921  1.00346455  0.00471351  1
  Fe  Fe19  1  0.83789330  0.17064942  0.17023323  1
  Fe  Fe20  1  0.67139867  0.00427791  0.33727019  1
  Fe  Fe21  1  0.67103488  0.33580634  0.00436894  1
  Ni  Ni22  1  0.83771866  0.50404883  0.17060618  1
  Fe  Fe23  1  0.67202866  0.33735762  0.33742001  1
  Fe  Fe24  1  0.67050584  0.67182680  0.00464657  1
  Fe  Fe25  1  0.83789069  0.83769402  0.17085213  1
  Fe  Fe26  1  0.67183503  0.67118168  0.33741905  1
  Fe  Fe27  1  0.17103317  0.17093755  0.50417555  1
  Fe  Fe28  1  0.00461171  0.00517335  0.67103089  1
  Fe  Fe29  1  0.17094624  0.17104192  0.83807357  1
  Fe  Fe30  1  0.17140634  0.50399170  0.50473997  1
  Fe  Fe31  1  0.00445761  0.33751441  0.67112572  1
  Fe  Fe32  1  0.17098105  0.50309142  0.83732390  1
  Fe  Fe33  1  0.17056234  0.83788984  0.50389927  1
  Fe  Fe34  1  0.00498379  0.67013233  0.67084676  1
  Fe  Fe35  1  0.17013305  0.83869073  0.83807130  1
  Fe  Fe36  1  0.50389892  0.17131204  0.50455012  1
  Fe  Fe37  1  0.33770048  0.00464780  0.67127570  1
  Fe  Fe38  1  0.50426861  0.17103966  0.83807749  1
  Fe  Fe39  1  0.50390129  0.50399275  0.50463913  1
  Ni  Ni40  1  0.33793904  0.33837692  0.67023503  1
  Fe  Fe41  1  0.50423461  0.50309346  0.83732395  1
  Fe  Fe42  1  0.50437067  0.83751631  0.50427290  1
  Fe  Fe43  1  0.33760497  0.67038996  0.67075570  1
  Fe  Fe44  1  0.50508006  0.83869105  0.83807534  1
  Fe  Fe45  1  0.83788580  0.17046655  0.50461477  1
  Fe  Fe46  1  0.67050594  0.00517276  0.67174497  1
  Ni  Ni47  1  0.83760041  0.17092916  0.83806749  1
  Fe  Fe48  1  0.83751207  0.50446206  0.50355823  1
  Fe  Fe49  1  0.67076033  0.33741877  0.67103018  1
  Fe  Fe50  1  0.83760539  0.50390748  0.83804196  1
  Fe  Fe51  1  0.83788320  0.83788726  0.50400169  1
  Fe  Fe52  1  0.67023013  0.67022800  0.67075119  1
  Fe  Fe53  1  0.83760566  0.83872002  0.83796865  1
" 