8544,Ni87Fe9Cr3_16,-239.049242838247, 182.055711594125,Ni87Fe9Cr3,"# generated using pymatgen
 data_Cr3Fe4Ni47
_symmetry_space_group_name_H-M   'P 1'
_cell_length_a   7.44889163
_cell_length_b   7.44889163
_cell_length_c   10.53432356
_cell_angle_alpha   90.00000000
_cell_angle_beta   90.00000000
_cell_angle_gamma   90.00000000
_symmetry_Int_Tables_number   1
_chemical_formula_structural   Cr3Fe4Ni47
_chemical_formula_sum   'Cr3 Fe4 Ni47'
_cell_volume   584.50733463
_cell_formula_units_Z   1
loop_
 _symmetry_equiv_pos_site_id
 _symmetry_equiv_pos_as_xyz
  1  'x, y, z'
loop_
 _atom_site_type_symbol
 _atom_site_label
 _atom_site_symmetry_multiplicity
 _atom_site_fract_x
 _atom_site_fract_y
 _atom_site_fract_z
 _atom_site_occupancy
  Ni  Ni0  1  0.00166278  1.00053010  1.00090748  1
  Ni  Ni1  1  0.16768166  0.16716603  0.16820449  1
  Ni  Ni2  1  0.00144141  0.99936500  0.33270673  1
  Ni  Ni3  1  0.00166254  0.33502330  1.00119354  1
  Ni  Ni4  1  0.16889873  0.50109784  0.16845523  1
  Ni  Ni5  1  0.00144165  0.33646383  0.33270372  1
  Ni  Ni6  1  1.00057625  0.66810250  1.00094601  1
  Ni  Ni7  1  0.16774912  0.83539170  0.16800562  1
  Ni  Ni8  1  1.00118627  0.66782961  0.33507175  1
  Ni  Ni9  1  0.33352763  0.00268703  0.00184379  1
  Fe  Fe10  1  0.50116778  0.16832466  0.16794861  1
  Ni  Ni11  1  0.33508451  1.00076648  0.33410515  1
  Ni  Ni12  1  0.33466762  0.33400667  1.00083957  1
  Ni  Ni13  1  0.50131617  0.50123387  0.16781022  1
  Ni  Ni14  1  0.33522395  0.33519735  0.33410450  1
  Fe  Fe15  1  0.33342461  0.66670945  0.00189588  1
  Fe  Fe16  1  0.50149034  0.83426279  0.16797919  1
  Ni  Ni17  1  0.33408169  0.66769124  0.33438480  1
  Ni  Ni18  1  0.66846492  0.00159988  0.00184389  1
  Ni  Ni19  1  0.83472630  0.16716633  0.16816564  1
  Ni  Ni20  1  0.66712996  1.00051144  0.33385095  1
  Ni  Ni21  1  0.66732528  0.33509367  1.00083962  1
  Ni  Ni22  1  0.83344117  0.50116654  0.16839058  1
  Ni  Ni23  1  0.66699022  0.33545271  0.33384971  1
  Ni  Ni24  1  0.66948387  0.66696212  0.00191296  1
  Ni  Ni25  1  0.83459145  0.83532307  0.16794104  1
  Ni  Ni26  1  0.66838825  0.66769094  0.33486273  1
  Cr  Cr27  1  0.16929274  0.16761937  0.50110448  1
  Ni  Ni28  1  0.00144156  0.99911947  0.67004319  1
  Ni  Ni29  1  0.16789152  0.16757137  0.83437363  1
  Ni  Ni30  1  0.16896291  0.50360914  0.50082382  1
  Ni  Ni31  1  0.00144174  0.33643615  0.66975931  1
  Ni  Ni32  1  0.16827181  0.50091334  0.83437649  1
  Ni  Ni33  1  0.16781293  0.83288447  0.50127340  1
  Ni  Ni34  1  1.00118641  0.66810225  0.66763865  1
  Ni  Ni35  1  0.16614207  0.83517102  0.83437668  1
  Ni  Ni36  1  0.50122007  0.16831598  0.50104988  1
  Ni  Ni37  1  0.33446062  0.00159664  0.66770760  1
  Ni  Ni38  1  0.50124731  0.16969710  0.83447040  1
  Ni  Ni39  1  0.50121493  0.50108705  0.50152744  1
  Ni  Ni40  1  0.33560025  0.33509549  0.66871184  1
  Ni  Ni41  1  0.50131684  0.49923027  0.83431793  1
  Fe  Fe42  1  0.50121696  0.83398446  0.50133627  1
  Ni  Ni43  1  0.33338045  0.66696197  0.66735934  1
  Cr  Cr44  1  0.50139530  0.83417430  0.83448970  1
  Cr  Cr45  1  0.83314346  0.16761929  0.50110451  1
  Ni  Ni46  1  0.66775408  0.00134222  0.66796083  1
  Ni  Ni47  1  0.83451711  0.16757184  0.83441232  1
  Ni  Ni48  1  0.83347833  0.50360400  0.50082382  1
  Ni  Ni49  1  0.66661406  0.33535094  0.66896620  1
  Ni  Ni50  1  0.83406722  0.50098261  0.83444167  1
  Ni  Ni51  1  0.83462827  0.83288961  0.50127351  1
  Ni  Ni52  1  0.66908853  0.66696191  0.66688173  1
  Ni  Ni53  1  0.83619638  0.83510158  0.83444196  1
" 