4638,Ni87Fe8Cr3_7,-239.128740625148, 185.022482465744,Ni87Fe8Cr3,"# generated using pymatgen
 data_Cr3Fe4Ni47
_symmetry_space_group_name_H-M   'P 1'
_cell_length_a   7.44684928
_cell_length_b   7.44684928
_cell_length_c   10.53143525
_cell_angle_alpha   90.00000000
_cell_angle_beta   90.00000000
_cell_angle_gamma   90.00000000
_symmetry_Int_Tables_number   1
_chemical_formula_structural   Cr3Fe4Ni47
_chemical_formula_sum   'Cr3 Fe4 Ni47'
_cell_volume   584.02668403
_cell_formula_units_Z   1
loop_
 _symmetry_equiv_pos_site_id
 _symmetry_equiv_pos_as_xyz
  1  'x, y, z'
loop_
 _atom_site_type_symbol
 _atom_site_label
 _atom_site_symmetry_multiplicity
 _atom_site_fract_x
 _atom_site_fract_y
 _atom_site_fract_z
 _atom_site_occupancy
  Ni  Ni0  1  1.00127419  1.00118643  0.00138645  1
  Ni  Ni1  1  0.16681539  0.16764096  0.16879861  1
  Ni  Ni2  1  0.00166250  0.00135755  0.33440129  1
  Ni  Ni3  1  0.99979682  0.33436910  1.00101215  1
  Ni  Ni4  1  0.16735924  0.50217308  0.16930527  1
  Ni  Ni5  1  0.00184612  0.33448681  0.33470440  1
  Ni  Ni6  1  0.00155217  0.66851629  1.00081440  1
  Ni  Ni7  1  0.16785435  0.83425233  0.16775153  1
  Ni  Ni8  1  0.00184928  0.66822725  0.33509454  1
  Ni  Ni9  1  0.33443130  0.99942928  1.00092304  1
  Ni  Ni10  1  0.50278180  0.16737811  0.16905044  1
  Ni  Ni11  1  0.33444868  1.00135603  0.33484368  1
  Cr  Cr12  1  0.33469108  0.33466683  1.00127544  1
  Ni  Ni13  1  0.50197634  0.50217399  0.16883039  1
  Ni  Ni14  1  0.33465789  0.33489086  0.33513034  1
  Ni  Ni15  1  0.33455258  0.66987949  0.00150109  1
  Ni  Ni16  1  0.50174187  0.83451646  0.16800405  1
  Ni  Ni17  1  0.33465771  0.66782242  0.33438170  1
  Ni  Ni18  1  0.66836351  1.00118682  1.00106617  1
  Ni  Ni19  1  0.83447008  0.16787709  0.16797432  1
  Ni  Ni20  1  0.66795791  0.00135773  0.33477993  1
  Ni  Ni21  1  0.66972971  0.33449370  1.00126213  1
  Fe  Fe22  1  0.83465095  0.50131923  0.16801857  1
  Ni  Ni23  1  0.66756311  0.33469132  0.33451275  1
  Ni  Ni24  1  0.66796441  0.66839068  1.00106514  1
  Ni  Ni25  1  0.83447080  0.83506524  0.16821531  1
  Ni  Ni26  1  0.66756058  0.66802197  0.33490140  1
  Ni  Ni27  1  0.16927169  0.16883883  0.50078862  1
  Cr  Cr28  1  0.00156871  1.00113238  0.66820375  1
  Ni  Ni29  1  0.16829107  0.16846272  0.83448037  1
  Ni  Ni30  1  0.16610564  0.50054035  0.50079242  1
  Ni  Ni31  1  0.00157071  0.33631742  0.66835116  1
  Ni  Ni32  1  0.16510809  0.50135381  0.83397319  1
  Ni  Ni33  1  0.16823153  0.83468836  0.49973501  1
  Ni  Ni34  1  0.99980446  0.66621472  0.66815371  1
  Ni  Ni35  1  0.16828877  0.83424928  0.83657921  1
  Ni  Ni36  1  0.50115105  0.16753502  0.50158134  1
  Ni  Ni37  1  0.33635100  0.00328378  0.66829818  1
  Ni  Ni38  1  0.50234082  0.16633852  0.83343445  1
  Ni  Ni39  1  0.50300366  0.50054275  0.50102805  1
  Ni  Ni40  1  0.33472726  0.33305360  0.66782117  1
  Fe  Fe41  1  0.50316593  0.50135586  0.83474843  1
  Ni  Ni42  1  0.50219202  0.83598910  0.50053671  1
  Cr  Cr43  1  0.33447553  0.66784020  0.66826623  1
  Ni  Ni44  1  0.50234353  0.83637350  0.83552825  1
  Fe  Fe45  1  0.83381325  0.16950758  0.50042335  1
  Ni  Ni46  1  0.66625367  0.00152345  0.66821008  1
  Ni  Ni47  1  0.83343840  0.16950053  0.83528383  1
  Ni  Ni48  1  0.83496016  0.50158514  0.50135695  1
  Ni  Ni49  1  0.66777031  0.33469926  0.66830326  1
  Ni  Ni50  1  0.83554813  0.50135693  0.83495831  1
  Fe  Fe51  1  0.83381005  0.83316690  0.50048118  1
  Ni  Ni52  1  0.66953082  0.66784845  0.66810591  1
  Ni  Ni53  1  0.83343632  0.83320748  0.83480529  1
" 