5633,Ni87Fe6Cr5_12,-238.069328063421, 179.746008217356,Ni87Fe6Cr5,"# generated using pymatgen
 data_Cr4Fe3Ni47
_symmetry_space_group_name_H-M   'P 1'
_cell_length_a   7.45493600
_cell_length_b   7.45493600
_cell_length_c   10.54287160
_cell_angle_alpha   90.00000000
_cell_angle_beta   90.00000000
_cell_angle_gamma   90.00000000
_symmetry_Int_Tables_number   1
_chemical_formula_structural   Cr4Fe3Ni47
_chemical_formula_sum   'Cr4 Fe3 Ni47'
_cell_volume   585.93137850
_cell_formula_units_Z   1
loop_
 _symmetry_equiv_pos_site_id
 _symmetry_equiv_pos_as_xyz
  1  'x, y, z'
loop_
 _atom_site_type_symbol
 _atom_site_label
 _atom_site_symmetry_multiplicity
 _atom_site_fract_x
 _atom_site_fract_y
 _atom_site_fract_z
 _atom_site_occupancy
  Ni  Ni0  1  0.99981922  0.99948310  0.00167477  1
  Ni  Ni1  1  0.16737548  0.16579848  0.16724122  1
  Ni  Ni2  1  0.00129622  0.00113928  0.33419269  1
  Ni  Ni3  1  0.99802361  0.33423740  0.00136833  1
  Cr  Cr4  1  0.16629783  0.49885909  0.16883984  1
  Ni  Ni5  1  0.99922354  0.33274059  0.33477174  1
  Ni  Ni6  1  0.99842347  0.66876617  1.00018772  1
  Ni  Ni7  1  0.16668501  0.83689927  0.16928266  1
  Ni  Ni8  1  0.99922686  0.66847726  0.33495884  1
  Ni  Ni9  1  0.33506507  0.00109895  0.00166216  1
  Ni  Ni10  1  0.50080334  0.16710672  0.16836260  1
  Ni  Ni11  1  0.33344488  0.00095809  0.33444129  1
  Ni  Ni12  1  0.33685604  0.33247982  0.00136800  1
  Ni  Ni13  1  0.50346154  0.50034396  0.16865244  1
  Ni  Ni14  1  0.33555903  0.33284929  0.33472445  1
  Cr  Cr15  1  0.33451519  0.66840976  1.00038424  1
  Ni  Ni16  1  0.50232566  0.83496175  0.16842396  1
  Ni  Ni17  1  0.33529357  0.66866329  0.33495565  1
  Ni  Ni18  1  0.66751364  0.00141734  0.00159963  1
  Ni  Ni19  1  0.83433007  0.16719118  0.16762717  1
  Fe  Fe20  1  0.66817784  0.00093385  0.33382060  1
  Ni  Ni21  1  0.66753072  0.33387240  1.00053959  1
  Ni  Ni22  1  0.83214034  0.50104618  0.16798288  1
  Ni  Ni23  1  0.66806565  0.33480570  0.33456276  1
  Ni  Ni24  1  0.66908717  0.66708945  1.00075697  1
  Ni  Ni25  1  0.83351601  0.83417311  0.16772448  1
  Ni  Ni26  1  0.66758156  0.66660306  0.33380241  1
  Ni  Ni27  1  0.16734496  0.16778515  0.50058023  1
  Ni  Ni28  1  0.00131198  1.00001393  0.66648827  1
  Cr  Cr29  1  0.16694866  0.16802146  0.83514878  1
  Ni  Ni30  1  0.16790931  0.49897263  0.50072229  1
  Ni  Ni31  1  0.99941232  0.33475511  0.66631185  1
  Ni  Ni32  1  0.16662212  0.50087569  0.83277822  1
  Fe  Fe33  1  0.16636673  0.83293665  0.50056406  1
  Ni  Ni34  1  1.00036444  0.66731796  0.66711481  1
  Ni  Ni35  1  0.16663201  0.83403355  0.83211120  1
  Fe  Fe36  1  0.50103454  0.16935963  0.50034335  1
  Ni  Ni37  1  0.33347027  0.99983653  0.66632908  1
  Ni  Ni38  1  0.50123590  0.16786606  0.83394577  1
  Ni  Ni39  1  0.50065441  0.50280314  0.50073804  1
  Ni  Ni40  1  0.33521725  0.33494232  0.66649722  1
  Ni  Ni41  1  0.50174397  0.50030619  0.83298460  1
  Ni  Ni42  1  0.50073866  0.83276447  0.49991609  1
  Ni  Ni43  1  0.33422503  0.66757749  0.66705355  1
  Ni  Ni44  1  0.50149541  0.83429084  0.83417355  1
  Ni  Ni45  1  0.83691937  0.16779722  0.50010862  1
  Cr  Cr46  1  0.66837629  0.00171310  0.66716334  1
  Ni  Ni47  1  0.83358455  0.16791876  0.83469512  1
  Ni  Ni48  1  0.83382203  0.50123011  0.50072580  1
  Ni  Ni49  1  0.66810608  0.33605426  0.66726609  1
  Ni  Ni50  1  0.83402175  0.50100515  0.83364213  1
  Ni  Ni51  1  0.83285932  0.83350922  0.49988124  1
  Ni  Ni52  1  0.66753751  0.66622713  0.66781175  1
  Ni  Ni53  1  0.83427193  0.83354707  0.83486123  1
" 