8277,Ni87Fe8Cr3_12,-239.162397079378, 184.774917740539,Ni87Fe8Cr3,"# generated using pymatgen
 data_Cr3Fe4Ni47
_symmetry_space_group_name_H-M   'P 1'
_cell_length_a   7.44700630
_cell_length_b   7.44700630
_cell_length_c   10.53165731
_cell_angle_alpha   90.00000000
_cell_angle_beta   90.00000000
_cell_angle_gamma   90.00000000
_symmetry_Int_Tables_number   1
_chemical_formula_structural   Cr3Fe4Ni47
_chemical_formula_sum   'Cr3 Fe4 Ni47'
_cell_volume   584.06362793
_cell_formula_units_Z   1
loop_
 _symmetry_equiv_pos_site_id
 _symmetry_equiv_pos_as_xyz
  1  'x, y, z'
loop_
 _atom_site_type_symbol
 _atom_site_label
 _atom_site_symmetry_multiplicity
 _atom_site_fract_x
 _atom_site_fract_y
 _atom_site_fract_z
 _atom_site_occupancy
  Ni  Ni0  1  0.00199449  1.00017851  1.00075485  1
  Fe  Fe1  1  0.16986683  0.16799674  0.16774334  1
  Ni  Ni2  1  0.00210333  0.99969863  0.33558971  1
  Ni  Ni3  1  0.00206401  0.33562454  1.00043731  1
  Ni  Ni4  1  0.16816032  0.50201532  0.16799844  1
  Fe  Fe5  1  0.00199074  0.33582365  0.33545428  1
  Ni  Ni6  1  1.00096033  0.66823236  0.00192126  1
  Ni  Ni7  1  0.16643925  0.83393650  0.16757193  1
  Ni  Ni8  1  1.00106750  0.66896631  0.33417158  1
  Ni  Ni9  1  0.33357208  0.00290695  1.00075620  1
  Ni  Ni10  1  0.49997353  0.16954674  0.16761159  1
  Ni  Ni11  1  0.33238442  0.00218303  0.33475028  1
  Ni  Ni12  1  0.33513188  0.33452477  0.00179262  1
  Ni  Ni13  1  0.50052784  0.49924059  0.16800305  1
  Ni  Ni14  1  0.33487471  0.33537015  0.33338682  1
  Ni  Ni15  1  0.33350660  0.66660582  1.00056475  1
  Cr  Cr16  1  0.50134320  0.83520413  0.16845622  1
  Ni  Ni17  1  0.33342131  0.66648410  0.33604531  1
  Ni  Ni18  1  0.66847028  0.00180473  0.99965022  1
  Cr  Cr19  1  0.83371207  0.16761749  0.16786962  1
  Ni  Ni20  1  0.66954984  1.00115481  0.33579461  1
  Ni  Ni21  1  0.66684313  0.33555988  1.00071045  1
  Ni  Ni22  1  0.83535245  0.50282520  0.16773429  1
  Ni  Ni23  1  0.66706560  0.33640971  0.33442785  1
  Ni  Ni24  1  0.66956839  0.66667149  1.00079773  1
  Ni  Ni25  1  0.83681798  0.83338940  0.16806536  1
  Ni  Ni26  1  0.66954971  0.66647132  0.33574845  1
  Ni  Ni27  1  0.16620902  0.16780604  0.50053937  1
  Ni  Ni28  1  1.00124700  1.00100449  0.66768850  1
  Ni  Ni29  1  0.16816275  0.16852609  0.83529789  1
  Ni  Ni30  1  0.16806919  0.50167411  0.50123512  1
  Fe  Fe31  1  0.00140280  0.33461868  0.66849009  1
  Ni  Ni32  1  0.16816361  0.50076598  0.83480509  1
  Ni  Ni33  1  0.16813895  0.83456052  0.50152849  1
  Ni  Ni34  1  1.00123550  0.66861551  0.66794341  1
  Fe  Fe35  1  0.16802304  0.83471284  0.83474214  1
  Cr  Cr36  1  0.50161000  0.16718883  0.50132162  1
  Ni  Ni37  1  0.33323992  1.00129092  0.66852827  1
  Ni  Ni38  1  0.50117645  0.16727246  0.83532826  1
  Ni  Ni39  1  0.50093922  0.50339985  0.50103530  1
  Ni  Ni40  1  0.33455914  0.33551779  0.66885600  1
  Ni  Ni41  1  0.50071138  0.50155532  0.83499823  1
  Ni  Ni42  1  0.50120149  0.83316180  0.50116347  1
  Ni  Ni43  1  0.33435159  0.66722563  0.66742561  1
  Ni  Ni44  1  0.50182914  0.83520908  0.83456145  1
  Ni  Ni45  1  0.83642892  0.16754194  0.50168856  1
  Ni  Ni46  1  0.66954714  1.00120762  0.66859418  1
  Ni  Ni47  1  0.83469975  0.16740606  0.83441278  1
  Ni  Ni48  1  0.83502962  0.50147397  0.50103419  1
  Ni  Ni49  1  0.66816059  0.33553130  0.66890113  1
  Ni  Ni50  1  0.83516263  0.50142243  0.83526994  1
  Ni  Ni51  1  0.83469599  0.83502410  0.50057039  1
  Ni  Ni52  1  0.66844868  0.66729754  0.66749194  1
  Ni  Ni53  1  0.83390681  0.83520839  0.83540257  1
" 