1290,Ni87Fe10Cr2_0,-240.095661749914, 189.087094614311,Ni87Fe10Cr2,"# generated using pymatgen
 data_Cr2Fe5Ni47
_symmetry_space_group_name_H-M   'P 1'
_cell_length_a   7.44363490
_cell_length_b   7.44363490
_cell_length_c   10.52688943
_cell_angle_alpha   90.00000000
_cell_angle_beta   90.00000000
_cell_angle_gamma   90.00000000
_symmetry_Int_Tables_number   1
_chemical_formula_structural   Cr2Fe5Ni47
_chemical_formula_sum   'Cr2 Fe5 Ni47'
_cell_volume   583.27073715
_cell_formula_units_Z   1
loop_
 _symmetry_equiv_pos_site_id
 _symmetry_equiv_pos_as_xyz
  1  'x, y, z'
loop_
 _atom_site_type_symbol
 _atom_site_label
 _atom_site_symmetry_multiplicity
 _atom_site_fract_x
 _atom_site_fract_y
 _atom_site_fract_z
 _atom_site_occupancy
  Fe  Fe0  1  0.00228188  0.00270196  1.00149064  1
  Ni  Ni1  1  0.16786457  0.16751120  0.16797623  1
  Ni  Ni2  1  0.00157369  1.00130925  0.33372996  1
  Ni  Ni3  1  0.99997992  0.33553931  1.00031218  1
  Cr  Cr4  1  0.16947941  0.50120792  0.16917385  1
  Ni  Ni5  1  1.00003822  0.33394195  0.33608867  1
  Ni  Ni6  1  1.00072434  0.66898530  1.00069367  1
  Ni  Ni7  1  0.16785427  0.83578495  0.16823602  1
  Ni  Ni8  1  1.00034590  0.66940618  0.33608927  1
  Ni  Ni9  1  0.33651277  1.00126567  0.00159980  1
  Ni  Ni10  1  0.50232224  0.16827316  0.16843203  1
  Ni  Ni11  1  0.33530839  1.00156252  0.33462854  1
  Ni  Ni12  1  0.33619584  0.33329952  1.00058840  1
  Ni  Ni13  1  0.50260078  0.50147258  0.16801122  1
  Ni  Ni14  1  0.33634452  0.33309379  0.33544322  1
  Ni  Ni15  1  0.33426071  0.67009156  1.00027216  1
  Ni  Ni16  1  0.50216133  0.83481937  0.16837164  1
  Ni  Ni17  1  0.33583160  0.67001386  0.33612308  1
  Ni  Ni18  1  0.66727346  0.00224043  1.00105917  1
  Ni  Ni19  1  0.83460840  0.16776503  0.16830861  1
  Ni  Ni20  1  0.66779541  0.00174682  0.33548483  1
  Ni  Ni21  1  0.66853289  0.33332509  0.00200875  1
  Ni  Ni22  1  0.83380913  0.50151363  0.16825140  1
  Ni  Ni23  1  0.66823513  0.33449150  0.33420918  1
  Fe  Fe24  1  0.66690058  0.66787002  0.00181244  1
  Ni  Ni25  1  0.83444486  0.83559213  0.16786228  1
  Ni  Ni26  1  0.66842901  0.66842544  0.33371734  1
  Ni  Ni27  1  0.16729754  0.16882497  0.50179187  1
  Ni  Ni28  1  0.00227289  0.00243996  0.66925910  1
  Ni  Ni29  1  0.16768335  0.16925840  0.83489663  1
  Ni  Ni30  1  0.17032970  0.50026247  0.50091801  1
  Ni  Ni31  1  1.00069040  0.33311171  0.66840284  1
  Ni  Ni32  1  0.16989391  0.50069208  0.83515945  1
  Ni  Ni33  1  0.16836479  0.83552692  0.50056741  1
  Cr  Cr34  1  0.00174008  0.66826311  0.66738333  1
  Ni  Ni35  1  0.16833693  0.83507702  0.83568808  1
  Ni  Ni36  1  0.50234178  0.16894923  0.50213121  1
  Ni  Ni37  1  0.33457195  1.00153095  0.66844614  1
  Ni  Ni38  1  0.50242764  0.16881344  0.83424176  1
  Ni  Ni39  1  0.50086501  0.50178381  0.50137647  1
  Ni  Ni40  1  0.33556679  0.33405897  0.66880342  1
  Ni  Ni41  1  0.50051354  0.50140727  0.83536541  1
  Ni  Ni42  1  0.50270789  0.83395557  0.50234164  1
  Ni  Ni43  1  0.33653552  0.66907656  0.66841785  1
  Ni  Ni44  1  0.50230286  0.83427584  0.83414377  1
  Ni  Ni45  1  0.83512755  0.16709677  0.50187217  1
  Fe  Fe46  1  0.66806659  0.00185383  0.66832434  1
  Ni  Ni47  1  0.83479054  0.16748527  0.83457141  1
  Fe  Fe48  1  0.83345774  0.50080017  0.50015911  1
  Ni  Ni49  1  0.66830089  0.33537798  0.66846161  1
  Fe  Fe50  1  0.83410351  0.50066793  0.83610472  1
  Ni  Ni51  1  0.83373945  0.83689860  0.50080536  1
  Ni  Ni52  1  0.66726761  0.66756307  0.66933322  1
  Ni  Ni53  1  0.83391831  0.83662192  0.83598310  1
" 