1409,Ni87Fe10Cr2_2,-240.217709793147, 189.289670917961,Ni87Fe10Cr2,"# generated using pymatgen
 data_Cr2Fe5Ni47
_symmetry_space_group_name_H-M   'P 1'
_cell_length_a   7.44389742
_cell_length_b   7.44389742
_cell_length_c   10.52726068
_cell_angle_alpha   90.00000000
_cell_angle_beta   90.00000000
_cell_angle_gamma   90.00000000
_symmetry_Int_Tables_number   1
_chemical_formula_structural   Cr2Fe5Ni47
_chemical_formula_sum   'Cr2 Fe5 Ni47'
_cell_volume   583.33245021
_cell_formula_units_Z   1
loop_
 _symmetry_equiv_pos_site_id
 _symmetry_equiv_pos_as_xyz
  1  'x, y, z'
loop_
 _atom_site_type_symbol
 _atom_site_label
 _atom_site_symmetry_multiplicity
 _atom_site_fract_x
 _atom_site_fract_y
 _atom_site_fract_z
 _atom_site_occupancy
  Ni  Ni0  1  1.00089855  1.00136126  0.00281401  1
  Ni  Ni1  1  0.16912086  0.16911375  0.16894847  1
  Fe  Fe2  1  0.00361860  1.00075541  0.33403987  1
  Ni  Ni3  1  0.00238457  0.33458505  1.00136240  1
  Ni  Ni4  1  0.16713392  0.50149171  0.16771930  1
  Ni  Ni5  1  0.00283641  0.33650504  0.33369032  1
  Ni  Ni6  1  0.00212007  0.66859211  1.00140964  1
  Ni  Ni7  1  0.16900029  0.83406106  0.16832808  1
  Ni  Ni8  1  0.00210652  0.66753394  0.33474787  1
  Fe  Fe9  1  0.33447209  0.00178151  1.00149986  1
  Ni  Ni10  1  0.50058375  0.16850924  0.16746716  1
  Ni  Ni11  1  0.33423653  1.00142075  0.33439318  1
  Ni  Ni12  1  0.33434930  0.33539847  0.00175203  1
  Fe  Fe13  1  0.50094720  0.50192926  0.16755445  1
  Ni  Ni14  1  0.33429883  0.33488171  0.33512646  1
  Ni  Ni15  1  0.33429859  0.66763542  1.00131940  1
  Ni  Ni16  1  0.50078826  0.83487175  0.16685276  1
  Ni  Ni17  1  0.33426006  0.66841391  0.33487084  1
  Ni  Ni18  1  0.66893774  1.00143953  1.00121278  1
  Ni  Ni19  1  0.83508442  0.17020225  0.16678465  1
  Cr  Cr20  1  0.66740171  1.00056712  0.33428621  1
  Ni  Ni21  1  0.66790833  0.33417173  0.00195094  1
  Ni  Ni22  1  0.83551487  0.50165600  0.16820736  1
  Ni  Ni23  1  0.66733548  0.33674588  0.33365695  1
  Ni  Ni24  1  0.66816119  0.66899095  0.00205657  1
  Ni  Ni25  1  0.83510103  0.83278873  0.16792611  1
  Ni  Ni26  1  0.66821366  0.66724310  0.33472309  1
  Ni  Ni27  1  0.17086094  0.16884819  0.50104590  1
  Ni  Ni28  1  0.00269521  1.00035821  0.66782981  1
  Ni  Ni29  1  0.16942979  0.16848486  0.83462171  1
  Ni  Ni30  1  0.16694476  0.50141309  0.50209269  1
  Ni  Ni31  1  0.00302233  0.33574748  0.66959471  1
  Ni  Ni32  1  0.16789969  0.50127009  0.83486203  1
  Ni  Ni33  1  0.16915152  0.83431947  0.50137543  1
  Ni  Ni34  1  0.00197945  0.66834470  0.66846145  1
  Ni  Ni35  1  0.16814475  0.83497920  0.83490579  1
  Ni  Ni36  1  0.49907038  0.16838325  0.50253065  1
  Ni  Ni37  1  0.33474569  0.00157905  0.66860159  1
  Ni  Ni38  1  0.50095339  0.16829057  0.83466976  1
  Fe  Fe39  1  0.50106858  0.50199856  0.50202558  1
  Ni  Ni40  1  0.33436268  0.33482451  0.66775744  1
  Ni  Ni41  1  0.50205815  0.50128216  0.83485605  1
  Ni  Ni42  1  0.50059080  0.83501652  0.50289037  1
  Ni  Ni43  1  0.33431625  0.66829493  0.66844408  1
  Ni  Ni44  1  0.50191845  0.83513822  0.83494863  1
  Cr  Cr45  1  0.83551377  0.17027395  0.50290273  1
  Ni  Ni46  1  0.66741331  1.00051203  0.66937137  1
  Fe  Fe47  1  0.83525138  0.16795279  0.83528069  1
  Ni  Ni48  1  0.83554272  0.50304174  0.50149349  1
  Ni  Ni49  1  0.66719489  0.33544392  0.66908432  1
  Ni  Ni50  1  0.83471979  0.50218586  0.83495433  1
  Ni  Ni51  1  0.83514533  0.83113736  0.50222673  1
  Ni  Ni52  1  0.66828275  0.66869452  0.66785046  1
  Ni  Ni53  1  0.83457922  0.83350695  0.83459025  1
" 