4627,Ni87Fe8Cr3_6,-239.174421607629, 184.324015922605,Ni87Fe8Cr3,"# generated using pymatgen
 data_Cr3Fe4Ni47
_symmetry_space_group_name_H-M   'P 1'
_cell_length_a   7.44961255
_cell_length_b   7.44961255
_cell_length_c   10.53534310
_cell_angle_alpha   90.00000000
_cell_angle_beta   90.00000000
_cell_angle_gamma   90.00000000
_symmetry_Int_Tables_number   1
_chemical_formula_structural   Cr3Fe4Ni47
_chemical_formula_sum   'Cr3 Fe4 Ni47'
_cell_volume   584.67706056
_cell_formula_units_Z   1
loop_
 _symmetry_equiv_pos_site_id
 _symmetry_equiv_pos_as_xyz
  1  'x, y, z'
loop_
 _atom_site_type_symbol
 _atom_site_label
 _atom_site_symmetry_multiplicity
 _atom_site_fract_x
 _atom_site_fract_y
 _atom_site_fract_z
 _atom_site_occupancy
  Cr  Cr0  1  0.00303656  0.00120774  1.00072337  1
  Ni  Ni1  1  0.16793923  0.16748913  0.16916698  1
  Ni  Ni2  1  1.00103349  1.00059328  0.33436334  1
  Ni  Ni3  1  0.99939145  0.33610161  0.00130817  1
  Ni  Ni4  1  0.16796498  0.50256767  0.16832180  1
  Fe  Fe5  1  0.00152238  0.33416733  0.33466330  1
  Ni  Ni6  1  1.00104322  0.66637873  1.00078164  1
  Ni  Ni7  1  0.16784620  0.83345502  0.16814060  1
  Ni  Ni8  1  1.00104567  0.66905142  0.33450174  1
  Ni  Ni9  1  0.33414436  0.99970611  0.00133897  1
  Ni  Ni10  1  0.50162518  0.16867018  0.16923495  1
  Ni  Ni11  1  0.33391474  0.00197663  0.33380563  1
  Cr  Cr12  1  0.33467561  0.33403092  1.00033238  1
  Ni  Ni13  1  0.50160436  0.50138823  0.16839007  1
  Ni  Ni14  1  0.33536350  0.33414263  0.33482047  1
  Ni  Ni15  1  0.33440516  0.66928229  1.00104247  1
  Fe  Fe16  1  0.49970072  0.83413588  0.16863617  1
  Ni  Ni17  1  0.33417586  0.66739304  0.33449927  1
  Cr  Cr18  1  0.66654151  0.00155871  1.00066390  1
  Ni  Ni19  1  0.83394555  0.16855534  0.16917055  1
  Ni  Ni20  1  0.66856027  0.00177747  0.33491943  1
  Ni  Ni21  1  0.66938517  0.33636241  1.00104067  1
  Fe  Fe22  1  0.83471532  0.50090092  0.16737243  1
  Ni  Ni23  1  0.66690631  0.33413059  0.33404404  1
  Ni  Ni24  1  0.66806205  0.66578771  0.00123665  1
  Ni  Ni25  1  0.83512424  0.83347595  0.16948785  1
  Ni  Ni26  1  0.66828911  0.66760179  0.33430614  1
  Ni  Ni27  1  0.16793987  0.16775907  0.50078168  1
  Ni  Ni28  1  0.00163270  0.00119205  0.66803985  1
  Ni  Ni29  1  0.16783386  0.16761983  0.83355979  1
  Ni  Ni30  1  0.16819760  0.50150074  0.50108071  1
  Ni  Ni31  1  1.00090904  0.33375143  0.66794091  1
  Ni  Ni32  1  0.16699711  0.50223745  0.83410720  1
  Ni  Ni33  1  0.16760829  0.83425163  0.50097105  1
  Ni  Ni34  1  1.00071145  0.66856669  0.66822998  1
  Ni  Ni35  1  0.16867618  0.83365331  0.83439757  1
  Ni  Ni36  1  0.50129519  0.16816717  0.50090150  1
  Ni  Ni37  1  0.33361778  0.00164331  0.66836980  1
  Ni  Ni38  1  0.50129502  0.16794441  0.83337013  1
  Ni  Ni39  1  0.50111236  0.50116538  0.50122909  1
  Ni  Ni40  1  0.33498827  0.33394265  0.66784134  1
  Ni  Ni41  1  0.50220384  0.50198334  0.83388888  1
  Ni  Ni42  1  0.50129162  0.83417687  0.50037243  1
  Ni  Ni43  1  0.33473534  0.66792527  0.66797141  1
  Ni  Ni44  1  0.50019728  0.83357942  0.83495609  1
  Ni  Ni45  1  0.83427525  0.16757831  0.50097118  1
  Fe  Fe46  1  0.66789793  1.00116005  0.66757671  1
  Ni  Ni47  1  0.83438108  0.16962567  0.83336742  1
  Ni  Ni48  1  0.83420149  0.50149718  0.50055206  1
  Ni  Ni49  1  0.66761355  0.33486402  0.66842910  1
  Ni  Ni50  1  0.83430867  0.50114167  0.83598085  1
  Ni  Ni51  1  0.83460951  0.83443464  0.50115991  1
  Ni  Ni52  1  0.66806442  0.66719733  0.66797165  1
  Ni  Ni53  1  0.83463389  0.83274311  0.83285950  1
" 