2033,Ni87Fe13_13,-230.166407692899, 169.032582348933,Ni87Fe13,"# generated using pymatgen
 data_Fe23Ni4
_symmetry_space_group_name_H-M   'P 1'
_cell_length_a   7.40378233
_cell_length_b   7.40378233
_cell_length_c   10.47052939
_cell_angle_alpha   90.00000000
_cell_angle_beta   90.00000000
_cell_angle_gamma   90.00000000
_symmetry_Int_Tables_number   1
_chemical_formula_structural   Fe23Ni4
_chemical_formula_sum   'Fe46 Ni8'
_cell_volume   573.95246356
_cell_formula_units_Z   2
loop_
 _symmetry_equiv_pos_site_id
 _symmetry_equiv_pos_as_xyz
  1  'x, y, z'
loop_
 _atom_site_type_symbol
 _atom_site_label
 _atom_site_symmetry_multiplicity
 _atom_site_fract_x
 _atom_site_fract_y
 _atom_site_fract_z
 _atom_site_occupancy
  Fe  Fe0  1  1.00384641  1.00369906  0.00427905  1
  Ni  Ni1  1  0.17196629  0.17072628  0.17120461  1
  Fe  Fe2  1  1.00426858  1.00419370  0.33767664  1
  Fe  Fe3  1  1.00377460  0.33810440  0.00427324  1
  Fe  Fe4  1  0.17197156  0.50323692  0.17108895  1
  Fe  Fe5  1  0.00450122  0.33737754  0.33737297  1
  Fe  Fe6  1  1.00328073  0.67101261  1.00366890  1
  Fe  Fe7  1  0.17208464  0.83813273  0.17101344  1
  Fe  Fe8  1  1.00403812  0.67124218  0.33805580  1
  Fe  Fe9  1  0.33803149  1.00423455  0.00480198  1
  Ni  Ni10  1  0.50284706  0.17192448  0.17111742  1
  Fe  Fe11  1  0.33753436  0.00472901  0.33707403  1
  Fe  Fe12  1  0.33833036  0.33780085  0.00452863  1
  Ni  Ni13  1  0.50440277  0.50360050  0.17075886  1
  Fe  Fe14  1  0.33783510  0.33738051  0.33742601  1
  Fe  Fe15  1  0.33829584  0.67078072  0.00457863  1
  Fe  Fe16  1  0.50385693  0.83787650  0.17070943  1
  Fe  Fe17  1  0.33776445  0.67070671  0.33744864  1
  Fe  Fe18  1  0.67093871  1.00374410  1.00419893  1
  Fe  Fe19  1  0.83717848  0.17151156  0.17108891  1
  Fe  Fe20  1  0.67101270  1.00427218  0.33783026  1
  Fe  Fe21  1  0.67071166  0.33837181  0.00457328  1
  Fe  Fe22  1  0.83692203  0.50335444  0.17020809  1
  Fe  Fe23  1  0.67048027  0.33760769  0.33714607  1
  Ni  Ni24  1  0.67121422  0.67110790  0.00452818  1
  Fe  Fe25  1  0.83687697  0.83795283  0.17078671  1
  Fe  Fe26  1  0.67101931  0.67093970  0.33717412  1
  Fe  Fe27  1  0.17059439  0.17067134  0.50407615  1
  Fe  Fe28  1  0.00438391  0.00430904  0.67086598  1
  Fe  Fe29  1  0.17009591  0.17117128  0.83780786  1
  Fe  Fe30  1  0.17067025  0.50461467  0.50457801  1
  Fe  Fe31  1  0.00464976  0.33783342  0.67116934  1
  Fe  Fe32  1  0.17014146  0.50453927  0.83714912  1
  Fe  Fe33  1  0.17048371  0.83753125  0.50419669  1
  Fe  Fe34  1  1.00415983  0.67067456  0.67108864  1
  Fe  Fe35  1  0.16998771  0.83710703  0.83760753  1
  Fe  Fe36  1  0.50461644  0.17059692  0.50415309  1
  Fe  Fe37  1  0.33760629  0.00488322  0.67094566  1
  Fe  Fe38  1  0.50504164  0.17109667  0.83765045  1
  Fe  Fe39  1  0.50446854  0.50461701  0.50400165  1
  Ni  Ni40  1  0.33734074  0.33742845  0.67076075  1
  Fe  Fe41  1  0.50522455  0.50484326  0.83803134  1
  Fe  Fe42  1  0.50473682  0.83760295  0.50427232  1
  Fe  Fe43  1  0.33753475  0.67040187  0.67078906  1
  Fe  Fe44  1  0.50546161  0.83687780  0.83783765  1
  Fe  Fe45  1  0.83760538  0.17040397  0.50419670  1
  Fe  Fe46  1  0.67082986  0.00438207  0.67079061  1
  Fe  Fe47  1  0.83767847  0.17094038  0.83753206  1
  Fe  Fe48  1  0.83767696  0.50472837  0.50469854  1
  Fe  Fe49  1  0.67055285  0.33776171  0.67109337  1
  Ni  Ni50  1  0.83741935  0.50561775  0.83708437  1
  Ni  Ni51  1  0.83787069  0.83725176  0.50467911  1
  Fe  Fe52  1  0.67112408  0.67067409  0.67166331  1
  Ni  Ni53  1  0.83777401  0.83653329  0.83738366  1
" 