3688,Ni87Fe8Cr3_14,-239.260201574103, 185.146726504111,Ni87Fe8Cr3,"# generated using pymatgen
 data_Cr3Fe4Ni47
_symmetry_space_group_name_H-M   'P 1'
_cell_length_a   7.44966088
_cell_length_b   7.44966088
_cell_length_c   10.53541146
_cell_angle_alpha   90.00000000
_cell_angle_beta   90.00000000
_cell_angle_gamma   90.00000000
_symmetry_Int_Tables_number   1
_chemical_formula_structural   Cr3Fe4Ni47
_chemical_formula_sum   'Cr3 Fe4 Ni47'
_cell_volume   584.68844173
_cell_formula_units_Z   1
loop_
 _symmetry_equiv_pos_site_id
 _symmetry_equiv_pos_as_xyz
  1  'x, y, z'
loop_
 _atom_site_type_symbol
 _atom_site_label
 _atom_site_symmetry_multiplicity
 _atom_site_fract_x
 _atom_site_fract_y
 _atom_site_fract_z
 _atom_site_occupancy
  Ni  Ni0  1  0.00191107  1.00009680  1.00072841  1
  Ni  Ni1  1  0.16849464  0.16696769  0.16844003  1
  Ni  Ni2  1  0.00198885  0.00211520  0.33521995  1
  Ni  Ni3  1  1.00020237  0.33542145  1.00076330  1
  Ni  Ni4  1  0.16771466  0.50151230  0.16764356  1
  Ni  Ni5  1  0.00211875  0.33350533  0.33496499  1
  Ni  Ni6  1  1.00080382  0.66798548  0.00149631  1
  Ni  Ni7  1  0.16925379  0.83502027  0.16660230  1
  Cr  Cr8  1  1.00063017  0.66817261  0.33428883  1
  Ni  Ni9  1  0.33445177  0.99968061  0.00155070  1
  Ni  Ni10  1  0.50004904  0.16721510  0.16844662  1
  Ni  Ni11  1  0.33465627  0.00177497  0.33398658  1
  Cr  Cr12  1  0.33466398  0.33379050  0.00154809  1
  Ni  Ni13  1  0.50212033  0.50255558  0.16822031  1
  Ni  Ni14  1  0.33472708  0.33404139  0.33429054  1
  Ni  Ni15  1  0.33425986  0.66969883  0.00163029  1
  Ni  Ni16  1  0.50033424  0.83372965  0.16789038  1
  Ni  Ni17  1  0.33630238  0.66768341  0.33416099  1
  Ni  Ni18  1  0.66713716  1.00028546  1.00053929  1
  Cr  Cr19  1  0.83485937  0.16872655  0.16788251  1
  Ni  Ni20  1  0.66685565  1.00053711  0.33525761  1
  Ni  Ni21  1  0.66885206  0.33523019  1.00057136  1
  Ni  Ni22  1  0.83366634  0.50179743  0.16684945  1
  Ni  Ni23  1  0.66665761  0.33515069  0.33503015  1
  Ni  Ni24  1  0.66843664  0.66798818  0.00186538  1
  Ni  Ni25  1  0.83391217  0.83294900  0.16637576  1
  Ni  Ni26  1  0.66631802  0.66781194  0.33417651  1
  Ni  Ni27  1  0.16735588  0.16717668  0.50109141  1
  Ni  Ni28  1  0.00126005  1.00107861  0.66755424  1
  Ni  Ni29  1  0.16678904  0.16636944  0.83396866  1
  Fe  Fe30  1  0.16876334  0.50029638  0.50163223  1
  Ni  Ni31  1  0.00124843  0.33452550  0.66777296  1
  Fe  Fe32  1  0.16689271  0.50158197  0.83408454  1
  Ni  Ni33  1  0.16883885  0.83579537  0.50207747  1
  Ni  Ni34  1  1.00112778  0.66789884  0.66789308  1
  Ni  Ni35  1  0.16908391  0.83476900  0.83482261  1
  Ni  Ni36  1  0.50097198  0.16823572  0.50133193  1
  Ni  Ni37  1  0.33447791  0.00138596  0.66796274  1
  Ni  Ni38  1  0.50199246  0.16661682  0.83372097  1
  Ni  Ni39  1  0.50209206  0.50157238  0.50149939  1
  Ni  Ni40  1  0.33454061  0.33426135  0.66756160  1
  Fe  Fe41  1  0.50206143  0.50158630  0.83357109  1
  Ni  Ni42  1  0.50053402  0.83369298  0.50103400  1
  Ni  Ni43  1  0.33435209  0.66784949  0.66770869  1
  Ni  Ni44  1  0.49969682  0.83451924  0.83457600  1
  Ni  Ni45  1  0.83517283  0.16873391  0.50146227  1
  Ni  Ni46  1  0.66776244  0.00126795  0.66770513  1
  Ni  Ni47  1  0.83471979  0.16979438  0.83439471  1
  Ni  Ni48  1  0.83307204  0.50008971  0.50164043  1
  Ni  Ni49  1  0.66771299  0.33439940  0.66789956  1
  Ni  Ni50  1  0.83446967  0.50006827  0.83501228  1
  Ni  Ni51  1  0.83412845  0.83467683  0.50260100  1
  Ni  Ni52  1  0.66802159  0.66783641  0.66745917  1
  Fe  Fe53  1  0.83449791  0.83549258  0.83455681  1
" 