4661,Ni87Fe6Cr5_14,-237.948297082119, 177.93010883111,Ni87Fe6Cr5,"# generated using pymatgen
 data_Cr4Fe3Ni47
_symmetry_space_group_name_H-M   'P 1'
_cell_length_a   7.45587008
_cell_length_b   7.45587008
_cell_length_c   10.54419259
_cell_angle_alpha   90.00000000
_cell_angle_beta   90.00000000
_cell_angle_gamma   90.00000000
_symmetry_Int_Tables_number   1
_chemical_formula_structural   Cr4Fe3Ni47
_chemical_formula_sum   'Cr4 Fe3 Ni47'
_cell_volume   586.15165199
_cell_formula_units_Z   1
loop_
 _symmetry_equiv_pos_site_id
 _symmetry_equiv_pos_as_xyz
  1  'x, y, z'
loop_
 _atom_site_type_symbol
 _atom_site_label
 _atom_site_symmetry_multiplicity
 _atom_site_fract_x
 _atom_site_fract_y
 _atom_site_fract_z
 _atom_site_occupancy
  Ni  Ni0  1  0.99995429  1.00045030  0.00090931  1
  Ni  Ni1  1  0.16638329  0.16859463  0.16667169  1
  Ni  Ni2  1  1.00023057  1.00074856  0.33431837  1
  Ni  Ni3  1  1.00028496  0.33485003  1.00030480  1
  Ni  Ni4  1  0.16725932  0.50084009  0.16755190  1
  Ni  Ni5  1  1.00057116  0.33466704  0.33406893  1
  Ni  Ni6  1  0.00124053  0.66696864  1.00039471  1
  Ni  Ni7  1  0.16662034  0.83284126  0.16704614  1
  Ni  Ni8  1  1.00056414  0.66683918  0.33433089  1
  Ni  Ni9  1  0.33492190  1.00062558  1.00024915  1
  Ni  Ni10  1  0.50084119  0.16963855  0.16538134  1
  Cr  Cr11  1  0.33333191  0.00132146  0.33349533  1
  Ni  Ni12  1  0.33485672  0.33490796  0.00105231  1
  Ni  Ni13  1  0.50075927  0.50062618  0.16850949  1
  Ni  Ni14  1  0.33432924  0.33614045  0.33364982  1
  Ni  Ni15  1  0.33358115  0.66672112  1.00043826  1
  Ni  Ni16  1  0.50057882  0.83188038  0.16532522  1
  Ni  Ni17  1  0.33416239  0.66530666  0.33461180  1
  Ni  Ni18  1  0.66738088  0.00152316  1.00061292  1
  Ni  Ni19  1  0.83498596  0.16882722  0.16701545  1
  Cr  Cr20  1  0.66848412  0.00131370  0.33348223  1
  Ni  Ni21  1  0.66711142  0.33343529  1.00034085  1
  Ni  Ni22  1  0.83418355  0.50050490  0.16751129  1
  Ni  Ni23  1  0.66730993  0.33583519  0.33474989  1
  Fe  Fe24  1  0.66714042  0.66662675  1.00071649  1
  Ni  Ni25  1  0.83505002  0.83285091  0.16693817  1
  Ni  Ni26  1  0.66750596  0.66562974  0.33353604  1
  Ni  Ni27  1  0.16791591  0.16997030  0.50061034  1
  Cr  Cr28  1  1.00024509  0.00222347  0.66700504  1
  Ni  Ni29  1  0.16858601  0.16859980  0.83484201  1
  Ni  Ni30  1  0.16758434  0.49956951  0.49986090  1
  Ni  Ni31  1  0.00125632  0.33457862  0.66784461  1
  Ni  Ni32  1  0.16852484  0.49958568  0.83493702  1
  Ni  Ni33  1  0.16919064  0.83270753  0.49974484  1
  Cr  Cr34  1  0.00083940  0.66493405  0.66824101  1
  Ni  Ni35  1  0.16991654  0.83405626  0.83547267  1
  Ni  Ni36  1  0.50062797  0.16869340  0.50278536  1
  Ni  Ni37  1  0.33673990  0.00121257  0.66783914  1
  Ni  Ni38  1  0.50059989  0.16719932  0.83400985  1
  Fe  Fe39  1  0.50054804  0.50097263  0.50048643  1
  Ni  Ni40  1  0.33362136  0.33439390  0.66757164  1
  Ni  Ni41  1  0.50045156  0.50084593  0.83330337  1
  Ni  Ni42  1  0.50082591  0.83265658  0.50281669  1
  Ni  Ni43  1  0.33621547  0.66659404  0.66718670  1
  Ni  Ni44  1  0.50063357  0.83418934  0.83383107  1
  Ni  Ni45  1  0.83369143  0.16997376  0.50079267  1
  Ni  Ni46  1  0.66567816  1.00030312  0.66746355  1
  Ni  Ni47  1  0.83305027  0.16843588  0.83445236  1
  Ni  Ni48  1  0.83375866  0.49990155  0.50001026  1
  Fe  Fe49  1  0.66729275  0.33417906  0.66797819  1
  Ni  Ni50  1  0.83321272  0.49969676  0.83493715  1
  Ni  Ni51  1  0.83225694  0.83245771  0.49949684  1
  Ni  Ni52  1  0.66594436  0.66800480  0.66791515  1
  Ni  Ni53  1  0.83164574  0.83402674  0.83582959  1
" 