4742,Ni87Fe13_6,-229.826820283698, 165.683309578279,Ni87Fe13,"# generated using pymatgen
 data_Fe23Ni4
_symmetry_space_group_name_H-M   'P 1'
_cell_length_a   7.39774377
_cell_length_b   7.39774377
_cell_length_c   10.46198957
_cell_angle_alpha   90.00000000
_cell_angle_beta   90.00000000
_cell_angle_gamma   90.00000000
_symmetry_Int_Tables_number   1
_chemical_formula_structural   Fe23Ni4
_chemical_formula_sum   'Fe46 Ni8'
_cell_volume   572.54925271
_cell_formula_units_Z   2
loop_
 _symmetry_equiv_pos_site_id
 _symmetry_equiv_pos_as_xyz
  1  'x, y, z'
loop_
 _atom_site_type_symbol
 _atom_site_label
 _atom_site_symmetry_multiplicity
 _atom_site_fract_x
 _atom_site_fract_y
 _atom_site_fract_z
 _atom_site_occupancy
  Ni  Ni0  1  0.00468842  0.00469447  0.00469374  1
  Fe  Fe1  1  0.17134790  0.17133868  0.17134556  1
  Fe  Fe2  1  0.00468696  1.00467891  0.33802146  1
  Ni  Ni3  1  1.00467676  0.33801290  1.00468412  1
  Fe  Fe4  1  0.17134673  0.50468814  0.17134676  1
  Fe  Fe5  1  0.00468836  0.33800748  0.33801321  1
  Fe  Fe6  1  0.00468816  0.67135369  0.00468933  1
  Ni  Ni7  1  0.17135258  0.83801633  0.17134643  1
  Fe  Fe8  1  0.00469359  0.67136596  0.33801744  1
  Fe  Fe9  1  0.33799824  0.00468836  0.00468933  1
  Fe  Fe10  1  0.50467064  0.17133848  0.17135599  1
  Ni  Ni11  1  0.33801759  1.00467810  0.33801469  1
  Fe  Fe12  1  0.33800226  0.33801152  1.00468294  1
  Fe  Fe13  1  0.50467702  0.50469358  0.17135078  1
  Fe  Fe14  1  0.33801979  0.33801176  0.33801747  1
  Fe  Fe15  1  0.33799684  0.67135247  0.00468815  1
  Fe  Fe16  1  0.50467086  0.83802031  0.17135480  1
  Fe  Fe17  1  0.33801340  0.67136051  0.33801107  1
  Fe  Fe18  1  0.67136834  0.00469357  1.00468412  1
  Fe  Fe19  1  0.83803381  0.17134485  0.17134866  1
  Fe  Fe20  1  0.67134964  0.00468530  0.33802551  1
  Fe  Fe21  1  0.67136713  0.33800915  0.00468413  1
  Fe  Fe22  1  0.83802860  0.50468837  0.17134560  1
  Fe  Fe23  1  0.67134420  0.33800512  0.33802148  1
  Fe  Fe24  1  0.67136736  0.67134964  1.00468294  1
  Fe  Fe25  1  0.83802840  0.83801915  0.17135386  1
  Fe  Fe26  1  0.67134538  0.67136194  0.33802148  1
  Fe  Fe27  1  0.17133846  0.17133160  0.50468933  1
  Ni  Ni28  1  0.00469399  0.00468544  0.67133951  1
  Fe  Fe29  1  0.17134385  0.17134387  0.83801747  1
  Fe  Fe30  1  0.17133304  0.50468293  0.50468412  1
  Fe  Fe31  1  0.00468954  0.33799824  0.67135504  1
  Fe  Fe32  1  0.17134791  0.50467890  0.83802149  1
  Fe  Fe33  1  0.17133848  0.83803783  0.50467987  1
  Fe  Fe34  1  0.00468955  0.67137119  0.67134558  1
  Fe  Fe35  1  0.17134905  0.83802959  0.83802172  1
  Fe  Fe36  1  0.50469239  0.17133561  0.50468295  1
  Ni  Ni37  1  0.33800856  1.00467983  0.67135313  1
  Fe  Fe38  1  0.50467891  0.17134792  0.83801343  1
  Fe  Fe39  1  0.50470302  0.50468413  0.50468413  1
  Fe  Fe40  1  0.33801034  0.33800347  0.67135195  1
  Fe  Fe41  1  0.50468530  0.50468530  0.83801745  1
  Fe  Fe42  1  0.50469357  0.83803262  0.50468412  1
  Fe  Fe43  1  0.33800915  0.67136476  0.67135313  1
  Fe  Fe44  1  0.50468010  0.83801915  0.83801344  1
  Ni  Ni45  1  0.83801468  0.17133893  0.50469013  1
  Fe  Fe46  1  0.67135889  0.00468413  0.67134274  1
  Fe  Fe47  1  0.83802960  0.17134906  0.83801555  1
  Fe  Fe48  1  0.83801629  0.50468411  0.50468294  1
  Fe  Fe49  1  0.67135247  0.33799685  0.67134676  1
  Fe  Fe50  1  0.83801915  0.50468009  0.83802382  1
  Ni  Ni51  1  0.83802034  0.83803362  0.50468453  1
  Fe  Fe52  1  0.67135365  0.67137139  0.67134794  1
  Fe  Fe53  1  0.83802322  0.83802322  0.83800917  1
" 