7046,Ni87Fe9Cr3_13,-239.158230570486, 185.114114480933,Ni87Fe9Cr3,"# generated using pymatgen
 data_Cr3Fe4Ni47
_symmetry_space_group_name_H-M   'P 1'
_cell_length_a   7.44893354
_cell_length_b   7.44893354
_cell_length_c   10.53438284
_cell_angle_alpha   90.00000000
_cell_angle_beta   90.00000000
_cell_angle_gamma   90.00000000
_symmetry_Int_Tables_number   1
_chemical_formula_structural   Cr3Fe4Ni47
_chemical_formula_sum   'Cr3 Fe4 Ni47'
_cell_volume   584.51720114
_cell_formula_units_Z   1
loop_
 _symmetry_equiv_pos_site_id
 _symmetry_equiv_pos_as_xyz
  1  'x, y, z'
loop_
 _atom_site_type_symbol
 _atom_site_label
 _atom_site_symmetry_multiplicity
 _atom_site_fract_x
 _atom_site_fract_y
 _atom_site_fract_z
 _atom_site_occupancy
  Ni  Ni0  1  0.00164741  1.00090041  1.00071828  1
  Ni  Ni1  1  0.16696811  0.16696559  0.16716798  1
  Ni  Ni2  1  1.00064283  1.00110507  0.33487888  1
  Fe  Fe3  1  1.00066635  0.33455431  0.00121986  1
  Ni  Ni4  1  0.16703833  0.50222636  0.16723287  1
  Ni  Ni5  1  0.99947684  0.33427739  0.33465764  1
  Ni  Ni6  1  0.00195960  0.66825049  0.00141309  1
  Ni  Ni7  1  0.16803178  0.83445430  0.16809521  1
  Ni  Ni8  1  0.00177682  0.66826402  0.33443488  1
  Ni  Ni9  1  0.33438218  1.00109187  0.00176009  1
  Ni  Ni10  1  0.50222668  0.16703514  0.16710076  1
  Fe  Fe11  1  0.33454431  0.99948772  0.33419033  1
  Fe  Fe12  1  0.33515147  0.33444009  1.00083690  1
  Ni  Ni13  1  0.50216107  0.50216101  0.16716539  1
  Cr  Cr14  1  0.33513167  0.33518724  0.33507124  1
  Ni  Ni15  1  0.33412983  0.66799729  1.00116180  1
  Ni  Ni16  1  0.50110062  0.83445001  0.16805790  1
  Ni  Ni17  1  0.33434894  0.66898818  0.33462777  1
  Ni  Ni18  1  0.66761832  0.00242276  1.00077632  1
  Ni  Ni19  1  0.83445124  0.16802780  0.16822590  1
  Ni  Ni20  1  0.66840292  0.00180282  0.33457013  1
  Ni  Ni21  1  0.66736364  0.33424512  0.00179005  1
  Ni  Ni22  1  0.83444668  0.50110058  0.16826362  1
  Ni  Ni23  1  0.66912559  0.33402537  0.33450270  1
  Ni  Ni24  1  0.66755833  0.66698035  1.00074818  1
  Ni  Ni25  1  0.83451513  0.83451924  0.16787710  1
  Ni  Ni26  1  0.66752160  0.66781919  0.33484912  1
  Ni  Ni27  1  0.16615135  0.16823058  0.50156412  1
  Ni  Ni28  1  0.99941257  1.00088684  0.66805008  1
  Ni  Ni29  1  0.16706994  0.16874592  0.83491803  1
  Ni  Ni30  1  0.16728259  0.50175110  0.50252392  1
  Ni  Ni31  1  0.00281336  0.33489930  0.66782709  1
  Ni  Ni32  1  0.16812830  0.50113798  0.83389365  1
  Ni  Ni33  1  0.16721552  0.83366498  0.50021895  1
  Ni  Ni34  1  0.00234503  0.66786294  0.66779963  1
  Ni  Ni35  1  0.16707173  0.83376524  0.83533190  1
  Ni  Ni36  1  0.50209700  0.16716334  0.50046330  1
  Cr  Cr37  1  0.33469261  1.00113906  0.66736035  1
  Ni  Ni38  1  0.50128032  0.16775574  0.83608392  1
  Ni  Ni39  1  0.50090014  0.50275138  0.50139897  1
  Ni  Ni40  1  0.33328515  0.33675633  0.66845411  1
  Ni  Ni41  1  0.50015620  0.50206151  0.83508522  1
  Ni  Ni42  1  0.50203362  0.83373253  0.50040017  1
  Ni  Ni43  1  0.33356554  0.66581304  0.66785682  1
  Ni  Ni44  1  0.50220592  0.83383150  0.83518771  1
  Ni  Ni45  1  0.83539800  0.16709730  0.50040045  1
  Ni  Ni46  1  0.66959812  1.00060624  0.66830131  1
  Ni  Ni47  1  0.83529606  0.16669872  0.83502062  1
  Ni  Ni48  1  0.83546691  0.50168878  0.50005291  1
  Cr  Cr49  1  0.66747661  0.33366886  0.66708390  1
  Ni  Ni50  1  0.83536361  0.50206084  0.83532947  1
  Ni  Ni51  1  0.83439962  0.83486283  0.50164301  1
  Fe  Fe52  1  0.66819211  0.66935553  0.66788700  1
  Ni  Ni53  1  0.83437147  0.83488958  0.83412709  1
" 