5751,Ni87Fe13_3,-229.892067987887, 168.092884057089,Ni87Fe13,"# generated using pymatgen
 data_Fe23Ni4
_symmetry_space_group_name_H-M   'P 1'
_cell_length_a   7.40319252
_cell_length_b   7.40319252
_cell_length_c   10.46969527
_cell_angle_alpha   90.00000000
_cell_angle_beta   90.00000000
_cell_angle_gamma   90.00000000
_symmetry_Int_Tables_number   1
_chemical_formula_structural   Fe23Ni4
_chemical_formula_sum   'Fe46 Ni8'
_cell_volume   573.81530532
_cell_formula_units_Z   2
loop_
 _symmetry_equiv_pos_site_id
 _symmetry_equiv_pos_as_xyz
  1  'x, y, z'
loop_
 _atom_site_type_symbol
 _atom_site_label
 _atom_site_symmetry_multiplicity
 _atom_site_fract_x
 _atom_site_fract_y
 _atom_site_fract_z
 _atom_site_occupancy
  Fe  Fe0  1  1.00317279  0.00431504  0.00443818  1
  Fe  Fe1  1  0.17073598  0.17049137  0.17076624  1
  Ni  Ni2  1  0.00497755  1.00421619  0.33840921  1
  Fe  Fe3  1  1.00386062  0.33825342  1.00384061  1
  Fe  Fe4  1  0.17105990  0.50439538  0.17114186  1
  Fe  Fe5  1  0.00463201  0.33740112  0.33796521  1
  Fe  Fe6  1  1.00321941  0.67037215  1.00382909  1
  Fe  Fe7  1  0.17073685  0.83804996  0.17137866  1
  Fe  Fe8  1  0.00462993  0.67113765  0.33788352  1
  Fe  Fe9  1  0.33862705  0.00463304  1.00415122  1
  Fe  Fe10  1  0.50455517  0.17138493  0.17073578  1
  Fe  Fe11  1  0.33749337  1.00407505  0.33780362  1
  Fe  Fe12  1  0.33817814  0.33817222  1.00384003  1
  Fe  Fe13  1  0.50495557  0.50423180  0.17042144  1
  Fe  Fe14  1  0.33671502  0.33735403  0.33788153  1
  Fe  Fe15  1  0.33849293  0.67013364  1.00423782  1
  Fe  Fe16  1  0.50439269  0.83732015  0.17134835  1
  Fe  Fe17  1  0.33703857  0.67150773  0.33821023  1
  Fe  Fe18  1  0.67113301  1.00399049  1.00407224  1
  Fe  Fe19  1  0.83764812  0.17105987  0.17122466  1
  Fe  Fe20  1  0.67123032  1.00407403  0.33804781  1
  Ni  Ni21  1  0.67079274  0.33869589  1.00373836  1
  Fe  Fe22  1  0.83692094  0.50423232  0.17049790  1
  Fe  Fe23  1  0.67158885  0.33695508  0.33703274  1
  Ni  Ni24  1  0.67079332  0.66993112  1.00383698  1
  Fe  Fe25  1  0.83781140  0.83764601  0.17044727  1
  Fe  Fe26  1  0.67127241  0.67191287  0.33735191  1
  Fe  Fe27  1  0.17127051  0.17060154  0.50452704  1
  Fe  Fe28  1  1.00415070  0.00439362  0.67102054  1
  Ni  Ni29  1  0.17120536  0.17272737  0.83792884  1
  Ni  Ni30  1  0.17065807  0.50342090  0.50351636  1
  Fe  Fe31  1  0.00519872  0.33797317  0.67113549  1
  Ni  Ni32  1  0.17120576  0.50276058  0.83863475  1
  Fe  Fe33  1  0.17131227  0.83739606  0.50383285  1
  Fe  Fe34  1  0.00456048  0.67056910  0.67122865  1
  Fe  Fe35  1  0.17040308  0.83781169  0.83773164  1
  Fe  Fe36  1  0.50386456  0.17111800  0.50431363  1
  Fe  Fe37  1  0.33788946  0.00439271  0.67098127  1
  Fe  Fe38  1  0.50399458  0.17129938  0.83788444  1
  Fe  Fe39  1  0.50391338  0.50479895  0.50422801  1
  Fe  Fe40  1  0.33676025  0.33789405  0.67121863  1
  Fe  Fe41  1  0.50439150  0.50423496  0.83828179  1
  Ni  Ni42  1  0.50548625  0.83825312  0.50374168  1
  Fe  Fe43  1  0.33739736  0.67065135  0.67048809  1
  Fe  Fe44  1  0.50387944  0.83740216  0.83727382  1
  Fe  Fe45  1  0.83780515  0.17082361  0.50391123  1
  Fe  Fe46  1  0.67089799  1.00375431  0.67081623  1
  Fe  Fe47  1  0.83850127  0.17126675  0.83780349  1
  Fe  Fe48  1  0.83742772  0.50476128  0.50423201  1
  Fe  Fe49  1  0.67098045  0.33748370  0.67134800  1
  Fe  Fe50  1  0.83809879  0.50426965  0.83820250  1
  Fe  Fe51  1  0.83794593  0.83735334  0.50460698  1
  Fe  Fe52  1  0.67097611  0.67170429  0.67142965  1
  Ni  Ni53  1  0.83604452  0.83782612  0.83803420  1
" 