7269,Ni87Fe6Cr5_11,-237.906035615706, 177.500307611772,Ni87Fe6Cr5,"# generated using pymatgen
 data_Cr4Fe3Ni47
_symmetry_space_group_name_H-M   'P 1'
_cell_length_a   7.45448647
_cell_length_b   7.45448647
_cell_length_c   10.54223587
_cell_angle_alpha   90.00000000
_cell_angle_beta   90.00000000
_cell_angle_gamma   90.00000000
_symmetry_Int_Tables_number   1
_chemical_formula_structural   Cr4Fe3Ni47
_chemical_formula_sum   'Cr4 Fe3 Ni47'
_cell_volume   585.82539046
_cell_formula_units_Z   1
loop_
 _symmetry_equiv_pos_site_id
 _symmetry_equiv_pos_as_xyz
  1  'x, y, z'
loop_
 _atom_site_type_symbol
 _atom_site_label
 _atom_site_symmetry_multiplicity
 _atom_site_fract_x
 _atom_site_fract_y
 _atom_site_fract_z
 _atom_site_occupancy
  Ni  Ni0  1  1.00028407  0.00149387  0.00179267  1
  Ni  Ni1  1  0.16550370  0.16844149  0.16646462  1
  Fe  Fe2  1  1.00044948  0.00136722  0.33362728  1
  Ni  Ni3  1  0.00140501  0.33342001  1.00047574  1
  Ni  Ni4  1  0.16673419  0.50175143  0.16750893  1
  Ni  Ni5  1  0.00110504  0.33467415  0.33407826  1
  Ni  Ni6  1  0.00142303  0.66754677  1.00057111  1
  Ni  Ni7  1  0.16714282  0.83252065  0.16636284  1
  Ni  Ni8  1  0.00092127  0.66679021  0.33354971  1
  Fe  Fe9  1  0.33400560  0.00131896  0.00104669  1
  Ni  Ni10  1  0.50268033  0.16820212  0.16610636  1
  Cr  Cr11  1  0.33418007  0.00154151  0.33193482  1
  Ni  Ni12  1  0.33389050  0.33437777  0.00207875  1
  Ni  Ni13  1  0.50135246  0.50161568  0.16832546  1
  Ni  Ni14  1  0.33247019  0.33595180  0.33258795  1
  Ni  Ni15  1  0.33411419  0.66682869  0.00088534  1
  Ni  Ni16  1  0.50098812  0.83281138  0.16658980  1
  Ni  Ni17  1  0.33353761  0.66692445  0.33478817  1
  Ni  Ni18  1  0.66791149  0.00128674  0.00088092  1
  Ni  Ni19  1  0.83418342  0.16830823  0.16789523  1
  Ni  Ni20  1  0.66928066  1.00011338  0.33317014  1
  Ni  Ni21  1  0.66722761  0.33333508  0.00091409  1
  Ni  Ni22  1  0.83443234  0.50004110  0.16675552  1
  Ni  Ni23  1  0.66875142  0.33422415  0.33305629  1
  Ni  Ni24  1  0.66697781  0.66783560  0.00096334  1
  Fe  Fe25  1  0.83412775  0.83343744  0.16677972  1
  Ni  Ni26  1  0.66797309  0.66805522  0.33376834  1
  Ni  Ni27  1  0.16492358  0.16829986  0.50150973  1
  Ni  Ni28  1  1.00068264  0.00201162  0.66639222  1
  Ni  Ni29  1  0.16688250  0.16719660  0.83433211  1
  Ni  Ni30  1  0.16781139  0.50028914  0.49973485  1
  Ni  Ni31  1  0.00121889  0.33242037  0.66798090  1
  Ni  Ni32  1  0.16855012  0.50019584  0.83544520  1
  Ni  Ni33  1  0.16741925  0.83407148  0.50105426  1
  Cr  Cr34  1  0.00145464  0.66665137  0.66895035  1
  Ni  Ni35  1  0.16811723  0.83511022  0.83512860  1
  Cr  Cr36  1  0.50188312  0.16876408  0.50227908  1
  Ni  Ni37  1  0.33304915  1.00038765  0.66952729  1
  Ni  Ni38  1  0.50110900  0.16757363  0.83472404  1
  Ni  Ni39  1  0.50027759  0.50168412  0.49915855  1
  Ni  Ni40  1  0.33271834  0.33490214  0.66798125  1
  Ni  Ni41  1  0.49977952  0.50005321  0.83503560  1
  Ni  Ni42  1  0.50058125  0.83310429  0.50118175  1
  Ni  Ni43  1  0.33389993  0.66735087  0.66681220  1
  Ni  Ni44  1  0.49974581  0.83487532  0.83481262  1
  Ni  Ni45  1  0.83570676  0.16775765  0.50084819  1
  Ni  Ni46  1  0.66874265  0.00100322  0.66835145  1
  Ni  Ni47  1  0.83446945  0.16718581  0.83353540  1
  Ni  Ni48  1  0.83432094  0.49879092  0.49912700  1
  Ni  Ni49  1  0.66853005  0.33326766  0.66868125  1
  Ni  Ni50  1  0.83421623  0.49843329  0.83697262  1
  Ni  Ni51  1  0.83453355  0.83593196  0.49789480  1
  Cr  Cr52  1  0.66717886  0.66737786  0.66804176  1
  Ni  Ni53  1  0.83464048  0.83659091  0.83704504  1
" 