8613,Ni87Fe9Cr3_2,-239.135516692374, 184.063132715978,Ni87Fe9Cr3,"# generated using pymatgen
 data_Cr3Fe4Ni47
_symmetry_space_group_name_H-M   'P 1'
_cell_length_a   7.44865322
_cell_length_b   7.44865322
_cell_length_c   10.53398640
_cell_angle_alpha   90.00000000
_cell_angle_beta   90.00000000
_cell_angle_gamma   90.00000000
_symmetry_Int_Tables_number   1
_chemical_formula_structural   Cr3Fe4Ni47
_chemical_formula_sum   'Cr3 Fe4 Ni47'
_cell_volume   584.45121328
_cell_formula_units_Z   1
loop_
 _symmetry_equiv_pos_site_id
 _symmetry_equiv_pos_as_xyz
  1  'x, y, z'
loop_
 _atom_site_type_symbol
 _atom_site_label
 _atom_site_symmetry_multiplicity
 _atom_site_fract_x
 _atom_site_fract_y
 _atom_site_fract_z
 _atom_site_occupancy
  Ni  Ni0  1  0.99942774  0.00199832  1.00111675  1
  Ni  Ni1  1  0.16600606  0.16830079  0.17033588  1
  Ni  Ni2  1  1.00073168  0.00147326  0.33426914  1
  Ni  Ni3  1  1.00004024  0.33473258  0.00148852  1
  Ni  Ni4  1  0.16740158  0.50190250  0.16841522  1
  Ni  Ni5  1  1.00092362  0.33462658  0.33433315  1
  Ni  Ni6  1  1.00036797  0.66696403  1.00035375  1
  Ni  Ni7  1  0.16651035  0.83342711  0.16843387  1
  Ni  Ni8  1  1.00081326  0.66756889  0.33495880  1
  Cr  Cr9  1  0.33456912  0.99963001  0.00175178  1
  Ni  Ni10  1  0.50328985  0.16819820  0.16940124  1
  Ni  Ni11  1  0.33497751  0.00151084  0.33470375  1
  Cr  Cr12  1  0.33349548  0.33543939  1.00075160  1
  Ni  Ni13  1  0.50196606  0.50225115  0.16865094  1
  Ni  Ni14  1  0.33472389  0.33438003  0.33543394  1
  Ni  Ni15  1  0.33515683  0.66742683  0.00157265  1
  Ni  Ni16  1  0.50279491  0.83331984  0.16916209  1
  Ni  Ni17  1  0.33461918  0.66772428  0.33346939  1
  Ni  Ni18  1  0.66947448  1.00058991  1.00113692  1
  Ni  Ni19  1  0.83477925  0.16758960  0.16756732  1
  Ni  Ni20  1  0.66798445  0.00153633  0.33468217  1
  Fe  Fe21  1  0.67005485  0.33537826  0.00182910  1
  Ni  Ni22  1  0.83450718  0.50146885  0.16825725  1
  Ni  Ni23  1  0.66819806  0.33431612  0.33359379  1
  Ni  Ni24  1  0.66832741  0.66835143  1.00082164  1
  Ni  Ni25  1  0.83438175  0.83471968  0.16753617  1
  Ni  Ni26  1  0.66829659  0.66783674  0.33536543  1
  Ni  Ni27  1  0.16707230  0.16812932  0.50126663  1
  Ni  Ni28  1  1.00111964  0.00184555  0.66824281  1
  Ni  Ni29  1  0.16487652  0.16821662  0.83196159  1
  Ni  Ni30  1  0.16788219  0.50039485  0.50047137  1
  Ni  Ni31  1  1.00018678  0.33458967  0.66764970  1
  Ni  Ni32  1  0.16673384  0.50071442  0.83464437  1
  Ni  Ni33  1  0.16658900  0.83520501  0.50045778  1
  Ni  Ni34  1  0.99958042  0.66707067  0.66826630  1
  Ni  Ni35  1  0.16616776  0.83486685  0.83487888  1
  Ni  Ni36  1  0.50215232  0.16850480  0.50204410  1
  Ni  Ni37  1  0.33478596  0.00246161  0.66787958  1
  Fe  Fe38  1  0.50270289  0.16718319  0.83303689  1
  Ni  Ni39  1  0.50186482  0.50040269  0.50009064  1
  Fe  Fe40  1  0.33449801  0.33412194  0.66721327  1
  Ni  Ni41  1  0.50310568  0.50193990  0.83482596  1
  Ni  Ni42  1  0.50252850  0.83486822  0.50008292  1
  Cr  Cr43  1  0.33435328  0.66922591  0.66838648  1
  Ni  Ni44  1  0.50345827  0.83333983  0.83440754  1
  Ni  Ni45  1  0.83451380  0.16727380  0.50093584  1
  Ni  Ni46  1  0.66785075  0.00160488  0.66807209  1
  Ni  Ni47  1  0.83529392  0.16782919  0.83518347  1
  Fe  Fe48  1  0.83456139  0.50074355  0.50108860  1
  Ni  Ni49  1  0.66910835  0.33446021  0.66876438  1
  Ni  Ni50  1  0.83415037  0.50078947  0.83393282  1
  Ni  Ni51  1  0.83450314  0.83576996  0.50207704  1
  Ni  Ni52  1  0.66915500  0.66733011  0.66732301  1
  Ni  Ni53  1  0.83406204  0.83513249  0.83410000  1
" 