7715,Ni87Fe10Cr2_16,-240.201127855366, 189.511064812628,Ni87Fe10Cr2,"# generated using pymatgen
 data_Cr2Fe5Ni47
_symmetry_space_group_name_H-M   'P 1'
_cell_length_a   7.44481277
_cell_length_b   7.44481277
_cell_length_c   10.52855518
_cell_angle_alpha   90.00000000
_cell_angle_beta   90.00000000
_cell_angle_gamma   90.00000000
_symmetry_Int_Tables_number   1
_chemical_formula_structural   Cr2Fe5Ni47
_chemical_formula_sum   'Cr2 Fe5 Ni47'
_cell_volume   583.54766786
_cell_formula_units_Z   1
loop_
 _symmetry_equiv_pos_site_id
 _symmetry_equiv_pos_as_xyz
  1  'x, y, z'
loop_
 _atom_site_type_symbol
 _atom_site_label
 _atom_site_symmetry_multiplicity
 _atom_site_fract_x
 _atom_site_fract_y
 _atom_site_fract_z
 _atom_site_occupancy
  Ni  Ni0  1  0.00190894  1.00078695  1.00113612  1
  Fe  Fe1  1  0.16869272  0.16810439  0.16811183  1
  Ni  Ni2  1  0.00168807  1.00129922  0.33466058  1
  Ni  Ni3  1  0.00177787  0.33502031  1.00100013  1
  Fe  Fe4  1  0.16836899  0.50128238  0.16843138  1
  Ni  Ni5  1  0.00155696  0.33479866  0.33509318  1
  Ni  Ni6  1  1.00080876  0.66867253  1.00074724  1
  Ni  Ni7  1  0.16893354  0.83492381  0.16796408  1
  Ni  Ni8  1  1.00142303  0.66838180  0.33531386  1
  Ni  Ni9  1  0.33386402  0.00291948  0.00190674  1
  Ni  Ni10  1  0.50218389  0.16793990  0.16790395  1
  Ni  Ni11  1  0.33460619  0.00156295  0.33519181  1
  Ni  Ni12  1  0.33523064  0.33412303  1.00098921  1
  Ni  Ni13  1  0.50224563  0.50161499  0.16796422  1
  Ni  Ni14  1  0.33493998  0.33473662  0.33507138  1
  Fe  Fe15  1  0.33412116  0.66755479  0.00225730  1
  Ni  Ni16  1  0.50003293  0.83492502  0.16884077  1
  Ni  Ni17  1  0.33480861  0.66817986  0.33450049  1
  Ni  Ni18  1  0.66870619  0.00194896  0.00194743  1
  Ni  Ni19  1  0.83434178  0.16898272  0.16832982  1
  Ni  Ni20  1  0.66818519  1.00142893  0.33488746  1
  Ni  Ni21  1  0.66747281  0.33522309  1.00107357  1
  Ni  Ni22  1  0.83434219  0.50063501  0.16837141  1
  Ni  Ni23  1  0.66798408  0.33500162  0.33472371  1
  Ni  Ni24  1  0.66960427  0.66730757  0.00215100  1
  Fe  Fe25  1  0.83374376  0.83477209  0.16809401  1
  Ni  Ni26  1  0.66824750  0.66804906  0.33494772  1
  Ni  Ni27  1  0.16927699  0.16823400  0.50005911  1
  Cr  Cr28  1  0.00166430  1.00133982  0.66876597  1
  Ni  Ni29  1  0.16883548  0.16864118  0.83604954  1
  Ni  Ni30  1  0.16818040  0.50226435  0.50115772  1
  Ni  Ni31  1  0.00172717  0.33684586  0.66838608  1
  Ni  Ni32  1  0.16767293  0.50175701  0.83489080  1
  Ni  Ni33  1  0.16864606  0.83398192  0.50101368  1
  Ni  Ni34  1  1.00145611  0.66659324  0.66841897  1
  Ni  Ni35  1  0.16711470  0.83408139  0.83550239  1
  Ni  Ni36  1  0.50153056  0.16829975  0.50158466  1
  Ni  Ni37  1  0.33567371  0.00247412  0.66738070  1
  Ni  Ni38  1  0.50156464  0.16972970  0.83499136  1
  Ni  Ni39  1  0.50152781  0.50109840  0.50132924  1
  Ni  Ni40  1  0.33517681  0.33492220  0.66841894  1
  Ni  Ni41  1  0.50162786  0.49956873  0.83518645  1
  Fe  Fe42  1  0.50154393  0.83489262  0.50119747  1
  Ni  Ni43  1  0.33401560  0.66708320  0.66786816  1
  Cr  Cr44  1  0.50110524  0.83521524  0.83428316  1
  Ni  Ni45  1  0.83367225  0.16876510  0.50054566  1
  Ni  Ni46  1  0.66708502  0.00220394  0.66764473  1
  Ni  Ni47  1  0.83407962  0.16917274  0.83560462  1
  Ni  Ni48  1  0.83477168  0.50173070  0.50164464  1
  Ni  Ni49  1  0.66757593  0.33518761  0.66868284  1
  Ni  Ni50  1  0.83517907  0.50128911  0.83446387  1
  Ni  Ni51  1  0.83483914  0.83398449  0.49999871  1
  Ni  Ni52  1  0.66900837  0.66708840  0.66738175  1
  Ni  Ni53  1  0.83626772  0.83401821  0.83657717  1
" 