4765,Ni87Fe13_18,-229.978831003324, 165.368083220724,Ni87Fe13,"# generated using pymatgen
 data_Fe23Ni4
_symmetry_space_group_name_H-M   'P 1'
_cell_length_a   7.40134091
_cell_length_b   7.40134091
_cell_length_c   10.46707670
_cell_angle_alpha   90.00000000
_cell_angle_beta   90.00000000
_cell_angle_gamma   90.00000000
_symmetry_Int_Tables_number   1
_chemical_formula_structural   Fe23Ni4
_chemical_formula_sum   'Fe46 Ni8'
_cell_volume   573.38486297
_cell_formula_units_Z   2
loop_
 _symmetry_equiv_pos_site_id
 _symmetry_equiv_pos_as_xyz
  1  'x, y, z'
loop_
 _atom_site_type_symbol
 _atom_site_label
 _atom_site_symmetry_multiplicity
 _atom_site_fract_x
 _atom_site_fract_y
 _atom_site_fract_z
 _atom_site_occupancy
  Ni  Ni0  1  1.00424034  1.00430789  0.00482578  1
  Fe  Fe1  1  0.17080118  0.17110584  0.17076875  1
  Fe  Fe2  1  0.00454041  0.00489819  0.33756789  1
  Fe  Fe3  1  0.00474603  0.33721294  0.00482739  1
  Fe  Fe4  1  0.17076862  0.50385066  0.17115814  1
  Ni  Ni5  1  1.00392699  0.33809143  0.33746201  1
  Fe  Fe6  1  0.00477646  0.67107214  1.00443879  1
  Fe  Fe7  1  0.17076873  0.83836037  0.17115753  1
  Fe  Fe8  1  0.00482823  0.67103588  0.33782430  1
  Fe  Fe9  1  0.33736589  0.00484480  1.00428646  1
  Fe  Fe10  1  0.50449090  0.17110551  0.17115730  1
  Ni  Ni11  1  0.33797361  1.00423731  0.33732225  1
  Ni  Ni12  1  0.33815124  0.33802686  0.00468034  1
  Fe  Fe13  1  0.50467709  0.50400341  0.17084890  1
  Fe  Fe14  1  0.33746465  0.33757011  0.33743471  1
  Fe  Fe15  1  0.33748649  0.67103662  0.00449273  1
  Fe  Fe16  1  0.50467623  0.83820788  0.17136142  1
  Fe  Fe17  1  0.33743475  0.67107175  0.33777065  1
  Fe  Fe18  1  0.67127598  0.00487596  0.00469523  1
  Ni  Ni19  1  0.83796184  0.17110880  0.17104446  1
  Fe  Fe20  1  0.67123943  0.00492789  0.33756772  1
  Fe  Fe21  1  0.67124030  0.33733431  0.00459038  1
  Fe  Fe22  1  0.83787122  0.50403637  0.17136225  1
  Fe  Fe23  1  0.67127559  0.33728220  0.33767255  1
  Fe  Fe24  1  0.67105350  0.67110641  1.00438512  1
  Fe  Fe25  1  0.83787178  0.83817464  0.17084880  1
  Fe  Fe26  1  0.67105347  0.67110625  0.33782430  1
  Fe  Fe27  1  0.17116038  0.17080062  0.50482490  1
  Ni  Ni28  1  0.00488258  1.00438230  0.67053856  1
  Ni  Ni29  1  0.17103895  0.17097323  0.83783705  1
  Fe  Fe30  1  0.17090131  0.50433675  0.50418137  1
  Fe  Fe31  1  0.00487592  0.33702912  0.67081617  1
  Fe  Fe32  1  0.17130880  0.50398040  0.83797726  1
  Fe  Fe33  1  0.17131246  0.83817953  0.50458971  1
  Fe  Fe34  1  0.00472452  0.67174543  0.67105333  1
  Fe  Fe35  1  0.17089774  0.83853640  0.83756905  1
  Fe  Fe36  1  0.50413039  0.17079891  0.50443983  1
  Ni  Ni37  1  0.33733015  1.00438401  0.67180473  1
  Fe  Fe38  1  0.50377727  0.17120964  0.83772104  1
  Fe  Fe39  1  0.50454209  0.50448925  0.50449267  1
  Fe  Fe40  1  0.33733461  0.33703059  0.67169991  1
  Fe  Fe41  1  0.50400327  0.50395045  0.83797605  1
  Fe  Fe42  1  0.50413233  0.83802747  0.50438652  1
  Fe  Fe43  1  0.33748682  0.67174542  0.67105322  1
  Fe  Fe44  1  0.50400293  0.83815699  0.83756925  1
  Fe  Fe45  1  0.83802536  0.17120960  0.50404815  1
  Fe  Fe46  1  0.67110631  1.00438843  0.67105331  1
  Fe  Fe47  1  0.83838530  0.17079852  0.83810849  1
  Fe  Fe48  1  0.83787210  0.50433881  0.50428732  1
  Fe  Fe49  1  0.67110629  0.33714879  0.67105325  1
  Fe  Fe50  1  0.83800579  0.50420523  0.83766605  1
  Fe  Fe51  1  0.83787236  0.83776841  0.50469455  1
  Fe  Fe52  1  0.67110517  0.67177932  0.67110709  1
  Fe  Fe53  1  0.83841508  0.83831117  0.83777224  1
" 