8874,Ni87Fe9Cr3_4,-239.056385829884, 183.603432564394,Ni87Fe9Cr3,"# generated using pymatgen
 data_Cr3Fe4Ni47
_symmetry_space_group_name_H-M   'P 1'
_cell_length_a   7.44936781
_cell_length_b   7.44936781
_cell_length_c   10.53499698
_cell_angle_alpha   90.00000000
_cell_angle_beta   90.00000000
_cell_angle_gamma   90.00000000
_symmetry_Int_Tables_number   1
_chemical_formula_structural   Cr3Fe4Ni47
_chemical_formula_sum   'Cr3 Fe4 Ni47'
_cell_volume   584.61943788
_cell_formula_units_Z   1
loop_
 _symmetry_equiv_pos_site_id
 _symmetry_equiv_pos_as_xyz
  1  'x, y, z'
loop_
 _atom_site_type_symbol
 _atom_site_label
 _atom_site_symmetry_multiplicity
 _atom_site_fract_x
 _atom_site_fract_y
 _atom_site_fract_z
 _atom_site_occupancy
  Ni  Ni0  1  0.00123842  0.00193499  0.00246429  1
  Ni  Ni1  1  0.16701812  0.16893082  0.16691816  1
  Fe  Fe2  1  0.99902986  0.00272479  0.33407825  1
  Ni  Ni3  1  1.00105096  0.33412838  0.00124234  1
  Ni  Ni4  1  0.16765968  0.50056900  0.16757044  1
  Ni  Ni5  1  1.00101155  0.33597666  0.33462200  1
  Fe  Fe6  1  1.00071472  0.66769518  0.00148369  1
  Ni  Ni7  1  0.16666964  0.83402089  0.16678426  1
  Ni  Ni8  1  1.00070784  0.66725072  0.33369127  1
  Ni  Ni9  1  0.33425446  1.00095337  1.00097135  1
  Ni  Ni10  1  0.50190899  0.16882519  0.16635808  1
  Cr  Cr11  1  0.33567293  0.00229395  0.33378410  1
  Ni  Ni12  1  0.33404506  0.33444287  0.00168535  1
  Ni  Ni13  1  0.50176853  0.50065342  0.16797864  1
  Ni  Ni14  1  0.33397167  0.33466966  0.33419793  1
  Ni  Ni15  1  0.33505472  0.66803118  0.00213734  1
  Ni  Ni16  1  0.50251990  0.83379959  0.16648211  1
  Fe  Fe17  1  0.33566964  0.66608703  0.33394502  1
  Ni  Ni18  1  0.66795255  1.00074800  0.00192952  1
  Ni  Ni19  1  0.83430067  0.16815214  0.16754039  1
  Ni  Ni20  1  0.66821553  1.00103408  0.33388217  1
  Ni  Ni21  1  0.66845103  0.33493931  0.00198597  1
  Ni  Ni22  1  0.83434642  0.50124138  0.16769797  1
  Ni  Ni23  1  0.66841791  0.33428751  0.33388776  1
  Ni  Ni24  1  0.66754411  0.66784615  1.00099953  1
  Ni  Ni25  1  0.83416331  0.83450162  0.16803496  1
  Ni  Ni26  1  0.66956462  0.66811532  0.33497923  1
  Ni  Ni27  1  0.16715578  0.16887088  0.50231584  1
  Ni  Ni28  1  1.00116516  0.00234827  0.66666876  1
  Ni  Ni29  1  0.16811802  0.16774839  0.83414715  1
  Ni  Ni30  1  0.16755756  0.49916215  0.49942764  1
  Ni  Ni31  1  1.00099105  0.33315215  0.66785480  1
  Ni  Ni32  1  0.16786848  0.49865108  0.83672038  1
  Ni  Ni33  1  0.16638688  0.83565824  0.49998574  1
  Cr  Cr34  1  0.99939202  0.66672678  0.66924294  1
  Ni  Ni35  1  0.16722511  0.83702519  0.83660999  1
  Ni  Ni36  1  0.50198231  0.16875299  0.50232826  1
  Ni  Ni37  1  0.33448712  0.00248999  0.66833828  1
  Ni  Ni38  1  0.50058675  0.16812109  0.83481048  1
  Ni  Ni39  1  0.50270531  0.49948016  0.50022094  1
  Ni  Ni40  1  0.33426405  0.33282751  0.66763291  1
  Ni  Ni41  1  0.50239691  0.49979443  0.83522867  1
  Ni  Ni42  1  0.50339899  0.83499726  0.50168076  1
  Cr  Cr43  1  0.33580787  0.66788407  0.66688854  1
  Ni  Ni44  1  0.50259421  0.83560256  0.83523163  1
  Ni  Ni45  1  0.83411290  0.16804546  0.50156644  1
  Ni  Ni46  1  0.66777033  1.00112164  0.66785742  1
  Fe  Fe47  1  0.83441192  0.16756221  0.83480074  1
  Ni  Ni48  1  0.83373821  0.50048193  0.50060412  1
  Ni  Ni49  1  0.66829169  0.33457332  0.66779558  1
  Ni  Ni50  1  0.83311338  0.50063706  0.83554810  1
  Ni  Ni51  1  0.83376485  0.83531918  0.50021793  1
  Ni  Ni52  1  0.66829643  0.66787039  0.66757879  1
  Ni  Ni53  1  0.83357381  0.83532234  0.83544494  1
" 