1804,Ni87Fe8Cr3_18,-239.161803234118, 185.672515965311,Ni87Fe8Cr3,"# generated using pymatgen
 data_Cr3Fe4Ni47
_symmetry_space_group_name_H-M   'P 1'
_cell_length_a   7.44850716
_cell_length_b   7.44850716
_cell_length_c   10.53377985
_cell_angle_alpha   90.00000000
_cell_angle_beta   90.00000000
_cell_angle_gamma   90.00000000
_symmetry_Int_Tables_number   1
_chemical_formula_structural   Cr3Fe4Ni47
_chemical_formula_sum   'Cr3 Fe4 Ni47'
_cell_volume   584.41683337
_cell_formula_units_Z   1
loop_
 _symmetry_equiv_pos_site_id
 _symmetry_equiv_pos_as_xyz
  1  'x, y, z'
loop_
 _atom_site_type_symbol
 _atom_site_label
 _atom_site_symmetry_multiplicity
 _atom_site_fract_x
 _atom_site_fract_y
 _atom_site_fract_z
 _atom_site_occupancy
  Fe  Fe0  1  0.99987994  0.99984634  1.00027155  1
  Ni  Ni1  1  0.16867210  0.16901235  0.16910246  1
  Ni  Ni2  1  0.00129897  0.00302641  0.33469887  1
  Cr  Cr3  1  1.00069692  0.33509601  1.00106110  1
  Ni  Ni4  1  0.16859624  0.50048602  0.16865377  1
  Ni  Ni5  1  1.00018887  0.33353480  0.33390576  1
  Ni  Ni6  1  0.00131148  0.66774082  1.00040061  1
  Cr  Cr7  1  0.16743963  0.83419813  0.16808744  1
  Ni  Ni8  1  1.00046179  0.66717218  0.33435275  1
  Ni  Ni9  1  0.33620484  0.00126887  0.99991124  1
  Ni  Ni10  1  0.50151384  0.16818340  0.16774526  1
  Ni  Ni11  1  0.33515328  0.00145337  0.33613877  1
  Fe  Fe12  1  0.33683654  0.33501924  1.00076657  1
  Ni  Ni13  1  0.50132661  0.50105133  0.16790572  1
  Fe  Fe14  1  0.33538408  0.33360657  0.33407364  1
  Ni  Ni15  1  0.33510250  0.66831953  1.00040225  1
  Ni  Ni16  1  0.50303472  0.83450132  0.16799765  1
  Ni  Ni17  1  0.33599234  0.66874821  0.33429214  1
  Ni  Ni18  1  0.66646295  0.00154142  0.00175942  1
  Ni  Ni19  1  0.83355364  0.16729103  0.16890397  1
  Ni  Ni20  1  0.66727877  0.00172836  0.33403959  1
  Ni  Ni21  1  0.66704215  0.33389687  1.00098365  1
  Ni  Ni22  1  0.83382027  0.50201415  0.16904181  1
  Ni  Ni23  1  0.66885846  0.33437269  0.33460695  1
  Ni  Ni24  1  0.66731960  0.66829434  0.00149836  1
  Ni  Ni25  1  0.83298673  0.83442371  0.16781014  1
  Ni  Ni26  1  0.66727822  0.66763223  0.33429305  1
  Ni  Ni27  1  0.16770543  0.16586669  0.50099203  1
  Ni  Ni28  1  0.00129083  0.00195036  0.66837261  1
  Ni  Ni29  1  0.16865568  0.16716602  0.83364214  1
  Cr  Cr30  1  0.16751253  0.50163454  0.50098979  1
  Ni  Ni31  1  1.00079126  0.33330922  0.66858791  1
  Ni  Ni32  1  0.16865986  0.50243723  0.83402316  1
  Ni  Ni33  1  0.16777005  0.83627231  0.50131331  1
  Ni  Ni34  1  0.00130968  0.66847391  0.66897911  1
  Ni  Ni35  1  0.16762412  0.83412692  0.83441340  1
  Ni  Ni36  1  0.50153154  0.16773201  0.50119334  1
  Fe  Fe37  1  0.33447853  0.00133794  0.66789565  1
  Ni  Ni38  1  0.50134362  0.16819704  0.83479929  1
  Ni  Ni39  1  0.50311453  0.50139344  0.50126185  1
  Ni  Ni40  1  0.33494212  0.33416681  0.66923809  1
  Ni  Ni41  1  0.50107474  0.50114609  0.83456981  1
  Ni  Ni42  1  0.50126353  0.83460810  0.50092225  1
  Ni  Ni43  1  0.33514416  0.66833887  0.66903784  1
  Ni  Ni44  1  0.50107816  0.83439387  0.83481421  1
  Ni  Ni45  1  0.83449968  0.16771808  0.50118966  1
  Ni  Ni46  1  0.66813698  0.00174830  0.66793424  1
  Ni  Ni47  1  0.83373662  0.16715959  0.83363700  1
  Ni  Ni48  1  0.83283504  0.50132649  0.50123155  1
  Ni  Ni49  1  0.66800100  0.33414518  0.66814178  1
  Ni  Ni50  1  0.83400371  0.50217442  0.83345839  1
  Ni  Ni51  1  0.83470126  0.83468889  0.50094739  1
  Ni  Ni52  1  0.66727886  0.66784014  0.66794239  1
  Ni  Ni53  1  0.83502807  0.83439491  0.83497434  1
" 