2825,Ni87Fe8Cr3_1,-239.189573623387, 184.224599173846,Ni87Fe8Cr3,"# generated using pymatgen
 data_Cr3Fe4Ni47
_symmetry_space_group_name_H-M   'P 1'
_cell_length_a   7.44992913
_cell_length_b   7.44992913
_cell_length_c   10.53579081
_cell_angle_alpha   90.00000000
_cell_angle_beta   90.00000000
_cell_angle_gamma   90.00000000
_symmetry_Int_Tables_number   1
_chemical_formula_structural   Cr3Fe4Ni47
_chemical_formula_sum   'Cr3 Fe4 Ni47'
_cell_volume   584.75160351
_cell_formula_units_Z   1
loop_
 _symmetry_equiv_pos_site_id
 _symmetry_equiv_pos_as_xyz
  1  'x, y, z'
loop_
 _atom_site_type_symbol
 _atom_site_label
 _atom_site_symmetry_multiplicity
 _atom_site_fract_x
 _atom_site_fract_y
 _atom_site_fract_z
 _atom_site_occupancy
  Ni  Ni0  1  1.00089758  1.00077099  0.00132479  1
  Ni  Ni1  1  0.16741598  0.16760451  0.16783249  1
  Ni  Ni2  1  1.00090374  0.00282121  0.33417737  1
  Ni  Ni3  1  1.00090006  0.33485849  0.00132330  1
  Ni  Ni4  1  0.16747409  0.49992443  0.16625589  1
  Ni  Ni5  1  1.00083733  0.33290439  0.33424035  1
  Ni  Ni6  1  0.00218195  0.66781738  0.00144730  1
  Ni  Ni7  1  0.16771495  0.83591733  0.16601670  1
  Cr  Cr8  1  1.00023228  0.66764701  0.33452062  1
  Ni  Ni9  1  0.33407127  0.99968978  0.00224100  1
  Ni  Ni10  1  0.50152020  0.16760460  0.16799483  1
  Ni  Ni11  1  0.33481893  0.00275639  0.33424040  1
  Ni  Ni12  1  0.33407119  0.33594233  0.00224119  1
  Ni  Ni13  1  0.50222998  0.50069427  0.16715447  1
  Ni  Ni14  1  0.33481959  0.33290051  0.33427604  1
  Ni  Ni15  1  0.33387201  0.66781475  1.00108382  1
  Ni  Ni16  1  0.50198815  0.83514775  0.16691440  1
  Cr  Cr17  1  0.33556504  0.66761126  0.33448086  1
  Ni  Ni18  1  0.66847758  1.00097110  0.00215483  1
  Ni  Ni19  1  0.83451044  0.16784608  0.16787447  1
  Ni  Ni20  1  0.66772364  0.00152110  0.33441823  1
  Ni  Ni21  1  0.66847517  0.33465842  0.00215337  1
  Ni  Ni22  1  0.83374276  0.50039590  0.16688781  1
  Ni  Ni23  1  0.66778964  0.33420410  0.33448081  1
  Fe  Fe24  1  0.66723863  0.66781599  0.00172605  1
  Ni  Ni25  1  0.83374291  0.83520519  0.16733977  1
  Ni  Ni26  1  0.66772618  0.66772216  0.33396633  1
  Ni  Ni27  1  0.16720609  0.16739437  0.50133836  1
  Ni  Ni28  1  0.00119951  1.00107256  0.66794452  1
  Ni  Ni29  1  0.16509943  0.16760430  0.83427592  1
  Ni  Ni30  1  0.16726423  0.50016126  0.50295101  1
  Ni  Ni31  1  1.00113753  0.33464823  0.66788247  1
  Ni  Ni32  1  0.16767109  0.50188043  0.83424011  1
  Ni  Ni33  1  0.16829402  0.83589090  0.50295064  1
  Ni  Ni34  1  0.00169332  0.66772633  0.66758095  1
  Ni  Ni35  1  0.16791258  0.83396199  0.83448065  1
  Ni  Ni36  1  0.50175662  0.16739467  0.50121208  1
  Ni  Ni37  1  0.33386117  0.99992594  0.66696544  1
  Cr  Cr38  1  0.50160732  0.16765893  0.83411697  1
  Ni  Ni39  1  0.50253715  0.50100158  0.50211538  1
  Ni  Ni40  1  0.33386116  0.33573311  0.66692907  1
  Ni  Ni41  1  0.50107528  0.50335200  0.83417716  1
  Ni  Ni42  1  0.50150821  0.83505039  0.50211526  1
  Ni  Ni43  1  0.33445226  0.66778809  0.66788212  1
  Ni  Ni44  1  0.50083348  0.83249080  0.83441794  1
  Ni  Ni45  1  0.83448376  0.16842379  0.50109168  1
  Ni  Ni46  1  0.66838640  1.00048155  0.66687369  1
  Ni  Ni47  1  0.83617106  0.16784628  0.83448108  1
  Ni  Ni48  1  0.83364532  0.49991453  0.50214205  1
  Ni  Ni49  1  0.66844791  0.33523866  0.66681219  1
  Fe  Fe50  1  0.83503194  0.50070844  0.83417565  1
  Fe  Fe51  1  0.83362902  0.83522847  0.50153805  1
  Ni  Ni52  1  0.66730200  0.66772640  0.66790778  1
  Fe  Fe53  1  0.83503161  0.83496930  0.83467501  1
" 