1402,Ni87Fe13_1,-229.872505819522, 167.05816698367,Ni87Fe13,"# generated using pymatgen
 data_Fe23Ni4
_symmetry_space_group_name_H-M   'P 1'
_cell_length_a   7.40124583
_cell_length_b   7.40124583
_cell_length_c   10.46694224
_cell_angle_alpha   90.00000000
_cell_angle_beta   90.00000000
_cell_angle_gamma   90.00000000
_symmetry_Int_Tables_number   1
_chemical_formula_structural   Fe23Ni4
_chemical_formula_sum   'Fe46 Ni8'
_cell_volume   573.36276623
_cell_formula_units_Z   2
loop_
 _symmetry_equiv_pos_site_id
 _symmetry_equiv_pos_as_xyz
  1  'x, y, z'
loop_
 _atom_site_type_symbol
 _atom_site_label
 _atom_site_symmetry_multiplicity
 _atom_site_fract_x
 _atom_site_fract_y
 _atom_site_fract_z
 _atom_site_occupancy
  Fe  Fe0  1  1.00423884  0.00536848  0.00461377  1
  Fe  Fe1  1  0.17046034  0.17070710  0.17076508  1
  Fe  Fe2  1  1.00335531  0.00450690  0.33726494  1
  Fe  Fe3  1  0.00470691  0.33717049  1.00426691  1
  Fe  Fe4  1  0.16996409  0.50453376  0.17102236  1
  Fe  Fe5  1  1.00375671  0.33804208  0.33761150  1
  Fe  Fe6  1  0.00502510  0.67079691  0.00536859  1
  Fe  Fe7  1  0.16967624  0.83809596  0.17146031  1
  Ni  Ni8  1  0.00467223  0.67240197  0.33766636  1
  Fe  Fe9  1  0.33777995  0.00486710  1.00435583  1
  Fe  Fe10  1  0.50544360  0.17105281  0.17120187  1
  Fe  Fe11  1  0.33778007  1.00435574  0.33804770  1
  Ni  Ni12  1  0.33799306  0.33694092  1.00443846  1
  Fe  Fe13  1  0.50559332  0.50384086  0.17101991  1
  Fe  Fe14  1  0.33762926  0.33844300  0.33720166  1
  Fe  Fe15  1  0.33777992  0.67050463  1.00435588  1
  Fe  Fe16  1  0.50553454  0.83843971  0.17102221  1
  Fe  Fe17  1  0.33775006  0.67053724  0.33786559  1
  Fe  Fe18  1  0.67131691  0.00518968  0.00479311  1
  Ni  Ni19  1  0.83778029  0.17047957  0.17177674  1
  Fe  Fe20  1  0.67220048  1.00438605  0.33708577  1
  Fe  Fe21  1  0.67103037  0.33717015  0.00444667  1
  Fe  Fe22  1  0.83777851  0.50462742  0.17180916  1
  Ni  Ni23  1  0.67066574  0.33722653  0.33700696  1
  Fe  Fe24  1  0.67053132  0.67097663  1.00404088  1
  Ni  Ni25  1  0.83778701  0.83862279  0.17122952  1
  Fe  Fe26  1  0.67179957  0.67094193  0.33809361  1
  Fe  Fe27  1  0.17137988  0.17093466  0.50453710  1
  Fe  Fe28  1  1.00303888  0.00479207  0.67145791  1
  Fe  Fe29  1  0.17094313  0.17127914  0.83803353  1
  Fe  Fe30  1  0.17085205  0.50479174  0.50409645  1
  Fe  Fe31  1  1.00309634  0.33800474  0.67145799  1
  Fe  Fe32  1  0.17079465  0.50361509  0.83821672  1
  Fe  Fe33  1  0.17094236  0.83761210  0.50418881  1
  Fe  Fe34  1  1.00344763  0.67053885  0.67044774  1
  Fe  Fe35  1  0.17053646  0.83844040  0.83768675  1
  Fe  Fe36  1  0.50469786  0.17163309  0.50435573  1
  Fe  Fe37  1  0.33892587  1.00426731  0.67093243  1
  Fe  Fe38  1  0.50478373  0.17162669  0.83777898  1
  Fe  Fe39  1  0.50522517  0.50409097  0.50479277  1
  Fe  Fe40  1  0.33877696  0.33844218  0.67168628  1
  Fe  Fe41  1  0.50527831  0.50361480  0.83752245  1
  Fe  Fe42  1  0.50443849  0.83761058  0.50488251  1
  Fe  Fe43  1  0.33895820  0.67062635  0.67111438  1
  Fe  Fe44  1  0.50518982  0.83809320  0.83742978  1
  Fe  Fe45  1  0.83725571  0.17172340  0.50453647  1
  Fe  Fe46  1  0.67137150  0.00461454  0.67145801  1
  Ni  Ni47  1  0.83756436  0.17121885  0.83721949  1
  Fe  Fe48  1  0.83725844  0.50452906  0.50453097  1
  Ni  Ni49  1  0.67079755  0.33820533  0.67219575  1
  Fe  Fe50  1  0.83726337  0.50402080  0.83699557  1
  Fe  Fe51  1  0.83795662  0.83708470  0.50387101  1
  Ni  Ni52  1  0.67163390  0.67046661  0.67069307  1
  Fe  Fe53  1  0.83761016  0.83794350  0.83809717  1
" 