8567,Ni87Fe10Cr2_12,-240.107366774241, 189.211782534878,Ni87Fe10Cr2,"# generated using pymatgen
 data_Cr2Fe5Ni47
_symmetry_space_group_name_H-M   'P 1'
_cell_length_a   7.44251775
_cell_length_b   7.44251775
_cell_length_c   10.52530954
_cell_angle_alpha   90.00000000
_cell_angle_beta   90.00000000
_cell_angle_gamma   90.00000000
_symmetry_Int_Tables_number   1
_chemical_formula_structural   Cr2Fe5Ni47
_chemical_formula_sum   'Cr2 Fe5 Ni47'
_cell_volume   583.00816162
_cell_formula_units_Z   1
loop_
 _symmetry_equiv_pos_site_id
 _symmetry_equiv_pos_as_xyz
  1  'x, y, z'
loop_
 _atom_site_type_symbol
 _atom_site_label
 _atom_site_symmetry_multiplicity
 _atom_site_fract_x
 _atom_site_fract_y
 _atom_site_fract_z
 _atom_site_occupancy
  Ni  Ni0  1  1.00149318  0.00174106  1.00153036  1
  Ni  Ni1  1  0.16870347  0.16844302  0.16865632  1
  Ni  Ni2  1  1.00097245  1.00144977  0.33487160  1
  Ni  Ni3  1  0.00169880  0.33452643  0.00169765  1
  Fe  Fe4  1  0.16681685  0.50064719  0.16942044  1
  Ni  Ni5  1  0.00210959  0.33448049  0.33492812  1
  Ni  Ni6  1  1.00021133  0.66867496  1.00148719  1
  Ni  Ni7  1  0.16757809  0.83567542  0.16927556  1
  Ni  Ni8  1  0.00258848  0.66901030  0.33497846  1
  Ni  Ni9  1  0.33497527  0.00321533  0.00177277  1
  Ni  Ni10  1  0.50129994  0.16844696  0.16815170  1
  Fe  Fe11  1  0.33525818  1.00124591  0.33460583  1
  Ni  Ni12  1  0.33497523  0.33324797  1.00115484  1
  Fe  Fe13  1  0.50315015  0.50070253  0.16936540  1
  Ni  Ni14  1  0.33508204  0.33603591  0.33503760  1
  Cr  Cr15  1  0.33498305  0.66845026  1.00100180  1
  Ni  Ni16  1  0.50215086  0.83595255  0.16954923  1
  Ni  Ni17  1  0.33501858  0.66787808  0.33509477  1
  Ni  Ni18  1  0.66847554  0.00173142  1.00153042  1
  Ni  Ni19  1  0.83494143  0.16923012  0.16819993  1
  Ni  Ni20  1  0.66889145  1.00151425  0.33493044  1
  Ni  Ni21  1  0.66827066  0.33453491  0.00169676  1
  Ni  Ni22  1  0.83521742  0.50167752  0.16876744  1
  Ni  Ni23  1  0.66775210  0.33441803  0.33497704  1
  Ni  Ni24  1  0.66974968  0.66867726  1.00148475  1
  Ni  Ni25  1  0.83521520  0.83403495  0.16821220  1
  Ni  Ni26  1  0.66733402  0.66901377  0.33502589  1
  Fe  Fe27  1  0.16860336  0.16814167  0.50193176  1
  Ni  Ni28  1  1.00145105  1.00163500  0.66854287  1
  Ni  Ni29  1  0.16883880  0.16873744  0.83447789  1
  Ni  Ni30  1  0.16803939  0.50144916  0.50040212  1
  Ni  Ni31  1  0.00179780  0.33466397  0.66831873  1
  Ni  Ni32  1  0.16657405  0.49995010  0.83548713  1
  Ni  Ni33  1  0.16712894  0.83441244  0.50068720  1
  Ni  Ni34  1  1.00038599  0.66864399  0.66847635  1
  Ni  Ni35  1  0.16658195  0.83625611  0.83498193  1
  Ni  Ni36  1  0.50238467  0.16906885  0.50180955  1
  Ni  Ni37  1  0.33508356  0.00311174  0.66819960  1
  Ni  Ni38  1  0.50116418  0.16873726  0.83498161  1
  Ni  Ni39  1  0.50144821  0.50032620  0.50040156  1
  Ni  Ni40  1  0.33507995  0.33353080  0.66875087  1
  Ni  Ni41  1  0.50315494  0.49967443  0.83521394  1
  Ni  Ni42  1  0.50237405  0.83555198  0.50068670  1
  Cr  Cr43  1  0.33521423  0.66830107  0.66906852  1
  Ni  Ni44  1  0.50314714  0.83653155  0.83470901  1
  Ni  Ni45  1  0.83431343  0.16815374  0.50121529  1
  Ni  Ni46  1  0.66841024  0.00170008  0.66848354  1
  Ni  Ni47  1  0.83494120  0.16874643  0.83552870  1
  Fe  Fe48  1  0.83448220  0.50221353  0.50159723  1
  Ni  Ni49  1  0.66806394  0.33459910  0.66826709  1
  Ni  Ni50  1  0.83521523  0.50193200  0.83420494  1
  Ni  Ni51  1  0.83544189  0.83535120  0.50147656  1
  Ni  Ni52  1  0.66954072  0.66864764  0.66842902  1
  Ni  Ni53  1  0.83521543  0.83426571  0.83525533  1
" 