5839,Ni87Fe8Cr3_16,-239.32567319712, 185.809097842956,Ni87Fe8Cr3,"# generated using pymatgen
 data_Cr3Fe4Ni47
_symmetry_space_group_name_H-M   'P 1'
_cell_length_a   7.44735361
_cell_length_b   7.44735361
_cell_length_c   10.53214848
_cell_angle_alpha   90.00000000
_cell_angle_beta   90.00000000
_cell_angle_gamma   90.00000000
_symmetry_Int_Tables_number   1
_chemical_formula_structural   Cr3Fe4Ni47
_chemical_formula_sum   'Cr3 Fe4 Ni47'
_cell_volume   584.14534932
_cell_formula_units_Z   1
loop_
 _symmetry_equiv_pos_site_id
 _symmetry_equiv_pos_as_xyz
  1  'x, y, z'
loop_
 _atom_site_type_symbol
 _atom_site_label
 _atom_site_symmetry_multiplicity
 _atom_site_fract_x
 _atom_site_fract_y
 _atom_site_fract_z
 _atom_site_occupancy
  Ni  Ni0  1  1.00104833  1.00057569  1.00073208  1
  Fe  Fe1  1  0.16827791  0.16772347  0.16825502  1
  Ni  Ni2  1  0.00188203  0.00199961  0.33448268  1
  Fe  Fe3  1  1.00103787  0.33491636  0.00136085  1
  Ni  Ni4  1  0.16826540  0.50234263  0.16791090  1
  Ni  Ni5  1  1.00079837  0.33502844  0.33469678  1
  Ni  Ni6  1  0.00157214  0.66836181  1.00085344  1
  Ni  Ni7  1  0.16773504  0.83401069  0.16830570  1
  Ni  Ni8  1  0.00240569  0.66694138  0.33436199  1
  Ni  Ni9  1  0.33438550  0.00134278  1.00079222  1
  Ni  Ni10  1  0.50201012  0.16795184  0.16810756  1
  Ni  Ni11  1  0.33471308  1.00077291  0.33530626  1
  Ni  Ni12  1  0.33535326  0.33522374  1.00053197  1
  Ni  Ni13  1  0.50092881  0.50092030  0.16810711  1
  Ni  Ni14  1  0.33476682  0.33522564  0.33551449  1
  Ni  Ni15  1  0.33405969  0.66740265  0.00149584  1
  Ni  Ni16  1  0.50112501  0.83509547  0.16777564  1
  Ni  Ni17  1  0.33438487  0.66796843  0.33460070  1
  Ni  Ni18  1  0.66853202  0.00186870  1.00130913  1
  Ni  Ni19  1  0.83368399  0.16742015  0.16811029  1
  Ni  Ni20  1  0.66737305  0.00237840  0.33370716  1
  Ni  Ni21  1  0.66757280  0.33469946  1.00105252  1
  Ni  Ni22  1  0.83477356  0.50145384  0.16810937  1
  Ni  Ni23  1  0.66840093  0.33469865  0.33524212  1
  Ni  Ni24  1  0.66833605  0.66739898  1.00067320  1
  Ni  Ni25  1  0.83510657  0.83509088  0.16792217  1
  Ni  Ni26  1  0.66717609  0.66688732  0.33434308  1
  Ni  Ni27  1  0.16942268  0.16706684  0.50052704  1
  Ni  Ni28  1  0.00158272  1.00008317  0.66875204  1
  Ni  Ni29  1  0.16956583  0.16656159  0.83552916  1
  Ni  Ni30  1  0.16834107  0.50141372  0.49988471  1
  Cr  Cr31  1  1.00089783  0.33496526  0.66806603  1
  Ni  Ni32  1  0.16848501  0.50191926  0.83617208  1
  Ni  Ni33  1  0.16863881  0.83548495  0.50070992  1
  Ni  Ni34  1  1.00102804  0.66892029  0.66875231  1
  Ni  Ni35  1  0.16604962  0.83548402  0.83495144  1
  Ni  Ni36  1  0.50094715  0.16839825  0.50178798  1
  Ni  Ni37  1  0.33490951  0.00257832  0.66787272  1
  Ni  Ni38  1  0.50112753  0.16880060  0.83407247  1
  Ni  Ni39  1  0.50170274  0.49975695  0.50038993  1
  Ni  Ni40  1  0.33686384  0.33333841  0.66792367  1
  Ni  Ni41  1  0.50188618  0.49935395  0.83546623  1
  Ni  Ni42  1  0.50007596  0.83581293  0.50062350  1
  Cr  Cr43  1  0.33358053  0.66780274  0.66777884  1
  Fe  Fe44  1  0.50201931  0.83583027  0.83577785  1
  Ni  Ni45  1  0.83359764  0.16869349  0.50071767  1
  Ni  Ni46  1  0.66747673  0.00311744  0.66895172  1
  Ni  Ni47  1  0.83327555  0.16636902  0.83514064  1
  Ni  Ni48  1  0.83392252  0.50054367  0.50064953  1
  Ni  Ni49  1  0.66660879  0.33388856  0.66767401  1
  Ni  Ni50  1  0.83359524  0.50287374  0.83520477  1
  Cr  Cr51  1  0.83542177  0.83479766  0.50116678  1
  Fe  Fe52  1  0.66883690  0.66711804  0.66862415  1
  Ni  Ni53  1  0.83583509  0.83472628  0.83457214  1
" 