7564,Ni87Fe8Cr3_10,-239.134950879402, 183.8709199593,Ni87Fe8Cr3,"# generated using pymatgen
 data_Cr3Fe4Ni47
_symmetry_space_group_name_H-M   'P 1'
_cell_length_a   7.44919014
_cell_length_b   7.44919014
_cell_length_c   10.53474573
_cell_angle_alpha   90.00000000
_cell_angle_beta   90.00000000
_cell_angle_gamma   90.00000000
_symmetry_Int_Tables_number   1
_chemical_formula_structural   Cr3Fe4Ni47
_chemical_formula_sum   'Cr3 Fe4 Ni47'
_cell_volume   584.57761046
_cell_formula_units_Z   1
loop_
 _symmetry_equiv_pos_site_id
 _symmetry_equiv_pos_as_xyz
  1  'x, y, z'
loop_
 _atom_site_type_symbol
 _atom_site_label
 _atom_site_symmetry_multiplicity
 _atom_site_fract_x
 _atom_site_fract_y
 _atom_site_fract_z
 _atom_site_occupancy
  Ni  Ni0  1  0.00135757  0.00309241  0.00125561  1
  Ni  Ni1  1  0.16775654  0.16794242  0.16773207  1
  Ni  Ni2  1  1.00009377  0.00122830  0.33441965  1
  Ni  Ni3  1  0.00189232  0.33260656  1.00075320  1
  Ni  Ni4  1  0.16783653  0.49975167  0.16754034  1
  Ni  Ni5  1  0.00239512  0.33446976  0.33492183  1
  Cr  Cr6  1  0.00260357  0.66809682  0.00222174  1
  Ni  Ni7  1  0.16776793  0.83590332  0.16751181  1
  Ni  Ni8  1  0.99907294  0.66790050  0.33434906  1
  Ni  Ni9  1  0.33453202  0.00172160  0.00196161  1
  Ni  Ni10  1  0.50119844  0.16786083  0.16766738  1
  Fe  Fe11  1  0.33402910  0.00252889  0.33459528  1
  Ni  Ni12  1  0.33453180  0.33451031  0.00145901  1
  Ni  Ni13  1  0.50112049  0.49983304  0.16747215  1
  Ni  Ni14  1  0.33389494  0.33343413  0.33435831  1
  Ni  Ni15  1  0.33453187  0.66736493  1.00055825  1
  Ni  Ni16  1  0.50126715  0.83590255  0.16747131  1
  Cr  Cr17  1  0.33464012  0.66668500  0.33455633  1
  Ni  Ni18  1  0.66770599  0.00309251  1.00072247  1
  Ni  Ni19  1  0.83464300  0.16779331  0.16720910  1
  Ni  Ni20  1  0.66872770  1.00035093  0.33468628  1
  Ni  Ni21  1  0.66717187  0.33260633  0.00175699  1
  Ni  Ni22  1  0.83464245  0.49981351  0.16976562  1
  Fe  Fe23  1  0.66873730  0.33476422  0.33452731  1
  Cr  Cr24  1  0.66646023  0.66809730  0.00141651  1
  Ni  Ni25  1  0.83455884  0.83598798  0.16979517  1
  Ni  Ni26  1  0.66975714  0.66878088  0.33461548  1
  Ni  Ni27  1  0.16809276  0.16783241  0.50093547  1
  Ni  Ni28  1  0.00139828  0.99991657  0.66792096  1
  Ni  Ni29  1  0.16769180  0.16775326  0.83492759  1
  Ni  Ni30  1  0.16696801  0.50036746  0.50192880  1
  Fe  Fe31  1  1.00064169  0.33407426  0.66787506  1
  Ni  Ni32  1  0.16873153  0.50059167  0.83412566  1
  Ni  Ni33  1  0.16681502  0.83539501  0.50202054  1
  Ni  Ni34  1  1.00052366  0.66853855  0.66725413  1
  Ni  Ni35  1  0.16866401  0.83525108  0.83406288  1
  Ni  Ni36  1  0.50097163  0.16783262  0.50107087  1
  Ni  Ni37  1  0.33429870  0.00222442  0.66701043  1
  Ni  Ni38  1  0.50148161  0.16783533  0.83485794  1
  Ni  Ni39  1  0.50209547  0.50036836  0.50206076  1
  Ni  Ni40  1  0.33516983  0.33425718  0.66777950  1
  Ni  Ni41  1  0.50044060  0.50050997  0.83406100  1
  Ni  Ni42  1  0.50224892  0.83539875  0.50210062  1
  Fe  Fe43  1  0.33503534  0.66842230  0.66826444  1
  Ni  Ni44  1  0.50042842  0.83525491  0.83402185  1
  Ni  Ni45  1  0.83452995  0.16767984  0.50123851  1
  Ni  Ni46  1  0.66789891  1.00080299  0.66818702  1
  Ni  Ni47  1  0.83441841  0.16776358  0.83514857  1
  Ni  Ni48  1  0.83453398  0.50164096  0.50089838  1
  Ni  Ni49  1  0.66647721  0.33512678  0.66741907  1
  Ni  Ni50  1  0.83442342  0.49953163  0.83293318  1
  Ni  Ni51  1  0.83453208  0.83427382  0.50093882  1
  Ni  Ni52  1  0.66878219  0.66766589  0.66752099  1
  Ni  Ni53  1  0.83450517  0.83629575  0.83286248  1
" 