7544,Ni87Fe8Cr3_11,-239.076192416342, 184.457923348661,Ni87Fe8Cr3,"# generated using pymatgen
 data_Cr3Fe4Ni47
_symmetry_space_group_name_H-M   'P 1'
_cell_length_a   7.44822237
_cell_length_b   7.44822237
_cell_length_c   10.53337709
_cell_angle_alpha   90.00000000
_cell_angle_beta   90.00000000
_cell_angle_gamma   90.00000000
_symmetry_Int_Tables_number   1
_chemical_formula_structural   Cr3Fe4Ni47
_chemical_formula_sum   'Cr3 Fe4 Ni47'
_cell_volume   584.34980052
_cell_formula_units_Z   1
loop_
 _symmetry_equiv_pos_site_id
 _symmetry_equiv_pos_as_xyz
  1  'x, y, z'
loop_
 _atom_site_type_symbol
 _atom_site_label
 _atom_site_symmetry_multiplicity
 _atom_site_fract_x
 _atom_site_fract_y
 _atom_site_fract_z
 _atom_site_occupancy
  Ni  Ni0  1  0.00168873  0.00148221  0.00165376  1
  Ni  Ni1  1  0.16894338  0.16628690  0.16745461  1
  Ni  Ni2  1  0.00208591  0.00131135  0.33464195  1
  Ni  Ni3  1  1.00038770  0.33374973  1.00039523  1
  Cr  Cr4  1  0.16643718  0.50000969  0.16847409  1
  Ni  Ni5  1  0.99996313  0.33392930  0.33545037  1
  Ni  Ni6  1  0.99898202  0.66855900  1.00066268  1
  Ni  Ni7  1  0.16732779  0.83755929  0.16851183  1
  Ni  Ni8  1  1.00115195  0.66854987  0.33543810  1
  Ni  Ni9  1  0.33423442  0.00282399  0.00156880  1
  Ni  Ni10  1  0.50061458  0.16743410  0.16742716  1
  Ni  Ni11  1  0.33355018  1.00118080  0.33333620  1
  Ni  Ni12  1  0.33522339  0.33210155  1.00105067  1
  Ni  Ni13  1  0.50431826  0.50038100  0.16847817  1
  Fe  Fe14  1  0.33554423  0.33371806  0.33543091  1
  Cr  Cr15  1  0.33504287  0.66914740  1.00061631  1
  Ni  Ni16  1  0.50267064  0.83597157  0.16863716  1
  Ni  Ni17  1  0.33460267  0.66855619  0.33471967  1
  Ni  Ni18  1  0.66786919  0.00141726  0.00151660  1
  Fe  Fe19  1  0.83425885  0.16768636  0.16792700  1
  Ni  Ni20  1  0.66815852  0.00237073  0.33383342  1
  Ni  Ni21  1  0.66818536  0.33480716  0.00157073  1
  Ni  Ni22  1  0.83264635  0.50199400  0.16751738  1
  Ni  Ni23  1  0.66816357  0.33498221  0.33464052  1
  Ni  Ni24  1  0.66952019  0.66756610  0.00181789  1
  Ni  Ni25  1  0.83379171  0.83385001  0.16750045  1
  Ni  Ni26  1  0.66803687  0.66644006  0.33333593  1
  Ni  Ni27  1  0.16792836  0.16842182  0.50133334  1
  Ni  Ni28  1  0.00152806  1.00117212  0.66749699  1
  Ni  Ni29  1  0.16806208  0.16856182  0.83500169  1
  Ni  Ni30  1  0.16767417  0.50079168  0.50145588  1
  Ni  Ni31  1  0.00127443  0.33463974  0.66794770  1
  Ni  Ni32  1  0.16675803  0.49983895  0.83382679  1
  Ni  Ni33  1  0.16641251  0.83457623  0.50127245  1
  Ni  Ni34  1  0.00172421  0.66797946  0.66768934  1
  Ni  Ni35  1  0.16800483  0.83539047  0.83400741  1
  Ni  Ni36  1  0.50127360  0.16956295  0.50174419  1
  Ni  Ni37  1  0.33365773  0.00170429  0.66888646  1
  Fe  Fe38  1  0.50126153  0.16733719  0.83464122  1
  Ni  Ni39  1  0.50133706  0.49946177  0.50130130  1
  Ni  Ni40  1  0.33464376  0.33483946  0.66730255  1
  Fe  Fe41  1  0.50208718  0.50097058  0.83371503  1
  Cr  Cr42  1  0.50181056  0.83492938  0.50105163  1
  Ni  Ni43  1  0.33366271  0.66724706  0.66851225  1
  Ni  Ni44  1  0.50224978  0.83557830  0.83419113  1
  Ni  Ni45  1  0.83458883  0.16829672  0.50099522  1
  Ni  Ni46  1  0.66860720  0.00215482  0.66844282  1
  Ni  Ni47  1  0.83479703  0.16836264  0.83503743  1
  Ni  Ni48  1  0.83478062  0.50098163  0.50127192  1
  Ni  Ni49  1  0.66787540  0.33464618  0.66758078  1
  Ni  Ni50  1  0.83498012  0.50115126  0.83500167  1
  Ni  Ni51  1  0.83592223  0.83451243  0.50167281  1
  Ni  Ni52  1  0.66840537  0.66699056  0.66863665  1
  Ni  Ni53  1  0.83353494  0.83427662  0.83461778  1
" 