1579,Ni87Fe13_9,-229.745349875059, 168.052899523946,Ni87Fe13,"# generated using pymatgen
 data_Fe23Ni4
_symmetry_space_group_name_H-M   'P 1'
_cell_length_a   7.39941729
_cell_length_b   7.39941729
_cell_length_c   10.46435629
_cell_angle_alpha   90.00000000
_cell_angle_beta   90.00000000
_cell_angle_gamma   90.00000000
_symmetry_Int_Tables_number   1
_chemical_formula_structural   Fe23Ni4
_chemical_formula_sum   'Fe46 Ni8'
_cell_volume   572.93790853
_cell_formula_units_Z   2
loop_
 _symmetry_equiv_pos_site_id
 _symmetry_equiv_pos_as_xyz
  1  'x, y, z'
loop_
 _atom_site_type_symbol
 _atom_site_label
 _atom_site_symmetry_multiplicity
 _atom_site_fract_x
 _atom_site_fract_y
 _atom_site_fract_z
 _atom_site_occupancy
  Fe  Fe0  1  1.00394800  0.00536909  1.00359219  1
  Fe  Fe1  1  0.17068125  0.17187757  0.17059290  1
  Fe  Fe2  1  1.00441545  1.00432434  0.33879385  1
  Fe  Fe3  1  1.00352272  0.33743751  0.00465823  1
  Fe  Fe4  1  0.17074374  0.50465787  0.17188024  1
  Fe  Fe5  1  1.00401677  0.33792924  0.33781600  1
  Fe  Fe6  1  1.00312821  0.67090301  0.00499299  1
  Fe  Fe7  1  0.17068111  0.83717435  0.17178983  1
  Fe  Fe8  1  1.00426187  0.67145738  0.33806233  1
  Fe  Fe9  1  0.33870250  0.00536923  1.00432647  1
  Fe  Fe10  1  0.50595225  0.17154111  0.17108009  1
  Fe  Fe11  1  0.33823515  1.00432443  0.33805957  1
  Fe  Fe12  1  0.33870103  0.33701495  1.00423548  1
  Fe  Fe13  1  0.50521628  0.50432345  0.17090203  1
  Fe  Fe14  1  0.33820857  0.33750662  0.33823937  1
  Fe  Fe15  1  0.33909743  0.67132555  1.00456991  1
  Fe  Fe16  1  0.50561973  0.83784528  0.17123570  1
  Fe  Fe17  1  0.33796432  0.67187934  0.33848495  1
  Ni  Ni18  1  0.67145025  0.00550016  1.00392474  1
  Fe  Fe19  1  0.83707617  0.17147841  0.17107930  1
  Ni  Ni20  1  0.67145022  1.00456971  0.33843525  1
  Ni  Ni21  1  0.67103891  0.33727996  0.00498178  1
  Ni  Ni22  1  0.83707872  0.50446133  0.17123493  1
  Fe  Fe23  1  0.67148271  0.33765757  0.33710569  1
  Fe  Fe24  1  0.67148356  0.67090299  0.00472504  1
  Fe  Fe25  1  0.83740971  0.83790917  0.17123560  1
  Fe  Fe26  1  0.67148287  0.67148264  0.33765831  1
  Fe  Fe27  1  0.17099008  0.17108019  0.50545877  1
  Ni  Ni28  1  0.00498258  1.00426387  0.67082410  1
  Ni  Ni29  1  0.17143307  0.17082386  0.83749026  1
  Ni  Ni30  1  0.17102323  0.50528875  0.50468360  1
  Fe  Fe31  1  0.00506068  0.33741103  0.67123587  1
  Fe  Fe32  1  0.17141208  0.50407865  0.83735024  1
  Ni  Ni33  1  0.17143502  0.83770436  0.50498119  1
  Fe  Fe34  1  0.00497218  0.67172759  0.67065641  1
  Fe  Fe35  1  0.17098918  0.83863866  0.83710426  1
  Fe  Fe36  1  0.50379679  0.17107998  0.50414845  1
  Fe  Fe37  1  0.33683329  1.00456953  0.67132380  1
  Fe  Fe38  1  0.50457181  0.17132621  0.83848172  1
  Fe  Fe39  1  0.50334787  0.50512223  0.50474900  1
  Fe  Fe40  1  0.33685769  0.33734916  0.67123479  1
  Fe  Fe41  1  0.50417417  0.50376856  0.83805988  1
  Fe  Fe42  1  0.50377084  0.83750797  0.50423673  1
  Fe  Fe43  1  0.33694618  0.67179135  0.67065679  1
  Fe  Fe44  1  0.50426224  0.83861511  0.83823672  1
  Fe  Fe45  1  0.83892362  0.17065823  0.50457123  1
  Fe  Fe46  1  0.67172817  1.00448242  0.67114608  1
  Fe  Fe47  1  0.83815162  0.17090321  0.83805814  1
  Fe  Fe48  1  0.83894819  0.50512199  0.50401451  1
  Fe  Fe49  1  0.67179234  0.33752538  0.67178982  1
  Fe  Fe50  1  0.83812345  0.50376860  0.83879402  1
  Fe  Fe51  1  0.83895153  0.83792968  0.50465917  1
  Fe  Fe52  1  0.67179234  0.67170214  0.67132721  1
  Fe  Fe53  1  0.83845898  0.83903776  0.83781315  1
" 