4520,Ni87Fe13_14,-229.663210213748, 163.772081857776,Ni87Fe13,"# generated using pymatgen
 data_Fe23Ni4
_symmetry_space_group_name_H-M   'P 1'
_cell_length_a   7.39812836
_cell_length_b   7.39812836
_cell_length_c   10.46253346
_cell_angle_alpha   90.00000000
_cell_angle_beta   90.00000000
_cell_angle_gamma   90.00000000
_symmetry_Int_Tables_number   1
_chemical_formula_structural   Fe23Ni4
_chemical_formula_sum   'Fe46 Ni8'
_cell_volume   572.63855315
_cell_formula_units_Z   2
loop_
 _symmetry_equiv_pos_site_id
 _symmetry_equiv_pos_as_xyz
  1  'x, y, z'
loop_
 _atom_site_type_symbol
 _atom_site_label
 _atom_site_symmetry_multiplicity
 _atom_site_fract_x
 _atom_site_fract_y
 _atom_site_fract_z
 _atom_site_occupancy
  Fe  Fe0  1  0.00465800  0.00465803  1.00465273  1
  Fe  Fe1  1  0.17132816  0.17133021  0.17132299  1
  Fe  Fe2  1  1.00465531  1.00465428  0.33799380  1
  Fe  Fe3  1  0.00465877  0.33798386  0.00466096  1
  Fe  Fe4  1  0.17132815  0.50465325  0.17132196  1
  Fe  Fe5  1  0.00465890  0.33799120  0.33799019  1
  Fe  Fe6  1  1.00465787  0.67133176  1.00465066  1
  Fe  Fe7  1  0.17132560  0.83799020  0.17131926  1
  Fe  Fe8  1  1.00465427  0.67132817  0.33799483  1
  Fe  Fe9  1  0.33799382  0.00466255  1.00464898  1
  Fe  Fe10  1  0.50465789  0.17132454  0.17131730  1
  Fe  Fe11  1  0.33798915  1.00465787  0.33799858  1
  Ni  Ni12  1  0.33798039  0.33800096  0.00465854  1
  Fe  Fe13  1  0.50465326  0.50465428  0.17132196  1
  Fe  Fe14  1  0.33799019  0.33799224  0.33798182  1
  Fe  Fe15  1  0.33799498  0.67132624  1.00465633  1
  Fe  Fe16  1  0.50466148  0.83799484  0.17132300  1
  Fe  Fe17  1  0.33799123  0.67132354  0.33799019  1
  Ni  Ni18  1  0.67133190  1.00464945  0.00466017  1
  Fe  Fe19  1  0.83798760  0.17132198  0.17132197  1
  Fe  Fe20  1  0.67132919  1.00465324  0.33799277  1
  Fe  Fe21  1  0.67131628  0.33798501  1.00465257  1
  Fe  Fe22  1  0.83799224  0.50465684  0.17132661  1
  Fe  Fe23  1  0.67132456  0.33799328  0.33799857  1
  Fe  Fe24  1  0.67132081  0.67132701  1.00465735  1
  Fe  Fe25  1  0.83798658  0.83799483  0.17132196  1
  Fe  Fe26  1  0.67132815  0.67132713  0.33799380  1
  Fe  Fe27  1  0.17132081  0.17131463  0.50465841  1
  Fe  Fe28  1  1.00464790  1.00465441  0.67132713  1
  Fe  Fe29  1  0.17132442  0.17131105  0.83799226  1
  Fe  Fe30  1  0.17131618  0.50466522  0.50465482  1
  Fe  Fe31  1  1.00465069  0.33797651  0.67132250  1
  Fe  Fe32  1  0.17131978  0.50466985  0.83799688  1
  Fe  Fe33  1  0.17132197  0.83799379  0.50466679  1
  Fe  Fe34  1  1.00464690  0.67134273  0.67132816  1
  Ni  Ni35  1  0.17131540  0.83799487  0.83798984  1
  Fe  Fe36  1  0.50466884  0.17131359  0.50466873  1
  Ni  Ni37  1  0.33799448  1.00464832  0.67132820  1
  Fe  Fe38  1  0.50466152  0.17130623  0.83798762  1
  Fe  Fe39  1  0.50466884  0.50466163  0.50465944  1
  Fe  Fe40  1  0.33800681  0.33797666  0.67133088  1
  Fe  Fe41  1  0.50465686  0.50466536  0.83799225  1
  Fe  Fe42  1  0.50466409  0.83799844  0.50466202  1
  Fe  Fe43  1  0.33800232  0.67133432  0.67132713  1
  Fe  Fe44  1  0.50466053  0.83800207  0.83798863  1
  Fe  Fe45  1  0.83798400  0.17131937  0.50466305  1
  Ni  Ni46  1  0.67132075  0.00466060  0.67131478  1
  Fe  Fe47  1  0.83798771  0.17130737  0.83798863  1
  Fe  Fe48  1  0.83798864  0.50466047  0.50465945  1
  Ni  Ni49  1  0.67133264  0.33798648  0.67132664  1
  Fe  Fe50  1  0.83799701  0.50466884  0.83798760  1
  Ni  Ni51  1  0.83798977  0.83799375  0.50465560  1
  Fe  Fe52  1  0.67132443  0.67133711  0.67132251  1
  Ni  Ni53  1  0.83799772  0.83799530  0.83799597  1
" 