1452,Ni87Fe6Cr5_5,-238.045626905355, 179.485151621141,Ni87Fe6Cr5,"# generated using pymatgen
 data_Cr4Fe3Ni47
_symmetry_space_group_name_H-M   'P 1'
_cell_length_a   7.45475444
_cell_length_b   7.45475444
_cell_length_c   10.54261484
_cell_angle_alpha   90.00000000
_cell_angle_beta   90.00000000
_cell_angle_gamma   90.00000000
_symmetry_Int_Tables_number   1
_chemical_formula_structural   Cr4Fe3Ni47
_chemical_formula_sum   'Cr4 Fe3 Ni47'
_cell_volume   585.88856998
_cell_formula_units_Z   1
loop_
 _symmetry_equiv_pos_site_id
 _symmetry_equiv_pos_as_xyz
  1  'x, y, z'
loop_
 _atom_site_type_symbol
 _atom_site_label
 _atom_site_symmetry_multiplicity
 _atom_site_fract_x
 _atom_site_fract_y
 _atom_site_fract_z
 _atom_site_occupancy
  Ni  Ni0  1  1.00003213  1.00055305  0.00109765  1
  Ni  Ni1  1  0.16771482  0.16747871  0.16780707  1
  Ni  Ni2  1  0.99942108  0.00106537  0.33310961  1
  Ni  Ni3  1  0.00109893  0.33375190  0.00085718  1
  Ni  Ni4  1  0.16679720  0.49982905  0.16708893  1
  Ni  Ni5  1  1.00071379  0.33426930  0.33415216  1
  Ni  Ni6  1  0.00152858  0.66816801  0.00128054  1
  Ni  Ni7  1  0.16514154  0.83516731  0.16678335  1
  Ni  Ni8  1  0.99913609  0.66713851  0.33289830  1
  Fe  Fe9  1  0.33240151  1.00077393  0.00088079  1
  Ni  Ni10  1  0.50060369  0.16925103  0.16842333  1
  Ni  Ni11  1  0.33449765  0.00362516  0.33362094  1
  Ni  Ni12  1  0.33380791  0.33604713  0.00233129  1
  Ni  Ni13  1  0.50150947  0.49804233  0.16640265  1
  Ni  Ni14  1  0.33449703  0.33299837  0.33408584  1
  Ni  Ni15  1  0.33355917  0.66605726  0.99962199  1
  Cr  Cr16  1  0.50144615  0.83497422  0.16646055  1
  Cr  Cr17  1  0.33329400  0.66563249  0.33415565  1
  Ni  Ni18  1  0.66967879  1.00080195  0.00085302  1
  Ni  Ni19  1  0.83415377  0.16759347  0.16727931  1
  Ni  Ni20  1  0.66855616  0.00205119  0.33513140  1
  Ni  Ni21  1  0.66756661  0.33454841  0.00190010  1
  Ni  Ni22  1  0.83416753  0.50062045  0.16784927  1
  Ni  Ni23  1  0.66726513  0.33328033  0.33360056  1
  Ni  Ni24  1  0.66738678  0.66712175  1.00045894  1
  Ni  Ni25  1  0.83593946  0.83425864  0.16807090  1
  Fe  Fe26  1  0.67006423  0.66666843  0.33513999  1
  Ni  Ni27  1  0.16739179  0.16915326  0.50076312  1
  Ni  Ni28  1  0.99982360  0.00157546  0.66826636  1
  Ni  Ni29  1  0.16570755  0.16729754  0.83390003  1
  Ni  Ni30  1  0.16722256  0.49783541  0.50165868  1
  Ni  Ni31  1  0.00111552  0.33399503  0.66746392  1
  Ni  Ni32  1  0.16760619  0.50102730  0.83372532  1
  Cr  Cr33  1  0.16696754  0.83528843  0.50148772  1
  Ni  Ni34  1  1.00049931  0.66690175  0.66829467  1
  Ni  Ni35  1  0.16772105  0.83414936  0.83421653  1
  Fe  Fe36  1  0.50111982  0.16773824  0.50035435  1
  Ni  Ni37  1  0.33427833  1.00027131  0.66757202  1
  Cr  Cr38  1  0.50115823  0.16762573  0.83409553  1
  Ni  Ni39  1  0.50166942  0.50042361  0.50172757  1
  Ni  Ni40  1  0.33323199  0.33554706  0.66605982  1
  Ni  Ni41  1  0.50079976  0.50286201  0.83434316  1
  Ni  Ni42  1  0.50325069  0.83467220  0.50209804  1
  Ni  Ni43  1  0.33515354  0.66665605  0.66869462  1
  Ni  Ni44  1  0.50068507  0.83231673  0.83371686  1
  Ni  Ni45  1  0.83439861  0.16756999  0.50103793  1
  Ni  Ni46  1  0.66837214  0.99965460  0.66649204  1
  Ni  Ni47  1  0.83590077  0.16741149  0.83415612  1
  Ni  Ni48  1  0.83358315  0.50040032  0.50067848  1
  Ni  Ni49  1  0.66812738  0.33487214  0.66697534  1
  Ni  Ni50  1  0.83406751  0.50084809  0.83394633  1
  Ni  Ni51  1  0.83180596  0.83450115  0.50049042  1
  Ni  Ni52  1  0.66682092  0.66794779  0.66705529  1
  Ni  Ni53  1  0.83406641  0.83421414  0.83391243  1
" 