4731,Ni87Fe13_15,-229.879535860573, 166.806777914279,Ni87Fe13,"# generated using pymatgen
 data_Fe23Ni4
_symmetry_space_group_name_H-M   'P 1'
_cell_length_a   7.40497547
_cell_length_b   7.40497547
_cell_length_c   10.47221673
_cell_angle_alpha   90.00000000
_cell_angle_beta   90.00000000
_cell_angle_gamma   90.00000000
_symmetry_Int_Tables_number   1
_chemical_formula_structural   Fe23Ni4
_chemical_formula_sum   'Fe46 Ni8'
_cell_volume   574.22998893
_cell_formula_units_Z   2
loop_
 _symmetry_equiv_pos_site_id
 _symmetry_equiv_pos_as_xyz
  1  'x, y, z'
loop_
 _atom_site_type_symbol
 _atom_site_label
 _atom_site_symmetry_multiplicity
 _atom_site_fract_x
 _atom_site_fract_y
 _atom_site_fract_z
 _atom_site_occupancy
  Fe  Fe0  1  0.00419640  0.00472613  1.00402123  1
  Ni  Ni1  1  0.17175589  0.17227843  0.17095672  1
  Fe  Fe2  1  0.00469390  1.00351166  0.33769995  1
  Ni  Ni3  1  1.00388323  0.33699242  1.00398513  1
  Fe  Fe4  1  0.17203217  0.50367038  0.17144754  1
  Fe  Fe5  1  0.00540684  0.33820929  0.33692814  1
  Fe  Fe6  1  1.00374824  0.67049595  1.00366349  1
  Fe  Fe7  1  0.17253118  0.83848152  0.17112670  1
  Fe  Fe8  1  0.00464186  0.67085597  0.33833195  1
  Fe  Fe9  1  0.33720037  0.00522617  0.00500078  1
  Ni  Ni10  1  0.50291858  0.17042367  0.17054206  1
  Fe  Fe11  1  0.33788359  1.00401671  0.33653185  1
  Fe  Fe12  1  0.33689189  0.33690674  0.00453603  1
  Fe  Fe13  1  0.50342296  0.50396612  0.17112741  1
  Fe  Fe14  1  0.33726215  0.33779651  0.33744568  1
  Fe  Fe15  1  0.33720192  0.67044580  0.00496776  1
  Ni  Ni16  1  0.50517860  0.83801454  0.17065030  1
  Ni  Ni17  1  0.33784147  0.67127972  0.33773249  1
  Fe  Fe18  1  0.67118092  0.00442598  0.00437202  1
  Fe  Fe19  1  0.83720342  0.17071644  0.17059616  1
  Fe  Fe20  1  0.66999708  1.00325014  0.33734519  1
  Fe  Fe21  1  0.67111518  0.33734281  0.00437272  1
  Fe  Fe22  1  0.83711455  0.50306278  0.17040791  1
  Fe  Fe23  1  0.66990419  0.33784231  0.33734181  1
  Fe  Fe24  1  0.67162849  0.67080271  1.00402114  1
  Fe  Fe25  1  0.83691682  0.83879444  0.17085901  1
  Fe  Fe26  1  0.67041889  0.67148276  0.33751395  1
  Fe  Fe27  1  0.17008445  0.17079308  0.50377556  1
  Fe  Fe28  1  1.00355650  1.00355280  0.67085746  1
  Fe  Fe29  1  0.16990810  0.17044249  0.83838552  1
  Ni  Ni30  1  0.17122176  0.50331319  0.50428934  1
  Fe  Fe31  1  0.00464330  0.33779268  0.67118406  1
  Fe  Fe32  1  0.17000024  0.50460477  0.83711138  1
  Fe  Fe33  1  0.17058310  0.83661955  0.50401258  1
  Fe  Fe34  1  1.00382530  0.67122087  0.67058233  1
  Fe  Fe35  1  0.17041321  0.83752267  0.83743572  1
  Fe  Fe36  1  0.50437068  0.17094369  0.50386684  1
  Fe  Fe37  1  0.33761485  0.00446317  0.67103882  1
  Fe  Fe38  1  0.50487256  0.17026641  0.83784791  1
  Fe  Fe39  1  0.50398070  0.50505303  0.50410267  1
  Fe  Fe40  1  0.33734636  0.33769438  0.67059288  1
  Fe  Fe41  1  0.50486759  0.50487510  0.83734491  1
  Fe  Fe42  1  0.50377359  0.83658093  0.50333192  1
  Fe  Fe43  1  0.33725481  0.67041060  0.66999448  1
  Fe  Fe44  1  0.50462906  0.83743195  0.83812663  1
  Fe  Fe45  1  0.83811844  0.17100398  0.50427326  1
  Fe  Fe46  1  0.67139600  1.00364484  0.67085519  1
  Fe  Fe47  1  0.83779147  0.17067397  0.83770072  1
  Fe  Fe48  1  0.83806911  0.50454594  0.50418843  1
  Fe  Fe49  1  0.67058726  0.33743500  0.67085689  1
  Fe  Fe50  1  0.83770235  0.50436468  0.83797475  1
  Ni  Ni51  1  0.83684633  0.83735453  0.50404358  1
  Fe  Fe52  1  0.67149066  0.67149276  0.67104019  1
  Ni  Ni53  1  0.83720870  0.83721210  0.83798813  1
" 