7119,Ni87Fe10Cr2_15,-240.160805090603, 189.563631477016,Ni87Fe10Cr2,"# generated using pymatgen
 data_Cr2Fe5Ni47
_symmetry_space_group_name_H-M   'P 1'
_cell_length_a   7.44233792
_cell_length_b   7.44233792
_cell_length_c   10.52505522
_cell_angle_alpha   90.00000000
_cell_angle_beta   90.00000000
_cell_angle_gamma   90.00000000
_symmetry_Int_Tables_number   1
_chemical_formula_structural   Cr2Fe5Ni47
_chemical_formula_sum   'Cr2 Fe5 Ni47'
_cell_volume   582.96590203
_cell_formula_units_Z   1
loop_
 _symmetry_equiv_pos_site_id
 _symmetry_equiv_pos_as_xyz
  1  'x, y, z'
loop_
 _atom_site_type_symbol
 _atom_site_label
 _atom_site_symmetry_multiplicity
 _atom_site_fract_x
 _atom_site_fract_y
 _atom_site_fract_z
 _atom_site_occupancy
  Ni  Ni0  1  1.00122121  0.00311025  1.00125639  1
  Ni  Ni1  1  0.16768314  0.16860322  0.16787833  1
  Ni  Ni2  1  1.00133879  1.00127735  0.33505106  1
  Ni  Ni3  1  1.00122114  0.33401609  0.00198336  1
  Ni  Ni4  1  0.16741469  0.50016484  0.16873656  1
  Ni  Ni5  1  1.00140479  0.33575186  0.33426974  1
  Cr  Cr6  1  0.00234752  0.66754740  0.00207745  1
  Fe  Fe7  1  0.16887766  0.83614297  0.16912431  1
  Ni  Ni8  1  1.00159890  0.66795106  0.33496404  1
  Ni  Ni9  1  0.33584278  1.00138342  0.00198510  1
  Ni  Ni10  1  0.50141150  0.16593247  0.16769612  1
  Ni  Ni11  1  0.33555183  1.00148850  0.33452337  1
  Ni  Ni12  1  0.33445350  0.33435503  1.00066413  1
  Cr  Cr13  1  0.50138285  0.50234093  0.16835669  1
  Ni  Ni14  1  0.33415985  0.33421298  0.33580238  1
  Ni  Ni15  1  0.33511215  0.66924428  1.00060009  1
  Ni  Ni16  1  0.50216052  0.83653492  0.16823916  1
  Ni  Ni17  1  0.33375246  0.66927896  0.33591416  1
  Ni  Ni18  1  0.66791398  0.00245196  0.00208745  1
  Ni  Ni19  1  0.83588606  0.16779409  0.16818476  1
  Ni  Ni20  1  0.66808932  0.00168491  0.33473032  1
  Ni  Ni21  1  0.66930310  0.33328071  1.00075538  1
  Ni  Ni22  1  0.83621480  0.50092057  0.16905013  1
  Ni  Ni23  1  0.66941574  0.33395125  0.33601446  1
  Fe  Fe24  1  0.66712859  0.66902226  1.00101647  1
  Ni  Ni25  1  0.83353503  0.83626572  0.16856948  1
  Ni  Ni26  1  0.66962740  0.66934432  0.33538264  1
  Ni  Ni27  1  0.16820791  0.16828838  0.50173822  1
  Fe  Fe28  1  0.00192208  0.00190814  0.66818507  1
  Ni  Ni29  1  0.16714016  0.16807018  0.83536137  1
  Ni  Ni30  1  0.16860670  0.50162074  0.50185611  1
  Ni  Ni31  1  1.00146958  0.33614349  0.66872753  1
  Ni  Ni32  1  0.16942806  0.50076736  0.83438910  1
  Ni  Ni33  1  0.16873040  0.83507348  0.50126199  1
  Ni  Ni34  1  0.00179861  0.66759783  0.66807717  1
  Ni  Ni35  1  0.17036620  0.83614718  0.83472130  1
  Ni  Ni36  1  0.50165792  0.16816187  0.50181427  1
  Ni  Ni37  1  0.33570996  1.00132244  0.66846959  1
  Fe  Fe38  1  0.50124238  0.16880890  0.83505461  1
  Ni  Ni39  1  0.50166493  0.50215233  0.50176324  1
  Ni  Ni40  1  0.33463493  0.33492628  0.66851370  1
  Ni  Ni41  1  0.50178384  0.50312296  0.83524024  1
  Ni  Ni42  1  0.50166508  0.83466596  0.50133661  1
  Ni  Ni43  1  0.33423229  0.66873332  0.66846681  1
  Ni  Ni44  1  0.50098042  0.83391972  0.83540742  1
  Ni  Ni45  1  0.83511519  0.16828715  0.50121845  1
  Ni  Ni46  1  0.66773986  1.00164796  0.66816024  1
  Ni  Ni47  1  0.83599344  0.16887546  0.83557376  1
  Ni  Ni48  1  0.83470871  0.50162767  0.50133625  1
  Ni  Ni49  1  0.66887426  0.33466487  0.66820843  1
  Ni  Ni50  1  0.83376441  0.49989321  0.83459641  1
  Ni  Ni51  1  0.83458615  0.83506773  0.50221830  1
  Ni  Ni52  1  0.66895199  0.66866864  0.66889186  1
  Fe  Fe53  1  0.83461935  0.83542854  0.83414253  1
" 