5974,Ni87Fe10Cr2_4,-240.254943247796, 189.295460675206,Ni87Fe10Cr2,"# generated using pymatgen
 data_Cr2Fe5Ni47
_symmetry_space_group_name_H-M   'P 1'
_cell_length_a   7.44318330
_cell_length_b   7.44318330
_cell_length_c   10.52625077
_cell_angle_alpha   90.00000000
_cell_angle_beta   90.00000000
_cell_angle_gamma   90.00000000
_symmetry_Int_Tables_number   1
_chemical_formula_structural   Cr2Fe5Ni47
_chemical_formula_sum   'Cr2 Fe5 Ni47'
_cell_volume   583.16458395
_cell_formula_units_Z   1
loop_
 _symmetry_equiv_pos_site_id
 _symmetry_equiv_pos_as_xyz
  1  'x, y, z'
loop_
 _atom_site_type_symbol
 _atom_site_label
 _atom_site_symmetry_multiplicity
 _atom_site_fract_x
 _atom_site_fract_y
 _atom_site_fract_z
 _atom_site_occupancy
  Ni  Ni0  1  0.00213701  0.00211823  1.00131762  1
  Ni  Ni1  1  0.16791717  0.16786706  0.16781918  1
  Ni  Ni2  1  1.00135376  0.99971681  0.33283631  1
  Ni  Ni3  1  1.00076941  0.33515689  0.00179885  1
  Ni  Ni4  1  0.16845322  0.50194153  0.16831647  1
  Ni  Ni5  1  0.00169208  0.33708886  0.33283705  1
  Ni  Ni6  1  0.00221047  0.66746739  1.00139419  1
  Ni  Ni7  1  0.16880934  0.83491805  0.16956394  1
  Ni  Ni8  1  1.00124734  0.66768969  0.33546835  1
  Ni  Ni9  1  0.33519917  1.00124562  1.00139344  1
  Ni  Ni10  1  0.50183569  0.16784082  0.16941872  1
  Ni  Ni11  1  0.33623200  1.00079786  0.33475640  1
  Fe  Fe12  1  0.33537972  0.33470536  1.00130905  1
  Ni  Ni13  1  0.50181332  0.50253400  0.16808953  1
  Ni  Ni14  1  0.33581176  0.33602850  0.33324843  1
  Ni  Ni15  1  0.33466666  0.66896520  1.00138954  1
  Ni  Ni16  1  0.50146244  0.83441110  0.16816646  1
  Ni  Ni17  1  0.33517465  0.66786051  0.33533004  1
  Ni  Ni18  1  0.66748348  0.00259956  0.00169388  1
  Ni  Ni19  1  0.83507649  0.16823539  0.16868885  1
  Ni  Ni20  1  0.66721078  1.00055289  0.33371796  1
  Ni  Ni21  1  0.66890777  0.33462960  1.00104778  1
  Ni  Ni22  1  0.83455678  0.50163774  0.16920600  1
  Ni  Ni23  1  0.66729667  0.33627029  0.33507335  1
  Ni  Ni24  1  0.66794345  0.66753745  0.00178927  1
  Ni  Ni25  1  0.83454589  0.83495023  0.16766792  1
  Ni  Ni26  1  0.66823843  0.66821509  0.33444214  1
  Cr  Cr27  1  0.16873349  0.16850890  0.50141716  1
  Ni  Ni28  1  1.00111709  1.00037347  0.67064004  1
  Ni  Ni29  1  0.16762606  0.16770041  0.83516983  1
  Ni  Ni30  1  0.16887353  0.50173410  0.50181955  1
  Ni  Ni31  1  0.00238394  0.33685432  0.67007001  1
  Ni  Ni32  1  0.16809600  0.50213692  0.83467903  1
  Fe  Fe33  1  0.16758648  0.83258501  0.50189468  1
  Ni  Ni34  1  1.00116842  0.66713048  0.66809569  1
  Ni  Ni35  1  0.16962665  0.83492869  0.83336168  1
  Fe  Fe36  1  0.50197156  0.16908991  0.50137450  1
  Ni  Ni37  1  0.33653584  1.00118006  0.66847761  1
  Ni  Ni38  1  0.50189136  0.16727118  0.83349463  1
  Ni  Ni39  1  0.50119563  0.50377854  0.50198326  1
  Ni  Ni40  1  0.33515812  0.33583954  0.67003604  1
  Ni  Ni41  1  0.50181686  0.50316314  0.83486056  1
  Ni  Ni42  1  0.50218616  0.83414449  0.50141063  1
  Ni  Ni43  1  0.33546020  0.66772662  0.66812456  1
  Ni  Ni44  1  0.50094396  0.83447288  0.83521007  1
  Cr  Cr45  1  0.83511325  0.16817256  0.50117632  1
  Ni  Ni46  1  0.66707456  1.00016025  0.66938394  1
  Ni  Ni47  1  0.83533630  0.16851237  0.83466652  1
  Ni  Ni48  1  0.83470306  0.50343998  0.50153502  1
  Fe  Fe49  1  0.66772577  0.33648269  0.66934828  1
  Ni  Ni50  1  0.83488898  0.50105694  0.83416909  1
  Ni  Ni51  1  0.83308749  0.83397362  0.50218092  1
  Ni  Ni52  1  0.66805270  0.66884341  0.66874326  1
  Fe  Fe53  1  0.83478887  0.83432510  0.83546367  1
" 