8894,Ni87Fe6Cr5_10,-237.921891445714, 179.197085352816,Ni87Fe6Cr5,"# generated using pymatgen
 data_Cr4Fe3Ni47
_symmetry_space_group_name_H-M   'P 1'
_cell_length_a   7.45383134
_cell_length_b   7.45383134
_cell_length_c   10.54130937
_cell_angle_alpha   90.00000000
_cell_angle_beta   90.00000000
_cell_angle_gamma   90.00000000
_symmetry_Int_Tables_number   1
_chemical_formula_structural   Cr4Fe3Ni47
_chemical_formula_sum   'Cr4 Fe3 Ni47'
_cell_volume   585.67094975
_cell_formula_units_Z   1
loop_
 _symmetry_equiv_pos_site_id
 _symmetry_equiv_pos_as_xyz
  1  'x, y, z'
loop_
 _atom_site_type_symbol
 _atom_site_label
 _atom_site_symmetry_multiplicity
 _atom_site_fract_x
 _atom_site_fract_y
 _atom_site_fract_z
 _atom_site_occupancy
  Ni  Ni0  1  1.00082124  0.00114540  0.00095384  1
  Ni  Ni1  1  0.16733811  0.16664581  0.16798039  1
  Ni  Ni2  1  0.99980773  0.00388360  0.33354376  1
  Ni  Ni3  1  0.00099399  0.33427185  1.00078008  1
  Ni  Ni4  1  0.16818739  0.50094480  0.16713048  1
  Ni  Ni5  1  0.00182958  0.33257312  0.33454557  1
  Ni  Ni6  1  0.00100640  0.66724257  1.00063888  1
  Ni  Ni7  1  0.16899816  0.83506912  0.16655518  1
  Cr  Cr8  1  1.00018562  0.66610412  0.33357008  1
  Ni  Ni9  1  0.33358832  1.00003730  0.00168371  1
  Ni  Ni10  1  0.50116364  0.16699994  0.16761146  1
  Ni  Ni11  1  0.33548288  0.00212769  0.33359500  1
  Ni  Ni12  1  0.33334032  0.33530607  0.00147594  1
  Ni  Ni13  1  0.50116506  0.50144152  0.16748290  1
  Ni  Ni14  1  0.33345774  0.33432847  0.33466487  1
  Ni  Ni15  1  0.33443684  0.66731688  0.00120294  1
  Ni  Ni16  1  0.49999976  0.83421826  0.16819799  1
  Ni  Ni17  1  0.33705341  0.66620380  0.33322750  1
  Ni  Ni18  1  0.66824997  1.00004897  0.00156020  1
  Ni  Ni19  1  0.83415741  0.16780986  0.16772433  1
  Ni  Ni20  1  0.66736994  1.00028816  0.33451458  1
  Ni  Ni21  1  0.66832509  0.33512125  0.00208708  1
  Ni  Ni22  1  0.83330697  0.49978120  0.16687547  1
  Fe  Fe23  1  0.66725869  0.33391598  0.33421449  1
  Ni  Ni24  1  0.66721540  0.66748917  1.00052615  1
  Fe  Fe25  1  0.83331883  0.83508295  0.16684293  1
  Ni  Ni26  1  0.66561431  0.66822705  0.33470052  1
  Ni  Ni27  1  0.16800690  0.16858452  0.50093764  1
  Ni  Ni28  1  0.99974317  0.00205151  0.66816239  1
  Ni  Ni29  1  0.16609552  0.16688634  0.83374167  1
  Ni  Ni30  1  0.16782183  0.49820686  0.50075168  1
  Ni  Ni31  1  0.00102519  0.33409093  0.66733411  1
  Ni  Ni32  1  0.16662592  0.50088382  0.83477780  1
  Cr  Cr33  1  0.16694865  0.83568593  0.50092886  1
  Ni  Ni34  1  0.99817272  0.66651688  0.66829189  1
  Ni  Ni35  1  0.16662739  0.83488926  0.83514356  1
  Ni  Ni36  1  0.50089250  0.16798643  0.50087881  1
  Ni  Ni37  1  0.33429190  0.00284687  0.66738067  1
  Cr  Cr38  1  0.50100639  0.16776728  0.83454287  1
  Ni  Ni39  1  0.50192868  0.49965532  0.49997213  1
  Ni  Ni40  1  0.33308028  0.33336863  0.66651919  1
  Ni  Ni41  1  0.50184988  0.50202310  0.83520413  1
  Fe  Fe42  1  0.50357932  0.83508916  0.49992369  1
  Cr  Cr43  1  0.33502576  0.66641287  0.66837339  1
  Ni  Ni44  1  0.50141835  0.83332293  0.83431754  1
  Ni  Ni45  1  0.83376065  0.16718069  0.50101154  1
  Ni  Ni46  1  0.66862578  0.99999200  0.66658555  1
  Ni  Ni47  1  0.83575165  0.16731803  0.83392348  1
  Ni  Ni48  1  0.83291013  0.50064810  0.50209748  1
  Ni  Ni49  1  0.66855403  0.33493960  0.66629873  1
  Ni  Ni50  1  0.83418340  0.50148884  0.83368578  1
  Ni  Ni51  1  0.83231106  0.83483117  0.50156846  1
  Ni  Ni52  1  0.66934855  0.66772819  0.66743283  1
  Ni  Ni53  1  0.83461481  0.83385309  0.83420106  1
" 