5932,Ni87Fe9Cr3_5,-239.163439461982, 184.999338600639,Ni87Fe9Cr3,"# generated using pymatgen
 data_Cr3Fe4Ni47
_symmetry_space_group_name_H-M   'P 1'
_cell_length_a   7.45040739
_cell_length_b   7.45040739
_cell_length_c   10.53646717
_cell_angle_alpha   90.00000000
_cell_angle_beta   90.00000000
_cell_angle_gamma   90.00000000
_symmetry_Int_Tables_number   1
_chemical_formula_structural   Cr3Fe4Ni47
_chemical_formula_sum   'Cr3 Fe4 Ni47'
_cell_volume   584.86422782
_cell_formula_units_Z   1
loop_
 _symmetry_equiv_pos_site_id
 _symmetry_equiv_pos_as_xyz
  1  'x, y, z'
loop_
 _atom_site_type_symbol
 _atom_site_label
 _atom_site_symmetry_multiplicity
 _atom_site_fract_x
 _atom_site_fract_y
 _atom_site_fract_z
 _atom_site_occupancy
  Ni  Ni0  1  0.00112317  0.00148569  0.00135014  1
  Ni  Ni1  1  0.16768576  0.16790709  0.16817717  1
  Ni  Ni2  1  0.00255226  1.00091531  0.33403200  1
  Ni  Ni3  1  1.00029882  0.33302335  0.00194152  1
  Ni  Ni4  1  0.16775053  0.50090146  0.16836311  1
  Ni  Ni5  1  1.00102769  0.33454472  0.33426283  1
  Fe  Fe6  1  1.00027963  0.66867886  0.00201377  1
  Ni  Ni7  1  0.16622892  0.83454165  0.16823757  1
  Ni  Ni8  1  1.00102766  0.66789035  0.33358399  1
  Ni  Ni9  1  0.33325132  0.00147494  1.00034382  1
  Ni  Ni10  1  0.49990370  0.17025649  0.16734495  1
  Ni  Ni11  1  0.33202962  0.00168292  0.33480136  1
  Ni  Ni12  1  0.33508186  0.33404406  0.00217322  1
  Ni  Ni13  1  0.50072969  0.49944497  0.16820438  1
  Ni  Ni14  1  0.33456158  0.33478322  0.33379364  1
  Ni  Ni15  1  0.33509511  0.66783229  0.00116744  1
  Cr  Cr16  1  0.50037772  0.83401590  0.16746071  1
  Ni  Ni17  1  0.33379301  0.66688497  0.33503751  1
  Ni  Ni18  1  0.66897614  0.00147590  1.00021779  1
  Ni  Ni19  1  0.83575991  0.16873217  0.16738081  1
  Cr  Cr20  1  0.66873066  0.00175587  0.33468019  1
  Ni  Ni21  1  0.66796913  0.33486806  0.00135001  1
  Ni  Ni22  1  0.83487000  0.50090151  0.16826549  1
  Ni  Ni23  1  0.66776069  0.33630766  0.33395614  1
  Ni  Ni24  1  0.66795794  0.66700722  1.00034362  1
  Ni  Ni25  1  0.83722075  0.83371552  0.16744053  1
  Ni  Ni26  1  0.66852858  0.66536010  0.33520014  1
  Fe  Fe27  1  0.16777921  0.16778878  0.50112051  1
  Ni  Ni28  1  1.00090330  0.00114477  0.66796979  1
  Ni  Ni29  1  0.16785857  0.16608981  0.83410686  1
  Fe  Fe30  1  0.16777663  0.50111330  0.50083273  1
  Ni  Ni31  1  1.00008046  0.33359924  0.66714763  1
  Cr  Cr32  1  0.16779214  0.50079466  0.83428398  1
  Fe  Fe33  1  0.16783806  0.83444806  0.50105892  1
  Ni  Ni34  1  1.00008062  0.66860666  0.66759557  1
  Ni  Ni35  1  0.16810599  0.83618551  0.83422713  1
  Ni  Ni36  1  0.50006453  0.16837630  0.50170719  1
  Ni  Ni37  1  0.33445489  1.00090765  0.66820668  1
  Ni  Ni38  1  0.50085376  0.16742802  0.83429696  1
  Ni  Ni39  1  0.50088909  0.50134604  0.50088401  1
  Ni  Ni40  1  0.33527955  0.33383686  0.66738397  1
  Ni  Ni41  1  0.50237232  0.50132132  0.83426172  1
  Ni  Ni42  1  0.50006418  0.83362794  0.50206408  1
  Ni  Ni43  1  0.33551506  0.66860525  0.66714810  1
  Ni  Ni44  1  0.50085346  0.83460100  0.83390482  1
  Ni  Ni45  1  0.83545105  0.16855719  0.50188896  1
  Ni  Ni46  1  0.66799125  1.00090719  0.66816936  1
  Ni  Ni47  1  0.83463757  0.16761027  0.83407956  1
  Ni  Ni48  1  0.83463151  0.50116916  0.50106611  1
  Ni  Ni49  1  0.66798984  0.33465972  0.66804401  1
  Ni  Ni50  1  0.83305042  0.50107360  0.83401697  1
  Ni  Ni51  1  0.83527387  0.83362341  0.50170704  1
  Ni  Ni52  1  0.66775334  0.66778327  0.66780700  1
  Ni  Ni53  1  0.83439098  0.83466632  0.83420004  1
" 