4262,Ni87Fe6Cr5_2,-238.065863820644, 179.77890409625,Ni87Fe6Cr5,"# generated using pymatgen
 data_Cr4Fe3Ni47
_symmetry_space_group_name_H-M   'P 1'
_cell_length_a   7.45536505
_cell_length_b   7.45536505
_cell_length_c   10.54347836
_cell_angle_alpha   90.00000000
_cell_angle_beta   90.00000000
_cell_angle_gamma   90.00000000
_symmetry_Int_Tables_number   1
_chemical_formula_structural   Cr4Fe3Ni47
_chemical_formula_sum   'Cr4 Fe3 Ni47'
_cell_volume   586.03254860
_cell_formula_units_Z   1
loop_
 _symmetry_equiv_pos_site_id
 _symmetry_equiv_pos_as_xyz
  1  'x, y, z'
loop_
 _atom_site_type_symbol
 _atom_site_label
 _atom_site_symmetry_multiplicity
 _atom_site_fract_x
 _atom_site_fract_y
 _atom_site_fract_z
 _atom_site_occupancy
  Ni  Ni0  1  0.99937700  0.00100515  1.00014111  1
  Ni  Ni1  1  0.16630749  0.16840125  0.16837920  1
  Ni  Ni2  1  0.00197658  0.00096559  0.33422114  1
  Ni  Ni3  1  1.00042128  0.33410318  0.00141701  1
  Ni  Ni4  1  0.16570516  0.50048174  0.16715311  1
  Ni  Ni5  1  0.99976866  0.33364427  0.33398237  1
  Ni  Ni6  1  0.00179701  0.66726969  0.00133886  1
  Ni  Ni7  1  0.16589559  0.83338924  0.16711272  1
  Ni  Ni8  1  1.00016802  0.66772900  0.33373592  1
  Cr  Cr9  1  0.33391697  1.00052612  0.00108290  1
  Ni  Ni10  1  0.50160096  0.16658684  0.16801068  1
  Ni  Ni11  1  0.33321420  1.00069667  0.33396477  1
  Ni  Ni12  1  0.33314123  0.33404209  1.00011762  1
  Cr  Cr13  1  0.49888657  0.49951990  0.16757243  1
  Ni  Ni14  1  0.33355673  0.33245138  0.33509955  1
  Ni  Ni15  1  0.33174788  0.66695267  0.99970798  1
  Ni  Ni16  1  0.50112825  0.83607734  0.16920544  1
  Ni  Ni17  1  0.33339448  0.66923220  0.33487313  1
  Ni  Ni18  1  0.66894811  0.00234277  0.00143137  1
  Ni  Ni19  1  0.83460075  0.16684869  0.16608438  1
  Fe  Fe20  1  0.66821877  0.00129416  0.33434724  1
  Ni  Ni21  1  0.66875859  0.33191555  0.99963606  1
  Ni  Ni22  1  0.83712406  0.49996381  0.16819191  1
  Ni  Ni23  1  0.66904420  0.33410006  0.33482028  1
  Cr  Cr24  1  0.66876333  0.66735567  1.00062200  1
  Ni  Ni25  1  0.83538173  0.83554042  0.16839402  1
  Ni  Ni26  1  0.66875819  0.66728591  0.33526797  1
  Ni  Ni27  1  0.16616549  0.16844898  0.49988841  1
  Ni  Ni28  1  0.99927789  0.00103573  0.66781239  1
  Ni  Ni29  1  0.16561858  0.17038334  0.83401810  1
  Ni  Ni30  1  0.16742292  0.50059980  0.50070311  1
  Ni  Ni31  1  1.00049488  0.33427932  0.66689169  1
  Ni  Ni32  1  0.16697926  0.49923832  0.83450912  1
  Ni  Ni33  1  0.16589276  0.83323187  0.50095676  1
  Ni  Ni34  1  1.00009554  0.66704953  0.66719630  1
  Fe  Fe35  1  0.16596693  0.83155242  0.83382812  1
  Ni  Ni36  1  0.50165787  0.16839523  0.49991858  1
  Cr  Cr37  1  0.33350794  0.00127404  0.66680705  1
  Ni  Ni38  1  0.50155806  0.16886840  0.83448177  1
  Ni  Ni39  1  0.50052062  0.50075539  0.50190397  1
  Ni  Ni40  1  0.33414503  0.33518363  0.66714392  1
  Ni  Ni41  1  0.49948267  0.49967011  0.83296053  1
  Ni  Ni42  1  0.50207538  0.83324701  0.49995808  1
  Ni  Ni43  1  0.33456688  0.66592129  0.66766092  1
  Ni  Ni44  1  0.50380672  0.83367915  0.83336426  1
  Ni  Ni45  1  0.83459812  0.16697951  0.50212761  1
  Ni  Ni46  1  0.66859637  1.00075418  0.66707796  1
  Fe  Fe47  1  0.83364522  0.16835388  0.83385301  1
  Ni  Ni48  1  0.83442865  0.50107446  0.50087483  1
  Ni  Ni49  1  0.66760116  0.33477141  0.66776146  1
  Ni  Ni50  1  0.83585362  0.50140747  0.83341461  1
  Ni  Ni51  1  0.83439141  0.83430385  0.50095601  1
  Ni  Ni52  1  0.66774475  0.66698610  0.66705621  1
  Ni  Ni53  1  0.83461250  0.83514323  0.83327307  1
" 