333,Ni87Fe10Cr2_13,-240.122847910897, 188.744488247239,Ni87Fe10Cr2,"# generated using pymatgen
 data_Cr2Fe5Ni47
_symmetry_space_group_name_H-M   'P 1'
_cell_length_a   7.44284010
_cell_length_b   7.44284010
_cell_length_c   10.52576541
_cell_angle_alpha   90.00000000
_cell_angle_beta   90.00000000
_cell_angle_gamma   90.00000000
_symmetry_Int_Tables_number   1
_chemical_formula_structural   Cr2Fe5Ni47
_chemical_formula_sum   'Cr2 Fe5 Ni47'
_cell_volume   583.08391866
_cell_formula_units_Z   1
loop_
 _symmetry_equiv_pos_site_id
 _symmetry_equiv_pos_as_xyz
  1  'x, y, z'
loop_
 _atom_site_type_symbol
 _atom_site_label
 _atom_site_symmetry_multiplicity
 _atom_site_fract_x
 _atom_site_fract_y
 _atom_site_fract_z
 _atom_site_occupancy
  Ni  Ni0  1  1.00045600  0.00220371  0.00166655  1
  Ni  Ni1  1  0.16819967  0.16794522  0.16814374  1
  Ni  Ni2  1  1.00084492  0.00196710  0.33493381  1
  Ni  Ni3  1  0.00284374  0.33441153  1.00074817  1
  Ni  Ni4  1  0.16980140  0.50208983  0.16839046  1
  Ni  Ni5  1  0.00242879  0.33423181  0.33599857  1
  Ni  Ni6  1  1.00158129  0.66826590  1.00105779  1
  Ni  Ni7  1  0.16845966  0.83484375  0.16812908  1
  Ni  Ni8  1  0.00377109  0.66867972  0.33574197  1
  Ni  Ni9  1  0.33597690  0.00214113  1.00136209  1
  Ni  Ni10  1  0.50165225  0.16763147  0.16818826  1
  Ni  Ni11  1  0.33549002  0.00197316  0.33518088  1
  Ni  Ni12  1  0.33459544  0.33547473  0.00176587  1
  Ni  Ni13  1  0.49899249  0.50134334  0.16712288  1
  Ni  Ni14  1  0.33497824  0.33529852  0.33493360  1
  Ni  Ni15  1  0.33591591  0.66726225  0.00206592  1
  Ni  Ni16  1  0.50064639  0.83590212  0.16758371  1
  Ni  Ni17  1  0.33362886  0.66760655  0.33467616  1
  Ni  Ni18  1  0.66844440  1.00088010  0.00232445  1
  Ni  Ni19  1  0.83502628  0.16628703  0.16844716  1
  Ni  Ni20  1  0.66854402  0.00331819  0.33467609  1
  Fe  Fe21  1  0.66744717  0.33417355  1.00115266  1
  Cr  Cr22  1  0.83614016  0.50090388  0.16768155  1
  Ni  Ni23  1  0.66747060  0.33237472  0.33574111  1
  Ni  Ni24  1  0.66738208  0.66964990  1.00040916  1
  Ni  Ni25  1  0.83577277  0.83750118  0.16710975  1
  Cr  Cr26  1  0.66745265  0.66958355  0.33606673  1
  Ni  Ni27  1  0.16802430  0.16812130  0.50173366  1
  Ni  Ni28  1  1.00048615  0.00199083  0.66827766  1
  Ni  Ni29  1  0.16781087  0.16847072  0.83500085  1
  Ni  Ni30  1  0.16782716  0.50205799  0.50124244  1
  Ni  Ni31  1  0.00181441  0.33544226  0.66813363  1
  Ni  Ni32  1  0.16761386  0.50146474  0.83524554  1
  Ni  Ni33  1  0.16828287  0.83469927  0.50170272  1
  Ni  Ni34  1  1.00135641  0.66744570  0.66807933  1
  Fe  Fe35  1  0.16882058  0.83491080  0.83490402  1
  Ni  Ni36  1  0.50179478  0.16780676  0.50164107  1
  Ni  Ni37  1  0.33619041  0.00192898  0.66833542  1
  Ni  Ni38  1  0.50145874  0.16728890  0.83504874  1
  Ni  Ni39  1  0.50086700  0.50124725  0.50245076  1
  Ni  Ni40  1  0.33480475  0.33544463  0.66817889  1
  Ni  Ni41  1  0.50159268  0.50258418  0.83530462  1
  Ni  Ni42  1  0.50072585  0.83582309  0.50219143  1
  Ni  Ni43  1  0.33532103  0.66750500  0.66813614  1
  Ni  Ni44  1  0.50151088  0.83500460  0.83510310  1
  Ni  Ni45  1  0.83506016  0.16826238  0.50118467  1
  Ni  Ni46  1  0.66820099  1.00147027  0.66787729  1
  Ni  Ni47  1  0.83560969  0.16855548  0.83524740  1
  Ni  Ni48  1  0.83618468  0.50098895  0.50256995  1
  Fe  Fe49  1  0.66834349  0.33449938  0.66781885  1
  Ni  Ni50  1  0.83567278  0.50151828  0.83492682  1
  Ni  Ni51  1  0.83587009  0.83562597  0.50246769  1
  Fe  Fe52  1  0.66803214  0.66855606  0.66843479  1
  Fe  Fe53  1  0.83459636  0.83515862  0.83528069  1
" 