2866,Ni87Fe6Cr5_8,-238.057988427318, 179.237523678528,Ni87Fe6Cr5,"# generated using pymatgen
 data_Cr4Fe3Ni47
_symmetry_space_group_name_H-M   'P 1'
_cell_length_a   7.45414070
_cell_length_b   7.45414070
_cell_length_c   10.54174687
_cell_angle_alpha   90.00000000
_cell_angle_beta   90.00000000
_cell_angle_gamma   90.00000000
_symmetry_Int_Tables_number   1
_chemical_formula_structural   Cr4Fe3Ni47
_chemical_formula_sum   'Cr4 Fe3 Ni47'
_cell_volume   585.74387442
_cell_formula_units_Z   1
loop_
 _symmetry_equiv_pos_site_id
 _symmetry_equiv_pos_as_xyz
  1  'x, y, z'
loop_
 _atom_site_type_symbol
 _atom_site_label
 _atom_site_symmetry_multiplicity
 _atom_site_fract_x
 _atom_site_fract_y
 _atom_site_fract_z
 _atom_site_occupancy
  Ni  Ni0  1  0.00165866  0.00218839  0.99988915  1
  Ni  Ni1  1  0.16863742  0.16655776  0.16797782  1
  Ni  Ni2  1  0.00172769  0.00283235  0.33540224  1
  Ni  Ni3  1  0.00112900  0.33429389  0.00185265  1
  Ni  Ni4  1  0.17007280  0.50000960  0.16660705  1
  Ni  Ni5  1  0.00218440  0.33172202  0.33292080  1
  Ni  Ni6  1  0.00212082  0.66611336  0.99934479  1
  Ni  Ni7  1  0.16976135  0.83579972  0.16602904  1
  Cr  Cr8  1  0.00370590  0.66603833  0.33357800  1
  Ni  Ni9  1  0.33417098  0.00117746  1.00042866  1
  Ni  Ni10  1  0.50031860  0.16853454  0.16654241  1
  Ni  Ni11  1  0.33484776  0.00097202  0.33416659  1
  Ni  Ni12  1  0.33398383  0.33433892  1.00060561  1
  Ni  Ni13  1  0.50065993  0.50002334  0.16781386  1
  Ni  Ni14  1  0.33433995  0.33404901  0.33422298  1
  Ni  Ni15  1  0.33391985  0.66715465  0.00126579  1
  Fe  Fe16  1  0.49960758  0.83473299  0.16637954  1
  Ni  Ni17  1  0.33597520  0.66781406  0.33406660  1
  Ni  Ni18  1  0.66660414  0.00223854  0.99964489  1
  Ni  Ni19  1  0.83344955  0.16818535  0.16826083  1
  Ni  Ni20  1  0.66576038  0.00203047  0.33512842  1
  Ni  Ni21  1  0.66740891  0.33396198  1.00051224  1
  Ni  Ni22  1  0.83183159  0.49898977  0.16632637  1
  Ni  Ni23  1  0.66613537  0.33292570  0.33332265  1
  Ni  Ni24  1  0.66644912  0.66649750  0.99977676  1
  Cr  Cr25  1  0.83424606  0.83560669  0.16600239  1
  Ni  Ni26  1  0.66404362  0.66801635  0.33444488  1
  Ni  Ni27  1  0.16874350  0.16674125  0.50058397  1
  Ni  Ni28  1  0.00196929  0.00123474  0.66725839  1
  Ni  Ni29  1  0.16746983  0.16717083  0.83406005  1
  Ni  Ni30  1  0.17129539  0.50012295  0.50185091  1
  Ni  Ni31  1  0.00190530  0.33328897  0.66783042  1
  Ni  Ni32  1  0.16882839  0.50043547  0.83395512  1
  Ni  Ni33  1  0.16816247  0.83558241  0.50212550  1
  Ni  Ni34  1  0.00207646  0.66806127  0.66914697  1
  Ni  Ni35  1  0.16818943  0.83503472  0.83435921  1
  Ni  Ni36  1  0.49943505  0.16964208  0.50100742  1
  Ni  Ni37  1  0.33261483  0.00109837  0.66807759  1
  Fe  Fe38  1  0.49940760  0.16841564  0.83511201  1
  Ni  Ni39  1  0.49922533  0.50010594  0.50100370  1
  Ni  Ni40  1  0.33401316  0.33417433  0.66769849  1
  Ni  Ni41  1  0.50056854  0.50125350  0.83372223  1
  Fe  Fe42  1  0.49937623  0.83419308  0.50122195  1
  Ni  Ni43  1  0.33392057  0.66740391  0.66735333  1
  Ni  Ni44  1  0.49947193  0.83228556  0.83543226  1
  Ni  Ni45  1  0.83432739  0.16619884  0.49930595  1
  Cr  Cr46  1  0.66713384  0.00170652  0.66834244  1
  Ni  Ni47  1  0.83588146  0.16826024  0.83523316  1
  Cr  Cr48  1  0.83230122  0.49986916  0.50178619  1
  Ni  Ni49  1  0.66663624  0.33445756  0.66875598  1
  Ni  Ni50  1  0.83320087  0.50055852  0.83441496  1
  Ni  Ni51  1  0.83471131  0.83561629  0.50142143  1
  Ni  Ni52  1  0.66647030  0.66714155  0.66840238  1
  Ni  Ni53  1  0.83466434  0.83389229  0.83477575  1
" 