3416,Ni87Fe10Cr2_1,-240.203673349612, 189.497675357517,Ni87Fe10Cr2,"# generated using pymatgen
 data_Cr2Fe5Ni47
_symmetry_space_group_name_H-M   'P 1'
_cell_length_a   7.44243361
_cell_length_b   7.44243361
_cell_length_c   10.52519055
_cell_angle_alpha   90.00000000
_cell_angle_beta   90.00000000
_cell_angle_gamma   90.00000000
_symmetry_Int_Tables_number   1
_chemical_formula_structural   Cr2Fe5Ni47
_chemical_formula_sum   'Cr2 Fe5 Ni47'
_cell_volume   582.98838990
_cell_formula_units_Z   1
loop_
 _symmetry_equiv_pos_site_id
 _symmetry_equiv_pos_as_xyz
  1  'x, y, z'
loop_
 _atom_site_type_symbol
 _atom_site_label
 _atom_site_symmetry_multiplicity
 _atom_site_fract_x
 _atom_site_fract_y
 _atom_site_fract_z
 _atom_site_occupancy
  Ni  Ni0  1  0.00315814  1.00151098  0.00276046  1
  Ni  Ni1  1  0.16838976  0.16849156  0.16813416  1
  Ni  Ni2  1  0.00224622  0.00241494  0.33467666  1
  Ni  Ni3  1  0.00189677  0.33571135  0.00203179  1
  Ni  Ni4  1  0.16847717  0.50149206  0.16840528  1
  Ni  Ni5  1  1.00097723  0.33483215  0.33542626  1
  Ni  Ni6  1  0.00243204  0.66773112  0.00184734  1
  Ni  Ni7  1  0.16858026  0.83497270  0.16836847  1
  Ni  Ni8  1  0.00234281  0.66772977  0.33461225  1
  Ni  Ni9  1  0.33521410  1.00120731  1.00103354  1
  Ni  Ni10  1  0.50099432  0.16786007  0.16813318  1
  Ni  Ni11  1  0.33522297  1.00121628  0.33544501  1
  Fe  Fe12  1  0.33527046  0.33489230  1.00118923  1
  Ni  Ni13  1  0.50108452  0.50225459  0.16839937  1
  Fe  Fe14  1  0.33528892  0.33457702  0.33553404  1
  Ni  Ni15  1  0.33507907  0.66892541  0.00169009  1
  Ni  Ni16  1  0.50162461  0.83481452  0.16836935  1
  Ni  Ni17  1  0.33507671  0.66888062  0.33500221  1
  Ni  Ni18  1  0.66666827  0.00171059  0.00297267  1
  Ni  Ni19  1  0.83552470  0.16797502  0.16850106  1
  Ni  Ni20  1  0.66756369  0.00263322  0.33450851  1
  Ni  Ni21  1  0.66770765  0.33558692  0.00198578  1
  Ni  Ni22  1  0.83536160  0.50209180  0.16813057  1
  Ni  Ni23  1  0.66866585  0.33463139  0.33550735  1
  Ni  Ni24  1  0.66751684  0.66767733  1.00138909  1
  Ni  Ni25  1  0.83479766  0.83489740  0.16812799  1
  Ni  Ni26  1  0.66758615  0.66768281  0.33508336  1
  Ni  Ni27  1  0.16806688  0.16905216  0.50209197  1
  Ni  Ni28  1  0.00260786  0.00238936  0.66749854  1
  Ni  Ni29  1  0.16953791  0.16902659  0.83474723  1
  Ni  Ni30  1  0.16933920  0.50016462  0.50078785  1
  Ni  Ni31  1  0.00283077  0.33410134  0.66754571  1
  Ni  Ni32  1  0.16934525  0.50015828  0.83580619  1
  Fe  Fe33  1  0.16888095  0.83530457  0.49986925  1
  Cr  Cr34  1  0.00219326  0.66820443  0.66843344  1
  Fe  Fe35  1  0.16905643  0.83520585  0.83659025  1
  Ni  Ni36  1  0.50118043  0.16767360  0.50215939  1
  Fe  Fe37  1  0.33567968  0.00228709  0.66824288  1
  Ni  Ni38  1  0.49959822  0.16768963  0.83467750  1
  Ni  Ni39  1  0.50088332  0.50264007  0.50209981  1
  Ni  Ni40  1  0.33517982  0.33559539  0.66846897  1
  Ni  Ni41  1  0.50084177  0.50264058  0.83451047  1
  Ni  Ni42  1  0.50250863  0.83468434  0.50175637  1
  Ni  Ni43  1  0.33621613  0.66797163  0.66825483  1
  Ni  Ni44  1  0.50246815  0.83473944  0.83477785  1
  Ni  Ni45  1  0.83572090  0.16749723  0.50191781  1
  Ni  Ni46  1  0.66770955  1.00138044  0.66751669  1
  Cr  Cr47  1  0.83543658  0.16777333  0.83465123  1
  Ni  Ni48  1  0.83474850  0.50154671  0.50157440  1
  Ni  Ni49  1  0.66689805  0.33531163  0.66749817  1
  Ni  Ni50  1  0.83474011  0.50303462  0.83525692  1
  Ni  Ni51  1  0.83332779  0.83594070  0.50064489  1
  Ni  Ni52  1  0.66620411  0.66832720  0.66847822  1
  Ni  Ni53  1  0.83334704  0.83455374  0.83617389  1
" 