4141,Ni87Fe8Cr3_2,-239.045832829531, 184.4556358313,Ni87Fe8Cr3,"# generated using pymatgen
 data_Cr3Fe4Ni47
_symmetry_space_group_name_H-M   'P 1'
_cell_length_a   7.44898323
_cell_length_b   7.44898323
_cell_length_c   10.53445311
_cell_angle_alpha   90.00000000
_cell_angle_beta   90.00000000
_cell_angle_gamma   90.00000000
_symmetry_Int_Tables_number   1
_chemical_formula_structural   Cr3Fe4Ni47
_chemical_formula_sum   'Cr3 Fe4 Ni47'
_cell_volume   584.52889872
_cell_formula_units_Z   1
loop_
 _symmetry_equiv_pos_site_id
 _symmetry_equiv_pos_as_xyz
  1  'x, y, z'
loop_
 _atom_site_type_symbol
 _atom_site_label
 _atom_site_symmetry_multiplicity
 _atom_site_fract_x
 _atom_site_fract_y
 _atom_site_fract_z
 _atom_site_occupancy
  Ni  Ni0  1  1.00062385  0.00267114  0.00303460  1
  Ni  Ni1  1  0.16858484  0.16805318  0.16848731  1
  Fe  Fe2  1  0.00141978  0.00177260  0.33499293  1
  Ni  Ni3  1  0.00170349  0.33423509  1.00093005  1
  Ni  Ni4  1  0.16711415  0.50052057  0.16747609  1
  Ni  Ni5  1  0.00157793  0.33451985  0.33478128  1
  Ni  Ni6  1  0.00132255  0.66691383  0.00283306  1
  Ni  Ni7  1  0.16581384  0.83494620  0.16800322  1
  Fe  Fe8  1  0.00134547  0.66684195  0.33486066  1
  Ni  Ni9  1  0.33393109  0.00338798  0.00127152  1
  Ni  Ni10  1  0.50086822  0.16952095  0.16808787  1
  Ni  Ni11  1  0.33383637  0.00179814  0.33565940  1
  Ni  Ni12  1  0.33373767  0.33411975  0.00177740  1
  Ni  Ni13  1  0.50074746  0.49784176  0.16951569  1
  Ni  Ni14  1  0.33337129  0.33444959  0.33462596  1
  Ni  Ni15  1  0.33294054  0.66595686  0.00175581  1
  Cr  Cr16  1  0.50042609  0.83612213  0.16802283  1
  Ni  Ni17  1  0.33391565  0.66743616  0.33481175  1
  Ni  Ni18  1  0.66921446  0.00317012  1.00048919  1
  Fe  Fe19  1  0.83484545  0.16877249  0.16818758  1
  Ni  Ni20  1  0.66851964  0.00143550  0.33509037  1
  Ni  Ni21  1  0.66834864  0.33317162  0.00217216  1
  Ni  Ni22  1  0.83565141  0.50062526  0.16919440  1
  Ni  Ni23  1  0.66880583  0.33458348  0.33416530  1
  Cr  Cr24  1  0.66849889  0.66676359  0.99925845  1
  Ni  Ni25  1  0.83703633  0.83496748  0.16906211  1
  Ni  Ni26  1  0.66866595  0.66764276  0.33607231  1
  Fe  Fe27  1  0.16788020  0.16865903  0.50144500  1
  Ni  Ni28  1  1.00033313  0.00253681  0.66609176  1
  Ni  Ni29  1  0.16772285  0.16924371  0.83356188  1
  Ni  Ni30  1  0.16763276  0.50164909  0.50137390  1
  Ni  Ni31  1  0.00123332  0.33423173  0.66797194  1
  Ni  Ni32  1  0.16741787  0.49951065  0.83495001  1
  Ni  Ni33  1  0.16789635  0.83403440  0.50058434  1
  Ni  Ni34  1  1.00042794  0.66702285  0.66662340  1
  Cr  Cr35  1  0.16722410  0.83436774  0.83548233  1
  Ni  Ni36  1  0.50218207  0.16809854  0.50070287  1
  Ni  Ni37  1  0.33503854  0.00209918  0.66648337  1
  Ni  Ni38  1  0.50146062  0.16833328  0.83487776  1
  Ni  Ni39  1  0.50104333  0.50013999  0.50031574  1
  Ni  Ni40  1  0.33400894  0.33456503  0.66717495  1
  Ni  Ni41  1  0.50029175  0.49911564  0.83361798  1
  Ni  Ni42  1  0.50092613  0.83536772  0.50140978  1
  Ni  Ni43  1  0.33528488  0.66710377  0.66701206  1
  Ni  Ni44  1  0.50151954  0.83614158  0.83331067  1
  Ni  Ni45  1  0.83355123  0.16831862  0.50057530  1
  Ni  Ni46  1  0.66829925  0.00126604  0.66807094  1
  Ni  Ni47  1  0.83446253  0.16819638  0.83530149  1
  Ni  Ni48  1  0.83499235  0.50020108  0.50142788  1
  Ni  Ni49  1  0.66835789  0.33436730  0.66750698  1
  Ni  Ni50  1  0.83576871  0.49971495  0.83301994  1
  Ni  Ni51  1  0.83495290  0.83511616  0.50134967  1
  Ni  Ni52  1  0.66793868  0.66801106  0.66729363  1
  Ni  Ni53  1  0.83476243  0.83582481  0.83332228  1
" 