1344,Ni87Fe10Cr2_5,-240.271048172162, 189.780152726733,Ni87Fe10Cr2,"# generated using pymatgen
 data_Cr2Fe5Ni47
_symmetry_space_group_name_H-M   'P 1'
_cell_length_a   7.44517542
_cell_length_b   7.44517542
_cell_length_c   10.52906805
_cell_angle_alpha   90.00000000
_cell_angle_beta   90.00000000
_cell_angle_gamma   90.00000000
_symmetry_Int_Tables_number   1
_chemical_formula_structural   Cr2Fe5Ni47
_chemical_formula_sum   'Cr2 Fe5 Ni47'
_cell_volume   583.63294912
_cell_formula_units_Z   1
loop_
 _symmetry_equiv_pos_site_id
 _symmetry_equiv_pos_as_xyz
  1  'x, y, z'
loop_
 _atom_site_type_symbol
 _atom_site_label
 _atom_site_symmetry_multiplicity
 _atom_site_fract_x
 _atom_site_fract_y
 _atom_site_fract_z
 _atom_site_occupancy
  Ni  Ni0  1  0.99973887  1.00146887  0.00207960  1
  Ni  Ni1  1  0.16695217  0.16902498  0.16927970  1
  Fe  Fe2  1  0.00158791  0.00146892  0.33395825  1
  Ni  Ni3  1  1.00144098  0.33461936  1.00127745  1
  Ni  Ni4  1  0.16823304  0.50173042  0.16851758  1
  Ni  Ni5  1  1.00135888  0.33514075  0.33477577  1
  Ni  Ni6  1  1.00143581  0.66831863  1.00127771  1
  Ni  Ni7  1  0.16721380  0.83365132  0.16853992  1
  Ni  Ni8  1  0.00148216  0.66779660  0.33477735  1
  Cr  Cr9  1  0.33482243  0.00146979  1.00104119  1
  Ni  Ni10  1  0.50256029  0.16922319  0.16912102  1
  Ni  Ni11  1  0.33532249  1.00140736  0.33502058  1
  Ni  Ni12  1  0.33451948  0.33625532  0.00167702  1
  Ni  Ni13  1  0.50121594  0.50146887  0.16833902  1
  Ni  Ni14  1  0.33450219  0.33405111  0.33441368  1
  Ni  Ni15  1  0.33452221  0.66667971  0.00167701  1
  Ni  Ni16  1  0.50203703  0.83371457  0.16912092  1
  Ni  Ni17  1  0.33443861  0.66894818  0.33443321  1
  Ni  Ni18  1  0.67008530  1.00146614  1.00121637  1
  Ni  Ni19  1  0.83489403  0.16820380  0.16797718  1
  Ni  Ni20  1  0.66739504  0.00153126  0.33467703  1
  Ni  Ni21  1  0.66844600  0.33455793  0.00173847  1
  Ni  Ni22  1  0.83495775  0.50120737  0.16780989  1
  Ni  Ni23  1  0.66854742  0.33425696  0.33469543  1
  Ni  Ni24  1  0.66844845  0.66838279  0.00173873  1
  Ni  Ni25  1  0.83515558  0.83499535  0.16871678  1
  Ni  Ni26  1  0.66848491  0.66861820  0.33467687  1
  Fe  Fe27  1  0.16978684  0.16925351  0.50082495  1
  Cr  Cr28  1  0.00167249  0.00146961  0.66842155  1
  Ni  Ni29  1  0.16746481  0.16997409  0.83416424  1
  Fe  Fe30  1  0.16844204  0.50152312  0.50153655  1
  Ni  Ni31  1  1.00145903  0.33644791  0.66835300  1
  Ni  Ni32  1  0.16855514  0.50173036  0.83416497  1
  Ni  Ni33  1  0.16947568  0.83365753  0.50096266  1
  Ni  Ni34  1  0.00158320  0.66648918  0.66835171  1
  Ni  Ni35  1  0.16772598  0.83270263  0.83490350  1
  Ni  Ni36  1  0.50233497  0.16813950  0.50198381  1
  Ni  Ni37  1  0.33672894  1.00140729  0.66821015  1
  Ni  Ni38  1  0.50277854  0.16915551  0.83330132  1
  Ni  Ni39  1  0.50207885  0.50146876  0.50143163  1
  Ni  Ni40  1  0.33490305  0.33441892  0.66831553  1
  Ni  Ni41  1  0.50060664  0.50146886  0.83463600  1
  Ni  Ni42  1  0.50016283  0.83479844  0.50198379  1
  Ni  Ni43  1  0.33483947  0.66858043  0.66829597  1
  Ni  Ni44  1  0.50225541  0.83378220  0.83330141  1
  Ni  Ni45  1  0.83368048  0.17010783  0.50070275  1
  Ni  Ni46  1  0.66595465  0.00153175  0.66851326  1
  Ni  Ni47  1  0.83416393  0.16832599  0.83572640  1
  Ni  Ni48  1  0.83482070  0.50038488  0.50220334  1
  Ni  Ni49  1  0.66804619  0.33455809  0.66797311  1
  Fe  Fe50  1  0.83491805  0.50151939  0.83462828  1
  Fe  Fe51  1  0.83267521  0.83357543  0.50087698  1
  Ni  Ni52  1  0.66798281  0.66831683  0.66799195  1
  Ni  Ni53  1  0.83442502  0.83487392  0.83498713  1
" 