5059,Ni87Fe8Cr3_0,-239.205898835438, 185.562515484654,Ni87Fe8Cr3,"# generated using pymatgen
 data_Cr3Fe4Ni47
_symmetry_space_group_name_H-M   'P 1'
_cell_length_a   7.44896066
_cell_length_b   7.44896066
_cell_length_c   10.53442119
_cell_angle_alpha   90.00000000
_cell_angle_beta   90.00000000
_cell_angle_gamma   90.00000000
_symmetry_Int_Tables_number   1
_chemical_formula_structural   Cr3Fe4Ni47
_chemical_formula_sum   'Cr3 Fe4 Ni47'
_cell_volume   584.52358585
_cell_formula_units_Z   1
loop_
 _symmetry_equiv_pos_site_id
 _symmetry_equiv_pos_as_xyz
  1  'x, y, z'
loop_
 _atom_site_type_symbol
 _atom_site_label
 _atom_site_symmetry_multiplicity
 _atom_site_fract_x
 _atom_site_fract_y
 _atom_site_fract_z
 _atom_site_occupancy
  Ni  Ni0  1  0.00149038  1.00059717  1.00108228  1
  Ni  Ni1  1  0.16656709  0.16674733  0.16797904  1
  Ni  Ni2  1  0.00186304  1.00021763  0.33470052  1
  Ni  Ni3  1  0.00142752  0.33466426  0.00163077  1
  Fe  Fe4  1  0.16642048  0.50192831  0.16868051  1
  Ni  Ni5  1  0.00156880  0.33502733  0.33411031  1
  Ni  Ni6  1  1.00108379  0.66852053  1.00099989  1
  Ni  Ni7  1  0.16795888  0.83490868  0.16686073  1
  Ni  Ni8  1  1.00020314  0.66843001  0.33462801  1
  Ni  Ni9  1  0.33328744  1.00046760  0.00182211  1
  Ni  Ni10  1  0.50094949  0.16643325  0.16926440  1
  Ni  Ni11  1  0.33426747  0.00202874  0.33442149  1
  Cr  Cr12  1  0.33334024  0.33349109  1.00107471  1
  Ni  Ni13  1  0.50195487  0.50342849  0.16892205  1
  Ni  Ni14  1  0.33492193  0.33377203  0.33456100  1
  Ni  Ni15  1  0.33329908  0.66876289  0.00295068  1
  Ni  Ni16  1  0.50097563  0.83387364  0.16742133  1
  Fe  Fe17  1  0.33468042  0.66855475  0.33501545  1
  Ni  Ni18  1  0.66887006  1.00013903  0.00284770  1
  Ni  Ni19  1  0.83610918  0.16779126  0.16863677  1
  Ni  Ni20  1  0.66750404  1.00054955  0.33409310  1
  Cr  Cr21  1  0.66897310  0.33411168  1.00113735  1
  Ni  Ni22  1  0.83494825  0.50197387  0.16785487  1
  Ni  Ni23  1  0.66713602  0.33532516  0.33464061  1
  Ni  Ni24  1  0.66920979  0.66888052  0.00209838  1
  Ni  Ni25  1  0.83471363  0.83385691  0.16717829  1
  Ni  Ni26  1  0.66882658  0.66776230  0.33443705  1
  Ni  Ni27  1  0.16769949  0.16863041  0.50196326  1
  Ni  Ni28  1  0.00138636  1.00056789  0.66785809  1
  Ni  Ni29  1  0.16647020  0.16810951  0.83374140  1
  Ni  Ni30  1  0.16761615  0.50082902  0.50041524  1
  Ni  Ni31  1  0.00166452  0.33480611  0.66782960  1
  Ni  Ni32  1  0.16678631  0.50209483  0.83454194  1
  Ni  Ni33  1  0.16792019  0.83424226  0.50225207  1
  Ni  Ni34  1  0.00134568  0.66830092  0.66792571  1
  Ni  Ni35  1  0.16643612  0.83343303  0.83460820  1
  Ni  Ni36  1  0.50123659  0.16822746  0.50143420  1
  Ni  Ni37  1  0.33335278  0.00225771  0.66730187  1
  Ni  Ni38  1  0.50166483  0.16746534  0.83282766  1
  Ni  Ni39  1  0.50130367  0.50115559  0.50211173  1
  Ni  Ni40  1  0.33453681  0.33450343  0.66804548  1
  Fe  Fe41  1  0.50027900  0.50181695  0.83273928  1
  Ni  Ni42  1  0.50137134  0.83428926  0.50100711  1
  Ni  Ni43  1  0.33319335  0.66687971  0.66633977  1
  Cr  Cr44  1  0.50119846  0.83486515  0.83512771  1
  Ni  Ni45  1  0.83470856  0.16862250  0.50088214  1
  Ni  Ni46  1  0.66889634  0.00188667  0.66662354  1
  Ni  Ni47  1  0.83553401  0.16709230  0.83408779  1
  Ni  Ni48  1  0.83475669  0.50089738  0.50190154  1
  Ni  Ni49  1  0.66747162  0.33452841  0.66772561  1
  Fe  Fe50  1  0.83681726  0.50181080  0.83363718  1
  Ni  Ni51  1  0.83437416  0.83413773  0.50144772  1
  Ni  Ni52  1  0.66919197  0.66721017  0.66713997  1
  Ni  Ni53  1  0.83579637  0.83465464  0.83499396  1
" 