2082,Ni87Fe9Cr3_8,-239.112914489996, 184.4962602372,Ni87Fe9Cr3,"# generated using pymatgen
 data_Cr3Fe4Ni47
_symmetry_space_group_name_H-M   'P 1'
_cell_length_a   7.44850480
_cell_length_b   7.44850480
_cell_length_c   10.53377650
_cell_angle_alpha   90.00000000
_cell_angle_beta   90.00000000
_cell_angle_gamma   90.00000000
_symmetry_Int_Tables_number   1
_chemical_formula_structural   Cr3Fe4Ni47
_chemical_formula_sum   'Cr3 Fe4 Ni47'
_cell_volume   584.41627707
_cell_formula_units_Z   1
loop_
 _symmetry_equiv_pos_site_id
 _symmetry_equiv_pos_as_xyz
  1  'x, y, z'
loop_
 _atom_site_type_symbol
 _atom_site_label
 _atom_site_symmetry_multiplicity
 _atom_site_fract_x
 _atom_site_fract_y
 _atom_site_fract_z
 _atom_site_occupancy
  Ni  Ni0  1  1.00122453  0.00192848  1.00124335  1
  Ni  Ni1  1  0.16798957  0.16776422  0.16769781  1
  Ni  Ni2  1  0.00145089  0.00190750  0.33461696  1
  Ni  Ni3  1  0.00254630  0.33260315  0.00200212  1
  Fe  Fe4  1  0.16705387  0.50028637  0.16720551  1
  Ni  Ni5  1  1.00034686  0.33408971  0.33422801  1
  Fe  Fe6  1  0.99994901  0.66891700  0.00193790  1
  Ni  Ni7  1  0.16704724  0.83580435  0.16698752  1
  Ni  Ni8  1  1.00000829  0.66773471  0.33394282  1
  Fe  Fe9  1  0.33464261  0.00140991  0.00134513  1
  Ni  Ni10  1  0.49986918  0.16758608  0.16893230  1
  Ni  Ni11  1  0.33442855  0.00218298  0.33387740  1
  Ni  Ni12  1  0.33329820  0.33500361  0.00268075  1
  Ni  Ni13  1  0.50177193  0.50130976  0.16762986  1
  Fe  Fe14  1  0.33491582  0.33245731  0.33474090  1
  Ni  Ni15  1  0.33601139  0.66836032  0.00181349  1
  Ni  Ni16  1  0.50195081  0.83483687  0.16688026  1
  Cr  Cr17  1  0.33481086  0.66872834  0.33536208  1
  Ni  Ni18  1  0.66874225  0.99920747  0.00153373  1
  Ni  Ni19  1  0.83587604  0.16757855  0.16871839  1
  Ni  Ni20  1  0.66785469  0.00184621  0.33412216  1
  Cr  Cr21  1  0.66830488  0.33439341  1.00042808  1
  Ni  Ni22  1  0.83490970  0.50225246  0.16879288  1
  Ni  Ni23  1  0.66869147  0.33441997  0.33429103  1
  Ni  Ni24  1  0.66633856  0.66967349  0.00144016  1
  Ni  Ni25  1  0.83473207  0.83390104  0.16799437  1
  Ni  Ni26  1  0.66896455  0.66746644  0.33416443  1
  Ni  Ni27  1  0.16806631  0.16802342  0.50137303  1
  Ni  Ni28  1  0.00168076  0.00150210  0.66787466  1
  Ni  Ni29  1  0.16784840  0.16647112  0.83466803  1
  Ni  Ni30  1  0.16697079  0.50050973  0.50158615  1
  Ni  Ni31  1  1.00041123  0.33354306  0.66750455  1
  Cr  Cr32  1  0.16787155  0.50085557  0.83466090  1
  Ni  Ni33  1  0.16704792  0.83519646  0.50238713  1
  Ni  Ni34  1  1.00105933  0.66869048  0.66733704  1
  Ni  Ni35  1  0.16791008  0.83637145  0.83435955  1
  Ni  Ni36  1  0.50081872  0.16808142  0.50092063  1
  Ni  Ni37  1  0.33415923  1.00079213  0.66867220  1
  Ni  Ni38  1  0.50041308  0.16727630  0.83388194  1
  Ni  Ni39  1  0.50196794  0.50050630  0.50245297  1
  Ni  Ni40  1  0.33542863  0.33425129  0.66682453  1
  Ni  Ni41  1  0.50222705  0.50204414  0.83365607  1
  Ni  Ni42  1  0.50183292  0.83514366  0.50193589  1
  Ni  Ni43  1  0.33548928  0.66868974  0.66723785  1
  Ni  Ni44  1  0.50150133  0.83441567  0.83492432  1
  Ni  Ni45  1  0.83484955  0.16816023  0.50110358  1
  Ni  Ni46  1  0.66789400  0.00144058  0.66807920  1
  Ni  Ni47  1  0.83547518  0.16719554  0.83390879  1
  Ni  Ni48  1  0.83479516  0.50152464  0.50130703  1
  Ni  Ni49  1  0.66789374  0.33487307  0.66845692  1
  Ni  Ni50  1  0.83351410  0.50198335  0.83362598  1
  Ni  Ni51  1  0.83485386  0.83404873  0.50081277  1
  Ni  Ni52  1  0.66718423  0.66742091  0.66813146  1
  Ni  Ni53  1  0.83432113  0.83455482  0.83492308  1
" 