1286,Ni87Fe9Cr3_15,-239.160901942086, 185.293447619761,Ni87Fe9Cr3,"# generated using pymatgen
 data_Cr3Fe4Ni47
_symmetry_space_group_name_H-M   'P 1'
_cell_length_a   7.44883207
_cell_length_b   7.44883207
_cell_length_c   10.53423933
_cell_angle_alpha   90.00000000
_cell_angle_beta   90.00000000
_cell_angle_gamma   90.00000000
_symmetry_Int_Tables_number   1
_chemical_formula_structural   Cr3Fe4Ni47
_chemical_formula_sum   'Cr3 Fe4 Ni47'
_cell_volume   584.49331361
_cell_formula_units_Z   1
loop_
 _symmetry_equiv_pos_site_id
 _symmetry_equiv_pos_as_xyz
  1  'x, y, z'
loop_
 _atom_site_type_symbol
 _atom_site_label
 _atom_site_symmetry_multiplicity
 _atom_site_fract_x
 _atom_site_fract_y
 _atom_site_fract_z
 _atom_site_occupancy
  Ni  Ni0  1  0.00176196  0.00238846  1.00091587  1
  Ni  Ni1  1  0.16782363  0.16779097  0.16783129  1
  Ni  Ni2  1  0.99994423  0.00195333  0.33374128  1
  Ni  Ni3  1  0.00255217  0.33369909  0.00202215  1
  Ni  Ni4  1  0.16796053  0.50131945  0.16794653  1
  Fe  Fe5  1  1.00079475  0.33508068  0.33414993  1
  Fe  Fe6  1  1.00104889  0.66856040  1.00121308  1
  Ni  Ni7  1  0.16788885  0.83455926  0.16776073  1
  Ni  Ni8  1  1.00101679  0.66764556  0.33326600  1
  Ni  Ni9  1  0.33371225  1.00027770  0.00183722  1
  Ni  Ni10  1  0.50055057  0.16698948  0.16872333  1
  Fe  Fe11  1  0.33592650  0.00167520  0.33361508  1
  Fe  Fe12  1  0.33315042  0.33403154  0.00126332  1
  Ni  Ni13  1  0.50048239  0.50218688  0.16882275  1
  Ni  Ni14  1  0.33472706  0.33541024  0.33413391  1
  Ni  Ni15  1  0.33478780  0.66834853  0.00136220  1
  Ni  Ni16  1  0.50135162  0.83448627  0.16786524  1
  Ni  Ni17  1  0.33496776  0.66591960  0.33379984  1
  Ni  Ni18  1  0.66819221  0.99975499  0.00136220  1
  Ni  Ni19  1  0.83529545  0.16692406  0.16869176  1
  Ni  Ni20  1  0.66902454  0.00171163  0.33416219  1
  Cr  Cr21  1  0.66865928  0.33465812  1.00096691  1
  Ni  Ni22  1  0.83522228  0.50212225  0.16879489  1
  Ni  Ni23  1  0.66729785  0.33433627  0.33474155  1
  Ni  Ni24  1  0.66685006  0.66913642  0.00161516  1
  Ni  Ni25  1  0.83442872  0.83462849  0.16791704  1
  Ni  Ni26  1  0.66768530  0.66762034  0.33441492  1
  Ni  Ni27  1  0.16871775  0.16881256  0.50058976  1
  Ni  Ni28  1  1.00054237  1.00057818  0.66901006  1
  Ni  Ni29  1  0.16864275  0.16697737  0.83524687  1
  Ni  Ni30  1  0.16877860  0.50040096  0.50053293  1
  Cr  Cr31  1  1.00116825  0.33417310  0.66702422  1
  Ni  Ni32  1  0.16870477  0.50203275  0.83518802  1
  Cr  Cr33  1  0.16772238  0.83437776  0.50181809  1
  Ni  Ni34  1  1.00079429  0.66878572  0.66923394  1
  Ni  Ni35  1  0.16772179  0.83465909  0.83431332  1
  Ni  Ni36  1  0.50144744  0.16833878  0.50159631  1
  Ni  Ni37  1  0.33511548  0.00192946  0.66828365  1
  Ni  Ni38  1  0.50044571  0.16715627  0.83335078  1
  Ni  Ni39  1  0.50137843  0.50086985  0.50153194  1
  Ni  Ni40  1  0.33609957  0.33480927  0.66861682  1
  Ni  Ni41  1  0.50045132  0.50191930  0.83331381  1
  Ni  Ni42  1  0.50306528  0.83445839  0.50131245  1
  Ni  Ni43  1  0.33536941  0.66693033  0.66850565  1
  Ni  Ni44  1  0.50124821  0.83458951  0.83449133  1
  Ni  Ni45  1  0.83350537  0.16712955  0.50053220  1
  Ni  Ni46  1  0.66801178  0.00131158  0.66814239  1
  Ni  Ni47  1  0.83458005  0.16617869  0.83444015  1
  Ni  Ni48  1  0.83350802  0.50201867  0.50049476  1
  Ni  Ni49  1  0.66615247  0.33455598  0.66775730  1
  Ni  Ni50  1  0.83451071  0.50283857  0.83437538  1
  Ni  Ni51  1  0.83303990  0.83452333  0.50153158  1
  Ni  Ni52  1  0.66750501  0.66780086  0.66763782  1
  Ni  Ni53  1  0.83469543  0.83465531  0.83421855  1
" 