3811,Ni87Fe6Cr5_3,-238.097304206358, 179.304123038722,Ni87Fe6Cr5,"# generated using pymatgen
 data_Cr4Fe3Ni47
_symmetry_space_group_name_H-M   'P 1'
_cell_length_a   7.45518538
_cell_length_b   7.45518538
_cell_length_c   10.54322427
_cell_angle_alpha   90.00000000
_cell_angle_beta   90.00000000
_cell_angle_gamma   90.00000000
_symmetry_Int_Tables_number   1
_chemical_formula_structural   Cr4Fe3Ni47
_chemical_formula_sum   'Cr4 Fe3 Ni47'
_cell_volume   585.99018024
_cell_formula_units_Z   1
loop_
 _symmetry_equiv_pos_site_id
 _symmetry_equiv_pos_as_xyz
  1  'x, y, z'
loop_
 _atom_site_type_symbol
 _atom_site_label
 _atom_site_symmetry_multiplicity
 _atom_site_fract_x
 _atom_site_fract_y
 _atom_site_fract_z
 _atom_site_occupancy
  Ni  Ni0  1  0.99935026  0.00090398  0.00114672  1
  Ni  Ni1  1  0.16693780  0.16841423  0.16817175  1
  Ni  Ni2  1  0.00130447  1.00077272  0.33382729  1
  Ni  Ni3  1  0.00241344  0.33431653  0.00130287  1
  Ni  Ni4  1  0.16712447  0.49989310  0.16622281  1
  Fe  Fe5  1  0.99985996  0.33387887  0.33413429  1
  Ni  Ni6  1  0.00116125  0.66716616  0.00133825  1
  Ni  Ni7  1  0.16585992  0.83407650  0.16700617  1
  Ni  Ni8  1  0.99948894  0.66742178  0.33426462  1
  Cr  Cr9  1  0.33418314  1.00074887  0.00112845  1
  Ni  Ni10  1  0.50042524  0.16736241  0.16925659  1
  Ni  Ni11  1  0.33397332  0.00241347  0.33445350  1
  Ni  Ni12  1  0.33242972  0.33612495  0.00149544  1
  Ni  Ni13  1  0.50042807  0.50113630  0.16673237  1
  Fe  Fe14  1  0.33385297  0.33139608  0.33311486  1
  Ni  Ni15  1  0.33387374  0.66554788  0.00095753  1
  Ni  Ni16  1  0.50274888  0.83388621  0.16746678  1
  Cr  Cr17  1  0.33284179  0.66909603  0.33324675  1
  Ni  Ni18  1  0.66916136  0.99945604  0.00132695  1
  Ni  Ni19  1  0.83502221  0.16609537  0.16774232  1
  Ni  Ni20  1  0.66710964  0.00206853  0.33388109  1
  Cr  Cr21  1  0.66759867  0.33391557  1.00019172  1
  Ni  Ni22  1  0.83483299  0.50221225  0.16842534  1
  Ni  Ni23  1  0.66836351  0.33311512  0.33338264  1
  Ni  Ni24  1  0.66735138  0.66861027  0.00151879  1
  Ni  Ni25  1  0.83377848  0.83407699  0.16727803  1
  Ni  Ni26  1  0.66999418  0.66720264  0.33300122  1
  Ni  Ni27  1  0.16757676  0.16715895  0.50072016  1
  Ni  Ni28  1  0.00116100  0.00108823  0.66741310  1
  Ni  Ni29  1  0.16668989  0.16924223  0.83349606  1
  Ni  Ni30  1  0.16488026  0.50013461  0.50179346  1
  Ni  Ni31  1  1.00060281  0.33437186  0.66700902  1
  Ni  Ni32  1  0.16794974  0.49989721  0.83437439  1
  Ni  Ni33  1  0.16649925  0.83508911  0.50212921  1
  Ni  Ni34  1  0.00116112  0.66692598  0.66678432  1
  Fe  Fe35  1  0.16655452  0.83323905  0.83323492  1
  Ni  Ni36  1  0.50042648  0.16535893  0.50089742  1
  Ni  Ni37  1  0.33430249  0.00089742  0.66659504  1
  Ni  Ni38  1  0.50033870  0.16725883  0.83222928  1
  Cr  Cr39  1  0.50164456  0.50050202  0.50219085  1
  Ni  Ni40  1  0.33359739  0.33329951  0.66808020  1
  Ni  Ni41  1  0.49927137  0.50206946  0.83368363  1
  Ni  Ni42  1  0.50168301  0.83671375  0.50161559  1
  Ni  Ni43  1  0.33322841  0.66818860  0.66842811  1
  Ni  Ni44  1  0.50251617  0.83305705  0.83330260  1
  Ni  Ni45  1  0.83438217  0.16697612  0.50114761  1
  Ni  Ni46  1  0.66692302  0.00145649  0.66717843  1
  Ni  Ni47  1  0.83535819  0.16599597  0.83349368  1
  Ni  Ni48  1  0.83600812  0.50138687  0.50090027  1
  Ni  Ni49  1  0.66818538  0.33330047  0.66821452  1
  Ni  Ni50  1  0.83516542  0.50207173  0.83305686  1
  Ni  Ni51  1  0.83420462  0.83402216  0.50054247  1
  Ni  Ni52  1  0.66799635  0.66763124  0.66786793  1
  Ni  Ni53  1  0.83318376  0.83431804  0.83456649  1
" 