7714,Ni87Fe8Cr3_4,-239.144977139729, 184.378216395517,Ni87Fe8Cr3,"# generated using pymatgen
 data_Cr3Fe4Ni47
_symmetry_space_group_name_H-M   'P 1'
_cell_length_a   7.44907086
_cell_length_b   7.44907086
_cell_length_c   10.53457703
_cell_angle_alpha   90.00000000
_cell_angle_beta   90.00000000
_cell_angle_gamma   90.00000000
_symmetry_Int_Tables_number   1
_chemical_formula_structural   Cr3Fe4Ni47
_chemical_formula_sum   'Cr3 Fe4 Ni47'
_cell_volume   584.54952754
_cell_formula_units_Z   1
loop_
 _symmetry_equiv_pos_site_id
 _symmetry_equiv_pos_as_xyz
  1  'x, y, z'
loop_
 _atom_site_type_symbol
 _atom_site_label
 _atom_site_symmetry_multiplicity
 _atom_site_fract_x
 _atom_site_fract_y
 _atom_site_fract_z
 _atom_site_occupancy
  Cr  Cr0  1  1.00082523  0.00140877  0.00163044  1
  Ni  Ni1  1  0.16928456  0.16877414  0.16860820  1
  Fe  Fe2  1  0.00166801  0.00168928  0.33485502  1
  Ni  Ni3  1  1.00042899  0.33617809  0.00139643  1
  Ni  Ni4  1  0.16700321  0.50020346  0.16854740  1
  Ni  Ni5  1  1.00060873  0.33536028  0.33429725  1
  Fe  Fe6  1  0.99993993  0.66617770  0.00130529  1
  Ni  Ni7  1  0.16811572  0.83464416  0.16952710  1
  Ni  Ni8  1  0.00210621  0.66748794  0.33364878  1
  Ni  Ni9  1  0.33649740  0.00183297  0.00139655  1
  Ni  Ni10  1  0.50090990  0.16766010  0.16722443  1
  Ni  Ni11  1  0.33456186  0.99929777  0.33281740  1
  Ni  Ni12  1  0.33466939  0.33382599  0.00164275  1
  Ni  Ni13  1  0.50181781  0.49994504  0.16894877  1
  Ni  Ni14  1  0.33368598  0.33596522  0.33300719  1
  Cr  Cr15  1  0.33412267  0.66807360  1.00115775  1
  Ni  Ni16  1  0.50181969  0.83601233  0.16867212  1
  Ni  Ni17  1  0.33366607  0.66835723  0.33491380  1
  Ni  Ni18  1  0.66669667  0.00155654  1.00114993  1
  Ni  Ni19  1  0.83342820  0.16877056  0.16885003  1
  Ni  Ni20  1  0.66845624  1.00079364  0.33325461  1
  Ni  Ni21  1  0.66852208  0.33409828  0.00139629  1
  Ni  Ni22  1  0.83479781  0.50111354  0.16750061  1
  Ni  Ni23  1  0.66932454  0.33446323  0.33344399  1
  Fe  Fe24  1  0.66878997  0.66757323  1.00074332  1
  Ni  Ni25  1  0.83368337  0.83373283  0.16848171  1
  Fe  Fe26  1  0.66733193  0.66740301  0.33495805  1
  Ni  Ni27  1  0.16626704  0.16797153  0.50129809  1
  Ni  Ni28  1  1.00082474  1.00099324  0.66709254  1
  Ni  Ni29  1  0.16918371  0.16867314  0.83371300  1
  Ni  Ni30  1  0.16776844  0.50131040  0.50126686  1
  Ni  Ni31  1  1.00082461  0.33454360  0.66792651  1
  Ni  Ni32  1  0.16697432  0.50022980  0.83380529  1
  Ni  Ni33  1  0.16783913  0.83433927  0.50133305  1
  Ni  Ni34  1  0.00150918  0.66808277  0.66882115  1
  Ni  Ni35  1  0.16801549  0.83471632  0.83275919  1
  Cr  Cr36  1  0.50099461  0.16808162  0.50163147  1
  Ni  Ni37  1  0.33374343  0.99951204  0.66940730  1
  Ni  Ni38  1  0.50093685  0.16763303  0.83512871  1
  Ni  Ni39  1  0.50110895  0.50281702  0.50129905  1
  Ni  Ni40  1  0.33368468  0.33596661  0.66897143  1
  Ni  Ni41  1  0.50191499  0.50004057  0.83337030  1
  Ni  Ni42  1  0.50111053  0.83290365  0.50133369  1
  Ni  Ni43  1  0.33448147  0.66814163  0.66731029  1
  Ni  Ni44  1  0.50191581  0.83594553  0.83361191  1
  Ni  Ni45  1  0.83617692  0.16796972  0.50133246  1
  Ni  Ni46  1  0.66905155  1.00019740  0.66921649  1
  Ni  Ni47  1  0.83349992  0.16867198  0.83343645  1
  Ni  Ni48  1  0.83474186  0.50124411  0.50133480  1
  Ni  Ni49  1  0.66911039  0.33528156  0.66878081  1
  Ni  Ni50  1  0.83472958  0.50120996  0.83478432  1
  Ni  Ni51  1  0.83467129  0.83440581  0.50139755  1
  Ni  Ni52  1  0.66762931  0.66814149  0.66768055  1
  Ni  Ni53  1  0.83368782  0.83373606  0.83374029  1
" 