1195,Ni87Fe9Cr3_3,-239.130762472085, 184.527056930806,Ni87Fe9Cr3,"# generated using pymatgen
 data_Cr3Fe4Ni47
_symmetry_space_group_name_H-M   'P 1'
_cell_length_a   7.44810107
_cell_length_b   7.44810107
_cell_length_c   10.53320555
_cell_angle_alpha   90.00000000
_cell_angle_beta   90.00000000
_cell_angle_gamma   90.00000000
_symmetry_Int_Tables_number   1
_chemical_formula_structural   Cr3Fe4Ni47
_chemical_formula_sum   'Cr3 Fe4 Ni47'
_cell_volume   584.32125160
_cell_formula_units_Z   1
loop_
 _symmetry_equiv_pos_site_id
 _symmetry_equiv_pos_as_xyz
  1  'x, y, z'
loop_
 _atom_site_type_symbol
 _atom_site_label
 _atom_site_symmetry_multiplicity
 _atom_site_fract_x
 _atom_site_fract_y
 _atom_site_fract_z
 _atom_site_occupancy
  Ni  Ni0  1  0.00162076  0.00201685  0.00151788  1
  Ni  Ni1  1  0.16777949  0.16738401  0.16841072  1
  Ni  Ni2  1  0.00185088  0.00227651  0.33481181  1
  Ni  Ni3  1  1.00115856  0.33426469  1.00080867  1
  Ni  Ni4  1  0.16782521  0.50030325  0.16659822  1
  Ni  Ni5  1  0.99939455  0.33317680  0.33408676  1
  Ni  Ni6  1  0.00303804  0.66755990  0.00214482  1
  Ni  Ni7  1  0.16726676  0.83601656  0.16701207  1
  Ni  Ni8  1  0.99928920  0.66827647  0.33311663  1
  Ni  Ni9  1  0.33408209  0.00129820  0.00150950  1
  Fe  Fe10  1  0.50166350  0.16739987  0.16767908  1
  Ni  Ni11  1  0.33423551  0.00237814  0.33462051  1
  Ni  Ni12  1  0.33426194  0.33448427  0.00220238  1
  Ni  Ni13  1  0.50132497  0.49982093  0.16815248  1
  Fe  Fe14  1  0.33501769  0.33243357  0.33407467  1
  Ni  Ni15  1  0.33311538  0.66795223  1.00107475  1
  Ni  Ni16  1  0.50149728  0.83577855  0.16778863  1
  Cr  Cr17  1  0.33514927  0.66980189  0.33363868  1
  Ni  Ni18  1  0.66808947  0.00322483  0.00166178  1
  Ni  Ni19  1  0.83472146  0.16723421  0.16757054  1
  Ni  Ni20  1  0.66776799  0.00197308  0.33416794  1
  Ni  Ni21  1  0.66843344  0.33323233  1.00121725  1
  Ni  Ni22  1  0.83465288  0.50028829  0.16912317  1
  Ni  Ni23  1  0.66908615  0.33452999  0.33446127  1
  Cr  Cr24  1  0.66832784  0.66744251  0.00152221  1
  Ni  Ni25  1  0.83506121  0.83629098  0.16918138  1
  Ni  Ni26  1  0.66897544  0.66726793  0.33493044  1
  Ni  Ni27  1  0.16857925  0.16540568  0.50153300  1
  Ni  Ni28  1  0.00155543  0.00181977  0.66747246  1
  Ni  Ni29  1  0.16893606  0.16732548  0.83395683  1
  Cr  Cr30  1  0.16718232  0.50072960  0.50253409  1
  Ni  Ni31  1  1.00016853  0.33329886  0.66887570  1
  Ni  Ni32  1  0.16909439  0.50170158  0.83499725  1
  Ni  Ni33  1  0.16615717  0.83705958  0.50190619  1
  Ni  Ni34  1  1.00045803  0.66871989  0.66859241  1
  Ni  Ni35  1  0.16717223  0.83480487  0.83492447  1
  Ni  Ni36  1  0.50162290  0.16861428  0.50039917  1
  Ni  Ni37  1  0.33465051  0.00135208  0.66759272  1
  Ni  Ni38  1  0.50120753  0.16883351  0.83553364  1
  Ni  Ni39  1  0.50388634  0.49952280  0.50226584  1
  Ni  Ni40  1  0.33553851  0.33333699  0.66790954  1
  Ni  Ni41  1  0.50007534  0.49924472  0.83348513  1
  Fe  Fe42  1  0.50253343  0.83612768  0.50141766  1
  Ni  Ni43  1  0.33570549  0.66918287  0.66928663  1
  Fe  Fe44  1  0.50077020  0.83592380  0.83456091  1
  Ni  Ni45  1  0.83364393  0.16699147  0.50179166  1
  Ni  Ni46  1  0.66759943  0.00172729  0.66794118  1
  Ni  Ni47  1  0.83366685  0.16682535  0.83443759  1
  Ni  Ni48  1  0.83202594  0.50183372  0.50117050  1
  Ni  Ni49  1  0.66812947  0.33439087  0.66806580  1
  Ni  Ni50  1  0.83466500  0.50105607  0.83341300  1
  Ni  Ni51  1  0.83507462  0.83497664  0.50047039  1
  Ni  Ni52  1  0.66767290  0.66779554  0.66698191  1
  Ni  Ni53  1  0.83622407  0.83597498  0.83408290  1
" 