5099,Ni87Fe6Cr5_6,-237.98290441339, 178.911804345061,Ni87Fe6Cr5,"# generated using pymatgen
 data_Cr4Fe3Ni47
_symmetry_space_group_name_H-M   'P 1'
_cell_length_a   7.45558331
_cell_length_b   7.45558331
_cell_length_c   10.54378703
_cell_angle_alpha   90.00000000
_cell_angle_beta   90.00000000
_cell_angle_gamma   90.00000000
_symmetry_Int_Tables_number   1
_chemical_formula_structural   Cr4Fe3Ni47
_chemical_formula_sum   'Cr4 Fe3 Ni47'
_cell_volume   586.08401982
_cell_formula_units_Z   1
loop_
 _symmetry_equiv_pos_site_id
 _symmetry_equiv_pos_as_xyz
  1  'x, y, z'
loop_
 _atom_site_type_symbol
 _atom_site_label
 _atom_site_symmetry_multiplicity
 _atom_site_fract_x
 _atom_site_fract_y
 _atom_site_fract_z
 _atom_site_occupancy
  Ni  Ni0  1  1.00056124  0.00097814  1.00051564  1
  Ni  Ni1  1  0.16553483  0.16720450  0.16730325  1
  Ni  Ni2  1  0.00133368  0.00155684  0.33377095  1
  Ni  Ni3  1  1.00056004  0.33430945  1.00073477  1
  Ni  Ni4  1  0.16705169  0.50112449  0.16730321  1
  Ni  Ni5  1  1.00033262  0.33430872  0.33441704  1
  Ni  Ni6  1  0.00079370  0.66701955  0.00087334  1
  Ni  Ni7  1  0.16710668  0.83397780  0.16726946  1
  Ni  Ni8  1  0.00156594  0.66644093  0.33341392  1
  Ni  Ni9  1  0.33353193  0.99990771  0.99980589  1
  Cr  Cr10  1  0.50061050  0.16729149  0.16697343  1
  Ni  Ni11  1  0.33343533  0.99956088  0.33541339  1
  Ni  Ni12  1  0.33328332  0.33513048  0.99952855  1
  Ni  Ni13  1  0.50082263  0.50287773  0.16707095  1
  Ni  Ni14  1  0.33326074  0.33513026  0.33536312  1
  Ni  Ni15  1  0.33411935  0.66726839  0.00085845  1
  Ni  Ni16  1  0.50100001  0.83245929  0.16771365  1
  Ni  Ni17  1  0.33402269  0.66761568  0.33436125  1
  Ni  Ni18  1  0.66821363  1.00014216  1.00003801  1
  Ni  Ni19  1  0.83595110  0.16702704  0.16748160  1
  Ni  Ni20  1  0.66753791  0.00079472  0.33418140  1
  Ni  Ni21  1  0.66846317  0.33489660  0.99976140  1
  Ni  Ni22  1  0.83443217  0.50130545  0.16748125  1
  Ni  Ni23  1  0.66871317  0.33489653  0.33535998  1
  Ni  Ni24  1  0.66739320  0.66726814  1.00041331  1
  Ni  Ni25  1  0.83419990  0.83397418  0.16691488  1
  Ni  Ni26  1  0.66671678  0.66661447  0.33380537  1
  Ni  Ni27  1  0.16812359  0.16660754  0.50018934  1
  Ni  Ni28  1  0.00112153  0.00131270  0.66802178  1
  Ni  Ni29  1  0.16773649  0.16679887  0.83481306  1
  Ni  Ni30  1  0.16894732  0.50075002  0.49933400  1
  Cr  Cr31  1  1.00032331  0.33309275  0.66683922  1
  Ni  Ni32  1  0.16855919  0.50055822  0.83566810  1
  Ni  Ni33  1  0.16969594  0.83494931  0.50054782  1
  Cr  Cr34  1  0.00217995  0.66757866  0.66789601  1
  Fe  Fe35  1  0.16868654  0.83489217  0.83478098  1
  Ni  Ni36  1  0.50062129  0.16737426  0.50151557  1
  Ni  Ni37  1  0.33486218  1.00023997  0.66708807  1
  Ni  Ni38  1  0.50079659  0.16677882  0.83372027  1
  Ni  Ni39  1  0.50055219  0.50073837  0.50132457  1
  Ni  Ni40  1  0.33630939  0.33439397  0.66741539  1
  Ni  Ni41  1  0.50072796  0.50133501  0.83391084  1
  Ni  Ni42  1  0.49903397  0.83419384  0.50063127  1
  Ni  Ni43  1  0.33536902  0.66767233  0.66708785  1
  Ni  Ni44  1  0.50090749  0.83419339  0.83396206  1
  Ni  Ni45  1  0.83356155  0.16812544  0.50015926  1
  Ni  Ni46  1  0.66632347  0.00225598  0.66808823  1
  Ni  Ni47  1  0.83377351  0.16662167  0.83466559  1
  Ni  Ni48  1  0.83280460  0.49916124  0.49926806  1
  Ni  Ni49  1  0.66587552  0.33337866  0.66718623  1
  Ni  Ni50  1  0.83301692  0.50066767  0.83555592  1
  Cr  Cr51  1  0.83362949  0.83489205  0.50022894  1
  Fe  Fe52  1  0.66437255  0.66667467  0.66805736  1
  Fe  Fe53  1  0.83305783  0.83519817  0.83543411  1
" 