3101,Ni87Fe8Cr3_8,-239.161819438445, 185.013925867017,Ni87Fe8Cr3,"# generated using pymatgen
 data_Cr3Fe4Ni47
_symmetry_space_group_name_H-M   'P 1'
_cell_length_a   7.44945198
_cell_length_b   7.44945198
_cell_length_c   10.53511602
_cell_angle_alpha   90.00000000
_cell_angle_beta   90.00000000
_cell_angle_gamma   90.00000000
_symmetry_Int_Tables_number   1
_chemical_formula_structural   Cr3Fe4Ni47
_chemical_formula_sum   'Cr3 Fe4 Ni47'
_cell_volume   584.63925617
_cell_formula_units_Z   1
loop_
 _symmetry_equiv_pos_site_id
 _symmetry_equiv_pos_as_xyz
  1  'x, y, z'
loop_
 _atom_site_type_symbol
 _atom_site_label
 _atom_site_symmetry_multiplicity
 _atom_site_fract_x
 _atom_site_fract_y
 _atom_site_fract_z
 _atom_site_occupancy
  Ni  Ni0  1  0.00231179  0.00142311  0.00150812  1
  Ni  Ni1  1  0.16657712  0.16625642  0.16743501  1
  Ni  Ni2  1  1.00102203  0.99970705  0.33402219  1
  Ni  Ni3  1  0.00204606  0.33408608  1.00106259  1
  Ni  Ni4  1  0.16845763  0.50268612  0.16734078  1
  Cr  Cr5  1  0.00213607  0.33525439  0.33445951  1
  Ni  Ni6  1  0.00192912  0.66796304  0.00119084  1
  Ni  Ni7  1  0.16856000  0.83450266  0.16811576  1
  Ni  Ni8  1  0.00161351  0.66961451  0.33442330  1
  Fe  Fe9  1  0.33241438  1.00015057  1.00023858  1
  Cr  Cr10  1  0.50092023  0.16890376  0.16913599  1
  Ni  Ni11  1  0.33372619  0.99997395  0.33464895  1
  Ni  Ni12  1  0.33315266  0.33640354  1.00065923  1
  Ni  Ni13  1  0.50154047  0.50312188  0.16816794  1
  Ni  Ni14  1  0.33507035  0.33582080  0.33523472  1
  Ni  Ni15  1  0.33463197  0.66694190  0.00124777  1
  Ni  Ni16  1  0.49906237  0.83191338  0.16906643  1
  Ni  Ni17  1  0.33463260  0.66766789  0.33434930  1
  Cr  Cr18  1  0.66912009  0.99967284  0.99951045  1
  Ni  Ni19  1  0.83600194  0.16856930  0.16783189  1
  Ni  Ni20  1  0.66870071  0.99991508  0.33552076  1
  Ni  Ni21  1  0.66826714  0.33652055  1.00031839  1
  Ni  Ni22  1  0.83353919  0.50097064  0.16710073  1
  Ni  Ni23  1  0.66709876  0.33525799  0.33503145  1
  Ni  Ni24  1  0.66691725  0.66663041  1.00116450  1
  Fe  Fe25  1  0.83571113  0.83301460  0.16846291  1
  Ni  Ni26  1  0.66733938  0.66827175  0.33391356  1
  Fe  Fe27  1  0.16817034  0.16667088  0.50220201  1
  Ni  Ni28  1  1.00083712  1.00109114  0.66791550  1
  Ni  Ni29  1  0.16747876  0.16754041  0.83460711  1
  Ni  Ni30  1  0.16900236  0.50314145  0.50193029  1
  Ni  Ni31  1  0.00165196  0.33441918  0.66852485  1
  Ni  Ni32  1  0.16765298  0.50141052  0.83438175  1
  Ni  Ni33  1  0.16840304  0.83445155  0.50112796  1
  Ni  Ni34  1  0.00146679  0.66801234  0.66773273  1
  Ni  Ni35  1  0.16775610  0.83451824  0.83439233  1
  Fe  Fe36  1  0.50158758  0.16768624  0.50166744  1
  Ni  Ni37  1  0.33464208  1.00081760  0.66896414  1
  Ni  Ni38  1  0.50051323  0.16899179  0.83298743  1
  Ni  Ni39  1  0.50116758  0.50156792  0.50044178  1
  Ni  Ni40  1  0.33429359  0.33511671  0.66775802  1
  Ni  Ni41  1  0.50128780  0.50106269  0.83489081  1
  Ni  Ni42  1  0.50040364  0.83441595  0.50109631  1
  Ni  Ni43  1  0.33468296  0.66756691  0.66793857  1
  Ni  Ni44  1  0.49983677  0.83343057  0.83341051  1
  Ni  Ni45  1  0.83332766  0.16703928  0.50193957  1
  Ni  Ni46  1  0.66802307  1.00071433  0.66777713  1
  Ni  Ni47  1  0.83545567  0.16898183  0.83382627  1
  Ni  Ni48  1  0.83342993  0.50128476  0.50228346  1
  Ni  Ni49  1  0.66760636  0.33439045  0.66833866  1
  Ni  Ni50  1  0.83458667  0.50079812  0.83428339  1
  Ni  Ni51  1  0.83478695  0.83526329  0.50040966  1
  Ni  Ni52  1  0.66741434  0.66842908  0.66825370  1
  Ni  Ni53  1  0.83580862  0.83374666  0.83353105  1
" 