3602,Ni87Fe6Cr5_18,-238.008002968725, 179.917590357465,Ni87Fe6Cr5,"# generated using pymatgen
 data_Cr4Fe3Ni47
_symmetry_space_group_name_H-M   'P 1'
_cell_length_a   7.45435707
_cell_length_b   7.45435707
_cell_length_c   10.54205287
_cell_angle_alpha   90.00000000
_cell_angle_beta   90.00000000
_cell_angle_gamma   90.00000000
_symmetry_Int_Tables_number   1
_chemical_formula_structural   Cr4Fe3Ni47
_chemical_formula_sum   'Cr4 Fe3 Ni47'
_cell_volume   585.79488274
_cell_formula_units_Z   1
loop_
 _symmetry_equiv_pos_site_id
 _symmetry_equiv_pos_as_xyz
  1  'x, y, z'
loop_
 _atom_site_type_symbol
 _atom_site_label
 _atom_site_symmetry_multiplicity
 _atom_site_fract_x
 _atom_site_fract_y
 _atom_site_fract_z
 _atom_site_occupancy
  Ni  Ni0  1  1.00002634  1.00007729  1.00010785  1
  Cr  Cr1  1  0.16701957  0.16852656  0.16690776  1
  Ni  Ni2  1  0.99832949  1.00005377  0.33543933  1
  Ni  Ni3  1  1.00026815  0.33466632  0.99983203  1
  Ni  Ni4  1  0.16793853  0.50276127  0.16738600  1
  Ni  Ni5  1  0.99929327  0.33402493  0.33442744  1
  Ni  Ni6  1  0.00130098  0.66780950  0.00090050  1
  Ni  Ni7  1  0.16690781  0.83124758  0.16720105  1
  Ni  Ni8  1  1.00032689  0.66847428  0.33339453  1
  Ni  Ni9  1  0.33511786  1.00014794  0.99934700  1
  Ni  Ni10  1  0.50329019  0.16836419  0.16677498  1
  Cr  Cr11  1  0.33479395  1.00003553  0.33545159  1
  Ni  Ni12  1  0.33501190  0.33472967  1.00029339  1
  Ni  Ni13  1  0.50051396  0.50095152  0.16845427  1
  Ni  Ni14  1  0.33573391  0.33576268  0.33412055  1
  Ni  Ni15  1  0.33390673  0.66767418  0.00139340  1
  Ni  Ni16  1  0.50172478  0.83323822  0.16631542  1
  Ni  Ni17  1  0.33470414  0.66674210  0.33308675  1
  Ni  Ni18  1  0.66740916  0.00118336  0.00157521  1
  Ni  Ni19  1  0.83210949  0.16733406  0.16780880  1
  Ni  Ni20  1  0.66925977  0.00108278  0.33376704  1
  Ni  Ni21  1  0.66727381  0.33345614  1.00071543  1
  Ni  Ni22  1  0.83410179  0.50119399  0.16751501  1
  Ni  Ni23  1  0.66752930  0.33376918  0.33454506  1
  Ni  Ni24  1  0.66734575  0.66791353  1.00054604  1
  Ni  Ni25  1  0.83391953  0.83402547  0.16804999  1
  Ni  Ni26  1  0.66752373  0.66770202  0.33478168  1
  Ni  Ni27  1  0.16727078  0.16670068  0.50213477  1
  Ni  Ni28  1  0.00239268  0.00087603  0.66700701  1
  Ni  Ni29  1  0.16806777  0.16739504  0.83345849  1
  Cr  Cr30  1  0.16701320  0.50080934  0.50039065  1
  Ni  Ni31  1  1.00066658  0.33301031  0.66829315  1
  Ni  Ni32  1  0.16789916  0.50104730  0.83460365  1
  Ni  Ni33  1  0.16702859  0.83502185  0.50152699  1
  Ni  Ni34  1  1.00066863  0.66866668  0.66825796  1
  Ni  Ni35  1  0.16701579  0.83411092  0.83382513  1
  Ni  Ni36  1  0.50084231  0.16848453  0.50049467  1
  Fe  Fe37  1  0.33219666  0.00111910  0.66744666  1
  Ni  Ni38  1  0.49986575  0.16905611  0.83528461  1
  Fe  Fe39  1  0.50252256  0.50090348  0.50094964  1
  Ni  Ni40  1  0.33472937  0.33380748  0.66814066  1
  Ni  Ni41  1  0.50082353  0.50017753  0.83335471  1
  Ni  Ni42  1  0.50102567  0.83329858  0.50114006  1
  Ni  Ni43  1  0.33465588  0.66780051  0.66807437  1
  Fe  Fe44  1  0.50027066  0.83300045  0.83526922  1
  Ni  Ni45  1  0.83444067  0.16819125  0.49977027  1
  Cr  Cr46  1  0.66835054  0.00102249  0.66736294  1
  Ni  Ni47  1  0.83461923  0.16816972  0.83497557  1
  Ni  Ni48  1  0.83271440  0.50101468  0.50125865  1
  Ni  Ni49  1  0.66715615  0.33552764  0.66729482  1
  Ni  Ni50  1  0.83383152  0.50123176  0.83378031  1
  Ni  Ni51  1  0.83449761  0.83334802  0.49971535  1
  Ni  Ni52  1  0.66722890  0.66607440  0.66722723  1
  Ni  Ni53  1  0.83549028  0.83315172  0.83479004  1
" 