8683,Ni87Fe6Cr5_15,-237.976377201382, 179.284894819272,Ni87Fe6Cr5,"# generated using pymatgen
 data_Cr4Fe3Ni47
_symmetry_space_group_name_H-M   'P 1'
_cell_length_a   7.45392076
_cell_length_b   7.45392076
_cell_length_c   10.54143584
_cell_angle_alpha   90.00000000
_cell_angle_beta   90.00000000
_cell_angle_gamma   90.00000000
_symmetry_Int_Tables_number   1
_chemical_formula_structural   Cr4Fe3Ni47
_chemical_formula_sum   'Cr4 Fe3 Ni47'
_cell_volume   585.69202861
_cell_formula_units_Z   1
loop_
 _symmetry_equiv_pos_site_id
 _symmetry_equiv_pos_as_xyz
  1  'x, y, z'
loop_
 _atom_site_type_symbol
 _atom_site_label
 _atom_site_symmetry_multiplicity
 _atom_site_fract_x
 _atom_site_fract_y
 _atom_site_fract_z
 _atom_site_occupancy
  Cr  Cr0  1  0.99955056  1.00063218  0.00102509  1
  Ni  Ni1  1  0.16761737  0.17047929  0.16903983  1
  Ni  Ni2  1  0.00136888  0.00225155  0.33318587  1
  Ni  Ni3  1  1.00060563  0.33571135  1.00029205  1
  Ni  Ni4  1  0.16731498  0.50028317  0.16722469  1
  Ni  Ni5  1  0.00135751  0.33432151  0.33501501  1
  Ni  Ni6  1  1.00049415  0.66560011  0.00123627  1
  Ni  Ni7  1  0.16790193  0.83173185  0.16965364  1
  Ni  Ni8  1  0.00113594  0.66609573  0.33317568  1
  Cr  Cr9  1  0.33400825  0.00219399  0.00245882  1
  Ni  Ni10  1  0.50167833  0.16852730  0.16813912  1
  Ni  Ni11  1  0.33435231  0.00167506  0.33469918  1
  Ni  Ni12  1  0.33446052  0.33590673  1.00062966  1
  Ni  Ni13  1  0.50057470  0.50088726  0.16646137  1
  Ni  Ni14  1  0.33400070  0.33461393  0.33401016  1
  Ni  Ni15  1  0.33336876  0.66453699  0.00174867  1
  Ni  Ni16  1  0.50188268  0.83326816  0.16864919  1
  Ni  Ni17  1  0.33485332  0.66633601  0.33460833  1
  Ni  Ni18  1  0.66858768  0.00196679  0.00145567  1
  Ni  Ni19  1  0.83337598  0.16913180  0.16827019  1
  Ni  Ni20  1  0.66699116  0.00147162  0.33320772  1
  Ni  Ni21  1  0.66765960  0.33458800  0.00143284  1
  Ni  Ni22  1  0.83470937  0.50054789  0.16780367  1
  Fe  Fe23  1  0.66709711  0.33482193  0.33452458  1
  Ni  Ni24  1  0.66881513  0.66595133  0.00134497  1
  Ni  Ni25  1  0.83282320  0.83303793  0.16753280  1
  Ni  Ni26  1  0.66666978  0.66642514  0.33384303  1
  Ni  Ni27  1  0.16781044  0.16826059  0.50120441  1
  Ni  Ni28  1  0.00161484  0.00146472  0.66862682  1
  Ni  Ni29  1  0.16803668  0.17033243  0.83240779  1
  Ni  Ni30  1  0.16755696  0.50058542  0.50077740  1
  Fe  Fe31  1  1.00079754  0.33473760  0.66724045  1
  Ni  Ni32  1  0.16688140  0.50069398  0.83459394  1
  Ni  Ni33  1  0.16922823  0.83389018  0.50095775  1
  Ni  Ni34  1  0.00138450  0.66698302  0.66826966  1
  Ni  Ni35  1  0.16668520  0.83165157  0.83221876  1
  Ni  Ni36  1  0.50068080  0.16752131  0.50088819  1
  Ni  Ni37  1  0.33296194  0.00247717  0.66602891  1
  Ni  Ni38  1  0.50174921  0.16953023  0.83374094  1
  Ni  Ni39  1  0.50046426  0.50075688  0.50169227  1
  Ni  Ni40  1  0.33513362  0.33437623  0.66790792  1
  Fe  Fe41  1  0.50103184  0.49939780  0.83415262  1
  Ni  Ni42  1  0.49955330  0.83433794  0.50105472  1
  Ni  Ni43  1  0.33294752  0.66559621  0.66615225  1
  Cr  Cr44  1  0.50149589  0.83403238  0.83286205  1
  Ni  Ni45  1  0.83413797  0.16927963  0.50108722  1
  Ni  Ni46  1  0.66813418  0.00314355  0.66787353  1
  Ni  Ni47  1  0.83278470  0.16935331  0.83327272  1
  Ni  Ni48  1  0.83459658  0.49940137  0.50068610  1
  Ni  Ni49  1  0.66689879  0.33448363  0.66664481  1
  Ni  Ni50  1  0.83505161  0.50053604  0.83409770  1
  Cr  Cr51  1  0.83416025  0.83415463  0.50125110  1
  Ni  Ni52  1  0.66817538  0.66481476  0.66741071  1
  Ni  Ni53  1  0.83433963  0.83276161  0.83377993  1
" 