7437,Ni87Fe9Cr3_14,-239.251546245551, 184.802564468837,Ni87Fe9Cr3,"# generated using pymatgen
 data_Cr3Fe4Ni47
_symmetry_space_group_name_H-M   'P 1'
_cell_length_a   7.44815917
_cell_length_b   7.44815917
_cell_length_c   10.53328772
_cell_angle_alpha   90.00000000
_cell_angle_beta   90.00000000
_cell_angle_gamma   90.00000000
_symmetry_Int_Tables_number   1
_chemical_formula_structural   Cr3Fe4Ni47
_chemical_formula_sum   'Cr3 Fe4 Ni47'
_cell_volume   584.33492648
_cell_formula_units_Z   1
loop_
 _symmetry_equiv_pos_site_id
 _symmetry_equiv_pos_as_xyz
  1  'x, y, z'
loop_
 _atom_site_type_symbol
 _atom_site_label
 _atom_site_symmetry_multiplicity
 _atom_site_fract_x
 _atom_site_fract_y
 _atom_site_fract_z
 _atom_site_occupancy
  Fe  Fe0  1  0.00148369  1.00094818  0.00153752  1
  Ni  Ni1  1  0.16766700  0.16825929  0.16845883  1
  Ni  Ni2  1  1.00108037  0.00320461  0.33389781  1
  Ni  Ni3  1  0.00186392  0.33572572  0.00130224  1
  Ni  Ni4  1  0.16910237  0.50048888  0.16688659  1
  Ni  Ni5  1  0.00139701  0.33280917  0.33456618  1
  Ni  Ni6  1  1.00072459  0.66674503  1.00073742  1
  Ni  Ni7  1  0.16892183  0.83505595  0.16668098  1
  Cr  Cr8  1  0.00128515  0.66772939  0.33447926  1
  Ni  Ni9  1  0.33516412  0.00258408  0.00198734  1
  Ni  Ni10  1  0.50117187  0.16786789  0.16756826  1
  Ni  Ni11  1  0.33498788  0.00161416  0.33442011  1
  Ni  Ni12  1  0.33291000  0.33337793  0.00192653  1
  Ni  Ni13  1  0.50091355  0.50206913  0.16789786  1
  Ni  Ni14  1  0.33448756  0.33422104  0.33437593  1
  Ni  Ni15  1  0.33280846  0.66784195  0.00325093  1
  Ni  Ni16  1  0.50149191  0.83387166  0.16838375  1
  Ni  Ni17  1  0.33632554  0.66796868  0.33412200  1
  Ni  Ni18  1  0.66791901  0.00144141  0.00192233  1
  Ni  Ni19  1  0.83496706  0.16768397  0.16800509  1
  Ni  Ni20  1  0.66773504  0.00136822  0.33463032  1
  Fe  Fe21  1  0.66829088  0.33417703  0.00208734  1
  Ni  Ni22  1  0.83378246  0.50081062  0.16717153  1
  Ni  Ni23  1  0.66791899  0.33414992  0.33383371  1
  Ni  Ni24  1  0.67026601  0.66899154  0.00318722  1
  Ni  Ni25  1  0.83339267  0.83530815  0.16695068  1
  Ni  Ni26  1  0.66632640  0.66828325  0.33431241  1
  Ni  Ni27  1  0.16733795  0.16839966  0.50109646  1
  Ni  Ni28  1  1.00098038  1.00110362  0.66854613  1
  Ni  Ni29  1  0.16754337  0.16886716  0.83424930  1
  Ni  Ni30  1  0.16968980  0.50046023  0.50235475  1
  Ni  Ni31  1  0.00136625  0.33501940  0.66793157  1
  Ni  Ni32  1  0.16613215  0.50052963  0.83456782  1
  Ni  Ni33  1  0.16859476  0.83494250  0.50283236  1
  Ni  Ni34  1  1.00104592  0.66767921  0.66874982  1
  Fe  Fe35  1  0.16614062  0.83464188  0.83434064  1
  Ni  Ni36  1  0.50149482  0.16816533  0.50198473  1
  Ni  Ni37  1  0.33432159  0.00236536  0.66739528  1
  Ni  Ni38  1  0.50095178  0.16764361  0.83425274  1
  Ni  Ni39  1  0.50041449  0.50196308  0.50136095  1
  Ni  Ni40  1  0.33374752  0.33357453  0.66750539  1
  Cr  Cr41  1  0.50059990  0.50036934  0.83465440  1
  Ni  Ni42  1  0.50173818  0.83367559  0.50110771  1
  Ni  Ni43  1  0.33280478  0.66786633  0.66643184  1
  Cr  Cr44  1  0.50190071  0.83555819  0.83399185  1
  Ni  Ni45  1  0.83497101  0.16707186  0.50135031  1
  Ni  Ni46  1  0.66849797  0.00203922  0.66725077  1
  Ni  Ni47  1  0.83530972  0.16746186  0.83445251  1
  Fe  Fe48  1  0.83365082  0.50035535  0.50220981  1
  Ni  Ni49  1  0.66869129  0.33350899  0.66808675  1
  Ni  Ni50  1  0.83697629  0.50167244  0.83402774  1
  Ni  Ni51  1  0.83346803  0.83602178  0.50235392  1
  Ni  Ni52  1  0.66995021  0.66824918  0.66629880  1
  Ni  Ni53  1  0.83576603  0.83466949  0.83450713  1
" 