2555,Ni87Fe10Cr2_11,-240.086901517462, 189.313311137578,Ni87Fe10Cr2,"# generated using pymatgen
 data_Cr2Fe5Ni47
_symmetry_space_group_name_H-M   'P 1'
_cell_length_a   7.44301583
_cell_length_b   7.44301583
_cell_length_c   10.52601393
_cell_angle_alpha   90.00000000
_cell_angle_beta   90.00000000
_cell_angle_gamma   90.00000000
_symmetry_Int_Tables_number   1
_chemical_formula_structural   Cr2Fe5Ni47
_chemical_formula_sum   'Cr2 Fe5 Ni47'
_cell_volume   583.12522074
_cell_formula_units_Z   1
loop_
 _symmetry_equiv_pos_site_id
 _symmetry_equiv_pos_as_xyz
  1  'x, y, z'
loop_
 _atom_site_type_symbol
 _atom_site_label
 _atom_site_symmetry_multiplicity
 _atom_site_fract_x
 _atom_site_fract_y
 _atom_site_fract_z
 _atom_site_occupancy
  Ni  Ni0  1  0.00268708  0.00165776  1.00136098  1
  Ni  Ni1  1  0.16824806  0.16809805  0.16788338  1
  Ni  Ni2  1  0.00224018  1.00104397  0.33480496  1
  Ni  Ni3  1  1.00131978  0.33523164  0.00183445  1
  Ni  Ni4  1  0.16844176  0.50192061  0.16819221  1
  Fe  Fe5  1  1.00159272  0.33495559  0.33495369  1
  Ni  Ni6  1  1.00151345  0.66795212  1.00160756  1
  Ni  Ni7  1  0.16793763  0.83482471  0.16818780  1
  Ni  Ni8  1  0.00178803  0.66867492  0.33486268  1
  Ni  Ni9  1  0.33468448  0.00196973  0.00199105  1
  Ni  Ni10  1  0.50195570  0.16840778  0.16818912  1
  Ni  Ni11  1  0.33457447  0.00207968  0.33494003  1
  Fe  Fe12  1  0.33500901  0.33443020  1.00144327  1
  Ni  Ni13  1  0.50176243  0.50161075  0.16849762  1
  Ni  Ni14  1  0.33580178  0.33467030  0.33503860  1
  Fe  Fe15  1  0.33469091  0.66855821  0.00175836  1
  Ni  Ni16  1  0.50195777  0.83482449  0.16777064  1
  Ni  Ni17  1  0.33457452  0.66809271  0.33484466  1
  Ni  Ni18  1  0.66746854  0.00215852  1.00147150  1
  Ni  Ni19  1  0.83463878  0.16790008  0.16803352  1
  Ni  Ni20  1  0.66802851  0.00227218  0.33499865  1
  Ni  Ni21  1  0.66833383  0.33523347  0.00178190  1
  Ni  Ni22  1  0.83463925  0.50192137  0.16761675  1
  Ni  Ni23  1  0.66744539  0.33512210  0.33468836  1
  Ni  Ni24  1  0.66864367  0.66745049  0.00171255  1
  Ni  Ni25  1  0.83494807  0.83502156  0.16834084  1
  Ni  Ni26  1  0.66848005  0.66744923  0.33505607  1
  Ni  Ni27  1  0.16757641  0.16923262  0.50158535  1
  Ni  Ni28  1  1.00052443  1.00148644  0.66867790  1
  Ni  Ni29  1  0.16735668  0.16922796  0.83537322  1
  Ni  Ni30  1  0.16887480  0.50168168  0.50237167  1
  Ni  Ni31  1  0.00344249  0.33519535  0.66795316  1
  Ni  Ni32  1  0.16937616  0.50179505  0.83428205  1
  Ni  Ni33  1  0.16726749  0.83393040  0.50104133  1
  Ni  Ni34  1  0.00188418  0.66815936  0.66837391  1
  Ni  Ni35  1  0.16631828  0.83382051  0.83561348  1
  Ni  Ni36  1  0.50182800  0.16850425  0.50024322  1
  Cr  Cr37  1  0.33465636  0.00199450  0.66752047  1
  Ni  Ni38  1  0.50216349  0.16923302  0.83640985  1
  Ni  Ni39  1  0.50053320  0.50240819  0.50103115  1
  Ni  Ni40  1  0.33327233  0.33655970  0.66863806  1
  Ni  Ni41  1  0.50015310  0.50180442  0.83531732  1
  Ni  Ni42  1  0.50286579  0.83392882  0.50169848  1
  Ni  Ni43  1  0.33451789  0.66648957  0.66833357  1
  Fe  Fe44  1  0.50228995  0.83478557  0.83555457  1
  Ni  Ni45  1  0.83543851  0.16689744  0.50133581  1
  Ni  Ni46  1  0.66980620  1.00023767  0.66837470  1
  Ni  Ni47  1  0.83532443  0.16617087  0.83547249  1
  Ni  Ni48  1  0.83543803  0.50271881  0.50155783  1
  Cr  Cr49  1  0.66811700  0.33489339  0.66805806  1
  Fe  Fe50  1  0.83627898  0.50202604  0.83591820  1
  Ni  Ni51  1  0.83471189  0.83522664  0.50206576  1
  Ni  Ni52  1  0.66844174  0.66940562  0.66807630  1
  Ni  Ni53  1  0.83531308  0.83583069  0.83443764  1
" 