1533,Ni87Fe10Cr2_19,-240.236500272504, 189.961543468011,Ni87Fe10Cr2,"# generated using pymatgen
 data_Cr2Fe5Ni47
_symmetry_space_group_name_H-M   'P 1'
_cell_length_a   7.44260099
_cell_length_b   7.44260099
_cell_length_c   10.52542725
_cell_angle_alpha   90.00000000
_cell_angle_beta   90.00000000
_cell_angle_gamma   90.00000000
_symmetry_Int_Tables_number   1
_chemical_formula_structural   Cr2Fe5Ni47
_chemical_formula_sum   'Cr2 Fe5 Ni47'
_cell_volume   583.02772325
_cell_formula_units_Z   1
loop_
 _symmetry_equiv_pos_site_id
 _symmetry_equiv_pos_as_xyz
  1  'x, y, z'
loop_
 _atom_site_type_symbol
 _atom_site_label
 _atom_site_symmetry_multiplicity
 _atom_site_fract_x
 _atom_site_fract_y
 _atom_site_fract_z
 _atom_site_occupancy
  Ni  Ni0  1  1.00019094  0.00201919  1.00010704  1
  Ni  Ni1  1  0.16805557  0.17066588  0.16804411  1
  Ni  Ni2  1  1.00040202  0.00219922  0.33624576  1
  Ni  Ni3  1  1.00150194  0.33527088  0.00181759  1
  Ni  Ni4  1  0.16912133  0.49967893  0.16860128  1
  Ni  Ni5  1  0.00171252  0.33512368  0.33457841  1
  Ni  Ni6  1  1.00150526  0.66763748  1.00076485  1
  Cr  Cr7  1  0.16837333  0.83493515  0.16853031  1
  Ni  Ni8  1  1.00091479  0.66760319  0.33593323  1
  Ni  Ni9  1  0.33646901  0.00202589  1.00066784  1
  Ni  Ni10  1  0.50216814  0.16883127  0.16881534  1
  Ni  Ni11  1  0.33619534  0.00214358  0.33567807  1
  Ni  Ni12  1  0.33490081  0.33500746  0.00167371  1
  Ni  Ni13  1  0.50105160  0.50145832  0.16793119  1
  Ni  Ni14  1  0.33469213  0.33498923  0.33472683  1
  Ni  Ni15  1  0.33488964  0.66789332  1.00061943  1
  Ni  Ni16  1  0.50369359  0.83463715  0.16840057  1
  Ni  Ni17  1  0.33554642  0.66779578  0.33608843  1
  Ni  Ni18  1  0.66826736  0.00202642  0.00205055  1
  Ni  Ni19  1  0.83470378  0.16802336  0.16808968  1
  Ni  Ni20  1  0.66833074  1.00134446  0.33455040  1
  Ni  Ni21  1  0.66852396  0.33369088  1.00117544  1
  Fe  Fe22  1  0.83488541  0.50109189  0.16851411  1
  Ni  Ni23  1  0.66852126  0.33447723  0.33547983  1
  Fe  Fe24  1  0.66830968  0.66894446  1.00164189  1
  Ni  Ni25  1  0.83292090  0.83570182  0.16840035  1
  Ni  Ni26  1  0.66846530  0.66910488  0.33481625  1
  Ni  Ni27  1  0.16777610  0.16835284  0.50155012  1
  Fe  Fe28  1  0.00340612  0.00169667  0.66826340  1
  Ni  Ni29  1  0.16857518  0.16856324  0.83533046  1
  Ni  Ni30  1  0.16877382  0.50145288  0.50135995  1
  Ni  Ni31  1  1.00154869  0.33595297  0.66852957  1
  Ni  Ni32  1  0.16797092  0.50163229  0.83496565  1
  Ni  Ni33  1  0.16883288  0.83512253  0.50192540  1
  Ni  Ni34  1  0.00180398  0.66758916  0.66822875  1
  Ni  Ni35  1  0.16883059  0.83473235  0.83465424  1
  Fe  Fe36  1  0.50075565  0.16920182  0.50086117  1
  Ni  Ni37  1  0.33397969  1.00132813  0.66858570  1
  Ni  Ni38  1  0.50097299  0.16869500  0.83561703  1
  Ni  Ni39  1  0.50180651  0.50231840  0.50231739  1
  Ni  Ni40  1  0.33444581  0.33488856  0.66852876  1
  Fe  Fe41  1  0.50150211  0.50132914  0.83464755  1
  Ni  Ni42  1  0.50081384  0.83331820  0.50029456  1
  Ni  Ni43  1  0.33425145  0.66870948  0.66821864  1
  Ni  Ni44  1  0.50071895  0.83459564  0.83623022  1
  Ni  Ni45  1  0.83614879  0.16934754  0.50094853  1
  Cr  Cr46  1  0.66802035  0.00168625  0.66804307  1
  Ni  Ni47  1  0.83538108  0.16955573  0.83588477  1
  Ni  Ni48  1  0.83434692  0.50126293  0.50133220  1
  Ni  Ni49  1  0.66893219  0.33622275  0.66827321  1
  Ni  Ni50  1  0.83524542  0.50137774  0.83493946  1
  Ni  Ni51  1  0.83528260  0.83431811  0.50075190  1
  Ni  Ni52  1  0.66887170  0.66712253  0.66868930  1
  Ni  Ni53  1  0.83537949  0.83399272  0.83577312  1
" 