5246,Ni87Fe10Cr2_9,-240.001135469971, 188.652353382428,Ni87Fe10Cr2,"# generated using pymatgen
 data_Cr2Fe5Ni47
_symmetry_space_group_name_H-M   'P 1'
_cell_length_a   7.44220373
_cell_length_b   7.44220373
_cell_length_c   10.52486544
_cell_angle_alpha   90.00000000
_cell_angle_beta   90.00000000
_cell_angle_gamma   90.00000000
_symmetry_Int_Tables_number   1
_chemical_formula_structural   Cr2Fe5Ni47
_chemical_formula_sum   'Cr2 Fe5 Ni47'
_cell_volume   582.93436863
_cell_formula_units_Z   1
loop_
 _symmetry_equiv_pos_site_id
 _symmetry_equiv_pos_as_xyz
  1  'x, y, z'
loop_
 _atom_site_type_symbol
 _atom_site_label
 _atom_site_symmetry_multiplicity
 _atom_site_fract_x
 _atom_site_fract_y
 _atom_site_fract_z
 _atom_site_occupancy
  Ni  Ni0  1  1.00143083  0.00190519  1.00166730  1
  Ni  Ni1  1  0.16678205  0.16832882  0.16811719  1
  Fe  Fe2  1  1.00161284  1.00121066  0.33463914  1
  Ni  Ni3  1  1.00162529  0.33476031  0.00233585  1
  Ni  Ni4  1  0.16854997  0.50167522  0.16843065  1
  Fe  Fe5  1  0.00167972  0.33542101  0.33508707  1
  Ni  Ni6  1  1.00162566  0.66834139  1.00114933  1
  Ni  Ni7  1  0.16854488  0.83500308  0.16842486  1
  Ni  Ni8  1  1.00162555  0.66834151  0.33546556  1
  Ni  Ni9  1  0.33407312  1.00086232  1.00061670  1
  Cr  Cr10  1  0.50166562  0.16834218  0.16815749  1
  Ni  Ni11  1  0.33436045  1.00098215  0.33614687  1
  Ni  Ni12  1  0.33361964  0.33554673  1.00055551  1
  Ni  Ni13  1  0.50167500  0.50343773  0.16827658  1
  Ni  Ni14  1  0.33390592  0.33542650  0.33620819  1
  Ni  Ni15  1  0.33466334  0.66859851  0.00212119  1
  Ni  Ni16  1  0.50166974  0.83323113  0.16827727  1
  Ni  Ni17  1  0.33421028  0.66859969  0.33495592  1
  Ni  Ni18  1  0.66950465  1.00086242  1.00098851  1
  Ni  Ni19  1  0.83655592  0.16833323  0.16811898  1
  Ni  Ni20  1  0.66922149  1.00098208  0.33577450  1
  Ni  Ni21  1  0.66976206  0.33535165  1.00035832  1
  Ni  Ni22  1  0.83478264  0.50167504  0.16843078  1
  Ni  Ni23  1  0.66947661  0.33523182  0.33640534  1
  Ni  Ni24  1  0.66871847  0.66879326  0.00192427  1
  Ni  Ni25  1  0.83479347  0.83499884  0.16842572  1
  Ni  Ni26  1  0.66917129  0.66879340  0.33515265  1
  Ni  Ni27  1  0.16825496  0.16817643  0.50172659  1
  Fe  Fe28  1  0.00341029  0.00229291  0.66869913  1
  Ni  Ni29  1  0.16865237  0.16818905  0.83516849  1
  Ni  Ni30  1  0.16906662  0.50119804  0.50162194  1
  Ni  Ni31  1  0.00179558  0.33519311  0.66797088  1
  Ni  Ni32  1  0.16872193  0.50130889  0.83495675  1
  Ni  Ni33  1  0.16911699  0.83563376  0.50181271  1
  Fe  Fe34  1  0.00196354  0.66752752  0.66822609  1
  Ni  Ni35  1  0.16878383  0.83551033  0.83476747  1
  Fe  Fe36  1  0.50078254  0.16916966  0.50103993  1
  Ni  Ni37  1  0.33321549  1.00136543  0.66824018  1
  Ni  Ni38  1  0.50085929  0.16918276  0.83526966  1
  Ni  Ni39  1  0.50190894  0.50205670  0.50166797  1
  Ni  Ni40  1  0.33374181  0.33500293  0.66823948  1
  Ni  Ni41  1  0.50190955  0.50143901  0.83506336  1
  Ni  Ni42  1  0.50086502  0.83376851  0.50056944  1
  Ni  Ni43  1  0.33460741  0.66863994  0.66793035  1
  Ni  Ni44  1  0.50086099  0.83438772  0.83616376  1
  Ni  Ni45  1  0.83589500  0.16922474  0.50067531  1
  Cr  Cr46  1  0.66803391  1.00139297  0.66856125  1
  Ni  Ni47  1  0.83549613  0.16924096  0.83621920  1
  Ni  Ni48  1  0.83403203  0.50119779  0.50186673  1
  Ni  Ni49  1  0.66947074  0.33657616  0.66823989  1
  Ni  Ni50  1  0.83437686  0.50130957  0.83471159  1
  Ni  Ni51  1  0.83502984  0.83458695  0.50076342  1
  Ni  Ni52  1  0.66860751  0.66706882  0.66792989  1
  Ni  Ni53  1  0.83536689  0.83445603  0.83581939  1
" 