1806,Ni87Fe6Cr5_17,-238.064291374052, 178.320520961222,Ni87Fe6Cr5,"# generated using pymatgen
 data_Cr4Fe3Ni47
_symmetry_space_group_name_H-M   'P 1'
_cell_length_a   7.45502588
_cell_length_b   7.45502588
_cell_length_c   10.54299870
_cell_angle_alpha   90.00000000
_cell_angle_beta   90.00000000
_cell_angle_gamma   90.00000000
_symmetry_Int_Tables_number   1
_chemical_formula_structural   Cr4Fe3Ni47
_chemical_formula_sum   'Cr4 Fe3 Ni47'
_cell_volume   585.95256990
_cell_formula_units_Z   1
loop_
 _symmetry_equiv_pos_site_id
 _symmetry_equiv_pos_as_xyz
  1  'x, y, z'
loop_
 _atom_site_type_symbol
 _atom_site_label
 _atom_site_symmetry_multiplicity
 _atom_site_fract_x
 _atom_site_fract_y
 _atom_site_fract_z
 _atom_site_occupancy
  Ni  Ni0  1  0.00185090  0.00262555  0.00178397  1
  Ni  Ni1  1  0.16804727  0.16728787  0.16803500  1
  Ni  Ni2  1  0.00107115  0.99994162  0.33366308  1
  Ni  Ni3  1  0.00103246  0.33287745  0.00099217  1
  Ni  Ni4  1  0.16804425  0.50081898  0.16647679  1
  Ni  Ni5  1  0.00246577  0.33237937  0.33112339  1
  Fe  Fe6  1  0.00097407  0.66704950  0.00177988  1
  Ni  Ni7  1  0.16801751  0.83426861  0.16725337  1
  Ni  Ni8  1  0.00158392  0.67001998  0.33162723  1
  Ni  Ni9  1  0.33343168  1.00044758  0.00150883  1
  Ni  Ni10  1  0.50036035  0.16756992  0.16675046  1
  Fe  Fe11  1  0.33480073  1.00044601  0.33377211  1
  Ni  Ni12  1  0.33384630  0.33450234  0.00089037  1
  Ni  Ni13  1  0.50044080  0.50080517  0.16791501  1
  Ni  Ni14  1  0.33484414  0.33429572  0.33308478  1
  Ni  Ni15  1  0.33498865  0.66741209  1.00063996  1
  Ni  Ni16  1  0.50042440  0.83407484  0.16670068  1
  Ni  Ni17  1  0.33512118  0.66772279  0.33342515  1
  Ni  Ni18  1  0.66706410  0.00135152  0.00141323  1
  Ni  Ni19  1  0.83408476  0.16738378  0.16680587  1
  Ni  Ni20  1  0.66766066  0.99963523  0.33306386  1
  Ni  Ni21  1  0.66768857  0.33462326  0.00107889  1
  Ni  Ni22  1  0.83390212  0.50072341  0.16787546  1
  Ni  Ni23  1  0.66504325  0.33358839  0.33194848  1
  Ni  Ni24  1  0.66528513  0.66649909  0.00220478  1
  Ni  Ni25  1  0.83402546  0.83420383  0.16749954  1
  Ni  Ni26  1  0.66566721  0.66924774  0.33354569  1
  Ni  Ni27  1  0.16965985  0.16577616  0.50050364  1
  Ni  Ni28  1  0.00273317  1.00078382  0.66718812  1
  Ni  Ni29  1  0.16818768  0.16625674  0.83381501  1
  Cr  Cr30  1  0.16869836  0.50025599  0.50127181  1
  Ni  Ni31  1  0.00226195  0.33272161  0.67032292  1
  Fe  Fe32  1  0.16862555  0.50033116  0.83467563  1
  Ni  Ni33  1  0.16780906  0.83527148  0.50080978  1
  Ni  Ni34  1  0.00204461  0.66875947  0.66891089  1
  Ni  Ni35  1  0.16944656  0.83519561  0.83421739  1
  Ni  Ni36  1  0.49899725  0.16762143  0.50096902  1
  Ni  Ni37  1  0.33391564  1.00055616  0.66688228  1
  Ni  Ni38  1  0.49980222  0.16752754  0.83460205  1
  Ni  Ni39  1  0.50030721  0.50055592  0.50070733  1
  Ni  Ni40  1  0.33509207  0.33331585  0.66841853  1
  Ni  Ni41  1  0.50155545  0.50088386  0.83383077  1
  Ni  Ni42  1  0.50038048  0.83421449  0.50130293  1
  Ni  Ni43  1  0.33530590  0.66838699  0.66840416  1
  Ni  Ni44  1  0.49838864  0.83405248  0.83442283  1
  Cr  Cr45  1  0.83419093  0.16697573  0.50174519  1
  Ni  Ni46  1  0.66562822  1.00066474  0.66807199  1
  Ni  Ni47  1  0.83438471  0.16931337  0.83423115  1
  Cr  Cr48  1  0.83258243  0.50225998  0.50014715  1
  Ni  Ni49  1  0.66536097  0.33416826  0.66928399  1
  Ni  Ni50  1  0.83329368  0.49949323  0.83392738  1
  Ni  Ni51  1  0.83437411  0.83407316  0.50103222  1
  Ni  Ni52  1  0.66530279  0.66770557  0.66673927  1
  Cr  Cr53  1  0.83344308  0.83461687  0.83424787  1
" 