8240,Ni87Fe13_8,-230.023782319001, 168.804420883724,Ni87Fe13,"# generated using pymatgen
 data_Fe23Ni4
_symmetry_space_group_name_H-M   'P 1'
_cell_length_a   7.40290231
_cell_length_b   7.40290231
_cell_length_c   10.46928485
_cell_angle_alpha   90.00000000
_cell_angle_beta   90.00000000
_cell_angle_gamma   90.00000000
_symmetry_Int_Tables_number   1
_chemical_formula_structural   Fe23Ni4
_chemical_formula_sum   'Fe46 Ni8'
_cell_volume   573.74782681
_cell_formula_units_Z   2
loop_
 _symmetry_equiv_pos_site_id
 _symmetry_equiv_pos_as_xyz
  1  'x, y, z'
loop_
 _atom_site_type_symbol
 _atom_site_label
 _atom_site_symmetry_multiplicity
 _atom_site_fract_x
 _atom_site_fract_y
 _atom_site_fract_z
 _atom_site_occupancy
  Fe  Fe0  1  1.00336432  1.00378087  1.00407549  1
  Fe  Fe1  1  0.17130023  0.17086884  0.17124841  1
  Fe  Fe2  1  1.00366457  0.00467073  0.33808673  1
  Fe  Fe3  1  1.00322686  0.33766500  0.00506041  1
  Fe  Fe4  1  0.17130225  0.50454957  0.17133504  1
  Ni  Ni5  1  0.00536107  0.33819706  0.33857373  1
  Fe  Fe6  1  1.00327918  0.67155153  1.00416115  1
  Fe  Fe7  1  0.17166869  0.83758092  0.17091376  1
  Fe  Fe8  1  1.00361460  0.67121927  0.33808657  1
  Fe  Fe9  1  0.33888368  1.00344703  0.00458345  1
  Fe  Fe10  1  0.50475503  0.16990958  0.17099784  1
  Fe  Fe11  1  0.33777916  0.00463393  0.33732939  1
  Fe  Fe12  1  0.33868663  0.33766496  1.00369368  1
  Fe  Fe13  1  0.50441532  0.50516676  0.17066249  1
  Fe  Fe14  1  0.33755623  0.33711294  0.33822181  1
  Fe  Fe15  1  0.33896866  0.67188520  0.00466903  1
  Ni  Ni16  1  0.50475769  0.83777559  0.17098507  1
  Fe  Fe17  1  0.33783320  0.67124976  0.33732987  1
  Ni  Ni18  1  0.67088774  1.00292118  1.00380648  1
  Fe  Fe19  1  0.83694461  0.17028077  0.17125318  1
  Ni  Ni20  1  0.67076613  1.00328782  0.33789831  1
  Fe  Fe21  1  0.67108367  0.33775042  1.00360844  1
  Fe  Fe22  1  0.83728331  0.50479683  0.17091504  1
  Fe  Fe23  1  0.67158799  0.33716189  0.33830443  1
  Ni  Ni24  1  0.67088812  0.67251335  0.00444131  1
  Fe  Fe25  1  0.83632702  0.83791965  0.17121664  1
  Fe  Fe26  1  0.67155026  0.67144266  0.33711176  1
  Fe  Fe27  1  0.17045023  0.17094525  0.50433473  1
  Fe  Fe28  1  1.00425082  0.00510171  0.67083438  1
  Fe  Fe29  1  0.17124929  0.17125178  0.83741721  1
  Fe  Fe30  1  0.17045146  0.50447373  0.50424767  1
  Fe  Fe31  1  0.00441534  0.33766509  0.67053115  1
  Fe  Fe32  1  0.17124869  0.50408100  0.83741782  1
  Fe  Fe33  1  0.17041583  0.83758093  0.50450635  1
  Fe  Fe34  1  1.00416520  0.67023058  0.67074883  1
  Fe  Fe35  1  0.17091466  0.83766519  0.83757721  1
  Fe  Fe36  1  0.50513315  0.17069570  0.50475325  1
  Fe  Fe37  1  0.33804898  0.00546901  0.67108438  1
  Fe  Fe38  1  0.50449685  0.17133336  0.83724295  1
  Fe  Fe39  1  0.50479925  0.50438657  0.50508784  1
  Ni  Ni40  1  0.33747466  0.33796496  0.67060397  1
  Fe  Fe41  1  0.50449748  0.50399894  0.83724516  1
  Fe  Fe42  1  0.50508053  0.83791301  0.50335771  1
  Fe  Fe43  1  0.33813478  0.66986578  0.67099855  1
  Fe  Fe44  1  0.50474588  0.83766555  0.83897111  1
  Fe  Fe45  1  0.83741361  0.17066264  0.50399482  1
  Fe  Fe46  1  0.67069695  0.00521416  0.67066320  1
  Fe  Fe47  1  0.83724979  0.17099892  0.83775130  1
  Fe  Fe48  1  0.83774793  0.50441891  0.50433307  1
  Ni  Ni49  1  0.67038743  0.33756406  0.67089783  1
  Fe  Fe50  1  0.83724974  0.50433285  0.83775295  1
  Ni  Ni51  1  0.83746464  0.83777093  0.50412091  1
  Fe  Fe52  1  0.67069737  0.67003164  0.67130186  1
  Fe  Fe53  1  0.83733510  0.83766553  0.83760616  1
" 