8960,Ni87Fe8Cr3_17,-239.184196506365, 185.379230923203,Ni87Fe8Cr3,"# generated using pymatgen
 data_Cr3Fe4Ni47
_symmetry_space_group_name_H-M   'P 1'
_cell_length_a   7.44875432
_cell_length_b   7.44875432
_cell_length_c   10.53412939
_cell_angle_alpha   90.00000000
_cell_angle_beta   90.00000000
_cell_angle_gamma   90.00000000
_symmetry_Int_Tables_number   1
_chemical_formula_structural   Cr3Fe4Ni47
_chemical_formula_sum   'Cr3 Fe4 Ni47'
_cell_volume   584.47501302
_cell_formula_units_Z   1
loop_
 _symmetry_equiv_pos_site_id
 _symmetry_equiv_pos_as_xyz
  1  'x, y, z'
loop_
 _atom_site_type_symbol
 _atom_site_label
 _atom_site_symmetry_multiplicity
 _atom_site_fract_x
 _atom_site_fract_y
 _atom_site_fract_z
 _atom_site_occupancy
  Ni  Ni0  1  0.00143046  0.00175431  1.00111729  1
  Ni  Ni1  1  0.16762037  0.16638529  0.16801061  1
  Ni  Ni2  1  0.00123802  1.00048417  0.33438979  1
  Ni  Ni3  1  1.00000608  0.33319753  1.00120257  1
  Cr  Cr4  1  0.16892770  0.50112426  0.16782021  1
  Fe  Fe5  1  1.00059719  0.33337859  0.33478333  1
  Fe  Fe6  1  1.00022361  0.66868054  1.00051036  1
  Ni  Ni7  1  0.16770562  0.83624709  0.16835482  1
  Ni  Ni8  1  1.00040633  0.66974989  0.33529519  1
  Ni  Ni9  1  0.33428894  1.00085940  0.00183103  1
  Ni  Ni10  1  0.50162681  0.16802310  0.16867706  1
  Ni  Ni11  1  0.33373073  1.00102499  0.33429866  1
  Ni  Ni12  1  0.33522232  0.33365250  0.99997869  1
  Ni  Ni13  1  0.50249878  0.50110223  0.16755203  1
  Ni  Ni14  1  0.33520191  0.33287023  0.33436500  1
  Ni  Ni15  1  0.33627881  0.66924231  1.00062651  1
  Ni  Ni16  1  0.50161503  0.83443542  0.16875001  1
  Ni  Ni17  1  0.33428871  0.66933678  0.33430543  1
  Ni  Ni18  1  0.66792273  1.00089302  0.00160726  1
  Ni  Ni19  1  0.83435974  0.16727406  0.16769265  1
  Ni  Ni20  1  0.66844287  0.00124738  0.33418731  1
  Ni  Ni21  1  0.66834118  0.33506620  1.00112588  1
  Ni  Ni22  1  0.83263847  0.50098458  0.16917042  1
  Ni  Ni23  1  0.66845838  0.33394851  0.33369627  1
  Ni  Ni24  1  0.66756050  0.66773697  0.00183869  1
  Ni  Ni25  1  0.83429351  0.83534638  0.16792491  1
  Ni  Ni26  1  0.66911480  0.66847206  0.33345058  1
  Ni  Ni27  1  0.16715404  0.16719175  0.50003663  1
  Ni  Ni28  1  0.00133812  0.99993433  0.66808905  1
  Ni  Ni29  1  0.16835091  0.16705249  0.83551583  1
  Ni  Ni30  1  0.16868032  0.50175821  0.50041913  1
  Cr  Cr31  1  0.00134525  0.33420500  0.66748718  1
  Ni  Ni32  1  0.16905646  0.50186074  0.83497385  1
  Ni  Ni33  1  0.16755566  0.83457294  0.50129449  1
  Ni  Ni34  1  0.00146452  0.66967461  0.66831536  1
  Ni  Ni35  1  0.16784911  0.83488194  0.83416895  1
  Fe  Fe36  1  0.50053223  0.16560960  0.50126060  1
  Ni  Ni37  1  0.33398219  1.00080386  0.66746211  1
  Ni  Ni38  1  0.50166398  0.16773292  0.83340566  1
  Cr  Cr39  1  0.50070773  0.50191750  0.50165968  1
  Ni  Ni40  1  0.33483110  0.33371929  0.66921697  1
  Ni  Ni41  1  0.50117381  0.50137045  0.83476114  1
  Ni  Ni42  1  0.50197250  0.83488171  0.50093057  1
  Ni  Ni43  1  0.33370713  0.66883413  0.66860844  1
  Ni  Ni44  1  0.50161378  0.83451645  0.83394422  1
  Ni  Ni45  1  0.83385582  0.16602289  0.50033661  1
  Ni  Ni46  1  0.66812861  1.00102838  0.66774699  1
  Ni  Ni47  1  0.83365633  0.16667909  0.83549560  1
  Fe  Fe48  1  0.83553315  0.50330562  0.50065127  1
  Ni  Ni49  1  0.66751186  0.33374384  0.66899483  1
  Ni  Ni50  1  0.83340888  0.50186761  0.83450420  1
  Ni  Ni51  1  0.83427367  0.83641304  0.50160258  1
  Ni  Ni52  1  0.66876184  0.66885483  0.66861392  1
  Ni  Ni53  1  0.83416029  0.83535789  0.83425050  1
" 