3091,Ni87Fe6Cr5_19,-238.160308580541, 181.128938784834,Ni87Fe6Cr5,"# generated using pymatgen
 data_Cr4Fe3Ni47
_symmetry_space_group_name_H-M   'P 1'
_cell_length_a   7.45445558
_cell_length_b   7.45445558
_cell_length_c   10.54219218
_cell_angle_alpha   90.00000000
_cell_angle_beta   90.00000000
_cell_angle_gamma   90.00000000
_symmetry_Int_Tables_number   1
_chemical_formula_structural   Cr4Fe3Ni47
_chemical_formula_sum   'Cr4 Fe3 Ni47'
_cell_volume   585.81810792
_cell_formula_units_Z   1
loop_
 _symmetry_equiv_pos_site_id
 _symmetry_equiv_pos_as_xyz
  1  'x, y, z'
loop_
 _atom_site_type_symbol
 _atom_site_label
 _atom_site_symmetry_multiplicity
 _atom_site_fract_x
 _atom_site_fract_y
 _atom_site_fract_z
 _atom_site_occupancy
  Ni  Ni0  1  1.00026601  0.99997608  0.00185899  1
  Ni  Ni1  1  0.16750986  0.16755388  0.16813498  1
  Fe  Fe2  1  1.00013905  0.00128079  0.33322314  1
  Ni  Ni3  1  0.99882013  0.33555447  0.00184360  1
  Ni  Ni4  1  0.16745732  0.50076936  0.16764015  1
  Ni  Ni5  1  0.00215350  0.33514570  0.33452196  1
  Ni  Ni6  1  0.00165280  0.66704151  1.00043711  1
  Ni  Ni7  1  0.16747133  0.83422481  0.16700760  1
  Ni  Ni8  1  1.00042034  0.66540510  0.33314422  1
  Ni  Ni9  1  0.33551818  0.99847603  0.00136060  1
  Ni  Ni10  1  0.49986970  0.16672810  0.16628515  1
  Ni  Ni11  1  0.33635152  0.00125878  0.33359422  1
  Fe  Fe12  1  0.33501356  0.33514140  0.00172778  1
  Ni  Ni13  1  0.50030659  0.50193914  0.16687059  1
  Ni  Ni14  1  0.33221737  0.33391585  0.33423836  1
  Ni  Ni15  1  0.33379611  0.66884687  0.00100142  1
  Ni  Ni16  1  0.50118523  0.83391727  0.16793170  1
  Ni  Ni17  1  0.33443987  0.66744227  0.33327006  1
  Ni  Ni18  1  0.66673878  0.00124758  0.00087366  1
  Ni  Ni19  1  0.83512777  0.16665698  0.16642912  1
  Ni  Ni20  1  0.66635041  0.99951480  0.33396892  1
  Ni  Ni21  1  0.66858159  0.33377920  1.00057514  1
  Ni  Ni22  1  0.83474543  0.50205537  0.16662514  1
  Cr  Cr23  1  0.66816033  0.33335306  0.33430090  1
  Ni  Ni24  1  0.66708966  0.66753097  1.00077624  1
  Ni  Ni25  1  0.83387797  0.83380020  0.16763437  1
  Ni  Ni26  1  0.66762752  0.66960372  0.33466292  1
  Ni  Ni27  1  0.16871566  0.16835766  0.49975682  1
  Ni  Ni28  1  0.99866049  0.99879538  0.66713646  1
  Cr  Cr29  1  0.16835260  0.16618293  0.83462493  1
  Ni  Ni30  1  0.16865707  0.50013229  0.49997324  1
  Cr  Cr31  1  0.99917211  0.33598638  0.66624013  1
  Ni  Ni32  1  0.16856263  0.50342110  0.83492626  1
  Cr  Cr33  1  0.16752969  0.83430554  0.50099553  1
  Ni  Ni34  1  0.00106569  0.66803311  0.66889561  1
  Ni  Ni35  1  0.16730789  0.83274510  0.83423520  1
  Ni  Ni36  1  0.49979618  0.16688947  0.50212435  1
  Ni  Ni37  1  0.33682959  0.99992231  0.66751317  1
  Ni  Ni38  1  0.50269805  0.16775352  0.83405761  1
  Ni  Ni39  1  0.50000370  0.50162639  0.50169466  1
  Ni  Ni40  1  0.33701931  0.33549511  0.66657908  1
  Ni  Ni41  1  0.50114151  0.50076218  0.83406086  1
  Ni  Ni42  1  0.50269255  0.83406974  0.50067044  1
  Ni  Ni43  1  0.33408615  0.66714742  0.66823360  1
  Ni  Ni44  1  0.50100368  0.83406842  0.83403870  1
  Ni  Ni45  1  0.83404686  0.16557428  0.50093562  1
  Ni  Ni46  1  0.66701337  0.00177655  0.66763210  1
  Ni  Ni47  1  0.83166305  0.16648663  0.83512557  1
  Ni  Ni48  1  0.83384500  0.50296971  0.50094923  1
  Ni  Ni49  1  0.66618659  0.33307793  0.66761562  1
  Ni  Ni50  1  0.83286845  0.50185069  0.83508803  1
  Ni  Ni51  1  0.83241100  0.83395424  0.50089016  1
  Fe  Fe52  1  0.66718019  0.66783195  0.66758725  1
  Ni  Ni53  1  0.83421129  0.83423294  0.83408999  1
" 