1926,Ni87Fe9Cr3_9,-239.093673681185, 183.862595172961,Ni87Fe9Cr3,"# generated using pymatgen
 data_Cr3Fe4Ni47
_symmetry_space_group_name_H-M   'P 1'
_cell_length_a   7.44849417
_cell_length_b   7.44849417
_cell_length_c   10.53376148
_cell_angle_alpha   90.00000000
_cell_angle_beta   90.00000000
_cell_angle_gamma   90.00000000
_symmetry_Int_Tables_number   1
_chemical_formula_structural   Cr3Fe4Ni47
_chemical_formula_sum   'Cr3 Fe4 Ni47'
_cell_volume   584.41377575
_cell_formula_units_Z   1
loop_
 _symmetry_equiv_pos_site_id
 _symmetry_equiv_pos_as_xyz
  1  'x, y, z'
loop_
 _atom_site_type_symbol
 _atom_site_label
 _atom_site_symmetry_multiplicity
 _atom_site_fract_x
 _atom_site_fract_y
 _atom_site_fract_z
 _atom_site_occupancy
  Ni  Ni0  1  1.00063929  1.00112418  0.00193981  1
  Ni  Ni1  1  0.16752844  0.16779426  0.16778213  1
  Ni  Ni2  1  0.00148364  0.00298828  0.33507392  1
  Fe  Fe3  1  0.00163840  0.33441058  0.00191508  1
  Ni  Ni4  1  0.16892056  0.50072771  0.16692733  1
  Ni  Ni5  1  1.00121021  0.33301328  0.33480739  1
  Ni  Ni6  1  1.00071076  0.66761637  0.00200200  1
  Ni  Ni7  1  0.16857636  0.83521213  0.16698531  1
  Cr  Cr8  1  0.00141046  0.66819778  0.33479460  1
  Ni  Ni9  1  0.33464938  0.00268109  0.00189409  1
  Ni  Ni10  1  0.50142342  0.16806900  0.16765521  1
  Ni  Ni11  1  0.33420002  0.00176604  0.33460183  1
  Ni  Ni12  1  0.33493377  0.33464840  1.00058042  1
  Ni  Ni13  1  0.50115433  0.50158305  0.16818200  1
  Ni  Ni14  1  0.33473161  0.33448561  0.33510521  1
  Ni  Ni15  1  0.33424331  0.66640701  0.00194116  1
  Ni  Ni16  1  0.50122963  0.83408441  0.16766156  1
  Ni  Ni17  1  0.33568714  0.66748442  0.33480720  1
  Ni  Ni18  1  0.66844799  0.00182187  1.00054910  1
  Ni  Ni19  1  0.83478517  0.16771844  0.16825599  1
  Ni  Ni20  1  0.66805249  0.00202949  0.33486970  1
  Ni  Ni21  1  0.66723259  0.33457718  0.00140806  1
  Ni  Ni22  1  0.83366141  0.50053403  0.16662906  1
  Ni  Ni23  1  0.66779494  0.33449610  0.33460136  1
  Ni  Ni24  1  0.66878097  0.66733588  1.00061422  1
  Ni  Ni25  1  0.83392985  0.83548100  0.16685424  1
  Ni  Ni26  1  0.66657502  0.66721067  0.33507544  1
  Ni  Ni27  1  0.16716483  0.16768781  0.50153574  1
  Ni  Ni28  1  1.00087277  0.00345162  0.66672482  1
  Ni  Ni29  1  0.16727606  0.16991500  0.83441852  1
  Ni  Ni30  1  0.16968101  0.49996005  0.50126824  1
  Fe  Fe31  1  1.00101657  0.33248829  0.66712376  1
  Ni  Ni32  1  0.16954077  0.49884415  0.83554141  1
  Ni  Ni33  1  0.16942557  0.83608143  0.50127047  1
  Cr  Cr34  1  1.00082123  0.66787669  0.66657786  1
  Cr  Cr35  1  0.16875336  0.83518695  0.83569608  1
  Ni  Ni36  1  0.50153276  0.16795696  0.50140030  1
  Ni  Ni37  1  0.33483746  0.00222427  0.66724123  1
  Ni  Ni38  1  0.50195297  0.16835174  0.83468143  1
  Ni  Ni39  1  0.50126481  0.50194364  0.50113431  1
  Fe  Fe40  1  0.33537595  0.33429779  0.66808532  1
  Ni  Ni41  1  0.50081054  0.50153088  0.83442163  1
  Ni  Ni42  1  0.50125699  0.83383573  0.50171996  1
  Ni  Ni43  1  0.33632127  0.66704795  0.66699119  1
  Ni  Ni44  1  0.50357826  0.83385320  0.83435367  1
  Ni  Ni45  1  0.83503962  0.16769648  0.50113204  1
  Ni  Ni46  1  0.66802606  0.00224258  0.66831747  1
  Ni  Ni47  1  0.83450602  0.16715092  0.83435091  1
  Ni  Ni48  1  0.83279443  0.49968504  0.50163432  1
  Ni  Ni49  1  0.66769449  0.33438706  0.66772553  1
  Fe  Fe50  1  0.83274387  0.50048661  0.83546792  1
  Ni  Ni51  1  0.83305256  0.83635128  0.50144939  1
  Ni  Ni52  1  0.66646012  0.66710309  0.66804648  1
  Ni  Ni53  1  0.83182271  0.83611877  0.83543087  1
" 