5529,Ni87Fe13_10,-230.088204874415, 166.903513127832,Ni87Fe13,"# generated using pymatgen
 data_Fe23Ni4
_symmetry_space_group_name_H-M   'P 1'
_cell_length_a   7.40386367
_cell_length_b   7.40386367
_cell_length_c   10.47064441
_cell_angle_alpha   90.00000000
_cell_angle_beta   90.00000000
_cell_angle_gamma   90.00000000
_symmetry_Int_Tables_number   1
_chemical_formula_structural   Fe23Ni4
_chemical_formula_sum   'Fe46 Ni8'
_cell_volume   573.97137960
_cell_formula_units_Z   2
loop_
 _symmetry_equiv_pos_site_id
 _symmetry_equiv_pos_as_xyz
  1  'x, y, z'
loop_
 _atom_site_type_symbol
 _atom_site_label
 _atom_site_symmetry_multiplicity
 _atom_site_fract_x
 _atom_site_fract_y
 _atom_site_fract_z
 _atom_site_occupancy
  Fe  Fe0  1  1.00293553  0.00451297  1.00402106  1
  Fe  Fe1  1  0.17175481  0.17060346  0.17134630  1
  Fe  Fe2  1  0.00484145  0.00426821  0.33751576  1
  Fe  Fe3  1  1.00273980  0.33814357  1.00377658  1
  Fe  Fe4  1  0.17155813  0.50372461  0.17101700  1
  Fe  Fe5  1  0.00464345  0.33730464  0.33793050  1
  Fe  Fe6  1  1.00307221  0.67014453  1.00356340  1
  Fe  Fe7  1  0.17172148  0.83847294  0.17126239  1
  Fe  Fe8  1  0.00464569  0.67122865  0.33847162  1
  Fe  Fe9  1  0.33893092  0.00442806  0.00513689  1
  Ni  Ni10  1  0.50387547  0.17034429  0.17073735  1
  Ni  Ni11  1  0.33741131  0.00466572  0.33778343  1
  Fe  Fe12  1  0.33888144  0.33797975  0.00459658  1
  Fe  Fe13  1  0.50467770  0.50377149  0.17035664  1
  Fe  Fe14  1  0.33776428  0.33677734  0.33735318  1
  Fe  Fe15  1  0.33863433  0.67039137  1.00426447  1
  Fe  Fe16  1  0.50418429  0.83809149  0.17101807  1
  Fe  Fe17  1  0.33751765  0.67151181  0.33759989  1
  Fe  Fe18  1  0.67093369  0.00476090  1.00426645  1
  Fe  Fe19  1  0.83694261  0.17109780  0.17014246  1
  Fe  Fe20  1  0.67010932  0.00451445  0.33743764  1
  Ni  Ni21  1  0.67103471  0.33828825  1.00416293  1
  Fe  Fe22  1  0.83656560  0.50380750  0.17052815  1
  Fe  Fe23  1  0.67039384  0.33697471  0.33714021  1
  Ni  Ni24  1  0.67142992  0.66973640  1.00376791  1
  Fe  Fe25  1  0.83689488  0.83789505  0.17077060  1
  Fe  Fe26  1  0.67063864  0.67131152  0.33738705  1
  Fe  Fe27  1  0.17072040  0.17122974  0.50393653  1
  Fe  Fe28  1  1.00410289  1.00402089  0.67126436  1
  Fe  Fe29  1  0.16990169  0.17139232  0.83751867  1
  Fe  Fe30  1  0.17019345  0.50451310  0.50451407  1
  Fe  Fe31  1  1.00360829  0.33834388  0.67109479  1
  Fe  Fe32  1  0.16973655  0.50397039  0.83727070  1
  Fe  Fe33  1  0.17039068  0.83705910  0.50426674  1
  Ni  Ni34  1  1.00385421  0.67071873  0.67113102  1
  Fe  Fe35  1  0.16960270  0.83743875  0.83727299  1
  Fe  Fe36  1  0.50448076  0.17123122  0.50339461  1
  Fe  Fe37  1  0.33705948  1.00364139  0.67030626  1
  Fe  Fe38  1  0.50546237  0.17172299  0.83830538  1
  Fe  Fe39  1  0.50476444  0.50426645  0.50426728  1
  Fe  Fe40  1  0.33697599  0.33814266  0.67085030  1
  Fe  Fe41  1  0.50571209  0.50372290  0.83817548  1
  Fe  Fe42  1  0.50456396  0.83730406  0.50401972  1
  Fe  Fe43  1  0.33702475  0.67101666  0.67093648  1
  Fe  Fe44  1  0.50551489  0.83735481  0.83776208  1
  Fe  Fe45  1  0.83759945  0.17142872  0.50481097  1
  Fe  Fe46  1  0.67163811  1.00397138  0.67109584  1
  Ni  Ni47  1  0.83739401  0.17194222  0.83770708  1
  Ni  Ni48  1  0.83800701  0.50456821  0.50424764  1
  Fe  Fe49  1  0.67221650  0.33830951  0.67163747  1
  Ni  Ni50  1  0.83778968  0.50386808  0.83793510  1
  Fe  Fe51  1  0.83784577  0.83677615  0.50442961  1
  Fe  Fe52  1  0.67183888  0.67052033  0.67130967  1
  Fe  Fe53  1  0.83768352  0.83718958  0.83760035  1
" 