3331,Ni87Fe9Cr3_7,-239.130285548781, 186.006278189372,Ni87Fe9Cr3,"# generated using pymatgen
 data_Cr3Fe4Ni47
_symmetry_space_group_name_H-M   'P 1'
_cell_length_a   7.44860717
_cell_length_b   7.44860717
_cell_length_c   10.53392127
_cell_angle_alpha   90.00000000
_cell_angle_beta   90.00000000
_cell_angle_gamma   90.00000000
_symmetry_Int_Tables_number   1
_chemical_formula_structural   Cr3Fe4Ni47
_chemical_formula_sum   'Cr3 Fe4 Ni47'
_cell_volume   584.44037294
_cell_formula_units_Z   1
loop_
 _symmetry_equiv_pos_site_id
 _symmetry_equiv_pos_as_xyz
  1  'x, y, z'
loop_
 _atom_site_type_symbol
 _atom_site_label
 _atom_site_symmetry_multiplicity
 _atom_site_fract_x
 _atom_site_fract_y
 _atom_site_fract_z
 _atom_site_occupancy
  Ni  Ni0  1  0.00269906  1.00082043  0.00141617  1
  Ni  Ni1  1  0.16799837  0.16841436  0.16780564  1
  Fe  Fe2  1  0.00124690  0.00123903  0.33467562  1
  Ni  Ni3  1  1.00098920  0.33507219  1.00118970  1
  Ni  Ni4  1  0.16793509  0.50120978  0.16778047  1
  Ni  Ni5  1  1.00034439  0.33442400  0.33349724  1
  Ni  Ni6  1  0.00200657  0.66781955  1.00118963  1
  Ni  Ni7  1  0.16799790  0.83408971  0.16784473  1
  Ni  Ni8  1  1.00058558  0.66826376  0.33373742  1
  Ni  Ni9  1  0.33334690  1.00082054  0.00136270  1
  Ni  Ni10  1  0.50059669  0.16893114  0.16896667  1
  Ni  Ni11  1  0.33538430  1.00102836  0.33424385  1
  Ni  Ni12  1  0.33456170  0.33457836  0.00130555  1
  Ni  Ni13  1  0.50111429  0.50114723  0.16755227  1
  Ni  Ni14  1  0.33518901  0.33328714  0.33374106  1
  Ni  Ni15  1  0.33354290  0.66831386  0.00130536  1
  Ni  Ni16  1  0.50053363  0.83363303  0.16902535  1
  Ni  Ni17  1  0.33494839  0.66939815  0.33398105  1
  Cr  Cr18  1  0.66770956  0.00188083  1.00104661  1
  Ni  Ni19  1  0.83511990  0.16899334  0.16842679  1
  Ni  Ni20  1  0.66704055  0.00126880  0.33492791  1
  Ni  Ni21  1  0.66816322  0.33527111  0.00148987  1
  Ni  Ni22  1  0.83466356  0.50114704  0.16841244  1
  Ni  Ni23  1  0.66817838  0.33398978  0.33456002  1
  Fe  Fe24  1  0.66816677  0.66647017  0.00149618  1
  Ni  Ni25  1  0.83518322  0.83357126  0.16848583  1
  Ni  Ni26  1  0.66817817  0.66845445  0.33411045  1
  Ni  Ni27  1  0.16701359  0.16775346  0.50076666  1
  Ni  Ni28  1  0.99941420  1.00102856  0.66773414  1
  Ni  Ni29  1  0.16733174  0.16930107  0.83514075  1
  Cr  Cr30  1  0.16873635  0.50123595  0.50143225  1
  Ni  Ni31  1  1.00017398  0.33399303  0.66902601  1
  Ni  Ni32  1  0.16756457  0.50121000  0.83446004  1
  Ni  Ni33  1  0.16701313  0.83472477  0.50076621  1
  Ni  Ni34  1  1.00041490  0.66869208  0.66878617  1
  Ni  Ni35  1  0.16733273  0.83320265  0.83510200  1
  Ni  Ni36  1  0.50255131  0.16896867  0.50046627  1
  Cr  Cr37  1  0.33472878  1.00108278  0.66805463  1
  Ni  Ni38  1  0.50137235  0.16910683  0.83427989  1
  Ni  Ni39  1  0.50205487  0.50124198  0.50188380  1
  Ni  Ni40  1  0.33530010  0.33527220  0.66866742  1
  Fe  Fe41  1  0.50097430  0.50098438  0.83421350  1
  Ni  Ni42  1  0.50255704  0.83350302  0.50046646  1
  Ni  Ni43  1  0.33505986  0.66741337  0.66842801  1
  Ni  Ni44  1  0.50130963  0.83345555  0.83422142  1
  Ni  Ni45  1  0.83414504  0.16724815  0.50177442  1
  Ni  Ni46  1  0.66951492  0.00126854  0.66778138  1
  Ni  Ni47  1  0.83500912  0.16887453  0.83351380  1
  Fe  Fe48  1  0.83289111  0.50124003  0.50123628  1
  Ni  Ni49  1  0.66823944  0.33427143  0.66766333  1
  Ni  Ni50  1  0.83526561  0.50114695  0.83405990  1
  Ni  Ni51  1  0.83413977  0.83522402  0.50177384  1
  Ni  Ni52  1  0.66823881  0.66817253  0.66811357  1
  Ni  Ni53  1  0.83507217  0.83368976  0.83345490  1
" 