6636,Ni87Fe13_19,-230.284573090351, 168.255804367499,Ni87Fe13,"# generated using pymatgen
 data_Fe23Ni4
_symmetry_space_group_name_H-M   'P 1'
_cell_length_a   7.40593295
_cell_length_b   7.40593295
_cell_length_c   10.47357081
_cell_angle_alpha   90.00000000
_cell_angle_beta   90.00000000
_cell_angle_gamma   90.00000000
_symmetry_Int_Tables_number   1
_chemical_formula_structural   Fe23Ni4
_chemical_formula_sum   'Fe46 Ni8'
_cell_volume   574.45276555
_cell_formula_units_Z   2
loop_
 _symmetry_equiv_pos_site_id
 _symmetry_equiv_pos_as_xyz
  1  'x, y, z'
loop_
 _atom_site_type_symbol
 _atom_site_label
 _atom_site_symmetry_multiplicity
 _atom_site_fract_x
 _atom_site_fract_y
 _atom_site_fract_z
 _atom_site_occupancy
  Fe  Fe0  1  0.00469882  0.00469935  0.00412705  1
  Fe  Fe1  1  0.17048694  0.17040141  0.17044134  1
  Fe  Fe2  1  1.00346419  1.00354971  0.33737321  1
  Fe  Fe3  1  0.00501465  0.33710779  1.00386025  1
  Fe  Fe4  1  0.17031523  0.50451805  0.17101416  1
  Fe  Fe5  1  1.00408571  0.33794924  0.33807916  1
  Fe  Fe6  1  0.00443458  0.67056978  0.00448073  1
  Fe  Fe7  1  0.17017287  0.83745739  0.17070694  1
  Fe  Fe8  1  1.00350796  0.67087786  0.33728698  1
  Fe  Fe9  1  0.33710653  0.00501346  1.00385998  1
  Fe  Fe10  1  0.50451765  0.17031566  0.17043786  1
  Fe  Fe11  1  0.33776585  1.00381898  0.33772672  1
  Ni  Ni12  1  0.33715516  0.33714956  1.00358741  1
  Fe  Fe13  1  0.50478493  0.50469938  0.17070577  1
  Fe  Fe14  1  0.33776802  0.33830098  0.33768080  1
  Fe  Fe15  1  0.33772612  0.66990120  1.00377386  1
  Fe  Fe16  1  0.50501214  0.83736295  0.17114776  1
  Fe  Fe17  1  0.33808023  0.67025772  0.33807856  1
  Fe  Fe18  1  0.67057013  0.00443424  0.00447965  1
  Fe  Fe19  1  0.83737254  0.17017579  0.17079327  1
  Fe  Fe20  1  0.67114629  1.00323937  0.33702151  1
  Fe  Fe21  1  0.66990242  0.33772738  1.00377362  1
  Fe  Fe22  1  0.83727832  0.50501484  0.17106120  1
  Fe  Fe23  1  0.67052451  0.33826286  0.33772617  1
  Fe  Fe24  1  0.67021812  0.67021862  0.00470341  1
  Ni  Ni25  1  0.83703964  0.83765377  0.17060362  1
  Ni  Ni26  1  0.67110671  0.67100834  0.33785494  1
  Ni  Ni27  1  0.17023920  0.17107311  0.50357798  1
  Fe  Fe28  1  0.00457611  0.00466147  0.67087754  1
  Ni  Ni29  1  0.17035463  0.17045360  0.83802674  1
  Ni  Ni30  1  0.17203773  0.50297973  0.50453231  1
  Fe  Fe31  1  0.00484551  0.33701630  0.67044001  1
  Fe  Fe32  1  0.17151225  0.50340606  0.83732292  1
  Fe  Fe33  1  0.17145444  0.83688275  0.50421249  1
  Fe  Fe34  1  0.00430800  0.67069656  0.67061153  1
  Fe  Fe35  1  0.17136993  0.83741512  0.83745882  1
  Fe  Fe36  1  0.50301266  0.17182009  0.50403973  1
  Fe  Fe37  1  0.33683433  0.00458003  0.67079126  1
  Fe  Fe38  1  0.50340515  0.17151313  0.83789925  1
  Ni  Ni39  1  0.50395797  0.50479130  0.50346076  1
  Fe  Fe40  1  0.33719459  0.33772503  0.67110350  1
  Ni  Ni41  1  0.50446127  0.50456027  0.83802795  1
  Fe  Fe42  1  0.50315575  0.83674717  0.50385904  1
  Fe  Fe43  1  0.33781758  0.67007290  0.67052685  1
  Fe  Fe44  1  0.50354953  0.83758789  0.83737238  1
  Fe  Fe45  1  0.83798978  0.17203039  0.50421246  1
  Fe  Fe46  1  0.67096430  1.00404024  0.67087639  1
  Fe  Fe47  1  0.83732986  0.17137065  0.83737239  1
  Fe  Fe48  1  0.83785498  0.50373176  0.50385911  1
  Fe  Fe49  1  0.67033816  0.33799933  0.67087787  1
  Fe  Fe50  1  0.83750263  0.50355027  0.83745883  1
  Fe  Fe51  1  0.83776934  0.83661718  0.50328343  1
  Fe  Fe52  1  0.67025667  0.67034205  0.67030151  1
  Fe  Fe53  1  0.83745869  0.83745728  0.83803832  1
" 