8428,Ni87Fe6Cr5_13,-238.160988032442, 179.787320696072,Ni87Fe6Cr5,"# generated using pymatgen
 data_Cr4Fe3Ni47
_symmetry_space_group_name_H-M   'P 1'
_cell_length_a   7.45527760
_cell_length_b   7.45527760
_cell_length_c   10.54335470
_cell_angle_alpha   90.00000000
_cell_angle_beta   90.00000000
_cell_angle_gamma   90.00000000
_symmetry_Int_Tables_number   1
_chemical_formula_structural   Cr4Fe3Ni47
_chemical_formula_sum   'Cr4 Fe3 Ni47'
_cell_volume   586.01192805
_cell_formula_units_Z   1
loop_
 _symmetry_equiv_pos_site_id
 _symmetry_equiv_pos_as_xyz
  1  'x, y, z'
loop_
 _atom_site_type_symbol
 _atom_site_label
 _atom_site_symmetry_multiplicity
 _atom_site_fract_x
 _atom_site_fract_y
 _atom_site_fract_z
 _atom_site_occupancy
  Cr  Cr0  1  0.00110834  0.00117128  1.00050057  1
  Ni  Ni1  1  0.16858174  0.16912196  0.16958340  1
  Ni  Ni2  1  0.99960494  0.00191732  0.33374657  1
  Ni  Ni3  1  0.00102420  0.33537961  1.00054982  1
  Ni  Ni4  1  0.16733683  0.50051113  0.16738186  1
  Ni  Ni5  1  1.00068338  0.33418473  0.33416346  1
  Ni  Ni6  1  0.00088460  0.66585050  0.00085293  1
  Ni  Ni7  1  0.16712608  0.83275288  0.16844461  1
  Ni  Ni8  1  0.99995446  0.66623241  0.33269025  1
  Ni  Ni9  1  0.33448144  0.00215430  0.99997427  1
  Ni  Ni10  1  0.50090028  0.16925252  0.16712836  1
  Ni  Ni11  1  0.33446867  0.00280495  0.33364450  1
  Ni  Ni12  1  0.33438506  0.33409216  1.00032789  1
  Ni  Ni13  1  0.50058386  0.49884145  0.16846597  1
  Ni  Ni14  1  0.33448359  0.33410366  0.33505438  1
  Ni  Ni15  1  0.33353529  0.66612401  0.99971382  1
  Cr  Cr16  1  0.50087907  0.83461863  0.16734181  1
  Ni  Ni17  1  0.33439699  0.66544421  0.33417452  1
  Ni  Ni18  1  0.66667884  0.00206026  0.99955292  1
  Ni  Ni19  1  0.83285152  0.16903065  0.16857976  1
  Ni  Ni20  1  0.66799390  0.00217232  0.33507248  1
  Ni  Ni21  1  0.66694356  0.33439026  0.00107462  1
  Ni  Ni22  1  0.83446968  0.50026068  0.16749279  1
  Ni  Ni23  1  0.66723201  0.33398571  0.33367755  1
  Ni  Ni24  1  0.66798221  0.66593249  0.99927477  1
  Ni  Ni25  1  0.83462131  0.83306011  0.16925059  1
  Ni  Ni26  1  0.66826383  0.66624789  0.33587339  1
  Fe  Fe27  1  0.16642158  0.16800886  0.50062238  1
  Ni  Ni28  1  1.00004610  0.00371906  0.66802512  1
  Ni  Ni29  1  0.16842765  0.16891137  0.83186844  1
  Ni  Ni30  1  0.16768533  0.49847604  0.50010528  1
  Ni  Ni31  1  1.00019025  0.33262997  0.66752052  1
  Ni  Ni32  1  0.16811799  0.49963370  0.83511418  1
  Cr  Cr33  1  0.16851336  0.83368411  0.49920537  1
  Cr  Cr34  1  0.99962421  0.66643140  0.66950206  1
  Ni  Ni35  1  0.16984988  0.83389397  0.83446110  1
  Ni  Ni36  1  0.50155270  0.16677116  0.50051270  1
  Ni  Ni37  1  0.33539614  0.00114965  0.66864352  1
  Ni  Ni38  1  0.50122353  0.16736555  0.83480978  1
  Fe  Fe39  1  0.50232785  0.50112995  0.50049340  1
  Fe  Fe40  1  0.33509508  0.33391502  0.66769132  1
  Ni  Ni41  1  0.50090679  0.50051423  0.83321256  1
  Ni  Ni42  1  0.50171639  0.83575977  0.50110913  1
  Ni  Ni43  1  0.33672657  0.66706451  0.66826717  1
  Ni  Ni44  1  0.50059814  0.83442005  0.83353643  1
  Ni  Ni45  1  0.83254772  0.16841415  0.50089618  1
  Ni  Ni46  1  0.66671478  0.00149182  0.66767188  1
  Ni  Ni47  1  0.83280851  0.16914890  0.83289879  1
  Ni  Ni48  1  0.83495657  0.49888737  0.49987224  1
  Ni  Ni49  1  0.66790554  0.33407388  0.66761772  1
  Ni  Ni50  1  0.83340655  0.49903006  0.83504500  1
  Ni  Ni51  1  0.83140456  0.83524419  0.49991282  1
  Ni  Ni52  1  0.66517462  0.66690897  0.66706490  1
  Ni  Ni53  1  0.83183213  0.83425040  0.83335835  1
" 