1185,Ni87Fe8Cr3_19,-239.230073687724, 184.47683297895,Ni87Fe8Cr3,"# generated using pymatgen
 data_Cr3Fe4Ni47
_symmetry_space_group_name_H-M   'P 1'
_cell_length_a   7.44897483
_cell_length_b   7.44897483
_cell_length_c   10.53444123
_cell_angle_alpha   90.00000000
_cell_angle_beta   90.00000000
_cell_angle_gamma   90.00000000
_symmetry_Int_Tables_number   1
_chemical_formula_structural   Cr3Fe4Ni47
_chemical_formula_sum   'Cr3 Fe4 Ni47'
_cell_volume   584.52692156
_cell_formula_units_Z   1
loop_
 _symmetry_equiv_pos_site_id
 _symmetry_equiv_pos_as_xyz
  1  'x, y, z'
loop_
 _atom_site_type_symbol
 _atom_site_label
 _atom_site_symmetry_multiplicity
 _atom_site_fract_x
 _atom_site_fract_y
 _atom_site_fract_z
 _atom_site_occupancy
  Ni  Ni0  1  1.00044583  0.00261492  0.99971416  1
  Ni  Ni1  1  0.16729456  0.16863282  0.16787539  1
  Ni  Ni2  1  1.00037358  0.00324620  0.33565596  1
  Ni  Ni3  1  0.00166873  0.33408449  1.00028498  1
  Ni  Ni4  1  0.16629062  0.49938707  0.16700171  1
  Ni  Ni5  1  0.00170313  0.33320548  0.33516163  1
  Ni  Ni6  1  1.00034532  0.66700628  1.00115938  1
  Cr  Cr7  1  0.16820507  0.83586197  0.16692376  1
  Fe  Fe8  1  1.00102278  0.66651657  0.33561095  1
  Ni  Ni9  1  0.33508849  0.00249309  0.99979530  1
  Ni  Ni10  1  0.50195005  0.16741877  0.16856330  1
  Ni  Ni11  1  0.33470603  0.00310207  0.33618581  1
  Ni  Ni12  1  0.33405016  0.33446423  0.00225605  1
  Ni  Ni13  1  0.50198434  0.49950883  0.16573657  1
  Ni  Ni14  1  0.33375020  0.33315808  0.33385492  1
  Ni  Ni15  1  0.33540015  0.66677398  0.99949390  1
  Ni  Ni16  1  0.50148900  0.83664758  0.16581724  1
  Cr  Cr17  1  0.33546376  0.66584131  0.33614374  1
  Ni  Ni18  1  0.66800159  1.00119765  0.00141195  1
  Ni  Ni19  1  0.83428544  0.16914645  0.16787824  1
  Ni  Ni20  1  0.66842908  0.00206199  0.33457948  1
  Ni  Ni21  1  0.66788668  0.33453520  1.00075959  1
  Ni  Ni22  1  0.83525677  0.49886464  0.16705499  1
  Ni  Ni23  1  0.66811915  0.33352778  0.33535466  1
  Ni  Ni24  1  0.66762552  0.66802034  1.00105647  1
  Fe  Fe25  1  0.83388959  0.83617802  0.16649058  1
  Cr  Cr26  1  0.66841427  0.66798807  0.33419605  1
  Ni  Ni27  1  0.16771002  0.16765013  0.50075548  1
  Ni  Ni28  1  1.00084270  1.00106271  0.66825423  1
  Ni  Ni29  1  0.16781163  0.16785739  0.83525559  1
  Ni  Ni30  1  0.16659815  0.50028345  0.50147999  1
  Ni  Ni31  1  0.00256794  0.33400468  0.66827550  1
  Ni  Ni32  1  0.16725696  0.50155986  0.83518643  1
  Ni  Ni33  1  0.16701903  0.83566350  0.50234826  1
  Ni  Ni34  1  1.00061731  0.66852293  0.66680425  1
  Ni  Ni35  1  0.16745650  0.83433306  0.83434843  1
  Ni  Ni36  1  0.50170845  0.16792074  0.50030033  1
  Fe  Fe37  1  0.33451304  0.00290807  0.66835128  1
  Ni  Ni38  1  0.50189871  0.16809815  0.83491566  1
  Ni  Ni39  1  0.50163518  0.49930620  0.50303032  1
  Ni  Ni40  1  0.33393753  0.33474860  0.66751776  1
  Ni  Ni41  1  0.50173797  0.50084838  0.83481855  1
  Ni  Ni42  1  0.50114125  0.83664214  0.50327657  1
  Fe  Fe43  1  0.33429172  0.66702860  0.66835607  1
  Ni  Ni44  1  0.50137207  0.83484402  0.83470616  1
  Ni  Ni45  1  0.83431073  0.16810335  0.50169910  1
  Ni  Ni46  1  0.66888136  1.00038166  0.66752190  1
  Ni  Ni47  1  0.83399725  0.16821761  0.83403134  1
  Ni  Ni48  1  0.83519350  0.49991134  0.50235979  1
  Ni  Ni49  1  0.66712058  0.33446946  0.66753107  1
  Ni  Ni50  1  0.83455947  0.50114364  0.83405091  1
  Ni  Ni51  1  0.83535223  0.83545577  0.50069918  1
  Ni  Ni52  1  0.66811068  0.66873573  0.66799187  1
  Ni  Ni53  1  0.83472582  0.83432266  0.83562490  1
" 