7158,Ni87Fe8Cr3_3,-239.22535773579, 185.474232290432,Ni87Fe8Cr3,"# generated using pymatgen
 data_Cr3Fe4Ni47
_symmetry_space_group_name_H-M   'P 1'
_cell_length_a   7.44931795
_cell_length_b   7.44931795
_cell_length_c   10.53492648
_cell_angle_alpha   90.00000000
_cell_angle_beta   90.00000000
_cell_angle_gamma   90.00000000
_symmetry_Int_Tables_number   1
_chemical_formula_structural   Cr3Fe4Ni47
_chemical_formula_sum   'Cr3 Fe4 Ni47'
_cell_volume   584.60770036
_cell_formula_units_Z   1
loop_
 _symmetry_equiv_pos_site_id
 _symmetry_equiv_pos_as_xyz
  1  'x, y, z'
loop_
 _atom_site_type_symbol
 _atom_site_label
 _atom_site_symmetry_multiplicity
 _atom_site_fract_x
 _atom_site_fract_y
 _atom_site_fract_z
 _atom_site_occupancy
  Ni  Ni0  1  0.00220437  1.00073574  0.00121187  1
  Ni  Ni1  1  0.16740779  0.16830191  0.16700492  1
  Ni  Ni2  1  1.00029437  1.00069576  0.33480084  1
  Ni  Ni3  1  0.00199432  0.33372062  0.00210341  1
  Ni  Ni4  1  0.16820048  0.50177121  0.16799517  1
  Ni  Ni5  1  0.00162116  0.33495592  0.33451464  1
  Ni  Ni6  1  0.00130867  0.66911226  0.00225111  1
  Ni  Ni7  1  0.16629347  0.83349398  0.16718375  1
  Ni  Ni8  1  0.00189344  0.66791679  0.33430641  1
  Ni  Ni9  1  0.33385550  0.00129575  1.00102287  1
  Ni  Ni10  1  0.50221518  0.16942377  0.16730875  1
  Cr  Cr11  1  0.33417885  0.00219412  0.33469069  1
  Ni  Ni12  1  0.33497678  0.33407875  0.00121148  1
  Ni  Ni13  1  0.50044689  0.49967607  0.16699356  1
  Ni  Ni14  1  0.33458418  0.33523092  0.33430639  1
  Ni  Ni15  1  0.33510070  0.66819520  0.00134239  1
  Fe  Fe16  1  0.50118519  0.83453303  0.16611100  1
  Fe  Fe17  1  0.33252373  0.66585369  0.33432274  1
  Fe  Fe18  1  0.66811999  0.00139700  1.00098936  1
  Ni  Ni19  1  0.83394902  0.16751971  0.16820150  1
  Ni  Ni20  1  0.66900420  0.00233405  0.33439633  1
  Ni  Ni21  1  0.66659998  0.33497532  0.00225256  1
  Ni  Ni22  1  0.83491985  0.50078960  0.16718498  1
  Ni  Ni23  1  0.66736313  0.33363185  0.33480082  1
  Ni  Ni24  1  0.66716013  0.66799320  0.00182279  1
  Ni  Ni25  1  0.83604023  0.83526293  0.16711810  1
  Cr  Cr26  1  0.66885787  0.66751513  0.33469033  1
  Ni  Ni27  1  0.16716443  0.16849269  0.50182409  1
  Ni  Ni28  1  0.00182018  1.00049409  0.66755690  1
  Ni  Ni29  1  0.16817242  0.16753897  0.83474175  1
  Ni  Ni30  1  0.16788816  0.50145884  0.50072788  1
  Ni  Ni31  1  0.00242655  0.33415225  0.66695180  1
  Ni  Ni32  1  0.16968392  0.50131513  0.83484876  1
  Ni  Ni33  1  0.16678801  0.83361429  0.50182649  1
  Ni  Ni34  1  1.00092484  0.66892330  0.66701017  1
  Ni  Ni35  1  0.16785891  0.83471601  0.83456057  1
  Ni  Ni36  1  0.50234151  0.16873246  0.50182890  1
  Ni  Ni37  1  0.33454551  0.00179428  0.66793320  1
  Ni  Ni38  1  0.50099651  0.16785737  0.83442879  1
  Ni  Ni39  1  0.50056676  0.50017080  0.50201715  1
  Ni  Ni40  1  0.33478695  0.33369535  0.66805099  1
  Ni  Ni41  1  0.49955468  0.50106441  0.83456007  1
  Ni  Ni42  1  0.50142669  0.83466225  0.50240403  1
  Fe  Fe43  1  0.33458119  0.66785820  0.66826223  1
  Ni  Ni44  1  0.50105980  0.83465050  0.83496247  1
  Ni  Ni45  1  0.83406331  0.16763395  0.50073089  1
  Ni  Ni46  1  0.66720473  1.00029914  0.66783243  1
  Ni  Ni47  1  0.83440230  0.16603349  0.83463566  1
  Ni  Ni48  1  0.83511076  0.50054661  0.50164389  1
  Ni  Ni49  1  0.66635790  0.33458892  0.66651593  1
  Cr  Cr50  1  0.83457589  0.50113564  0.83468572  1
  Ni  Ni51  1  0.83535048  0.83538862  0.50201874  1
  Ni  Ni52  1  0.66765730  0.66868130  0.66713343  1
  Ni  Ni53  1  0.83465182  0.83615786  0.83442934  1
" 