2163,Ni87Fe6Cr5_0,-238.109976515907, 181.56742140355,Ni87Fe6Cr5,"# generated using pymatgen
 data_Cr4Fe3Ni47
_symmetry_space_group_name_H-M   'P 1'
_cell_length_a   7.45371309
_cell_length_b   7.45371309
_cell_length_c   10.54114214
_cell_angle_alpha   90.00000000
_cell_angle_beta   90.00000000
_cell_angle_gamma   90.00000000
_symmetry_Int_Tables_number   1
_chemical_formula_structural   Cr4Fe3Ni47
_chemical_formula_sum   'Cr4 Fe3 Ni47'
_cell_volume   585.64307569
_cell_formula_units_Z   1
loop_
 _symmetry_equiv_pos_site_id
 _symmetry_equiv_pos_as_xyz
  1  'x, y, z'
loop_
 _atom_site_type_symbol
 _atom_site_label
 _atom_site_symmetry_multiplicity
 _atom_site_fract_x
 _atom_site_fract_y
 _atom_site_fract_z
 _atom_site_occupancy
  Ni  Ni0  1  1.00078965  0.00114473  1.00083437  1
  Ni  Ni1  1  0.16645198  0.16819892  0.16604520  1
  Ni  Ni2  1  0.99959036  1.00088636  0.33418143  1
  Ni  Ni3  1  0.99970059  0.33321899  0.00155159  1
  Ni  Ni4  1  0.16663623  0.50118239  0.16851617  1
  Ni  Ni5  1  0.00192714  0.33329013  0.33351974  1
  Ni  Ni6  1  0.99998576  0.66843097  0.00164194  1
  Ni  Ni7  1  0.16749804  0.83329607  0.16639130  1
  Ni  Ni8  1  0.00183490  0.66848978  0.33343749  1
  Ni  Ni9  1  0.33414276  1.00077533  1.00026289  1
  Ni  Ni10  1  0.50240909  0.16751161  0.16663530  1
  Cr  Cr11  1  0.33399053  1.00088139  0.33436672  1
  Ni  Ni12  1  0.33529618  0.33338495  0.00247804  1
  Ni  Ni13  1  0.50162188  0.50118196  0.16738082  1
  Ni  Ni14  1  0.33448632  0.33619668  0.33405493  1
  Ni  Ni15  1  0.33526634  0.66849647  0.00212243  1
  Ni  Ni16  1  0.50149609  0.83399476  0.16701410  1
  Ni  Ni17  1  0.33452377  0.66560004  0.33471515  1
  Ni  Ni18  1  0.66779579  0.00111609  0.00100636  1
  Ni  Ni19  1  0.83379658  0.16850655  0.16831607  1
  Ni  Ni20  1  0.66923608  1.00088136  0.33462374  1
  Ni  Ni21  1  0.66773634  0.33442250  1.00063442  1
  Ni  Ni22  1  0.83449833  0.50028053  0.16706216  1
  Ni  Ni23  1  0.66625121  0.33387620  0.33333127  1
  Ni  Ni24  1  0.66743837  0.66717647  1.00071816  1
  Fe  Fe25  1  0.83403761  0.83451752  0.16758486  1
  Ni  Ni26  1  0.66634088  0.66789899  0.33318979  1
  Ni  Ni27  1  0.16858318  0.16950503  0.50113325  1
  Cr  Cr28  1  1.00087987  1.00062371  0.66773461  1
  Ni  Ni29  1  0.16911085  0.16719766  0.83548262  1
  Ni  Ni30  1  0.16832183  0.50056909  0.50031502  1
  Ni  Ni31  1  0.00103886  0.33393211  0.66754820  1
  Cr  Cr32  1  0.16623096  0.50089589  0.83390758  1
  Ni  Ni33  1  0.16748692  0.83257802  0.50146578  1
  Ni  Ni34  1  1.00069521  0.66795017  0.66758369  1
  Ni  Ni35  1  0.16917600  0.83458399  0.83483989  1
  Ni  Ni36  1  0.50146585  0.16783872  0.50157583  1
  Ni  Ni37  1  0.33564816  0.00101282  0.66801660  1
  Ni  Ni38  1  0.50112612  0.16608020  0.83442501  1
  Ni  Ni39  1  0.50004612  0.50058019  0.50123062  1
  Ni  Ni40  1  0.33527637  0.33329625  0.66624526  1
  Fe  Fe41  1  0.50170545  0.50089458  0.83441187  1
  Ni  Ni42  1  0.50240631  0.83420999  0.50192322  1
  Ni  Ni43  1  0.33534690  0.66839400  0.66589621  1
  Ni  Ni44  1  0.50113165  0.83572014  0.83371785  1
  Fe  Fe45  1  0.83313062  0.16698454  0.49992314  1
  Ni  Ni46  1  0.66614316  1.00071438  0.66699123  1
  Ni  Ni47  1  0.83250273  0.16886027  0.83421151  1
  Cr  Cr48  1  0.83463747  0.50134322  0.50125167  1
  Ni  Ni49  1  0.66628159  0.33367536  0.66875135  1
  Ni  Ni50  1  0.83328267  0.50088210  0.83425357  1
  Ni  Ni51  1  0.83274663  0.83397100  0.49944719  1
  Ni  Ni52  1  0.66663263  0.66822428  0.66878559  1
  Ni  Ni53  1  0.83248940  0.83294692  0.83561758  1
" 