6556,Ni87Fe9Cr3_6,-239.095311540952, 184.434901226467,Ni87Fe9Cr3,"# generated using pymatgen
 data_Cr3Fe4Ni47
_symmetry_space_group_name_H-M   'P 1'
_cell_length_a   7.44760969
_cell_length_b   7.44760969
_cell_length_c   10.53251064
_cell_angle_alpha   90.00000000
_cell_angle_beta   90.00000000
_cell_angle_gamma   90.00000000
_symmetry_Int_Tables_number   1
_chemical_formula_structural   Cr3Fe4Ni47
_chemical_formula_sum   'Cr3 Fe4 Ni47'
_cell_volume   584.20561049
_cell_formula_units_Z   1
loop_
 _symmetry_equiv_pos_site_id
 _symmetry_equiv_pos_as_xyz
  1  'x, y, z'
loop_
 _atom_site_type_symbol
 _atom_site_label
 _atom_site_symmetry_multiplicity
 _atom_site_fract_x
 _atom_site_fract_y
 _atom_site_fract_z
 _atom_site_occupancy
  Ni  Ni0  1  1.00105538  0.00143701  1.00079429  1
  Ni  Ni1  1  0.16899613  0.16809276  0.16829520  1
  Ni  Ni2  1  1.00114515  0.00148586  0.33492259  1
  Ni  Ni3  1  1.00106937  0.33349646  0.00221494  1
  Ni  Ni4  1  0.16688503  0.50028370  0.16705104  1
  Ni  Ni5  1  0.00139953  0.33448185  0.33427998  1
  Ni  Ni6  1  1.00118769  0.66898008  0.00213667  1
  Ni  Ni7  1  0.16655284  0.83554080  0.16698778  1
  Ni  Ni8  1  0.99977636  0.66794701  0.33466220  1
  Fe  Fe9  1  0.33431424  0.00156520  0.00163190  1
  Ni  Ni10  1  0.50049632  0.16816023  0.16826657  1
  Ni  Ni11  1  0.33468756  0.00297897  0.33417728  1
  Ni  Ni12  1  0.33519268  0.33472694  0.00213521  1
  Ni  Ni13  1  0.50214778  0.49976126  0.16718115  1
  Ni  Ni14  1  0.33448684  0.33304230  0.33485928  1
  Ni  Ni15  1  0.33532910  0.66801111  0.00205691  1
  Ni  Ni16  1  0.50241404  0.83599777  0.16695970  1
  Cr  Cr17  1  0.33503867  0.66792599  0.33445844  1
  Ni  Ni18  1  0.66862416  1.00130135  0.00130509  1
  Fe  Fe19  1  0.83467852  0.16791113  0.16797530  1
  Ni  Ni20  1  0.66808176  0.00134968  0.33478599  1
  Ni  Ni21  1  0.66765125  0.33458778  1.00079491  1
  Ni  Ni22  1  0.83488288  0.50220441  0.16795902  1
  Ni  Ni23  1  0.66802857  0.33441631  0.33472707  1
  Ni  Ni24  1  0.66739733  0.66802469  0.00131744  1
  Ni  Ni25  1  0.83494861  0.83388705  0.16845961  1
  Ni  Ni26  1  0.66952133  0.66814861  0.33450893  1
  Fe  Fe27  1  0.16888962  0.16711815  0.50034733  1
  Ni  Ni28  1  0.00146268  0.99942926  0.66819809  1
  Ni  Ni29  1  0.16919625  0.16502541  0.83489013  1
  Ni  Ni30  1  0.16797080  0.50195471  0.50116903  1
  Cr  Cr31  1  1.00025901  0.33361273  0.66763942  1
  Cr  Cr32  1  0.16871023  0.50248554  0.83565525  1
  Ni  Ni33  1  0.16664059  0.83481155  0.50237462  1
  Ni  Ni34  1  1.00091201  0.67076046  0.66711539  1
  Ni  Ni35  1  0.16675531  0.83649595  0.83455274  1
  Ni  Ni36  1  0.50161298  0.16829506  0.50135787  1
  Ni  Ni37  1  0.33452253  1.00092665  0.66842062  1
  Ni  Ni38  1  0.50153321  0.16883081  0.83429157  1
  Ni  Ni39  1  0.50167576  0.49951917  0.50237591  1
  Ni  Ni40  1  0.33729758  0.33417954  0.66691816  1
  Ni  Ni41  1  0.50309513  0.49995586  0.83435597  1
  Ni  Ni42  1  0.50186199  0.83610118  0.50241258  1
  Ni  Ni43  1  0.33553707  0.66880474  0.66717902  1
  Fe  Fe44  1  0.50188940  0.83467089  0.83437043  1
  Ni  Ni45  1  0.83297409  0.16696352  0.50030099  1
  Ni  Ni46  1  0.66793069  1.00119903  0.66782488  1
  Ni  Ni47  1  0.83318935  0.16658360  0.83591942  1
  Ni  Ni48  1  0.83426965  0.50219690  0.50073206  1
  Ni  Ni49  1  0.66597046  0.33473163  0.66839451  1
  Ni  Ni50  1  0.83181402  0.50240452  0.83522552  1
  Ni  Ni51  1  0.83541472  0.83475497  0.50135775  1
  Ni  Ni52  1  0.66746643  0.66798284  0.66808756  1
  Ni  Ni53  1  0.83562810  0.83492776  0.83409747  1
" 