6019,Ni87Fe10Cr2_18,-240.216917197877, 188.891724270136,Ni87Fe10Cr2,"# generated using pymatgen
 data_Cr2Fe5Ni47
_symmetry_space_group_name_H-M   'P 1'
_cell_length_a   7.44722609
_cell_length_b   7.44722609
_cell_length_c   10.53196814
_cell_angle_alpha   90.00000000
_cell_angle_beta   90.00000000
_cell_angle_gamma   90.00000000
_symmetry_Int_Tables_number   1
_chemical_formula_structural   Cr2Fe5Ni47
_chemical_formula_sum   'Cr2 Fe5 Ni47'
_cell_volume   584.11534276
_cell_formula_units_Z   1
loop_
 _symmetry_equiv_pos_site_id
 _symmetry_equiv_pos_as_xyz
  1  'x, y, z'
loop_
 _atom_site_type_symbol
 _atom_site_label
 _atom_site_symmetry_multiplicity
 _atom_site_fract_x
 _atom_site_fract_y
 _atom_site_fract_z
 _atom_site_occupancy
  Ni  Ni0  1  1.00119517  1.00127004  0.00190660  1
  Fe  Fe1  1  0.16709581  0.16917346  0.16720775  1
  Ni  Ni2  1  1.00129062  0.00195374  0.33447804  1
  Ni  Ni3  1  1.00132301  0.33495484  1.00109296  1
  Ni  Ni4  1  0.16655040  0.50292217  0.16774587  1
  Ni  Ni5  1  0.00139089  0.33414660  0.33488771  1
  Ni  Ni6  1  1.00117518  0.66782094  0.00162610  1
  Ni  Ni7  1  0.16846067  0.83260933  0.16745055  1
  Fe  Fe8  1  0.00165192  0.66701244  0.33491580  1
  Ni  Ni9  1  0.33443646  1.00112618  0.00152909  1
  Ni  Ni10  1  0.50303407  0.16846166  0.16613425  1
  Cr  Cr11  1  0.33298362  1.00125779  0.33557311  1
  Ni  Ni12  1  0.33423785  0.33506323  0.00173254  1
  Fe  Fe13  1  0.50125436  0.50130278  0.16789482  1
  Ni  Ni14  1  0.33402965  0.33706490  0.33452937  1
  Ni  Ni15  1  0.33455440  0.66786085  1.00131437  1
  Ni  Ni16  1  0.49984734  0.83392149  0.16626474  1
  Ni  Ni17  1  0.33529588  0.66633531  0.33481179  1
  Ni  Ni18  1  0.66835525  1.00094638  1.00131598  1
  Ni  Ni19  1  0.83435677  0.17022553  0.16733179  1
  Cr  Cr20  1  0.66970486  1.00089291  0.33566849  1
  Ni  Ni21  1  0.66837324  0.33503738  0.00168363  1
  Ni  Ni22  1  0.83574076  0.49983415  0.16812754  1
  Ni  Ni23  1  0.66853019  0.33679199  0.33480883  1
  Ni  Ni24  1  0.66823949  0.66798859  0.00159638  1
  Fe  Fe25  1  0.83531671  0.83386628  0.16752034  1
  Ni  Ni26  1  0.66743254  0.66624665  0.33450798  1
  Ni  Ni27  1  0.16665619  0.16873345  0.50123081  1
  Ni  Ni28  1  0.00158989  0.00167536  0.66739426  1
  Ni  Ni29  1  0.16758326  0.16731634  0.83587534  1
  Ni  Ni30  1  0.16760712  0.50178918  0.50138220  1
  Ni  Ni31  1  0.00161385  0.33466970  0.66806433  1
  Ni  Ni32  1  0.16717704  0.50233906  0.83483552  1
  Ni  Ni33  1  0.16736538  0.83343482  0.50176512  1
  Ni  Ni34  1  1.00132462  0.66763613  0.66724115  1
  Ni  Ni35  1  0.16900154  0.83434078  0.83481534  1
  Ni  Ni36  1  0.50186155  0.16975170  0.50316946  1
  Ni  Ni37  1  0.33416541  0.00136250  0.66759186  1
  Ni  Ni38  1  0.50218923  0.16717636  0.83484483  1
  Ni  Ni39  1  0.50157115  0.50154548  0.50013633  1
  Ni  Ni40  1  0.33423671  0.33506335  0.66774955  1
  Ni  Ni41  1  0.50185903  0.50172647  0.83589992  1
  Ni  Ni42  1  0.50096306  0.83273841  0.50308177  1
  Ni  Ni43  1  0.33483974  0.66756416  0.66778932  1
  Ni  Ni44  1  0.50019170  0.83510236  0.83483994  1
  Ni  Ni45  1  0.83542238  0.16931417  0.50190188  1
  Ni  Ni46  1  0.66823860  1.00106861  0.66746780  1
  Ni  Ni47  1  0.83418753  0.16898524  0.83481253  1
  Ni  Ni48  1  0.83484688  0.50085748  0.50101743  1
  Ni  Ni49  1  0.66814554  0.33533463  0.66741928  1
  Ni  Ni50  1  0.83496623  0.50031128  0.83483366  1
  Ni  Ni51  1  0.83574778  0.83368058  0.50141898  1
  Ni  Ni52  1  0.66783299  0.66759310  0.66766674  1
  Fe  Fe53  1  0.83482164  0.83466480  0.83396140  1
" 