2548,Ni87Fe13_12,-229.893776044186, 165.979634272557,Ni87Fe13,"# generated using pymatgen
 data_Fe23Ni4
_symmetry_space_group_name_H-M   'P 1'
_cell_length_a   7.40283847
_cell_length_b   7.40283847
_cell_length_c   10.46919457
_cell_angle_alpha   90.00000000
_cell_angle_beta   90.00000000
_cell_angle_gamma   90.00000000
_symmetry_Int_Tables_number   1
_chemical_formula_structural   Fe23Ni4
_chemical_formula_sum   'Fe46 Ni8'
_cell_volume   573.73298302
_cell_formula_units_Z   2
loop_
 _symmetry_equiv_pos_site_id
 _symmetry_equiv_pos_as_xyz
  1  'x, y, z'
loop_
 _atom_site_type_symbol
 _atom_site_label
 _atom_site_symmetry_multiplicity
 _atom_site_fract_x
 _atom_site_fract_y
 _atom_site_fract_z
 _atom_site_occupancy
  Ni  Ni0  1  0.00496936  1.00402008  0.00434368  1
  Ni  Ni1  1  0.16991819  0.17176084  0.17109359  1
  Fe  Fe2  1  1.00410938  1.00419918  0.33692098  1
  Fe  Fe3  1  0.00459453  0.33741063  0.00459584  1
  Fe  Fe4  1  0.17141104  0.50456628  0.17074411  1
  Fe  Fe5  1  1.00401755  0.33798774  0.33758765  1
  Ni  Ni6  1  0.00454299  0.67174882  0.00475643  1
  Fe  Fe7  1  0.17092016  0.83828756  0.17048559  1
  Fe  Fe8  1  1.00381404  0.67082560  0.33727128  1
  Fe  Fe9  1  0.33675242  1.00349648  0.00469116  1
  Fe  Fe10  1  0.50372212  0.17065626  0.17108983  1
  Fe  Fe11  1  0.33824530  1.00376017  0.33714498  1
  Fe  Fe12  1  0.33607926  0.33740909  0.00459797  1
  Fe  Fe13  1  0.50402082  0.50436123  0.17143954  1
  Fe  Fe14  1  0.33789557  0.33798507  0.33749787  1
  Fe  Fe15  1  0.33701447  0.67210553  1.00424684  1
  Ni  Ni16  1  0.50499678  0.83700424  0.17146049  1
  Fe  Fe17  1  0.33854138  0.67126627  0.33749992  1
  Fe  Fe18  1  0.67157463  1.00332419  1.00366982  1
  Fe  Fe19  1  0.83787005  0.17016300  0.17074208  1
  Fe  Fe20  1  0.67065350  1.00355218  0.33807753  1
  Fe  Fe21  1  0.67233480  0.33766979  1.00433675  1
  Fe  Fe22  1  0.83757888  0.50485879  0.17109367  1
  Fe  Fe23  1  0.67109446  0.33827962  0.33766929  1
  Fe  Fe24  1  0.67157453  0.67201429  0.00442734  1
  Fe  Fe25  1  0.83807284  0.83798791  0.17083507  1
  Ni  Ni26  1  0.67069186  0.67090200  0.33732399  1
  Fe  Fe27  1  0.17100384  0.17108980  0.50366890  1
  Fe  Fe28  1  1.00323980  1.00393971  0.67140275  1
  Fe  Fe29  1  0.17141034  0.17025537  0.83850503  1
  Fe  Fe30  1  0.17100399  0.50425052  0.50442929  1
  Fe  Fe31  1  1.00318292  0.33766952  0.67082731  1
  Fe  Fe32  1  0.17140932  0.50517433  0.83783857  1
  Fe  Fe33  1  0.17082223  0.83767020  0.50433674  1
  Fe  Fe34  1  1.00332673  0.67140123  0.67149208  1
  Fe  Fe35  1  0.17091640  0.83758163  0.83818886  1
  Fe  Fe36  1  0.50450891  0.17092104  0.50468702  1
  Fe  Fe37  1  0.33911476  1.00349983  0.67117335  1
  Fe  Fe38  1  0.50459841  0.17039804  0.83723227  1
  Fe  Fe39  1  0.50477322  0.50468335  0.50424794  1
  Fe  Fe40  1  0.33873235  0.33766946  0.67091451  1
  Fe  Fe41  1  0.50450900  0.50493875  0.83732377  1
  Fe  Fe42  1  0.50512346  0.83740512  0.50459615  1
  Fe  Fe43  1  0.33902712  0.67184045  0.67126247  1
  Ni  Ni44  1  0.50487074  0.83736232  0.83678739  1
  Fe  Fe45  1  0.83749719  0.17073915  0.50468736  1
  Ni  Ni46  1  0.67068992  1.00358529  0.67079959  1
  Fe  Fe47  1  0.83700320  0.16990313  0.83757949  1
  Fe  Fe48  1  0.83723275  0.50486537  0.50424800  1
  Fe  Fe49  1  0.67109472  0.33758204  0.67100432  1
  Fe  Fe50  1  0.83709273  0.50543620  0.83767126  1
  Fe  Fe51  1  0.83706407  0.83740511  0.50459692  1
  Ni  Ni52  1  0.67069063  0.67164568  0.67146280  1
  Fe  Fe53  1  0.83723711  0.83767127  0.83757937  1
" 