1160,Ni87Fe6Cr5_16,-237.984580007471, 177.655929642039,Ni87Fe6Cr5,"# generated using pymatgen
 data_Cr4Fe3Ni47
_symmetry_space_group_name_H-M   'P 1'
_cell_length_a   7.45223271
_cell_length_b   7.45223271
_cell_length_c   10.53904857
_cell_angle_alpha   90.00000000
_cell_angle_beta   90.00000000
_cell_angle_gamma   90.00000000
_symmetry_Int_Tables_number   1
_chemical_formula_structural   Cr4Fe3Ni47
_chemical_formula_sum   'Cr4 Fe3 Ni47'
_cell_volume   585.29420262
_cell_formula_units_Z   1
loop_
 _symmetry_equiv_pos_site_id
 _symmetry_equiv_pos_as_xyz
  1  'x, y, z'
loop_
 _atom_site_type_symbol
 _atom_site_label
 _atom_site_symmetry_multiplicity
 _atom_site_fract_x
 _atom_site_fract_y
 _atom_site_fract_z
 _atom_site_occupancy
  Ni  Ni0  1  1.00090921  0.00288160  1.00093416  1
  Ni  Ni1  1  0.16545947  0.16528440  0.16725485  1
  Ni  Ni2  1  1.00024141  1.00067283  0.33405755  1
  Ni  Ni3  1  0.99975597  0.33207017  0.00113326  1
  Fe  Fe4  1  0.16673571  0.50197359  0.16869168  1
  Ni  Ni5  1  1.00000174  0.33403537  0.33412959  1
  Cr  Cr6  1  1.00066538  0.66834441  1.00098615  1
  Ni  Ni7  1  0.16922920  0.83604965  0.16869143  1
  Ni  Ni8  1  0.00134997  0.66827378  0.33457924  1
  Ni  Ni9  1  0.33450271  0.99976737  0.00145066  1
  Ni  Ni10  1  0.50240900  0.16646185  0.16803925  1
  Fe  Fe11  1  0.33397850  0.99888589  0.33398044  1
  Cr  Cr12  1  0.33447315  0.33441637  1.00057607  1
  Ni  Ni13  1  0.50350742  0.50308574  0.16733154  1
  Cr  Cr14  1  0.33450687  0.33488516  0.33450602  1
  Ni  Ni15  1  0.33634259  0.66910868  1.00086092  1
  Ni  Ni16  1  0.50007829  0.83343227  0.16725443  1
  Ni  Ni17  1  0.33413431  0.66843766  0.33412965  1
  Ni  Ni18  1  0.66757005  0.00111659  1.00097012  1
  Ni  Ni19  1  0.83511345  0.16871355  0.16733104  1
  Ni  Ni20  1  0.66855002  1.00080441  0.33415693  1
  Ni  Ni21  1  0.66864614  0.33391024  0.00120611  1
  Ni  Ni22  1  0.83249623  0.49931666  0.16880435  1
  Ni  Ni23  1  0.66871559  0.33397900  0.33419302  1
  Ni  Ni24  1  0.66553125  0.66795518  0.00120609  1
  Ni  Ni25  1  0.83367430  0.83495166  0.16876835  1
  Ni  Ni26  1  0.66749738  0.66819770  0.33405755  1
  Ni  Ni27  1  0.16506381  0.16594408  0.50113044  1
  Ni  Ni28  1  1.00093822  1.00067242  0.66799041  1
  Ni  Ni29  1  0.16557004  0.16583374  0.83459664  1
  Ni  Ni30  1  0.16632401  0.50230102  0.50053740  1
  Ni  Ni31  1  0.99986561  0.33438559  0.66771863  1
  Ni  Ni32  1  0.16700534  0.50164912  0.83367625  1
  Ni  Ni33  1  0.16857540  0.83473536  0.50113043  1
  Ni  Ni34  1  0.00121412  0.66792383  0.66726916  1
  Ni  Ni35  1  0.16934083  0.83549959  0.83316008  1
  Fe  Fe36  1  0.50325291  0.16600379  0.50129355  1
  Ni  Ni37  1  0.33416166  0.99945414  0.66733879  1
  Ni  Ni38  1  0.50254255  0.16610669  0.83408387  1
  Ni  Ni39  1  0.50284726  0.50348212  0.50105404  1
  Cr  Cr40  1  0.33431762  0.33457190  0.66790077  1
  Ni  Ni41  1  0.50281870  0.50308769  0.83459666  1
  Ni  Ni42  1  0.50032152  0.83328109  0.50085815  1
  Ni  Ni43  1  0.33402737  0.66899899  0.66799077  1
  Ni  Ni44  1  0.50021048  0.83378713  0.83486901  1
  Ni  Ni45  1  0.83526558  0.16846991  0.50078189  1
  Ni  Ni46  1  0.66788299  1.00080358  0.66785565  1
  Ni  Ni47  1  0.83487012  0.16844156  0.83486903  1
  Ni  Ni48  1  0.83381091  0.49997098  0.50101794  1
  Ni  Ni49  1  0.66895968  0.33425166  0.66758380  1
  Ni  Ni50  1  0.83315749  0.49931634  0.83315998  1
  Ni  Ni51  1  0.83408512  0.83454083  0.50078208  1
  Ni  Ni52  1  0.66774065  0.66792622  0.66771857  1
  Ni  Ni53  1  0.83343019  0.83522434  0.83343108  1
" 