69,Ni87Fe13_11,-229.719988225358, 167.382806086889,Ni87Fe13,"# generated using pymatgen
 data_Fe23Ni4
_symmetry_space_group_name_H-M   'P 1'
_cell_length_a   7.39975564
_cell_length_b   7.39975564
_cell_length_c   10.46483479
_cell_angle_alpha   90.00000000
_cell_angle_beta   90.00000000
_cell_angle_gamma   90.00000000
_symmetry_Int_Tables_number   1
_chemical_formula_structural   Fe23Ni4
_chemical_formula_sum   'Fe46 Ni8'
_cell_volume   573.01650795
_cell_formula_units_Z   2
loop_
 _symmetry_equiv_pos_site_id
 _symmetry_equiv_pos_as_xyz
  1  'x, y, z'
loop_
 _atom_site_type_symbol
 _atom_site_label
 _atom_site_symmetry_multiplicity
 _atom_site_fract_x
 _atom_site_fract_y
 _atom_site_fract_z
 _atom_site_occupancy
  Fe  Fe0  1  1.00421858  1.00430416  0.00487631  1
  Fe  Fe1  1  0.17042544  0.17091252  0.17114204  1
  Fe  Fe2  1  1.00414973  1.00454468  0.33731040  1
  Fe  Fe3  1  1.00448424  0.33842597  1.00454604  1
  Fe  Fe4  1  0.17045561  0.50413460  0.17051258  1
  Fe  Fe5  1  1.00406308  0.33788239  0.33805160  1
  Fe  Fe6  1  0.00484920  0.67091200  1.00430727  1
  Fe  Fe7  1  0.17010075  0.83859242  0.17092682  1
  Fe  Fe8  1  1.00414954  0.67121409  0.33796461  1
  Fe  Fe9  1  0.33826746  1.00432850  1.00430552  1
  Fe  Fe10  1  0.50524190  0.17091422  0.17105638  1
  Fe  Fe11  1  0.33788002  1.00454510  0.33805426  1
  Ni  Ni12  1  0.33714546  0.33746259  1.00433028  1
  Fe  Fe13  1  0.50563103  0.50454770  0.17072588  1
  Fe  Fe14  1  0.33787995  0.33779655  0.33724677  1
  Fe  Fe15  1  0.33788209  0.67063984  1.00343678  1
  Fe  Fe16  1  0.50598610  0.83817838  0.17114351  1
  Fe  Fe17  1  0.33779228  0.67129907  0.33859443  1
  Fe  Fe18  1  0.67115456  0.00469465  0.00511519  1
  Ni  Ni19  1  0.83718061  0.17061555  0.17170671  1
  Fe  Fe20  1  0.67160956  0.00463156  0.33739801  1
  Fe  Fe21  1  0.67088498  0.33803854  0.00478683  1
  Fe  Fe22  1  0.83755266  0.50487837  0.17168720  1
  Fe  Fe23  1  0.67169603  0.33779539  0.33813871  1
  Ni  Ni24  1  0.67184119  0.67184907  1.00444704  1
  Ni  Ni25  1  0.83758250  0.83877634  0.17141562  1
  Fe  Fe26  1  0.67169845  0.67121358  0.33733487  1
  Fe  Fe27  1  0.17067062  0.17175741  0.50437482  1
  Fe  Fe28  1  0.00533130  1.00376042  0.67145751  1
  Fe  Fe29  1  0.17145291  0.17145536  0.83812313  1
  Fe  Fe30  1  0.17097224  0.50470235  0.50524724  1
  Fe  Fe31  1  0.00491737  0.33890826  0.67104169  1
  Ni  Ni32  1  0.17191644  0.50545459  0.83728325  1
  Fe  Fe33  1  0.17099743  0.83718050  0.50533347  1
  Fe  Fe34  1  0.00535791  0.67097184  0.67136860  1
  Ni  Ni35  1  0.17191568  0.83686553  0.83808450  1
  Fe  Fe36  1  0.50508801  0.17175747  0.50454742  1
  Fe  Fe37  1  0.33772353  1.00373340  0.67128225  1
  Fe  Fe38  1  0.50313380  0.17145557  0.83803612  1
  Fe  Fe39  1  0.50487354  0.50479020  0.50470296  1
  Fe  Fe40  1  0.33772465  0.33852017  0.67199986  1
  Fe  Fe41  1  0.50319433  0.50533096  0.83821100  1
  Fe  Fe42  1  0.50484921  0.83709266  0.50478957  1
  Ni  Ni43  1  0.33777502  0.67100656  0.67152536  1
  Fe  Fe44  1  0.50352397  0.83685329  0.83770740  1
  Fe  Fe45  1  0.83788192  0.17178139  0.50409150  1
  Fe  Fe46  1  0.67058626  1.00417514  0.67113028  1
  Fe  Fe47  1  0.83905319  0.17112812  0.83825067  1
  Ni  Ni48  1  0.83768943  0.50434966  0.50424853  1
  Fe  Fe49  1  0.67099888  0.33849414  0.67071575  1
  Fe  Fe50  1  0.83866618  0.50533165  0.83740536  1
  Fe  Fe51  1  0.83779412  0.83739460  0.50391669  1
  Fe  Fe52  1  0.67097388  0.67097094  0.67134383  1
  Fe  Fe53  1  0.83866805  0.83718285  0.83875244  1
" 