7353,Ni87Fe9Cr3_17,-239.108381366148, 184.875300272233,Ni87Fe9Cr3,"# generated using pymatgen
 data_Cr3Fe4Ni47
_symmetry_space_group_name_H-M   'P 1'
_cell_length_a   7.44657342
_cell_length_b   7.44657342
_cell_length_c   10.53104512
_cell_angle_alpha   90.00000000
_cell_angle_beta   90.00000000
_cell_angle_gamma   90.00000000
_symmetry_Int_Tables_number   1
_chemical_formula_structural   Cr3Fe4Ni47
_chemical_formula_sum   'Cr3 Fe4 Ni47'
_cell_volume   583.96178109
_cell_formula_units_Z   1
loop_
 _symmetry_equiv_pos_site_id
 _symmetry_equiv_pos_as_xyz
  1  'x, y, z'
loop_
 _atom_site_type_symbol
 _atom_site_label
 _atom_site_symmetry_multiplicity
 _atom_site_fract_x
 _atom_site_fract_y
 _atom_site_fract_z
 _atom_site_occupancy
  Ni  Ni0  1  0.00271575  1.00049783  1.00033926  1
  Ni  Ni1  1  0.16850784  0.16846831  0.16721236  1
  Ni  Ni2  1  1.00063028  0.00255707  0.33629481  1
  Ni  Ni3  1  0.00224628  0.33560109  1.00090227  1
  Fe  Fe4  1  0.16930901  0.50075303  0.16711921  1
  Ni  Ni5  1  0.00195543  0.33383637  0.33558994  1
  Ni  Ni6  1  0.00140334  0.66802715  1.00134982  1
  Ni  Ni7  1  0.16793748  0.83501203  0.16609815  1
  Cr  Cr8  1  1.00119719  0.66785892  0.33462242  1
  Ni  Ni9  1  0.33472547  0.00154216  0.00156774  1
  Ni  Ni10  1  0.50018692  0.16959912  0.16695451  1
  Cr  Cr11  1  0.33512283  1.00130506  0.33427099  1
  Ni  Ni12  1  0.33452664  0.33389004  1.00118293  1
  Ni  Ni13  1  0.50160472  0.50175987  0.16858850  1
  Ni  Ni14  1  0.33470968  0.33579130  0.33524396  1
  Ni  Ni15  1  0.33432525  0.66869137  0.00162795  1
  Ni  Ni16  1  0.50187259  0.83276380  0.16720992  1
  Ni  Ni17  1  0.33638571  0.66659714  0.33500336  1
  Ni  Ni18  1  0.66668191  1.00069810  1.00067825  1
  Cr  Cr19  1  0.83519830  0.16787185  0.16869139  1
  Ni  Ni20  1  0.66858559  1.00088254  0.33575210  1
  Ni  Ni21  1  0.66735330  0.33520249  1.00049317  1
  Ni  Ni22  1  0.83317926  0.50232730  0.16672314  1
  Ni  Ni23  1  0.66745937  0.33530973  0.33579601  1
  Ni  Ni24  1  0.66839749  0.66822428  0.00154131  1
  Ni  Ni25  1  0.83431506  0.83358985  0.16747734  1
  Ni  Ni26  1  0.66663149  0.66793075  0.33495225  1
  Ni  Ni27  1  0.16644783  0.16909275  0.50178963  1
  Fe  Fe28  1  1.00088127  1.00081481  0.66796868  1
  Ni  Ni29  1  0.16732691  0.16846414  0.83512700  1
  Ni  Ni30  1  0.16906936  0.50056901  0.50128544  1
  Ni  Ni31  1  1.00087224  0.33547545  0.66762743  1
  Ni  Ni32  1  0.16859624  0.50142939  0.83536303  1
  Ni  Ni33  1  0.16782712  0.83446338  0.50316103  1
  Ni  Ni34  1  0.00198942  0.66705434  0.66802232  1
  Ni  Ni35  1  0.16760408  0.83423179  0.83486433  1
  Ni  Ni36  1  0.50258207  0.16929168  0.50183549  1
  Ni  Ni37  1  0.33532140  1.00066968  0.66813605  1
  Ni  Ni38  1  0.50195642  0.16865894  0.83533518  1
  Ni  Ni39  1  0.50127600  0.50168487  0.50071617  1
  Fe  Fe40  1  0.33521214  0.33518897  0.66803727  1
  Ni  Ni41  1  0.50089351  0.50143768  0.83482257  1
  Ni  Ni42  1  0.50231379  0.83315356  0.50184761  1
  Ni  Ni43  1  0.33399183  0.66945761  0.66749035  1
  Ni  Ni44  1  0.50168289  0.83403217  0.83506507  1
  Ni  Ni45  1  0.83509160  0.16805307  0.50059724  1
  Ni  Ni46  1  0.66666921  0.00178440  0.66769444  1
  Ni  Ni47  1  0.83483931  0.16767086  0.83494171  1
  Ni  Ni48  1  0.83378651  0.50029884  0.50239419  1
  Ni  Ni49  1  0.66907661  0.33414076  0.66783258  1
  Fe  Fe50  1  0.83481004  0.50126018  0.83471963  1
  Ni  Ni51  1  0.83397723  0.83577284  0.50135671  1
  Ni  Ni52  1  0.66814452  0.66819827  0.66762794  1
  Ni  Ni53  1  0.83483219  0.83529792  0.83529381  1
" 