8166,Ni87Fe9Cr3_11,-239.112353561205, 183.772533657644,Ni87Fe9Cr3,"# generated using pymatgen
 data_Cr3Fe4Ni47
_symmetry_space_group_name_H-M   'P 1'
_cell_length_a   7.44834094
_cell_length_b   7.44834094
_cell_length_c   10.53354478
_cell_angle_alpha   90.00000000
_cell_angle_beta   90.00000000
_cell_angle_gamma   90.00000000
_symmetry_Int_Tables_number   1
_chemical_formula_structural   Cr3Fe4Ni47
_chemical_formula_sum   'Cr3 Fe4 Ni47'
_cell_volume   584.37770878
_cell_formula_units_Z   1
loop_
 _symmetry_equiv_pos_site_id
 _symmetry_equiv_pos_as_xyz
  1  'x, y, z'
loop_
 _atom_site_type_symbol
 _atom_site_label
 _atom_site_symmetry_multiplicity
 _atom_site_fract_x
 _atom_site_fract_y
 _atom_site_fract_z
 _atom_site_occupancy
  Ni  Ni0  1  1.00047107  0.99972290  0.00218590  1
  Ni  Ni1  1  0.16835533  0.16777340  0.16783195  1
  Ni  Ni2  1  0.00204395  0.00160157  0.33514871  1
  Fe  Fe3  1  1.00092759  0.33585344  0.00252963  1
  Ni  Ni4  1  0.16760808  0.50099339  0.16773670  1
  Ni  Ni5  1  1.00033344  0.33522195  0.33388194  1
  Ni  Ni6  1  0.00169051  0.66819979  0.00142285  1
  Ni  Ni7  1  0.16712453  0.83501862  0.16741706  1
  Ni  Ni8  1  0.00185141  0.66694840  0.33468512  1
  Ni  Ni9  1  0.33507176  1.00061095  0.00179261  1
  Ni  Ni10  1  0.50070528  0.16807252  0.16743686  1
  Ni  Ni11  1  0.33433297  1.00072301  0.33435817  1
  Ni  Ni12  1  0.33630775  0.33590742  0.00267572  1
  Ni  Ni13  1  0.50199677  0.50106057  0.16806113  1
  Fe  Fe14  1  0.33433523  0.33490937  0.33425534  1
  Ni  Ni15  1  0.33379289  0.66726776  1.00121337  1
  Ni  Ni16  1  0.50226458  0.83463729  0.16727928  1
  Ni  Ni17  1  0.33395692  0.66850185  0.33419502  1
  Ni  Ni18  1  0.66816716  0.00206522  0.00151773  1
  Fe  Fe19  1  0.83416240  0.16760961  0.16826880  1
  Ni  Ni20  1  0.66735319  0.00209392  0.33435866  1
  Ni  Ni21  1  0.66733707  0.33469797  1.00085052  1
  Ni  Ni22  1  0.83413650  0.50237179  0.16721380  1
  Ni  Ni23  1  0.66878614  0.33489383  0.33495545  1
  Ni  Ni24  1  0.66827457  0.66702409  0.00141699  1
  Ni  Ni25  1  0.83438495  0.83389910  0.16840571  1
  Ni  Ni26  1  0.66795656  0.66676231  0.33453760  1
  Ni  Ni27  1  0.16656849  0.16929481  0.50068532  1
  Ni  Ni28  1  1.00029063  1.00056012  0.66654851  1
  Cr  Cr29  1  0.16727199  0.16939609  0.83496680  1
  Ni  Ni30  1  0.16763607  0.50090031  0.50118434  1
  Ni  Ni31  1  0.99995534  0.33587245  0.66782152  1
  Ni  Ni32  1  0.16878368  0.50257015  0.83473531  1
  Ni  Ni33  1  0.16642692  0.83357882  0.50083046  1
  Ni  Ni34  1  0.00179989  0.66741552  0.66772501  1
  Ni  Ni35  1  0.16587052  0.83178643  0.83557852  1
  Ni  Ni36  1  0.50133232  0.17032575  0.49982687  1
  Cr  Cr37  1  0.33427110  0.99949703  0.66762468  1
  Ni  Ni38  1  0.50316496  0.17080222  0.83630117  1
  Ni  Ni39  1  0.50161313  0.50136331  0.50114201  1
  Ni  Ni40  1  0.33552024  0.33757010  0.66615269  1
  Ni  Ni41  1  0.50069446  0.50105041  0.83445145  1
  Ni  Ni42  1  0.50192848  0.83216578  0.49934290  1
  Ni  Ni43  1  0.33406089  0.66584853  0.66839092  1
  Ni  Ni44  1  0.50244847  0.83182732  0.83717560  1
  Ni  Ni45  1  0.83576404  0.16896391  0.50010032  1
  Cr  Cr46  1  0.66904465  0.00187230  0.66763791  1
  Ni  Ni47  1  0.83407538  0.16796725  0.83599321  1
  Ni  Ni48  1  0.83448394  0.50138411  0.50213013  1
  Ni  Ni49  1  0.66824069  0.33609339  0.66813786  1
  Fe  Fe50  1  0.83415061  0.50201987  0.83456119  1
  Ni  Ni51  1  0.83536384  0.83336677  0.50018610  1
  Ni  Ni52  1  0.66789758  0.66562716  0.66784700  1
  Ni  Ni53  1  0.83542418  0.83424915  0.83510066  1
" 