8178,Ni87Fe13_4,-230.208483662113, 164.167115488278,Ni87Fe13,"# generated using pymatgen
 data_Fe23Ni4
_symmetry_space_group_name_H-M   'P 1'
_cell_length_a   7.40857729
_cell_length_b   7.40857729
_cell_length_c   10.47731048
_cell_angle_alpha   90.00000000
_cell_angle_beta   90.00000000
_cell_angle_gamma   90.00000000
_symmetry_Int_Tables_number   1
_chemical_formula_structural   Fe23Ni4
_chemical_formula_sum   'Fe46 Ni8'
_cell_volume   575.06832305
_cell_formula_units_Z   2
loop_
 _symmetry_equiv_pos_site_id
 _symmetry_equiv_pos_as_xyz
  1  'x, y, z'
loop_
 _atom_site_type_symbol
 _atom_site_label
 _atom_site_symmetry_multiplicity
 _atom_site_fract_x
 _atom_site_fract_y
 _atom_site_fract_z
 _atom_site_occupancy
  Fe  Fe0  1  0.00406386  1.00338406  1.00369802  1
  Fe  Fe1  1  0.17061219  0.17122882  0.17106314  1
  Fe  Fe2  1  1.00349619  0.00507491  0.33736117  1
  Fe  Fe3  1  1.00394541  0.33711485  0.00434690  1
  Fe  Fe4  1  0.17053130  0.50402782  0.17114296  1
  Ni  Ni5  1  0.00447888  0.33863207  0.33787512  1
  Fe  Fe6  1  1.00390752  0.67133957  0.00451248  1
  Fe  Fe7  1  0.17061446  0.83658404  0.17044922  1
  Ni  Ni8  1  0.00487402  0.67004247  0.33748489  1
  Fe  Fe9  1  0.33764526  1.00333302  1.00386582  1
  Fe  Fe10  1  0.50456150  0.17044340  0.17122748  1
  Fe  Fe11  1  0.33716220  0.00512148  0.33744382  1
  Fe  Fe12  1  0.33810913  0.33750999  0.00408142  1
  Fe  Fe13  1  0.50351683  0.50367926  0.17015040  1
  Ni  Ni14  1  0.33697986  0.33766722  0.33748500  1
  Ni  Ni15  1  0.33646266  0.67016984  1.00312739  1
  Fe  Fe16  1  0.50421499  0.83771189  0.17018081  1
  Fe  Fe17  1  0.33731969  0.66952158  0.33671425  1
  Ni  Ni18  1  0.67075938  0.00427846  1.00251272  1
  Fe  Fe19  1  0.83666437  0.17052961  0.17098057  1
  Ni  Ni20  1  0.67037364  0.00451494  0.33811742  1
  Fe  Fe21  1  0.66978448  0.33766399  0.00399940  1
  Fe  Fe22  1  0.83779054  0.50367898  0.17149635  1
  Ni  Ni23  1  0.67037933  0.33553256  0.33748470  1
  Fe  Fe24  1  0.66973091  0.67087705  1.00343532  1
  Fe  Fe25  1  0.83700853  0.83763047  0.17079998  1
  Fe  Fe26  1  0.67122772  0.66939983  0.33744376  1
  Fe  Fe27  1  0.17069499  0.17114518  0.50366289  1
  Fe  Fe28  1  0.00411144  0.00394683  0.67077922  1
  Fe  Fe29  1  0.17109463  0.17126055  0.83711461  1
  Fe  Fe30  1  0.17026953  0.50376590  0.50315181  1
  Fe  Fe31  1  1.00394537  0.33711464  0.67021309  1
  Fe  Fe32  1  0.17140499  0.50420791  0.83754477  1
  Fe  Fe33  1  0.17035031  0.83693090  0.50392687  1
  Fe  Fe34  1  1.00386237  0.67077707  0.66996471  1
  Fe  Fe35  1  0.17143809  0.83636902  0.83746071  1
  Fe  Fe36  1  0.50420868  0.17071348  0.50315110  1
  Fe  Fe37  1  0.33703215  0.00394702  0.67052858  1
  Fe  Fe38  1  0.50429132  0.17088216  0.83745901  1
  Fe  Fe39  1  0.50386397  0.50341475  0.50422567  1
  Fe  Fe40  1  0.33754695  0.33746314  0.67039619  1
  Ni  Ni41  1  0.50392881  0.50406110  0.83748170  1
  Fe  Fe42  1  0.50420982  0.83770668  0.50384499  1
  Fe  Fe43  1  0.33762909  0.67042879  0.67160594  1
  Fe  Fe44  1  0.50394442  0.83674751  0.83780897  1
  Fe  Fe45  1  0.83693351  0.17079715  0.50331555  1
  Fe  Fe46  1  0.67069477  1.00386395  0.67061122  1
  Fe  Fe47  1  0.83645325  0.17091622  0.83754303  1
  Fe  Fe48  1  0.83770739  0.50376226  0.50323014  1
  Fe  Fe49  1  0.67034647  0.33771170  0.67047847  1
  Fe  Fe50  1  0.83683320  0.50386340  0.83711461  1
  Fe  Fe51  1  0.83727952  0.83727823  0.50357764  1
  Fe  Fe52  1  0.67034692  0.67026275  0.67095941  1
  Fe  Fe53  1  0.83645385  0.83706022  0.83745926  1
" 