149,Ni87Fe8Cr3_9,-239.051712000442, 185.350292104216,Ni87Fe8Cr3,"# generated using pymatgen
 data_Cr3Fe4Ni47
_symmetry_space_group_name_H-M   'P 1'
_cell_length_a   7.44732266
_cell_length_b   7.44732266
_cell_length_c   10.53210471
_cell_angle_alpha   90.00000000
_cell_angle_beta   90.00000000
_cell_angle_gamma   90.00000000
_symmetry_Int_Tables_number   1
_chemical_formula_structural   Cr3Fe4Ni47
_chemical_formula_sum   'Cr3 Fe4 Ni47'
_cell_volume   584.13806610
_cell_formula_units_Z   1
loop_
 _symmetry_equiv_pos_site_id
 _symmetry_equiv_pos_as_xyz
  1  'x, y, z'
loop_
 _atom_site_type_symbol
 _atom_site_label
 _atom_site_symmetry_multiplicity
 _atom_site_fract_x
 _atom_site_fract_y
 _atom_site_fract_z
 _atom_site_occupancy
  Ni  Ni0  1  1.00011180  0.99957208  1.00042486  1
  Cr  Cr1  1  0.16777181  0.16847736  0.16801336  1
  Ni  Ni2  1  1.00097007  1.00106765  0.33564380  1
  Ni  Ni3  1  0.99964459  0.33575782  1.00114837  1
  Ni  Ni4  1  0.16916578  0.50150877  0.16728278  1
  Ni  Ni5  1  1.00105400  0.33406043  0.33518451  1
  Ni  Ni6  1  0.00198698  0.66863564  1.00112557  1
  Ni  Ni7  1  0.16931156  0.83430490  0.16705016  1
  Cr  Cr8  1  0.00133376  0.66854607  0.33450389  1
  Ni  Ni9  1  0.33597567  0.99983704  0.99993102  1
  Ni  Ni10  1  0.50162168  0.16712151  0.16652341  1
  Ni  Ni11  1  0.33515180  1.00036313  0.33510334  1
  Ni  Ni12  1  0.33680171  0.33591316  1.00063660  1
  Ni  Ni13  1  0.50057540  0.50249961  0.16785693  1
  Ni  Ni14  1  0.33544070  0.33488520  0.33531987  1
  Ni  Ni15  1  0.33398102  0.66825105  0.00195502  1
  Ni  Ni16  1  0.50148160  0.83440758  0.16827722  1
  Ni  Ni17  1  0.33618180  0.66867615  0.33474989  1
  Ni  Ni18  1  0.66801550  0.00246477  0.00217909  1
  Ni  Ni19  1  0.83399743  0.16721949  0.16783312  1
  Fe  Fe20  1  0.66747768  1.00035610  0.33481506  1
  Ni  Ni21  1  0.66766083  0.33400810  1.00100983  1
  Ni  Ni22  1  0.83407029  0.50132172  0.16550813  1
  Cr  Cr23  1  0.66803183  0.33485959  0.33494197  1
  Fe  Fe24  1  0.66757876  0.66819887  1.00092209  1
  Ni  Ni25  1  0.83289227  0.83538093  0.16720259  1
  Ni  Ni26  1  0.66683049  0.66869171  0.33406948  1
  Ni  Ni27  1  0.16841486  0.16854828  0.50118631  1
  Ni  Ni28  1  0.00133278  1.00083204  0.66787763  1
  Ni  Ni29  1  0.16738862  0.16853434  0.83451461  1
  Ni  Ni30  1  0.16859981  0.49986913  0.50192902  1
  Ni  Ni31  1  1.00088426  0.33467609  0.66764323  1
  Ni  Ni32  1  0.16846911  0.50061349  0.83485000  1
  Ni  Ni33  1  0.16965887  0.83553168  0.50257625  1
  Ni  Ni34  1  0.00147945  0.66845611  0.66840109  1
  Ni  Ni35  1  0.16878644  0.83479808  0.83439688  1
  Ni  Ni36  1  0.50002424  0.16605445  0.50291635  1
  Ni  Ni37  1  0.33480961  1.00102345  0.66881912  1
  Fe  Fe38  1  0.50162935  0.16787745  0.83451956  1
  Fe  Fe39  1  0.50091323  0.50221948  0.50251056  1
  Ni  Ni40  1  0.33519683  0.33451698  0.66796948  1
  Ni  Ni41  1  0.50110510  0.50246296  0.83374884  1
  Ni  Ni42  1  0.50160785  0.83471903  0.50109727  1
  Ni  Ni43  1  0.33446615  0.66846263  0.66741973  1
  Ni  Ni44  1  0.50164744  0.83404867  0.83454471  1
  Ni  Ni45  1  0.83546223  0.16756338  0.50191793  1
  Ni  Ni46  1  0.66792253  0.00161398  0.66726443  1
  Ni  Ni47  1  0.83531678  0.16796470  0.83442396  1
  Ni  Ni48  1  0.83496175  0.50147536  0.50383907  1
  Ni  Ni49  1  0.66802723  0.33426290  0.66832304  1
  Ni  Ni50  1  0.83426124  0.50091404  0.83459013  1
  Ni  Ni51  1  0.83257008  0.83488591  0.50253428  1
  Ni  Ni52  1  0.66802418  0.66803240  0.66835231  1
  Ni  Ni53  1  0.83343529  0.83516867  0.83413434  1
" 