4859,Ni87Fe6Cr5_7,-237.944969352813, 178.313994200634,Ni87Fe6Cr5,"# generated using pymatgen
 data_Cr4Fe3Ni47
_symmetry_space_group_name_H-M   'P 1'
_cell_length_a   7.45412232
_cell_length_b   7.45412232
_cell_length_c   10.54172087
_cell_angle_alpha   90.00000000
_cell_angle_beta   90.00000000
_cell_angle_gamma   90.00000000
_symmetry_Int_Tables_number   1
_chemical_formula_structural   Cr4Fe3Ni47
_chemical_formula_sum   'Cr4 Fe3 Ni47'
_cell_volume   585.73954079
_cell_formula_units_Z   1
loop_
 _symmetry_equiv_pos_site_id
 _symmetry_equiv_pos_as_xyz
  1  'x, y, z'
loop_
 _atom_site_type_symbol
 _atom_site_label
 _atom_site_symmetry_multiplicity
 _atom_site_fract_x
 _atom_site_fract_y
 _atom_site_fract_z
 _atom_site_occupancy
  Ni  Ni0  1  1.00081136  0.00287605  0.99862582  1
  Ni  Ni1  1  0.16659609  0.16854702  0.16734087  1
  Ni  Ni2  1  1.00052822  0.00203651  0.33619140  1
  Ni  Ni3  1  0.00185497  0.33334954  0.00279027  1
  Ni  Ni4  1  0.16644500  0.49876755  0.16713273  1
  Fe  Fe5  1  0.00109045  0.33383892  0.33453471  1
  Ni  Ni6  1  0.00195064  0.66642329  1.00021310  1
  Cr  Cr7  1  0.17050336  0.83497879  0.16789419  1
  Ni  Ni8  1  1.00074151  0.66609149  0.33565840  1
  Ni  Ni9  1  0.33505856  0.00213783  0.00087816  1
  Fe  Fe10  1  0.50052380  0.16698827  0.16776914  1
  Ni  Ni11  1  0.33473702  0.00252172  0.33486322  1
  Ni  Ni12  1  0.33307837  0.33327745  0.99950747  1
  Cr  Cr13  1  0.50094299  0.50270084  0.16669749  1
  Ni  Ni14  1  0.33368516  0.33354013  0.33510853  1
  Ni  Ni15  1  0.33391668  0.66726391  0.99933853  1
  Ni  Ni16  1  0.50072956  0.83556841  0.16792997  1
  Ni  Ni17  1  0.33370606  0.66660121  0.33601977  1
  Ni  Ni18  1  0.66669636  0.00213421  1.00049090  1
  Ni  Ni19  1  0.83488123  0.16904112  0.16744996  1
  Ni  Ni20  1  0.66734491  0.00217918  0.33473474  1
  Ni  Ni21  1  0.66747968  0.33228397  0.00102458  1
  Ni  Ni22  1  0.83499934  0.49840422  0.16791336  1
  Ni  Ni23  1  0.66781109  0.33332584  0.33505300  1
  Ni  Ni24  1  0.66680173  0.66827526  1.00013104  1
  Cr  Cr25  1  0.83238069  0.83449444  0.16652158  1
  Ni  Ni26  1  0.66817188  0.66714175  0.33595449  1
  Ni  Ni27  1  0.16758066  0.16695827  0.50114640  1
  Ni  Ni28  1  0.00097464  1.00086274  0.66764966  1
  Ni  Ni29  1  0.16698190  0.16704022  0.83425951  1
  Ni  Ni30  1  0.16784824  0.50075990  0.50075833  1
  Ni  Ni31  1  0.00198475  0.33352985  0.66582605  1
  Ni  Ni32  1  0.16871234  0.50080952  0.83489000  1
  Ni  Ni33  1  0.16790997  0.83484222  0.50064734  1
  Ni  Ni34  1  0.00217143  0.66828201  0.66650598  1
  Ni  Ni35  1  0.16878101  0.83486105  0.83442140  1
  Ni  Ni36  1  0.50090953  0.16744046  0.50046440  1
  Ni  Ni37  1  0.33431911  0.00111895  0.66706792  1
  Ni  Ni38  1  0.50120701  0.16710284  0.83493897  1
  Ni  Ni39  1  0.50106897  0.50076080  0.50181520  1
  Ni  Ni40  1  0.33423538  0.33406655  0.66803284  1
  Ni  Ni41  1  0.49989213  0.50123168  0.83382961  1
  Ni  Ni42  1  0.50059382  0.83432029  0.49993984  1
  Ni  Ni43  1  0.33382740  0.66743123  0.66731178  1
  Ni  Ni44  1  0.49992016  0.83429054  0.83476501  1
  Ni  Ni45  1  0.83411145  0.16749044  0.50103552  1
  Ni  Ni46  1  0.66733112  0.00126759  0.66731940  1
  Ni  Ni47  1  0.83444072  0.16676821  0.83427361  1
  Ni  Ni48  1  0.83367693  0.50045233  0.49998508  1
  Ni  Ni49  1  0.66636322  0.33301460  0.66652799  1
  Cr  Cr50  1  0.83366094  0.49884394  0.83439380  1
  Ni  Ni51  1  0.83409345  0.83470086  0.50161367  1
  Ni  Ni52  1  0.66662068  0.66837521  0.66613450  1
  Fe  Fe53  1  0.83413377  0.83540618  0.83349618  1
" 