5558,Ni87Fe10Cr2_14,-240.205568669192, 189.895859769167,Ni87Fe10Cr2,"# generated using pymatgen
 data_Cr2Fe5Ni47
_symmetry_space_group_name_H-M   'P 1'
_cell_length_a   7.44414264
_cell_length_b   7.44414264
_cell_length_c   10.52760748
_cell_angle_alpha   90.00000000
_cell_angle_beta   90.00000000
_cell_angle_gamma   90.00000000
_symmetry_Int_Tables_number   1
_chemical_formula_structural   Cr2Fe5Ni47
_chemical_formula_sum   'Cr2 Fe5 Ni47'
_cell_volume   583.39010134
_cell_formula_units_Z   1
loop_
 _symmetry_equiv_pos_site_id
 _symmetry_equiv_pos_as_xyz
  1  'x, y, z'
loop_
 _atom_site_type_symbol
 _atom_site_label
 _atom_site_symmetry_multiplicity
 _atom_site_fract_x
 _atom_site_fract_y
 _atom_site_fract_z
 _atom_site_occupancy
  Ni  Ni0  1  1.00061215  1.00148700  1.00110981  1
  Ni  Ni1  1  0.16791162  0.16856063  0.16802486  1
  Ni  Ni2  1  1.00022375  1.00132513  0.33454285  1
  Ni  Ni3  1  0.00222446  0.33498090  1.00130859  1
  Ni  Ni4  1  0.16729810  0.50048480  0.16931986  1
  Ni  Ni5  1  0.00166654  0.33436572  0.33532474  1
  Ni  Ni6  1  1.00008405  0.66819531  1.00143491  1
  Ni  Ni7  1  0.16746584  0.83569205  0.16890336  1
  Ni  Ni8  1  0.00158321  0.66891130  0.33468899  1
  Ni  Ni9  1  0.33493013  0.00381617  0.00313538  1
  Ni  Ni10  1  0.50172141  0.16797685  0.16808757  1
  Fe  Fe11  1  0.33466147  0.00176715  0.33520094  1
  Ni  Ni12  1  0.33529768  0.33361551  1.00104694  1
  Ni  Ni13  1  0.50227455  0.50061783  0.16870606  1
  Ni  Ni14  1  0.33544668  0.33555487  0.33464300  1
  Cr  Cr15  1  0.33317237  0.66644295  1.00150257  1
  Ni  Ni16  1  0.50240932  0.83592474  0.16955512  1
  Ni  Ni17  1  0.33526727  0.66742102  0.33584287  1
  Ni  Ni18  1  0.66923098  0.00240247  1.00129477  1
  Ni  Ni19  1  0.83510934  0.16812509  0.16843674  1
  Ni  Ni20  1  0.66882501  0.00154233  0.33609423  1
  Fe  Fe21  1  0.66907859  0.33374220  0.00163692  1
  Ni  Ni22  1  0.83545744  0.50131357  0.16844414  1
  Ni  Ni23  1  0.66749544  0.33437462  0.33458224  1
  Fe  Fe24  1  0.66985717  0.66792844  0.00219278  1
  Ni  Ni25  1  0.83477745  0.83507478  0.16774140  1
  Ni  Ni26  1  0.66784126  0.66869047  0.33395857  1
  Ni  Ni27  1  0.16793290  0.16845484  0.50134614  1
  Ni  Ni28  1  0.00240351  1.00119285  0.66896322  1
  Ni  Ni29  1  0.16827656  0.16817164  0.83544639  1
  Ni  Ni30  1  0.16764989  0.50100809  0.50167451  1
  Ni  Ni31  1  1.00138344  0.33466439  0.66797169  1
  Ni  Ni32  1  0.16685616  0.50015689  0.83346384  1
  Ni  Ni33  1  0.16779319  0.83498356  0.50170565  1
  Ni  Ni34  1  0.99987932  0.66873406  0.66846755  1
  Ni  Ni35  1  0.16613330  0.83608259  0.83428078  1
  Ni  Ni36  1  0.50153860  0.16858284  0.50176520  1
  Ni  Ni37  1  0.33372737  0.00337602  0.66731023  1
  Ni  Ni38  1  0.50133729  0.16954457  0.83516949  1
  Ni  Ni39  1  0.50194634  0.50142536  0.50172007  1
  Ni  Ni40  1  0.33555565  0.33359078  0.66883244  1
  Ni  Ni41  1  0.50251989  0.49907621  0.83397168  1
  Ni  Ni42  1  0.50179970  0.83468407  0.50171349  1
  Fe  Fe43  1  0.33302700  0.66659570  0.66688069  1
  Cr  Cr44  1  0.50192301  0.83625013  0.83306575  1
  Ni  Ni45  1  0.83532924  0.16882684  0.50172426  1
  Fe  Fe46  1  0.67017878  0.00361100  0.66719434  1
  Ni  Ni47  1  0.83543309  0.16866506  0.83448079  1
  Ni  Ni48  1  0.83472659  0.50152872  0.50086343  1
  Ni  Ni49  1  0.66766094  0.33598433  0.66857184  1
  Ni  Ni50  1  0.83529622  0.50135318  0.83515214  1
  Ni  Ni51  1  0.83491145  0.83455605  0.50176667  1
  Ni  Ni52  1  0.66952226  0.66696523  0.66781915  1
  Ni  Ni53  1  0.83641165  0.83467772  0.83499501  1
" 