5103,Ni87Fe10Cr2_7,-240.053282834357, 189.156253575322,Ni87Fe10Cr2,"# generated using pymatgen
 data_Cr2Fe5Ni47
_symmetry_space_group_name_H-M   'P 1'
_cell_length_a   7.44330944
_cell_length_b   7.44330944
_cell_length_c   10.52642916
_cell_angle_alpha   90.00000000
_cell_angle_beta   90.00000000
_cell_angle_gamma   90.00000000
_symmetry_Int_Tables_number   1
_chemical_formula_structural   Cr2Fe5Ni47
_chemical_formula_sum   'Cr2 Fe5 Ni47'
_cell_volume   583.19423274
_cell_formula_units_Z   1
loop_
 _symmetry_equiv_pos_site_id
 _symmetry_equiv_pos_as_xyz
  1  'x, y, z'
loop_
 _atom_site_type_symbol
 _atom_site_label
 _atom_site_symmetry_multiplicity
 _atom_site_fract_x
 _atom_site_fract_y
 _atom_site_fract_z
 _atom_site_occupancy
  Ni  Ni0  1  0.00187187  0.00334048  0.00228452  1
  Ni  Ni1  1  0.16912828  0.16732068  0.16697607  1
  Fe  Fe2  1  1.00159446  1.00063885  0.33510056  1
  Ni  Ni3  1  1.00055396  0.33383698  1.00030424  1
  Ni  Ni4  1  0.17067051  0.50096878  0.16840427  1
  Cr  Cr5  1  1.00096591  0.33649767  0.33540620  1
  Cr  Cr6  1  0.00234323  0.66799048  0.00216529  1
  Ni  Ni7  1  0.16968729  0.83646112  0.16994146  1
  Ni  Ni8  1  0.00194595  0.66910389  0.33497056  1
  Ni  Ni9  1  0.33548841  1.00087423  1.00087796  1
  Ni  Ni10  1  0.50152419  0.16816119  0.16909862  1
  Ni  Ni11  1  0.33610657  1.00145864  0.33567639  1
  Fe  Fe12  1  0.33553119  0.33447077  1.00145397  1
  Ni  Ni13  1  0.50177859  0.50201878  0.16843942  1
  Ni  Ni14  1  0.33644143  0.33441449  0.33460889  1
  Ni  Ni15  1  0.33597739  0.66924013  0.00165066  1
  Ni  Ni16  1  0.50175564  0.83458920  0.16793578  1
  Ni  Ni17  1  0.33418212  0.66876717  0.33491853  1
  Ni  Ni18  1  0.66738601  0.00265254  1.00124623  1
  Ni  Ni19  1  0.83420656  0.16727607  0.16711063  1
  Ni  Ni20  1  0.66710823  0.00214873  0.33489782  1
  Ni  Ni21  1  0.66905809  0.33427561  0.00229554  1
  Ni  Ni22  1  0.83244933  0.50131796  0.16853998  1
  Ni  Ni23  1  0.66703404  0.33408666  0.33497554  1
  Ni  Ni24  1  0.66659080  0.66789221  1.00087716  1
  Ni  Ni25  1  0.83333839  0.83622197  0.16958386  1
  Ni  Ni26  1  0.66867187  0.66842924  0.33528744  1
  Ni  Ni27  1  0.16891260  0.16725750  0.50269331  1
  Ni  Ni28  1  1.00130860  1.00007759  0.66798909  1
  Ni  Ni29  1  0.16808735  0.16779546  0.83502913  1
  Ni  Ni30  1  0.17008586  0.50188506  0.50247873  1
  Fe  Fe31  1  0.00246544  0.33382857  0.66852727  1
  Ni  Ni32  1  0.16966472  0.50033908  0.83373122  1
  Ni  Ni33  1  0.16871346  0.83541063  0.50124822  1
  Ni  Ni34  1  0.00234187  0.66832417  0.66793114  1
  Ni  Ni35  1  0.16929932  0.83638945  0.83376762  1
  Fe  Fe36  1  0.50154183  0.16816934  0.50173302  1
  Ni  Ni37  1  0.33524727  1.00139112  0.66832022  1
  Ni  Ni38  1  0.50169932  0.16840670  0.83430436  1
  Ni  Ni39  1  0.50133949  0.50220910  0.50096024  1
  Ni  Ni40  1  0.33642008  0.33513832  0.66842198  1
  Ni  Ni41  1  0.50163526  0.50165986  0.83522827  1
  Ni  Ni42  1  0.50149093  0.83408025  0.50182591  1
  Ni  Ni43  1  0.33304948  0.66827314  0.66824382  1
  Ni  Ni44  1  0.50141752  0.83481912  0.83495135  1
  Ni  Ni45  1  0.83463100  0.16712164  0.50246927  1
  Ni  Ni46  1  0.66824319  0.00339980  0.66872774  1
  Ni  Ni47  1  0.83515415  0.16800489  0.83519636  1
  Ni  Ni48  1  0.83325262  0.50216025  0.50287293  1
  Ni  Ni49  1  0.66801273  0.33402150  0.66766453  1
  Ni  Ni50  1  0.83346427  0.50030454  0.83323433  1
  Ni  Ni51  1  0.83441628  0.83547705  0.50130400  1
  Fe  Fe52  1  0.66698208  0.66929717  0.66824634  1
  Ni  Ni53  1  0.83384125  0.83641245  0.83398030  1
" 