2222,Ni87Fe9Cr3_0,-239.160791562136, 184.133837457672,Ni87Fe9Cr3,"# generated using pymatgen
 data_Cr3Fe4Ni47
_symmetry_space_group_name_H-M   'P 1'
_cell_length_a   7.44856878
_cell_length_b   7.44856878
_cell_length_c   10.53386699
_cell_angle_alpha   90.00000000
_cell_angle_beta   90.00000000
_cell_angle_gamma   90.00000000
_symmetry_Int_Tables_number   1
_chemical_formula_structural   Cr3Fe4Ni47
_chemical_formula_sum   'Cr3 Fe4 Ni47'
_cell_volume   584.43133738
_cell_formula_units_Z   1
loop_
 _symmetry_equiv_pos_site_id
 _symmetry_equiv_pos_as_xyz
  1  'x, y, z'
loop_
 _atom_site_type_symbol
 _atom_site_label
 _atom_site_symmetry_multiplicity
 _atom_site_fract_x
 _atom_site_fract_y
 _atom_site_fract_z
 _atom_site_occupancy
  Ni  Ni0  1  1.00119339  0.00170220  0.00135485  1
  Ni  Ni1  1  0.16817133  0.16559109  0.16534597  1
  Ni  Ni2  1  1.00111520  0.99938533  0.33463679  1
  Ni  Ni3  1  0.00138047  0.33446052  1.00117491  1
  Ni  Ni4  1  0.16906279  0.50309869  0.16601722  1
  Cr  Cr5  1  0.99989732  0.33478008  0.33478536  1
  Ni  Ni6  1  0.00125937  0.66756303  0.00158287  1
  Ni  Ni7  1  0.16772665  0.83503323  0.16840338  1
  Ni  Ni8  1  1.00110433  0.66974932  0.33459407  1
  Ni  Ni9  1  0.33351631  1.00069836  0.00234875  1
  Fe  Fe10  1  0.50208738  0.16756167  0.16728142  1
  Ni  Ni11  1  0.33450783  0.99937344  0.33476788  1
  Ni  Ni12  1  0.33345534  0.33558355  0.00217233  1
  Ni  Ni13  1  0.50184211  0.50131548  0.16689390  1
  Cr  Cr14  1  0.33552261  0.33474526  0.33496561  1
  Ni  Ni15  1  0.33458180  0.66743377  0.00129325  1
  Fe  Fe16  1  0.50118810  0.83408159  0.16838020  1
  Ni  Ni17  1  0.33459025  0.66968092  0.33470561  1
  Ni  Ni18  1  0.66901007  1.00057607  0.00209831  1
  Ni  Ni19  1  0.83345011  0.16666135  0.16689291  1
  Ni  Ni20  1  0.66810089  1.00097461  0.33476928  1
  Ni  Ni21  1  0.66887846  0.33551417  0.00248849  1
  Ni  Ni22  1  0.83281618  0.50177526  0.16683295  1
  Ni  Ni23  1  0.66802964  0.33467064  0.33469714  1
  Ni  Ni24  1  0.66788487  0.66761943  1.00105766  1
  Ni  Ni25  1  0.83522686  0.83528660  0.16790494  1
  Ni  Ni26  1  0.66802911  0.66807174  0.33470812  1
  Ni  Ni27  1  0.16855951  0.16580841  0.50360968  1
  Ni  Ni28  1  1.00119092  0.00170106  0.66772774  1
  Fe  Fe29  1  0.16570785  0.16838586  0.83462321  1
  Ni  Ni30  1  0.16861906  0.50310384  0.50268693  1
  Ni  Ni31  1  0.00137860  0.33443720  0.66795048  1
  Ni  Ni32  1  0.16866071  0.50246439  0.83502163  1
  Ni  Ni33  1  0.16811182  0.83481133  0.50055005  1
  Ni  Ni34  1  0.00125983  0.66758770  0.66754455  1
  Ni  Ni35  1  0.16733122  0.83403293  0.83476797  1
  Ni  Ni36  1  0.50209748  0.16738879  0.50120543  1
  Ni  Ni37  1  0.33370918  1.00070770  0.66660128  1
  Cr  Cr38  1  0.50191609  0.16880608  0.83462721  1
  Ni  Ni39  1  0.50184455  0.50132751  0.50231334  1
  Ni  Ni40  1  0.33358050  0.33548788  0.66684362  1
  Ni  Ni41  1  0.50079548  0.50188372  0.83451449  1
  Ni  Ni42  1  0.50077715  0.83500293  0.50149458  1
  Ni  Ni43  1  0.33469793  0.66752435  0.66772429  1
  Fe  Fe44  1  0.50171659  0.83237831  0.83414656  1
  Ni  Ni45  1  0.83306390  0.16688109  0.50206227  1
  Ni  Ni46  1  0.66881762  1.00058428  0.66685237  1
  Ni  Ni47  1  0.83503158  0.16724702  0.83476774  1
  Ni  Ni48  1  0.83325680  0.50177667  0.50186819  1
  Ni  Ni49  1  0.66875488  0.33541718  0.66652953  1
  Ni  Ni50  1  0.83426301  0.50136580  0.83502156  1
  Ni  Ni51  1  0.83483244  0.83506499  0.50104767  1
  Ni  Ni52  1  0.66776677  0.66771305  0.66795819  1
  Ni  Ni53  1  0.83561286  0.83510564  0.83476839  1
" 