337,Ni87Fe10Cr2_8,-240.198652906647, 189.738785262528,Ni87Fe10Cr2,"# generated using pymatgen
 data_Cr2Fe5Ni47
_symmetry_space_group_name_H-M   'P 1'
_cell_length_a   7.44267720
_cell_length_b   7.44267720
_cell_length_c   10.52553504
_cell_angle_alpha   90.00000000
_cell_angle_beta   90.00000000
_cell_angle_gamma   90.00000000
_symmetry_Int_Tables_number   1
_chemical_formula_structural   Cr2Fe5Ni47
_chemical_formula_sum   'Cr2 Fe5 Ni47'
_cell_volume   583.04563540
_cell_formula_units_Z   1
loop_
 _symmetry_equiv_pos_site_id
 _symmetry_equiv_pos_as_xyz
  1  'x, y, z'
loop_
 _atom_site_type_symbol
 _atom_site_label
 _atom_site_symmetry_multiplicity
 _atom_site_fract_x
 _atom_site_fract_y
 _atom_site_fract_z
 _atom_site_occupancy
  Ni  Ni0  1  0.00243793  0.00243782  0.00275557  1
  Ni  Ni1  1  0.16804452  0.16866403  0.16808770  1
  Fe  Fe2  1  1.00162838  1.00109726  0.33501248  1
  Ni  Ni3  1  0.00192806  0.33467695  1.00129635  1
  Ni  Ni4  1  0.16896364  0.50177039  0.16813794  1
  Fe  Fe5  1  0.00192523  0.33526324  0.33531578  1
  Ni  Ni6  1  0.00273331  0.66779331  1.00157849  1
  Ni  Ni7  1  0.16779972  0.83447835  0.16795246  1
  Ni  Ni8  1  0.00197139  0.66855814  0.33572151  1
  Ni  Ni9  1  0.33459382  1.00163466  1.00074495  1
  Ni  Ni10  1  0.50207537  0.16866347  0.16818859  1
  Ni  Ni11  1  0.33495044  0.00205400  0.33580890  1
  Ni  Ni12  1  0.33459474  0.33497410  0.00172161  1
  Ni  Ni13  1  0.50109027  0.50170386  0.16823595  1
  Ni  Ni14  1  0.33494621  0.33477482  0.33506071  1
  Ni  Ni15  1  0.33459425  0.66830134  1.00162463  1
  Ni  Ni16  1  0.50225260  0.83454483  0.16805039  1
  Ni  Ni17  1  0.33419771  0.66808157  0.33516869  1
  Ni  Ni18  1  0.66787876  0.00244111  0.00231455  1
  Ni  Ni19  1  0.83478865  0.16749617  0.16789988  1
  Ni  Ni20  1  0.66828805  0.00187723  0.33522644  1
  Ni  Ni21  1  0.66838963  0.33467666  1.00085107  1
  Fe  Fe22  1  0.83477820  0.50193283  0.16805231  1
  Ni  Ni23  1  0.66780904  0.33447541  0.33570490  1
  Ni  Ni24  1  0.66758540  0.66779248  0.00250539  1
  Ni  Ni25  1  0.83485820  0.83546270  0.16830419  1
  Ni  Ni26  1  0.66874463  0.66855793  0.33527683  1
  Ni  Ni27  1  0.16741398  0.16779601  0.50076724  1
  Ni  Ni28  1  0.00170787  0.00282385  0.66716965  1
  Ni  Ni29  1  0.16738590  0.16795162  0.83605575  1
  Ni  Ni30  1  0.16771042  0.50243224  0.50096090  1
  Ni  Ni31  1  1.00021553  0.33400956  0.66815500  1
  Ni  Ni32  1  0.16774804  0.50218621  0.83581122  1
  Ni  Ni33  1  0.16822094  0.83467782  0.50185249  1
  Fe  Fe34  1  0.00175007  0.66730302  0.66737979  1
  Ni  Ni35  1  0.16992190  0.83477121  0.83510523  1
  Ni  Ni36  1  0.50273561  0.16779697  0.50071066  1
  Fe  Fe37  1  0.33536695  1.00038326  0.66831294  1
  Ni  Ni38  1  0.50258001  0.16795465  0.83601563  1
  Ni  Ni39  1  0.50243447  0.50243680  0.50091121  1
  Cr  Cr40  1  0.33477878  0.33571039  0.66834667  1
  Ni  Ni41  1  0.50227682  0.50225224  0.83576614  1
  Ni  Ni42  1  0.50192671  0.83467826  0.50179270  1
  Ni  Ni43  1  0.33513539  0.66955833  0.66811645  1
  Ni  Ni44  1  0.50010463  0.83470517  0.83506663  1
  Ni  Ni45  1  0.83476250  0.16830282  0.50223060  1
  Ni  Ni46  1  0.66883097  0.00207908  0.66737112  1
  Ni  Ni47  1  0.83495228  0.17012162  0.83477642  1
  Ni  Ni48  1  0.83476113  0.50163048  0.50172901  1
  Ni  Ni49  1  0.67030870  0.33476860  0.66835866  1
  Ni  Ni50  1  0.83488301  0.49971601  0.83522708  1
  Ni  Ni51  1  0.83476404  0.83497391  0.50155064  1
  Ni  Ni52  1  0.66707586  0.66805952  0.66712948  1
  Cr  Cr53  1  0.83480852  0.83514489  0.83514160  1
" 