8097,Ni87Fe13_2,-230.02342689866, 167.440598217445,Ni87Fe13,"# generated using pymatgen
 data_Fe23Ni4
_symmetry_space_group_name_H-M   'P 1'
_cell_length_a   7.40418922
_cell_length_b   7.40418922
_cell_length_c   10.47110481
_cell_angle_alpha   90.00000000
_cell_angle_beta   90.00000000
_cell_angle_gamma   90.00000000
_symmetry_Int_Tables_number   1
_chemical_formula_structural   Fe23Ni4
_chemical_formula_sum   'Fe46 Ni8'
_cell_volume   574.04709575
_cell_formula_units_Z   2
loop_
 _symmetry_equiv_pos_site_id
 _symmetry_equiv_pos_as_xyz
  1  'x, y, z'
loop_
 _atom_site_type_symbol
 _atom_site_label
 _atom_site_symmetry_multiplicity
 _atom_site_fract_x
 _atom_site_fract_y
 _atom_site_fract_z
 _atom_site_occupancy
  Fe  Fe0  1  0.00501656  0.00482379  0.00488391  1
  Fe  Fe1  1  0.17027751  0.17154376  0.17090235  1
  Ni  Ni2  1  1.00390937  1.00402180  0.33689653  1
  Ni  Ni3  1  1.00395139  0.33798786  1.00401723  1
  Fe  Fe4  1  0.17043174  0.50357332  0.17090345  1
  Fe  Fe5  1  1.00380744  0.33791793  0.33656397  1
  Fe  Fe6  1  0.00438579  0.67028353  1.00405113  1
  Fe  Fe7  1  0.17027936  0.83761565  0.17080797  1
  Fe  Fe8  1  1.00402257  0.67065854  0.33739230  1
  Ni  Ni9  1  0.33773334  1.00420595  1.00401910  1
  Fe  Fe10  1  0.50420718  0.17154369  0.17080552  1
  Fe  Fe11  1  0.33763391  1.00409135  0.33683448  1
  Fe  Fe12  1  0.33700255  0.33680981  0.00424735  1
  Fe  Fe13  1  0.50482670  0.50434727  0.17178322  1
  Ni  Ni14  1  0.33746184  0.33757494  0.33662576  1
  Fe  Fe15  1  0.33684630  0.67123301  1.00414964  1
  Fe  Fe16  1  0.50497976  0.83684471  0.17071127  1
  Fe  Fe17  1  0.33752154  0.67106645  0.33767390  1
  Fe  Fe18  1  0.67068499  0.00497847  1.00405143  1
  Fe  Fe19  1  0.83824950  0.17139124  0.17090583  1
  Fe  Fe20  1  0.67084576  0.00430979  0.33777096  1
  Fe  Fe21  1  0.67163343  0.33743808  1.00414977  1
  Ni  Ni22  1  0.83768866  0.50413713  0.17175223  1
  Fe  Fe23  1  0.67125339  0.33780859  0.33729555  1
  Fe  Fe24  1  0.67150078  0.67031854  0.00488242  1
  Fe  Fe25  1  0.83747667  0.83699729  0.17178145  1
  Ni  Ni26  1  0.67136255  0.67113693  0.33780495  1
  Fe  Fe27  1  0.17120880  0.17121630  0.50394608  1
  Fe  Fe28  1  0.00488134  0.00478359  0.66998217  1
  Fe  Fe29  1  0.17055746  0.17182345  0.83788125  1
  Fe  Fe30  1  0.17178733  0.50355022  0.50444038  1
  Fe  Fe31  1  0.00443523  0.33796010  0.67202321  1
  Fe  Fe32  1  0.17033159  0.50367191  0.83739532  1
  Fe  Fe33  1  0.17042903  0.83796712  0.50404854  1
  Fe  Fe34  1  0.00468998  0.66998914  0.67129178  1
  Fe  Fe35  1  0.17055898  0.83723810  0.83786873  1
  Fe  Fe36  1  0.50355221  0.17160197  0.50444036  1
  Fe  Fe37  1  0.33767323  0.00472299  0.67175021  1
  Fe  Fe38  1  0.50430612  0.17144785  0.83749322  1
  Fe  Fe39  1  0.50374945  0.50394030  0.50394996  1
  Ni  Ni40  1  0.33746073  0.33757421  0.67254271  1
  Fe  Fe41  1  0.50454136  0.50406145  0.83701046  1
  Fe  Fe42  1  0.50472391  0.83719431  0.50405370  1
  Fe  Fe43  1  0.33747878  0.67043528  0.67091113  1
  Fe  Fe44  1  0.50469546  0.83722332  0.83797098  1
  Fe  Fe45  1  0.83796999  0.17024260  0.50404958  1
  Fe  Fe46  1  0.67017995  0.00497819  0.67091161  1
  Fe  Fe47  1  0.83787262  0.17167268  0.83777020  1
  Fe  Fe48  1  0.83719755  0.50472066  0.50405401  1
  Fe  Fe49  1  0.67062378  0.33776689  0.67129099  1
  Ni  Ni50  1  0.83769277  0.50401485  0.83697316  1
  Fe  Fe51  1  0.83758105  0.83777207  0.50366714  1
  Fe  Fe52  1  0.67056666  0.66998767  0.67055739  1
  Fe  Fe53  1  0.83748249  0.83700176  0.83728054  1
" 