989,Ni87Fe9Cr3_19,-239.190622200009, 184.581146518291,Ni87Fe9Cr3,"# generated using pymatgen
 data_Cr3Fe4Ni47
_symmetry_space_group_name_H-M   'P 1'
_cell_length_a   7.44751383
_cell_length_b   7.44751383
_cell_length_c   10.53237506
_cell_angle_alpha   90.00000000
_cell_angle_beta   90.00000000
_cell_angle_gamma   90.00000000
_symmetry_Int_Tables_number   1
_chemical_formula_structural   Cr3Fe4Ni47
_chemical_formula_sum   'Cr3 Fe4 Ni47'
_cell_volume   584.18305103
_cell_formula_units_Z   1
loop_
 _symmetry_equiv_pos_site_id
 _symmetry_equiv_pos_as_xyz
  1  'x, y, z'
loop_
 _atom_site_type_symbol
 _atom_site_label
 _atom_site_symmetry_multiplicity
 _atom_site_fract_x
 _atom_site_fract_y
 _atom_site_fract_z
 _atom_site_occupancy
  Ni  Ni0  1  0.00209068  1.00096008  1.00103063  1
  Ni  Ni1  1  0.16828279  0.16846205  0.16773852  1
  Ni  Ni2  1  1.00036232  1.00127312  0.33370445  1
  Ni  Ni3  1  0.00262281  0.33415962  1.00128012  1
  Ni  Ni4  1  0.16809476  0.50073421  0.16775615  1
  Ni  Ni5  1  0.99997984  0.33456837  0.33327250  1
  Ni  Ni6  1  1.00100584  0.66881302  0.00151332  1
  Ni  Ni7  1  0.16854744  0.83473479  0.16859234  1
  Fe  Fe8  1  1.00110786  0.66766496  0.33449174  1
  Ni  Ni9  1  0.33279928  0.00178303  0.00236836  1
  Ni  Ni10  1  0.49991195  0.16673593  0.16910756  1
  Ni  Ni11  1  0.33511432  1.00018013  0.33366588  1
  Ni  Ni12  1  0.33336161  0.33442495  1.00128799  1
  Ni  Ni13  1  0.50017619  0.50253305  0.16928717  1
  Ni  Ni14  1  0.33543345  0.33559648  0.33320721  1
  Ni  Ni15  1  0.33415569  0.66772477  0.00211078  1
  Ni  Ni16  1  0.50144826  0.83466372  0.16791176  1
  Ni  Ni17  1  0.33532004  0.66815704  0.33442811  1
  Fe  Fe18  1  0.66889060  1.00043315  0.00222035  1
  Ni  Ni19  1  0.83573899  0.16719020  0.16951803  1
  Ni  Ni20  1  0.66845407  0.00138572  0.33412687  1
  Cr  Cr21  1  0.66793687  0.33550040  1.00127348  1
  Ni  Ni22  1  0.83566558  0.50226733  0.16893781  1
  Ni  Ni23  1  0.66852500  0.33477439  0.33496662  1
  Ni  Ni24  1  0.66877430  0.66825873  0.00211213  1
  Ni  Ni25  1  0.83393755  0.83447584  0.16772068  1
  Ni  Ni26  1  0.66742737  0.66776998  0.33429437  1
  Cr  Cr27  1  0.16829568  0.16912362  0.50136656  1
  Ni  Ni28  1  1.00036120  1.00041473  0.66919870  1
  Ni  Ni29  1  0.16807327  0.16864516  0.83479911  1
  Ni  Ni30  1  0.16748428  0.50238231  0.50146296  1
  Ni  Ni31  1  0.99997994  0.33518831  0.66938117  1
  Ni  Ni32  1  0.16780628  0.50065647  0.83471557  1
  Fe  Fe33  1  0.16782769  0.83360443  0.50164437  1
  Ni  Ni34  1  1.00118788  0.66833287  0.66793286  1
  Ni  Ni35  1  0.16644181  0.83463170  0.83368387  1
  Ni  Ni36  1  0.50262814  0.16662205  0.50155215  1
  Ni  Ni37  1  0.33450628  1.00123276  0.66790446  1
  Ni  Ni38  1  0.49990864  0.16874418  0.83327190  1
  Fe  Fe39  1  0.50209820  0.50124917  0.50132221  1
  Ni  Ni40  1  0.33590148  0.33537620  0.66943719  1
  Ni  Ni41  1  0.50017532  0.50055492  0.83305214  1
  Ni  Ni42  1  0.50209182  0.83519122  0.50121067  1
  Ni  Ni43  1  0.33387251  0.66732289  0.66739555  1
  Cr  Cr44  1  0.50173435  0.83452454  0.83528538  1
  Ni  Ni45  1  0.83279966  0.16792230  0.50139704  1
  Ni  Ni46  1  0.66906343  0.00243998  0.66744316  1
  Ni  Ni47  1  0.83595157  0.16737433  0.83301578  1
  Ni  Ni48  1  0.83546909  0.50184001  0.50146317  1
  Ni  Ni49  1  0.66805717  0.33455302  0.66767858  1
  Ni  Ni50  1  0.83595303  0.50219006  0.83353436  1
  Ni  Ni51  1  0.83305717  0.83416914  0.50165953  1
  Ni  Ni52  1  0.66887403  0.66693648  0.66753088  1
  Ni  Ni53  1  0.83605179  0.83436931  0.83455295  1
" 