9008,Ni87Fe10Cr2_3,-240.191124084943, 189.533133579667,Ni87Fe10Cr2,"# generated using pymatgen
 data_Cr2Fe5Ni47
_symmetry_space_group_name_H-M   'P 1'
_cell_length_a   7.44296506
_cell_length_b   7.44296506
_cell_length_c   10.52594214
_cell_angle_alpha   90.00000000
_cell_angle_beta   90.00000000
_cell_angle_gamma   90.00000000
_symmetry_Int_Tables_number   1
_chemical_formula_structural   Cr2Fe5Ni47
_chemical_formula_sum   'Cr2 Fe5 Ni47'
_cell_volume   583.11328901
_cell_formula_units_Z   1
loop_
 _symmetry_equiv_pos_site_id
 _symmetry_equiv_pos_as_xyz
  1  'x, y, z'
loop_
 _atom_site_type_symbol
 _atom_site_label
 _atom_site_symmetry_multiplicity
 _atom_site_fract_x
 _atom_site_fract_y
 _atom_site_fract_z
 _atom_site_occupancy
  Ni  Ni0  1  0.00268102  1.00047023  1.00056309  1
  Ni  Ni1  1  0.16943306  0.16844661  0.16786269  1
  Ni  Ni2  1  0.00443409  1.00067309  0.33584636  1
  Ni  Ni3  1  0.00271910  0.33621775  1.00075970  1
  Ni  Ni4  1  0.16859012  0.50091884  0.16866548  1
  Ni  Ni5  1  0.00324728  0.33575199  0.33590962  1
  Ni  Ni6  1  0.00189300  0.66805257  0.00274170  1
  Ni  Ni7  1  0.16896840  0.83539067  0.16850371  1
  Fe  Fe8  1  1.00154211  0.66809402  0.33483586  1
  Ni  Ni9  1  0.33461629  1.00131872  0.00240701  1
  Fe  Fe10  1  0.49983640  0.16924836  0.16778194  1
  Ni  Ni11  1  0.33269436  0.00182196  0.33465224  1
  Ni  Ni12  1  0.33426737  0.33537295  0.00201962  1
  Ni  Ni13  1  0.50169098  0.50235673  0.16794620  1
  Ni  Ni14  1  0.33432452  0.33511174  0.33464509  1
  Ni  Ni15  1  0.33460524  0.66825481  0.00199375  1
  Ni  Ni16  1  0.50064529  0.83326636  0.16770076  1
  Fe  Fe17  1  0.33551343  0.66785993  0.33527812  1
  Ni  Ni18  1  0.66743047  1.00018188  1.00120501  1
  Cr  Cr19  1  0.83666972  0.16962622  0.16724969  1
  Cr  Cr20  1  0.66726471  0.99944627  0.33592594  1
  Ni  Ni21  1  0.66741873  0.33647996  1.00142644  1
  Ni  Ni22  1  0.83447644  0.50269489  0.16847525  1
  Ni  Ni23  1  0.66720361  0.33889700  0.33590497  1
  Ni  Ni24  1  0.66823790  0.66840710  0.00173290  1
  Ni  Ni25  1  0.83517397  0.83282528  0.16703668  1
  Ni  Ni26  1  0.66823222  0.66684099  0.33479769  1
  Ni  Ni27  1  0.16935393  0.16846394  0.50189373  1
  Ni  Ni28  1  0.00199765  1.00114722  0.66816696  1
  Ni  Ni29  1  0.16879189  0.16868139  0.83514030  1
  Ni  Ni30  1  0.16825531  0.50084429  0.50143632  1
  Ni  Ni31  1  0.00210434  0.33554846  0.66798152  1
  Ni  Ni32  1  0.16759718  0.50168142  0.83481390  1
  Ni  Ni33  1  0.16854425  0.83551590  0.50157351  1
  Ni  Ni34  1  0.00166412  0.66811254  0.66783207  1
  Ni  Ni35  1  0.16905460  0.83450291  0.83482122  1
  Ni  Ni36  1  0.49974283  0.16924101  0.50133024  1
  Ni  Ni37  1  0.33491690  0.00174353  0.66786910  1
  Ni  Ni38  1  0.50164905  0.16763051  0.83593016  1
  Ni  Ni39  1  0.50198325  0.50135517  0.50240008  1
  Ni  Ni40  1  0.33471177  0.33502248  0.66840394  1
  Fe  Fe41  1  0.50126279  0.50182862  0.83481496  1
  Ni  Ni42  1  0.50099840  0.83440620  0.50260979  1
  Ni  Ni43  1  0.33455905  0.66812312  0.66747787  1
  Ni  Ni44  1  0.50140706  0.83573885  0.83439816  1
  Fe  Fe45  1  0.83592767  0.16902882  0.50248718  1
  Ni  Ni46  1  0.66806355  1.00124346  0.66760315  1
  Ni  Ni47  1  0.83432583  0.16888169  0.83401723  1
  Ni  Ni48  1  0.83472112  0.50201287  0.50098392  1
  Ni  Ni49  1  0.66806905  0.33535019  0.66741110  1
  Ni  Ni50  1  0.83540278  0.50146876  0.83559375  1
  Ni  Ni51  1  0.83547379  0.83292039  0.50251109  1
  Ni  Ni52  1  0.66856500  0.66831700  0.66844799  1
  Ni  Ni53  1  0.83440853  0.83452391  0.83554477  1
" 