3964,Ni87Fe10Cr2_6,-240.185399688587, 189.489514306045,Ni87Fe10Cr2,"# generated using pymatgen
 data_Cr2Fe5Ni47
_symmetry_space_group_name_H-M   'P 1'
_cell_length_a   7.44360991
_cell_length_b   7.44360991
_cell_length_c   10.52685409
_cell_angle_alpha   90.00000000
_cell_angle_beta   90.00000000
_cell_angle_gamma   90.00000000
_symmetry_Int_Tables_number   1
_chemical_formula_structural   Cr2Fe5Ni47
_chemical_formula_sum   'Cr2 Fe5 Ni47'
_cell_volume   583.26486318
_cell_formula_units_Z   1
loop_
 _symmetry_equiv_pos_site_id
 _symmetry_equiv_pos_as_xyz
  1  'x, y, z'
loop_
 _atom_site_type_symbol
 _atom_site_label
 _atom_site_symmetry_multiplicity
 _atom_site_fract_x
 _atom_site_fract_y
 _atom_site_fract_z
 _atom_site_occupancy
  Fe  Fe0  1  1.00148611  1.00143890  0.00161895  1
  Ni  Ni1  1  0.16731066  0.16829538  0.16814549  1
  Ni  Ni2  1  1.00124384  0.00208623  0.33465641  1
  Ni  Ni3  1  1.00145646  0.33568314  0.00193738  1
  Ni  Ni4  1  0.16738852  0.50098700  0.16814797  1
  Ni  Ni5  1  1.00114470  0.33468203  0.33475198  1
  Ni  Ni6  1  0.00206575  0.66727844  0.00264817  1
  Ni  Ni7  1  0.16855109  0.83539357  0.16877287  1
  Ni  Ni8  1  0.00240466  0.66785433  0.33449128  1
  Ni  Ni9  1  0.33549308  1.00125199  0.00251951  1
  Fe  Fe10  1  0.50236392  0.16696467  0.16760595  1
  Fe  Fe11  1  0.33473967  1.00114676  0.33447880  1
  Ni  Ni12  1  0.33331813  0.33349782  1.00092381  1
  Cr  Cr13  1  0.50170538  0.50284475  0.16772702  1
  Fe  Fe14  1  0.33371399  0.33522606  0.33601619  1
  Ni  Ni15  1  0.33317030  0.66982279  1.00022087  1
  Ni  Ni16  1  0.50172855  0.83571072  0.16820020  1
  Ni  Ni17  1  0.33365699  0.66961414  0.33582036  1
  Ni  Ni18  1  0.66720864  0.00177551  0.00163116  1
  Ni  Ni19  1  0.83608042  0.16774490  0.16841049  1
  Ni  Ni20  1  0.66817795  0.00212891  0.33487118  1
  Ni  Ni21  1  0.67001587  0.33338073  1.00076229  1
  Ni  Ni22  1  0.83617193  0.50129965  0.16880027  1
  Ni  Ni23  1  0.67003830  0.33328981  0.33571393  1
  Ni  Ni24  1  0.66956860  0.66947494  1.00113132  1
  Ni  Ni25  1  0.83437112  0.83558636  0.16836210  1
  Ni  Ni26  1  0.66858934  0.66916127  0.33544733  1
  Ni  Ni27  1  0.16669460  0.16973470  0.50088748  1
  Ni  Ni28  1  1.00011636  0.00183604  0.66871145  1
  Ni  Ni29  1  0.16719014  0.16919608  0.83578793  1
  Ni  Ni30  1  0.16858583  0.50056573  0.50141937  1
  Ni  Ni31  1  1.00152010  0.33516178  0.66806511  1
  Ni  Ni32  1  0.16865116  0.50113442  0.83520911  1
  Fe  Fe33  1  0.16664386  0.83390183  0.50112614  1
  Ni  Ni34  1  0.00177018  0.66768380  0.66768216  1
  Ni  Ni35  1  0.16728528  0.83434997  0.83545371  1
  Ni  Ni36  1  0.50215252  0.16884558  0.49983656  1
  Cr  Cr37  1  0.33575962  1.00146875  0.66798036  1
  Ni  Ni38  1  0.50215829  0.16917131  0.83634427  1
  Ni  Ni39  1  0.50110591  0.50225309  0.50220349  1
  Ni  Ni40  1  0.33477823  0.33605751  0.66804136  1
  Ni  Ni41  1  0.50122501  0.50176636  0.83438632  1
  Ni  Ni42  1  0.50344707  0.83358117  0.50059610  1
  Ni  Ni43  1  0.33463384  0.66679034  0.66875789  1
  Ni  Ni44  1  0.50270150  0.83372613  0.83597025  1
  Ni  Ni45  1  0.83570892  0.16732806  0.50202540  1
  Ni  Ni46  1  0.66926974  0.00197377  0.66799734  1
  Ni  Ni47  1  0.83531185  0.16780438  0.83430791  1
  Ni  Ni48  1  0.83496884  0.50187533  0.50085518  1
  Ni  Ni49  1  0.66838310  0.33442416  0.66807483  1
  Ni  Ni50  1  0.83484207  0.50170822  0.83510467  1
  Ni  Ni51  1  0.83405416  0.83552391  0.50134306  1
  Ni  Ni52  1  0.66825815  0.66832010  0.66802916  1
  Ni  Ni53  1  0.83463459  0.83521156  0.83500504  1
" 