2409,Ni87Fe13_16,-229.923378531927, 163.854683810835,Ni87Fe13,"# generated using pymatgen
 data_Fe23Ni4
_symmetry_space_group_name_H-M   'P 1'
_cell_length_a   7.40369618
_cell_length_b   7.40369618
_cell_length_c   10.47040755
_cell_angle_alpha   90.00000000
_cell_angle_beta   90.00000000
_cell_angle_gamma   90.00000000
_symmetry_Int_Tables_number   1
_chemical_formula_structural   Fe23Ni4
_chemical_formula_sum   'Fe46 Ni8'
_cell_volume   573.93242777
_cell_formula_units_Z   2
loop_
 _symmetry_equiv_pos_site_id
 _symmetry_equiv_pos_as_xyz
  1  'x, y, z'
loop_
 _atom_site_type_symbol
 _atom_site_label
 _atom_site_symmetry_multiplicity
 _atom_site_fract_x
 _atom_site_fract_y
 _atom_site_fract_z
 _atom_site_occupancy
  Fe  Fe0  1  1.00393973  1.00393981  1.00385270  1
  Fe  Fe1  1  0.17085901  0.17094506  0.17137221  1
  Fe  Fe2  1  0.00542890  0.00431163  0.33744309  1
  Fe  Fe3  1  0.00444984  0.33761272  0.00501228  1
  Fe  Fe4  1  0.17085864  0.50427965  0.17119837  1
  Ni  Ni5  1  1.00299439  0.33782035  0.33791632  1
  Fe  Fe6  1  1.00393709  0.67128298  1.00385235  1
  Fe  Fe7  1  0.17153571  0.83761038  0.17136411  1
  Fe  Fe8  1  0.00508793  0.67074386  0.33769404  1
  Fe  Fe9  1  0.33761271  0.00444992  0.00483881  1
  Fe  Fe10  1  0.50411212  0.17060629  0.17085502  1
  Ni  Ni11  1  0.33805651  1.00251745  0.33751328  1
  Fe  Fe12  1  0.33761247  0.33761267  1.00410297  1
  Fe  Fe13  1  0.50402598  0.50453163  0.17141437  1
  Fe  Fe14  1  0.33717909  0.33777772  0.33760581  1
  Fe  Fe15  1  0.33761499  0.67077248  0.00483894  1
  Fe  Fe16  1  0.50369123  0.83769662  0.17200903  1
  Ni  Ni17  1  0.33806297  0.67249797  0.33762592  1
  Fe  Fe18  1  0.67128291  1.00393718  1.00402572  1
  Fe  Fe19  1  0.83786117  0.17128506  0.17111532  1
  Fe  Fe20  1  0.67018963  1.00393773  0.33760777  1
  Fe  Fe21  1  0.67077257  0.33761501  1.00371881  1
  Fe  Fe22  1  0.83794726  0.50385398  0.17167441  1
  Fe  Fe23  1  0.67041322  0.33811616  0.33858973  1
  Fe  Fe24  1  0.67128324  0.67128331  1.00402539  1
  Fe  Fe25  1  0.83761169  0.83769660  0.16995475  1
  Fe  Fe26  1  0.67019108  0.67078023  0.33828683  1
  Fe  Fe27  1  0.17141924  0.17141642  0.50376650  1
  Fe  Fe28  1  1.00346744  0.00458332  0.67153883  1
  Fe  Fe29  1  0.17038675  0.17030133  0.83769647  1
  Fe  Fe30  1  0.17141724  0.50492340  0.50376700  1
  Fe  Fe31  1  1.00361255  0.33777828  0.67012842  1
  Fe  Fe32  1  0.17038678  0.50492381  0.83786973  1
  Fe  Fe33  1  0.17212461  0.83649496  0.50377552  1
  Fe  Fe34  1  1.00312810  0.67047269  0.67128882  1
  Fe  Fe35  1  0.17035806  0.83761007  0.83769374  1
  Fe  Fe36  1  0.50492130  0.17141517  0.50444951  1
  Fe  Fe37  1  0.33833580  0.00475776  0.67021579  1
  Fe  Fe38  1  0.50508983  0.17063760  0.83753105  1
  Ni  Ni39  1  0.50469701  0.50469797  0.50377184  1
  Fe  Fe40  1  0.33837335  0.33778069  0.67112432  1
  Fe  Fe41  1  0.50500313  0.50450120  0.83697161  1
  Ni  Ni42  1  0.50373233  0.83732848  0.50427442  1
  Fe  Fe43  1  0.33867533  0.67029880  0.66996541  1
  Fe  Fe44  1  0.50469561  0.83769670  0.83722271  1
  Fe  Fe45  1  0.83649299  0.17212310  0.50427616  1
  Fe  Fe46  1  0.67103046  1.00427558  0.67120236  1
  Fe  Fe47  1  0.83736025  0.17060809  0.83744589  1
  Ni  Ni48  1  0.83732599  0.50373217  0.50428672  1
  Ni  Ni49  1  0.67165149  0.33782930  0.67123205  1
  Fe  Fe50  1  0.83744705  0.50453197  0.83688625  1
  Fe  Fe51  1  0.83654731  0.83654719  0.50501096  1
  Fe  Fe52  1  0.67103102  0.67043963  0.67052184  1
  Ni  Ni53  1  0.83770859  0.83781158  0.83760945  1
" 