541,Ni87Fe13_17,-229.914731214164, 168.126718483613,Ni87Fe13,"# generated using pymatgen
 data_Fe23Ni4
_symmetry_space_group_name_H-M   'P 1'
_cell_length_a   7.39773725
_cell_length_b   7.39773725
_cell_length_c   10.46198035
_cell_angle_alpha   90.00000000
_cell_angle_beta   90.00000000
_cell_angle_gamma   90.00000000
_symmetry_Int_Tables_number   1
_chemical_formula_structural   Fe23Ni4
_chemical_formula_sum   'Fe46 Ni8'
_cell_volume   572.54773911
_cell_formula_units_Z   2
loop_
 _symmetry_equiv_pos_site_id
 _symmetry_equiv_pos_as_xyz
  1  'x, y, z'
loop_
 _atom_site_type_symbol
 _atom_site_label
 _atom_site_symmetry_multiplicity
 _atom_site_fract_x
 _atom_site_fract_y
 _atom_site_fract_z
 _atom_site_occupancy
  Fe  Fe0  1  1.00468456  1.00467181  1.00467777  1
  Fe  Fe1  1  0.17134825  0.17134741  0.17135338  1
  Fe  Fe2  1  0.00468673  0.00468752  0.33802007  1
  Fe  Fe3  1  1.00468375  0.33802470  0.00469217  1
  Fe  Fe4  1  0.17134528  0.50469053  0.17135718  1
  Ni  Ni5  1  0.00468747  0.33801827  0.33801996  1
  Ni  Ni6  1  1.00468144  0.67135679  0.00468763  1
  Ni  Ni7  1  0.17134527  0.83801271  0.17134777  1
  Fe  Fe8  1  0.00469052  0.67134448  0.33801112  1
  Fe  Fe9  1  0.33800977  1.00467562  0.00469000  1
  Fe  Fe10  1  0.50467859  0.17134445  0.17135638  1
  Fe  Fe11  1  0.33801356  0.00468970  0.33801544  1
  Fe  Fe12  1  0.33801356  0.33802386  1.00467694  1
  Fe  Fe13  1  0.50467942  0.50469135  0.17134959  1
  Fe  Fe14  1  0.33801278  0.33801790  0.33803066  1
  Fe  Fe15  1  0.33800893  0.67135421  0.00468918  1
  Fe  Fe16  1  0.50467778  0.83801789  0.17135207  1
  Fe  Fe17  1  0.33800598  0.67134609  0.33801708  1
  Fe  Fe18  1  0.67135936  1.00467644  1.00468157  1
  Fe  Fe19  1  0.83802685  0.17134905  0.17135502  1
  Fe  Fe20  1  0.67135341  0.00469431  0.33802088  1
  Fe  Fe21  1  0.67135639  0.33802386  0.00468539  1
  Fe  Fe22  1  0.83802899  0.50468972  0.17135122  1
  Fe  Fe23  1  0.67135502  0.33801411  0.33801923  1
  Fe  Fe24  1  0.67136019  0.67135340  1.00468075  1
  Fe  Fe25  1  0.83802602  0.83801492  0.17134146  1
  Fe  Fe26  1  0.67135719  0.67134527  0.33801790  1
  Fe  Fe27  1  0.17135424  0.17136101  0.50468839  1
  Ni  Ni28  1  1.00467848  1.00467855  0.67135078  1
  Fe  Fe29  1  0.17134528  0.17134529  0.83801192  1
  Ni  Ni30  1  0.17134787  0.50468552  0.50468151  1
  Fe  Fe31  1  0.00469435  0.33801493  0.67134146  1
  Fe  Fe32  1  0.17134608  0.50468970  0.83801192  1
  Fe  Fe33  1  0.17135505  0.83802088  0.50468075  1
  Fe  Fe34  1  0.00469052  0.67135203  0.67135803  1
  Fe  Fe35  1  0.17133848  0.83801871  0.83802552  1
  Ni  Ni36  1  0.50468900  0.17135296  0.50468579  1
  Fe  Fe37  1  0.33801574  0.00469434  0.67134825  1
  Fe  Fe38  1  0.50468753  0.17134907  0.83800976  1
  Fe  Fe39  1  0.50467561  0.50467645  0.50468838  1
  Ni  Ni40  1  0.33802580  0.33802049  0.67134478  1
  Fe  Fe41  1  0.50468836  0.50468755  0.83801571  1
  Fe  Fe42  1  0.50467941  0.83801706  0.50468292  1
  Fe  Fe43  1  0.33800895  0.67134743  0.67134743  1
  Fe  Fe44  1  0.50469217  0.83801707  0.83801871  1
  Fe  Fe45  1  0.83802387  0.17135720  0.50468293  1
  Fe  Fe46  1  0.67135122  0.00469051  0.67135125  1
  Fe  Fe47  1  0.83802089  0.17134147  0.83801574  1
  Fe  Fe48  1  0.83802004  0.50467563  0.50467914  1
  Fe  Fe49  1  0.67134662  0.33800815  0.67134908  1
  Fe  Fe50  1  0.83801926  0.50469434  0.83802334  1
  Fe  Fe51  1  0.83801923  0.83802086  0.50469515  1
  Fe  Fe52  1  0.67135422  0.67135503  0.67135505  1
  Ni  Ni53  1  0.83802117  0.83801788  0.83802500  1
" 