1198,Ni87Fe9Cr3_10,-239.089025931938, 184.606253937956,Ni87Fe9Cr3,"# generated using pymatgen
 data_Cr3Fe4Ni47
_symmetry_space_group_name_H-M   'P 1'
_cell_length_a   7.44810456
_cell_length_b   7.44810456
_cell_length_c   10.53321049
_cell_angle_alpha   90.00000000
_cell_angle_beta   90.00000000
_cell_angle_gamma   90.00000000
_symmetry_Int_Tables_number   1
_chemical_formula_structural   Cr3Fe4Ni47
_chemical_formula_sum   'Cr3 Fe4 Ni47'
_cell_volume   584.32207374
_cell_formula_units_Z   1
loop_
 _symmetry_equiv_pos_site_id
 _symmetry_equiv_pos_as_xyz
  1  'x, y, z'
loop_
 _atom_site_type_symbol
 _atom_site_label
 _atom_site_symmetry_multiplicity
 _atom_site_fract_x
 _atom_site_fract_y
 _atom_site_fract_z
 _atom_site_occupancy
  Ni  Ni0  1  0.00159565  1.00109135  0.00203784  1
  Ni  Ni1  1  0.16790864  0.16645168  0.16736356  1
  Fe  Fe2  1  1.00106622  0.00148962  0.33420469  1
  Ni  Ni3  1  1.00026073  0.33396207  1.00049201  1
  Cr  Cr4  1  0.16820006  0.50131377  0.16771818  1
  Ni  Ni5  1  1.00033466  0.33447295  0.33541777  1
  Ni  Ni6  1  1.00039416  0.66876002  1.00022367  1
  Ni  Ni7  1  0.16628038  0.83622675  0.16832031  1
  Ni  Ni8  1  1.00032228  0.66804704  0.33555768  1
  Ni  Ni9  1  0.33371004  0.00191078  1.00074014  1
  Ni  Ni10  1  0.50121200  0.16936985  0.16816138  1
  Ni  Ni11  1  0.33432091  0.00211402  0.33510436  1
  Ni  Ni12  1  0.33560806  0.33370457  1.00051653  1
  Ni  Ni13  1  0.50257857  0.49951217  0.16794546  1
  Ni  Ni14  1  0.33531356  0.33338344  0.33564803  1
  Ni  Ni15  1  0.33465566  0.66819830  0.99965789  1
  Cr  Cr16  1  0.50128306  0.83451423  0.16733280  1
  Ni  Ni17  1  0.33450783  0.66831840  0.33637727  1
  Ni  Ni18  1  0.66850841  0.00204537  0.99997532  1
  Ni  Ni19  1  0.83469321  0.16781329  0.16809571  1
  Ni  Ni20  1  0.66789381  0.00210209  0.33586991  1
  Ni  Ni21  1  0.66794589  0.33490765  0.00180845  1
  Ni  Ni22  1  0.83339966  0.50114225  0.16790606  1
  Ni  Ni23  1  0.66816717  0.33465786  0.33433227  1
  Ni  Ni24  1  0.66876594  0.66686096  1.00081973  1
  Ni  Ni25  1  0.83631838  0.83486005  0.16758538  1
  Ni  Ni26  1  0.66898497  0.66705450  0.33524081  1
  Ni  Ni27  1  0.16798986  0.16878152  0.50141613  1
  Ni  Ni28  1  0.00164902  0.00184596  0.66749161  1
  Fe  Fe29  1  0.16765885  0.16768217  0.83488560  1
  Ni  Ni30  1  0.16792095  0.50105927  0.50150257  1
  Ni  Ni31  1  1.00062939  0.33460646  0.66790335  1
  Ni  Ni32  1  0.16789194  0.50228226  0.83440659  1
  Fe  Fe33  1  0.16832259  0.83426016  0.50158062  1
  Ni  Ni34  1  0.00334093  0.66736325  0.66803491  1
  Ni  Ni35  1  0.16815239  0.83346582  0.83444083  1
  Ni  Ni36  1  0.50115657  0.16722970  0.50112153  1
  Ni  Ni37  1  0.33470548  1.00075839  0.66797014  1
  Ni  Ni38  1  0.50198921  0.16742145  0.83453261  1
  Ni  Ni39  1  0.49963062  0.50101318  0.50006614  1
  Fe  Fe40  1  0.33452378  0.33457044  0.66761695  1
  Ni  Ni41  1  0.49962946  0.50057146  0.83580472  1
  Ni  Ni42  1  0.50084744  0.83557151  0.50075004  1
  Ni  Ni43  1  0.33275786  0.66870860  0.66777984  1
  Ni  Ni44  1  0.50001231  0.83582177  0.83541551  1
  Ni  Ni45  1  0.83466825  0.16756354  0.50144830  1
  Ni  Ni46  1  0.66746135  0.00346794  0.66796845  1
  Ni  Ni47  1  0.83393722  0.16768184  0.83427067  1
  Ni  Ni48  1  0.83626277  0.50074818  0.50036823  1
  Ni  Ni49  1  0.66880602  0.33265925  0.66767407  1
  Ni  Ni50  1  0.83629272  0.50030553  0.83554205  1
  Ni  Ni51  1  0.83471392  0.83550394  0.50047244  1
  Cr  Cr52  1  0.66783862  0.66761375  0.66799536  1
  Ni  Ni53  1  0.83565071  0.83582778  0.83575763  1
" 