7166,Ni87Fe13_0,-229.833805254802, 163.98551697433,Ni87Fe13,"# generated using pymatgen
 data_Fe23Ni4
_symmetry_space_group_name_H-M   'P 1'
_cell_length_a   7.40146515
_cell_length_b   7.40146515
_cell_length_c   10.46725239
_cell_angle_alpha   90.00000000
_cell_angle_beta   90.00000000
_cell_angle_gamma   90.00000000
_symmetry_Int_Tables_number   1
_chemical_formula_structural   Fe23Ni4
_chemical_formula_sum   'Fe46 Ni8'
_cell_volume   573.41373696
_cell_formula_units_Z   2
loop_
 _symmetry_equiv_pos_site_id
 _symmetry_equiv_pos_as_xyz
  1  'x, y, z'
loop_
 _atom_site_type_symbol
 _atom_site_label
 _atom_site_symmetry_multiplicity
 _atom_site_fract_x
 _atom_site_fract_y
 _atom_site_fract_z
 _atom_site_occupancy
  Ni  Ni0  1  1.00408944  0.00534913  1.00398760  1
  Ni  Ni1  1  0.17098151  0.17098095  0.17133562  1
  Fe  Fe2  1  0.00460535  0.00469865  0.33662619  1
  Fe  Fe3  1  0.00529479  0.33692955  1.00366367  1
  Fe  Fe4  1  0.17145208  0.50425498  0.17101467  1
  Fe  Fe5  1  0.00469869  0.33749396  0.33809187  1
  Fe  Fe6  1  0.00487327  0.67172543  1.00402057  1
  Fe  Fe7  1  0.17109519  0.83820831  0.17065199  1
  Fe  Fe8  1  1.00424696  0.67109789  0.33854283  1
  Fe  Fe9  1  0.33668828  1.00434303  1.00392820  1
  Fe  Fe10  1  0.50398749  0.17118704  0.17146662  1
  Fe  Fe11  1  0.33758591  0.00479020  0.33827719  1
  Fe  Fe12  1  0.33672463  0.33734872  0.00470696  1
  Fe  Fe13  1  0.50357237  0.50410123  0.17082830  1
  Fe  Fe14  1  0.33758634  0.33749632  0.33740527  1
  Ni  Ni15  1  0.33832677  0.67095969  0.00454094  1
  Fe  Fe16  1  0.50356967  0.83800183  0.17092263  1
  Fe  Fe17  1  0.33794700  0.67100509  0.33707728  1
  Fe  Fe18  1  0.67139597  1.00392087  1.00425447  1
  Fe  Fe19  1  0.83847278  0.17083249  0.17032631  1
  Fe  Fe20  1  0.67109918  1.00433828  0.33785653  1
  Fe  Fe21  1  0.67127274  0.33768005  1.00425427  1
  Fe  Fe22  1  0.83826823  0.50383675  0.17137405  1
  Fe  Fe23  1  0.67100637  0.33785499  0.33776364  1
  Fe  Fe24  1  0.67097728  0.67169052  0.00461445  1
  Fe  Fe25  1  0.83862594  0.83862326  0.17101391  1
  Fe  Fe26  1  0.67109724  0.67109784  0.33776132  1
  Fe  Fe27  1  0.17127892  0.17109575  0.50478388  1
  Fe  Fe28  1  0.00497064  0.00496326  0.67222117  1
  Ni  Ni29  1  0.17010717  0.17098533  0.83706942  1
  Fe  Fe30  1  0.17047146  0.50461430  0.50487257  1
  Ni  Ni31  1  1.00353223  0.33854598  0.67110951  1
  Fe  Fe32  1  0.17023887  0.50366295  0.83740560  1
  Fe  Fe33  1  0.17118863  0.83758058  0.50487672  1
  Ni  Ni34  1  1.00396927  0.66976392  0.67153685  1
  Fe  Fe35  1  0.17059762  0.83879659  0.83776433  1
  Fe  Fe36  1  0.50425634  0.17073895  0.50451459  1
  Ni  Ni37  1  0.33868501  0.00453989  0.67153953  1
  Fe  Fe38  1  0.50434964  0.17083196  0.83731119  1
  Fe  Fe39  1  0.50452004  0.50442967  0.50415351  1
  Fe  Fe40  1  0.33636523  0.33755518  0.67117803  1
  Fe  Fe41  1  0.50425592  0.50350913  0.83830962  1
  Fe  Fe42  1  0.50416179  0.83812232  0.50460727  1
  Fe  Fe43  1  0.33672915  0.67103789  0.67160217  1
  Fe  Fe44  1  0.50389818  0.83894851  0.83776324  1
  Fe  Fe45  1  0.83775647  0.17145492  0.50510681  1
  Fe  Fe46  1  0.67192920  0.00460395  0.67117925  1
  Ni  Ni47  1  0.83908748  0.17099081  0.83764320  1
  Fe  Fe48  1  0.83829585  0.50452040  0.50487133  1
  Fe  Fe49  1  0.67189348  0.33758839  0.67127254  1
  Fe  Fe50  1  0.83879425  0.50321129  0.83704729  1
  Fe  Fe51  1  0.83794264  0.83731507  0.50442086  1
  Fe  Fe52  1  0.67162563  0.67109820  0.67091541  1
  Fe  Fe53  1  0.83879747  0.83888776  0.83785675  1
" 