2529,Ni87Fe9Cr3_12,-239.039411882526, 183.666394343221,Ni87Fe9Cr3,"# generated using pymatgen
 data_Cr3Fe4Ni47
_symmetry_space_group_name_H-M   'P 1'
_cell_length_a   7.44965112
_cell_length_b   7.44965112
_cell_length_c   10.53539765
_cell_angle_alpha   90.00000000
_cell_angle_beta   90.00000000
_cell_angle_gamma   90.00000000
_symmetry_Int_Tables_number   1
_chemical_formula_structural   Cr3Fe4Ni47
_chemical_formula_sum   'Cr3 Fe4 Ni47'
_cell_volume   584.68614263
_cell_formula_units_Z   1
loop_
 _symmetry_equiv_pos_site_id
 _symmetry_equiv_pos_as_xyz
  1  'x, y, z'
loop_
 _atom_site_type_symbol
 _atom_site_label
 _atom_site_symmetry_multiplicity
 _atom_site_fract_x
 _atom_site_fract_y
 _atom_site_fract_z
 _atom_site_occupancy
  Cr  Cr0  1  0.99998980  0.00174759  0.00305044  1
  Ni  Ni1  1  0.16941055  0.16950320  0.16920786  1
  Ni  Ni2  1  0.00119961  0.00148843  0.33465636  1
  Ni  Ni3  1  0.00146600  0.33512749  0.00127827  1
  Ni  Ni4  1  0.16772459  0.50094783  0.16705190  1
  Ni  Ni5  1  0.00132004  0.33425800  0.33388955  1
  Ni  Ni6  1  0.00206903  0.66710600  1.00007184  1
  Ni  Ni7  1  0.16844213  0.83316917  0.16906860  1
  Ni  Ni8  1  0.00202274  0.66777491  0.33516780  1
  Fe  Fe9  1  0.33513846  0.00137771  0.00159507  1
  Ni  Ni10  1  0.50070065  0.16831548  0.16738847  1
  Ni  Ni11  1  0.33428146  1.00065108  0.33378583  1
  Ni  Ni12  1  0.33456790  0.33588461  0.99972992  1
  Ni  Ni13  1  0.50107112  0.50080124  0.16809887  1
  Ni  Ni14  1  0.33427208  0.33516983  0.33620708  1
  Ni  Ni15  1  0.33472065  0.66743570  0.00174176  1
  Ni  Ni16  1  0.50147925  0.83452538  0.16733405  1
  Ni  Ni17  1  0.33432880  0.66758191  0.33430127  1
  Ni  Ni18  1  0.66718714  0.00130458  1.00011780  1
  Ni  Ni19  1  0.83343428  0.16904458  0.16879184  1
  Ni  Ni20  1  0.66810449  0.00136423  0.33498604  1
  Ni  Ni21  1  0.66760651  0.33417450  0.00137362  1
  Ni  Ni22  1  0.83466714  0.50177377  0.16739565  1
  Ni  Ni23  1  0.66785498  0.33431146  0.33425565  1
  Ni  Ni24  1  0.66686421  0.66798002  1.00068007  1
  Ni  Ni25  1  0.83363178  0.83270824  0.16877900  1
  Ni  Ni26  1  0.66704262  0.66784371  0.33494263  1
  Ni  Ni27  1  0.16807109  0.16762061  0.50136523  1
  Ni  Ni28  1  0.00153747  0.00280164  0.66742559  1
  Ni  Ni29  1  0.16871704  0.16813570  0.83349006  1
  Ni  Ni30  1  0.16641455  0.49980066  0.50136199  1
  Ni  Ni31  1  0.00237076  0.33368774  0.66854340  1
  Fe  Fe32  1  0.16737298  0.50069051  0.83548942  1
  Ni  Ni33  1  0.16718121  0.83565274  0.49993760  1
  Fe  Fe34  1  0.99926493  0.66916379  0.66728596  1
  Ni  Ni35  1  0.16769693  0.83533729  0.83467561  1
  Ni  Ni36  1  0.49984115  0.16619221  0.50072543  1
  Ni  Ni37  1  0.33375686  1.00026749  0.66864733  1
  Ni  Ni38  1  0.49984490  0.16714852  0.83523232  1
  Ni  Ni39  1  0.50147186  0.50123296  0.49867133  1
  Fe  Fe40  1  0.33487829  0.33199008  0.66729124  1
  Ni  Ni41  1  0.50226541  0.50116481  0.83635500  1
  Ni  Ni42  1  0.50174089  0.83555074  0.50039023  1
  Cr  Cr43  1  0.33582669  0.66708536  0.66674721  1
  Ni  Ni44  1  0.50131651  0.83473850  0.83571915  1
  Ni  Ni45  1  0.83565724  0.16738693  0.50026314  1
  Ni  Ni46  1  0.66793567  1.00002887  0.66831922  1
  Ni  Ni47  1  0.83497967  0.16839282  0.83465620  1
  Ni  Ni48  1  0.83537200  0.50211596  0.50007083  1
  Cr  Cr49  1  0.66875489  0.33504553  0.66699791  1
  Ni  Ni50  1  0.83475614  0.50215080  0.83565058  1
  Ni  Ni51  1  0.83418159  0.83433090  0.50194055  1
  Ni  Ni52  1  0.66717836  0.66881799  0.66792210  1
  Ni  Ni53  1  0.83406755  0.83314881  0.83292876  1
" 