3387,Ni87Fe6Cr5_9,-237.919296479371, 177.121515930489,Ni87Fe6Cr5,"# generated using pymatgen
 data_Cr4Fe3Ni47
_symmetry_space_group_name_H-M   'P 1'
_cell_length_a   7.45609338
_cell_length_b   7.45609338
_cell_length_c   10.54450838
_cell_angle_alpha   90.00000000
_cell_angle_beta   90.00000000
_cell_angle_gamma   90.00000000
_symmetry_Int_Tables_number   1
_chemical_formula_structural   Cr4Fe3Ni47
_chemical_formula_sum   'Cr4 Fe3 Ni47'
_cell_volume   586.20431820
_cell_formula_units_Z   1
loop_
 _symmetry_equiv_pos_site_id
 _symmetry_equiv_pos_as_xyz
  1  'x, y, z'
loop_
 _atom_site_type_symbol
 _atom_site_label
 _atom_site_symmetry_multiplicity
 _atom_site_fract_x
 _atom_site_fract_y
 _atom_site_fract_z
 _atom_site_occupancy
  Ni  Ni0  1  0.00109609  1.00065418  1.00057153  1
  Fe  Fe1  1  0.16735949  0.16734451  0.16812196  1
  Ni  Ni2  1  0.00084608  1.00045469  0.33446868  1
  Ni  Ni3  1  0.00213771  0.33362356  1.00021606  1
  Ni  Ni4  1  0.16728809  0.50149887  0.16729423  1
  Ni  Ni5  1  1.00038911  0.33390371  0.33454003  1
  Ni  Ni6  1  1.00061362  0.66781440  1.00024274  1
  Ni  Ni7  1  0.16727190  0.83298437  0.16753497  1
  Ni  Ni8  1  1.00051611  0.66782633  0.33470292  1
  Ni  Ni9  1  0.33401883  1.00062993  1.00067291  1
  Ni  Ni10  1  0.50061278  0.16612259  0.16848560  1
  Ni  Ni11  1  0.33423053  1.00047295  0.33437203  1
  Ni  Ni12  1  0.33273202  0.33366195  1.00028460  1
  Ni  Ni13  1  0.49858991  0.50114395  0.16816905  1
  Ni  Ni14  1  0.33475109  0.33389691  0.33446833  1
  Ni  Ni15  1  0.33453788  0.66781033  1.00030714  1
  Ni  Ni16  1  0.50014625  0.83499606  0.16690596  1
  Ni  Ni17  1  0.33460881  0.66781478  0.33463517  1
  Ni  Ni18  1  0.66709601  0.99925644  0.99995551  1
  Ni  Ni19  1  0.83428188  0.16618774  0.16839036  1
  Ni  Ni20  1  0.66705352  1.00060915  0.33474774  1
  Cr  Cr21  1  0.66634697  0.33511401  0.00167176  1
  Ni  Ni22  1  0.83627439  0.50108295  0.16810456  1
  Ni  Ni23  1  0.66706401  0.33428146  0.33446307  1
  Ni  Ni24  1  0.66707163  0.66906965  1.00064850  1
  Ni  Ni25  1  0.83478672  0.83499223  0.16691446  1
  Ni  Ni26  1  0.66708329  0.66731091  0.33370572  1
  Ni  Ni27  1  0.16936406  0.16757617  0.49901613  1
  Cr  Cr28  1  0.00194707  1.00015260  0.66675877  1
  Fe  Fe29  1  0.16953145  0.16712912  0.83506313  1
  Ni  Ni30  1  0.16958262  0.50068245  0.49926525  1
  Cr  Cr31  1  1.00031963  0.33382811  0.66739568  1
  Ni  Ni32  1  0.16950685  0.50156443  0.83558916  1
  Ni  Ni33  1  0.16947166  0.83395181  0.49891135  1
  Cr  Cr34  1  1.00056454  0.66818125  0.66663814  1
  Ni  Ni35  1  0.16928239  0.83303930  0.83565144  1
  Ni  Ni36  1  0.50074598  0.16747457  0.50099291  1
  Ni  Ni37  1  0.33525619  1.00045666  0.66718407  1
  Ni  Ni38  1  0.50057583  0.16649122  0.83291106  1
  Ni  Ni39  1  0.50018239  0.50027704  0.50094675  1
  Ni  Ni40  1  0.33672008  0.33364394  0.66745687  1
  Ni  Ni41  1  0.49882148  0.50098286  0.83327357  1
  Ni  Ni42  1  0.50024808  0.83445939  0.50098457  1
  Ni  Ni43  1  0.33658889  0.66807952  0.66731383  1
  Ni  Ni44  1  0.49990024  0.83476572  0.83428759  1
  Ni  Ni45  1  0.83203638  0.16749556  0.49910096  1
  Fe  Fe46  1  0.66536325  1.00044374  0.66734601  1
  Ni  Ni47  1  0.83215453  0.16647836  0.83481176  1
  Ni  Ni48  1  0.83246055  0.50026621  0.49892344  1
  Ni  Ni49  1  0.66557403  0.33497086  0.66709896  1
  Ni  Ni50  1  0.83389365  0.50096667  0.83520577  1
  Ni  Ni51  1  0.83236019  0.83444837  0.49888836  1
  Ni  Ni52  1  0.66546994  0.66652663  0.66787222  1
  Ni  Ni53  1  0.83294073  0.83477626  0.83618409  1
" 