628,Ni88Fe12_6,-229.212524946668, 160.371975197761,Ni88Fe12,"# generated using pymatgen
 data_Fe47Ni7
_symmetry_space_group_name_H-M   'P 1'
_cell_length_a   7.40431378
_cell_length_b   7.40431378
_cell_length_c   10.47128096
_cell_angle_alpha   90.00000000
_cell_angle_beta   90.00000000
_cell_angle_gamma   90.00000000
_symmetry_Int_Tables_number   1
_chemical_formula_structural   Fe47Ni7
_chemical_formula_sum   'Fe47 Ni7'
_cell_volume   574.07606775
_cell_formula_units_Z   1
loop_
 _symmetry_equiv_pos_site_id
 _symmetry_equiv_pos_as_xyz
  1  'x, y, z'
loop_
 _atom_site_type_symbol
 _atom_site_label
 _atom_site_symmetry_multiplicity
 _atom_site_fract_x
 _atom_site_fract_y
 _atom_site_fract_z
 _atom_site_occupancy
  Fe  Fe0  1  0.00432686  0.00433045  0.00497778  1
  Ni  Ni1  1  0.17180249  0.17115918  0.17064539  1
  Fe  Fe2  1  0.00452134  0.00461285  0.33719255  1
  Fe  Fe3  1  0.00432636  0.33747917  0.00441370  1
  Fe  Fe4  1  0.17038825  0.50437926  0.17090307  1
  Fe  Fe5  1  0.00488993  0.33691575  0.33738956  1
  Fe  Fe6  1  1.00358962  0.67090107  1.00353884  1
  Fe  Fe7  1  0.17033109  0.83803577  0.17081181  1
  Fe  Fe8  1  1.00377192  0.67117848  0.33789792  1
  Fe  Fe9  1  0.33728992  0.00451548  0.00450273  1
  Fe  Fe10  1  0.50438489  0.17030737  0.17081160  1
  Fe  Fe11  1  0.33700539  0.00479996  0.33757269  1
  Fe  Fe12  1  0.33720132  0.33720456  1.00408814  1
  Fe  Fe13  1  0.50414502  0.50422614  0.17099419  1
  Fe  Fe14  1  0.33691763  0.33700914  0.33808205  1
  Fe  Fe15  1  0.33775109  0.67099078  0.00432550  1
  Fe  Fe16  1  0.50417786  0.83817514  0.17090291  1
  Fe  Fe17  1  0.33783959  0.67090272  0.33748042  1
  Fe  Fe18  1  0.67109166  1.00377859  0.00460172  1
  Fe  Fe19  1  0.83804150  0.17024925  0.17090309  1
  Fe  Fe20  1  0.67118398  1.00368600  0.33720038  1
  Fe  Fe21  1  0.67118207  0.33793870  1.00326288  1
  Fe  Fe22  1  0.83817560  0.50417628  0.17029661  1
  Fe  Fe23  1  0.67090884  0.33775332  0.33817760  1
  Fe  Fe24  1  0.67135981  0.67098643  0.00441867  1
  Ni  Ni25  1  0.83667467  0.83656533  0.17047696  1
  Fe  Fe26  1  0.67109086  0.67126314  0.33711483  1
  Ni  Ni27  1  0.17155599  0.17112756  0.50514214  1
  Fe  Fe28  1  0.00459837  0.00517576  0.67053990  1
  Fe  Fe29  1  0.17066686  0.17169577  0.83747326  1
  Fe  Fe30  1  0.17099226  0.50386367  0.50471007  1
  Fe  Fe31  1  1.00423398  0.33814354  0.67091043  1
  Fe  Fe32  1  0.17034303  0.50450652  0.83709591  1
  Fe  Fe33  1  0.17062736  0.83775750  0.50460732  1
  Ni  Ni34  1  1.00422417  0.67194391  0.67091253  1
  Fe  Fe35  1  0.17002573  0.83651341  0.83728932  1
  Fe  Fe36  1  0.50377903  0.17144911  0.50487823  1
  Fe  Fe37  1  0.33729297  0.00505803  0.67063855  1
  Fe  Fe38  1  0.50501963  0.17204972  0.83702008  1
  Fe  Fe39  1  0.50354449  0.50299031  0.50460644  1
  Ni  Ni40  1  0.33889463  0.33699098  0.67090168  1
  Fe  Fe41  1  0.50478332  0.50359040  0.83710760  1
  Fe  Fe42  1  0.50354372  0.83826175  0.50405529  1
  Fe  Fe43  1  0.33770946  0.66983027  0.67090293  1
  Fe  Fe44  1  0.50474630  0.83705917  0.83775053  1
  Fe  Fe45  1  0.83766825  0.17109270  0.50442385  1
  Fe  Fe46  1  0.67081862  0.00468461  0.67090304  1
  Fe  Fe47  1  0.83702178  0.17174041  0.83738089  1
  Fe  Fe48  1  0.83817430  0.50363081  0.50540399  1
  Ni  Ni49  1  0.66958449  0.33700412  0.67091222  1
  Ni  Ni50  1  0.83692805  0.50487571  0.83732603  1
  Fe  Fe51  1  0.83853994  0.83798834  0.50372916  1
  Fe  Fe52  1  0.67113516  0.66946625  0.67117126  1
  Fe  Fe53  1  0.83793892  0.83674970  0.83798411  1
" 