472,Ni88Fe12_2,-228.918961748255, 159.146960382724,Ni88Fe12,"# generated using pymatgen
 data_Fe47Ni7
_symmetry_space_group_name_H-M   'P 1'
_cell_length_a   7.40334216
_cell_length_b   7.40334216
_cell_length_c   10.46990689
_cell_angle_alpha   90.00000000
_cell_angle_beta   90.00000000
_cell_angle_gamma   90.00000000
_symmetry_Int_Tables_number   1
_chemical_formula_structural   Fe47Ni7
_chemical_formula_sum   'Fe47 Ni7'
_cell_volume   573.85010110
_cell_formula_units_Z   1
loop_
 _symmetry_equiv_pos_site_id
 _symmetry_equiv_pos_as_xyz
  1  'x, y, z'
loop_
 _atom_site_type_symbol
 _atom_site_label
 _atom_site_symmetry_multiplicity
 _atom_site_fract_x
 _atom_site_fract_y
 _atom_site_fract_z
 _atom_site_occupancy
  Fe  Fe0  1  0.00430505  1.00420427  0.00439912  1
  Fe  Fe1  1  0.17068133  0.17135227  0.17115417  1
  Ni  Ni2  1  0.00442473  1.00429660  0.33726508  1
  Fe  Fe3  1  0.00430389  0.33839690  1.00367761  1
  Ni  Ni4  1  0.17062803  0.50442069  0.17119805  1
  Fe  Fe5  1  1.00420739  0.33773363  0.33806835  1
  Fe  Fe6  1  0.00430447  0.67030585  0.00440111  1
  Fe  Fe7  1  0.17068414  0.83735222  0.17187974  1
  Fe  Fe8  1  0.00458733  0.67125419  0.33772907  1
  Fe  Fe9  1  0.33792232  1.00430161  1.00420142  1
  Fe  Fe10  1  0.50367648  0.17169359  0.17087290  1
  Fe  Fe11  1  0.33698026  1.00402203  0.33792118  1
  Fe  Fe12  1  0.33744540  0.33782244  0.00478134  1
  Fe  Fe13  1  0.50354092  0.50430417  0.17097341  1
  Fe  Fe14  1  0.33691627  0.33719520  0.33706188  1
  Fe  Fe15  1  0.33734592  0.67078370  0.00468363  1
  Fe  Fe16  1  0.50377375  0.83690962  0.17077546  1
  Fe  Fe17  1  0.33643962  0.67169239  0.33753963  1
  Fe  Fe18  1  0.67068007  0.00430401  0.00440250  1
  Fe  Fe19  1  0.83854942  0.17112085  0.17125112  1
  Fe  Fe20  1  0.67134242  0.00439955  0.33734221  1
  Fe  Fe21  1  0.67115787  0.33782095  1.00402137  1
  Fe  Fe22  1  0.83810563  0.50430142  0.17087298  1
  Fe  Fe23  1  0.67178235  0.33719279  0.33791921  1
  Fe  Fe24  1  0.67125569  0.67078187  1.00392345  1
  Fe  Fe25  1  0.83845007  0.83748542  0.17115429  1
  Fe  Fe26  1  0.67188151  0.67131280  0.33791827  1
  Fe  Fe27  1  0.16948616  0.17064828  0.50468213  1
  Ni  Ni28  1  1.00419442  0.00509745  0.67145283  1
  Fe  Fe29  1  0.16977404  0.17159731  0.83707083  1
  Fe  Fe30  1  0.17040431  0.50458930  0.50386188  1
  Ni  Ni31  1  1.00416596  0.33684865  0.67074158  1
  Fe  Fe32  1  0.17030832  0.50392003  0.83826856  1
  Ni  Ni33  1  0.17154826  0.83871256  0.50396405  1
  Fe  Fe34  1  1.00401583  0.67058151  0.67077776  1
  Fe  Fe35  1  0.17015281  0.83738816  0.83672421  1
  Fe  Fe36  1  0.50430233  0.17106723  0.50420537  1
  Fe  Fe37  1  0.33625582  0.00464651  0.67078340  1
  Fe  Fe38  1  0.50492842  0.17159809  0.83782918  1
  Fe  Fe39  1  0.50423875  0.50502689  0.50420579  1
  Fe  Fe40  1  0.33653754  0.33681793  0.67106558  1
  Fe  Fe41  1  0.50486827  0.50439984  0.83772835  1
  Fe  Fe42  1  0.50436732  0.83681357  0.50430602  1
  Fe  Fe43  1  0.33609415  0.67144510  0.67068422  1
  Fe  Fe44  1  0.50502592  0.83690931  0.83782590  1
  Fe  Fe45  1  0.83911819  0.17052276  0.50448794  1
  Fe  Fe46  1  0.67187123  0.00502495  0.67116270  1
  Fe  Fe47  1  0.83820538  0.17144096  0.83716763  1
  Ni  Ni48  1  0.83749961  0.50357647  0.50370350  1
  Fe  Fe49  1  0.67273634  0.33757985  0.67096760  1
  Ni  Ni50  1  0.83764883  0.50383896  0.83845845  1
  Fe  Fe51  1  0.83868621  0.83773366  0.50410936  1
  Fe  Fe52  1  0.67279835  0.67030091  0.67106633  1
  Fe  Fe53  1  0.83772877  0.83744657  0.83764421  1
" 