6257,Ni88Cr12_16,-204.222548941872, 177.297836730538,Ni88Cr12,"# generated using pymatgen
 data_Cr47Ni7
_symmetry_space_group_name_H-M   'P 1'
_cell_length_a   7.59179685
_cell_length_b   7.59179685
_cell_length_c   10.73642206
_cell_angle_alpha   90.00000000
_cell_angle_beta   90.00000000
_cell_angle_gamma   90.00000000
_symmetry_Int_Tables_number   1
_chemical_formula_structural   Cr47Ni7
_chemical_formula_sum   'Cr47 Ni7'
_cell_volume   618.79775841
_cell_formula_units_Z   1
loop_
 _symmetry_equiv_pos_site_id
 _symmetry_equiv_pos_as_xyz
  1  'x, y, z'
loop_
 _atom_site_type_symbol
 _atom_site_label
 _atom_site_symmetry_multiplicity
 _atom_site_fract_x
 _atom_site_fract_y
 _atom_site_fract_z
 _atom_site_occupancy
  Cr  Cr0  1  -0.00666242  -0.00688247  0.99100377  1
  Cr  Cr1  1  0.15811690  0.15844632  0.15660074  1
  Cr  Cr2  1  -0.00786934  0.98983780  0.32567404  1
  Ni  Ni3  1  -0.00810622  0.32489369  -0.00812311  1
  Cr  Cr4  1  0.15759019  0.49231892  0.15825235  1
  Cr  Cr5  1  -0.00786933  0.32673142  0.32418050  1
  Cr  Cr6  1  -0.00722001  0.65721157  -0.00805949  1
  Cr  Cr7  1  0.15975390  0.82458627  0.15825123  1
  Ni  Ni8  1  0.99132464  0.65858841  0.32526238  1
  Ni  Ni9  1  0.32503926  0.99016800  -0.00802269  1
  Cr  Cr10  1  0.49136014  0.15735930  0.15840752  1
  Cr  Cr11  1  0.32560397  -0.00694986  0.32527077  1
  Cr  Cr12  1  0.32383550  0.32501334  -0.00770805  1
  Cr  Cr13  1  0.49135169  0.49287547  0.15769194  1
  Cr  Cr14  1  0.32615891  0.32407702  0.32659008  1
  Ni  Ni15  1  0.32507932  0.66029814  0.99161300  1
  Cr  Cr16  1  0.49027276  0.82511709  0.15626569  1
  Cr  Cr17  1  0.32349980  0.65822473  0.32456139  1
  Cr  Cr18  1  0.65716984  0.99156097  0.99156069  1
  Cr  Cr19  1  0.82587723  0.15953087  0.15735724  1
  Cr  Cr20  1  0.65761788  -0.00750346  0.32620796  1
  Cr  Cr21  1  0.65974760  0.32556540  -0.00788230  1
  Cr  Cr22  1  0.82640877  0.49122958  0.15900508  1
  Cr  Cr23  1  0.65706257  0.32462982  0.32565268  1
  Cr  Cr24  1  0.65717503  0.65822553  0.99155980  1
  Cr  Cr25  1  0.82532256  0.82459097  0.16043134  1
  Cr  Cr26  1  0.66027408  0.65822465  0.32456009  1
  Cr  Cr27  1  0.16025948  0.15921424  0.49254279  1
  Cr  Cr28  1  0.99177274  0.99123012  0.65867368  1
  Cr  Cr29  1  0.15821993  0.15920836  0.82621112  1
  Cr  Cr30  1  0.15924347  0.49249426  0.49253787  1
  Cr  Cr31  1  -0.00666254  0.32516236  0.65960959  1
  Cr  Cr32  1  0.15985223  0.49156590  0.82456468  1
  Cr  Cr33  1  0.15817348  0.82364465  0.49144714  1
  Cr  Cr34  1  -0.00721521  0.65895843  0.65795891  1
  Cr  Cr35  1  0.16094267  0.82457934  0.82564481  1
  Ni  Ni36  1  0.49107666  0.15929581  0.49249069  1
  Cr  Cr37  1  0.32542385  -0.00713018  0.65741070  1
  Cr  Cr38  1  0.49093344  0.15811900  0.82473858  1
  Cr  Cr39  1  0.49027679  0.49040349  0.49362781  1
  Ni  Ni40  1  0.32619691  0.32605382  0.65726589  1
  Cr  Cr41  1  0.48984403  0.49319965  0.82403136  1
  Cr  Cr42  1  0.49135559  0.82574716  0.49253853  1
  Ni  Ni43  1  0.32520704  0.65652925  0.65867085  1
  Cr  Cr44  1  0.48984543  0.82403379  0.82653937  1
  Cr  Cr45  1  0.82372701  0.15813017  0.49178618  1
  Cr  Cr46  1  0.65815560  -0.00768376  0.65758449  1
  Cr  Cr47  1  0.82619981  0.15921014  0.82621051  1
  Cr  Cr48  1  0.82583175  0.49248860  0.49035994  1
  Cr  Cr49  1  0.65603911  0.32463001  0.65758380  1
  Cr  Cr50  1  0.82565474  0.49047048  0.82598833  1
  Cr  Cr51  1  0.82582336  0.82473323  0.49069389  1
  Cr  Cr52  1  0.65767857  0.65840361  0.65923091  1
  Cr  Cr53  1  0.82456191  0.82567163  0.82422595  1
" 