6392,Ni88Fe7Cr4_14,-239.143909929084, 185.046970897027,Ni88Fe7Cr4,"# generated using pymatgen
 data_Cr3Fe4Ni47
_symmetry_space_group_name_H-M   'P 1'
_cell_length_a   7.44785433
_cell_length_b   7.44785433
_cell_length_c   10.53285660
_cell_angle_alpha   90.00000000
_cell_angle_beta   90.00000000
_cell_angle_gamma   90.00000000
_symmetry_Int_Tables_number   1
_chemical_formula_structural   Cr3Fe4Ni47
_chemical_formula_sum   'Cr3 Fe4 Ni47'
_cell_volume   584.26318117
_cell_formula_units_Z   1
loop_
 _symmetry_equiv_pos_site_id
 _symmetry_equiv_pos_as_xyz
  1  'x, y, z'
loop_
 _atom_site_type_symbol
 _atom_site_label
 _atom_site_symmetry_multiplicity
 _atom_site_fract_x
 _atom_site_fract_y
 _atom_site_fract_z
 _atom_site_occupancy
  Ni  Ni0  1  0.00273438  0.00241894  0.99995153  1
  Ni  Ni1  1  0.16813562  0.16813318  0.16841280  1
  Ni  Ni2  1  0.00259993  0.00219421  0.33598500  1
  Ni  Ni3  1  0.00158120  0.33453391  1.00110567  1
  Ni  Ni4  1  0.16720803  0.49938188  0.16881571  1
  Ni  Ni5  1  0.00141902  0.33478650  0.33481518  1
  Ni  Ni6  1  1.00039009  0.66696602  1.00030419  1
  Ni  Ni7  1  0.16866631  0.83639569  0.16881496  1
  Ni  Ni8  1  0.00222524  0.66700659  0.33524050  1
  Ni  Ni9  1  0.33436154  0.00312282  0.00148770  1
  Fe  Fe10  1  0.50058087  0.16834036  0.16806689  1
  Ni  Ni11  1  0.33450115  1.00117067  0.33418951  1
  Ni  Ni12  1  0.33434283  0.33269609  1.00120694  1
  Ni  Ni13  1  0.50228889  0.50019627  0.16917948  1
  Ni  Ni14  1  0.33448298  0.33466808  0.33447454  1
  Cr  Cr15  1  0.33438771  0.66802623  1.00066686  1
  Ni  Ni16  1  0.50086403  0.83565683  0.16917857  1
  Ni  Ni17  1  0.33466737  0.66803302  0.33528967  1
  Ni  Ni18  1  0.66676544  0.00190072  0.99975902  1
  Fe  Fe19  1  0.83527737  0.16927492  0.16808144  1
  Ni  Ni20  1  0.66682175  0.00186592  0.33615462  1
  Ni  Ni21  1  0.66795964  0.33502978  1.00090506  1
  Ni  Ni22  1  0.83435171  0.49948406  0.16806846  1
  Ni  Ni23  1  0.66798240  0.33505401  0.33502701  1
  Ni  Ni24  1  0.66854563  0.66702149  1.00044088  1
  Cr  Cr25  1  0.83452206  0.83422721  0.16802851  1
  Ni  Ni26  1  0.66694873  0.66703002  0.33545635  1
  Fe  Fe27  1  0.16834748  0.16816372  0.50129871  1
  Ni  Ni28  1  0.00165164  1.00104274  0.66794025  1
  Ni  Ni29  1  0.16816272  0.16809904  0.83416548  1
  Ni  Ni30  1  0.16797383  0.50141056  0.50084096  1
  Ni  Ni31  1  0.00148154  0.33488648  0.66794895  1
  Ni  Ni32  1  0.16693841  0.49968365  0.83415515  1
  Ni  Ni33  1  0.16777554  0.83437958  0.50058237  1
  Ni  Ni34  1  0.00235917  0.66794313  0.66828714  1
  Ni  Ni35  1  0.16675404  0.83607306  0.83440942  1
  Ni  Ni36  1  0.50186264  0.16811000  0.50084228  1
  Ni  Ni37  1  0.33464561  0.00198932  0.66821968  1
  Ni  Ni38  1  0.50112694  0.16810515  0.83531073  1
  Ni  Ni39  1  0.49995125  0.49925000  0.50007593  1
  Ni  Ni40  1  0.33465293  0.33377656  0.66822538  1
  Ni  Ni41  1  0.50122255  0.49853708  0.83455252  1
  Ni  Ni42  1  0.50014660  0.83651152  0.49981723  1
  Fe  Fe43  1  0.33308579  0.66809789  0.66750755  1
  Ni  Ni44  1  0.50140559  0.83721715  0.83480933  1
  Ni  Ni45  1  0.83383196  0.16791688  0.50090185  1
  Ni  Ni46  1  0.66753938  0.00275118  0.66802321  1
  Ni  Ni47  1  0.83454123  0.16791461  0.83500543  1
  Ni  Ni48  1  0.83585528  0.49973806  0.49983951  1
  Ni  Ni49  1  0.66770179  0.33316964  0.66802431  1
  Ni  Ni50  1  0.83559926  0.49997714  0.83596045  1
  Ni  Ni51  1  0.83585222  0.83624498  0.50024140  1
  Cr  Cr52  1  0.66890082  0.66795786  0.66793115  1
  Ni  Ni53  1  0.83560145  0.83601717  0.83555615  1
" 