1475,Ni88Fe7Cr4_12,-239.026669205532, 183.899845445011,Ni88Fe7Cr4,"# generated using pymatgen
 data_Cr3Fe4Ni47
_symmetry_space_group_name_H-M   'P 1'
_cell_length_a   7.44808646
_cell_length_b   7.44808646
_cell_length_c   10.53318488
_cell_angle_alpha   90.00000000
_cell_angle_beta   90.00000000
_cell_angle_gamma   90.00000000
_symmetry_Int_Tables_number   1
_chemical_formula_structural   Cr3Fe4Ni47
_chemical_formula_sum   'Cr3 Fe4 Ni47'
_cell_volume   584.31781246
_cell_formula_units_Z   1
loop_
 _symmetry_equiv_pos_site_id
 _symmetry_equiv_pos_as_xyz
  1  'x, y, z'
loop_
 _atom_site_type_symbol
 _atom_site_label
 _atom_site_symmetry_multiplicity
 _atom_site_fract_x
 _atom_site_fract_y
 _atom_site_fract_z
 _atom_site_occupancy
  Ni  Ni0  1  1.00094729  0.00250311  0.00141958  1
  Ni  Ni1  1  0.16830622  0.16806058  0.16755298  1
  Fe  Fe2  1  0.00181942  0.00284509  0.33352565  1
  Ni  Ni3  1  0.00196273  0.33239206  0.00182579  1
  Ni  Ni4  1  0.16921007  0.49989093  0.16911960  1
  Ni  Ni5  1  1.00087258  0.33575420  0.33476917  1
  Cr  Cr6  1  0.00310535  0.66871568  0.00226469  1
  Ni  Ni7  1  0.16914738  0.83595012  0.16963964  1
  Ni  Ni8  1  0.00218193  0.66623920  0.33380893  1
  Ni  Ni9  1  0.33511714  1.00089505  1.00095373  1
  Ni  Ni10  1  0.50035140  0.16797407  0.16849280  1
  Ni  Ni11  1  0.33594721  1.00111421  0.33505871  1
  Ni  Ni12  1  0.33479145  0.33465103  1.00108611  1
  Ni  Ni13  1  0.50105497  0.50157658  0.16799709  1
  Ni  Ni14  1  0.33463817  0.33425349  0.33472286  1
  Ni  Ni15  1  0.33569897  0.66826578  0.00147023  1
  Ni  Ni16  1  0.50109796  0.83427300  0.16812887  1
  Ni  Ni17  1  0.33415245  0.66844488  0.33439574  1
  Ni  Ni18  1  0.66774656  0.00168939  1.00108001  1
  Ni  Ni19  1  0.83520765  0.16804723  0.16829245  1
  Ni  Ni20  1  0.66619431  0.00258579  0.33381115  1
  Ni  Ni21  1  0.66705721  0.33287389  0.00259050  1
  Ni  Ni22  1  0.83355046  0.50067992  0.16942388  1
  Ni  Ni23  1  0.66834547  0.33380079  0.33491712  1
  Ni  Ni24  1  0.66556694  0.66927631  0.00186842  1
  Ni  Ni25  1  0.83361434  0.83520799  0.16868073  1
  Ni  Ni26  1  0.66753788  0.66746852  0.33398175  1
  Ni  Ni27  1  0.16823088  0.16800283  0.50154612  1
  Ni  Ni28  1  0.00157731  0.00180577  0.66866926  1
  Ni  Ni29  1  0.16806112  0.16778690  0.83470403  1
  Fe  Fe30  1  0.16851451  0.50016050  0.50119169  1
  Ni  Ni31  1  0.00159710  0.33424890  0.66721500  1
  Ni  Ni32  1  0.17067639  0.49991331  0.83322837  1
  Fe  Fe33  1  0.16981268  0.83513514  0.50152563  1
  Ni  Ni34  1  0.00391985  0.66778570  0.66781207  1
  Ni  Ni35  1  0.16893035  0.83608419  0.83302055  1
  Ni  Ni36  1  0.49994612  0.16797709  0.50123420  1
  Ni  Ni37  1  0.33546723  1.00090904  0.66783401  1
  Ni  Ni38  1  0.50040182  0.16807048  0.83406874  1
  Ni  Ni39  1  0.50133491  0.50166452  0.50118134  1
  Ni  Ni40  1  0.33514706  0.33474777  0.66796454  1
  Ni  Ni41  1  0.49914227  0.50135667  0.83464769  1
  Ni  Ni42  1  0.49970696  0.83417485  0.50126382  1
  Ni  Ni43  1  0.33360578  0.66813675  0.66794781  1
  Ni  Ni44  1  0.50088589  0.83437878  0.83436651  1
  Ni  Ni45  1  0.83574283  0.16958789  0.50148325  1
  Ni  Ni46  1  0.66686799  0.00331414  0.66888982  1
  Ni  Ni47  1  0.83534531  0.16615960  0.83403688  1
  Ni  Ni48  1  0.83453130  0.50029525  0.50109802  1
  Ni  Ni49  1  0.66713577  0.33223749  0.66640698  1
  Cr  Cr50  1  0.83326142  0.50006740  0.83366646  1
  Cr  Cr51  1  0.83412987  0.83442397  0.50138960  1
  Fe  Fe52  1  0.66564347  0.66784425  0.66782080  1
  Ni  Ni53  1  0.83389619  0.83703784  0.83364458  1
" 