821,Ni88Cr12_5,-204.253703615965, 176.521024485534,Ni88Cr12,"# generated using pymatgen
 data_Cr47Ni7
_symmetry_space_group_name_H-M   'P 1'
_cell_length_a   7.58844880
_cell_length_b   7.58844880
_cell_length_c   10.73168722
_cell_angle_alpha   90.00000000
_cell_angle_beta   90.00000000
_cell_angle_gamma   90.00000000
_symmetry_Int_Tables_number   1
_chemical_formula_structural   Cr47Ni7
_chemical_formula_sum   'Cr47 Ni7'
_cell_volume   617.97943534
_cell_formula_units_Z   1
loop_
 _symmetry_equiv_pos_site_id
 _symmetry_equiv_pos_as_xyz
  1  'x, y, z'
loop_
 _atom_site_type_symbol
 _atom_site_label
 _atom_site_symmetry_multiplicity
 _atom_site_fract_x
 _atom_site_fract_y
 _atom_site_fract_z
 _atom_site_occupancy
  Cr  Cr0  1  -0.00705703  0.99139400  -0.00734297  1
  Cr  Cr1  1  0.15776665  0.15879814  0.15854888  1
  Cr  Cr2  1  -0.00773100  0.99160868  0.32332793  1
  Cr  Cr3  1  0.98998758  0.32653202  -0.00703594  1
  Cr  Cr4  1  0.15871649  0.49198583  0.15888305  1
  Cr  Cr5  1  0.98904402  0.32750550  0.32568235  1
  Cr  Cr6  1  0.99072883  0.65846570  -0.00496178  1
  Ni  Ni7  1  0.15809666  0.82517750  0.15854244  1
  Cr  Cr8  1  0.99039053  0.65735675  0.32380352  1
  Cr  Cr9  1  0.32500317  0.99175800  -0.00694408  1
  Cr  Cr10  1  0.49494889  0.15991944  0.16009433  1
  Cr  Cr11  1  0.32649618  -0.00730967  0.32481165  1
  Cr  Cr12  1  0.32658460  0.32420327  0.99146603  1
  Cr  Cr13  1  0.49420602  0.48984538  0.15784631  1
  Cr  Cr14  1  0.32752368  0.32394887  0.32730002  1
  Cr  Cr15  1  0.32529590  0.66002395  -0.00617141  1
  Cr  Cr16  1  0.49301160  0.82573485  0.16002936  1
  Cr  Cr17  1  0.32489162  0.65952309  0.32320383  1
  Cr  Cr18  1  0.65806507  -0.00733245  0.99103428  1
  Cr  Cr19  1  0.82292266  0.16008420  0.15899841  1
  Ni  Ni20  1  0.65765879  -0.00435655  0.32690613  1
  Ni  Ni21  1  0.66029813  0.32651508  -0.00619476  1
  Ni  Ni22  1  0.82233184  0.48954356  0.15928051  1
  Ni  Ni23  1  0.66004494  0.32436931  0.32622013  1
  Cr  Cr24  1  0.66026663  0.65696630  0.99187726  1
  Cr  Cr25  1  0.82423045  0.82679582  0.15989013  1
  Cr  Cr26  1  0.66071257  0.65633894  0.32566273  1
  Cr  Cr27  1  0.15871783  0.15895295  0.49244284  1
  Cr  Cr28  1  0.99151014  -0.00697548  0.65982144  1
  Cr  Cr29  1  0.15728524  0.15977976  0.82502364  1
  Cr  Cr30  1  0.15795690  0.49230104  0.49310598  1
  Cr  Cr31  1  0.98975142  0.32596273  0.65728656  1
  Cr  Cr32  1  0.15943392  0.49191257  0.82393468  1
  Cr  Cr33  1  0.15828118  0.82475358  0.49182916  1
  Cr  Cr34  1  0.98921344  0.65701370  0.65688871  1
  Cr  Cr35  1  0.15813371  0.82431794  0.82481270  1
  Ni  Ni36  1  0.49562567  0.15923618  0.48919737  1
  Cr  Cr37  1  0.32725586  -0.00611795  0.65800331  1
  Cr  Cr38  1  0.49370504  0.16026757  0.82686545  1
  Cr  Cr39  1  0.49259699  0.49080222  0.49093159  1
  Cr  Cr40  1  0.32722425  0.32340874  0.65741748  1
  Cr  Cr41  1  0.49208530  0.49149930  0.82764955  1
  Cr  Cr42  1  0.49342362  0.82655819  0.49086144  1
  Cr  Cr43  1  0.32704323  0.65872333  0.65879228  1
  Cr  Cr44  1  0.49266227  0.82406377  0.82503141  1
  Cr  Cr45  1  0.82380551  0.15828382  0.48987334  1
  Cr  Cr46  1  0.65728783  -0.00667468  0.65803508  1
  Cr  Cr47  1  0.82480691  0.15912742  0.82758354  1
  Ni  Ni48  1  0.82286817  0.48994635  0.49016226  1
  Cr  Cr49  1  0.65873304  0.32537447  0.65722802  1
  Cr  Cr50  1  0.82470841  0.49086887  0.82635888  1
  Cr  Cr51  1  0.82461413  0.82603682  0.49190255  1
  Cr  Cr52  1  0.65968724  0.65708538  0.65826828  1
  Cr  Cr53  1  0.82519706  0.82614567  0.82398388  1
" 