5374,Ni88Fe7Cr3_7,-238.906198148004, 182.287125408713,Ni88Fe7Cr3,"# generated using pymatgen
 data_CrFeNi16
_symmetry_space_group_name_H-M   'P 1'
_cell_length_a   7.45183718
_cell_length_b   7.45183718
_cell_length_c   10.53848920
_cell_angle_alpha   90.00000000
_cell_angle_beta   90.00000000
_cell_angle_gamma   90.00000000
_symmetry_Int_Tables_number   1
_chemical_formula_structural   CrFeNi16
_chemical_formula_sum   'Cr3 Fe3 Ni48'
_cell_volume   585.20101200
_cell_formula_units_Z   3
loop_
 _symmetry_equiv_pos_site_id
 _symmetry_equiv_pos_as_xyz
  1  'x, y, z'
loop_
 _atom_site_type_symbol
 _atom_site_label
 _atom_site_symmetry_multiplicity
 _atom_site_fract_x
 _atom_site_fract_y
 _atom_site_fract_z
 _atom_site_occupancy
  Ni  Ni0  1  0.00104743  0.00129374  0.00149218  1
  Ni  Ni1  1  0.16683895  0.16816878  0.16771684  1
  Ni  Ni2  1  1.00093512  0.00140612  0.33399114  1
  Ni  Ni3  1  0.00104774  0.33405165  0.00145611  1
  Ni  Ni4  1  0.16483597  0.49914612  0.16744627  1
  Ni  Ni5  1  1.00093566  0.33393949  0.33402699  1
  Ni  Ni6  1  0.99942109  0.66771614  1.00080811  1
  Ni  Ni7  1  0.16600393  0.83574700  0.16744630  1
  Ni  Ni8  1  0.99939174  0.66771608  0.33459748  1
  Ni  Ni9  1  0.33319615  0.00149241  1.00015973  1
  Cr  Cr10  1  0.50033618  0.16696385  0.16791786  1
  Ni  Ni11  1  0.33319560  0.00152140  0.33524623  1
  Ni  Ni12  1  0.33312201  0.33377941  1.00008863  1
  Fe  Fe13  1  0.50296379  0.50101201  0.16768634  1
  Ni  Ni14  1  0.33312104  0.33375004  0.33531774  1
  Cr  Cr15  1  0.33462760  0.66787248  0.00133029  1
  Ni  Ni16  1  0.50304096  0.83516138  0.16744626  1
  Cr  Cr17  1  0.33462724  0.66787285  0.33404274  1
  Ni  Ni18  1  0.66881876  0.99986548  1.00002920  1
  Ni  Ni19  1  0.83576960  0.16816848  0.16720457  1
  Ni  Ni20  1  0.66893085  0.99997697  0.33545393  1
  Ni  Ni21  1  0.66889268  0.33540665  0.99995834  1
  Ni  Ni22  1  0.83518415  0.50173342  0.16771677  1
  Ni  Ni23  1  0.66900498  0.33529493  0.33552501  1
  Ni  Ni24  1  0.66909043  0.66778990  0.00151647  1
  Ni  Ni25  1  0.83401767  0.83316007  0.16771673  1
  Ni  Ni26  1  0.66912010  0.66779027  0.33388950  1
  Ni  Ni27  1  0.16852424  0.16792716  0.50018271  1
  Ni  Ni28  1  0.00125056  0.00149098  0.66757760  1
  Ni  Ni29  1  0.16919284  0.16792718  0.83516237  1
  Ni  Ni30  1  0.16669650  0.49972304  0.50201027  1
  Ni  Ni31  1  0.00125037  0.33388347  0.66757779  1
  Ni  Ni32  1  0.16645631  0.49948264  0.83360527  1
  Ni  Ni33  1  0.16696808  0.83541156  0.50174040  1
  Fe  Fe34  1  0.00109964  0.66768721  0.66774012  1
  Ni  Ni35  1  0.16672790  0.83565200  0.83387518  1
  Ni  Ni36  1  0.50071979  0.16765519  0.50089928  1
  Ni  Ni37  1  0.33387468  0.99997780  0.66765620  1
  Ni  Ni38  1  0.50005305  0.16765516  0.83444562  1
  Ni  Ni39  1  0.50214853  0.49959590  0.50136706  1
  Ni  Ni40  1  0.33387706  0.33539915  0.66765620  1
  Ni  Ni41  1  0.50238874  0.49935574  0.83424827  1
  Ni  Ni42  1  0.50214857  0.83581050  0.50187997  1
  Ni  Ni43  1  0.33505592  0.66768478  0.66769214  1
  Ni  Ni44  1  0.50238880  0.83605072  0.83373539  1
  Ni  Ni45  1  0.83381768  0.16792718  0.50096141  1
  Ni  Ni46  1  0.66793703  1.00031170  0.66757799  1
  Fe  Fe47  1  0.83434165  0.16768725  0.83436768  1
  Ni  Ni48  1  0.83421645  0.50115147  0.50058338  1
  Ni  Ni49  1  0.66793485  0.33506512  0.66757818  1
  Ni  Ni50  1  0.83421635  0.50181860  0.83476178  1
  Ni  Ni51  1  0.83394426  0.83398305  0.50031294  1
  Ni  Ni52  1  0.66642003  0.66768479  0.66765620  1
  Ni  Ni53  1  0.83394413  0.83331504  0.83503232  1
" 