1484,Ni88Cr12_7,-204.400393630088, 182.030874634452,Ni88Cr12,"# generated using pymatgen
 data_Cr47Ni7
_symmetry_space_group_name_H-M   'P 1'
_cell_length_a   7.58604661
_cell_length_b   7.58604661
_cell_length_c   10.72829000
_cell_angle_alpha   90.00000000
_cell_angle_beta   90.00000000
_cell_angle_gamma   90.00000000
_symmetry_Int_Tables_number   1
_chemical_formula_structural   Cr47Ni7
_chemical_formula_sum   'Cr47 Ni7'
_cell_volume   617.39274006
_cell_formula_units_Z   1
loop_
 _symmetry_equiv_pos_site_id
 _symmetry_equiv_pos_as_xyz
  1  'x, y, z'
loop_
 _atom_site_type_symbol
 _atom_site_label
 _atom_site_symmetry_multiplicity
 _atom_site_fract_x
 _atom_site_fract_y
 _atom_site_fract_z
 _atom_site_occupancy
  Cr  Cr0  1  0.99135532  0.99129584  0.99179738  1
  Cr  Cr1  1  0.15739485  0.15706424  0.16048859  1
  Ni  Ni2  1  0.99206200  0.99205759  0.32537597  1
  Cr  Cr3  1  -0.00764592  0.32568016  -0.00711837  1
  Cr  Cr4  1  0.15956305  0.49320479  0.15801301  1
  Cr  Cr5  1  0.99145109  0.32579640  0.32584278  1
  Cr  Cr6  1  0.99100879  0.65945942  0.99134711  1
  Cr  Cr7  1  0.15746178  0.82620292  0.16052832  1
  Cr  Cr8  1  0.99106670  0.65823119  0.32545907  1
  Cr  Cr9  1  0.32475538  -0.00765417  0.99160290  1
  Cr  Cr10  1  0.49321181  0.15922569  0.15802892  1
  Cr  Cr11  1  0.32501524  0.99139532  0.32715817  1
  Cr  Cr12  1  0.32378396  0.32461606  0.99207006  1
  Cr  Cr13  1  0.49242196  0.49248105  0.15749488  1
  Cr  Cr14  1  0.32432745  0.32522168  0.32523525  1
  Cr  Cr15  1  0.32405573  0.65951128  -0.00752863  1
  Cr  Cr16  1  0.49242493  0.82477900  0.15939501  1
  Cr  Cr17  1  0.32576039  0.65987713  0.32675121  1
  Cr  Cr18  1  0.66034134  0.99095452  0.98998890  1
  Cr  Cr19  1  0.82587267  0.15712153  0.16049304  1
  Cr  Cr20  1  0.65902002  0.99100680  0.32667470  1
  Cr  Cr21  1  0.66032173  0.32496621  -0.00749234  1
  Cr  Cr22  1  0.82445357  0.49244737  0.15940311  1
  Cr  Cr23  1  0.66074050  0.32664564  0.32683997  1
  Cr  Cr24  1  0.66137274  0.66048613  0.99092043  1
  Cr  Cr25  1  0.82651925  0.82688523  0.15909279  1
  Cr  Cr26  1  0.65977154  0.65891385  0.32822338  1
  Cr  Cr27  1  0.15550843  0.15734857  0.49335969  1
  Ni  Ni28  1  0.99070722  0.99079114  0.65993544  1
  Cr  Cr29  1  0.15667277  0.15865863  0.82272340  1
  Cr  Cr30  1  0.15592456  0.49272761  0.49474415  1
  Ni  Ni31  1  0.99062672  0.32675397  0.65750860  1
  Cr  Cr32  1  0.15762594  0.49282136  0.82347060  1
  Cr  Cr33  1  0.15699083  0.82634134  0.49245503  1
  Ni  Ni34  1  0.98945312  0.65895621  0.65900817  1
  Cr  Cr35  1  0.15524913  0.82500656  0.82358901  1
  Cr  Cr36  1  0.49284353  0.15783277  0.49224194  1
  Cr  Cr37  1  0.32564849  0.99131358  0.65782846  1
  Cr  Cr38  1  0.49283793  0.15981024  0.82621547  1
  Cr  Cr39  1  0.49377806  0.49342879  0.49188154  1
  Cr  Cr40  1  0.32367092  0.32481872  0.65913780  1
  Cr  Cr41  1  0.49213618  0.49201670  0.82712407  1
  Ni  Ni42  1  0.49259114  0.82520161  0.49189579  1
  Cr  Cr43  1  0.32494546  0.66031931  0.65734809  1
  Cr  Cr44  1  0.49371294  0.82464108  0.82566107  1
  Cr  Cr45  1  0.82813974  0.15887872  0.49251170  1
  Cr  Cr46  1  0.65925437  0.99015639  0.65962459  1
  Cr  Cr47  1  0.82704478  0.15715689  0.82358595  1
  Ni  Ni48  1  0.82822083  0.49263299  0.49474384  1
  Cr  Cr49  1  0.66121657  0.32614144  0.65733766  1
  Cr  Cr50  1  0.82671482  0.49356206  0.82317682  1
  Cr  Cr51  1  0.82751764  0.82568263  0.49288145  1
  Cr  Cr52  1  0.66112747  0.66017330  0.65733648  1
  Ni  Ni53  1  0.82841533  0.82541729  0.82305039  1
" 