2765,Ni88Fe5Cr5_19,-237.037368605058, 174.97911683845,Ni88Fe5Cr5,"# generated using pymatgen
 data_Cr5Fe2Ni47
_symmetry_space_group_name_H-M   'P 1'
_cell_length_a   7.45861027
_cell_length_b   7.45861027
_cell_length_c   10.54806781
_cell_angle_alpha   90.00000000
_cell_angle_beta   90.00000000
_cell_angle_gamma   90.00000000
_symmetry_Int_Tables_number   1
_chemical_formula_structural   Cr5Fe2Ni47
_chemical_formula_sum   'Cr5 Fe2 Ni47'
_cell_volume   586.79815962
_cell_formula_units_Z   1
loop_
 _symmetry_equiv_pos_site_id
 _symmetry_equiv_pos_as_xyz
  1  'x, y, z'
loop_
 _atom_site_type_symbol
 _atom_site_label
 _atom_site_symmetry_multiplicity
 _atom_site_fract_x
 _atom_site_fract_y
 _atom_site_fract_z
 _atom_site_occupancy
  Cr  Cr0  1  0.99988672  0.99979911  0.00086904  1
  Ni  Ni1  1  0.16789604  0.16817356  0.16802896  1
  Fe  Fe2  1  1.00043713  1.00030412  0.33415557  1
  Ni  Ni3  1  1.00035085  0.33594767  1.00027277  1
  Ni  Ni4  1  0.16545898  0.50033829  0.16719809  1
  Ni  Ni5  1  1.00032950  0.33513414  0.33420480  1
  Ni  Ni6  1  1.00050866  0.66558016  0.00062985  1
  Ni  Ni7  1  0.16821581  0.83320334  0.16783373  1
  Ni  Ni8  1  1.00049576  0.66661803  0.33362181  1
  Ni  Ni9  1  0.33493748  0.00140188  0.00111813  1
  Ni  Ni10  1  0.50047313  0.16554598  0.16695858  1
  Ni  Ni11  1  0.33511731  1.00034070  0.33419975  1
  Ni  Ni12  1  0.33315642  0.33305685  0.99972608  1
  Cr  Cr13  1  0.50068665  0.50067738  0.16731335  1
  Ni  Ni14  1  0.33181954  0.33167374  0.33397911  1
  Ni  Ni15  1  0.33177547  0.66726777  0.00069516  1
  Ni  Ni16  1  0.50055248  0.83537845  0.16740336  1
  Ni  Ni17  1  0.33140739  0.66964483  0.33410225  1
  Ni  Ni18  1  0.66647427  0.00150943  0.00164849  1
  Ni  Ni19  1  0.83333826  0.16832336  0.16806464  1
  Ni  Ni20  1  0.66649074  1.00048860  0.33363441  1
  Ni  Ni21  1  0.66819057  0.33273203  0.99965009  1
  Ni  Ni22  1  0.83553284  0.50041897  0.16720111  1
  Ni  Ni23  1  0.66952688  0.33139671  0.33409016  1
  Ni  Ni24  1  0.66947055  0.66744415  1.00026345  1
  Ni  Ni25  1  0.83294448  0.83297096  0.16787569  1
  Ni  Ni26  1  0.66980405  0.66977019  0.33456496  1
  Ni  Ni27  1  0.16582978  0.16610606  0.49991494  1
  Ni  Ni28  1  0.99988705  0.99981709  0.66661963  1
  Ni  Ni29  1  0.16665491  0.16701021  0.83366463  1
  Ni  Ni30  1  0.16453012  0.50143926  0.49945805  1
  Ni  Ni31  1  0.99845105  0.33466924  0.66724537  1
  Ni  Ni32  1  0.16622422  0.50140923  0.83503343  1
  Ni  Ni33  1  0.16718136  0.83414154  0.50091730  1
  Ni  Ni34  1  0.00113026  0.66721905  0.66749535  1
  Ni  Ni35  1  0.16640248  0.83331750  0.83293530  1
  Ni  Ni36  1  0.50156693  0.16457382  0.49968888  1
  Ni  Ni37  1  0.33372625  0.99942675  0.66642512  1
  Ni  Ni38  1  0.50159071  0.16791479  0.83502377  1
  Cr  Cr39  1  0.50155107  0.50156976  0.49935092  1
  Cr  Cr40  1  0.33347162  0.33340587  0.66779947  1
  Ni  Ni41  1  0.50143325  0.49986144  0.83483895  1
  Ni  Ni42  1  0.50041240  0.83567686  0.50037481  1
  Ni  Ni43  1  0.33083890  0.66893772  0.66687989  1
  Cr  Cr44  1  0.50029344  0.83407593  0.83404972  1
  Ni  Ni45  1  0.83428677  0.16723473  0.50068026  1
  Ni  Ni46  1  0.66811504  0.00217282  0.66644619  1
  Ni  Ni47  1  0.83350854  0.16805650  0.83293829  1
  Ni  Ni48  1  0.83580298  0.50028882  0.50060146  1
  Ni  Ni49  1  0.66984107  0.33190603  0.66794814  1
  Ni  Ni50  1  0.83410667  0.50021745  0.83395764  1
  Ni  Ni51  1  0.83415529  0.83417856  0.50073784  1
  Fe  Fe52  1  0.66932448  0.66741499  0.66712226  1
  Ni  Ni53  1  0.83494835  0.83336054  0.83309197  1
" 