477,Ni88Fe7Cr3_2,-238.960914870556, 181.102847482506,Ni88Fe7Cr3,"# generated using pymatgen
 data_CrFeNi16
_symmetry_space_group_name_H-M   'P 1'
_cell_length_a   7.45288252
_cell_length_b   7.45288252
_cell_length_c   10.53996753
_cell_angle_alpha   90.00000000
_cell_angle_beta   90.00000000
_cell_angle_gamma   90.00000000
_symmetry_Int_Tables_number   1
_chemical_formula_structural   CrFeNi16
_chemical_formula_sum   'Cr3 Fe3 Ni48'
_cell_volume   585.44732198
_cell_formula_units_Z   3
loop_
 _symmetry_equiv_pos_site_id
 _symmetry_equiv_pos_as_xyz
  1  'x, y, z'
loop_
 _atom_site_type_symbol
 _atom_site_label
 _atom_site_symmetry_multiplicity
 _atom_site_fract_x
 _atom_site_fract_y
 _atom_site_fract_z
 _atom_site_occupancy
  Ni  Ni0  1  0.00102756  1.00093269  1.00081618  1
  Ni  Ni1  1  0.16761798  0.16765604  0.16770895  1
  Ni  Ni2  1  0.99968083  1.00025180  0.33376141  1
  Ni  Ni3  1  1.00039967  0.33301690  1.00082804  1
  Ni  Ni4  1  0.16658268  0.50005542  0.16636526  1
  Ni  Ni5  1  0.99858755  0.33363188  0.33160673  1
  Ni  Ni6  1  0.00113483  0.66892268  0.00112562  1
  Ni  Ni7  1  0.16673690  0.83528854  0.16787323  1
  Ni  Ni8  1  0.99844419  0.66903638  0.33281610  1
  Fe  Fe9  1  0.33336735  0.00095137  1.00080637  1
  Ni  Ni10  1  0.50097822  0.16728326  0.16809753  1
  Ni  Ni11  1  0.33528584  0.00143467  0.33292022  1
  Ni  Ni12  1  0.33516664  0.33453380  0.00113449  1
  Ni  Ni13  1  0.50209699  0.50044942  0.16719963  1
  Ni  Ni14  1  0.33664000  0.33276728  0.33209034  1
  Ni  Ni15  1  0.33457676  0.66772387  1.00075084  1
  Ni  Ni16  1  0.50234377  0.83521795  0.16635479  1
  Cr  Cr17  1  0.33586786  0.66822501  0.33348458  1
  Fe  Fe18  1  0.66862487  0.00157569  1.00072592  1
  Ni  Ni19  1  0.83419810  0.16717413  0.16798982  1
  Ni  Ni20  1  0.66783582  0.00114793  0.33361399  1
  Ni  Ni21  1  0.66731145  0.33425969  1.00079903  1
  Ni  Ni22  1  0.83417686  0.50141906  0.16782899  1
  Ni  Ni23  1  0.66760937  0.33390525  0.33471021  1
  Ni  Ni24  1  0.66710819  0.66705947  0.00114729  1
  Ni  Ni25  1  0.83373409  0.83423971  0.16747401  1
  Ni  Ni26  1  0.66880024  0.66779197  0.33403183  1
  Cr  Cr27  1  0.16784310  0.16733530  0.50078363  1
  Ni  Ni28  1  0.99971103  1.00023278  0.66824002  1
  Ni  Ni29  1  0.16769858  0.16777856  0.83426743  1
  Cr  Cr30  1  0.16609543  0.50002270  0.50215595  1
  Ni  Ni31  1  0.99858105  0.33367701  0.67042230  1
  Ni  Ni32  1  0.16754032  0.50090791  0.83465608  1
  Fe  Fe33  1  0.16688546  0.83484010  0.50175785  1
  Ni  Ni34  1  0.99974577  0.66910443  0.66889020  1
  Ni  Ni35  1  0.16749123  0.83427386  0.83312552  1
  Ni  Ni36  1  0.50203611  0.16645794  0.50082104  1
  Ni  Ni37  1  0.33522298  1.00008832  0.66879652  1
  Ni  Ni38  1  0.50090419  0.16735455  0.83387081  1
  Ni  Ni39  1  0.50304671  0.50066295  0.50195338  1
  Ni  Ni40  1  0.33666425  0.33409543  0.66972582  1
  Ni  Ni41  1  0.50108954  0.50134830  0.83374864  1
  Ni  Ni42  1  0.50334957  0.83569130  0.50188878  1
  Ni  Ni43  1  0.33562051  0.66870569  0.66879844  1
  Ni  Ni44  1  0.50157039  0.83418181  0.83462799  1
  Ni  Ni45  1  0.83300352  0.16688879  0.50101133  1
  Ni  Ni46  1  0.66786282  0.00118909  0.66844099  1
  Ni  Ni47  1  0.83422897  0.16718461  0.83384801  1
  Ni  Ni48  1  0.83327586  0.50173941  0.50079853  1
  Ni  Ni49  1  0.66765647  0.33389762  0.66731394  1
  Ni  Ni50  1  0.83423400  0.50157606  0.83418142  1
  Ni  Ni51  1  0.83282216  0.83427784  0.50081537  1
  Ni  Ni52  1  0.66745354  0.66776904  0.66772269  1
  Ni  Ni53  1  0.83374857  0.83408345  0.83459265  1
" 