5294,Ni88Fe7Cr4_6,-239.109287043521, 184.031425916916,Ni88Fe7Cr4,"# generated using pymatgen
 data_Cr3Fe4Ni47
_symmetry_space_group_name_H-M   'P 1'
_cell_length_a   7.44802599
_cell_length_b   7.44802599
_cell_length_c   10.53309936
_cell_angle_alpha   90.00000000
_cell_angle_beta   90.00000000
_cell_angle_gamma   90.00000000
_symmetry_Int_Tables_number   1
_chemical_formula_structural   Cr3Fe4Ni47
_chemical_formula_sum   'Cr3 Fe4 Ni47'
_cell_volume   584.30358014
_cell_formula_units_Z   1
loop_
 _symmetry_equiv_pos_site_id
 _symmetry_equiv_pos_as_xyz
  1  'x, y, z'
loop_
 _atom_site_type_symbol
 _atom_site_label
 _atom_site_symmetry_multiplicity
 _atom_site_fract_x
 _atom_site_fract_y
 _atom_site_fract_z
 _atom_site_occupancy
  Ni  Ni0  1  1.00092264  0.99979895  0.00140720  1
  Ni  Ni1  1  0.16699249  0.16715215  0.16879115  1
  Ni  Ni2  1  0.00165276  0.00174539  0.33429149  1
  Cr  Cr3  1  1.00122691  0.33423368  0.00160718  1
  Ni  Ni4  1  0.16865433  0.50222753  0.16883340  1
  Ni  Ni5  1  1.00099531  0.33361750  0.33523724  1
  Ni  Ni6  1  1.00112197  0.67019068  0.00135439  1
  Ni  Ni7  1  0.16756105  0.83445209  0.16719376  1
  Ni  Ni8  1  1.00100164  0.66846821  0.33460781  1
  Ni  Ni9  1  0.33398657  1.00062073  0.99954898  1
  Cr  Cr10  1  0.50091916  0.16816343  0.16737949  1
  Ni  Ni11  1  0.33306188  1.00070330  0.33635318  1
  Ni  Ni12  1  0.33590791  0.33521363  1.00069905  1
  Ni  Ni13  1  0.50102267  0.50305666  0.16742368  1
  Ni  Ni14  1  0.33405262  0.33498538  0.33519470  1
  Ni  Ni15  1  0.33515557  0.66799555  0.00160968  1
  Ni  Ni16  1  0.50120603  0.83271091  0.16787415  1
  Ni  Ni17  1  0.33508774  0.66814214  0.33455457  1
  Ni  Ni18  1  0.66892082  1.00055021  1.00085932  1
  Ni  Ni19  1  0.83589505  0.16696654  0.16846426  1
  Fe  Fe20  1  0.66881427  1.00034279  0.33527787  1
  Ni  Ni21  1  0.66672862  0.33501242  0.99993240  1
  Ni  Ni22  1  0.83415441  0.50248913  0.16852930  1
  Ni  Ni23  1  0.66878384  0.33563845  0.33565886  1
  Ni  Ni24  1  0.66755386  0.66826807  1.00081636  1
  Ni  Ni25  1  0.83506360  0.83437307  0.16762059  1
  Ni  Ni26  1  0.66774221  0.66748004  0.33501859  1
  Ni  Ni27  1  0.16819781  0.16775270  0.50108490  1
  Ni  Ni28  1  0.00235775  1.00097592  0.66813160  1
  Ni  Ni29  1  0.16904990  0.16750114  0.83395743  1
  Ni  Ni30  1  0.16806786  0.50129313  0.50104894  1
  Fe  Fe31  1  1.00115394  0.33541716  0.66767683  1
  Ni  Ni32  1  0.16891911  0.50151068  0.83395253  1
  Ni  Ni33  1  0.16792418  0.83478674  0.50184097  1
  Ni  Ni34  1  0.00153760  0.66881229  0.66786743  1
  Fe  Fe35  1  0.16754542  0.83438510  0.83483002  1
  Ni  Ni36  1  0.50019914  0.16873907  0.50075990  1
  Fe  Fe37  1  0.33359787  1.00105617  0.66760766  1
  Ni  Ni38  1  0.50007435  0.16865615  0.83570956  1
  Ni  Ni39  1  0.50130143  0.50128067  0.50147470  1
  Ni  Ni40  1  0.33514536  0.33517141  0.66793576  1
  Ni  Ni41  1  0.50110155  0.50125777  0.83493286  1
  Ni  Ni42  1  0.50046224  0.83380731  0.50014469  1
  Ni  Ni43  1  0.33430018  0.66675933  0.66766643  1
  Ni  Ni44  1  0.50119745  0.83391430  0.83580848  1
  Ni  Ni45  1  0.83543366  0.16859254  0.50036844  1
  Cr  Cr46  1  0.66876194  0.00159997  0.66726789  1
  Ni  Ni47  1  0.83470751  0.16741114  0.83500037  1
  Ni  Ni48  1  0.83446036  0.50155647  0.50164838  1
  Ni  Ni49  1  0.66706896  0.33598621  0.66823949  1
  Ni  Ni50  1  0.83380819  0.50263677  0.83365722  1
  Ni  Ni51  1  0.83544491  0.83368390  0.50037392  1
  Ni  Ni52  1  0.66799103  0.66602530  0.66799697  1
  Ni  Ni53  1  0.83496010  0.83378778  0.83583368  1
" 