7744,Ni88Fe5Cr5_16,-236.911621062019, 173.933639051555,Ni88Fe5Cr5,"# generated using pymatgen
 data_Cr5Fe2Ni47
_symmetry_space_group_name_H-M   'P 1'
_cell_length_a   7.45896683
_cell_length_b   7.45896683
_cell_length_c   10.54857205
_cell_angle_alpha   90.00000000
_cell_angle_beta   90.00000000
_cell_angle_gamma   90.00000000
_symmetry_Int_Tables_number   1
_chemical_formula_structural   Cr5Fe2Ni47
_chemical_formula_sum   'Cr5 Fe2 Ni47'
_cell_volume   586.88231883
_cell_formula_units_Z   1
loop_
 _symmetry_equiv_pos_site_id
 _symmetry_equiv_pos_as_xyz
  1  'x, y, z'
loop_
 _atom_site_type_symbol
 _atom_site_label
 _atom_site_symmetry_multiplicity
 _atom_site_fract_x
 _atom_site_fract_y
 _atom_site_fract_z
 _atom_site_occupancy
  Cr  Cr0  1  0.00058624  0.99935857  1.00007188  1
  Ni  Ni1  1  0.16637775  0.16808303  0.16574136  1
  Ni  Ni2  1  1.00009899  0.99941080  0.33327730  1
  Ni  Ni3  1  0.99969757  0.33502513  0.00075173  1
  Ni  Ni4  1  0.16656508  0.50189962  0.16587341  1
  Ni  Ni5  1  0.99988392  0.33475573  0.33223927  1
  Ni  Ni6  1  0.99950525  0.66615245  1.00012405  1
  Ni  Ni7  1  0.16722324  0.83165613  0.16723395  1
  Ni  Ni8  1  0.99969090  0.66747400  0.33367959  1
  Ni  Ni9  1  0.33492811  1.00027126  0.00067669  1
  Ni  Ni10  1  0.50268542  0.16729366  0.16530642  1
  Cr  Cr11  1  0.33397493  0.99899819  0.33363216  1
  Ni  Ni12  1  0.33474304  0.33364950  1.00035109  1
  Ni  Ni13  1  0.50102815  0.50136013  0.16609944  1
  Cr  Cr14  1  0.33452491  0.33523922  0.33454707  1
  Ni  Ni15  1  0.33478332  0.66768287  0.00112084  1
  Ni  Ni16  1  0.50113397  0.83289461  0.16562649  1
  Ni  Ni17  1  0.33467783  0.66746605  0.33349408  1
  Fe  Fe18  1  0.66610215  0.99999275  1.00030406  1
  Ni  Ni19  1  0.83288049  0.16807604  0.16824133  1
  Ni  Ni20  1  0.66774125  0.99894434  0.33186652  1
  Ni  Ni21  1  0.66716123  0.33517250  1.00044739  1
  Ni  Ni22  1  0.83400619  0.50046496  0.16709497  1
  Ni  Ni23  1  0.66775920  0.33553861  0.33323034  1
  Ni  Ni24  1  0.66723268  0.66644203  1.00004002  1
  Ni  Ni25  1  0.83321423  0.83303186  0.16812297  1
  Ni  Ni26  1  0.66725558  0.66721743  0.33408400  1
  Ni  Ni27  1  0.16755404  0.16655431  0.50234289  1
  Ni  Ni28  1  0.00127780  0.99820830  0.66795443  1
  Fe  Fe29  1  0.16898409  0.16714922  0.83410514  1
  Ni  Ni30  1  0.16730178  0.50285382  0.50042382  1
  Cr  Cr31  1  0.00057994  0.33584144  0.66901772  1
  Ni  Ni32  1  0.16833401  0.50266820  0.83551720  1
  Ni  Ni33  1  0.16657938  0.83226724  0.50141218  1
  Ni  Ni34  1  0.99993572  0.66907442  0.66779110  1
  Ni  Ni35  1  0.16827250  0.83168907  0.83283265  1
  Ni  Ni36  1  0.50123341  0.16692188  0.50255591  1
  Ni  Ni37  1  0.33414461  1.00024261  0.66728112  1
  Ni  Ni38  1  0.50138584  0.16730736  0.83373184  1
  Ni  Ni39  1  0.50096874  0.50162048  0.50190288  1
  Ni  Ni40  1  0.33574153  0.33387943  0.66736841  1
  Ni  Ni41  1  0.49983426  0.50027375  0.83374922  1
  Ni  Ni42  1  0.50123817  0.83316027  0.50161568  1
  Ni  Ni43  1  0.33452195  0.66744144  0.66697389  1
  Ni  Ni44  1  0.49973133  0.83403825  0.83421206  1
  Cr  Cr45  1  0.83236214  0.16600959  0.49890251  1
  Ni  Ni46  1  0.66637401  0.99913190  0.66892750  1
  Ni  Ni47  1  0.83105241  0.16733230  0.83402639  1
  Ni  Ni48  1  0.83334562  0.50271399  0.49976808  1
  Ni  Ni49  1  0.66496089  0.33528116  0.66781233  1
  Ni  Ni50  1  0.83339787  0.50101414  0.83486515  1
  Ni  Ni51  1  0.83390262  0.83261294  0.50091375  1
  Ni  Ni52  1  0.66719755  0.66719748  0.66753074  1
  Ni  Ni53  1  0.83357701  0.83321437  0.83243785  1
" 