5589,Ni88Fe7Cr4_8,-239.072255169616, 184.49366356045,Ni88Fe7Cr4,"# generated using pymatgen
 data_Cr3Fe4Ni47
_symmetry_space_group_name_H-M   'P 1'
_cell_length_a   7.44920329
_cell_length_b   7.44920329
_cell_length_c   10.53476433
_cell_angle_alpha   90.00000000
_cell_angle_beta   90.00000000
_cell_angle_gamma   90.00000000
_symmetry_Int_Tables_number   1
_chemical_formula_structural   Cr3Fe4Ni47
_chemical_formula_sum   'Cr3 Fe4 Ni47'
_cell_volume   584.58070622
_cell_formula_units_Z   1
loop_
 _symmetry_equiv_pos_site_id
 _symmetry_equiv_pos_as_xyz
  1  'x, y, z'
loop_
 _atom_site_type_symbol
 _atom_site_label
 _atom_site_symmetry_multiplicity
 _atom_site_fract_x
 _atom_site_fract_y
 _atom_site_fract_z
 _atom_site_occupancy
  Ni  Ni0  1  0.00147834  0.00310093  0.00131138  1
  Ni  Ni1  1  0.16778962  0.16790266  0.16742979  1
  Ni  Ni2  1  1.00085251  1.00080653  0.33451643  1
  Ni  Ni3  1  1.00095767  0.33334051  1.00084974  1
  Ni  Ni4  1  0.16887128  0.49968651  0.16967274  1
  Ni  Ni5  1  1.00094136  0.33456004  0.33420421  1
  Cr  Cr6  1  0.00356542  0.66632610  0.00223441  1
  Ni  Ni7  1  0.16886758  0.83602082  0.16842066  1
  Ni  Ni8  1  0.00150371  0.66823424  0.33505766  1
  Ni  Ni9  1  0.33441261  0.00183042  0.00130433  1
  Ni  Ni10  1  0.50057066  0.16824001  0.16816679  1
  Ni  Ni11  1  0.33507558  1.00098475  0.33476410  1
  Ni  Ni12  1  0.33487025  0.33485455  1.00083826  1
  Ni  Ni13  1  0.50100485  0.50091492  0.16755760  1
  Ni  Ni14  1  0.33498607  0.33436367  0.33447656  1
  Ni  Ni15  1  0.33395271  0.66690978  0.00167928  1
  Ni  Ni16  1  0.50065864  0.83430395  0.16804229  1
  Ni  Ni17  1  0.33417260  0.66824527  0.33463966  1
  Ni  Ni18  1  0.66764866  0.00452796  0.00325997  1
  Ni  Ni19  1  0.83521061  0.16826457  0.16791107  1
  Ni  Ni20  1  0.66768602  0.00150728  0.33477975  1
  Ni  Ni21  1  0.66766614  0.33267613  1.00020111  1
  Ni  Ni22  1  0.83351073  0.49967461  0.16875291  1
  Ni  Ni23  1  0.66768164  0.33369891  0.33518720  1
  Fe  Fe24  1  0.66665962  0.66579466  0.00310119  1
  Ni  Ni25  1  0.83395282  0.83549408  0.16922737  1
  Ni  Ni26  1  0.66785202  0.66835092  0.33420590  1
  Ni  Ni27  1  0.16773345  0.16784790  0.50076746  1
  Fe  Fe28  1  0.00169331  0.00266804  0.66672636  1
  Ni  Ni29  1  0.16779262  0.16829901  0.83504685  1
  Fe  Fe30  1  0.16793119  0.50050097  0.50100069  1
  Ni  Ni31  1  0.00133631  0.33513549  0.66854972  1
  Ni  Ni32  1  0.16881518  0.49991508  0.83309883  1
  Ni  Ni33  1  0.16788812  0.83517494  0.50146381  1
  Ni  Ni34  1  0.00277505  0.66686947  0.66692287  1
  Ni  Ni35  1  0.16868529  0.83573256  0.83346507  1
  Ni  Ni36  1  0.50048990  0.16878977  0.50116963  1
  Fe  Fe37  1  0.33433289  0.00264933  0.66673664  1
  Ni  Ni38  1  0.50074824  0.16975520  0.83409906  1
  Ni  Ni39  1  0.50198894  0.50132950  0.50154666  1
  Ni  Ni40  1  0.33458336  0.33491815  0.66828600  1
  Ni  Ni41  1  0.50103427  0.49950535  0.83460605  1
  Ni  Ni42  1  0.50088945  0.83356713  0.50106212  1
  Ni  Ni43  1  0.33293807  0.66684156  0.66734670  1
  Cr  Cr44  1  0.49978909  0.83397081  0.83482536  1
  Ni  Ni45  1  0.83537091  0.16878865  0.50117101  1
  Ni  Ni46  1  0.66775317  0.00351165  0.66572952  1
  Ni  Ni47  1  0.83503633  0.16982965  0.83434024  1
  Ni  Ni48  1  0.83371635  0.50114727  0.50155798  1
  Ni  Ni49  1  0.66769366  0.33315525  0.66821680  1
  Ni  Ni50  1  0.83361840  0.49834439  0.83346048  1
  Ni  Ni51  1  0.83483161  0.83374774  0.50105128  1
  Ni  Ni52  1  0.66781736  0.66685684  0.66699287  1
  Cr  Cr53  1  0.83499534  0.83521113  0.83364515  1
" 