736,Ni88Cr12_1,-204.306350753979, 178.680784906118,Ni88Cr12,"# generated using pymatgen
 data_Cr47Ni7
_symmetry_space_group_name_H-M   'P 1'
_cell_length_a   7.58865628
_cell_length_b   7.58865628
_cell_length_c   10.73198063
_cell_angle_alpha   90.00000000
_cell_angle_beta   90.00000000
_cell_angle_gamma   90.00000000
_symmetry_Int_Tables_number   1
_chemical_formula_structural   Cr47Ni7
_chemical_formula_sum   'Cr47 Ni7'
_cell_volume   618.03012537
_cell_formula_units_Z   1
loop_
 _symmetry_equiv_pos_site_id
 _symmetry_equiv_pos_as_xyz
  1  'x, y, z'
loop_
 _atom_site_type_symbol
 _atom_site_label
 _atom_site_symmetry_multiplicity
 _atom_site_fract_x
 _atom_site_fract_y
 _atom_site_fract_z
 _atom_site_occupancy
  Cr  Cr0  1  0.98903514  -0.00590337  0.99164003  1
  Cr  Cr1  1  0.15721959  0.15711441  0.15919032  1
  Ni  Ni2  1  0.99068773  -0.00639010  0.32390149  1
  Cr  Cr3  1  0.98931874  0.32405187  0.99115581  1
  Cr  Cr4  1  0.15937150  0.49117974  0.15785937  1
  Cr  Cr5  1  0.99047687  0.32414603  0.32434512  1
  Cr  Cr6  1  -0.00718238  0.65782398  -0.00801253  1
  Cr  Cr7  1  0.15813636  0.82762117  0.16006413  1
  Cr  Cr8  1  -0.00719213  0.65915427  0.32569750  1
  Cr  Cr9  1  0.32842354  0.98875574  0.99115642  1
  Cr  Cr10  1  0.49242904  0.15828175  0.15915380  1
  Cr  Cr11  1  0.32701763  0.99108358  0.32620381  1
  Cr  Cr12  1  0.32470331  0.32593829  0.99198747  1
  Cr  Cr13  1  0.49253804  0.49243084  0.15825074  1
  Cr  Cr14  1  0.32631136  0.32513080  0.32764482  1
  Cr  Cr15  1  0.32658974  0.66132287  -0.00718087  1
  Ni  Ni16  1  0.49221481  0.82566890  0.15815708  1
  Cr  Cr17  1  0.32574017  0.65974292  0.32348327  1
  Cr  Cr18  1  0.65844945  -0.00780784  -0.00801253  1
  Ni  Ni19  1  0.82658480  0.15700630  0.15958204  1
  Cr  Cr20  1  0.65868954  -0.00672672  0.32388597  1
  Cr  Cr21  1  0.66188587  0.32221806  -0.00718148  1
  Cr  Cr22  1  0.82408854  0.49133829  0.15866190  1
  Cr  Cr23  1  0.65918044  0.32287001  0.32533619  1
  Cr  Cr24  1  0.65654498  0.66160646  -0.00766509  1
  Cr  Cr25  1  0.82526444  0.82759407  0.16089913  1
  Cr  Cr26  1  0.65737900  0.65983877  0.32441683  1
  Cr  Cr27  1  0.16005329  0.15668022  0.49095532  1
  Cr  Cr28  1  0.99080283  -0.00673739  0.65955811  1
  Cr  Cr29  1  0.15821076  0.15810357  0.82572420  1
  Cr  Cr30  1  0.15900721  0.49163440  0.49198747  1
  Cr  Cr31  1  0.99089869  0.32490144  0.66049167  1
  Cr  Cr32  1  0.15946187  0.49127010  0.82611557  1
  Cr  Cr33  1  0.15612131  0.82771502  0.49047864  1
  Cr  Cr34  1  0.99148734  0.65783374  0.65827744  1
  Cr  Cr35  1  0.15930331  0.82655306  0.82531304  1
  Ni  Ni36  1  0.49208076  0.15856084  0.49198747  1
  Cr  Cr37  1  0.32777160  0.99146117  0.65863875  1
  Cr  Cr38  1  0.49235985  0.15821256  0.82482114  1
  Cr  Cr39  1  0.49396138  0.49058832  0.49301962  1
  Cr  Cr40  1  0.32551081  0.32433024  0.65633012  1
  Cr  Cr41  1  0.49352720  0.49342201  0.82478462  1
  Cr  Cr42  1  0.49410135  0.82563507  0.49340336  1
  Cr  Cr43  1  0.32649558  0.66016474  0.65962982  1
  Ni  Ni44  1  0.49363530  0.82405681  0.82439290  1
  Cr  Cr45  1  0.82500653  0.15654026  0.49057158  1
  Cr  Cr46  1  0.65736832  0.99195206  0.66008897  1
  Ni  Ni47  1  0.82497271  0.15842680  0.82581786  1
  Cr  Cr48  1  0.82292659  0.49452029  0.49349630  1
  Cr  Cr49  1  0.65955803  0.32362398  0.65777113  1
  Cr  Cr50  1  0.82302044  0.49250525  0.82391081  1
  Cr  Cr51  1  0.82569494  0.82494667  0.49198747  1
  Ni  Ni52  1  0.65703170  0.65995388  0.66007345  1
  Cr  Cr53  1  0.82304754  0.82537717  0.82307581  1
" 