670,Ni88Fe7Cr4_4,-239.243489699236, 184.455522675505,Ni88Fe7Cr4,"# generated using pymatgen
 data_Cr3Fe4Ni47
_symmetry_space_group_name_H-M   'P 1'
_cell_length_a   7.44770427
_cell_length_b   7.44770427
_cell_length_c   10.53264439
_cell_angle_alpha   90.00000000
_cell_angle_beta   90.00000000
_cell_angle_gamma   90.00000000
_symmetry_Int_Tables_number   1
_chemical_formula_structural   Cr3Fe4Ni47
_chemical_formula_sum   'Cr3 Fe4 Ni47'
_cell_volume   584.22786719
_cell_formula_units_Z   1
loop_
 _symmetry_equiv_pos_site_id
 _symmetry_equiv_pos_as_xyz
  1  'x, y, z'
loop_
 _atom_site_type_symbol
 _atom_site_label
 _atom_site_symmetry_multiplicity
 _atom_site_fract_x
 _atom_site_fract_y
 _atom_site_fract_z
 _atom_site_occupancy
  Ni  Ni0  1  1.00025240  0.00138940  0.00139451  1
  Ni  Ni1  1  0.16793157  0.16805352  0.16789474  1
  Ni  Ni2  1  1.00128474  1.00070611  0.33455824  1
  Ni  Ni3  1  1.00086405  0.33513087  1.00091972  1
  Ni  Ni4  1  0.16986067  0.50224113  0.16618428  1
  Cr  Cr5  1  1.00043000  0.33473188  0.33443263  1
  Ni  Ni6  1  1.00087305  0.66744306  0.00203250  1
  Ni  Ni7  1  0.16694052  0.83367224  0.16901061  1
  Fe  Fe8  1  1.00126065  0.66905305  0.33421701  1
  Cr  Cr9  1  0.33450474  1.00053472  0.00148067  1
  Ni  Ni10  1  0.50259641  0.16929444  0.16890606  1
  Ni  Ni11  1  0.33461845  1.00061974  0.33492017  1
  Ni  Ni12  1  0.33428324  0.33612373  0.00175704  1
  Ni  Ni13  1  0.50104592  0.50124715  0.16800250  1
  Ni  Ni14  1  0.33532850  0.33507389  0.33455378  1
  Ni  Ni15  1  0.33479393  0.66680234  1.00108643  1
  Ni  Ni16  1  0.50254148  0.83336477  0.16831076  1
  Ni  Ni17  1  0.33553364  0.66831157  0.33454855  1
  Ni  Ni18  1  0.66969687  1.00084968  0.00147982  1
  Ni  Ni19  1  0.83345753  0.16659416  0.16660918  1
  Ni  Ni20  1  0.66800887  1.00066590  0.33454585  1
  Ni  Ni21  1  0.66880617  0.33532750  0.00195768  1
  Ni  Ni22  1  0.83292240  0.50229109  0.16707977  1
  Ni  Ni23  1  0.66714702  0.33530342  0.33458157  1
  Ni  Ni24  1  0.66828984  0.66770762  0.00130989  1
  Ni  Ni25  1  0.83447186  0.83524720  0.16769080  1
  Ni  Ni26  1  0.66730645  0.66801639  0.33461258  1
  Ni  Ni27  1  0.16758218  0.16838313  0.50163881  1
  Ni  Ni28  1  1.00013549  0.00139058  0.66797057  1
  Ni  Ni29  1  0.16538696  0.16971025  0.83432290  1
  Ni  Ni30  1  0.17083122  0.50225631  0.50305053  1
  Ni  Ni31  1  1.00106095  0.33494640  0.66832407  1
  Ni  Ni32  1  0.16906364  0.50149939  0.83469542  1
  Ni  Ni33  1  0.16660481  0.83333060  0.50050405  1
  Ni  Ni34  1  1.00103150  0.66760566  0.66717241  1
  Ni  Ni35  1  0.16484024  0.83266130  0.83431884  1
  Ni  Ni36  1  0.50285784  0.16955128  0.50065967  1
  Cr  Cr37  1  0.33464212  1.00053508  0.66762601  1
  Fe  Fe38  1  0.50310397  0.17101793  0.83467822  1
  Ni  Ni39  1  0.50045320  0.50125175  0.50120680  1
  Ni  Ni40  1  0.33432986  0.33616346  0.66770191  1
  Ni  Ni41  1  0.50108791  0.50101443  0.83472930  1
  Ni  Ni42  1  0.50277239  0.83311528  0.50124941  1
  Ni  Ni43  1  0.33480152  0.66675897  0.66835738  1
  Fe  Fe44  1  0.50316494  0.83184087  0.83467574  1
  Ni  Ni45  1  0.83347208  0.16572202  0.50263771  1
  Ni  Ni46  1  0.66966295  1.00089071  0.66805733  1
  Ni  Ni47  1  0.83460709  0.16721564  0.83470657  1
  Fe  Fe48  1  0.83348321  0.50184940  0.50231630  1
  Ni  Ni49  1  0.66858451  0.33511187  0.66731621  1
  Ni  Ni50  1  0.83380384  0.50147779  0.83400049  1
  Ni  Ni51  1  0.83450832  0.83590249  0.50149300  1
  Ni  Ni52  1  0.66810903  0.66790036  0.66791981  1
  Ni  Ni53  1  0.83509223  0.83522549  0.83471819  1
" 