2913,Ni88Fe7Cr3_17,-238.785674768381, 181.253738129277,Ni88Fe7Cr3,"# generated using pymatgen
 data_CrFeNi16
_symmetry_space_group_name_H-M   'P 1'
_cell_length_a   7.45470043
_cell_length_b   7.45470043
_cell_length_c   10.54253845
_cell_angle_alpha   90.00000000
_cell_angle_beta   90.00000000
_cell_angle_gamma   90.00000000
_symmetry_Int_Tables_number   1
_chemical_formula_structural   CrFeNi16
_chemical_formula_sum   'Cr3 Fe3 Ni48'
_cell_volume   585.87583428
_cell_formula_units_Z   3
loop_
 _symmetry_equiv_pos_site_id
 _symmetry_equiv_pos_as_xyz
  1  'x, y, z'
loop_
 _atom_site_type_symbol
 _atom_site_label
 _atom_site_symmetry_multiplicity
 _atom_site_fract_x
 _atom_site_fract_y
 _atom_site_fract_z
 _atom_site_occupancy
  Ni  Ni0  1  0.00163285  1.00068806  1.00078446  1
  Fe  Fe1  1  0.16732576  0.16723302  0.16775851  1
  Ni  Ni2  1  0.00270128  0.00085969  0.33382143  1
  Ni  Ni3  1  0.99975133  0.33389746  0.00161810  1
  Ni  Ni4  1  0.16652360  0.50065759  0.16702094  1
  Ni  Ni5  1  0.00091570  0.33446966  0.33406459  1
  Ni  Ni6  1  0.99999975  0.66789747  0.00186694  1
  Ni  Ni7  1  0.16658776  0.83441923  0.16682894  1
  Ni  Ni8  1  0.99945803  0.66715497  0.33400078  1
  Ni  Ni9  1  0.33425448  1.00050749  0.00097160  1
  Ni  Ni10  1  0.50050205  0.16823931  0.16701082  1
  Ni  Ni11  1  0.33258231  0.00240155  0.33430710  1
  Fe  Fe12  1  0.33526614  0.33309080  0.00145505  1
  Ni  Ni13  1  0.50137668  0.49960716  0.16688784  1
  Ni  Ni14  1  0.33412661  0.33269586  0.33384100  1
  Fe  Fe15  1  0.33495479  0.66887803  0.00141475  1
  Ni  Ni16  1  0.50047414  0.83463447  0.16599253  1
  Cr  Cr17  1  0.33440899  0.66774943  0.33432165  1
  Ni  Ni18  1  0.66660072  1.00076226  1.00072011  1
  Ni  Ni19  1  0.83436898  0.16830130  0.16667509  1
  Cr  Cr20  1  0.66714209  1.00058226  0.33405375  1
  Ni  Ni21  1  0.66764314  0.33466034  0.00085036  1
  Ni  Ni22  1  0.83458778  0.50062687  0.16778330  1
  Ni  Ni23  1  0.66744071  0.33593684  0.33400229  1
  Ni  Ni24  1  0.66745963  0.66706299  0.00108054  1
  Ni  Ni25  1  0.83542388  0.83355445  0.16690624  1
  Ni  Ni26  1  0.66898110  0.66560424  0.33395559  1
  Ni  Ni27  1  0.16772489  0.16749875  0.50016185  1
  Ni  Ni28  1  0.00130825  1.00079416  0.66787632  1
  Ni  Ni29  1  0.16738367  0.16573783  0.83447682  1
  Ni  Ni30  1  0.16671673  0.50006244  0.50151509  1
  Ni  Ni31  1  1.00022534  0.33356865  0.66679853  1
  Cr  Cr32  1  0.16715322  0.50103957  0.83362059  1
  Ni  Ni33  1  0.16669889  0.83492385  0.50164753  1
  Ni  Ni34  1  1.00039084  0.66812206  0.66661219  1
  Ni  Ni35  1  0.16737629  0.83589425  0.83401427  1
  Ni  Ni36  1  0.49979228  0.16834017  0.50145886  1
  Ni  Ni37  1  0.33414965  1.00061259  0.66720575  1
  Ni  Ni38  1  0.50109765  0.16727370  0.83401385  1
  Ni  Ni39  1  0.50139931  0.49981735  0.50140463  1
  Ni  Ni40  1  0.33498989  0.33351200  0.66683780  1
  Ni  Ni41  1  0.50247829  0.50061778  0.83419044  1
  Ni  Ni42  1  0.50057469  0.83432692  0.50224547  1
  Ni  Ni43  1  0.33500604  0.66836054  0.66719931  1
  Ni  Ni44  1  0.50086147  0.83459227  0.83425834  1
  Ni  Ni45  1  0.83496806  0.16832474  0.50169217  1
  Ni  Ni46  1  0.66702762  1.00077991  0.66800612  1
  Ni  Ni47  1  0.83400621  0.16734226  0.83412296  1
  Ni  Ni48  1  0.83437020  0.50084326  0.50038203  1
  Ni  Ni49  1  0.66727046  0.33442615  0.66763370  1
  Ni  Ni50  1  0.83271091  0.50062429  0.83432032  1
  Ni  Ni51  1  0.83521303  0.83331481  0.50121830  1
  Ni  Ni52  1  0.66708841  0.66727885  0.66744778  1
  Ni  Ni53  1  0.83424740  0.83451801  0.83436463  1
" 