1511,Ni88Fe7Cr4_18,-239.091040658269, 184.769550010361,Ni88Fe7Cr4,"# generated using pymatgen
 data_Cr3Fe4Ni47
_symmetry_space_group_name_H-M   'P 1'
_cell_length_a   7.44962351
_cell_length_b   7.44962351
_cell_length_c   10.53535860
_cell_angle_alpha   90.00000000
_cell_angle_beta   90.00000000
_cell_angle_gamma   90.00000000
_symmetry_Int_Tables_number   1
_chemical_formula_structural   Cr3Fe4Ni47
_chemical_formula_sum   'Cr3 Fe4 Ni47'
_cell_volume   584.67964124
_cell_formula_units_Z   1
loop_
 _symmetry_equiv_pos_site_id
 _symmetry_equiv_pos_as_xyz
  1  'x, y, z'
loop_
 _atom_site_type_symbol
 _atom_site_label
 _atom_site_symmetry_multiplicity
 _atom_site_fract_x
 _atom_site_fract_y
 _atom_site_fract_z
 _atom_site_occupancy
  Ni  Ni0  1  1.00116881  1.00116564  0.00146892  1
  Ni  Ni1  1  0.16901556  0.16817606  0.16709617  1
  Cr  Cr2  1  0.00197217  0.00196864  0.33369749  1
  Ni  Ni3  1  0.00140998  0.33448193  0.00117199  1
  Ni  Ni4  1  0.16811208  0.50157379  0.16824084  1
  Ni  Ni5  1  0.00197074  0.33683505  0.33539605  1
  Ni  Ni6  1  1.00092643  0.66786077  0.00159018  1
  Ni  Ni7  1  0.16772994  0.83375934  0.16725267  1
  Ni  Ni8  1  1.00091989  0.66472240  0.33395618  1
  Ni  Ni9  1  0.33417315  0.00171861  0.00128355  1
  Ni  Ni10  1  0.50115299  0.16830672  0.16824025  1
  Ni  Ni11  1  0.33652860  0.00227639  0.33528283  1
  Ni  Ni12  1  0.33442639  0.33442341  1.00116402  1
  Ni  Ni13  1  0.50121944  0.50060573  0.16758186  1
  Ni  Ni14  1  0.33323597  0.33323526  0.33372202  1
  Ni  Ni15  1  0.33435706  0.66736698  0.00155260  1
  Fe  Fe16  1  0.50153498  0.83476186  0.16780208  1
  Fe  Fe17  1  0.33322296  0.66865405  0.33396552  1
  Ni  Ni18  1  0.66816653  0.00123492  0.00128323  1
  Ni  Ni19  1  0.83334015  0.16792448  0.16725210  1
  Ni  Ni20  1  0.66502467  0.00122425  0.33426138  1
  Ni  Ni21  1  0.66767251  0.33466551  0.00185873  1
  Ni  Ni22  1  0.83417685  0.50189045  0.16842559  1
  Fe  Fe23  1  0.66891162  0.33348287  0.33370685  1
  Ni  Ni24  1  0.66822508  0.66760802  1.00085744  1
  Ni  Ni25  1  0.83430689  0.83369245  0.16691861  1
  Ni  Ni26  1  0.66862469  0.66801342  0.33323999  1
  Ni  Ni27  1  0.16890199  0.16829045  0.50170737  1
  Ni  Ni28  1  0.00195678  0.00134173  0.66831940  1
  Ni  Ni29  1  0.16814311  0.16752586  0.83470774  1
  Ni  Ni30  1  0.16627156  0.50128401  0.50074729  1
  Fe  Fe31  1  1.00106483  0.33450204  0.66761016  1
  Ni  Ni32  1  0.16833033  0.50153192  0.83452211  1
  Ni  Ni33  1  0.17007343  0.83393450  0.50203927  1
  Ni  Ni34  1  0.00171454  0.66744918  0.66796229  1
  Ni  Ni35  1  0.16765066  0.83445027  0.83421548  1
  Ni  Ni36  1  0.50097748  0.16596861  0.50105275  1
  Ni  Ni37  1  0.33429580  0.00159598  0.66693982  1
  Ni  Ni38  1  0.50122363  0.16802532  0.83421563  1
  Cr  Cr39  1  0.50120771  0.50120562  0.50150325  1
  Ni  Ni40  1  0.33425104  0.33363716  0.66862148  1
  Ni  Ni41  1  0.50121956  0.50121636  0.83457797  1
  Ni  Ni42  1  0.49956201  0.83649987  0.50063256  1
  Ni  Ni43  1  0.33345865  0.66827629  0.66769175  1
  Ni  Ni44  1  0.50140046  0.83426659  0.83444824  1
  Ni  Ni45  1  0.83362881  0.16976996  0.50173550  1
  Ni  Ni46  1  0.66725581  0.00213465  0.66796224  1
  Ni  Ni47  1  0.83414137  0.16734502  0.83452250  1
  Ni  Ni48  1  0.83619494  0.49986828  0.50074756  1
  Ni  Ni49  1  0.66808167  0.33387863  0.66769167  1
  Ni  Ni50  1  0.83395818  0.50170886  0.83433653  1
  Cr  Cr51  1  0.83386787  0.83386515  0.50238485  1
  Ni  Ni52  1  0.66833507  0.66749533  0.66940872  1
  Ni  Ni53  1  0.83445753  0.83445430  0.83457771  1
" 