2328,Ni88Cr12_19,-204.24805233411, 176.600296617223,Ni88Cr12,"# generated using pymatgen
 data_Cr47Ni7
_symmetry_space_group_name_H-M   'P 1'
_cell_length_a   7.59147024
_cell_length_b   7.59147024
_cell_length_c   10.73596017
_cell_angle_alpha   90.00000000
_cell_angle_beta   90.00000000
_cell_angle_gamma   90.00000000
_symmetry_Int_Tables_number   1
_chemical_formula_structural   Cr47Ni7
_chemical_formula_sum   'Cr47 Ni7'
_cell_volume   618.71789789
_cell_formula_units_Z   1
loop_
 _symmetry_equiv_pos_site_id
 _symmetry_equiv_pos_as_xyz
  1  'x, y, z'
loop_
 _atom_site_type_symbol
 _atom_site_label
 _atom_site_symmetry_multiplicity
 _atom_site_fract_x
 _atom_site_fract_y
 _atom_site_fract_z
 _atom_site_occupancy
  Cr  Cr0  1  -0.00809195  -0.00661356  -0.00732586  1
  Cr  Cr1  1  0.15901429  0.15941280  0.15612441  1
  Cr  Cr2  1  0.99134563  -0.00773093  0.32544121  1
  Ni  Ni3  1  -0.00629874  0.32539352  0.99175530  1
  Cr  Cr4  1  0.15847237  0.49033049  0.15699805  1
  Cr  Cr5  1  0.98927103  0.32440181  0.32615418  1
  Cr  Cr6  1  0.99038056  0.65706874  -0.00786922  1
  Cr  Cr7  1  0.15793005  0.82567471  0.15999472  1
  Cr  Cr8  1  -0.00759285  0.65874442  0.32546479  1
  Cr  Cr9  1  0.32576956  -0.00768033  0.99161254  1
  Cr  Cr10  1  0.49115699  0.15994931  0.15912351  1
  Cr  Cr11  1  0.32486212  0.99120285  0.32437823  1
  Ni  Ni12  1  0.32310465  0.32539775  -0.00810336  1
  Cr  Cr13  1  0.49275436  0.49084981  0.15860319  1
  Cr  Cr14  1  0.32693246  0.32546167  0.32509269  1
  Cr  Cr15  1  0.32730124  0.65812875  0.99107061  1
  Cr  Cr16  1  0.49276314  0.82461695  0.15790241  1
  Cr  Cr17  1  0.32486092  0.65875068  0.32579213  1
  Cr  Cr18  1  0.65773479  0.98979593  0.99069621  1
  Cr  Cr19  1  0.82524556  0.15940743  0.15895148  1
  Cr  Cr20  1  0.65920907  -0.00565968  0.32581378  1
  Cr  Cr21  1  0.65879675  0.32649721  -0.00749747  1
  Cr  Cr22  1  0.82418915  0.49193241  0.15751671  1
  Ni  Ni23  1  0.65930296  0.32431180  0.32624491  1
  Ni  Ni24  1  0.65764052  0.65896897  0.99098003  1
  Cr  Cr25  1  0.82472057  0.82407489  0.15773005  1
  Cr  Cr26  1  0.65814791  0.65667327  0.32400701  1
  Cr  Cr27  1  0.15765458  0.15825541  0.49202203  1
  Cr  Cr28  1  0.98981063  -0.00723817  0.65729920  1
  Cr  Cr29  1  0.15884099  0.16022597  0.82727245  1
  Cr  Cr30  1  0.15864432  0.49229443  0.49234952  1
  Cr  Cr31  1  0.99080392  0.32457408  0.65799816  1
  Cr  Cr32  1  0.15829919  0.48983629  0.82607076  1
  Cr  Cr33  1  0.15810305  0.82486536  0.49115129  1
  Cr  Cr34  1  -0.00759407  0.65808012  0.65782000  1
  Cr  Cr35  1  0.15928840  0.82535625  0.82426998  1
  Cr  Cr36  1  0.49431102  0.15879348  0.49147617  1
  Cr  Cr37  1  0.32713303  0.99063790  0.65942696  1
  Cr  Cr38  1  0.49115782  0.15711338  0.82481291  1
  Cr  Cr39  1  0.49226664  0.49070118  0.49041328  1
  Cr  Cr40  1  0.32507843  0.32563566  0.65873474  1
  Cr  Cr41  1  0.49169812  0.49294207  0.82639765  1
  Cr  Cr42  1  0.49226837  0.82591957  0.49291120  1
  Cr  Cr43  1  0.32559892  0.65914150  0.65855617  1
  Ni  Ni44  1  0.49350712  0.82504751  0.82509118  1
  Ni  Ni45  1  0.82357555  0.15856050  0.49171139  1
  Ni  Ni46  1  0.65847139  0.99162348  0.65828897  1
  Cr  Cr47  1  0.82541951  0.15810529  0.82444270  1
  Cr  Cr48  1  0.82450346  0.49025401  0.49095725  1
  Cr  Cr49  1  0.65953461  0.32303604  0.65638278  1
  Cr  Cr50  1  0.82542028  0.49249475  0.82694316  1
  Cr  Cr51  1  0.82504186  0.82691174  0.49254045  1
  Cr  Cr52  1  0.65740883  0.66013209  0.66034213  1
  Cr  Cr53  1  0.82230651  0.82481398  0.82514081  1
" 