4229,Ni88Fe7Cr4_3,-239.091334338584, 184.705154067183,Ni88Fe7Cr4,"# generated using pymatgen
 data_Cr3Fe4Ni47
_symmetry_space_group_name_H-M   'P 1'
_cell_length_a   7.44641399
_cell_length_b   7.44641399
_cell_length_c   10.53081965
_cell_angle_alpha   90.00000000
_cell_angle_beta   90.00000000
_cell_angle_gamma   90.00000000
_symmetry_Int_Tables_number   1
_chemical_formula_structural   Cr3Fe4Ni47
_chemical_formula_sum   'Cr3 Fe4 Ni47'
_cell_volume   583.92427502
_cell_formula_units_Z   1
loop_
 _symmetry_equiv_pos_site_id
 _symmetry_equiv_pos_as_xyz
  1  'x, y, z'
loop_
 _atom_site_type_symbol
 _atom_site_label
 _atom_site_symmetry_multiplicity
 _atom_site_fract_x
 _atom_site_fract_y
 _atom_site_fract_z
 _atom_site_occupancy
  Ni  Ni0  1  0.00145749  0.00221247  0.00191246  1
  Ni  Ni1  1  0.16682179  0.16843765  0.16768499  1
  Ni  Ni2  1  0.99881878  0.00319383  0.33339105  1
  Ni  Ni3  1  1.00085892  0.33509766  1.00119651  1
  Ni  Ni4  1  0.16804298  0.50196947  0.16916579  1
  Ni  Ni5  1  0.00200007  0.33495937  0.33534265  1
  Ni  Ni6  1  1.00128810  0.66685523  0.00162553  1
  Ni  Ni7  1  0.16676779  0.83385476  0.16714070  1
  Ni  Ni8  1  1.00005591  0.66592944  0.33357530  1
  Ni  Ni9  1  0.33531872  1.00094417  0.00149737  1
  Ni  Ni10  1  0.50286478  0.16899715  0.16757863  1
  Cr  Cr11  1  0.33598244  0.00281894  0.33371569  1
  Fe  Fe12  1  0.33438603  0.33484436  1.00131485  1
  Ni  Ni13  1  0.50181774  0.50147600  0.16823093  1
  Ni  Ni14  1  0.33276002  0.33521383  0.33353041  1
  Ni  Ni15  1  0.33511965  0.66863977  0.00190400  1
  Ni  Ni16  1  0.50237614  0.83374991  0.16813944  1
  Ni  Ni17  1  0.33507472  0.66594612  0.33278795  1
  Ni  Ni18  1  0.66736806  1.00133450  0.00150321  1
  Ni  Ni19  1  0.83449093  0.16779954  0.16844112  1
  Ni  Ni20  1  0.66930882  1.00094475  0.33476521  1
  Ni  Ni21  1  0.66913965  0.33489849  0.00196423  1
  Ni  Ni22  1  0.83436174  0.50140453  0.16846430  1
  Fe  Fe23  1  0.66916337  0.33416068  0.33391261  1
  Ni  Ni24  1  0.66775919  0.66790895  1.00122136  1
  Ni  Ni25  1  0.83502604  0.83492635  0.16851393  1
  Ni  Ni26  1  0.66908314  0.66939537  0.33369208  1
  Ni  Ni27  1  0.16709867  0.16933018  0.50238630  1
  Ni  Ni28  1  1.00051642  0.00301920  0.66894617  1
  Ni  Ni29  1  0.16773569  0.16715286  0.83393564  1
  Ni  Ni30  1  0.16676103  0.50072982  0.50132185  1
  Ni  Ni31  1  1.00127994  0.33499746  0.66757379  1
  Ni  Ni32  1  0.16809783  0.50215463  0.83360466  1
  Cr  Cr33  1  0.16685506  0.83344236  0.50214504  1
  Ni  Ni34  1  1.00038130  0.66618272  0.66897959  1
  Ni  Ni35  1  0.16778864  0.83488891  0.83502371  1
  Ni  Ni36  1  0.50285609  0.16801420  0.50226803  1
  Ni  Ni37  1  0.33593530  0.00264964  0.66866859  1
  Ni  Ni38  1  0.50211630  0.16820683  0.83435540  1
  Cr  Cr39  1  0.50122023  0.50091637  0.50138480  1
  Ni  Ni40  1  0.33357614  0.33375128  0.66913274  1
  Ni  Ni41  1  0.50193794  0.50128754  0.83473467  1
  Fe  Fe42  1  0.50340120  0.83511534  0.50215983  1
  Ni  Ni43  1  0.33485072  0.66781686  0.66949537  1
  Ni  Ni44  1  0.50118306  0.83471090  0.83364274  1
  Ni  Ni45  1  0.83425584  0.16804197  0.50121909  1
  Ni  Ni46  1  0.66777666  0.00164046  0.66789063  1
  Ni  Ni47  1  0.83431197  0.16786649  0.83453472  1
  Ni  Ni48  1  0.83547908  0.50124186  0.50147597  1
  Ni  Ni49  1  0.66936849  0.33402178  0.66849810  1
  Ni  Ni50  1  0.83414128  0.50119836  0.83426697  1
  Fe  Fe51  1  0.83412010  0.83484944  0.50145054  1
  Ni  Ni52  1  0.66905356  0.66859285  0.66920037  1
  Ni  Ni53  1  0.83520406  0.83508198  0.83430797  1
" 