1960,Ni88Fe5Cr5_7,-237.01045461241, 175.874427794823,Ni88Fe5Cr5,"# generated using pymatgen
 data_Cr5Fe2Ni47
_symmetry_space_group_name_H-M   'P 1'
_cell_length_a   7.45974354
_cell_length_b   7.45974354
_cell_length_c   10.54967048
_cell_angle_alpha   90.00000000
_cell_angle_beta   90.00000000
_cell_angle_gamma   90.00000000
_symmetry_Int_Tables_number   1
_chemical_formula_structural   Cr5Fe2Ni47
_chemical_formula_sum   'Cr5 Fe2 Ni47'
_cell_volume   587.06567484
_cell_formula_units_Z   1
loop_
 _symmetry_equiv_pos_site_id
 _symmetry_equiv_pos_as_xyz
  1  'x, y, z'
loop_
 _atom_site_type_symbol
 _atom_site_label
 _atom_site_symmetry_multiplicity
 _atom_site_fract_x
 _atom_site_fract_y
 _atom_site_fract_z
 _atom_site_occupancy
  Ni  Ni0  1  0.00119716  0.99941207  0.99954136  1
  Ni  Ni1  1  0.16733947  0.16568412  0.16879788  1
  Ni  Ni2  1  0.00148295  0.00117043  0.33481488  1
  Cr  Cr3  1  0.99877276  0.33397426  0.00053489  1
  Ni  Ni4  1  0.16734110  0.50196331  0.16879772  1
  Ni  Ni5  1  1.00046785  0.33403280  0.33392978  1
  Ni  Ni6  1  0.00096515  0.66802371  0.99977192  1
  Ni  Ni7  1  0.16906298  0.83382117  0.16649512  1
  Ni  Ni8  1  0.00125094  0.66626547  0.33458430  1
  Ni  Ni9  1  0.33410753  0.99863120  0.00078541  1
  Ni  Ni10  1  0.50093573  0.16629162  0.16772837  1
  Ni  Ni11  1  0.33303942  0.00140225  0.33255761  1
  Cr  Cr12  1  0.33548720  0.33362395  0.00067433  1
  Ni  Ni13  1  0.50093406  0.50135583  0.16772823  1
  Ni  Ni14  1  0.33405459  0.33380086  0.33416203  1
  Ni  Ni15  1  0.33410740  0.66903627  1.00033633  1
  Ni  Ni16  1  0.49860491  0.83382117  0.16681555  1
  Ni  Ni17  1  0.33303945  0.66626535  0.33300647  1
  Ni  Ni18  1  0.66616440  0.00105638  0.99928619  1
  Ni  Ni19  1  0.83319326  0.16801421  0.16755204  1
  Ni  Ni20  1  0.66694642  0.00218635  0.33415428  1
  Ni  Ni21  1  0.66717729  0.33403286  0.00063476  1
  Ni  Ni22  1  0.83319329  0.49963177  0.16755201  1
  Ni  Ni23  1  0.66694634  0.33403280  0.33344154  1
  Ni  Ni24  1  0.66639642  0.66637951  0.99951678  1
  Cr  Cr25  1  0.83362377  0.83382259  0.16735708  1
  Ni  Ni26  1  0.66717808  0.66524964  0.33392409  1
  Ni  Ni27  1  0.16695381  0.16748350  0.50062519  1
  Ni  Ni28  1  0.00099852  1.00009004  0.66711207  1
  Ni  Ni29  1  0.16713688  0.16633250  0.83204651  1
  Ni  Ni30  1  0.16687458  0.50006347  0.50054855  1
  Ni  Ni31  1  0.00280280  0.33425018  0.66723908  1
  Ni  Ni32  1  0.16705853  0.50121574  0.83212251  1
  Ni  Ni33  1  0.16515237  0.83392172  0.50058935  1
  Ni  Ni34  1  0.99995461  0.66712819  0.66711219  1
  Fe  Fe35  1  0.16688221  0.83409668  0.83420871  1
  Ni  Ni36  1  0.49957162  0.16778389  0.49984191  1
  Ni  Ni37  1  0.33295926  0.00214811  0.66812544  1
  Ni  Ni38  1  0.50013817  0.16510927  0.83389878  1
  Ni  Ni39  1  0.49965116  0.49976299  0.49976509  1
  Ni  Ni40  1  0.33216889  0.33320688  0.66700781  1
  Ni  Ni41  1  0.50021680  0.50243865  0.83397496  1
  Cr  Cr42  1  0.50126306  0.83398905  0.50012803  1
  Fe  Fe43  1  0.33295244  0.66628205  0.66778118  1
  Ni  Ni44  1  0.50144111  0.83392121  0.83428095  1
  Ni  Ni45  1  0.83494310  0.16606132  0.49968984  1
  Ni  Ni46  1  0.66751098  0.99929885  0.66802838  1
  Ni  Ni47  1  0.83419360  0.16510835  0.83422721  1
  Ni  Ni48  1  0.83494247  0.50156501  0.49966556  1
  Cr  Cr49  1  0.66669926  0.33407571  0.66736260  1
  Ni  Ni50  1  0.83419328  0.50251781  0.83425166  1
  Ni  Ni51  1  0.83524264  0.83384216  0.50080844  1
  Ni  Ni52  1  0.66855503  0.66791898  0.66802835  1
  Ni  Ni53  1  0.83296947  0.83384229  0.83348524  1
" 