3006,Ni88Fe5Cr5_11,-236.873587466671, 172.702557551245,Ni88Fe5Cr5,"# generated using pymatgen
 data_Cr5Fe2Ni47
_symmetry_space_group_name_H-M   'P 1'
_cell_length_a   7.46050553
_cell_length_b   7.46050553
_cell_length_c   10.55074810
_cell_angle_alpha   90.00000000
_cell_angle_beta   90.00000000
_cell_angle_gamma   90.00000000
_symmetry_Int_Tables_number   1
_chemical_formula_structural   Cr5Fe2Ni47
_chemical_formula_sum   'Cr5 Fe2 Ni47'
_cell_volume   587.24559521
_cell_formula_units_Z   1
loop_
 _symmetry_equiv_pos_site_id
 _symmetry_equiv_pos_as_xyz
  1  'x, y, z'
loop_
 _atom_site_type_symbol
 _atom_site_label
 _atom_site_symmetry_multiplicity
 _atom_site_fract_x
 _atom_site_fract_y
 _atom_site_fract_z
 _atom_site_occupancy
  Ni  Ni0  1  0.00088853  0.00059991  0.00050179  1
  Ni  Ni1  1  0.16697054  0.16746827  0.16763538  1
  Ni  Ni2  1  0.00154343  0.00131476  0.33448939  1
  Ni  Ni3  1  0.99976367  0.33450449  0.00124123  1
  Ni  Ni4  1  0.16756101  0.50014590  0.16662147  1
  Ni  Ni5  1  0.00081583  0.33342639  0.33380643  1
  Ni  Ni6  1  0.00266744  0.66617303  0.99938673  1
  Ni  Ni7  1  0.16874034  0.83367206  0.16691440  1
  Ni  Ni8  1  0.00303300  0.66645553  0.33431230  1
  Ni  Ni9  1  0.33424796  0.99960921  0.00126511  1
  Ni  Ni10  1  0.50061374  0.16749311  0.16660512  1
  Ni  Ni11  1  0.33355967  0.00085688  0.33411819  1
  Ni  Ni12  1  0.33428592  0.33438176  0.00144656  1
  Ni  Ni13  1  0.49839971  0.49852198  0.16723216  1
  Ni  Ni14  1  0.33361336  0.33328442  0.33359379  1
  Ni  Ni15  1  0.33235962  0.66729830  0.00049607  1
  Ni  Ni16  1  0.49712701  0.83537828  0.16750607  1
  Ni  Ni17  1  0.33210508  0.66716465  0.33358553  1
  Ni  Ni18  1  0.66622726  0.00273121  0.99964227  1
  Ni  Ni19  1  0.83379150  0.16868033  0.16696578  1
  Ni  Ni20  1  0.66615917  0.00293842  0.33434910  1
  Ni  Ni21  1  0.66735793  0.33242667  1.00037156  1
  Ni  Ni22  1  0.83546397  0.49668442  0.16757208  1
  Ni  Ni23  1  0.66692795  0.33192941  0.33359210  1
  Cr  Cr24  1  0.66697004  0.66635382  1.00030710  1
  Cr  Cr25  1  0.83555623  0.83630329  0.16698458  1
  Cr  Cr26  1  0.66636836  0.66666975  0.33426121  1
  Ni  Ni27  1  0.16580485  0.16676157  0.49948399  1
  Ni  Ni28  1  0.99990474  0.99970693  0.66634025  1
  Cr  Cr29  1  0.16522768  0.16659650  0.83417976  1
  Ni  Ni30  1  0.16731467  0.50124258  0.49996913  1
  Ni  Ni31  1  0.99835638  0.33435068  0.66615193  1
  Ni  Ni32  1  0.16693305  0.50231312  0.83476826  1
  Ni  Ni33  1  0.16690224  0.83324804  0.50071481  1
  Ni  Ni34  1  0.00044784  0.66732247  0.66753034  1
  Ni  Ni35  1  0.16748812  0.83251087  0.83366108  1
  Ni  Ni36  1  0.50196529  0.16682733  0.50034940  1
  Ni  Ni37  1  0.33421225  0.99790377  0.66584346  1
  Fe  Fe38  1  0.50193901  0.16643623  0.83428492  1
  Ni  Ni39  1  0.49973240  0.50047825  0.50041467  1
  Cr  Cr40  1  0.33374195  0.33375663  0.66636092  1
  Ni  Ni41  1  0.50040502  0.50119507  0.83386365  1
  Ni  Ni42  1  0.50013381  0.83393004  0.50109954  1
  Ni  Ni43  1  0.33368807  0.66843490  0.66725706  1
  Ni  Ni44  1  0.49986344  0.83352661  0.83277745  1
  Ni  Ni45  1  0.83362354  0.16652537  0.50037988  1
  Ni  Ni46  1  0.66730130  1.00034234  0.66734854  1
  Ni  Ni47  1  0.83273599  0.16708138  0.83402606  1
  Fe  Fe48  1  0.83448172  0.49989879  0.50096867  1
  Ni  Ni49  1  0.66860840  0.33369938  0.66720545  1
  Ni  Ni50  1  0.83408794  0.49909899  0.83243634  1
  Ni  Ni51  1  0.83429147  0.83565620  0.50163616  1
  Ni  Ni52  1  0.66725036  0.66725091  0.66693062  1
  Ni  Ni53  1  0.83411639  0.83511498  0.83289029  1
" 