3658,Ni88Cr12_12,-204.197363375911, 176.776108522777,Ni88Cr12,"# generated using pymatgen
 data_Cr47Ni7
_symmetry_space_group_name_H-M   'P 1'
_cell_length_a   7.59097783
_cell_length_b   7.59097783
_cell_length_c   10.73526380
_cell_angle_alpha   90.00000000
_cell_angle_beta   90.00000000
_cell_angle_gamma   90.00000000
_symmetry_Int_Tables_number   1
_chemical_formula_structural   Cr47Ni7
_chemical_formula_sum   'Cr47 Ni7'
_cell_volume   618.59751019
_cell_formula_units_Z   1
loop_
 _symmetry_equiv_pos_site_id
 _symmetry_equiv_pos_as_xyz
  1  'x, y, z'
loop_
 _atom_site_type_symbol
 _atom_site_label
 _atom_site_symmetry_multiplicity
 _atom_site_fract_x
 _atom_site_fract_y
 _atom_site_fract_z
 _atom_site_occupancy
  Cr  Cr0  1  -0.00604106  -0.00796904  -0.00795718  1
  Ni  Ni1  1  0.15893471  0.15513234  0.15868181  1
  Cr  Cr2  1  -0.00611894  -0.00781053  0.32308217  1
  Cr  Cr3  1  0.99163086  0.32272449  -0.00777142  1
  Cr  Cr4  1  0.15858026  0.49166256  0.15776559  1
  Cr  Cr5  1  -0.00770845  0.32372925  0.32403409  1
  Cr  Cr6  1  -0.00540251  0.66092466  -0.00791390  1
  Ni  Ni7  1  0.16084326  0.82741819  0.15826572  1
  Cr  Cr8  1  -0.00640040  0.65936136  0.32461140  1
  Cr  Cr9  1  0.32411359  0.98900215  -0.00755831  1
  Cr  Cr10  1  0.49043248  0.15742127  0.15869022  1
  Cr  Cr11  1  0.32394104  0.99019740  0.32318690  1
  Cr  Cr12  1  0.32342870  0.32439533  -0.00706096  1
  Cr  Cr13  1  0.49163529  0.49156318  0.15769796  1
  Cr  Cr14  1  0.32349121  0.32481699  0.32527361  1
  Cr  Cr15  1  0.32527202  0.66197720  0.99172241  1
  Ni  Ni16  1  0.48879432  0.82603124  0.15824349  1
  Cr  Cr17  1  0.32524365  0.66042121  0.32332250  1
  Cr  Cr18  1  0.65762776  0.99040670  0.98963310  1
  Cr  Cr19  1  0.82490935  0.15724963  0.15733959  1
  Cr  Cr20  1  0.65761327  0.99058481  0.32520155  1
  Cr  Cr21  1  0.66042544  0.32456637  0.98956962  1
  Cr  Cr22  1  0.82536736  0.49311339  0.15762024  1
  Cr  Cr23  1  0.65966204  0.32580506  0.32663840  1
  Cr  Cr24  1  0.65559938  0.66058100  -0.00721395  1
  Cr  Cr25  1  0.82520369  0.82516072  0.15962706  1
  Cr  Cr26  1  0.65654716  0.65915781  0.32391178  1
  Cr  Cr27  1  0.15969565  0.15761132  0.49104243  1
  Cr  Cr28  1  -0.00751367  0.99180605  0.66024017  1
  Cr  Cr29  1  0.15888016  0.15753287  0.82570310  1
  Cr  Cr30  1  0.15780637  0.49340497  0.49414652  1
  Cr  Cr31  1  0.99065894  0.32506119  0.65894747  1
  Cr  Cr32  1  0.15797035  0.49378228  0.82393417  1
  Cr  Cr33  1  0.15683591  0.82452793  0.49387401  1
  Ni  Ni34  1  -0.00698082  0.66026481  0.66024449  1
  Ni  Ni35  1  0.15968207  0.82476718  0.82397556  1
  Cr  Cr36  1  0.49095191  0.15782247  0.49181829  1
  Cr  Cr37  1  0.32503958  0.98988710  0.66006461  1
  Cr  Cr38  1  0.49205590  0.15743309  0.82492501  1
  Cr  Cr39  1  0.49064537  0.49141448  0.49131808  1
  Cr  Cr40  1  0.32505811  0.32533719  0.65743018  1
  Cr  Cr41  1  0.49064631  0.49182074  0.82635850  1
  Cr  Cr42  1  0.49190675  0.82624051  0.49152578  1
  Cr  Cr43  1  0.32501340  0.66038990  0.66041471  1
  Ni  Ni44  1  0.48959412  0.82536038  0.82538428  1
  Cr  Cr45  1  0.82493561  0.15615251  0.49183940  1
  Cr  Cr46  1  0.65840415  0.99159954  0.66027927  1
  Ni  Ni47  1  0.82585933  0.15753449  0.82503134  1
  Cr  Cr48  1  0.82681793  0.49472552  0.49196597  1
  Cr  Cr49  1  0.65995250  0.32482358  0.65896886  1
  Cr  Cr50  1  0.82647951  0.49330002  0.82606492  1
  Cr  Cr51  1  0.82672520  0.82449533  0.49207710  1
  Cr  Cr52  1  0.65773371  0.65901798  0.65885521  1
  Cr  Cr53  1  0.82671843  0.82546009  0.82412537  1
" 