6843,Ni88Fe5Cr5_18,-236.968337014036, 173.396522086239,Ni88Fe5Cr5,"# generated using pymatgen
 data_Cr5Fe2Ni47
_symmetry_space_group_name_H-M   'P 1'
_cell_length_a   7.46050736
_cell_length_b   7.46050736
_cell_length_c   10.55075068
_cell_angle_alpha   90.00000000
_cell_angle_beta   90.00000000
_cell_angle_gamma   90.00000000
_symmetry_Int_Tables_number   1
_chemical_formula_structural   Cr5Fe2Ni47
_chemical_formula_sum   'Cr5 Fe2 Ni47'
_cell_volume   587.24602592
_cell_formula_units_Z   1
loop_
 _symmetry_equiv_pos_site_id
 _symmetry_equiv_pos_as_xyz
  1  'x, y, z'
loop_
 _atom_site_type_symbol
 _atom_site_label
 _atom_site_symmetry_multiplicity
 _atom_site_fract_x
 _atom_site_fract_y
 _atom_site_fract_z
 _atom_site_occupancy
  Ni  Ni0  1  0.00134674  0.00122614  0.99941786  1
  Ni  Ni1  1  0.16707955  0.16707908  0.16780618  1
  Ni  Ni2  1  0.00153110  0.00141072  0.33465257  1
  Ni  Ni3  1  0.99997485  0.33377040  1.00043823  1
  Ni  Ni4  1  0.16725588  0.50077373  0.16776363  1
  Ni  Ni5  1  1.00007741  0.33391917  0.33394217  1
  Ni  Ni6  1  0.00099230  0.66631823  0.99977103  1
  Ni  Ni7  1  0.16886955  0.83346221  0.16735663  1
  Ni  Ni8  1  0.00299742  0.66598524  0.33478539  1
  Ni  Ni9  1  0.33388249  1.00020731  0.00079961  1
  Ni  Ni10  1  0.50077425  0.16725537  0.16776368  1
  Ni  Ni11  1  0.33403157  1.00030969  0.33358097  1
  Ni  Ni12  1  0.33405893  0.33359393  1.00002952  1
  Ni  Ni13  1  0.49951974  0.49951925  0.16661069  1
  Ni  Ni14  1  0.33318601  0.33272084  0.33335235  1
  Ni  Ni15  1  0.33406029  0.66751365  0.00061474  1
  Ni  Ni16  1  0.49773041  0.83454043  0.16674215  1
  Ni  Ni17  1  0.33136787  0.66828460  0.33299937  1
  Ni  Ni18  1  0.66608565  0.00122486  0.99941758  1
  Ni  Ni19  1  0.83346098  0.16886915  0.16735661  1
  Ni  Ni20  1  0.66575253  0.00322917  0.33513908  1
  Ni  Ni21  1  0.66728119  0.33394823  0.00097621  1
  Ni  Ni22  1  0.83453966  0.49772956  0.16674185  1
  Ni  Ni23  1  0.66805194  0.33125478  0.33263784  1
  Ni  Ni24  1  0.66626245  0.66614189  0.99923274  1
  Cr  Cr25  1  0.83488495  0.83488590  0.16655128  1
  Cr  Cr26  1  0.66710286  0.66657126  0.33365013  1
  Fe  Fe27  1  0.16641274  0.16817074  0.49964677  1
  Ni  Ni28  1  0.99882695  1.00025236  0.66724371  1
  Ni  Ni29  1  0.16610806  0.16791326  0.83368032  1
  Ni  Ni30  1  0.16516061  0.50154632  0.50061488  1
  Ni  Ni31  1  0.00185774  0.33428884  0.66693430  1
  Ni  Ni32  1  0.16730345  0.50049434  0.83293618  1
  Ni  Ni33  1  0.16657798  0.83226233  0.49918844  1
  Ni  Ni34  1  1.00028612  0.66677372  0.66675773  1
  Ni  Ni35  1  0.16616401  0.83290795  0.83477052  1
  Ni  Ni36  1  0.50177803  0.16492625  0.49857659  1
  Cr  Cr37  1  0.33401405  0.00066182  0.66742406  1
  Ni  Ni38  1  0.50072550  0.16706956  0.83497486  1
  Cr  Cr39  1  0.49847300  0.50027272  0.50081011  1
  Ni  Ni40  1  0.33145134  0.33482244  0.66793341  1
  Ni  Ni41  1  0.49947470  0.50128207  0.83408697  1
  Ni  Ni42  1  0.49984824  0.83589648  0.50044194  1
  Ni  Ni43  1  0.33310483  0.66632273  0.66770127  1
  Ni  Ni44  1  0.50145767  0.83296368  0.83413133  1
  Ni  Ni45  1  0.83383460  0.16634346  0.49941906  1
  Ni  Ni46  1  0.66845633  0.99859981  0.66675703  1
  Ni  Ni47  1  0.83448067  0.16593026  0.83453984  1
  Ni  Ni48  1  0.83746859  0.49961641  0.50020884  1
  Cr  Cr49  1  0.66767604  0.33334368  0.66809206  1
  Ni  Ni50  1  0.83453677  0.50122633  0.83436459  1
  Fe  Fe51  1  0.83441575  0.83452604  0.50171020  1
  Ni  Ni52  1  0.66792402  0.66935255  0.66811763  1
  Ni  Ni53  1  0.83369319  0.83415865  0.83247684  1
" 