1294,Ni88Cr12_3,-204.271825230118, 177.212191970023,Ni88Cr12,"# generated using pymatgen
 data_Cr47Ni7
_symmetry_space_group_name_H-M   'P 1'
_cell_length_a   7.59099253
_cell_length_b   7.59099253
_cell_length_c   10.73528458
_cell_angle_alpha   90.00000000
_cell_angle_beta   90.00000000
_cell_angle_gamma   90.00000000
_symmetry_Int_Tables_number   1
_chemical_formula_structural   Cr47Ni7
_chemical_formula_sum   'Cr47 Ni7'
_cell_volume   618.60110226
_cell_formula_units_Z   1
loop_
 _symmetry_equiv_pos_site_id
 _symmetry_equiv_pos_as_xyz
  1  'x, y, z'
loop_
 _atom_site_type_symbol
 _atom_site_label
 _atom_site_symmetry_multiplicity
 _atom_site_fract_x
 _atom_site_fract_y
 _atom_site_fract_z
 _atom_site_occupancy
  Cr  Cr0  1  0.99116283  -0.00774318  0.99073870  1
  Cr  Cr1  1  0.16044994  0.15973676  0.15842656  1
  Cr  Cr2  1  -0.00546188  -0.00719188  0.32694593  1
  Cr  Cr3  1  -0.00592734  0.32575446  -0.00708764  1
  Ni  Ni4  1  0.15936356  0.49098740  0.15699539  1
  Cr  Cr5  1  -0.00717914  0.32511646  0.32516828  1
  Cr  Cr6  1  -0.00704130  0.65749816  -0.00745433  1
  Cr  Cr7  1  0.15976729  0.82446784  0.15901366  1
  Cr  Cr8  1  -0.00656689  0.65758260  0.32455725  1
  Cr  Cr9  1  0.32635984  -0.00783163  -0.00764849  1
  Cr  Cr10  1  0.49025016  0.15750862  0.15801322  1
  Ni  Ni11  1  0.32532956  0.98982803  0.32733339  1
  Ni  Ni12  1  0.32408157  0.32625451  -0.00754903  1
  Cr  Cr13  1  0.48971433  0.49180525  0.15743166  1
  Cr  Cr14  1  0.32314909  0.32400858  0.32475422  1
  Cr  Cr15  1  0.32517292  0.65697509  -0.00687203  1
  Ni  Ni16  1  0.49113304  0.82581191  0.15951110  1
  Cr  Cr17  1  0.32553639  0.66167958  0.32516645  1
  Cr  Cr18  1  0.65798264  0.99105489  -0.00769771  1
  Cr  Cr19  1  0.82480811  0.15801324  0.15862505  1
  Cr  Cr20  1  0.65543081  0.99042000  0.32419079  1
  Cr  Cr21  1  0.65746099  0.32456839  0.99135007  1
  Cr  Cr22  1  0.82653086  0.49249362  0.15960211  1
  Cr  Cr23  1  0.65953933  0.32511760  0.32553700  1
  Cr  Cr24  1  0.65737449  0.65988373  -0.00745578  1
  Cr  Cr25  1  0.82429867  0.82500200  0.15764747  1
  Cr  Cr26  1  0.65653987  0.65996807  0.32492747  1
  Ni  Ni27  1  0.15951519  0.15528421  0.49117020  1
  Cr  Cr28  1  -0.00662434  -0.00755057  0.65782085  1
  Cr  Cr29  1  0.15982596  0.15884482  0.82595039  1
  Cr  Cr30  1  0.15843734  0.49213089  0.49190477  1
  Cr  Cr31  1  -0.00781334  0.32409209  0.65742855  1
  Cr  Cr32  1  0.15981921  0.49149337  0.82678519  1
  Ni  Ni33  1  0.16132649  0.82830630  0.49122731  1
  Cr  Cr34  1  -0.00720090  0.65896610  0.65840471  1
  Cr  Cr35  1  0.15741750  0.82516973  0.82475230  1
  Cr  Cr36  1  0.48955219  0.15707588  0.49113004  1
  Cr  Cr37  1  0.32434851  0.99064564  0.65560638  1
  Cr  Cr38  1  0.49087523  0.16005838  0.82636652  1
  Cr  Cr39  1  0.49245929  0.49263883  0.49293190  1
  Cr  Cr40  1  0.32433229  0.32469718  0.65882064  1
  Cr  Cr41  1  0.49088114  0.49027900  0.82514802  1
  Ni  Ni42  1  0.48877699  0.82638365  0.49082616  1
  Cr  Cr43  1  0.32553149  0.66016710  0.65721015  1
  Cr  Cr44  1  0.49206847  0.82516914  0.82516924  1
  Cr  Cr45  1  0.82632977  0.15875780  0.49171257  1
  Cr  Cr46  1  0.65778427  0.99125240  0.65901447  1
  Cr  Cr47  1  0.82480752  0.15765667  0.82516944  1
  Cr  Cr48  1  0.82461200  0.49213790  0.49195608  1
  Cr  Cr49  1  0.65898909  0.32527858  0.65862246  1
  Cr  Cr50  1  0.82480820  0.49268927  0.82394999  1
  Cr  Cr51  1  0.82582727  0.82461264  0.49232150  1
  Cr  Cr52  1  0.65717788  0.65897765  0.65803796  1
  Cr  Cr53  1  0.82602245  0.82516213  0.82553834  1
" 