5170,Ni88Cr12_10,-204.168753132032, 176.17847750835,Ni88Cr12,"# generated using pymatgen
 data_Cr47Ni7
_symmetry_space_group_name_H-M   'P 1'
_cell_length_a   7.59340508
_cell_length_b   7.59340508
_cell_length_c   10.73869645
_cell_angle_alpha   90.00000000
_cell_angle_beta   90.00000000
_cell_angle_gamma   90.00000000
_symmetry_Int_Tables_number   1
_chemical_formula_structural   Cr47Ni7
_chemical_formula_sum   'Cr47 Ni7'
_cell_volume   619.19109756
_cell_formula_units_Z   1
loop_
 _symmetry_equiv_pos_site_id
 _symmetry_equiv_pos_as_xyz
  1  'x, y, z'
loop_
 _atom_site_type_symbol
 _atom_site_label
 _atom_site_symmetry_multiplicity
 _atom_site_fract_x
 _atom_site_fract_y
 _atom_site_fract_z
 _atom_site_occupancy
  Cr  Cr0  1  -0.00734698  -0.00724751  -0.00729800  1
  Ni  Ni1  1  0.15955309  0.15926283  0.15923090  1
  Cr  Cr2  1  0.99070835  -0.00725097  0.32556475  1
  Cr  Cr3  1  0.99101954  0.32352614  -0.00788220  1
  Cr  Cr4  1  0.15942273  0.49013308  0.16030206  1
  Cr  Cr5  1  -0.00651459  0.32307812  0.32536437  1
  Cr  Cr6  1  0.99151939  0.65876250  0.99156062  1
  Cr  Cr7  1  0.15839586  0.82607418  0.15764252  1
  Cr  Cr8  1  0.99070257  0.65921308  0.32592347  1
  Cr  Cr9  1  0.32357398  -0.00782552  -0.00788054  1
  Cr  Cr10  1  0.49045632  0.16044266  0.15857920  1
  Cr  Cr11  1  0.32410027  -0.00618749  0.32363911  1
  Cr  Cr12  1  0.32690173  0.32580329  -0.00748619  1
  Ni  Ni13  1  0.49130778  0.48973157  0.15797219  1
  Ni  Ni14  1  0.32486666  0.32515910  0.32324390  1
  Cr  Cr15  1  0.32698495  0.65706466  0.99097505  1
  Cr  Cr16  1  0.49151551  0.82453627  0.15857897  1
  Cr  Cr17  1  0.32638602  0.65586424  0.32399275  1
  Cr  Cr18  1  0.65881126  -0.00732756  0.99156079  1
  Cr  Cr19  1  0.82505026  0.15941623  0.15667537  1
  Cr  Cr20  1  0.66023295  0.99102969  0.32764766  1
  Ni  Ni21  1  0.65671778  0.32693166  0.99137980  1
  Cr  Cr22  1  0.82351217  0.49119087  0.15685382  1
  Cr  Cr23  1  0.65689116  0.32536089  0.32496263  1
  Cr  Cr24  1  0.65653258  0.65543130  -0.00808743  1
  Cr  Cr25  1  0.82512917  0.82443008  0.15816596  1
  Cr  Cr26  1  0.65794964  0.65864853  0.32501242  1
  Cr  Cr27  1  0.15844864  0.15954718  0.49084288  1
  Cr  Cr28  1  0.99010295  -0.00785181  0.65677229  1
  Cr  Cr29  1  0.15874634  0.15804727  0.82506313  1
  Cr  Cr30  1  0.15833951  0.49124408  0.49124128  1
  Cr  Cr31  1  0.99123675  0.32386389  0.65755521  1
  Cr  Cr32  1  0.15863993  0.49237679  0.82349403  1
  Cr  Cr33  1  0.15730734  0.82424606  0.49238267  1
  Cr  Cr34  1  0.99123177  0.65902698  0.65755605  1
  Cr  Cr35  1  0.15873886  0.82461490  0.82501451  1
  Cr  Cr36  1  0.49240102  0.15838878  0.49124293  1
  Cr  Cr37  1  0.32489109  0.99156500  0.65928186  1
  Cr  Cr38  1  0.49270113  0.15966495  0.82521828  1
  Cr  Cr39  1  0.49075611  0.49065705  0.49066006  1
  Cr  Cr40  1  0.32545661  0.32615329  0.65908583  1
  Ni  Ni41  1  0.49246879  0.49088975  0.82617481  1
  Cr  Cr42  1  0.49294930  0.82599411  0.49179888  1
  Cr  Cr43  1  0.32604401  0.65732169  0.66007084  1
  Cr  Cr44  1  0.49098780  0.82472021  0.82466210  1
  Ni  Ni45  1  0.82506230  0.15604154  0.49197729  1
  Cr  Cr46  1  0.66004812  0.99156057  0.65583090  1
  Cr  Cr47  1  0.82359267  0.15976149  0.82598434  1
  Cr  Cr48  1  0.82594418  0.49179433  0.49179871  1
  Cr  Cr49  1  0.65834690  0.32501664  0.65909824  1
  Cr  Cr50  1  0.82369483  0.49066154  0.82638821  1
  Ni  Ni51  1  0.82511464  0.82707374  0.49177727  1
  Cr  Cr52  1  0.65776358  0.65846236  0.65811414  1
  Cr  Cr53  1  0.82531327  0.82461430  0.82542791  1
" 