2177,Ni88Fe7Cr3_9,-238.957838473413, 182.297078279802,Ni88Fe7Cr3,"# generated using pymatgen
 data_CrFeNi16
_symmetry_space_group_name_H-M   'P 1'
_cell_length_a   7.45358544
_cell_length_b   7.45358544
_cell_length_c   10.54096162
_cell_angle_alpha   90.00000000
_cell_angle_beta   90.00000000
_cell_angle_gamma   90.00000000
_symmetry_Int_Tables_number   1
_chemical_formula_structural   CrFeNi16
_chemical_formula_sum   'Cr3 Fe3 Ni48'
_cell_volume   585.61298834
_cell_formula_units_Z   3
loop_
 _symmetry_equiv_pos_site_id
 _symmetry_equiv_pos_as_xyz
  1  'x, y, z'
loop_
 _atom_site_type_symbol
 _atom_site_label
 _atom_site_symmetry_multiplicity
 _atom_site_fract_x
 _atom_site_fract_y
 _atom_site_fract_z
 _atom_site_occupancy
  Ni  Ni0  1  1.00035320  0.00248533  1.00089163  1
  Ni  Ni1  1  0.16748993  0.16721130  0.16847158  1
  Ni  Ni2  1  1.00017550  1.00085640  0.33429672  1
  Ni  Ni3  1  0.00181710  0.33169214  0.00109519  1
  Ni  Ni4  1  0.16851254  0.50001973  0.16802599  1
  Ni  Ni5  1  1.00057389  0.33261561  0.33275848  1
  Cr  Cr6  1  0.00115563  0.66808663  0.00102817  1
  Ni  Ni7  1  0.16853526  0.83550392  0.16866729  1
  Ni  Ni8  1  1.00066750  0.66909781  0.33308364  1
  Fe  Fe9  1  0.33407730  0.00141684  1.00030637  1
  Ni  Ni10  1  0.50107920  0.16725576  0.16726133  1
  Fe  Fe11  1  0.33514368  1.00088393  0.33486413  1
  Ni  Ni12  1  0.33333707  0.33371796  0.00168346  1
  Ni  Ni13  1  0.50071979  0.50069688  0.16812770  1
  Ni  Ni14  1  0.33546762  0.33387971  0.33354152  1
  Ni  Ni15  1  0.33489165  0.66780376  0.00168756  1
  Ni  Ni16  1  0.50077409  0.83478501  0.16739265  1
  Ni  Ni17  1  0.33519631  0.66765849  0.33317280  1
  Ni  Ni18  1  0.66817518  0.00093383  1.00068140  1
  Ni  Ni19  1  0.83421894  0.16717481  0.16736461  1
  Ni  Ni20  1  0.66815545  0.00109198  0.33425039  1
  Ni  Ni21  1  0.66760940  0.33251694  0.00216287  1
  Ni  Ni22  1  0.83340726  0.49958959  0.16888447  1
  Ni  Ni23  1  0.66662779  0.33319753  0.33406789  1
  Ni  Ni24  1  0.66624929  0.66924975  0.00218320  1
  Ni  Ni25  1  0.83352274  0.83588474  0.16879301  1
  Ni  Ni26  1  0.66677424  0.66840391  0.33421739  1
  Fe  Fe27  1  0.16693117  0.16647306  0.50100257  1
  Ni  Ni28  1  1.00070885  1.00083922  0.66752864  1
  Ni  Ni29  1  0.16729676  0.16736471  0.83333615  1
  Cr  Cr30  1  0.16698073  0.50186806  0.50154231  1
  Ni  Ni31  1  1.00010799  0.33281664  0.66897077  1
  Ni  Ni32  1  0.16706158  0.49998233  0.83349089  1
  Ni  Ni33  1  0.16743492  0.83539211  0.50087688  1
  Ni  Ni34  1  1.00025263  0.66896485  0.66861104  1
  Ni  Ni35  1  0.16834198  0.83533247  0.83312877  1
  Ni  Ni36  1  0.50190754  0.16735419  0.50123630  1
  Ni  Ni37  1  0.33447902  0.00103730  0.66741955  1
  Ni  Ni38  1  0.50119987  0.16591396  0.83422223  1
  Ni  Ni39  1  0.50190224  0.50047809  0.50079190  1
  Ni  Ni40  1  0.33451356  0.33218930  0.66747045  1
  Cr  Cr41  1  0.50139723  0.50076045  0.83349649  1
  Ni  Ni42  1  0.50061898  0.83479856  0.50123927  1
  Ni  Ni43  1  0.33429373  0.66933062  0.66785759  1
  Ni  Ni44  1  0.50085417  0.83617047  0.83405950  1
  Ni  Ni45  1  0.83358862  0.16731350  0.50088533  1
  Ni  Ni46  1  0.66748483  0.00109787  0.66776894  1
  Ni  Ni47  1  0.83416328  0.16732134  0.83447662  1
  Ni  Ni48  1  0.83319196  0.50025886  0.50076050  1
  Ni  Ni49  1  0.66798124  0.33254279  0.66644174  1
  Ni  Ni50  1  0.83500606  0.49956705  0.83305359  1
  Ni  Ni51  1  0.83473356  0.83502586  0.50088779  1
  Ni  Ni52  1  0.66818303  0.66908523  0.66625072  1
  Ni  Ni53  1  0.83344248  0.83577641  0.83299762  1
" 