5210,Ni88Cr12_18,-204.25393436455, 177.180737270017,Ni88Cr12,"# generated using pymatgen
 data_Cr47Ni7
_symmetry_space_group_name_H-M   'P 1'
_cell_length_a   7.58868867
_cell_length_b   7.58868867
_cell_length_c   10.73202644
_cell_angle_alpha   90.00000000
_cell_angle_beta   90.00000000
_cell_angle_gamma   90.00000000
_symmetry_Int_Tables_number   1
_chemical_formula_structural   Cr47Ni7
_chemical_formula_sum   'Cr47 Ni7'
_cell_volume   618.03803944
_cell_formula_units_Z   1
loop_
 _symmetry_equiv_pos_site_id
 _symmetry_equiv_pos_as_xyz
  1  'x, y, z'
loop_
 _atom_site_type_symbol
 _atom_site_label
 _atom_site_symmetry_multiplicity
 _atom_site_fract_x
 _atom_site_fract_y
 _atom_site_fract_z
 _atom_site_occupancy
  Cr  Cr0  1  0.99187382  0.99197369  0.99142399  1
  Cr  Cr1  1  0.15928972  0.15831988  0.15846207  1
  Cr  Cr2  1  0.99139936  0.99077330  0.32583379  1
  Cr  Cr3  1  -0.00520156  0.32610771  0.99156860  1
  Ni  Ni4  1  0.15994103  0.49039644  0.15740562  1
  Cr  Cr5  1  -0.00478444  0.32754969  0.32645246  1
  Cr  Cr6  1  -0.00673325  0.65771771  -0.00718834  1
  Cr  Cr7  1  0.15869216  0.82438279  0.15780993  1
  Cr  Cr8  1  -0.00596121  0.65749885  0.32565450  1
  Cr  Cr9  1  0.32586398  -0.00685441  -0.00801035  1
  Cr  Cr10  1  0.49120513  0.15983243  0.15829384  1
  Cr  Cr11  1  0.32690712  0.99063987  0.32633290  1
  Ni  Ni12  1  0.32360287  0.32661294  -0.00680004  1
  Cr  Cr13  1  0.49161653  0.49139453  0.15730678  1
  Cr  Cr14  1  0.32323887  0.32753415  0.32418074  1
  Cr  Cr15  1  0.32439705  0.65679451  -0.00679451  1
  Cr  Cr16  1  0.49141043  0.82463676  0.15925298  1
  Cr  Cr17  1  0.32446847  0.65762161  0.32592307  1
  Cr  Cr18  1  0.65817477  0.99152692  0.99175635  1
  Cr  Cr19  1  0.82552748  0.15917030  0.15982768  1
  Cr  Cr20  1  0.65769652  0.99014913  0.32711339  1
  Cr  Cr21  1  0.65680777  0.32478843  0.99037879  1
  Cr  Cr22  1  0.82530896  0.49206679  0.15884028  1
  Cr  Cr23  1  0.65738054  0.32511098  0.32612653  1
  Cr  Cr24  1  0.65808651  0.65968694  0.99146718  1
  Cr  Cr25  1  0.82600536  0.82471436  0.15885191  1
  Cr  Cr26  1  0.65743077  0.66089033  0.32729160  1
  Cr  Cr27  1  0.15959899  0.15791739  0.49313126  1
  Cr  Cr28  1  0.99145432  0.99141974  0.65886540  1
  Cr  Cr29  1  0.16049454  0.15707489  0.82427124  1
  Ni  Ni30  1  0.16058923  0.49439678  0.49317065  1
  Cr  Cr31  1  -0.00678072  0.32641665  0.65755310  1
  Cr  Cr32  1  0.16046695  0.49347573  0.82432489  1
  Cr  Cr33  1  0.15982735  0.82520900  0.49411616  1
  Cr  Cr34  1  -0.00684103  0.65819160  0.65749625  1
  Cr  Cr35  1  0.16052553  0.82541638  0.82345890  1
  Cr  Cr36  1  0.49046104  0.15766647  0.49227176  1
  Ni  Ni37  1  0.32683862  0.98861425  0.65735826  1
  Cr  Cr38  1  0.48954052  0.15893421  0.82521202  1
  Cr  Cr39  1  0.49082146  0.49391874  0.49315227  1
  Cr  Cr40  1  0.32430688  0.32651502  0.65806524  1
  Cr  Cr41  1  0.49065642  0.49279129  0.82525659  1
  Ni  Ni42  1  0.49152725  0.82489118  0.49475915  1
  Ni  Ni43  1  0.32536928  0.66072908  0.65584916  1
  Cr  Cr44  1  0.48920101  0.82425081  0.82331775  1
  Cr  Cr45  1  0.82574129  0.15852701  0.49103953  1
  Cr  Cr46  1  0.65754474  0.99098879  0.65771004  1
  Cr  Cr47  1  0.82591524  0.15934936  0.82520276  1
  Cr  Cr48  1  0.82570955  0.49302146  0.49204611  1
  Cr  Cr49  1  0.65852052  0.32478970  0.65929035  1
  Cr  Cr50  1  0.82462428  0.49229851  0.82522032  1
  Ni  Ni51  1  0.82347243  0.82485289  0.49200131  1
  Cr  Cr52  1  0.65749608  0.66020569  0.65798605  1
  Cr  Cr53  1  0.82648347  0.82431074  0.82632169  1
" 