8675,Ni88Fe12_9,-229.072569211265, 160.920060829,Ni88Fe12,"# generated using pymatgen
 data_Fe47Ni7
_symmetry_space_group_name_H-M   'P 1'
_cell_length_a   7.40565722
_cell_length_b   7.40565722
_cell_length_c   10.47318087
_cell_angle_alpha   90.00000000
_cell_angle_beta   90.00000000
_cell_angle_gamma   90.00000000
_symmetry_Int_Tables_number   1
_chemical_formula_structural   Fe47Ni7
_chemical_formula_sum   'Fe47 Ni7'
_cell_volume   574.38860584
_cell_formula_units_Z   1
loop_
 _symmetry_equiv_pos_site_id
 _symmetry_equiv_pos_as_xyz
  1  'x, y, z'
loop_
 _atom_site_type_symbol
 _atom_site_label
 _atom_site_symmetry_multiplicity
 _atom_site_fract_x
 _atom_site_fract_y
 _atom_site_fract_z
 _atom_site_occupancy
  Fe  Fe0  1  1.00397033  0.00440187  0.00490484  1
  Fe  Fe1  1  0.16970271  0.17031781  0.17054876  1
  Ni  Ni2  1  1.00355737  1.00378565  0.33706283  1
  Ni  Ni3  1  1.00393308  0.33737251  0.00445558  1
  Fe  Fe4  1  0.17005709  0.50446471  0.17029109  1
  Fe  Fe5  1  1.00303962  0.33637237  0.33689519  1
  Fe  Fe6  1  1.00379249  0.67046491  0.00441139  1
  Fe  Fe7  1  0.17011680  0.83764944  0.17166424  1
  Fe  Fe8  1  1.00289992  0.67194827  0.33748044  1
  Fe  Fe9  1  0.33689639  0.00489759  1.00397029  1
  Fe  Fe10  1  0.50525131  0.17022615  0.17133919  1
  Fe  Fe11  1  0.33779293  0.00463442  0.33774215  1
  Fe  Fe12  1  0.33686346  0.33738763  0.00415418  1
  Fe  Fe13  1  0.50489506  0.50455599  0.17108143  1
  Fe  Fe14  1  0.33817455  0.33622997  0.33738321  1
  Fe  Fe15  1  0.33689610  0.67014931  1.00347584  1
  Fe  Fe16  1  0.50493620  0.83765634  0.17080895  1
  Fe  Fe17  1  0.33779415  0.67156839  0.33841235  1
  Fe  Fe18  1  0.67156875  0.00437259  0.00481579  1
  Fe  Fe19  1  0.83748025  0.17028200  0.17134083  1
  Ni  Ni20  1  0.67176279  0.00476795  0.33747199  1
  Fe  Fe21  1  0.67124832  0.33756537  0.00455317  1
  Fe  Fe22  1  0.83747919  0.50414292  0.17063766  1
  Ni  Ni23  1  0.67077396  0.33689255  0.33696208  1
  Fe  Fe24  1  0.67174632  0.67049713  0.00432295  1
  Ni  Ni25  1  0.83757957  0.83770220  0.17113336  1
  Fe  Fe26  1  0.67174248  0.67156679  0.33703799  1
  Fe  Fe27  1  0.17045089  0.17001946  0.50396352  1
  Fe  Fe28  1  0.00507139  1.00321133  0.66996287  1
  Fe  Fe29  1  0.17045107  0.17116065  0.83792207  1
  Fe  Fe30  1  0.17116268  0.50502716  0.50458124  1
  Fe  Fe31  1  0.00472516  0.33814371  0.67165749  1
  Fe  Fe32  1  0.17080663  0.50405678  0.83757161  1
  Ni  Ni33  1  0.17071159  0.83757763  0.50394121  1
  Fe  Fe34  1  0.00493399  0.67108207  0.67054304  1
  Fe  Fe35  1  0.17124439  0.83721746  0.83645710  1
  Fe  Fe36  1  0.50418626  0.17031830  0.50361165  1
  Fe  Fe37  1  0.33721084  1.00335343  0.67072026  1
  Fe  Fe38  1  0.50423912  0.17072250  0.83747818  1
  Fe  Fe39  1  0.50347908  0.50472848  0.50422433  1
  Fe  Fe40  1  0.33756522  0.33800327  0.67089725  1
  Fe  Fe41  1  0.50388351  0.50449520  0.83712753  1
  Fe  Fe42  1  0.50344147  0.83738985  0.50440959  1
  Ni  Ni43  1  0.33736613  0.67092145  0.67131807  1
  Fe  Fe44  1  0.50388310  0.83721635  0.83722230  1
  Fe  Fe45  1  0.83779781  0.17006084  0.50344047  1
  Fe  Fe46  1  0.67014937  1.00356239  0.67049141  1
  Fe  Fe47  1  0.83774316  0.17116005  0.83764832  1
  Fe  Fe48  1  0.83779253  0.50427782  0.50405120  1
  Fe  Fe49  1  0.67014382  0.33814453  0.67021927  1
  Fe  Fe50  1  0.83774346  0.50370159  0.83774394  1
  Fe  Fe51  1  0.83809139  0.83809543  0.50303356  1
  Fe  Fe52  1  0.67028987  0.67072789  0.67107505  1
  Fe  Fe53  1  0.83730575  0.83757241  0.83815058  1
" 