3399,Ni88Fe7Cr3_10,-238.924353654471, 179.832181868622,Ni88Fe7Cr3,"# generated using pymatgen
 data_CrFeNi16
_symmetry_space_group_name_H-M   'P 1'
_cell_length_a   7.45556277
_cell_length_b   7.45556277
_cell_length_c   10.54375799
_cell_angle_alpha   90.00000000
_cell_angle_beta   90.00000000
_cell_angle_gamma   90.00000000
_symmetry_Int_Tables_number   1
_chemical_formula_structural   CrFeNi16
_chemical_formula_sum   'Cr3 Fe3 Ni48'
_cell_volume   586.07917651
_cell_formula_units_Z   3
loop_
 _symmetry_equiv_pos_site_id
 _symmetry_equiv_pos_as_xyz
  1  'x, y, z'
loop_
 _atom_site_type_symbol
 _atom_site_label
 _atom_site_symmetry_multiplicity
 _atom_site_fract_x
 _atom_site_fract_y
 _atom_site_fract_z
 _atom_site_occupancy
  Ni  Ni0  1  0.00091991  1.00063271  1.00051766  1
  Fe  Fe1  1  0.16632160  0.16692559  0.16710343  1
  Ni  Ni2  1  1.00003664  0.99974889  0.33347380  1
  Ni  Ni3  1  1.00071891  0.33389523  1.00028100  1
  Ni  Ni4  1  0.16722543  0.50072128  0.16770051  1
  Ni  Ni5  1  0.99983711  0.33477849  0.33371147  1
  Ni  Ni6  1  0.00080258  0.66778029  1.00039580  1
  Ni  Ni7  1  0.16838982  0.83366757  0.16770009  1
  Ni  Ni8  1  0.00106095  0.66777992  0.33474069  1
  Ni  Ni9  1  0.33381599  1.00055283  1.00040413  1
  Fe  Fe10  1  0.50130684  0.16683795  0.16750067  1
  Ni  Ni11  1  0.33470031  0.99967170  0.33358697  1
  Ni  Ni12  1  0.33393650  0.33389588  1.00012884  1
  Fe  Fe13  1  0.50128802  0.50189295  0.16743212  1
  Ni  Ni14  1  0.33482123  0.33477829  0.33386185  1
  Ni  Ni15  1  0.33393502  0.66786164  1.00028070  1
  Ni  Ni16  1  0.50023627  0.83464587  0.16749579  1
  Ni  Ni17  1  0.33367670  0.66786104  0.33485559  1
  Ni  Ni18  1  0.66757272  1.00063721  1.00007576  1
  Ni  Ni19  1  0.83388419  0.16791008  0.16770034  1
  Ni  Ni20  1  0.66757194  0.00089635  0.33505933  1
  Ni  Ni21  1  0.66765548  0.33401499  1.00040683  1
  Ni  Ni22  1  0.83486075  0.49976101  0.16749550  1
  Ni  Ni23  1  0.66765447  0.33375550  0.33472898  1
  Ni  Ni24  1  0.66757528  0.66766042  1.00052089  1
  Ni  Ni25  1  0.83368451  0.83463996  0.16749581  1
  Ni  Ni26  1  0.66757502  0.66766044  0.33435379  1
  Cr  Cr27  1  0.16737892  0.16941625  0.49873559  1
  Cr  Cr28  1  0.99842686  0.99986825  0.66833766  1
  Ni  Ni29  1  0.16764240  0.16944505  0.83670216  1
  Ni  Ni30  1  0.16764299  0.50244461  0.50111258  1
  Ni  Ni31  1  0.99974558  0.33700774  0.66832050  1
  Ni  Ni32  1  0.16764299  0.50030449  0.83349759  1
  Ni  Ni33  1  0.16791112  0.83042138  0.49855361  1
  Ni  Ni34  1  0.00088708  0.66541493  0.66717399  1
  Ni  Ni35  1  0.16791094  0.83256043  0.83605618  1
  Ni  Ni36  1  0.50356411  0.16802914  0.49972678  1
  Cr  Cr37  1  0.33644775  0.99987298  0.66833692  1
  Ni  Ni38  1  0.50142637  0.16802897  0.83488367  1
  Ni  Ni39  1  0.50041491  0.50070671  0.50034278  1
  Ni  Ni40  1  0.33513571  0.33700717  0.66831992  1
  Ni  Ni41  1  0.50021561  0.50050761  0.83447186  1
  Ni  Ni42  1  0.50156037  0.83357480  0.49996932  1
  Ni  Ni43  1  0.33398926  0.66540933  0.66717405  1
  Ni  Ni44  1  0.50136080  0.83377471  0.83484501  1
  Ni  Ni45  1  0.83110140  0.16829731  0.49996880  1
  Ni  Ni46  1  0.66743456  0.00103390  0.66717392  1
  Ni  Ni47  1  0.83324154  0.16829697  0.83464177  1
  Ni  Ni48  1  0.83425294  0.50043867  0.50058452  1
  Ni  Ni49  1  0.66742890  0.33412913  0.66717403  1
  Ni  Ni50  1  0.83445214  0.50023979  0.83423012  1
  Ni  Ni51  1  0.83283913  0.83357465  0.49943542  1
  Ni  Ni52  1  0.66743436  0.66714809  0.66743614  1
  Ni  Ni53  1  0.83303889  0.83377465  0.83537859  1
" 