1134,Ni88Fe7Cr3_11,-238.77518275014, 181.402118090194,Ni88Fe7Cr3,"# generated using pymatgen
 data_CrFeNi16
_symmetry_space_group_name_H-M   'P 1'
_cell_length_a   7.45286386
_cell_length_b   7.45286386
_cell_length_c   10.53994115
_cell_angle_alpha   90.00000000
_cell_angle_beta   90.00000000
_cell_angle_gamma   90.00000000
_symmetry_Int_Tables_number   1
_chemical_formula_structural   CrFeNi16
_chemical_formula_sum   'Cr3 Fe3 Ni48'
_cell_volume   585.44292545
_cell_formula_units_Z   3
loop_
 _symmetry_equiv_pos_site_id
 _symmetry_equiv_pos_as_xyz
  1  'x, y, z'
loop_
 _atom_site_type_symbol
 _atom_site_label
 _atom_site_symmetry_multiplicity
 _atom_site_fract_x
 _atom_site_fract_y
 _atom_site_fract_z
 _atom_site_occupancy
  Ni  Ni0  1  0.00119795  0.00102998  0.00120766  1
  Ni  Ni1  1  0.16654205  0.16697928  0.16728753  1
  Ni  Ni2  1  0.00198106  0.00182418  0.33318198  1
  Ni  Ni3  1  0.00106744  0.33397534  0.00096156  1
  Ni  Ni4  1  0.16774700  0.50157918  0.16728941  1
  Ni  Ni5  1  0.00123496  0.33396597  0.33456458  1
  Ni  Ni6  1  0.00149232  0.66787225  1.00058949  1
  Ni  Ni7  1  0.16678093  0.83423004  0.16789868  1
  Ni  Ni8  1  0.00231382  0.66701846  0.33374142  1
  Ni  Ni9  1  0.33291360  0.99974101  0.99938738  1
  Cr  Cr10  1  0.50047388  0.16875978  0.16698454  1
  Ni  Ni11  1  0.33294916  0.99987480  0.33600876  1
  Ni  Ni12  1  0.33318109  0.33537528  0.99949019  1
  Ni  Ni13  1  0.50115985  0.50203070  0.16728968  1
  Ni  Ni14  1  0.33323293  0.33533815  0.33540075  1
  Ni  Ni15  1  0.33408448  0.66771424  0.00123540  1
  Fe  Fe16  1  0.50088576  0.83316523  0.16749439  1
  Ni  Ni17  1  0.33414888  0.66759362  0.33417844  1
  Ni  Ni18  1  0.66877018  1.00016030  0.99984245  1
  Ni  Ni19  1  0.83525519  0.16723312  0.16788803  1
  Ni  Ni20  1  0.66787210  1.00089507  0.33444466  1
  Ni  Ni21  1  0.66857466  0.33499082  0.99994672  1
  Ni  Ni22  1  0.83395709  0.50159515  0.16789501  1
  Ni  Ni23  1  0.66835072  0.33500381  0.33554763  1
  Ni  Ni24  1  0.66726799  0.66763009  1.00062174  1
  Ni  Ni25  1  0.83507997  0.83396678  0.16672798  1
  Ni  Ni26  1  0.66638332  0.66687137  0.33367344  1
  Ni  Ni27  1  0.16777764  0.16741580  0.50092513  1
  Ni  Ni28  1  0.00142022  0.00216702  0.66853922  1
  Ni  Ni29  1  0.16739430  0.16717920  0.83472829  1
  Ni  Ni30  1  0.16761538  0.50135697  0.50106724  1
  Ni  Ni31  1  0.00299724  0.33362222  0.66736712  1
  Ni  Ni32  1  0.16731804  0.50163731  0.83450172  1
  Ni  Ni33  1  0.16911584  0.83408031  0.50096128  1
  Ni  Ni34  1  0.00283062  0.66705620  0.66859100  1
  Ni  Ni35  1  0.16808310  0.83400598  0.83411372  1
  Ni  Ni36  1  0.49998181  0.16659283  0.50063207  1
  Fe  Fe37  1  0.33395670  1.00058134  0.66774454  1
  Ni  Ni38  1  0.50040330  0.16639692  0.83498400  1
  Ni  Ni39  1  0.49995727  0.50194383  0.50009643  1
  Ni  Ni40  1  0.33251920  0.33509939  0.66793230  1
  Ni  Ni41  1  0.50029187  0.50218635  0.83543412  1
  Ni  Ni42  1  0.49952375  0.83427148  0.50025289  1
  Ni  Ni43  1  0.33438474  0.66720132  0.66735061  1
  Ni  Ni44  1  0.50041303  0.83420034  0.83482867  1
  Ni  Ni45  1  0.83505352  0.16785704  0.49940535  1
  Ni  Ni46  1  0.66721885  1.00024284  0.66852007  1
  Ni  Ni47  1  0.83500403  0.16711006  0.83556756  1
  Ni  Ni48  1  0.83528601  0.50067373  0.49993787  1
  Cr  Cr49  1  0.66717597  0.33400192  0.66706146  1
  Ni  Ni50  1  0.83523851  0.50168441  0.83500649  1
  Cr  Cr51  1  0.83514841  0.83342407  0.50185872  1
  Ni  Ni52  1  0.66572372  0.66888256  0.66857667  1
  Fe  Fe53  1  0.83465296  0.83409903  0.83462036  1
" 