4808,Ni88Fe7Cr3_5,-238.865851278123, 181.849310946911,Ni88Fe7Cr3,"# generated using pymatgen
 data_CrFeNi16
_symmetry_space_group_name_H-M   'P 1'
_cell_length_a   7.45351520
_cell_length_b   7.45351520
_cell_length_c   10.54086229
_cell_angle_alpha   90.00000000
_cell_angle_beta   90.00000000
_cell_angle_gamma   90.00000000
_symmetry_Int_Tables_number   1
_chemical_formula_structural   CrFeNi16
_chemical_formula_sum   'Cr3 Fe3 Ni48'
_cell_volume   585.59643338
_cell_formula_units_Z   3
loop_
 _symmetry_equiv_pos_site_id
 _symmetry_equiv_pos_as_xyz
  1  'x, y, z'
loop_
 _atom_site_type_symbol
 _atom_site_label
 _atom_site_symmetry_multiplicity
 _atom_site_fract_x
 _atom_site_fract_y
 _atom_site_fract_z
 _atom_site_occupancy
  Ni  Ni0  1  0.00217241  1.00046971  1.00027979  1
  Ni  Ni1  1  0.16882377  0.16796310  0.16658124  1
  Cr  Cr2  1  0.00201725  1.00046741  0.33557007  1
  Ni  Ni3  1  0.00219340  0.33408807  0.00105743  1
  Ni  Ni4  1  0.16819849  0.50152156  0.16753365  1
  Ni  Ni5  1  1.00090031  0.33591727  0.33396748  1
  Ni  Ni6  1  1.00049112  0.66808694  0.00109527  1
  Ni  Ni7  1  0.16768879  0.83323425  0.16683338  1
  Ni  Ni8  1  1.00075994  0.66631214  0.33418009  1
  Ni  Ni9  1  0.33334217  1.00090764  0.00115233  1
  Ni  Ni10  1  0.49988276  0.16737506  0.16891029  1
  Ni  Ni11  1  0.33570574  0.00090971  0.33447530  1
  Ni  Ni12  1  0.33335891  0.33375567  1.00086595  1
  Ni  Ni13  1  0.49975810  0.50116748  0.16824970  1
  Ni  Ni14  1  0.33358660  0.33311566  0.33290814  1
  Ni  Ni15  1  0.33462359  0.66801999  1.00019212  1
  Fe  Fe16  1  0.50033228  0.83383693  0.16769926  1
  Ni  Ni17  1  0.33339304  0.66875233  0.33381807  1
  Fe  Fe18  1  0.66762033  1.00002330  1.00060813  1
  Ni  Ni19  1  0.83399502  0.16692710  0.16763282  1
  Ni  Ni20  1  0.66577744  1.00068585  0.33382422  1
  Cr  Cr21  1  0.66712541  0.33597854  0.99986561  1
  Ni  Ni22  1  0.83477569  0.50224708  0.16892731  1
  Ni  Ni23  1  0.66823439  0.33368584  0.33397820  1
  Ni  Ni24  1  0.66757207  0.66842350  0.00094896  1
  Ni  Ni25  1  0.83405879  0.83349250  0.16652831  1
  Ni  Ni26  1  0.66849335  0.66826420  0.33321149  1
  Ni  Ni27  1  0.16878695  0.16861707  0.50152346  1
  Ni  Ni28  1  0.00166911  1.00035110  0.66776557  1
  Ni  Ni29  1  0.16765757  0.16730621  0.83476171  1
  Ni  Ni30  1  0.16599795  0.50084533  0.50029868  1
  Ni  Ni31  1  0.00118503  0.33459540  0.66769022  1
  Ni  Ni32  1  0.16761106  0.50100590  0.83479508  1
  Ni  Ni33  1  0.16838666  0.83322665  0.50192466  1
  Ni  Ni34  1  0.99993848  0.66782228  0.66744041  1
  Ni  Ni35  1  0.16732510  0.83440573  0.83405953  1
  Ni  Ni36  1  0.50101288  0.16588367  0.50073263  1
  Ni  Ni37  1  0.33419011  0.00136929  0.66708528  1
  Ni  Ni38  1  0.49972812  0.16659645  0.83305315  1
  Cr  Cr39  1  0.50100627  0.50029240  0.50115560  1
  Ni  Ni40  1  0.33348734  0.33214794  0.66909257  1
  Ni  Ni41  1  0.49981863  0.50182257  0.83333657  1
  Ni  Ni42  1  0.50129408  0.83609698  0.50000550  1
  Fe  Fe43  1  0.33329477  0.66856200  0.66841537  1
  Ni  Ni44  1  0.50096604  0.83434309  0.83486059  1
  Ni  Ni45  1  0.83292885  0.16811207  0.50181478  1
  Ni  Ni46  1  0.66684101  1.00025738  0.66805395  1
  Ni  Ni47  1  0.83537739  0.16622452  0.83327257  1
  Ni  Ni48  1  0.83573916  0.50118163  0.50035397  1
  Ni  Ni49  1  0.66805472  0.33396396  0.66829470  1
  Ni  Ni50  1  0.83521140  0.50211919  0.83337050  1
  Ni  Ni51  1  0.83308401  0.83346873  0.50182596  1
  Ni  Ni52  1  0.66912059  0.66845053  0.66866611  1
  Ni  Ni53  1  0.83442602  0.83432355  0.83447679  1
" 