3125,Ni88Fe7Cr4_13,-239.153021916133, 185.405453592717,Ni88Fe7Cr4,"# generated using pymatgen
 data_Cr3Fe4Ni47
_symmetry_space_group_name_H-M   'P 1'
_cell_length_a   7.44888866
_cell_length_b   7.44888866
_cell_length_c   10.53431937
_cell_angle_alpha   90.00000000
_cell_angle_beta   90.00000000
_cell_angle_gamma   90.00000000
_symmetry_Int_Tables_number   1
_chemical_formula_structural   Cr3Fe4Ni47
_chemical_formula_sum   'Cr3 Fe4 Ni47'
_cell_volume   584.50663590
_cell_formula_units_Z   1
loop_
 _symmetry_equiv_pos_site_id
 _symmetry_equiv_pos_as_xyz
  1  'x, y, z'
loop_
 _atom_site_type_symbol
 _atom_site_label
 _atom_site_symmetry_multiplicity
 _atom_site_fract_x
 _atom_site_fract_y
 _atom_site_fract_z
 _atom_site_occupancy
  Fe  Fe0  1  1.00055893  1.00029588  1.00066296  1
  Fe  Fe1  1  0.16694190  0.16589446  0.16884688  1
  Ni  Ni2  1  1.00120295  1.00078937  0.33371292  1
  Ni  Ni3  1  0.99845804  0.33432495  0.99948659  1
  Cr  Cr4  1  0.16700685  0.50344506  0.16931682  1
  Ni  Ni5  1  0.00153956  0.33361561  0.33609494  1
  Ni  Ni6  1  1.00018735  0.66836450  1.00038203  1
  Ni  Ni7  1  0.16797726  0.83557229  0.16762846  1
  Ni  Ni8  1  1.00009509  0.66906858  0.33562107  1
  Ni  Ni9  1  0.33478919  0.99960337  1.00099278  1
  Ni  Ni10  1  0.50224611  0.16547381  0.16813702  1
  Ni  Ni11  1  0.33434504  1.00105871  0.33454312  1
  Cr  Cr12  1  0.33562018  0.33322889  1.00109056  1
  Ni  Ni13  1  0.50233030  0.50292887  0.16775119  1
  Ni  Ni14  1  0.33380280  0.33325826  0.33541532  1
  Ni  Ni15  1  0.33469436  0.67091382  0.99978747  1
  Ni  Ni16  1  0.50086784  0.83525396  0.16731604  1
  Ni  Ni17  1  0.33515787  0.66921981  0.33542430  1
  Ni  Ni18  1  0.66740631  0.00133696  1.00095552  1
  Ni  Ni19  1  0.83444717  0.16656988  0.16641277  1
  Ni  Ni20  1  0.66806750  0.99956115  0.33512951  1
  Ni  Ni21  1  0.66997348  0.33408586  0.00126228  1
  Ni  Ni22  1  0.83439913  0.50171344  0.16656132  1
  Cr  Cr23  1  0.66785696  0.33471432  0.33401659  1
  Ni  Ni24  1  0.66896405  0.66822762  0.00159935  1
  Ni  Ni25  1  0.83472063  0.83520711  0.16818646  1
  Ni  Ni26  1  0.66846200  0.66982061  0.33411128  1
  Ni  Ni27  1  0.16807706  0.16746913  0.50044577  1
  Ni  Ni28  1  0.00150817  1.00018649  0.66845374  1
  Ni  Ni29  1  0.16758241  0.16645738  0.83458809  1
  Ni  Ni30  1  0.16834680  0.50156019  0.50162088  1
  Fe  Fe31  1  0.00127811  0.33432196  0.66815954  1
  Ni  Ni32  1  0.16745475  0.50265755  0.83333354  1
  Ni  Ni33  1  0.16786000  0.83455698  0.50100148  1
  Ni  Ni34  1  1.00104895  0.66894164  0.66772346  1
  Ni  Ni35  1  0.16744452  0.83434888  0.83488997  1
  Ni  Ni36  1  0.50042802  0.16679256  0.50211154  1
  Ni  Ni37  1  0.33349839  0.00183110  0.66803494  1
  Ni  Ni38  1  0.50237196  0.16741335  0.83363924  1
  Ni  Ni39  1  0.49987994  0.50204409  0.50150601  1
  Ni  Ni40  1  0.33496872  0.33415451  0.66764402  1
  Ni  Ni41  1  0.50204418  0.50127152  0.83448977  1
  Ni  Ni42  1  0.50103964  0.83486239  0.50172919  1
  Ni  Ni43  1  0.33362432  0.66768520  0.66839741  1
  Fe  Fe44  1  0.50193089  0.83477211  0.83408856  1
  Ni  Ni45  1  0.83519175  0.16633367  0.50257221  1
  Ni  Ni46  1  0.66870957  0.00160613  0.66744628  1
  Ni  Ni47  1  0.83348344  0.16726831  0.83461025  1
  Ni  Ni48  1  0.83548654  0.50219425  0.50195389  1
  Ni  Ni49  1  0.66733382  0.33462538  0.66857694  1
  Ni  Ni50  1  0.83410827  0.50154052  0.83519028  1
  Ni  Ni51  1  0.83474414  0.83515147  0.50063265  1
  Ni  Ni52  1  0.66905132  0.66742684  0.66781580  1
  Ni  Ni53  1  0.83520627  0.83480004  0.83471982  1
" 