4411,Ni88Fe7Cr3_12,-238.709300977674, 180.297544896966,Ni88Fe7Cr3,"# generated using pymatgen
 data_CrFeNi16
_symmetry_space_group_name_H-M   'P 1'
_cell_length_a   7.45442019
_cell_length_b   7.45442019
_cell_length_c   10.54214213
_cell_angle_alpha   90.00000000
_cell_angle_beta   90.00000000
_cell_angle_gamma   90.00000000
_symmetry_Int_Tables_number   1
_chemical_formula_structural   CrFeNi16
_chemical_formula_sum   'Cr3 Fe3 Ni48'
_cell_volume   585.80976320
_cell_formula_units_Z   3
loop_
 _symmetry_equiv_pos_site_id
 _symmetry_equiv_pos_as_xyz
  1  'x, y, z'
loop_
 _atom_site_type_symbol
 _atom_site_label
 _atom_site_symmetry_multiplicity
 _atom_site_fract_x
 _atom_site_fract_y
 _atom_site_fract_z
 _atom_site_occupancy
  Ni  Ni0  1  1.00084186  0.00107552  0.00090134  1
  Ni  Ni1  1  0.16641507  0.16786043  0.16703013  1
  Ni  Ni2  1  0.99714093  0.00118307  0.33258126  1
  Ni  Ni3  1  1.00082927  0.33401536  0.00103915  1
  Ni  Ni4  1  0.16753837  0.50108000  0.16805252  1
  Ni  Ni5  1  1.00015976  0.33518797  0.33351807  1
  Ni  Ni6  1  1.00056291  0.66744945  1.00077742  1
  Ni  Ni7  1  0.16667750  0.83360082  0.16676953  1
  Ni  Ni8  1  0.99997383  0.66616893  0.33370589  1
  Ni  Ni9  1  0.33443784  0.00108008  1.00050390  1
  Ni  Ni10  1  0.50140461  0.16832706  0.16696610  1
  Cr  Cr11  1  0.33611755  0.00123905  0.33236290  1
  Ni  Ni12  1  0.33425562  0.33381476  0.00124053  1
  Ni  Ni13  1  0.50074383  0.50107549  0.16814897  1
  Ni  Ni14  1  0.33475571  0.33689269  0.33355369  1
  Ni  Ni15  1  0.33451748  0.66764533  0.00097861  1
  Ni  Ni16  1  0.50113711  0.83313853  0.16670502  1
  Ni  Ni17  1  0.33501648  0.66454373  0.33377917  1
  Ni  Ni18  1  0.66726103  1.00081300  0.00112661  1
  Ni  Ni19  1  0.83472084  0.16746656  0.16782740  1
  Ni  Ni20  1  0.66925244  0.00092034  0.33456621  1
  Ni  Ni21  1  0.66745669  0.33409527  1.00046469  1
  Ni  Ni22  1  0.83425847  0.50081299  0.16763046  1
  Ni  Ni23  1  0.66762568  0.33406177  0.33487912  1
  Ni  Ni24  1  0.66746123  0.66763260  0.00096178  1
  Ni  Ni25  1  0.83472513  0.83426128  0.16832472  1
  Ni  Ni26  1  0.66754847  0.66755821  0.33430868  1
  Cr  Cr27  1  0.16635220  0.16908303  0.50127825  1
  Ni  Ni28  1  0.99898139  0.00141765  0.66905651  1
  Ni  Ni29  1  0.16728234  0.16631695  0.83385662  1
  Ni  Ni30  1  0.16730364  0.50133930  0.50102893  1
  Ni  Ni31  1  0.00089825  0.33488174  0.66798400  1
  Fe  Fe32  1  0.16751660  0.50079418  0.83400252  1
  Cr  Cr33  1  0.16733904  0.83211073  0.50150755  1
  Ni  Ni34  1  0.99982821  0.66624022  0.66805890  1
  Ni  Ni35  1  0.16754458  0.83511532  0.83408146  1
  Ni  Ni36  1  0.50382092  0.16817846  0.50183938  1
  Ni  Ni37  1  0.33640301  0.00134004  0.66938059  1
  Ni  Ni38  1  0.50019261  0.16758333  0.83373637  1
  Ni  Ni39  1  0.50125852  0.50142057  0.50045539  1
  Ni  Ni40  1  0.33421452  0.33468299  0.66774792  1
  Ni  Ni41  1  0.50153696  0.50118724  0.83393740  1
  Ni  Ni42  1  0.50275934  0.83294417  0.50191412  1
  Ni  Ni43  1  0.33535854  0.66651680  0.66778554  1
  Ni  Ni44  1  0.50001035  0.83377111  0.83392105  1
  Ni  Ni45  1  0.83253873  0.16819511  0.50071725  1
  Ni  Ni46  1  0.66715381  1.00027191  0.66684871  1
  Ni  Ni47  1  0.83506640  0.16784400  0.83399774  1
  Ni  Ni48  1  0.83397857  0.50028023  0.50071221  1
  Fe  Fe49  1  0.66757181  0.33417657  0.66745697  1
  Ni  Ni50  1  0.83372245  0.50092497  0.83419912  1
  Fe  Fe51  1  0.83192972  0.83391616  0.50083491  1
  Ni  Ni52  1  0.66735304  0.66843109  0.66727001  1
  Ni  Ni53  1  0.83498540  0.83377253  0.83342340  1
" 