2595,Ni88Fe12_18,-229.120017007952, 164.386176737267,Ni88Fe12,"# generated using pymatgen
 data_Fe47Ni7
_symmetry_space_group_name_H-M   'P 1'
_cell_length_a   7.40313171
_cell_length_b   7.40313171
_cell_length_c   10.46960926
_cell_angle_alpha   90.00000000
_cell_angle_beta   90.00000000
_cell_angle_gamma   90.00000000
_symmetry_Int_Tables_number   1
_chemical_formula_structural   Fe47Ni7
_chemical_formula_sum   'Fe47 Ni7'
_cell_volume   573.80116449
_cell_formula_units_Z   1
loop_
 _symmetry_equiv_pos_site_id
 _symmetry_equiv_pos_as_xyz
  1  'x, y, z'
loop_
 _atom_site_type_symbol
 _atom_site_label
 _atom_site_symmetry_multiplicity
 _atom_site_fract_x
 _atom_site_fract_y
 _atom_site_fract_z
 _atom_site_occupancy
  Fe  Fe0  1  0.00461059  1.00410464  0.00464792  1
  Fe  Fe1  1  0.17032703  0.17090251  0.17089978  1
  Fe  Fe2  1  0.00461221  1.00344986  0.33732142  1
  Fe  Fe3  1  0.00461220  0.33835182  1.00399374  1
  Fe  Fe4  1  0.17078013  0.50451973  0.17077016  1
  Fe  Fe5  1  0.00461174  0.33852162  0.33732096  1
  Fe  Fe6  1  0.00480852  0.67049453  1.00420698  1
  Fe  Fe7  1  0.17069784  0.83752833  0.17131043  1
  Ni  Ni8  1  0.00510310  0.67098607  0.33745186  1
  Fe  Fe9  1  0.33773357  1.00382794  1.00422994  1
  Fe  Fe10  1  0.50496840  0.17098566  0.17152976  1
  Fe  Fe11  1  0.33735446  1.00353011  0.33805857  1
  Fe  Fe12  1  0.33740287  0.33830457  1.00398632  1
  Fe  Fe13  1  0.50435703  0.50427667  0.17098486  1
  Fe  Fe14  1  0.33735287  0.33843646  0.33806054  1
  Ni  Ni15  1  0.33744403  0.67077998  1.00368907  1
  Fe  Fe16  1  0.50435674  0.83768743  0.17081781  1
  Ni  Ni17  1  0.33696575  0.67098651  0.33827139  1
  Fe  Fe18  1  0.67060525  1.00402347  0.00464316  1
  Ni  Ni19  1  0.83735886  0.17079143  0.17137285  1
  Fe  Fe20  1  0.67098257  1.00372181  0.33764821  1
  Fe  Fe21  1  0.67093465  0.33810722  0.00440234  1
  Fe  Fe22  1  0.83781363  0.50390814  0.17077066  1
  Fe  Fe23  1  0.67098464  0.33824424  0.33764965  1
  Fe  Fe24  1  0.67065702  0.67082025  1.00390650  1
  Fe  Fe25  1  0.83789634  0.83813840  0.17131251  1
  Fe  Fe26  1  0.67106809  0.67098181  0.33773284  1
  Fe  Fe27  1  0.17155306  0.17090263  0.50448329  1
  Fe  Fe28  1  1.00431672  0.00431715  0.67098344  1
  Fe  Fe29  1  0.17036154  0.17201710  0.83756728  1
  Fe  Fe30  1  0.17160306  0.50426788  0.50428744  1
  Fe  Fe31  1  1.00431642  0.33814420  0.67164186  1
  Ni  Ni32  1  0.17030195  0.50499502  0.83774986  1
  Fe  Fe33  1  0.17151977  0.83778099  0.50374531  1
  Fe  Fe34  1  1.00415232  0.67049052  0.67092697  1
  Fe  Fe35  1  0.17068705  0.83637773  0.83789334  1
  Ni  Ni36  1  0.50431902  0.17040244  0.50354163  1
  Fe  Fe37  1  0.33797952  0.00472754  0.67065722  1
  Fe  Fe38  1  0.50431791  0.17206545  0.83694165  1
  Fe  Fe39  1  0.50407193  0.50398608  0.50398982  1
  Fe  Fe40  1  0.33765019  0.33740468  0.67089915  1
  Fe  Fe41  1  0.50407242  0.50464234  0.83797661  1
  Fe  Fe42  1  0.50407161  0.83797076  0.50415644  1
  Fe  Fe43  1  0.33740331  0.67081835  0.67131200  1
  Fe  Fe44  1  0.50407273  0.83624346  0.83797638  1
  Fe  Fe45  1  0.83707936  0.17090268  0.50376984  1
  Fe  Fe46  1  0.67065415  0.00456397  0.67065699  1
  Fe  Fe47  1  0.83827126  0.17201437  0.83828061  1
  Fe  Fe48  1  0.83727648  0.50402425  0.50469371  1
  Fe  Fe49  1  0.67098453  0.33756899  0.67089992  1
  Ni  Ni50  1  0.83872537  0.50460421  0.83813670  1
  Fe  Fe51  1  0.83735930  0.83802385  0.50415203  1
  Fe  Fe52  1  0.67139569  0.67081671  0.67131440  1
  Fe  Fe53  1  0.83819123  0.83662346  0.83748387  1
" 