6633,Ni88Cr12_9,-204.191230858754, 176.422122515662,Ni88Cr12,"# generated using pymatgen
 data_Cr47Ni7
_symmetry_space_group_name_H-M   'P 1'
_cell_length_a   7.59283956
_cell_length_b   7.59283956
_cell_length_c   10.73789668
_cell_angle_alpha   90.00000000
_cell_angle_beta   90.00000000
_cell_angle_gamma   90.00000000
_symmetry_Int_Tables_number   1
_chemical_formula_structural   Cr47Ni7
_chemical_formula_sum   'Cr47 Ni7'
_cell_volume   619.05276361
_cell_formula_units_Z   1
loop_
 _symmetry_equiv_pos_site_id
 _symmetry_equiv_pos_as_xyz
  1  'x, y, z'
loop_
 _atom_site_type_symbol
 _atom_site_label
 _atom_site_symmetry_multiplicity
 _atom_site_fract_x
 _atom_site_fract_y
 _atom_site_fract_z
 _atom_site_occupancy
  Ni  Ni0  1  0.99069181  -0.00730106  -0.00748577  1
  Ni  Ni1  1  0.15838629  0.15852150  0.15869376  1
  Cr  Cr2  1  -0.00645117  -0.00645071  0.32500425  1
  Cr  Cr3  1  -0.00812957  0.32309025  -0.00731036  1
  Cr  Cr4  1  0.15946605  0.48990879  0.15880032  1
  Cr  Cr5  1  -0.00599533  0.32336964  0.32482824  1
  Cr  Cr6  1  -0.00811293  0.65925876  0.99122429  1
  Cr  Cr7  1  0.15729450  0.82652692  0.15696289  1
  Cr  Cr8  1  0.98981895  0.65822771  0.32520907  1
  Cr  Cr9  1  0.32430066  0.99169253  -0.00786715  1
  Cr  Cr10  1  0.49066516  0.15871346  0.15804984  1
  Cr  Cr11  1  0.32336967  -0.00599548  0.32594089  1
  Cr  Cr12  1  0.32429808  0.32465048  -0.00748642  1
  Cr  Cr13  1  0.49112026  0.49144542  0.16043992  1
  Ni  Ni14  1  0.32361991  0.32361998  0.32514417  1
  Cr  Cr15  1  0.32538600  0.65880668  0.99104877  1
  Cr  Cr16  1  0.49328772  0.82499204  0.15860665  1
  Cr  Cr17  1  0.32709843  0.65777739  0.32427293  1
  Ni  Ni18  1  0.66024971  0.99171090  0.99143160  1
  Cr  Cr19  1  0.82609886  0.15654673  0.15587984  1
  Cr  Cr20  1  0.65822814  0.98981881  0.32555687  1
  Cr  Cr21  1  0.65898299  0.32417690  0.99049387  1
  Cr  Cr22  1  0.82456421  0.49253519  0.15969221  1
  Cr  Cr23  1  0.65777714  0.32709841  0.32538378  1
  Cr  Cr24  1  0.65787621  0.65926191  -0.00767998  1
  Cr  Cr25  1  0.82456582  0.82606552  0.15785916  1
  Ni  Ni26  1  0.65798434  0.65798451  0.32514341  1
  Ni  Ni27  1  0.15936681  0.15923066  0.49056182  1
  Cr  Cr28  1  -0.00720040  0.99141313  0.65690369  1
  Cr  Cr29  1  0.15796192  0.15796339  0.82579908  1
  Cr  Cr30  1  0.15838550  0.49066579  0.49238615  1
  Cr  Cr31  1  0.99169450  0.32568618  0.65763116  1
  Cr  Cr32  1  0.15795931  0.49312706  0.82396282  1
  Cr  Cr33  1  0.15729743  0.82534595  0.49346950  1
  Ni  Ni34  1  0.99171104  0.65824587  0.65852554  1
  Cr  Cr35  1  0.15687075  0.82405812  0.82471171  1
  Cr  Cr36  1  0.48991024  0.15913934  0.49163442  1
  Cr  Cr37  1  0.32447221  -0.00812814  0.65707386  1
  Cr  Cr38  1  0.49312797  0.15795962  0.82546883  1
  Cr  Cr39  1  0.49144538  0.49112040  0.48966067  1
  Cr  Cr40  1  0.32447229  0.32411988  0.65780570  1
  Cr  Cr41  1  0.49094001  0.49094028  0.82505131  1
  Cr  Cr42  1  0.49253357  0.82489125  0.49074182  1
  Cr  Cr43  1  0.32399715  0.65915917  0.65982719  1
  Cr  Cr44  1  0.49203429  0.82624889  0.82580353  1
  Cr  Cr45  1  0.82577548  0.15805107  0.49238297  1
  Cr  Cr46  1  0.65787565  -0.00811384  0.65854207  1
  Cr  Cr47  1  0.82405870  0.15687359  0.82688584  1
  Cr  Cr48  1  0.82532052  0.49328529  0.49182906  1
  Cr  Cr49  1  0.65898230  0.32520976  0.65927229  1
  Cr  Cr50  1  0.82624945  0.49203338  0.82362860  1
  Cr  Cr51  1  0.82531815  0.82381346  0.49149279  1
  Cr  Cr52  1  0.65944122  0.65805254  0.65800076  1
  Cr  Cr53  1  0.82624276  0.82624088  0.82579586  1
" 