2614,Ni88Fe7Cr4_2,-239.038930315162, 183.792690617272,Ni88Fe7Cr4,"# generated using pymatgen
 data_Cr3Fe4Ni47
_symmetry_space_group_name_H-M   'P 1'
_cell_length_a   7.44786214
_cell_length_b   7.44786214
_cell_length_c   10.53286765
_cell_angle_alpha   90.00000000
_cell_angle_beta   90.00000000
_cell_angle_gamma   90.00000000
_symmetry_Int_Tables_number   1
_chemical_formula_structural   Cr3Fe4Ni47
_chemical_formula_sum   'Cr3 Fe4 Ni47'
_cell_volume   584.26501992
_cell_formula_units_Z   1
loop_
 _symmetry_equiv_pos_site_id
 _symmetry_equiv_pos_as_xyz
  1  'x, y, z'
loop_
 _atom_site_type_symbol
 _atom_site_label
 _atom_site_symmetry_multiplicity
 _atom_site_fract_x
 _atom_site_fract_y
 _atom_site_fract_z
 _atom_site_occupancy
  Ni  Ni0  1  1.00059669  0.00373871  1.00012842  1
  Ni  Ni1  1  0.16759752  0.16895647  0.16832268  1
  Ni  Ni2  1  0.99900735  0.00241736  0.33453379  1
  Ni  Ni3  1  0.00191944  0.33269608  0.00145177  1
  Fe  Fe4  1  0.16895014  0.49849529  0.16906491  1
  Ni  Ni5  1  0.00229912  0.33465188  0.33459290  1
  Cr  Cr6  1  1.00016007  0.66742238  1.00063047  1
  Cr  Cr7  1  0.16865677  0.83579735  0.16846645  1
  Ni  Ni8  1  0.99986369  0.66679508  0.33478642  1
  Ni  Ni9  1  0.33564529  0.00232180  1.00089241  1
  Ni  Ni10  1  0.50104829  0.16859504  0.16787837  1
  Fe  Fe11  1  0.33673104  0.00284736  0.33435370  1
  Ni  Ni12  1  0.33459053  0.33438283  0.00145156  1
  Ni  Ni13  1  0.50182983  0.50123558  0.16794767  1
  Ni  Ni14  1  0.33424940  0.33529892  0.33453168  1
  Ni  Ni15  1  0.33740191  0.66715731  0.99983706  1
  Ni  Ni16  1  0.50225652  0.83403253  0.16809189  1
  Ni  Ni17  1  0.33621332  0.66567269  0.33488756  1
  Ni  Ni18  1  0.66762305  1.00093005  0.00128836  1
  Ni  Ni19  1  0.83521948  0.16853056  0.16768057  1
  Ni  Ni20  1  0.66843642  1.00045486  0.33475654  1
  Ni  Ni21  1  0.66735536  0.33445377  1.00125402  1
  Ni  Ni22  1  0.83324778  0.50010969  0.16910965  1
  Ni  Ni23  1  0.66731762  0.33444664  0.33480003  1
  Ni  Ni24  1  0.66593658  0.66848006  0.00178067  1
  Ni  Ni25  1  0.83288965  0.83522234  0.16927175  1
  Ni  Ni26  1  0.66778888  0.66896297  0.33437091  1
  Fe  Fe27  1  0.16773026  0.17008134  0.50149471  1
  Ni  Ni28  1  1.00075262  0.00132831  0.66920335  1
  Ni  Ni29  1  0.16766783  0.16739992  0.83441968  1
  Ni  Ni30  1  0.16782062  0.50029490  0.50050086  1
  Ni  Ni31  1  0.00214339  0.33521098  0.66782099  1
  Ni  Ni32  1  0.16871455  0.50088067  0.83435878  1
  Cr  Cr33  1  0.16759121  0.83414480  0.50147176  1
  Ni  Ni34  1  0.99996933  0.66732661  0.66847696  1
  Ni  Ni35  1  0.16872002  0.83558235  0.83386165  1
  Ni  Ni36  1  0.50193392  0.16836700  0.50106012  1
  Ni  Ni37  1  0.33552773  0.00265865  0.66850023  1
  Ni  Ni38  1  0.50101614  0.16807681  0.83492538  1
  Ni  Ni39  1  0.50108273  0.50064912  0.50120396  1
  Ni  Ni40  1  0.33440444  0.33415088  0.66788253  1
  Ni  Ni41  1  0.50108782  0.50132048  0.83471152  1
  Ni  Ni42  1  0.50235544  0.83484980  0.50079069  1
  Fe  Fe43  1  0.33544201  0.66706323  0.66885200  1
  Ni  Ni44  1  0.50040494  0.83446622  0.83497860  1
  Ni  Ni45  1  0.83410914  0.16830325  0.50104315  1
  Ni  Ni46  1  0.66758449  1.00048282  0.66781877  1
  Ni  Ni47  1  0.83518014  0.16808329  0.83514025  1
  Ni  Ni48  1  0.83496135  0.50071383  0.50122359  1
  Ni  Ni49  1  0.66731623  0.33493220  0.66780991  1
  Ni  Ni50  1  0.83406375  0.50026778  0.83353312  1
  Ni  Ni51  1  0.83375465  0.83484802  0.50079437  1
  Ni  Ni52  1  0.66864549  0.66844884  0.66771381  1
  Ni  Ni53  1  0.83473919  0.83551344  0.83379822  1
" 