1821,Ni88Fe12_7,-229.038746155624, 158.989826307223,Ni88Fe12,"# generated using pymatgen
 data_Fe47Ni7
_symmetry_space_group_name_H-M   'P 1'
_cell_length_a   7.40331153
_cell_length_b   7.40331153
_cell_length_c   10.46986357
_cell_angle_alpha   90.00000000
_cell_angle_beta   90.00000000
_cell_angle_gamma   90.00000000
_symmetry_Int_Tables_number   1
_chemical_formula_structural   Fe47Ni7
_chemical_formula_sum   'Fe47 Ni7'
_cell_volume   573.84297864
_cell_formula_units_Z   1
loop_
 _symmetry_equiv_pos_site_id
 _symmetry_equiv_pos_as_xyz
  1  'x, y, z'
loop_
 _atom_site_type_symbol
 _atom_site_label
 _atom_site_symmetry_multiplicity
 _atom_site_fract_x
 _atom_site_fract_y
 _atom_site_fract_z
 _atom_site_occupancy
  Ni  Ni0  1  0.00437110  0.00520850  1.00406946  1
  Fe  Fe1  1  0.17054916  0.17067257  0.17053673  1
  Fe  Fe2  1  0.00520100  1.00370294  0.33702942  1
  Fe  Fe3  1  1.00298618  0.33836724  0.00431928  1
  Fe  Fe4  1  0.17168200  0.50521820  0.17149241  1
  Fe  Fe5  1  0.00436213  0.33907410  0.33772977  1
  Fe  Fe6  1  1.00289806  0.67087980  1.00409634  1
  Fe  Fe7  1  0.17084454  0.83702766  0.17107543  1
  Fe  Fe8  1  0.00438827  0.67012149  0.33794959  1
  Fe  Fe9  1  0.33800550  1.00341580  0.00448922  1
  Fe  Fe10  1  0.50501434  0.17120202  0.17107499  1
  Fe  Fe11  1  0.33803822  1.00336208  0.33744484  1
  Fe  Fe12  1  0.33754011  0.33733506  1.00409714  1
  Fe  Fe13  1  0.50475167  0.50559740  0.17095953  1
  Fe  Fe14  1  0.33753884  0.33803646  0.33773548  1
  Fe  Fe15  1  0.33785226  0.67218988  0.00532308  1
  Ni  Ni16  1  0.50291092  0.83889615  0.17085724  1
  Ni  Ni17  1  0.33825648  0.67049773  0.33774609  1
  Fe  Fe18  1  0.67107981  1.00333422  0.00462036  1
  Fe  Fe19  1  0.83735478  0.17036406  0.17078376  1
  Fe  Fe20  1  0.66965407  1.00339254  0.33752916  1
  Fe  Fe21  1  0.67241833  0.33820464  1.00420339  1
  Ni  Ni22  1  0.83830704  0.50388745  0.17084620  1
  Fe  Fe23  1  0.67103675  0.33888626  0.33784360  1
  Ni  Ni24  1  0.67031445  0.67016334  0.00458523  1
  Fe  Fe25  1  0.83696929  0.83728812  0.17020833  1
  Fe  Fe26  1  0.67069462  0.67064728  0.33658601  1
  Fe  Fe27  1  0.17015577  0.17166131  0.50440520  1
  Fe  Fe28  1  0.00451135  1.00429841  0.67167901  1
  Fe  Fe29  1  0.16995712  0.17136884  0.83796762  1
  Fe  Fe30  1  0.17087806  0.50461968  0.50398970  1
  Fe  Fe31  1  1.00366842  0.33838523  0.67086420  1
  Fe  Fe32  1  0.17067763  0.50422223  0.83743388  1
  Fe  Fe33  1  0.17047560  0.83662161  0.50408583  1
  Fe  Fe34  1  1.00366056  0.67022285  0.67086786  1
  Fe  Fe35  1  0.16985106  0.83734035  0.83775157  1
  Fe  Fe36  1  0.50510926  0.17178381  0.50451177  1
  Fe  Fe37  1  0.33775471  0.00438815  0.67097389  1
  Fe  Fe38  1  0.50491794  0.17187921  0.83732682  1
  Fe  Fe39  1  0.50444561  0.50452560  0.50410128  1
  Fe  Fe40  1  0.33763366  0.33733077  0.67108108  1
  Fe  Fe41  1  0.50503948  0.50452236  0.83786230  1
  Fe  Fe42  1  0.50470922  0.83659778  0.50328517  1
  Fe  Fe43  1  0.33754576  0.67119471  0.67016258  1
  Fe  Fe44  1  0.50531310  0.83650543  0.83855433  1
  Fe  Fe45  1  0.83764875  0.17137554  0.50427831  1
  Fe  Fe46  1  0.67064720  0.00438610  0.67076141  1
  Fe  Fe47  1  0.83804355  0.17106919  0.83784676  1
  Ni  Ni48  1  0.83797485  0.50408633  0.50454061  1
  Fe  Fe49  1  0.67162574  0.33818761  0.67086727  1
  Ni  Ni50  1  0.83799463  0.50406543  0.83752847  1
  Fe  Fe51  1  0.83773810  0.83730648  0.50451078  1
  Fe  Fe52  1  0.67172109  0.67033130  0.67178188  1
  Fe  Fe53  1  0.83772837  0.83719722  0.83819489  1
" 