8185,Ni88Fe7Cr4_11,-239.225013319751, 185.224983036817,Ni88Fe7Cr4,"# generated using pymatgen
 data_Cr3Fe4Ni47
_symmetry_space_group_name_H-M   'P 1'
_cell_length_a   7.44838944
_cell_length_b   7.44838944
_cell_length_c   10.53361337
_cell_angle_alpha   90.00000000
_cell_angle_beta   90.00000000
_cell_angle_gamma   90.00000000
_symmetry_Int_Tables_number   1
_chemical_formula_structural   Cr3Fe4Ni47
_chemical_formula_sum   'Cr3 Fe4 Ni47'
_cell_volume   584.38912527
_cell_formula_units_Z   1
loop_
 _symmetry_equiv_pos_site_id
 _symmetry_equiv_pos_as_xyz
  1  'x, y, z'
loop_
 _atom_site_type_symbol
 _atom_site_label
 _atom_site_symmetry_multiplicity
 _atom_site_fract_x
 _atom_site_fract_y
 _atom_site_fract_z
 _atom_site_occupancy
  Ni  Ni0  1  0.99938970  0.00220145  0.00207023  1
  Ni  Ni1  1  0.16793775  0.16749138  0.16799692  1
  Ni  Ni2  1  0.00268873  1.00084509  0.33483224  1
  Ni  Ni3  1  0.00189906  0.33414173  0.00155576  1
  Ni  Ni4  1  0.16843530  0.50137115  0.16764257  1
  Fe  Fe5  1  0.00150185  0.33494067  0.33469352  1
  Ni  Ni6  1  1.00062168  0.66741448  0.00184281  1
  Ni  Ni7  1  0.16811650  0.83489464  0.16818096  1
  Ni  Ni8  1  0.00137968  0.66817703  0.33482476  1
  Fe  Fe9  1  0.33525095  0.00185459  0.00243714  1
  Ni  Ni10  1  0.50050691  0.16896709  0.16694508  1
  Ni  Ni11  1  0.33293338  0.00189607  0.33461038  1
  Ni  Ni12  1  0.33430367  0.33524526  1.00115817  1
  Ni  Ni13  1  0.50147377  0.50135824  0.16801002  1
  Ni  Ni14  1  0.33425392  0.33394713  0.33379624  1
  Ni  Ni15  1  0.33540110  0.66612594  0.00212620  1
  Ni  Ni16  1  0.50031308  0.83343073  0.16725576  1
  Ni  Ni17  1  0.33344990  0.66791516  0.33403928  1
  Ni  Ni18  1  0.66884017  1.00110205  1.00122623  1
  Ni  Ni19  1  0.83531261  0.16865154  0.16709642  1
  Cr  Cr20  1  0.66819167  0.00129740  0.33478356  1
  Ni  Ni21  1  0.66755541  0.33401970  1.00112497  1
  Ni  Ni22  1  0.83384797  0.50117777  0.16802934  1
  Ni  Ni23  1  0.66787454  0.33525310  0.33400903  1
  Ni  Ni24  1  0.66773430  0.66863502  0.00152929  1
  Ni  Ni25  1  0.83532717  0.83392886  0.16672332  1
  Ni  Ni26  1  0.66892788  0.66685238  0.33354875  1
  Ni  Ni27  1  0.16785987  0.16719243  0.50128585  1
  Ni  Ni28  1  0.99976676  0.00241204  0.66685737  1
  Ni  Ni29  1  0.16725315  0.16971529  0.83447471  1
  Ni  Ni30  1  0.16654771  0.50139730  0.50176957  1
  Ni  Ni31  1  0.00227327  0.33458821  0.66762236  1
  Ni  Ni32  1  0.16854884  0.49917128  0.83434692  1
  Ni  Ni33  1  0.16803937  0.83516761  0.50114201  1
  Ni  Ni34  1  1.00019650  0.66675617  0.66709078  1
  Cr  Cr35  1  0.16784616  0.83483697  0.83457058  1
  Ni  Ni36  1  0.50031547  0.16685933  0.50246450  1
  Ni  Ni37  1  0.33597044  0.00259260  0.66677313  1
  Fe  Fe38  1  0.50154761  0.16827267  0.83452481  1
  Cr  Cr39  1  0.50144087  0.50168265  0.50073014  1
  Ni  Ni40  1  0.33292842  0.33386943  0.66880471  1
  Ni  Ni41  1  0.50131804  0.50183939  0.83477233  1
  Ni  Ni42  1  0.50018948  0.83544513  0.50221538  1
  Ni  Ni43  1  0.33481894  0.66729641  0.66759266  1
  Ni  Ni44  1  0.50299783  0.83363691  0.83428540  1
  Ni  Ni45  1  0.83558455  0.16835100  0.50206657  1
  Ni  Ni46  1  0.66802247  1.00052180  0.66770808  1
  Ni  Ni47  1  0.83512629  0.16803409  0.83459388  1
  Ni  Ni48  1  0.83586478  0.50127726  0.50128080  1
  Fe  Fe49  1  0.66909273  0.33392398  0.66841388  1
  Ni  Ni50  1  0.83389146  0.50078853  0.83444621  1
  Ni  Ni51  1  0.83552867  0.83413072  0.50249953  1
  Ni  Ni52  1  0.66874149  0.66980491  0.66867835  1
  Ni  Ni53  1  0.83245498  0.83493504  0.83453537  1
" 