7727,Ni88Cr12_17,-204.344113461574, 180.697342100505,Ni88Cr12,"# generated using pymatgen
 data_Cr47Ni7
_symmetry_space_group_name_H-M   'P 1'
_cell_length_a   7.58796664
_cell_length_b   7.58796664
_cell_length_c   10.73100534
_cell_angle_alpha   90.00000000
_cell_angle_beta   90.00000000
_cell_angle_gamma   90.00000000
_symmetry_Int_Tables_number   1
_chemical_formula_structural   Cr47Ni7
_chemical_formula_sum   'Cr47 Ni7'
_cell_volume   617.86164617
_cell_formula_units_Z   1
loop_
 _symmetry_equiv_pos_site_id
 _symmetry_equiv_pos_as_xyz
  1  'x, y, z'
loop_
 _atom_site_type_symbol
 _atom_site_label
 _atom_site_symmetry_multiplicity
 _atom_site_fract_x
 _atom_site_fract_y
 _atom_site_fract_z
 _atom_site_occupancy
  Cr  Cr0  1  0.99131541  0.98940726  -0.00751117  1
  Cr  Cr1  1  0.15910221  0.15869349  0.15869550  1
  Cr  Cr2  1  -0.00753190  0.99029233  0.32377301  1
  Cr  Cr3  1  -0.00722105  0.32690983  -0.00585383  1
  Ni  Ni4  1  0.15882634  0.49472104  0.15864536  1
  Cr  Cr5  1  -0.00724613  0.32677984  0.32337616  1
  Cr  Cr6  1  -0.00743376  0.65994083  -0.00754787  1
  Ni  Ni7  1  0.15852293  0.82267809  0.15874149  1
  Cr  Cr8  1  -0.00632023  0.65898531  0.32353583  1
  Cr  Cr9  1  0.32406061  0.98985691  -0.00688720  1
  Cr  Cr10  1  0.49204322  0.15795579  0.15784780  1
  Cr  Cr11  1  0.32409313  0.98977086  0.32414260  1
  Cr  Cr12  1  0.32440084  0.32783659  -0.00725950  1
  Cr  Cr13  1  0.49414980  0.49432046  0.15831960  1
  Cr  Cr14  1  0.32561457  0.32872036  0.32578578  1
  Cr  Cr15  1  0.32403967  0.65840529  -0.00555749  1
  Cr  Cr16  1  0.49307295  0.82374733  0.15874293  1
  Cr  Cr17  1  0.32520853  0.65744146  0.32441747  1
  Cr  Cr18  1  0.66074548  0.99010125  0.98979017  1
  Cr  Cr19  1  0.82495325  0.15946681  0.15957401  1
  Cr  Cr20  1  0.65943268  0.99108016  0.32622832  1
  Cr  Cr21  1  0.65903543  0.32636039  0.99119070  1
  Cr  Cr22  1  0.82436023  0.49399248  0.15869788  1
  Cr  Cr23  1  0.65769248  0.32735828  0.32766895  1
  Ni  Ni24  1  0.66035086  0.66029430  0.99093901  1
  Cr  Cr25  1  0.82332214  0.82273184  0.15905514  1
  Ni  Ni26  1  0.65733716  0.65708915  0.32650655  1
  Cr  Cr27  1  0.15844473  0.15819068  0.49290906  1
  Cr  Cr28  1  0.98950119  0.98902174  0.65966121  1
  Cr  Cr29  1  0.15932479  0.15910404  0.82445778  1
  Cr  Cr30  1  0.15776990  0.49288689  0.49413522  1
  Cr  Cr31  1  0.99070578  0.32708444  0.65871396  1
  Cr  Cr32  1  0.15720517  0.49246733  0.82398649  1
  Cr  Cr33  1  0.15779340  0.82496406  0.49342829  1
  Ni  Ni34  1  0.99022394  0.66020496  0.66023595  1
  Cr  Cr35  1  0.15716533  0.82438479  0.82313534  1
  Cr  Cr36  1  0.49092370  0.15886579  0.49195623  1
  Cr  Cr37  1  0.32656923  0.99109569  0.65871086  1
  Cr  Cr38  1  0.49045069  0.15836006  0.82630320  1
  Ni  Ni39  1  0.49337435  0.49364451  0.49062421  1
  Cr  Cr40  1  0.32781410  0.32754909  0.65775209  1
  Cr  Cr41  1  0.49297141  0.49357630  0.82679199  1
  Cr  Cr42  1  0.49272916  0.82291228  0.49005510  1
  Cr  Cr43  1  0.32522819  0.65740965  0.65721808  1
  Cr  Cr44  1  0.49386051  0.82401847  0.82732324  1
  Cr  Cr45  1  0.82676323  0.15900070  0.49067151  1
  Cr  Cr46  1  0.66006207  0.99154730  0.66022654  1
  Cr  Cr47  1  0.82631273  0.15848067  0.82581864  1
  Cr  Cr48  1  0.82475199  0.49455346  0.49148970  1
  Cr  Cr49  1  0.65747639  0.32591926  0.65719001  1
  Cr  Cr50  1  0.82584005  0.49581283  0.82588039  1
  Cr  Cr51  1  0.82560723  0.82264520  0.49198739  1
  Cr  Cr52  1  0.65940060  0.65877159  0.65877205  1
  Ni  Ni53  1  0.82554126  0.82232850  0.82524625  1
" 