4451,Ni88Fe12_19,-229.143756722587, 157.787501902112,Ni88Fe12,"# generated using pymatgen
 data_Fe47Ni7
_symmetry_space_group_name_H-M   'P 1'
_cell_length_a   7.40557397
_cell_length_b   7.40557397
_cell_length_c   10.47306314
_cell_angle_alpha   90.00000000
_cell_angle_beta   90.00000000
_cell_angle_gamma   90.00000000
_symmetry_Int_Tables_number   1
_chemical_formula_structural   Fe47Ni7
_chemical_formula_sum   'Fe47 Ni7'
_cell_volume   574.36923557
_cell_formula_units_Z   1
loop_
 _symmetry_equiv_pos_site_id
 _symmetry_equiv_pos_as_xyz
  1  'x, y, z'
loop_
 _atom_site_type_symbol
 _atom_site_label
 _atom_site_symmetry_multiplicity
 _atom_site_fract_x
 _atom_site_fract_y
 _atom_site_fract_z
 _atom_site_occupancy
  Fe  Fe0  1  0.00440835  1.00389366  0.00440603  1
  Fe  Fe1  1  0.17073448  0.17038397  0.17116964  1
  Ni  Ni2  1  1.00383750  1.00349331  0.33703631  1
  Fe  Fe3  1  1.00398442  0.33764965  1.00398433  1
  Fe  Fe4  1  0.17107568  0.50432524  0.17082543  1
  Fe  Fe5  1  0.00450295  0.33704850  0.33723447  1
  Fe  Fe6  1  0.00440836  0.67090794  0.00440631  1
  Ni  Ni7  1  0.17021504  0.83758813  0.16989049  1
  Fe  Fe8  1  0.00522720  0.67129300  0.33731835  1
  Fe  Fe9  1  0.33739269  1.00381137  0.00432369  1
  Fe  Fe10  1  0.50333555  0.17051734  0.17146633  1
  Fe  Fe11  1  0.33670155  0.00440653  0.33757905  1
  Fe  Fe12  1  0.33756864  0.33748220  0.00462578  1
  Fe  Fe13  1  0.50333792  0.50453611  0.17155037  1
  Ni  Ni14  1  0.33833995  0.33831501  0.33740470  1
  Fe  Fe15  1  0.33722529  0.67115796  0.00432342  1
  Fe  Fe16  1  0.50379858  0.83740080  0.17040197  1
  Fe  Fe17  1  0.33658388  0.67112428  0.33766438  1
  Fe  Fe18  1  0.67064931  0.00423627  1.00406789  1
  Fe  Fe19  1  0.83838107  0.16992000  0.17090817  1
  Fe  Fe20  1  0.67051435  0.00513044  0.33757600  1
  Fe  Fe21  1  0.67089863  0.33748211  1.00407049  1
  Fe  Fe22  1  0.83804012  0.50478975  0.17056866  1
  Fe  Fe23  1  0.67035102  0.33692736  0.33799698  1
  Fe  Fe24  1  0.67081693  0.67073313  1.00406783  1
  Fe  Fe25  1  0.83817002  0.83774078  0.17099356  1
  Fe  Fe26  1  0.67064029  0.67039304  0.33766155  1
  Fe  Fe27  1  0.17162858  0.17067567  0.50397250  1
  Ni  Ni28  1  1.00395575  1.00384720  0.67145426  1
  Fe  Fe29  1  0.17047819  0.17072674  0.83730940  1
  Fe  Fe30  1  0.17231788  0.50376995  0.50397561  1
  Fe  Fe31  1  1.00398489  0.33705055  0.67123272  1
  Fe  Fe32  1  0.17082005  0.50398222  0.83764944  1
  Ni  Ni33  1  0.16962498  0.83770602  0.50459089  1
  Fe  Fe34  1  0.00440840  0.67158811  0.67072451  1
  Fe  Fe35  1  0.17055974  0.83774224  0.83722631  1
  Ni  Ni36  1  0.50487116  0.17236784  0.50433852  1
  Fe  Fe37  1  0.33696665  1.00406726  0.67054770  1
  Fe  Fe38  1  0.50414723  0.17081743  0.83709188  1
  Ni  Ni39  1  0.50487331  0.50241302  0.50434139  1
  Fe  Fe40  1  0.33752442  0.33692801  0.66982772  1
  Fe  Fe41  1  0.50414735  0.50423348  0.83700531  1
  Fe  Fe42  1  0.50379396  0.83731481  0.50431663  1
  Fe  Fe43  1  0.33684621  0.67145511  0.67046276  1
  Fe  Fe44  1  0.50431680  0.83740058  0.83773287  1
  Fe  Fe45  1  0.83749629  0.17021245  0.50423399  1
  Fe  Fe46  1  0.67107275  0.00449180  0.67080854  1
  Fe  Fe47  1  0.83782542  0.17055780  0.83731031  1
  Fe  Fe48  1  0.83680852  0.50423483  0.50423327  1
  Fe  Fe49  1  0.67094696  0.33692773  0.67038647  1
  Fe  Fe50  1  0.83748427  0.50415196  0.83764961  1
  Fe  Fe51  1  0.83731687  0.83800339  0.50423238  1
  Fe  Fe52  1  0.67119663  0.67103135  0.67072303  1
  Fe  Fe53  1  0.83757387  0.83774149  0.83722669  1
" 