2414,Ni88Fe7Cr3_14,-238.92966617919, 181.0732054652,Ni88Fe7Cr3,"# generated using pymatgen
 data_CrFeNi16
_symmetry_space_group_name_H-M   'P 1'
_cell_length_a   7.45376511
_cell_length_b   7.45376511
_cell_length_c   10.54121571
_cell_angle_alpha   90.00000000
_cell_angle_beta   90.00000000
_cell_angle_gamma   90.00000000
_symmetry_Int_Tables_number   1
_chemical_formula_structural   CrFeNi16
_chemical_formula_sum   'Cr3 Fe3 Ni48'
_cell_volume   585.65533743
_cell_formula_units_Z   3
loop_
 _symmetry_equiv_pos_site_id
 _symmetry_equiv_pos_as_xyz
  1  'x, y, z'
loop_
 _atom_site_type_symbol
 _atom_site_label
 _atom_site_symmetry_multiplicity
 _atom_site_fract_x
 _atom_site_fract_y
 _atom_site_fract_z
 _atom_site_occupancy
  Ni  Ni0  1  1.00083797  0.00172070  0.00124484  1
  Ni  Ni1  1  0.16766985  0.16742683  0.16784884  1
  Ni  Ni2  1  0.99998400  0.00136704  0.33352229  1
  Ni  Ni3  1  0.00109878  0.33304314  1.00086612  1
  Ni  Ni4  1  0.16857823  0.49965745  0.16673783  1
  Ni  Ni5  1  0.99861512  0.33226045  0.33251925  1
  Fe  Fe6  1  1.00052777  0.66715098  1.00087565  1
  Ni  Ni7  1  0.16880836  0.83549523  0.16637460  1
  Cr  Cr8  1  1.00001982  0.66904859  0.33307416  1
  Ni  Ni9  1  0.33383634  1.00064714  1.00024085  1
  Ni  Ni10  1  0.50069991  0.16695138  0.16707000  1
  Ni  Ni11  1  0.33500638  0.99960255  0.33389477  1
  Ni  Ni12  1  0.33392084  0.33462430  0.00098761  1
  Ni  Ni13  1  0.50102080  0.50138326  0.16767519  1
  Ni  Ni14  1  0.33664972  0.33430050  0.33188284  1
  Ni  Ni15  1  0.33491176  0.66734308  0.00124732  1
  Ni  Ni16  1  0.50121870  0.83432693  0.16776996  1
  Ni  Ni17  1  0.33669138  0.66872960  0.33345868  1
  Ni  Ni18  1  0.66796108  1.00074534  0.00099472  1
  Ni  Ni19  1  0.83431339  0.16723457  0.16769075  1
  Ni  Ni20  1  0.66772208  0.00100084  0.33396586  1
  Ni  Ni21  1  0.66765350  0.33432022  1.00025727  1
  Ni  Ni22  1  0.83300844  0.50009649  0.16659318  1
  Ni  Ni23  1  0.66736514  0.33403399  0.33457026  1
  Ni  Ni24  1  0.66638053  0.66762344  1.00087233  1
  Ni  Ni25  1  0.83259383  0.83523693  0.16669020  1
  Ni  Ni26  1  0.66558919  0.66761961  0.33466936  1
  Cr  Cr27  1  0.16743552  0.16683529  0.50020555  1
  Ni  Ni28  1  0.99926853  1.00002047  0.66800404  1
  Ni  Ni29  1  0.16735716  0.16836061  0.83414289  1
  Cr  Cr30  1  0.16835113  0.50075387  0.50117264  1
  Ni  Ni31  1  0.99925517  0.33351257  0.66907935  1
  Ni  Ni32  1  0.16759467  0.50003628  0.83435561  1
  Ni  Ni33  1  0.16851298  0.83514659  0.50256562  1
  Ni  Ni34  1  1.00049068  0.66912200  0.66920722  1
  Fe  Fe35  1  0.16767462  0.83433720  0.83438660  1
  Ni  Ni36  1  0.50255461  0.16729057  0.50114966  1
  Fe  Fe37  1  0.33592806  1.00054699  0.66835773  1
  Ni  Ni38  1  0.50069545  0.16693132  0.83441786  1
  Ni  Ni39  1  0.50241174  0.50118134  0.50095668  1
  Ni  Ni40  1  0.33633836  0.33530881  0.66964612  1
  Ni  Ni41  1  0.50061401  0.50173376  0.83405963  1
  Ni  Ni42  1  0.50147198  0.83421025  0.50061534  1
  Ni  Ni43  1  0.33527207  0.66787240  0.66799988  1
  Ni  Ni44  1  0.50211814  0.83400409  0.83420983  1
  Ni  Ni45  1  0.83270490  0.16709240  0.50096040  1
  Ni  Ni46  1  0.66861205  0.00089423  0.66772612  1
  Ni  Ni47  1  0.83470706  0.16685102  0.83406536  1
  Ni  Ni48  1  0.83170565  0.50037810  0.50245172  1
  Ni  Ni49  1  0.66705869  0.33373626  0.66785326  1
  Ni  Ni50  1  0.83445030  0.50152408  0.83373285  1
  Ni  Ni51  1  0.83288935  0.83514662  0.50166109  1
  Ni  Ni52  1  0.66692734  0.66803909  0.66712431  1
  Ni  Ni53  1  0.83303049  0.83425679  0.83441153  1
" 