2374,Ni88Fe12_14,-229.057909071569, 160.734246762,Ni88Fe12,"# generated using pymatgen
 data_Fe47Ni7
_symmetry_space_group_name_H-M   'P 1'
_cell_length_a   7.40499900
_cell_length_b   7.40499900
_cell_length_c   10.47225001
_cell_angle_alpha   90.00000000
_cell_angle_beta   90.00000000
_cell_angle_gamma   90.00000000
_symmetry_Int_Tables_number   1
_chemical_formula_structural   Fe47Ni7
_chemical_formula_sum   'Fe47 Ni7'
_cell_volume   574.23546296
_cell_formula_units_Z   1
loop_
 _symmetry_equiv_pos_site_id
 _symmetry_equiv_pos_as_xyz
  1  'x, y, z'
loop_
 _atom_site_type_symbol
 _atom_site_label
 _atom_site_symmetry_multiplicity
 _atom_site_fract_x
 _atom_site_fract_y
 _atom_site_fract_z
 _atom_site_occupancy
  Fe  Fe0  1  1.00378589  1.00398578  0.00459948  1
  Fe  Fe1  1  0.17058911  0.17111628  0.17147969  1
  Ni  Ni2  1  0.00460952  1.00376819  0.33762462  1
  Fe  Fe3  1  1.00382444  0.33851141  0.00453818  1
  Ni  Ni4  1  0.17001346  0.50430312  0.17126593  1
  Fe  Fe5  1  0.00453938  0.33716288  0.33743806  1
  Ni  Ni6  1  0.00497366  0.67162878  0.00419257  1
  Fe  Fe7  1  0.17023967  0.83699971  0.17034986  1
  Fe  Fe8  1  0.00445492  0.67112235  0.33666821  1
  Fe  Fe9  1  0.33796570  1.00392648  1.00320189  1
  Fe  Fe10  1  0.50386377  0.17188311  0.16999214  1
  Fe  Fe11  1  0.33708740  1.00418546  0.33761009  1
  Fe  Fe12  1  0.33745576  0.33810485  0.00436514  1
  Fe  Fe13  1  0.50391738  0.50383535  0.17086356  1
  Fe  Fe14  1  0.33658217  0.33719993  0.33734466  1
  Fe  Fe15  1  0.33722679  0.67053516  1.00401523  1
  Fe  Fe16  1  0.50360244  0.83684697  0.17053152  1
  Fe  Fe17  1  0.33675573  0.67118319  0.33734453  1
  Fe  Fe18  1  0.67082211  0.00421964  1.00366415  1
  Fe  Fe19  1  0.83810933  0.17144169  0.17103106  1
  Fe  Fe20  1  0.67138776  1.00410148  0.33760269  1
  Ni  Ni21  1  0.66976316  0.33726509  1.00376517  1
  Fe  Fe22  1  0.83795484  0.50419063  0.17021639  1
  Fe  Fe23  1  0.67144321  0.33684409  0.33701803  1
  Fe  Fe24  1  0.67121598  0.67059276  1.00400953  1
  Fe  Fe25  1  0.83873195  0.83693959  0.17112414  1
  Fe  Fe26  1  0.67135345  0.67162289  0.33779052  1
  Fe  Fe27  1  0.17050327  0.17058331  0.50383385  1
  Fe  Fe28  1  0.00445956  1.00400618  0.67027048  1
  Fe  Fe29  1  0.17206971  0.16954927  0.83725565  1
  Fe  Fe30  1  0.17094441  0.50410743  0.50359980  1
  Fe  Fe31  1  0.00419421  0.33761507  0.67059700  1
  Fe  Fe32  1  0.17176444  0.50506696  0.83829436  1
  Fe  Fe33  1  0.17049839  0.83787615  0.50451727  1
  Fe  Fe34  1  0.00445721  0.67093958  0.67172263  1
  Ni  Ni35  1  0.17103033  0.83674915  0.83773404  1
  Fe  Fe36  1  0.50419031  0.17103711  0.50478201  1
  Fe  Fe37  1  0.33787523  1.00392126  0.67175455  1
  Ni  Ni38  1  0.50516878  0.17037878  0.83731553  1
  Fe  Fe39  1  0.50427992  0.50418577  0.50409321  1
  Fe  Fe40  1  0.33769773  0.33725601  0.67085911  1
  Fe  Fe41  1  0.50395581  0.50442648  0.83760984  1
  Fe  Fe42  1  0.50427411  0.83734638  0.50469109  1
  Fe  Fe43  1  0.33752051  0.67138996  0.67121423  1
  Ni  Ni44  1  0.50375603  0.83857514  0.83742118  1
  Fe  Fe45  1  0.83787864  0.17058709  0.50383078  1
  Fe  Fe46  1  0.67023989  1.00418540  0.67129698  1
  Fe  Fe47  1  0.83665274  0.16994860  0.83770470  1
  Fe  Fe48  1  0.83734421  0.50419140  0.50437183  1
  Fe  Fe49  1  0.67068462  0.33725823  0.67163002  1
  Fe  Fe50  1  0.83684722  0.50478128  0.83797897  1
  Fe  Fe51  1  0.83779792  0.83778765  0.50374339  1
  Fe  Fe52  1  0.67058799  0.67113059  0.67076832  1
  Fe  Fe53  1  0.83729858  0.83784368  0.83770294  1
" 