5897,Ni88Fe7Cr3_1,-238.948474644531, 182.13839882096,Ni88Fe7Cr3,"# generated using pymatgen
 data_CrFeNi16
_symmetry_space_group_name_H-M   'P 1'
_cell_length_a   7.45497926
_cell_length_b   7.45497926
_cell_length_c   10.54293278
_cell_angle_alpha   90.00000000
_cell_angle_beta   90.00000000
_cell_angle_gamma   90.00000000
_symmetry_Int_Tables_number   1
_chemical_formula_structural   CrFeNi16
_chemical_formula_sum   'Cr3 Fe3 Ni48'
_cell_volume   585.94157927
_cell_formula_units_Z   3
loop_
 _symmetry_equiv_pos_site_id
 _symmetry_equiv_pos_as_xyz
  1  'x, y, z'
loop_
 _atom_site_type_symbol
 _atom_site_label
 _atom_site_symmetry_multiplicity
 _atom_site_fract_x
 _atom_site_fract_y
 _atom_site_fract_z
 _atom_site_occupancy
  Ni  Ni0  1  0.00136472  0.99930179  0.00086817  1
  Cr  Cr1  1  0.16818718  0.16676404  0.16724029  1
  Fe  Fe2  1  0.99894367  0.99963053  0.33517533  1
  Ni  Ni3  1  0.00124059  0.33481061  0.00187836  1
  Ni  Ni4  1  0.16769545  0.50214074  0.16779690  1
  Fe  Fe5  1  0.99931779  0.33548943  0.33517053  1
  Ni  Ni6  1  0.00202028  0.66835156  0.00163679  1
  Ni  Ni7  1  0.16786578  0.83284807  0.16794602  1
  Ni  Ni8  1  0.00117957  0.66731415  0.33414200  1
  Ni  Ni9  1  0.33347299  0.99991025  1.00006253  1
  Ni  Ni10  1  0.50083658  0.16821915  0.16824527  1
  Ni  Ni11  1  0.33520133  0.00114065  0.33500416  1
  Ni  Ni12  1  0.33484629  0.33519239  0.99992701  1
  Ni  Ni13  1  0.50110751  0.50082963  0.16732802  1
  Ni  Ni14  1  0.33491858  0.33419250  0.33526736  1
  Ni  Ni15  1  0.33334590  0.66727274  0.00237275  1
  Ni  Ni16  1  0.49985922  0.83323407  0.16877309  1
  Fe  Fe17  1  0.33617500  0.66695436  0.33457128  1
  Cr  Cr18  1  0.66691586  1.00074085  0.00084438  1
  Ni  Ni19  1  0.83323238  0.16841739  0.16835031  1
  Ni  Ni20  1  0.66645354  0.00081943  0.33424914  1
  Ni  Ni21  1  0.66621235  0.33460321  0.00247925  1
  Ni  Ni22  1  0.83394800  0.50100230  0.16742106  1
  Ni  Ni23  1  0.66613316  0.33416007  0.33381968  1
  Ni  Ni24  1  0.66701139  0.66706612  0.00232645  1
  Ni  Ni25  1  0.83494350  0.83316646  0.16807724  1
  Ni  Ni26  1  0.67034401  0.66743585  0.33404117  1
  Ni  Ni27  1  0.16792945  0.16705914  0.50109538  1
  Ni  Ni28  1  0.00115134  1.00037187  0.66672167  1
  Ni  Ni29  1  0.16710002  0.16725834  0.83407650  1
  Ni  Ni30  1  0.16755557  0.50079463  0.50052353  1
  Ni  Ni31  1  0.00241965  0.33373475  0.66536918  1
  Ni  Ni32  1  0.16909466  0.50090147  0.83426207  1
  Ni  Ni33  1  0.16779158  0.83458016  0.50022274  1
  Ni  Ni34  1  0.00237782  0.66838518  0.66663198  1
  Ni  Ni35  1  0.16793998  0.83429243  0.83449510  1
  Ni  Ni36  1  0.50043942  0.16725563  0.50082250  1
  Ni  Ni37  1  0.33391586  0.00106126  0.66738746  1
  Ni  Ni38  1  0.49964926  0.16845728  0.83325729  1
  Ni  Ni39  1  0.50144807  0.50077760  0.50107358  1
  Ni  Ni40  1  0.33375660  0.33415627  0.66729777  1
  Ni  Ni41  1  0.49925680  0.50152810  0.83413549  1
  Ni  Ni42  1  0.50100348  0.83436394  0.50072687  1
  Ni  Ni43  1  0.33312056  0.66722235  0.66593814  1
  Ni  Ni44  1  0.49942668  0.83242643  0.83291189  1
  Ni  Ni45  1  0.83351862  0.16747434  0.50077102  1
  Ni  Ni46  1  0.66731541  0.00099939  0.66685870  1
  Ni  Ni47  1  0.83564443  0.16724638  0.83328234  1
  Ni  Ni48  1  0.83367685  0.50100722  0.50088863  1
  Ni  Ni49  1  0.66615720  0.33288075  0.66606318  1
  Cr  Cr50  1  0.83338829  0.50114538  0.83368846  1
  Ni  Ni51  1  0.83390688  0.83395065  0.50131442  1
  Ni  Ni52  1  0.66691292  0.66859945  0.66593043  1
  Ni  Ni53  1  0.83503841  0.83476967  0.83294757  1
" 