5091,Ni88Fe12_4,-228.952648680309, 163.001992782746,Ni88Fe12,"# generated using pymatgen
 data_Fe47Ni7
_symmetry_space_group_name_H-M   'P 1'
_cell_length_a   7.40265836
_cell_length_b   7.40265836
_cell_length_c   10.46893985
_cell_angle_alpha   90.00000000
_cell_angle_beta   90.00000000
_cell_angle_gamma   90.00000000
_symmetry_Int_Tables_number   1
_chemical_formula_structural   Fe47Ni7
_chemical_formula_sum   'Fe47 Ni7'
_cell_volume   573.69110750
_cell_formula_units_Z   1
loop_
 _symmetry_equiv_pos_site_id
 _symmetry_equiv_pos_as_xyz
  1  'x, y, z'
loop_
 _atom_site_type_symbol
 _atom_site_label
 _atom_site_symmetry_multiplicity
 _atom_site_fract_x
 _atom_site_fract_y
 _atom_site_fract_z
 _atom_site_occupancy
  Ni  Ni0  1  1.00351743  1.00396373  0.00469177  1
  Fe  Fe1  1  0.17121446  0.17101703  0.17024015  1
  Fe  Fe2  1  1.00396885  1.00406403  0.33723855  1
  Fe  Fe3  1  0.00492921  0.33700489  1.00425024  1
  Fe  Fe4  1  0.17101847  0.50434745  0.17101377  1
  Fe  Fe5  1  1.00396676  0.33796518  0.33806820  1
  Fe  Fe6  1  0.00488776  0.67095434  0.00508083  1
  Fe  Fe7  1  0.17034680  0.83768231  0.17111469  1
  Ni  Ni8  1  1.00366527  0.67101610  0.33791358  1
  Fe  Fe9  1  0.33710117  0.00502064  1.00381234  1
  Fe  Fe10  1  0.50396177  0.17130265  0.17063409  1
  Fe  Fe11  1  0.33704952  1.00361970  0.33821966  1
  Ni  Ni12  1  0.33863010  0.33794765  1.00377585  1
  Fe  Fe13  1  0.50406097  0.50396541  0.17126301  1
  Fe  Fe14  1  0.33733652  0.33869909  0.33704120  1
  Fe  Fe15  1  0.33714779  0.67097911  1.00371377  1
  Fe  Fe16  1  0.50444259  0.83778056  0.17101631  1
  Fe  Fe17  1  0.33739174  0.67073238  0.33860419  1
  Fe  Fe18  1  0.67105086  0.00498261  0.00444667  1
  Fe  Fe19  1  0.83787193  0.17063329  0.17136479  1
  Fe  Fe20  1  0.67203072  1.00400401  0.33787208  1
  Fe  Fe21  1  0.67108034  0.33704997  1.00434856  1
  Fe  Fe22  1  0.83796878  0.50482838  0.17130166  1
  Fe  Fe23  1  0.67174455  0.33831377  0.33835982  1
  Fe  Fe24  1  0.67101149  0.67101466  1.00434835  1
  Fe  Fe25  1  0.83825293  0.83758251  0.17091611  1
  Fe  Fe26  1  0.67129409  0.67072907  0.33777354  1
  Fe  Fe27  1  0.17136919  0.17136150  0.50463630  1
  Fe  Fe28  1  0.00526818  1.00409998  0.67145988  1
  Fe  Fe29  1  0.17130146  0.17072805  0.83817076  1
  Fe  Fe30  1  0.17085708  0.50428819  0.50425294  1
  Fe  Fe31  1  0.00523078  0.33729779  0.67072830  1
  Fe  Fe32  1  0.17149215  0.50435163  0.83777780  1
  Fe  Fe33  1  0.17130025  0.83739865  0.50463683  1
  Fe  Fe34  1  0.00565176  0.67164688  0.67047887  1
  Fe  Fe35  1  0.17120133  0.83796760  0.83729918  1
  Fe  Fe36  1  0.50473479  0.17130915  0.50453393  1
  Ni  Ni37  1  0.33802417  1.00399551  0.67135795  1
  Fe  Fe38  1  0.50377799  0.17101617  0.83787786  1
  Ni  Ni39  1  0.50350496  0.50519899  0.50447047  1
  Fe  Fe40  1  0.33796850  0.33807072  0.67146099  1
  Fe  Fe41  1  0.50387392  0.50435104  0.83714484  1
  Fe  Fe42  1  0.50440952  0.83784445  0.50501970  1
  Ni  Ni43  1  0.33802677  0.67136447  0.67056008  1
  Fe  Fe44  1  0.50387407  0.83768131  0.83701208  1
  Ni  Ni45  1  0.83840487  0.17029192  0.50434376  1
  Fe  Fe46  1  0.67010377  1.00400484  0.67072802  1
  Fe  Fe47  1  0.83796997  0.17072753  0.83733060  1
  Fe  Fe48  1  0.83738935  0.50396017  0.50397104  1
  Fe  Fe49  1  0.66984975  0.33768137  0.67033827  1
  Fe  Fe50  1  0.83768475  0.50444820  0.83777566  1
  Fe  Fe51  1  0.83733621  0.83733392  0.50386944  1
  Fe  Fe52  1  0.66933122  0.67136037  0.67092530  1
  Fe  Fe53  1  0.83796977  0.83786847  0.83826474  1
" 