4699,Ni88Fe7Cr4_5,-239.141325975305, 185.011390403077,Ni88Fe7Cr4,"# generated using pymatgen
 data_Cr3Fe4Ni47
_symmetry_space_group_name_H-M   'P 1'
_cell_length_a   7.44683037
_cell_length_b   7.44683037
_cell_length_c   10.53140850
_cell_angle_alpha   90.00000000
_cell_angle_beta   90.00000000
_cell_angle_gamma   90.00000000
_symmetry_Int_Tables_number   1
_chemical_formula_structural   Cr3Fe4Ni47
_chemical_formula_sum   'Cr3 Fe4 Ni47'
_cell_volume   584.02223359
_cell_formula_units_Z   1
loop_
 _symmetry_equiv_pos_site_id
 _symmetry_equiv_pos_as_xyz
  1  'x, y, z'
loop_
 _atom_site_type_symbol
 _atom_site_label
 _atom_site_symmetry_multiplicity
 _atom_site_fract_x
 _atom_site_fract_y
 _atom_site_fract_z
 _atom_site_occupancy
  Ni  Ni0  1  1.00103035  1.00126138  0.00230828  1
  Ni  Ni1  1  0.16701003  0.16903795  0.16701559  1
  Ni  Ni2  1  0.99874554  0.00181399  0.33432136  1
  Ni  Ni3  1  0.00179255  0.33360080  0.99971078  1
  Ni  Ni4  1  0.16936556  0.50130934  0.16736108  1
  Ni  Ni5  1  0.00313022  0.33367244  0.33605945  1
  Ni  Ni6  1  0.00164209  0.66928520  1.00035753  1
  Ni  Ni7  1  0.16720108  0.83363387  0.16818425  1
  Ni  Ni8  1  1.00131032  0.66859936  0.33591306  1
  Ni  Ni9  1  0.33471889  0.00143665  0.00137028  1
  Ni  Ni10  1  0.50190857  0.16869876  0.16706100  1
  Cr  Cr11  1  0.33487113  0.00171204  0.33442064  1
  Ni  Ni12  1  0.33507414  0.33446603  0.00154645  1
  Ni  Ni13  1  0.49933178  0.50172870  0.16861776  1
  Ni  Ni14  1  0.33407627  0.33600348  0.33450949  1
  Ni  Ni15  1  0.33509219  0.66820120  0.00150802  1
  Ni  Ni16  1  0.50204468  0.83364031  0.16660476  1
  Ni  Ni17  1  0.33540063  0.66590909  0.33505559  1
  Ni  Ni18  1  0.66832901  1.00122070  1.00070760  1
  Ni  Ni19  1  0.83519055  0.16634788  0.16813331  1
  Ni  Ni20  1  0.66956982  1.00032984  0.33507879  1
  Ni  Ni21  1  0.66719153  0.33389504  1.00106261  1
  Cr  Cr22  1  0.83480983  0.50164295  0.16849702  1
  Fe  Fe23  1  0.66758816  0.33376118  0.33577939  1
  Ni  Ni24  1  0.66736715  0.66891626  1.00062291  1
  Ni  Ni25  1  0.83471739  0.83606363  0.16771726  1
  Ni  Ni26  1  0.66728681  0.67010589  0.33536818  1
  Ni  Ni27  1  0.16630015  0.16860799  0.50143919  1
  Ni  Ni28  1  0.00153682  0.00154540  0.66740111  1
  Ni  Ni29  1  0.16710422  0.16574224  0.83580656  1
  Ni  Ni30  1  0.16703590  0.50167753  0.50126739  1
  Ni  Ni31  1  0.99904864  0.33419323  0.66825539  1
  Fe  Fe32  1  0.16741754  0.50264312  0.83519468  1
  Fe  Fe33  1  0.16709985  0.83400241  0.50205437  1
  Ni  Ni34  1  0.99997110  0.66838437  0.66772660  1
  Ni  Ni35  1  0.16824054  0.83570815  0.83388113  1
  Ni  Ni36  1  0.50230175  0.16745393  0.50173584  1
  Ni  Ni37  1  0.33429327  1.00028831  0.66782035  1
  Ni  Ni38  1  0.50158442  0.16724673  0.83524732  1
  Ni  Ni39  1  0.50178928  0.50290548  0.49990842  1
  Cr  Cr40  1  0.33509412  0.33441945  0.66859296  1
  Ni  Ni41  1  0.50316555  0.50254964  0.83570279  1
  Ni  Ni42  1  0.50263724  0.83358554  0.50296048  1
  Ni  Ni43  1  0.33570371  0.66980502  0.66733855  1
  Ni  Ni44  1  0.50045339  0.83425468  0.83453804  1
  Ni  Ni45  1  0.83569523  0.16769264  0.50145809  1
  Fe  Fe46  1  0.66882192  1.00104257  0.66834127  1
  Ni  Ni47  1  0.83543409  0.16838093  0.83441779  1
  Ni  Ni48  1  0.83524343  0.50190953  0.50164292  1
  Ni  Ni49  1  0.66957842  0.33566385  0.66698467  1
  Ni  Ni50  1  0.83405328  0.50140084  0.83405642  1
  Ni  Ni51  1  0.83421399  0.83438679  0.50131896  1
  Ni  Ni52  1  0.66829022  0.66725440  0.66819467  1
  Ni  Ni53  1  0.83539744  0.83426298  0.83512335  1
" 