749,Ni88Fe7Cr3_3,-238.93710954633, 181.580180908661,Ni88Fe7Cr3,"# generated using pymatgen
 data_CrFeNi16
_symmetry_space_group_name_H-M   'P 1'
_cell_length_a   7.45352266
_cell_length_b   7.45352266
_cell_length_c   10.54087284
_cell_angle_alpha   90.00000000
_cell_angle_beta   90.00000000
_cell_angle_gamma   90.00000000
_symmetry_Int_Tables_number   1
_chemical_formula_structural   CrFeNi16
_chemical_formula_sum   'Cr3 Fe3 Ni48'
_cell_volume   585.59819154
_cell_formula_units_Z   3
loop_
 _symmetry_equiv_pos_site_id
 _symmetry_equiv_pos_as_xyz
  1  'x, y, z'
loop_
 _atom_site_type_symbol
 _atom_site_label
 _atom_site_symmetry_multiplicity
 _atom_site_fract_x
 _atom_site_fract_y
 _atom_site_fract_z
 _atom_site_occupancy
  Ni  Ni0  1  0.99964377  1.00010377  1.00086552  1
  Cr  Cr1  1  0.16607406  0.16640021  0.16862816  1
  Ni  Ni2  1  0.99951942  0.99985646  0.33517323  1
  Ni  Ni3  1  0.99943257  0.33518449  1.00042508  1
  Ni  Ni4  1  0.16752879  0.50194674  0.16694976  1
  Ni  Ni5  1  0.99764342  0.33595180  0.33512036  1
  Ni  Ni6  1  0.00110925  0.66735939  1.00058220  1
  Ni  Ni7  1  0.16755621  0.83330458  0.16720772  1
  Ni  Ni8  1  0.00273994  0.66693363  0.33427762  1
  Ni  Ni9  1  0.33541879  0.99972651  0.99992824  1
  Ni  Ni10  1  0.50204775  0.16734700  0.16648997  1
  Ni  Ni11  1  0.33613687  0.99809469  0.33545110  1
  Ni  Ni12  1  0.33438140  0.33437031  0.00191320  1
  Ni  Ni13  1  0.50123101  0.50109531  0.16821155  1
  Fe  Fe14  1  0.33421422  0.33368444  0.33489510  1
  Ni  Ni15  1  0.33321427  0.66856115  0.00209252  1
  Ni  Ni16  1  0.50116404  0.83418557  0.16739638  1
  Ni  Ni17  1  0.33363226  0.66795431  0.33387301  1
  Ni  Ni18  1  0.66769197  0.00137624  0.00123827  1
  Ni  Ni19  1  0.83299154  0.16737926  0.16763708  1
  Ni  Ni20  1  0.66697482  0.00312425  0.33394811  1
  Ni  Ni21  1  0.66904892  0.33310870  0.00195023  1
  Ni  Ni22  1  0.83404112  0.50096448  0.16695457  1
  Ni  Ni23  1  0.66806286  0.33335145  0.33396044  1
  Ni  Ni24  1  0.66848127  0.66827164  0.00283623  1
  Ni  Ni25  1  0.83437387  0.83468016  0.16759120  1
  Fe  Fe26  1  0.66908257  0.66860088  0.33415522  1
  Ni  Ni27  1  0.16704441  0.16705348  0.50076937  1
  Ni  Ni28  1  1.00065510  0.00100845  0.66681393  1
  Ni  Ni29  1  0.16690327  0.16747887  0.83388919  1
  Ni  Ni30  1  0.16675004  0.49963408  0.50026292  1
  Ni  Ni31  1  1.00031033  0.33432357  0.66737564  1
  Ni  Ni32  1  0.16597932  0.49889543  0.83543012  1
  Ni  Ni33  1  0.16661602  0.83564665  0.50018738  1
  Ni  Ni34  1  0.99966180  0.66731771  0.66789098  1
  Ni  Ni35  1  0.16653958  0.83626241  0.83548394  1
  Ni  Ni36  1  0.50099006  0.16743324  0.50181547  1
  Ni  Ni37  1  0.33457759  0.00207235  0.66760415  1
  Fe  Fe38  1  0.50110306  0.16680256  0.83422772  1
  Ni  Ni39  1  0.50208165  0.50020308  0.49936874  1
  Ni  Ni40  1  0.33349616  0.33233653  0.66560321  1
  Cr  Cr41  1  0.50284391  0.50143314  0.83476061  1
  Ni  Ni42  1  0.50222011  0.83496902  0.50028357  1
  Cr  Cr43  1  0.33200028  0.66919640  0.66685074  1
  Ni  Ni44  1  0.50256771  0.83575982  0.83506970  1
  Ni  Ni45  1  0.83449823  0.16735426  0.50067846  1
  Ni  Ni46  1  0.66765787  0.00151284  0.66749224  1
  Ni  Ni47  1  0.83560045  0.16714339  0.83448491  1
  Ni  Ni48  1  0.83399609  0.50092865  0.50174994  1
  Ni  Ni49  1  0.66912988  0.33284063  0.66669889  1
  Ni  Ni50  1  0.83494467  0.50091816  0.83397114  1
  Ni  Ni51  1  0.83428991  0.83469703  0.50112292  1
  Ni  Ni52  1  0.66958603  0.66831743  0.66540064  1
  Ni  Ni53  1  0.83351291  0.83453679  0.83395484  1
" 