8023,Ni88Fe5Cr5_5,-236.964089852911, 173.128254513661,Ni88Fe5Cr5,"# generated using pymatgen
 data_Cr5Fe2Ni47
_symmetry_space_group_name_H-M   'P 1'
_cell_length_a   7.45487744
_cell_length_b   7.45487744
_cell_length_c   10.54278878
_cell_angle_alpha   90.00000000
_cell_angle_beta   90.00000000
_cell_angle_gamma   90.00000000
_symmetry_Int_Tables_number   1
_chemical_formula_structural   Cr5Fe2Ni47
_chemical_formula_sum   'Cr5 Fe2 Ni47'
_cell_volume   585.91756970
_cell_formula_units_Z   1
loop_
 _symmetry_equiv_pos_site_id
 _symmetry_equiv_pos_as_xyz
  1  'x, y, z'
loop_
 _atom_site_type_symbol
 _atom_site_label
 _atom_site_symmetry_multiplicity
 _atom_site_fract_x
 _atom_site_fract_y
 _atom_site_fract_z
 _atom_site_occupancy
  Ni  Ni0  1  0.00086892  0.99898268  1.00049604  1
  Ni  Ni1  1  0.16814607  0.16719049  0.16866827  1
  Ni  Ni2  1  0.00103811  1.00036118  0.33465514  1
  Cr  Cr3  1  1.00073655  0.33384291  0.00095924  1
  Ni  Ni4  1  0.16906558  0.50172877  0.16808941  1
  Fe  Fe5  1  1.00015823  0.33295304  0.33388797  1
  Ni  Ni6  1  0.00110233  0.66925055  1.00061947  1
  Ni  Ni7  1  0.16686384  0.83353102  0.16749366  1
  Ni  Ni8  1  1.00024318  0.66885536  0.33324843  1
  Ni  Ni9  1  0.33402882  1.00070273  0.00084619  1
  Ni  Ni10  1  0.50122218  0.16811533  0.16711338  1
  Ni  Ni11  1  0.33265555  1.00025366  0.33373147  1
  Ni  Ni12  1  0.33578408  0.33432334  1.00050458  1
  Ni  Ni13  1  0.49996228  0.50048821  0.16768647  1
  Ni  Ni14  1  0.33461277  0.33430663  0.33260259  1
  Ni  Ni15  1  0.33392232  0.66742703  0.00093604  1
  Ni  Ni16  1  0.50126260  0.83384698  0.16781502  1
  Ni  Ni17  1  0.33453115  0.66788088  0.33362977  1
  Ni  Ni18  1  0.66754832  0.00089251  0.00094927  1
  Ni  Ni19  1  0.83306234  0.16589153  0.16847636  1
  Ni  Ni20  1  0.66874182  1.00044157  0.33341417  1
  Ni  Ni21  1  0.66568475  0.33408546  1.00062609  1
  Fe  Fe22  1  0.83303482  0.50204184  0.16804584  1
  Ni  Ni23  1  0.66777564  0.33510900  0.33348123  1
  Ni  Ni24  1  0.66741384  0.66748657  1.00048448  1
  Ni  Ni25  1  0.83432203  0.83477593  0.16730250  1
  Ni  Ni26  1  0.66765269  0.66691180  0.33507980  1
  Ni  Ni27  1  0.16569744  0.16590185  0.50110200  1
  Ni  Ni28  1  0.00089874  0.00299144  0.66730547  1
  Ni  Ni29  1  0.16826014  0.16705791  0.83266965  1
  Cr  Cr30  1  0.16793869  0.49919725  0.49953217  1
  Ni  Ni31  1  0.99979172  0.33135854  0.66744530  1
  Ni  Ni32  1  0.16833209  0.49992247  0.83506731  1
  Ni  Ni33  1  0.16710821  0.83710496  0.49897580  1
  Cr  Cr34  1  0.99866641  0.66840288  0.66876030  1
  Ni  Ni35  1  0.16711611  0.83547939  0.83599094  1
  Cr  Cr36  1  0.50075413  0.16750176  0.50106651  1
  Ni  Ni37  1  0.33302116  0.00202685  0.66788502  1
  Ni  Ni38  1  0.50083330  0.16787008  0.83450328  1
  Ni  Ni39  1  0.50329035  0.50180366  0.50029315  1
  Ni  Ni40  1  0.33413870  0.33233071  0.66938018  1
  Ni  Ni41  1  0.50144761  0.49983109  0.83447467  1
  Ni  Ni42  1  0.50203767  0.83306652  0.49991855  1
  Cr  Cr43  1  0.33657115  0.66848549  0.66776199  1
  Ni  Ni44  1  0.50187311  0.83474564  0.83469385  1
  Ni  Ni45  1  0.83574978  0.16721522  0.50112324  1
  Ni  Ni46  1  0.66852240  1.00047148  0.66811033  1
  Ni  Ni47  1  0.83335428  0.16664721  0.83284462  1
  Ni  Ni48  1  0.83172133  0.50040876  0.49983132  1
  Ni  Ni49  1  0.66851001  0.33493618  0.66832851  1
  Ni  Ni50  1  0.83266166  0.50096932  0.83416506  1
  Ni  Ni51  1  0.83331467  0.83481702  0.50029585  1
  Ni  Ni52  1  0.66755973  0.66702428  0.66684817  1
  Ni  Ni53  1  0.83346638  0.83483283  0.83486166  1
" 