187,Ni88Fe12_0,-229.216192503377, 162.092398680934,Ni88Fe12,"# generated using pymatgen
 data_Fe47Ni7
_symmetry_space_group_name_H-M   'P 1'
_cell_length_a   7.40587886
_cell_length_b   7.40587886
_cell_length_c   10.47349432
_cell_angle_alpha   90.00000000
_cell_angle_beta   90.00000000
_cell_angle_gamma   90.00000000
_symmetry_Int_Tables_number   1
_chemical_formula_structural   Fe47Ni7
_chemical_formula_sum   'Fe47 Ni7'
_cell_volume   574.44017929
_cell_formula_units_Z   1
loop_
 _symmetry_equiv_pos_site_id
 _symmetry_equiv_pos_as_xyz
  1  'x, y, z'
loop_
 _atom_site_type_symbol
 _atom_site_label
 _atom_site_symmetry_multiplicity
 _atom_site_fract_x
 _atom_site_fract_y
 _atom_site_fract_z
 _atom_site_occupancy
  Fe  Fe0  1  1.00342656  1.00298899  0.00537873  1
  Fe  Fe1  1  0.17052264  0.16998403  0.17106535  1
  Ni  Ni2  1  0.00446100  0.00424479  0.33779189  1
  Fe  Fe3  1  1.00351224  0.33808069  1.00375824  1
  Fe  Fe4  1  0.17091778  0.50522066  0.17070425  1
  Fe  Fe5  1  1.00385084  0.33711087  0.33801785  1
  Fe  Fe6  1  1.00357259  0.67134576  0.00449393  1
  Ni  Ni7  1  0.16958057  0.83838605  0.17048552  1
  Fe  Fe8  1  1.00395046  0.67172438  0.33737335  1
  Fe  Fe9  1  0.33779912  1.00332649  1.00350909  1
  Fe  Fe10  1  0.50403605  0.17017476  0.17079807  1
  Fe  Fe11  1  0.33654831  1.00392832  0.33799614  1
  Fe  Fe12  1  0.33843413  0.33843036  0.00441750  1
  Ni  Ni13  1  0.50435992  0.50306276  0.17081111  1
  Fe  Fe14  1  0.33721406  0.33712511  0.33708283  1
  Fe  Fe15  1  0.33801703  0.67061861  0.00470768  1
  Fe  Fe16  1  0.50441238  0.83650710  0.17042658  1
  Fe  Fe17  1  0.33675917  0.67132255  0.33688136  1
  Fe  Fe18  1  0.67116667  1.00337471  0.00422897  1
  Fe  Fe19  1  0.83783350  0.16989457  0.17108067  1
  Fe  Fe20  1  0.67172142  1.00402695  0.33727456  1
  Fe  Fe21  1  0.67044172  0.33827669  0.00432414  1
  Fe  Fe22  1  0.83715524  0.50558211  0.17104986  1
  Fe  Fe23  1  0.67132153  0.33730516  0.33763886  1
  Ni  Ni24  1  0.67080446  0.67026215  0.00448875  1
  Ni  Ni25  1  0.83889691  0.83794186  0.17091754  1
  Fe  Fe26  1  0.67168315  0.67104010  0.33664440  1
  Fe  Fe27  1  0.17018791  0.17095397  0.50422318  1
  Fe  Fe28  1  0.00476042  1.00411081  0.67026811  1
  Fe  Fe29  1  0.17106781  0.17060098  0.83710626  1
  Fe  Fe30  1  0.17014674  0.50404098  0.50431214  1
  Fe  Fe31  1  0.00445545  0.33722427  0.67060799  1
  Fe  Fe32  1  0.17070593  0.50395316  0.83737259  1
  Fe  Fe33  1  0.17028368  0.83740149  0.50360780  1
  Fe  Fe34  1  0.00454792  0.67105321  0.67051232  1
  Fe  Fe35  1  0.17116483  0.83784062  0.83761624  1
  Fe  Fe36  1  0.50446118  0.17112426  0.50458807  1
  Ni  Ni37  1  0.33701805  0.00444721  0.67035135  1
  Fe  Fe38  1  0.50375677  0.17041969  0.83699606  1
  Fe  Fe39  1  0.50477194  0.50414449  0.50339614  1
  Fe  Fe40  1  0.33747346  0.33683383  0.67088856  1
  Fe  Fe41  1  0.50440681  0.50441367  0.83854504  1
  Fe  Fe42  1  0.50446983  0.83712185  0.50477812  1
  Fe  Fe43  1  0.33736861  0.67144636  0.67079445  1
  Fe  Fe44  1  0.50412933  0.83755014  0.83718030  1
  Fe  Fe45  1  0.83773902  0.17125113  0.50385422  1
  Fe  Fe46  1  0.67006555  0.00421534  0.67088909  1
  Fe  Fe47  1  0.83756041  0.17087869  0.83746687  1
  Ni  Ni48  1  0.83713532  0.50392992  0.50413356  1
  Fe  Fe49  1  0.67045647  0.33704451  0.67042221  1
  Fe  Fe50  1  0.83727129  0.50432542  0.83692417  1
  Fe  Fe51  1  0.83763668  0.83708250  0.50323415  1
  Fe  Fe52  1  0.67047047  0.67112597  0.67113417  1
  Fe  Fe53  1  0.83709481  0.83718507  0.83845573  1
" 