7230,Ni88Fe7Cr4_7,-239.263111574852, 185.50837794512,Ni88Fe7Cr4,"# generated using pymatgen
 data_Cr3Fe4Ni47
_symmetry_space_group_name_H-M   'P 1'
_cell_length_a   7.44703299
_cell_length_b   7.44703299
_cell_length_c   10.53169506
_cell_angle_alpha   90.00000000
_cell_angle_beta   90.00000000
_cell_angle_gamma   90.00000000
_symmetry_Int_Tables_number   1
_chemical_formula_structural   Cr3Fe4Ni47
_chemical_formula_sum   'Cr3 Fe4 Ni47'
_cell_volume   584.06990799
_cell_formula_units_Z   1
loop_
 _symmetry_equiv_pos_site_id
 _symmetry_equiv_pos_as_xyz
  1  'x, y, z'
loop_
 _atom_site_type_symbol
 _atom_site_label
 _atom_site_symmetry_multiplicity
 _atom_site_fract_x
 _atom_site_fract_y
 _atom_site_fract_z
 _atom_site_occupancy
  Ni  Ni0  1  1.00095054  0.00162141  1.00103841  1
  Ni  Ni1  1  0.16806939  0.16820121  0.16826618  1
  Ni  Ni2  1  1.00134358  0.00146162  0.33496496  1
  Ni  Ni3  1  0.00202559  0.33483312  1.00103817  1
  Ni  Ni4  1  0.16765034  0.50008720  0.16887233  1
  Ni  Ni5  1  0.00159408  0.33474893  0.33517127  1
  Ni  Ni6  1  0.99891877  0.66757844  1.00114143  1
  Ni  Ni7  1  0.16790257  0.83574372  0.16908212  1
  Ni  Ni8  1  1.00108982  0.66782067  0.33437971  1
  Ni  Ni9  1  0.33506236  0.00338853  1.00123055  1
  Fe  Fe10  1  0.50103087  0.16779105  0.16796550  1
  Ni  Ni11  1  0.33400258  1.00040293  0.33348468  1
  Ni  Ni12  1  0.33400617  0.33307791  1.00123063  1
  Ni  Ni13  1  0.50205541  0.50102867  0.16959811  1
  Ni  Ni14  1  0.33368500  0.33574549  0.33367767  1
  Cr  Cr15  1  0.33492914  0.66774233  1.00065444  1
  Ni  Ni16  1  0.50212310  0.83512211  0.16906509  1
  Ni  Ni17  1  0.33525250  0.66788392  0.33545978  1
  Ni  Ni18  1  0.66801921  1.00028213  1.00078424  1
  Ni  Ni19  1  0.83494924  0.16813018  0.16857398  1
  Ni  Ni20  1  0.66868654  0.99989802  0.33437512  1
  Fe  Fe21  1  0.66857898  0.33470096  1.00102163  1
  Ni  Ni22  1  0.83432449  0.50119421  0.16788226  1
  Ni  Ni23  1  0.66875170  0.33599727  0.33384238  1
  Ni  Ni24  1  0.66977017  0.66863397  0.00147141  1
  Ni  Ni25  1  0.83400313  0.83470452  0.16807285  1
  Ni  Ni26  1  0.66768863  0.66813701  0.33448869  1
  Ni  Ni27  1  0.16667823  0.16844382  0.50134108  1
  Ni  Ni28  1  0.00173675  0.00144603  0.66802782  1
  Ni  Ni29  1  0.16864287  0.16820048  0.83442372  1
  Ni  Ni30  1  0.16737944  0.50140485  0.50127369  1
  Ni  Ni31  1  0.00198792  0.33476517  0.66782008  1
  Ni  Ni32  1  0.16733494  0.50043903  0.83388385  1
  Ni  Ni33  1  0.16844130  0.83418539  0.50127206  1
  Ni  Ni34  1  0.00244402  0.66781963  0.66850950  1
  Ni  Ni35  1  0.16758378  0.83539404  0.83367746  1
  Cr  Cr36  1  0.50175574  0.16734082  0.50105755  1
  Ni  Ni37  1  0.33393105  1.00128199  0.66931824  1
  Ni  Ni38  1  0.50127806  0.16788368  0.83522026  1
  Fe  Fe39  1  0.50072860  0.50188668  0.50014891  1
  Ni  Ni40  1  0.33361290  0.33487409  0.66912352  1
  Ni  Ni41  1  0.50134273  0.49951427  0.83395793  1
  Ni  Ni42  1  0.50061756  0.83445820  0.50047283  1
  Fe  Fe43  1  0.33271831  0.66827625  0.66791056  1
  Ni  Ni44  1  0.50140752  0.83663279  0.83448996  1
  Ni  Ni45  1  0.83574232  0.16845469  0.50162902  1
  Ni  Ni46  1  0.66836268  0.00173691  0.66887168  1
  Ni  Ni47  1  0.83411066  0.16813239  0.83383045  1
  Ni  Ni48  1  0.83602225  0.50041025  0.50027962  1
  Ni  Ni49  1  0.66842860  0.33416167  0.66940387  1
  Ni  Ni50  1  0.83534840  0.50056954  0.83586881  1
  Ni  Ni51  1  0.83496689  0.83516837  0.50027834  1
  Cr  Cr52  1  0.66846330  0.66839937  0.66796181  1
  Ni  Ni53  1  0.83503438  0.83532717  0.83567886  1
" 