3527,Ni88Fe7Cr4_10,-239.199136930625, 185.892845327906,Ni88Fe7Cr4,"# generated using pymatgen
 data_Cr3Fe4Ni47
_symmetry_space_group_name_H-M   'P 1'
_cell_length_a   7.44732456
_cell_length_b   7.44732456
_cell_length_c   10.53210740
_cell_angle_alpha   90.00000000
_cell_angle_beta   90.00000000
_cell_angle_gamma   90.00000000
_symmetry_Int_Tables_number   1
_chemical_formula_structural   Cr3Fe4Ni47
_chemical_formula_sum   'Cr3 Fe4 Ni47'
_cell_volume   584.13851469
_cell_formula_units_Z   1
loop_
 _symmetry_equiv_pos_site_id
 _symmetry_equiv_pos_as_xyz
  1  'x, y, z'
loop_
 _atom_site_type_symbol
 _atom_site_label
 _atom_site_symmetry_multiplicity
 _atom_site_fract_x
 _atom_site_fract_y
 _atom_site_fract_z
 _atom_site_occupancy
  Ni  Ni0  1  0.00219544  1.00076231  0.00294576  1
  Ni  Ni1  1  0.16621339  0.16799059  0.16755608  1
  Fe  Fe2  1  0.00162571  1.00113952  0.33460485  1
  Ni  Ni3  1  0.00212620  0.33531022  0.00288221  1
  Ni  Ni4  1  0.16768382  0.50196624  0.16780365  1
  Fe  Fe5  1  0.00163302  0.33488874  0.33464737  1
  Ni  Ni6  1  1.00093696  0.66789819  0.00135719  1
  Ni  Ni7  1  0.16819184  0.83401654  0.16831061  1
  Ni  Ni8  1  0.00303841  0.66802726  0.33462484  1
  Ni  Ni9  1  0.33369342  1.00094701  1.00053854  1
  Cr  Cr10  1  0.50188259  0.16760682  0.16716665  1
  Ni  Ni11  1  0.33387918  1.00108465  0.33543819  1
  Ni  Ni12  1  0.33370202  0.33506952  1.00049500  1
  Ni  Ni13  1  0.50077276  0.50243330  0.16732423  1
  Ni  Ni14  1  0.33381348  0.33480257  0.33537610  1
  Ni  Ni15  1  0.33470427  0.66795614  0.00229505  1
  Ni  Ni16  1  0.50051796  0.83379969  0.16710191  1
  Ni  Ni17  1  0.33219259  0.66808535  0.33431734  1
  Ni  Ni18  1  0.66808710  0.99975767  0.00185507  1
  Ni  Ni19  1  0.83572996  0.16824433  0.16843384  1
  Ni  Ni20  1  0.66864608  0.00266993  0.33543821  1
  Ni  Ni21  1  0.66814362  0.33631970  0.00179504  1
  Ni  Ni22  1  0.83551422  0.50045669  0.16680457  1
  Ni  Ni23  1  0.66870209  0.33320865  0.33537668  1
  Ni  Ni24  1  0.66833214  0.66789049  0.00173204  1
  Ni  Ni25  1  0.83526221  0.83527068  0.16658037  1
  Cr  Cr26  1  0.66850591  0.66816945  0.33428276  1
  Ni  Ni27  1  0.16840626  0.16820876  0.50174045  1
  Ni  Ni28  1  0.00219345  1.00052333  0.66660455  1
  Ni  Ni29  1  0.16973092  0.16777069  0.83468122  1
  Ni  Ni30  1  0.16725920  0.50178965  0.50143109  1
  Ni  Ni31  1  0.00212388  0.33552037  0.66671106  1
  Ni  Ni32  1  0.16769334  0.50184592  0.83474048  1
  Ni  Ni33  1  0.16859142  0.83397437  0.50117710  1
  Ni  Ni34  1  1.00093558  0.66792578  0.66799232  1
  Ni  Ni35  1  0.16902592  0.83435338  0.83448587  1
  Ni  Ni36  1  0.50202638  0.16713282  0.50174546  1
  Ni  Ni37  1  0.33448913  0.00176738  0.66799249  1
  Ni  Ni38  1  0.50004114  0.16751567  0.83455817  1
  Fe  Fe39  1  0.50041980  0.50033115  0.50209263  1
  Ni  Ni40  1  0.33442329  0.33414619  0.66809629  1
  Ni  Ni41  1  0.50163350  0.50165744  0.83445932  1
  Ni  Ni42  1  0.50051838  0.83637402  0.50193721  1
  Ni  Ni43  1  0.33436599  0.66805648  0.66735860  1
  Ni  Ni44  1  0.50056135  0.83479700  0.83493511  1
  Ni  Ni45  1  0.83353971  0.16846273  0.50086262  1
  Ni  Ni46  1  0.66729239  1.00057972  0.66667723  1
  Cr  Cr47  1  0.83430132  0.16883806  0.83469429  1
  Ni  Ni48  1  0.83593633  0.50028044  0.50243100  1
  Ni  Ni49  1  0.66742234  0.33539909  0.66679576  1
  Ni  Ni50  1  0.83464554  0.50236995  0.83474014  1
  Ni  Ni51  1  0.83486176  0.83522702  0.50290631  1
  Ni  Ni52  1  0.66867090  0.66799153  0.66792247  1
  Fe  Fe53  1  0.83466957  0.83289399  0.83465179  1
" 