4883,Ni88Fe7Cr4_1,-239.181079044552, 184.239412437606,Ni88Fe7Cr4,"# generated using pymatgen
 data_Cr3Fe4Ni47
_symmetry_space_group_name_H-M   'P 1'
_cell_length_a   7.44875201
_cell_length_b   7.44875201
_cell_length_c   10.53412612
_cell_angle_alpha   90.00000000
_cell_angle_beta   90.00000000
_cell_angle_gamma   90.00000000
_symmetry_Int_Tables_number   1
_chemical_formula_structural   Cr3Fe4Ni47
_chemical_formula_sum   'Cr3 Fe4 Ni47'
_cell_volume   584.47446939
_cell_formula_units_Z   1
loop_
 _symmetry_equiv_pos_site_id
 _symmetry_equiv_pos_as_xyz
  1  'x, y, z'
loop_
 _atom_site_type_symbol
 _atom_site_label
 _atom_site_symmetry_multiplicity
 _atom_site_fract_x
 _atom_site_fract_y
 _atom_site_fract_z
 _atom_site_occupancy
  Ni  Ni0  1  1.00049458  0.00165502  0.00126742  1
  Ni  Ni1  1  0.16737734  0.16765216  0.16869868  1
  Ni  Ni2  1  0.99972830  0.00394948  0.33330927  1
  Ni  Ni3  1  0.00204192  0.33488552  0.00127139  1
  Ni  Ni4  1  0.16862107  0.49981318  0.16750945  1
  Ni  Ni5  1  1.00113832  0.33305965  0.33518044  1
  Ni  Ni6  1  1.00080024  0.66721012  1.00091179  1
  Ni  Ni7  1  0.16827304  0.83619136  0.16635717  1
  Cr  Cr8  1  1.00065868  0.66615209  0.33294061  1
  Ni  Ni9  1  0.33474852  1.00049424  0.99984750  1
  Cr  Cr10  1  0.50061192  0.16875974  0.16711703  1
  Ni  Ni11  1  0.33536854  0.00144946  0.33464868  1
  Ni  Ni12  1  0.33276092  0.33577594  0.99978692  1
  Ni  Ni13  1  0.50208986  0.50233649  0.16797727  1
  Ni  Ni14  1  0.33392829  0.33571792  0.33595397  1
  Ni  Ni15  1  0.33525729  0.66745333  0.00197286  1
  Ni  Ni16  1  0.50197930  0.83354894  0.16903001  1
  Ni  Ni17  1  0.33759176  0.66644171  0.33277012  1
  Ni  Ni18  1  0.66854769  0.99911114  1.00022836  1
  Fe  Fe19  1  0.83597168  0.16790542  0.16792960  1
  Ni  Ni20  1  0.66870533  1.00032328  0.33560561  1
  Fe  Fe21  1  0.66837962  0.33594529  0.99966224  1
  Ni  Ni22  1  0.83306528  0.50140844  0.16721548  1
  Ni  Ni23  1  0.66881393  0.33538358  0.33448518  1
  Ni  Ni24  1  0.66767628  0.66903923  1.00086873  1
  Ni  Ni25  1  0.83363743  0.83460697  0.16720479  1
  Ni  Ni26  1  0.66626801  0.66804159  0.33547208  1
  Ni  Ni27  1  0.16852812  0.16882301  0.50120015  1
  Ni  Ni28  1  0.99929812  0.00243395  0.66907551  1
  Ni  Ni29  1  0.16806415  0.16760967  0.83380809  1
  Ni  Ni30  1  0.16911457  0.49913496  0.50183282  1
  Ni  Ni31  1  1.00069953  0.33477072  0.66713243  1
  Ni  Ni32  1  0.16776101  0.50140587  0.83429950  1
  Cr  Cr33  1  0.16728037  0.83580554  0.50201429  1
  Ni  Ni34  1  1.00084660  0.66650191  0.66951573  1
  Ni  Ni35  1  0.16742987  0.83465740  0.83545761  1
  Ni  Ni36  1  0.50146750  0.16898488  0.50149064  1
  Ni  Ni37  1  0.33643665  0.00219487  0.66927677  1
  Ni  Ni38  1  0.50124097  0.16806229  0.83444228  1
  Ni  Ni39  1  0.50181377  0.49978581  0.50052554  1
  Ni  Ni40  1  0.33512242  0.33507480  0.66776246  1
  Ni  Ni41  1  0.50132657  0.50083798  0.83523646  1
  Fe  Fe42  1  0.50202816  0.83470916  0.50131917  1
  Ni  Ni43  1  0.33511958  0.66632054  0.66912275  1
  Ni  Ni44  1  0.50133130  0.83478524  0.83414765  1
  Ni  Ni45  1  0.83379732  0.16772424  0.50008499  1
  Ni  Ni46  1  0.66798343  0.00215039  0.66769498  1
  Ni  Ni47  1  0.83438846  0.16776563  0.83527456  1
  Ni  Ni48  1  0.83281084  0.50065359  0.50229017  1
  Ni  Ni49  1  0.66789607  0.33334518  0.66873402  1
  Ni  Ni50  1  0.83458055  0.50146760  0.83427614  1
  Ni  Ni51  1  0.83274235  0.83525425  0.50235004  1
  Fe  Fe52  1  0.66769499  0.66726113  0.66845127  1
  Ni  Ni53  1  0.83497884  0.83448540  0.83427862  1
" 