3649,Ni88Fe5Cr5_6,-236.972147735559, 173.400518454045,Ni88Fe5Cr5,"# generated using pymatgen
 data_Cr5Fe2Ni47
_symmetry_space_group_name_H-M   'P 1'
_cell_length_a   7.45958066
_cell_length_b   7.45958066
_cell_length_c   10.54944015
_cell_angle_alpha   90.00000000
_cell_angle_beta   90.00000000
_cell_angle_gamma   90.00000000
_symmetry_Int_Tables_number   1
_chemical_formula_structural   Cr5Fe2Ni47
_chemical_formula_sum   'Cr5 Fe2 Ni47'
_cell_volume   587.02722259
_cell_formula_units_Z   1
loop_
 _symmetry_equiv_pos_site_id
 _symmetry_equiv_pos_as_xyz
  1  'x, y, z'
loop_
 _atom_site_type_symbol
 _atom_site_label
 _atom_site_symmetry_multiplicity
 _atom_site_fract_x
 _atom_site_fract_y
 _atom_site_fract_z
 _atom_site_occupancy
  Ni  Ni0  1  0.00499284  0.00164859  0.99931819  1
  Ni  Ni1  1  0.16901956  0.16775686  0.16738159  1
  Ni  Ni2  1  0.00221194  0.00050131  0.33558064  1
  Ni  Ni3  1  0.00103037  0.33527442  0.99942238  1
  Ni  Ni4  1  0.16775927  0.50010983  0.16725179  1
  Ni  Ni5  1  0.00112228  0.33488714  0.33471632  1
  Ni  Ni6  1  0.00262664  0.66467641  0.00050702  1
  Ni  Ni7  1  0.16866369  0.83362472  0.16715510  1
  Ni  Ni8  1  0.00169825  0.66607450  0.33465101  1
  Ni  Ni9  1  0.33246714  1.00028776  1.00016629  1
  Ni  Ni10  1  0.49756594  0.16884688  0.16846689  1
  Ni  Ni11  1  0.33399854  1.00017548  0.33415488  1
  Ni  Ni12  1  0.33387410  0.33401774  1.00016451  1
  Ni  Ni13  1  0.50007570  0.50038574  0.16705028  1
  Ni  Ni14  1  0.33382309  0.33420513  0.33422973  1
  Ni  Ni15  1  0.33355912  0.66715547  0.00067924  1
  Ni  Ni16  1  0.49823788  0.83226063  0.16821565  1
  Ni  Ni17  1  0.33355562  0.66712710  0.33349696  1
  Cr  Cr18  1  0.66379498  0.00279059  1.00020949  1
  Cr  Cr19  1  0.83530285  0.16931086  0.16765271  1
  Ni  Ni20  1  0.66530419  0.00082375  0.33555229  1
  Ni  Ni21  1  0.66661031  0.33642438  0.99981182  1
  Ni  Ni22  1  0.83364737  0.50072224  0.16752386  1
  Ni  Ni23  1  0.66649855  0.33442840  0.33412558  1
  Ni  Ni24  1  0.66530167  0.66359208  0.99979002  1
  Cr  Cr25  1  0.83485845  0.83154045  0.16780003  1
  Ni  Ni26  1  0.66626770  0.66614226  0.33519837  1
  Ni  Ni27  1  0.16711107  0.16793262  0.50076733  1
  Ni  Ni28  1  0.00089736  0.00107073  0.66658471  1
  Ni  Ni29  1  0.16744448  0.16776804  0.83331800  1
  Ni  Ni30  1  0.16756634  0.49929827  0.49963751  1
  Ni  Ni31  1  0.99997533  0.33429726  0.66724403  1
  Ni  Ni32  1  0.16689535  0.49933016  0.83456140  1
  Ni  Ni33  1  0.16602902  0.83425031  0.49960850  1
  Ni  Ni34  1  0.00053666  0.66603341  0.66625236  1
  Ni  Ni35  1  0.16773894  0.83438068  0.83469566  1
  Ni  Ni36  1  0.50052594  0.16806574  0.50037911  1
  Ni  Ni37  1  0.33434103  0.00131967  0.66718179  1
  Ni  Ni38  1  0.49930625  0.16867926  0.83274636  1
  Ni  Ni39  1  0.50028321  0.49921934  0.49970283  1
  Ni  Ni40  1  0.33413482  0.33299225  0.66707550  1
  Ni  Ni41  1  0.50072069  0.49915764  0.83471969  1
  Ni  Ni42  1  0.50158104  0.83412979  0.49967762  1
  Cr  Cr43  1  0.33241441  0.66701736  0.66727214  1
  Ni  Ni44  1  0.49908438  0.83357692  0.83375530  1
  Ni  Ni45  1  0.83389291  0.16636870  0.50056422  1
  Ni  Ni46  1  0.66634138  0.00236877  0.66621348  1
  Ni  Ni47  1  0.83484144  0.16948816  0.83313150  1
  Fe  Fe48  1  0.83396047  0.49977512  0.50026025  1
  Ni  Ni49  1  0.66741833  0.33281054  0.66750896  1
  Ni  Ni50  1  0.83388919  0.49902832  0.83347907  1
  Ni  Ni51  1  0.83394984  0.83435645  0.50047659  1
  Fe  Fe52  1  0.66726631  0.66623579  0.66642621  1
  Cr  Cr53  1  0.83501244  0.83328464  0.83351388  1
" 