2083,Ni88Fe7Cr3_8,-238.908605221854, 182.014591217689,Ni88Fe7Cr3,"# generated using pymatgen
 data_CrFeNi16
_symmetry_space_group_name_H-M   'P 1'
_cell_length_a   7.45506640
_cell_length_b   7.45506640
_cell_length_c   10.54305601
_cell_angle_alpha   90.00000000
_cell_angle_beta   90.00000000
_cell_angle_gamma   90.00000000
_symmetry_Int_Tables_number   1
_chemical_formula_structural   CrFeNi16
_chemical_formula_sum   'Cr3 Fe3 Ni48'
_cell_volume   585.96212571
_cell_formula_units_Z   3
loop_
 _symmetry_equiv_pos_site_id
 _symmetry_equiv_pos_as_xyz
  1  'x, y, z'
loop_
 _atom_site_type_symbol
 _atom_site_label
 _atom_site_symmetry_multiplicity
 _atom_site_fract_x
 _atom_site_fract_y
 _atom_site_fract_z
 _atom_site_occupancy
  Ni  Ni0  1  1.00038797  1.00076645  1.00051509  1
  Ni  Ni1  1  0.16572164  0.16751463  0.16741901  1
  Ni  Ni2  1  1.00072933  0.00088140  0.33406712  1
  Ni  Ni3  1  0.00145001  0.33332519  0.00160829  1
  Ni  Ni4  1  0.16685861  0.50114800  0.16747831  1
  Ni  Ni5  1  1.00065473  0.33415986  0.33414161  1
  Ni  Ni6  1  0.00186611  0.66831810  0.00142452  1
  Ni  Ni7  1  0.16754259  0.83374846  0.16717163  1
  Ni  Ni8  1  0.00116712  0.66737348  0.33425206  1
  Ni  Ni9  1  0.33351536  0.99954594  0.99956510  1
  Cr  Cr10  1  0.50077367  0.16691270  0.16801915  1
  Ni  Ni11  1  0.33353247  0.99956091  0.33538109  1
  Ni  Ni12  1  0.33344403  0.33553586  0.99939024  1
  Ni  Ni13  1  0.50126011  0.50273284  0.16700498  1
  Ni  Ni14  1  0.33354715  0.33541906  0.33542443  1
  Ni  Ni15  1  0.33424492  0.66732742  0.00105410  1
  Ni  Ni16  1  0.50082624  0.83240172  0.16742039  1
  Ni  Ni17  1  0.33434853  0.66743075  0.33370846  1
  Ni  Ni18  1  0.66850497  0.99996869  0.99976534  1
  Ni  Ni19  1  0.83562850  0.16794857  0.16698225  1
  Ni  Ni20  1  0.66815243  1.00007755  0.33486946  1
  Ni  Ni21  1  0.66751026  0.33405382  0.00087351  1
  Ni  Ni22  1  0.83429078  0.50092112  0.16760355  1
  Ni  Ni23  1  0.66820685  0.33497040  0.33493756  1
  Ni  Ni24  1  0.66629464  0.66838756  0.00125038  1
  Ni  Ni25  1  0.83404223  0.83354093  0.16745601  1
  Ni  Ni26  1  0.66689914  0.66736389  0.33448879  1
  Ni  Ni27  1  0.16766826  0.16729311  0.50108934  1
  Ni  Ni28  1  1.00009666  1.00060106  0.66781845  1
  Ni  Ni29  1  0.16828612  0.16756002  0.83390178  1
  Ni  Ni30  1  0.16600752  0.50036020  0.50013160  1
  Ni  Ni31  1  0.00106921  0.33360012  0.66666332  1
  Ni  Ni32  1  0.16756566  0.50013815  0.83480382  1
  Ni  Ni33  1  0.16751986  0.83475627  0.50018933  1
  Ni  Ni34  1  1.00062460  0.66821659  0.66672278  1
  Ni  Ni35  1  0.16730391  0.83471022  0.83505049  1
  Ni  Ni36  1  0.50102950  0.16704825  0.50117007  1
  Ni  Ni37  1  0.33455271  0.00209019  0.66746871  1
  Ni  Ni38  1  0.50063156  0.16648950  0.83357206  1
  Ni  Ni39  1  0.50219191  0.50010399  0.50035332  1
  Ni  Ni40  1  0.33448327  0.33300783  0.66760206  1
  Fe  Fe41  1  0.49967966  0.49958951  0.83534439  1
  Ni  Ni42  1  0.50093478  0.83525912  0.49969139  1
  Cr  Cr43  1  0.33331124  0.66722937  0.66772512  1
  Ni  Ni44  1  0.50135970  0.83604364  0.83530507  1
  Ni  Ni45  1  0.83371341  0.16856808  0.50099353  1
  Ni  Ni46  1  0.66776513  0.00165895  0.66777167  1
  Ni  Ni47  1  0.83349012  0.16623559  0.83443481  1
  Ni  Ni48  1  0.83421592  0.50026943  0.50074206  1
  Ni  Ni49  1  0.66685762  0.33246631  0.66660275  1
  Cr  Cr50  1  0.83514335  0.50079180  0.83414346  1
  Fe  Fe51  1  0.83442219  0.83429848  0.50065333  1
  Fe  Fe52  1  0.66832341  0.66836335  0.66658141  1
  Ni  Ni53  1  0.83374465  0.83530789  0.83359378  1
" 