6714,Ni88Cr12_2,-204.269311650114, 177.672224738922,Ni88Cr12,"# generated using pymatgen
 data_Cr47Ni7
_symmetry_space_group_name_H-M   'P 1'
_cell_length_a   7.59149376
_cell_length_b   7.59149376
_cell_length_c   10.73599343
_cell_angle_alpha   90.00000000
_cell_angle_beta   90.00000000
_cell_angle_gamma   90.00000000
_symmetry_Int_Tables_number   1
_chemical_formula_structural   Cr47Ni7
_chemical_formula_sum   'Cr47 Ni7'
_cell_volume   618.72364905
_cell_formula_units_Z   1
loop_
 _symmetry_equiv_pos_site_id
 _symmetry_equiv_pos_as_xyz
  1  'x, y, z'
loop_
 _atom_site_type_symbol
 _atom_site_label
 _atom_site_symmetry_multiplicity
 _atom_site_fract_x
 _atom_site_fract_y
 _atom_site_fract_z
 _atom_site_occupancy
  Cr  Cr0  1  -0.00778217  -0.00765712  -0.00799514  1
  Cr  Cr1  1  0.15812099  0.15927409  0.15770952  1
  Cr  Cr2  1  0.99048507  -0.00765226  0.32560637  1
  Cr  Cr3  1  0.99010208  0.32683452  -0.00690046  1
  Ni  Ni4  1  0.15626424  0.49162716  0.15861548  1
  Cr  Cr5  1  0.99103837  0.32556468  0.32251170  1
  Cr  Cr6  1  0.99175138  0.65622944  -0.00743319  1
  Cr  Cr7  1  0.15914214  0.82438674  0.15770723  1
  Cr  Cr8  1  -0.00730356  0.65749634  0.32304737  1
  Ni  Ni9  1  0.32518065  0.99175441  0.99160802  1
  Cr  Cr10  1  0.49232931  0.15769089  0.15714468  1
  Cr  Cr11  1  0.32536330  0.99124224  0.32564857  1
  Cr  Cr12  1  0.32459593  0.32472551  -0.00799316  1
  Cr  Cr13  1  0.49184690  0.49175824  0.15918957  1
  Cr  Cr14  1  0.32536133  0.32722011  0.32637118  1
  Cr  Cr15  1  0.32403611  0.65944587  -0.00709369  1
  Cr  Cr16  1  0.49131018  0.82596318  0.15714278  1
  Cr  Cr17  1  0.32480073  0.65694782  0.32547039  1
  Cr  Cr18  1  0.65749993  -0.00709575  -0.00709434  1
  Ni  Ni19  1  0.82540605  0.16044253  0.15866620  1
  Cr  Cr20  1  0.65956392  -0.00709117  0.32436622  1
  Cr  Cr21  1  0.66071594  0.32519007  -0.00743436  1
  Ni  Ni22  1  0.82717219  0.48990751  0.15815216  1
  Cr  Cr23  1  0.65901263  0.32500734  0.32414854  1
  Cr  Cr24  1  0.65962320  0.65731600  0.99108494  1
  Cr  Cr25  1  0.82495580  0.82486506  0.15936765  1
  Cr  Cr26  1  0.65791290  0.65749620  0.32563219  1
  Cr  Cr27  1  0.15839755  0.15863528  0.49247806  1
  Cr  Cr28  1  0.99175679  0.99175733  0.65779607  1
  Cr  Cr29  1  0.15952349  0.15786930  0.82522863  1
  Cr  Cr30  1  0.15997326  0.49124502  0.49119553  1
  Cr  Cr31  1  0.99121602  0.32539049  0.65979554  1
  Cr  Cr32  1  0.15683708  0.49124442  0.82540995  1
  Cr  Cr33  1  0.15783788  0.82553063  0.49157832  1
  Cr  Cr34  1  0.99020282  0.65826085  0.65979577  1
  Cr  Cr35  1  0.15896707  0.82629906  0.82613033  1
  Cr  Cr36  1  0.49136409  0.16022499  0.49157864  1
  Cr  Cr37  1  0.32485752  0.99174921  0.65885471  1
  Cr  Cr38  1  0.49041554  0.15786823  0.82669222  1
  Ni  Ni39  1  0.49243108  0.49275369  0.49289796  1
  Cr  Cr40  1  0.32594900  0.32594909  0.65703311  1
  Cr  Cr41  1  0.49420030  0.49234321  0.82354081  1
  Cr  Cr42  1  0.49301892  0.82285232  0.49211565  1
  Cr  Cr43  1  0.32697311  0.65771153  0.65703455  1
  Cr  Cr44  1  0.49207019  0.82520199  0.82615313  1
  Cr  Cr45  1  0.82564963  0.15808709  0.49119544  1
  Cr  Cr46  1  0.65879619  0.99073065  0.65813400  1
  Cr  Cr47  1  0.82546967  0.15999743  0.82484909  1
  Cr  Cr48  1  0.82296966  0.49289843  0.49323633  1
  Cr  Cr49  1  0.65824598  0.32749882  0.65869534  1
  Ni  Ni50  1  0.82428023  0.49280135  0.82430887  1
  Cr  Cr51  1  0.82455421  0.82442582  0.49267949  1
  Ni  Ni52  1  0.65855959  0.65666459  0.65837689  1
  Cr  Cr53  1  0.82437088  0.82251283  0.82336244  1
" 