4289,Ni88Fe7Cr3_0,-238.940444477546, 181.084068583628,Ni88Fe7Cr3,"# generated using pymatgen
 data_CrFeNi16
_symmetry_space_group_name_H-M   'P 1'
_cell_length_a   7.45404978
_cell_length_b   7.45404978
_cell_length_c   10.54161830
_cell_angle_alpha   90.00000000
_cell_angle_beta   90.00000000
_cell_angle_gamma   90.00000000
_symmetry_Int_Tables_number   1
_chemical_formula_structural   CrFeNi16
_chemical_formula_sum   'Cr3 Fe3 Ni48'
_cell_volume   585.72244219
_cell_formula_units_Z   3
loop_
 _symmetry_equiv_pos_site_id
 _symmetry_equiv_pos_as_xyz
  1  'x, y, z'
loop_
 _atom_site_type_symbol
 _atom_site_label
 _atom_site_symmetry_multiplicity
 _atom_site_fract_x
 _atom_site_fract_y
 _atom_site_fract_z
 _atom_site_occupancy
  Ni  Ni0  1  1.00084455  0.00115284  0.00118262  1
  Ni  Ni1  1  0.16810050  0.16694419  0.16717320  1
  Ni  Ni2  1  0.00247486  0.99809844  0.33333485  1
  Ni  Ni3  1  1.00039696  0.33400737  0.00124509  1
  Ni  Ni4  1  0.16855183  0.50118141  0.16724121  1
  Cr  Cr5  1  0.00266004  0.33461436  0.33317004  1
  Ni  Ni6  1  1.00059132  0.66745546  0.00140304  1
  Ni  Ni7  1  0.16745722  0.83449004  0.16756594  1
  Ni  Ni8  1  1.00020064  0.67002628  0.33435692  1
  Ni  Ni9  1  0.33407141  0.00088031  0.00106145  1
  Ni  Ni10  1  0.49995451  0.16727224  0.16687415  1
  Ni  Ni11  1  0.33358346  1.00085513  0.33442866  1
  Ni  Ni12  1  0.33432458  0.33408452  0.00170680  1
  Ni  Ni13  1  0.50008851  0.50143515  0.16697818  1
  Ni  Ni14  1  0.33476374  0.33339601  0.33435793  1
  Ni  Ni15  1  0.33440219  0.66765072  0.00124132  1
  Ni  Ni16  1  0.50085384  0.83390632  0.16800522  1
  Ni  Ni17  1  0.33476021  0.66836475  0.33410638  1
  Ni  Ni18  1  0.66769954  0.00107482  0.00174116  1
  Ni  Ni19  1  0.83455997  0.16617695  0.16587581  1
  Fe  Fe20  1  0.66630170  0.99781192  0.33329028  1
  Ni  Ni21  1  0.66789426  0.33433756  0.00106531  1
  Ni  Ni22  1  0.83397598  0.50208006  0.16582426  1
  Cr  Cr23  1  0.66530008  0.33553137  0.33312893  1
  Ni  Ni24  1  0.66762207  0.66720246  0.00118233  1
  Ni  Ni25  1  0.83430397  0.83435706  0.16819713  1
  Ni  Ni26  1  0.66765501  0.66884536  0.33442884  1
  Ni  Ni27  1  0.17014655  0.16631978  0.50146226  1
  Ni  Ni28  1  0.00166082  1.00030987  0.66809707  1
  Ni  Ni29  1  0.16662697  0.16751125  0.83397995  1
  Fe  Fe30  1  0.16877412  0.50204644  0.50172537  1
  Ni  Ni31  1  0.00113701  0.33474774  0.66810626  1
  Ni  Ni32  1  0.16793586  0.50036022  0.83369176  1
  Ni  Ni33  1  0.16764857  0.83492546  0.50087445  1
  Ni  Ni34  1  1.00023725  0.66755943  0.66685529  1
  Ni  Ni35  1  0.16793545  0.83474417  0.83417558  1
  Ni  Ni36  1  0.49768005  0.16750068  0.50201554  1
  Ni  Ni37  1  0.33409890  0.00113176  0.66712614  1
  Fe  Fe38  1  0.50093401  0.16753755  0.83414201  1
  Ni  Ni39  1  0.50052228  0.50162631  0.50146190  1
  Ni  Ni40  1  0.33442859  0.33373039  0.66655210  1
  Ni  Ni41  1  0.50095804  0.50147332  0.83417550  1
  Ni  Ni42  1  0.50043441  0.83348700  0.50068948  1
  Ni  Ni43  1  0.33450599  0.66775426  0.66726739  1
  Ni  Ni44  1  0.50070548  0.83337687  0.83392101  1
  Cr  Cr45  1  0.83487264  0.16626799  0.50254546  1
  Ni  Ni46  1  0.66685499  1.00023252  0.66750593  1
  Ni  Ni47  1  0.83508868  0.16776359  0.83411292  1
  Ni  Ni48  1  0.83334944  0.50412529  0.50281151  1
  Ni  Ni49  1  0.66705029  0.33515308  0.66821572  1
  Ni  Ni50  1  0.83372203  0.50016572  0.83397998  1
  Ni  Ni51  1  0.83453202  0.83208130  0.50069295  1
  Ni  Ni52  1  0.66787254  0.66722912  0.66700451  1
  Ni  Ni53  1  0.83397468  0.83468645  0.83372557  1
" 