1782,Ni88Fe7Cr4_9,-239.162441439759, 183.768683843695,Ni88Fe7Cr4,"# generated using pymatgen
 data_Cr3Fe4Ni47
_symmetry_space_group_name_H-M   'P 1'
_cell_length_a   7.45133879
_cell_length_b   7.45133879
_cell_length_c   10.53778437
_cell_angle_alpha   90.00000000
_cell_angle_beta   90.00000000
_cell_angle_gamma   90.00000000
_symmetry_Int_Tables_number   1
_chemical_formula_structural   Cr3Fe4Ni47
_chemical_formula_sum   'Cr3 Fe4 Ni47'
_cell_volume   585.08360292
_cell_formula_units_Z   1
loop_
 _symmetry_equiv_pos_site_id
 _symmetry_equiv_pos_as_xyz
  1  'x, y, z'
loop_
 _atom_site_type_symbol
 _atom_site_label
 _atom_site_symmetry_multiplicity
 _atom_site_fract_x
 _atom_site_fract_y
 _atom_site_fract_z
 _atom_site_occupancy
  Ni  Ni0  1  1.00055047  0.00168346  1.00076536  1
  Ni  Ni1  1  0.16631648  0.16642325  0.16863597  1
  Ni  Ni2  1  1.00091901  0.00121525  0.33475566  1
  Ni  Ni3  1  0.99958227  0.33391260  1.00074217  1
  Ni  Ni4  1  0.16621640  0.50042935  0.17121190  1
  Ni  Ni5  1  0.00112564  0.33396477  0.33515784  1
  Ni  Ni6  1  0.99964828  0.66756491  0.00165020  1
  Ni  Ni7  1  0.16695446  0.83616839  0.16885560  1
  Ni  Ni8  1  0.00231146  0.66797958  0.33394329  1
  Ni  Ni9  1  0.33447182  1.00061819  1.00087399  1
  Fe  Fe10  1  0.50207145  0.16671625  0.16848692  1
  Ni  Ni11  1  0.33409907  0.00135015  0.33376421  1
  Cr  Cr12  1  0.33303481  0.33297821  1.00033380  1
  Ni  Ni13  1  0.50225342  0.50042890  0.16884448  1
  Ni  Ni14  1  0.33413034  0.33413520  0.33426621  1
  Cr  Cr15  1  0.33387087  0.66866095  1.00071579  1
  Ni  Ni16  1  0.50095976  0.83548492  0.16899970  1
  Ni  Ni17  1  0.33299101  0.66758930  0.33515205  1
  Ni  Ni18  1  0.66837344  1.00092876  0.00123834  1
  Ni  Ni19  1  0.83536143  0.16774228  0.16922606  1
  Ni  Ni20  1  0.66831721  0.00278973  0.33519715  1
  Ni  Ni21  1  0.66977810  0.33379428  0.00123904  1
  Ni  Ni22  1  0.83469737  0.49974422  0.16668663  1
  Ni  Ni23  1  0.66797011  0.33310983  0.33421722  1
  Ni  Ni24  1  0.66887438  0.66824782  1.00080768  1
  Ni  Ni25  1  0.83517997  0.83575583  0.16684542  1
  Cr  Cr26  1  0.66883582  0.66856718  0.33427983  1
  Ni  Ni27  1  0.16904263  0.16634059  0.50124566  1
  Ni  Ni28  1  1.00085143  1.00102622  0.66771456  1
  Ni  Ni29  1  0.16695377  0.16626190  0.83327580  1
  Fe  Fe30  1  0.16734182  0.50093465  0.50128832  1
  Ni  Ni31  1  1.00089177  0.33401603  0.66750791  1
  Ni  Ni32  1  0.16568800  0.50097381  0.83112261  1
  Ni  Ni33  1  0.16670361  0.83611189  0.50059361  1
  Ni  Ni34  1  1.00057429  0.66815724  0.66779098  1
  Ni  Ni35  1  0.16657495  0.83584257  0.83370092  1
  Ni  Ni36  1  0.49973088  0.16899363  0.50018111  1
  Ni  Ni37  1  0.33434772  0.00147807  0.66835960  1
  Ni  Ni38  1  0.50194497  0.16691274  0.83423562  1
  Ni  Ni39  1  0.50147892  0.49876851  0.50207181  1
  Ni  Ni40  1  0.33448029  0.33389722  0.66814187  1
  Ni  Ni41  1  0.50335408  0.50060169  0.83219066  1
  Fe  Fe42  1  0.50021367  0.83544384  0.50182741  1
  Ni  Ni43  1  0.33425469  0.66791963  0.66705859  1
  Ni  Ni44  1  0.50197163  0.83552031  0.83212565  1
  Fe  Fe45  1  0.83455154  0.16792314  0.50117257  1
  Ni  Ni46  1  0.66794017  0.00126131  0.66664757  1
  Ni  Ni47  1  0.83429696  0.16768983  0.83302573  1
  Ni  Ni48  1  0.83366281  0.50119045  0.50173179  1
  Ni  Ni49  1  0.66774238  0.33402559  0.66771213  1
  Ni  Ni50  1  0.83399426  0.50100354  0.83484522  1
  Ni  Ni51  1  0.83674929  0.83427490  0.50177408  1
  Ni  Ni52  1  0.66819198  0.66791703  0.66802181  1
  Ni  Ni53  1  0.83449771  0.83445122  0.83466496  1
" 