869,Ni88Fe12_5,-229.013184193708, 162.224705293278,Ni88Fe12,"# generated using pymatgen
 data_Fe47Ni7
_symmetry_space_group_name_H-M   'P 1'
_cell_length_a   7.40275760
_cell_length_b   7.40275760
_cell_length_c   10.46908020
_cell_angle_alpha   90.00000000
_cell_angle_beta   90.00000000
_cell_angle_gamma   90.00000000
_symmetry_Int_Tables_number   1
_chemical_formula_structural   Fe47Ni7
_chemical_formula_sum   'Fe47 Ni7'
_cell_volume   573.71418057
_cell_formula_units_Z   1
loop_
 _symmetry_equiv_pos_site_id
 _symmetry_equiv_pos_as_xyz
  1  'x, y, z'
loop_
 _atom_site_type_symbol
 _atom_site_label
 _atom_site_symmetry_multiplicity
 _atom_site_fract_x
 _atom_site_fract_y
 _atom_site_fract_z
 _atom_site_occupancy
  Fe  Fe0  1  1.00362387  0.00486886  1.00433892  1
  Fe  Fe1  1  0.17066962  0.17115884  0.17128991  1
  Fe  Fe2  1  0.00480837  1.00424761  0.33748292  1
  Fe  Fe3  1  1.00350212  0.33786321  1.00409746  1
  Fe  Fe4  1  0.17025238  0.50443612  0.17172852  1
  Fe  Fe5  1  0.00505807  0.33761722  0.33839280  1
  Fe  Fe6  1  1.00344180  0.67029628  0.00481688  1
  Fe  Fe7  1  0.17067050  0.83743046  0.17118922  1
  Fe  Fe8  1  0.00496282  0.67116228  0.33757784  1
  Fe  Fe9  1  0.33820208  0.00496522  0.00444118  1
  Fe  Fe10  1  0.50496385  0.17153591  0.17110337  1
  Ni  Ni11  1  0.33756084  1.00366815  0.33719458  1
  Fe  Fe12  1  0.33861764  0.33805434  1.00406116  1
  Fe  Fe13  1  0.50538049  0.50405993  0.16991133  1
  Fe  Fe14  1  0.33739633  0.33739220  0.33795629  1
  Fe  Fe15  1  0.33857601  0.67000771  1.00396462  1
  Fe  Fe16  1  0.50458555  0.83743079  0.17148217  1
  Fe  Fe17  1  0.33739640  0.67128550  0.33795612  1
  Fe  Fe18  1  0.67120121  0.00490905  1.00434180  1
  Fe  Fe19  1  0.83739450  0.17195519  0.17063028  1
  Fe  Fe20  1  0.67044669  1.00424759  0.33777555  1
  Ni  Ni21  1  0.67179806  0.33859048  1.00422947  1
  Ni  Ni22  1  0.83755192  0.50422514  0.17088246  1
  Fe  Fe23  1  0.67057184  0.33724154  0.33657792  1
  Fe  Fe24  1  0.67100882  0.66988390  0.00434262  1
  Fe  Fe25  1  0.83777062  0.83701451  0.17100897  1
  Fe  Fe26  1  0.67066855  0.67153739  0.33739355  1
  Fe  Fe27  1  0.17129301  0.17128685  0.50462883  1
  Fe  Fe28  1  0.00471508  0.00491107  0.67120511  1
  Fe  Fe29  1  0.17163021  0.17144000  0.83711049  1
  Ni  Ni30  1  0.17111465  0.50422131  0.50446444  1
  Ni  Ni31  1  1.00341550  0.33884177  0.67145406  1
  Fe  Fe32  1  0.17128717  0.50415696  0.83667616  1
  Fe  Fe33  1  0.17167114  0.83768000  0.50424535  1
  Fe  Fe34  1  0.00524416  0.67088617  0.67063165  1
  Fe  Fe35  1  0.17200744  0.83743049  0.83759222  1
  Fe  Fe36  1  0.50315405  0.17087298  0.50414845  1
  Ni  Ni37  1  0.33793670  1.00340653  0.67127284  1
  Fe  Fe38  1  0.50434292  0.17147587  0.83777434  1
  Fe  Fe39  1  0.50388085  0.50443597  0.50496585  1
  Fe  Fe40  1  0.33701121  0.33776504  0.67100851  1
  Ni  Ni41  1  0.50435076  0.50410705  0.83756909  1
  Fe  Fe42  1  0.50315538  0.83771370  0.50424639  1
  Fe  Fe43  1  0.33705432  0.67028768  0.67110536  1
  Fe  Fe44  1  0.50396620  0.83739356  0.83729790  1
  Fe  Fe45  1  0.83857734  0.17201179  0.50472177  1
  Fe  Fe46  1  0.67126209  0.00486903  0.67090945  1
  Fe  Fe47  1  0.83705397  0.17219521  0.83767626  1
  Fe  Fe48  1  0.83861199  0.50405953  0.50390288  1
  Fe  Fe49  1  0.67066488  0.33723894  0.67200816  1
  Fe  Fe50  1  0.83701701  0.50378229  0.83839385  1
  Fe  Fe51  1  0.83820140  0.83695755  0.50434286  1
  Fe  Fe52  1  0.67072903  0.67091857  0.67128910  1
  Fe  Fe53  1  0.83705486  0.83705293  0.83767498  1
" 