3861,Ni88Fe7Cr4_0,-239.16250514336, 184.458369404694,Ni88Fe7Cr4,"# generated using pymatgen
 data_Cr3Fe4Ni47
_symmetry_space_group_name_H-M   'P 1'
_cell_length_a   7.44821840
_cell_length_b   7.44821840
_cell_length_c   10.53337147
_cell_angle_alpha   90.00000000
_cell_angle_beta   90.00000000
_cell_angle_gamma   90.00000000
_symmetry_Int_Tables_number   1
_chemical_formula_structural   Cr3Fe4Ni47
_chemical_formula_sum   'Cr3 Fe4 Ni47'
_cell_volume   584.34886581
_cell_formula_units_Z   1
loop_
 _symmetry_equiv_pos_site_id
 _symmetry_equiv_pos_as_xyz
  1  'x, y, z'
loop_
 _atom_site_type_symbol
 _atom_site_label
 _atom_site_symmetry_multiplicity
 _atom_site_fract_x
 _atom_site_fract_y
 _atom_site_fract_z
 _atom_site_occupancy
  Ni  Ni0  1  0.00238568  0.00237141  0.00207165  1
  Ni  Ni1  1  0.16754747  0.16852894  0.16741634  1
  Ni  Ni2  1  1.00014716  1.00109691  0.33436956  1
  Ni  Ni3  1  1.00083841  0.33406399  1.00104557  1
  Ni  Ni4  1  0.16817589  0.50129824  0.16851584  1
  Ni  Ni5  1  1.00067337  0.33448796  0.33440270  1
  Ni  Ni6  1  0.00192734  0.66735521  0.00238281  1
  Ni  Ni7  1  0.16663880  0.83396687  0.16692843  1
  Ni  Ni8  1  1.00068091  0.66821914  0.33449926  1
  Ni  Ni9  1  0.33372032  1.00017065  0.00168641  1
  Ni  Ni10  1  0.50205085  0.16885771  0.16699149  1
  Cr  Cr11  1  0.33389601  1.00103499  0.33402862  1
  Ni  Ni12  1  0.33396830  0.33496869  0.00258212  1
  Ni  Ni13  1  0.50103706  0.50058388  0.16827101  1
  Ni  Ni14  1  0.33512091  0.33603357  0.33443539  1
  Ni  Ni15  1  0.33508108  0.66865301  1.00124457  1
  Ni  Ni16  1  0.50225101  0.83434979  0.16741113  1
  Ni  Ni17  1  0.33497913  0.66651798  0.33447504  1
  Ni  Ni18  1  0.66768781  1.00125825  0.00364956  1
  Ni  Ni19  1  0.83419467  0.16731571  0.16823883  1
  Fe  Fe20  1  0.66973005  0.00132047  0.33410584  1
  Ni  Ni21  1  0.66898531  0.33542673  0.00187457  1
  Ni  Ni22  1  0.83457979  0.50149330  0.16802023  1
  Ni  Ni23  1  0.66799982  0.33551263  0.33443454  1
  Ni  Ni24  1  0.66678299  0.66710626  0.00187317  1
  Ni  Ni25  1  0.83490911  0.83498284  0.16833503  1
  Ni  Ni26  1  0.66813494  0.66704011  0.33447644  1
  Fe  Fe27  1  0.16715830  0.16929302  0.50217078  1
  Ni  Ni28  1  0.00238160  0.00218026  0.66735092  1
  Ni  Ni29  1  0.16656055  0.16784270  0.83394279  1
  Ni  Ni30  1  0.16817548  0.50192741  0.50110653  1
  Ni  Ni31  1  1.00084427  0.33428828  0.66833836  1
  Ni  Ni32  1  0.16793746  0.50129937  0.83417202  1
  Ni  Ni33  1  0.16579060  0.83358423  0.50243475  1
  Ni  Ni34  1  0.00192263  0.66733834  0.66691742  1
  Ni  Ni35  1  0.16930345  0.83465071  0.83443176  1
  Ni  Ni36  1  0.50205269  0.16945146  0.50210949  1
  Ni  Ni37  1  0.33372689  1.00015400  0.66772296  1
  Cr  Cr38  1  0.50131495  0.16811295  0.83526794  1
  Ni  Ni39  1  0.50103836  0.49949060  0.50135108  1
  Ni  Ni40  1  0.33405193  0.33508798  0.66677888  1
  Ni  Ni41  1  0.50111829  0.50240968  0.83417221  1
  Fe  Fe42  1  0.50194862  0.83247638  0.50256464  1
  Ni  Ni43  1  0.33499416  0.66854160  0.66807021  1
  Ni  Ni44  1  0.49950141  0.83328891  0.83368217  1
  Fe  Fe45  1  0.83475006  0.16858848  0.50159425  1
  Ni  Ni46  1  0.66768541  1.00123252  0.66576410  1
  Ni  Ni47  1  0.83609900  0.16945857  0.83394265  1
  Ni  Ni48  1  0.83457955  0.50213020  0.50160126  1
  Ni  Ni49  1  0.66889457  0.33554787  0.66748874  1
  Ni  Ni50  1  0.83473596  0.49966413  0.83417121  1
  Ni  Ni51  1  0.83574838  0.83460637  0.50102535  1
  Ni  Ni52  1  0.66687256  0.66700421  0.66744314  1
  Cr  Cr53  1  0.83494509  0.83459096  0.83487463  1
" 