375,Ni88Fe5Cr5_1,-236.928286871582, 174.73364699362,Ni88Fe5Cr5,"# generated using pymatgen
 data_Cr5Fe2Ni47
_symmetry_space_group_name_H-M   'P 1'
_cell_length_a   7.45915161
_cell_length_b   7.45915161
_cell_length_c   10.54883338
_cell_angle_alpha   90.00000000
_cell_angle_beta   90.00000000
_cell_angle_gamma   90.00000000
_symmetry_Int_Tables_number   1
_chemical_formula_structural   Cr5Fe2Ni47
_chemical_formula_sum   'Cr5 Fe2 Ni47'
_cell_volume   586.92593667
_cell_formula_units_Z   1
loop_
 _symmetry_equiv_pos_site_id
 _symmetry_equiv_pos_as_xyz
  1  'x, y, z'
loop_
 _atom_site_type_symbol
 _atom_site_label
 _atom_site_symmetry_multiplicity
 _atom_site_fract_x
 _atom_site_fract_y
 _atom_site_fract_z
 _atom_site_occupancy
  Ni  Ni0  1  1.00050812  1.00031774  1.00029573  1
  Ni  Ni1  1  0.16695806  0.16719182  0.16717486  1
  Ni  Ni2  1  0.99948428  0.00171297  0.33305243  1
  Ni  Ni3  1  0.99989600  0.33301419  0.00126519  1
  Ni  Ni4  1  0.16547169  0.50053233  0.16746112  1
  Ni  Ni5  1  0.00092027  0.33320257  0.33413176  1
  Ni  Ni6  1  0.99989518  0.66825543  0.00195308  1
  Ni  Ni7  1  0.16547425  0.83386309  0.16673358  1
  Fe  Fe8  1  0.99967486  0.66633490  0.33289306  1
  Ni  Ni9  1  0.33308951  0.00110985  0.99928118  1
  Ni  Ni10  1  0.50041691  0.16719298  0.16720087  1
  Ni  Ni11  1  0.33389223  0.00168102  0.33430026  1
  Ni  Ni12  1  0.33393497  0.33245631  0.00093797  1
  Cr  Cr13  1  0.50048990  0.49889085  0.16662350  1
  Ni  Ni14  1  0.33269161  0.33347047  0.33469066  1
  Ni  Ni15  1  0.33314329  0.66802128  0.99967853  1
  Cr  Cr16  1  0.50048481  0.83550061  0.16736788  1
  Ni  Ni17  1  0.33374764  0.66643665  0.33469323  1
  Ni  Ni18  1  0.66799014  0.00110906  1.00033314  1
  Ni  Ni19  1  0.83421279  0.16719559  0.16717491  1
  Ni  Ni20  1  0.66821109  0.00065630  0.33450625  1
  Ni  Ni21  1  0.66775671  0.33306884  0.99950225  1
  Ni  Ni22  1  0.83587453  0.50035434  0.16691887  1
  Ni  Ni23  1  0.66797634  0.33305902  0.33486871  1
  Ni  Ni24  1  0.66854960  0.66740991  0.99824244  1
  Ni  Ni25  1  0.83587573  0.83403723  0.16727559  1
  Ni  Ni26  1  0.66794494  0.66787268  0.33612945  1
  Ni  Ni27  1  0.16722704  0.16898509  0.50080936  1
  Ni  Ni28  1  0.00104341  0.00134212  0.66824050  1
  Ni  Ni29  1  0.16720875  0.16513522  0.83360297  1
  Ni  Ni30  1  0.16756546  0.49879368  0.50018804  1
  Ni  Ni31  1  0.00053339  0.33274619  0.66619045  1
  Cr  Cr32  1  0.16703692  0.50057141  0.83390348  1
  Cr  Cr33  1  0.16723925  0.83403140  0.50090339  1
  Ni  Ni34  1  0.99950810  0.66749944  0.66676073  1
  Ni  Ni35  1  0.16738393  0.83563149  0.83414489  1
  Ni  Ni36  1  0.49991062  0.16827124  0.49922366  1
  Fe  Fe37  1  0.33296206  0.00138888  0.66810800  1
  Ni  Ni38  1  0.49991007  0.16790206  0.83516364  1
  Ni  Ni39  1  0.50067777  0.50061403  0.50089309  1
  Ni  Ni40  1  0.33408068  0.33403513  0.66595816  1
  Ni  Ni41  1  0.50241602  0.50081703  0.83369782  1
  Ni  Ni42  1  0.50147217  0.83270291  0.49961350  1
  Ni  Ni43  1  0.33533872  0.66644487  0.66721565  1
  Ni  Ni44  1  0.49973228  0.83286944  0.83462110  1
  Ni  Ni45  1  0.83444992  0.16819024  0.49968304  1
  Cr  Cr46  1  0.66798805  1.00017169  0.66682981  1
  Ni  Ni47  1  0.83446902  0.16782186  0.83473022  1
  Ni  Ni48  1  0.83334417  0.50035441  0.50081135  1
  Ni  Ni49  1  0.66697267  0.33556731  0.66721590  1
  Ni  Ni50  1  0.83170636  0.50064218  0.83385815  1
  Ni  Ni51  1  0.83262796  0.83304188  0.49958250  1
  Ni  Ni52  1  0.66673938  0.66593795  0.66721510  1
  Ni  Ni53  1  0.83447162  0.83312409  0.83473027  1
" 