5711,Ni88Fe7Cr4_17,-239.085923789082, 184.332020928661,Ni88Fe7Cr4,"# generated using pymatgen
 data_Cr3Fe4Ni47
_symmetry_space_group_name_H-M   'P 1'
_cell_length_a   7.44876731
_cell_length_b   7.44876731
_cell_length_c   10.53414776
_cell_angle_alpha   90.00000000
_cell_angle_beta   90.00000000
_cell_angle_gamma   90.00000000
_symmetry_Int_Tables_number   1
_chemical_formula_structural   Cr3Fe4Ni47
_chemical_formula_sum   'Cr3 Fe4 Ni47'
_cell_volume   584.47807049
_cell_formula_units_Z   1
loop_
 _symmetry_equiv_pos_site_id
 _symmetry_equiv_pos_as_xyz
  1  'x, y, z'
loop_
 _atom_site_type_symbol
 _atom_site_label
 _atom_site_symmetry_multiplicity
 _atom_site_fract_x
 _atom_site_fract_y
 _atom_site_fract_z
 _atom_site_occupancy
  Ni  Ni0  1  1.00075528  0.99912635  0.00162702  1
  Fe  Fe1  1  0.16707104  0.16587927  0.16933082  1
  Ni  Ni2  1  1.00061341  0.00154188  0.33397321  1
  Cr  Cr3  1  0.99985428  0.33451685  1.00058092  1
  Ni  Ni4  1  0.16709258  0.50355166  0.16955715  1
  Ni  Ni5  1  0.00196344  0.33473101  0.33446640  1
  Ni  Ni6  1  1.00082509  0.66991975  0.00165709  1
  Ni  Ni7  1  0.16652755  0.83338818  0.16735201  1
  Ni  Ni8  1  1.00075700  0.66740549  0.33401712  1
  Ni  Ni9  1  0.33413580  1.00025014  1.00046725  1
  Ni  Ni10  1  0.50268681  0.16835842  0.16836434  1
  Ni  Ni11  1  0.33427747  0.00266498  0.33513266  1
  Cr  Cr12  1  0.33596461  0.33456078  1.00085806  1
  Fe  Fe13  1  0.50238970  0.50102444  0.16848898  1
  Ni  Ni14  1  0.33398651  0.33466139  0.33426673  1
  Ni  Ni15  1  0.33399661  0.66887178  1.00046744  1
  Cr  Cr16  1  0.50033324  0.83573174  0.16762970  1
  Ni  Ni17  1  0.33406785  0.66635535  0.33520282  1
  Ni  Ni18  1  0.66878701  0.00174877  1.00027007  1
  Ni  Ni19  1  0.83276446  0.16778691  0.16836281  1
  Ni  Ni20  1  0.66878534  0.00145776  0.33534051  1
  Ni  Ni21  1  0.66773518  0.33449189  0.00182621  1
  Ni  Ni22  1  0.83530970  0.50109864  0.16862870  1
  Fe  Fe23  1  0.66811199  0.33417309  0.33464680  1
  Ni  Ni24  1  0.66886248  0.66744245  1.00024008  1
  Ni  Ni25  1  0.83691273  0.83479202  0.16783537  1
  Ni  Ni26  1  0.66886039  0.66770035  0.33540972  1
  Fe  Fe27  1  0.16788625  0.16794919  0.50167751  1
  Ni  Ni28  1  1.00094403  0.00166413  0.66808266  1
  Ni  Ni29  1  0.16818034  0.16633461  0.83312217  1
  Ni  Ni30  1  0.16791394  0.50202045  0.50126488  1
  Ni  Ni31  1  0.00141377  0.33466259  0.66815315  1
  Ni  Ni32  1  0.16791466  0.50308465  0.83285788  1
  Ni  Ni33  1  0.16838369  0.83361429  0.50075518  1
  Ni  Ni34  1  1.00101668  0.66735475  0.66800868  1
  Ni  Ni35  1  0.16838405  0.83426057  0.83557536  1
  Ni  Ni36  1  0.50182961  0.16749988  0.50113425  1
  Ni  Ni37  1  0.33484200  0.00166685  0.66808179  1
  Ni  Ni38  1  0.50216413  0.16699934  0.83418746  1
  Ni  Ni39  1  0.50042217  0.50088805  0.50036731  1
  Ni  Ni40  1  0.33438003  0.33466768  0.66815232  1
  Ni  Ni41  1  0.50163202  0.50162237  0.83468661  1
  Ni  Ni42  1  0.50049625  0.83529124  0.50119362  1
  Ni  Ni43  1  0.33477593  0.66734691  0.66800861  1
  Ni  Ni44  1  0.50050138  0.83505965  0.83465326  1
  Ni  Ni45  1  0.83366824  0.16796902  0.50107310  1
  Ni  Ni46  1  0.66789461  0.00126893  0.66806959  1
  Ni  Ni47  1  0.83333617  0.16746870  0.83424822  1
  Ni  Ni48  1  0.83534605  0.50068653  0.50107193  1
  Ni  Ni49  1  0.66788683  0.33459601  0.66797824  1
  Ni  Ni50  1  0.83413482  0.50141928  0.83398261  1
  Ni  Ni51  1  0.83480179  0.83502501  0.50053006  1
  Ni  Ni52  1  0.66788864  0.66781621  0.66802880  1
  Ni  Ni53  1  0.83479607  0.83479348  0.83531645  1
" 