6171,Ni88Fe7Cr4_16,-239.225943804548, 184.464618104889,Ni88Fe7Cr4,"# generated using pymatgen
 data_Cr3Fe4Ni47
_symmetry_space_group_name_H-M   'P 1'
_cell_length_a   7.45094840
_cell_length_b   7.45094840
_cell_length_c   10.53723228
_cell_angle_alpha   90.00000000
_cell_angle_beta   90.00000000
_cell_angle_gamma   90.00000000
_symmetry_Int_Tables_number   1
_chemical_formula_structural   Cr3Fe4Ni47
_chemical_formula_sum   'Cr3 Fe4 Ni47'
_cell_volume   584.99164761
_cell_formula_units_Z   1
loop_
 _symmetry_equiv_pos_site_id
 _symmetry_equiv_pos_as_xyz
  1  'x, y, z'
loop_
 _atom_site_type_symbol
 _atom_site_label
 _atom_site_symmetry_multiplicity
 _atom_site_fract_x
 _atom_site_fract_y
 _atom_site_fract_z
 _atom_site_occupancy
  Ni  Ni0  1  1.00040810  0.00338728  0.00193792  1
  Ni  Ni1  1  0.16683875  0.16900373  0.16895284  1
  Fe  Fe2  1  1.00022062  1.00051695  0.33436314  1
  Ni  Ni3  1  1.00042391  0.33390838  1.00080124  1
  Ni  Ni4  1  0.16794278  0.50120250  0.16725690  1
  Ni  Ni5  1  1.00045169  0.33464736  0.33455154  1
  Fe  Fe6  1  1.00007577  0.66833423  0.00127756  1
  Ni  Ni7  1  0.16655517  0.83325083  0.16874162  1
  Ni  Ni8  1  0.00173341  0.66551617  0.33364734  1
  Cr  Cr9  1  0.33272305  0.99841223  0.00175611  1
  Ni  Ni10  1  0.50233437  0.16893475  0.16877844  1
  Ni  Ni11  1  0.33441189  1.00029879  0.33433187  1
  Fe  Fe12  1  0.33404365  0.33579338  0.00137743  1
  Ni  Ni13  1  0.50094386  0.50103595  0.16761018  1
  Fe  Fe14  1  0.33502230  0.33517626  0.33509557  1
  Ni  Ni15  1  0.33477621  0.66697439  1.00091904  1
  Ni  Ni16  1  0.50214630  0.83346146  0.16847442  1
  Ni  Ni17  1  0.33410997  0.66954019  0.33455213  1
  Ni  Ni18  1  0.67009709  1.00031875  0.00206651  1
  Ni  Ni19  1  0.83414621  0.16767117  0.16743547  1
  Ni  Ni20  1  0.66593851  0.00164204  0.33377046  1
  Ni  Ni21  1  0.67120164  0.33601214  0.00210063  1
  Ni  Ni22  1  0.83446759  0.50124379  0.16779817  1
  Ni  Ni23  1  0.67002440  0.33430432  0.33440562  1
  Ni  Ni24  1  0.66613905  0.66699332  0.00178144  1
  Ni  Ni25  1  0.83418056  0.83434532  0.16760363  1
  Ni  Ni26  1  0.66740737  0.66729082  0.33396438  1
  Ni  Ni27  1  0.16786234  0.16773414  0.50121578  1
  Ni  Ni28  1  0.00180522  0.00195422  0.66739998  1
  Ni  Ni29  1  0.16468895  0.16860104  0.83317612  1
  Ni  Ni30  1  0.16750449  0.50159844  0.50151484  1
  Ni  Ni31  1  1.00091110  0.33431707  0.66789442  1
  Ni  Ni32  1  0.16774469  0.50141553  0.83452252  1
  Ni  Ni33  1  0.16737365  0.83387548  0.50138494  1
  Ni  Ni34  1  0.00312592  0.66694357  0.66838441  1
  Ni  Ni35  1  0.16618889  0.83339830  0.83316596  1
  Ni  Ni36  1  0.50131201  0.16764970  0.50136986  1
  Ni  Ni37  1  0.33293268  0.99977718  0.66700075  1
  Cr  Cr38  1  0.50270207  0.16883457  0.83300338  1
  Ni  Ni39  1  0.49997314  0.49998448  0.50034899  1
  Ni  Ni40  1  0.33257069  0.33536049  0.66702496  1
  Ni  Ni41  1  0.50005670  0.50181152  0.83524690  1
  Ni  Ni42  1  0.50016647  0.83563424  0.50051020  1
  Ni  Ni43  1  0.33269801  0.66818460  0.66774348  1
  Ni  Ni44  1  0.50132546  0.83269344  0.83414441  1
  Ni  Ni45  1  0.83403556  0.16757463  0.50169637  1
  Ni  Ni46  1  0.66855399  0.00181438  0.66734295  1
  Ni  Ni47  1  0.83612567  0.16738300  0.83425750  1
  Ni  Ni48  1  0.83588447  0.50043459  0.50019511  1
  Ni  Ni49  1  0.66969630  0.33396344  0.66679906  1
  Ni  Ni50  1  0.83539230  0.50029268  0.83516805  1
  Ni  Ni51  1  0.83564548  0.83515443  0.49997266  1
  Cr  Cr52  1  0.66766364  0.66701320  0.66686231  1
  Ni  Ni53  1  0.83563461  0.83572384  0.83564123  1
" 