2420,Ni88Fe5Cr5_17,-236.871394869738, 171.516612862394,Ni88Fe5Cr5,"# generated using pymatgen
 data_Cr5Fe2Ni47
_symmetry_space_group_name_H-M   'P 1'
_cell_length_a   7.45987059
_cell_length_b   7.45987059
_cell_length_c   10.54985016
_cell_angle_alpha   90.00000000
_cell_angle_beta   90.00000000
_cell_angle_gamma   90.00000000
_symmetry_Int_Tables_number   1
_chemical_formula_structural   Cr5Fe2Ni47
_chemical_formula_sum   'Cr5 Fe2 Ni47'
_cell_volume   587.09567198
_cell_formula_units_Z   1
loop_
 _symmetry_equiv_pos_site_id
 _symmetry_equiv_pos_as_xyz
  1  'x, y, z'
loop_
 _atom_site_type_symbol
 _atom_site_label
 _atom_site_symmetry_multiplicity
 _atom_site_fract_x
 _atom_site_fract_y
 _atom_site_fract_z
 _atom_site_occupancy
  Ni  Ni0  1  0.00072256  0.99860825  1.00036256  1
  Ni  Ni1  1  0.16913815  0.16535609  0.16724390  1
  Ni  Ni2  1  0.00057843  0.99879838  0.33383518  1
  Cr  Cr3  1  0.00090072  0.33288616  0.99961906  1
  Ni  Ni4  1  0.16821805  0.50147331  0.16532035  1
  Cr  Cr5  1  0.00179466  0.33412406  0.33401670  1
  Ni  Ni6  1  0.00077941  0.66908150  0.00058683  1
  Ni  Ni7  1  0.16631444  0.83487132  0.16627603  1
  Ni  Ni8  1  0.99942806  0.66907583  0.33384138  1
  Ni  Ni9  1  0.33359748  1.00006422  0.99991537  1
  Ni  Ni10  1  0.49787134  0.16503856  0.16692808  1
  Ni  Ni11  1  0.33375249  0.00179121  0.33457432  1
  Ni  Ni12  1  0.33382677  0.33377264  0.00098637  1
  Ni  Ni13  1  0.49917459  0.50185125  0.16622512  1
  Ni  Ni14  1  0.33357269  0.33260160  0.33340905  1
  Ni  Ni15  1  0.33373483  0.66789380  0.99945284  1
  Ni  Ni16  1  0.50132358  0.83456720  0.16586660  1
  Cr  Cr17  1  0.33347457  0.66816573  0.33556818  1
  Ni  Ni18  1  0.66718970  0.99857594  0.99958172  1
  Ni  Ni19  1  0.83417485  0.16301413  0.16687838  1
  Ni  Ni20  1  0.66715048  0.99902150  0.33420618  1
  Cr  Cr21  1  0.66602324  0.33265968  0.00116612  1
  Ni  Ni22  1  0.83399863  0.50467838  0.16723664  1
  Cr  Cr23  1  0.66544932  0.33374703  0.33289587  1
  Ni  Ni24  1  0.66706341  0.66850357  1.00026896  1
  Ni  Ni25  1  0.83390198  0.83354559  0.16693047  1
  Ni  Ni26  1  0.66861055  0.66914568  0.33419324  1
  Ni  Ni27  1  0.16838384  0.16619215  0.50104000  1
  Ni  Ni28  1  0.00055925  0.99975967  0.66721591  1
  Ni  Ni29  1  0.16842372  0.16543860  0.83289893  1
  Ni  Ni30  1  0.16719978  0.50032621  0.50318698  1
  Fe  Fe31  1  1.00027273  0.33331904  0.66712982  1
  Fe  Fe32  1  0.16833351  0.50165129  0.83309735  1
  Ni  Ni33  1  0.16592763  0.83491785  0.50152601  1
  Ni  Ni34  1  0.00068628  0.66812325  0.66702670  1
  Ni  Ni35  1  0.16694328  0.83472812  0.83383783  1
  Ni  Ni36  1  0.49927997  0.16664883  0.50138254  1
  Ni  Ni37  1  0.33329560  0.00059362  0.66689142  1
  Ni  Ni38  1  0.49898178  0.16686326  0.83309012  1
  Ni  Ni39  1  0.50063167  0.50028281  0.50219861  1
  Ni  Ni40  1  0.33477271  0.33381131  0.66705868  1
  Ni  Ni41  1  0.50045318  0.50110514  0.83318033  1
  Ni  Ni42  1  0.50150897  0.83477571  0.50237365  1
  Ni  Ni43  1  0.33340045  0.66714103  0.66744422  1
  Ni  Ni44  1  0.50016362  0.83332611  0.83340724  1
  Ni  Ni45  1  0.83391265  0.16538199  0.50269695  1
  Ni  Ni46  1  0.66759914  0.00102663  0.66766572  1
  Ni  Ni47  1  0.83429789  0.16548790  0.83169820  1
  Ni  Ni48  1  0.83364724  0.50258174  0.50211961  1
  Ni  Ni49  1  0.66670224  0.33365197  0.66723458  1
  Ni  Ni50  1  0.83290154  0.50249806  0.83180218  1
  Ni  Ni51  1  0.83408291  0.83353308  0.50037439  1
  Ni  Ni52  1  0.66744269  0.66675950  0.66690427  1
  Ni  Ni53  1  0.83440699  0.83313878  0.83410854  1
" 