8496,Ni88Cr12_0,-204.301715294378, 179.539582554906,Ni88Cr12,"# generated using pymatgen
 data_Cr47Ni7
_symmetry_space_group_name_H-M   'P 1'
_cell_length_a   7.58922383
_cell_length_b   7.58922383
_cell_length_c   10.73278327
_cell_angle_alpha   90.00000000
_cell_angle_beta   90.00000000
_cell_angle_gamma   90.00000000
_symmetry_Int_Tables_number   1
_chemical_formula_structural   Cr47Ni7
_chemical_formula_sum   'Cr47 Ni7'
_cell_volume   618.16880169
_cell_formula_units_Z   1
loop_
 _symmetry_equiv_pos_site_id
 _symmetry_equiv_pos_as_xyz
  1  'x, y, z'
loop_
 _atom_site_type_symbol
 _atom_site_label
 _atom_site_symmetry_multiplicity
 _atom_site_fract_x
 _atom_site_fract_y
 _atom_site_fract_z
 _atom_site_occupancy
  Ni  Ni0  1  0.99150072  0.98979009  0.99177909  1
  Cr  Cr1  1  0.15790082  0.15827004  0.15722512  1
  Cr  Cr2  1  -0.00714676  -0.00713829  0.32594143  1
  Cr  Cr3  1  0.99149618  0.32444114  -0.00802780  1
  Cr  Cr4  1  0.15800083  0.49321953  0.15773283  1
  Cr  Cr5  1  -0.00753287  0.32325650  0.32733178  1
  Ni  Ni6  1  0.99156192  0.66066969  0.99192385  1
  Cr  Cr7  1  0.15754047  0.82428265  0.15546882  1
  Cr  Cr8  1  0.99138665  0.65957213  0.32512969  1
  Cr  Cr9  1  0.32399428  -0.00755276  -0.00746836  1
  Cr  Cr10  1  0.49215271  0.15862814  0.15895739  1
  Cr  Cr11  1  0.32279394  -0.00710835  0.32601308  1
  Cr  Cr12  1  0.32615270  0.32522697  0.99008169  1
  Cr  Cr13  1  0.49092438  0.49174821  0.15956655  1
  Cr  Cr14  1  0.32311651  0.32316733  0.32609452  1
  Cr  Cr15  1  0.32599643  0.65838785  0.98910638  1
  Cr  Cr16  1  0.49144157  0.82555134  0.16031101  1
  Cr  Cr17  1  0.32434062  0.65970830  0.32654189  1
  Cr  Cr18  1  0.65949740  0.99194066  -0.00791394  1
  Cr  Cr19  1  0.82581502  0.15774945  0.15675492  1
  Cr  Cr20  1  0.66020184  0.99184983  0.32493069  1
  Cr  Cr21  1  0.65825718  0.32626351  0.99123573  1
  Cr  Cr22  1  0.82702363  0.49261684  0.15869251  1
  Cr  Cr23  1  0.66027858  0.32510149  0.32347242  1
  Cr  Cr24  1  0.65955154  0.65784699  0.99026013  1
  Cr  Cr25  1  0.82679450  0.82534920  0.15653999  1
  Cr  Cr26  1  0.66012321  0.65899946  0.32592527  1
  Ni  Ni27  1  0.15598072  0.15815955  0.49490180  1
  Ni  Ni28  1  0.99087508  -0.00496035  0.65764599  1
  Cr  Cr29  1  0.15587604  0.15743656  0.82450853  1
  Cr  Cr30  1  0.15779278  0.48978837  0.49254850  1
  Ni  Ni31  1  -0.00710637  0.32137802  0.65718578  1
  Cr  Cr32  1  0.15764349  0.49184774  0.82558934  1
  Cr  Cr33  1  0.15767686  0.82630634  0.49315992  1
  Cr  Cr34  1  0.99184281  0.65861898  0.65831508  1
  Cr  Cr35  1  0.15588293  0.82623008  0.82703559  1
  Cr  Cr36  1  0.49224417  0.15807007  0.49193963  1
  Cr  Cr37  1  0.32354194  -0.00744278  0.65744780  1
  Cr  Cr38  1  0.49324647  0.15833662  0.82481587  1
  Cr  Cr39  1  0.49166096  0.49157107  0.49120744  1
  Cr  Cr40  1  0.32390849  0.32501381  0.65985160  1
  Ni  Ni41  1  0.49230578  0.49192524  0.82531396  1
  Cr  Cr42  1  0.49301069  0.82648990  0.49241168  1
  Cr  Cr43  1  0.32593214  0.65814008  0.66026991  1
  Cr  Cr44  1  0.49277956  0.82674994  0.82314021  1
  Cr  Cr45  1  0.82542781  0.15844932  0.49520209  1
  Ni  Ni46  1  0.66137996  -0.00726272  0.65847413  1
  Cr  Cr47  1  0.82656180  0.15681462  0.82356195  1
  Cr  Cr48  1  0.82622201  0.49051181  0.49215576  1
  Cr  Cr49  1  0.65937475  0.32625696  0.66109168  1
  Cr  Cr50  1  0.82760895  0.49134576  0.82514766  1
  Cr  Cr51  1  0.82502287  0.82712288  0.49426354  1
  Cr  Cr52  1  0.65843114  0.65893095  0.65974450  1
  Cr  Cr53  1  0.82704875  0.82766985  0.82479997  1
" 