7159,Ni88Fe7Cr3_19,-238.75821265553, 181.598369065449,Ni88Fe7Cr3,"# generated using pymatgen
 data_CrFeNi16
_symmetry_space_group_name_H-M   'P 1'
_cell_length_a   7.45387195
_cell_length_b   7.45387195
_cell_length_c   10.54136681
_cell_angle_alpha   90.00000000
_cell_angle_beta   90.00000000
_cell_angle_gamma   90.00000000
_symmetry_Int_Tables_number   1
_chemical_formula_structural   CrFeNi16
_chemical_formula_sum   'Cr3 Fe3 Ni48'
_cell_volume   585.68052321
_cell_formula_units_Z   3
loop_
 _symmetry_equiv_pos_site_id
 _symmetry_equiv_pos_as_xyz
  1  'x, y, z'
loop_
 _atom_site_type_symbol
 _atom_site_label
 _atom_site_symmetry_multiplicity
 _atom_site_fract_x
 _atom_site_fract_y
 _atom_site_fract_z
 _atom_site_occupancy
  Ni  Ni0  1  0.00113521  0.00142416  0.00098055  1
  Ni  Ni1  1  0.16745333  0.16759343  0.16827438  1
  Ni  Ni2  1  0.00140207  0.00122206  0.33428573  1
  Ni  Ni3  1  1.00063073  0.33376221  1.00036248  1
  Ni  Ni4  1  0.16606680  0.49954518  0.16676946  1
  Ni  Ni5  1  0.99993105  0.33419056  0.33456363  1
  Ni  Ni6  1  0.00132375  0.66748608  0.00167269  1
  Ni  Ni7  1  0.16616835  0.83544757  0.16675164  1
  Ni  Ni8  1  1.00009273  0.66716263  0.33377837  1
  Ni  Ni9  1  0.33407547  1.00079139  0.00110284  1
  Ni  Ni10  1  0.50090120  0.16740002  0.16755173  1
  Ni  Ni11  1  0.33429999  0.00173079  0.33405611  1
  Ni  Ni12  1  0.33425230  0.33402920  0.00158106  1
  Ni  Ni13  1  0.50211049  0.49959414  0.16712665  1
  Fe  Fe14  1  0.33450147  0.33305708  0.33382260  1
  Ni  Ni15  1  0.33416350  0.66779095  1.00044845  1
  Ni  Ni16  1  0.50220886  0.83556520  0.16709478  1
  Cr  Cr17  1  0.33402835  0.66901040  0.33386588  1
  Ni  Ni18  1  0.66744671  0.00150642  0.00096590  1
  Ni  Ni19  1  0.83434229  0.16750602  0.16798907  1
  Ni  Ni20  1  0.66696792  0.00160342  0.33424871  1
  Ni  Ni21  1  0.66777197  0.33385311  0.00103919  1
  Ni  Ni22  1  0.83448058  0.50080216  0.16788025  1
  Ni  Ni23  1  0.66823607  0.33397483  0.33380375  1
  Ni  Ni24  1  0.66716371  0.66729506  0.00096225  1
  Ni  Ni25  1  0.83429105  0.83431046  0.16822075  1
  Ni  Ni26  1  0.66850873  0.66699037  0.33480339  1
  Fe  Fe27  1  0.16787677  0.16706429  0.50097996  1
  Ni  Ni28  1  0.00104622  0.00257718  0.66726594  1
  Ni  Ni29  1  0.16785918  0.16777626  0.83327523  1
  Ni  Ni30  1  0.16694930  0.49898375  0.50102466  1
  Ni  Ni31  1  0.00235961  0.33250903  0.66761551  1
  Ni  Ni32  1  0.16853399  0.49938293  0.83476310  1
  Ni  Ni33  1  0.16696784  0.83574883  0.50095146  1
  Cr  Cr34  1  0.00092314  0.66728005  0.66794030  1
  Ni  Ni35  1  0.16824522  0.83549943  0.83498266  1
  Ni  Ni36  1  0.49972133  0.16658319  0.49982326  1
  Ni  Ni37  1  0.33428032  1.00071310  0.66750536  1
  Ni  Ni38  1  0.49950825  0.16658905  0.83530405  1
  Ni  Ni39  1  0.50097781  0.49983603  0.50106585  1
  Ni  Ni40  1  0.33305115  0.33405530  0.66670809  1
  Ni  Ni41  1  0.49959737  0.50142055  0.83441169  1
  Ni  Ni42  1  0.50196260  0.83612894  0.50214907  1
  Ni  Ni43  1  0.33554727  0.66776873  0.66763849  1
  Ni  Ni44  1  0.50111270  0.83466751  0.83325009  1
  Fe  Fe45  1  0.83423391  0.16670468  0.50006249  1
  Ni  Ni46  1  0.66730787  0.99992596  0.66735501  1
  Ni  Ni47  1  0.83536570  0.16622611  0.83443768  1
  Ni  Ni48  1  0.83477643  0.50125183  0.49905476  1
  Cr  Cr49  1  0.66845703  0.33418558  0.66882238  1
  Ni  Ni50  1  0.83451943  0.50102147  0.83599523  1
  Ni  Ni51  1  0.83370559  0.83497131  0.49975442  1
  Ni  Ni52  1  0.66562537  0.66883944  0.66681463  1
  Ni  Ni53  1  0.83325984  0.83537045  0.83477223  1
" 