7363,Ni88Fe12_8,-229.08769739436, 159.110425312834,Ni88Fe12,"# generated using pymatgen
 data_Fe47Ni7
_symmetry_space_group_name_H-M   'P 1'
_cell_length_a   7.40520885
_cell_length_b   7.40520885
_cell_length_c   10.47254679
_cell_angle_alpha   90.00000000
_cell_angle_beta   90.00000000
_cell_angle_gamma   90.00000000
_symmetry_Int_Tables_number   1
_chemical_formula_structural   Fe47Ni7
_chemical_formula_sum   'Fe47 Ni7'
_cell_volume   574.28428624
_cell_formula_units_Z   1
loop_
 _symmetry_equiv_pos_site_id
 _symmetry_equiv_pos_as_xyz
  1  'x, y, z'
loop_
 _atom_site_type_symbol
 _atom_site_label
 _atom_site_symmetry_multiplicity
 _atom_site_fract_x
 _atom_site_fract_y
 _atom_site_fract_z
 _atom_site_occupancy
  Fe  Fe0  1  0.00441965  1.00350088  0.00424837  1
  Fe  Fe1  1  0.17084763  0.17087779  0.17193569  1
  Fe  Fe2  1  0.00464437  1.00375627  0.33768606  1
  Fe  Fe3  1  0.00430430  0.33785219  1.00295034  1
  Fe  Fe4  1  0.16974123  0.50531923  0.17066043  1
  Fe  Fe5  1  0.00425764  0.33791602  0.33965109  1
  Ni  Ni6  1  1.00389226  0.67013507  1.00344950  1
  Fe  Fe7  1  0.16988907  0.83612279  0.17077706  1
  Ni  Ni8  1  0.00446063  0.67029908  0.33844319  1
  Fe  Fe9  1  0.33632720  1.00349934  1.00323626  1
  Fe  Fe10  1  0.50422493  0.17069682  0.17076435  1
  Fe  Fe11  1  0.33633906  1.00347844  0.33881799  1
  Fe  Fe12  1  0.33644142  0.33824549  0.00451477  1
  Fe  Fe13  1  0.50395343  0.50418765  0.17077411  1
  Fe  Fe14  1  0.33621257  0.33802267  0.33741823  1
  Fe  Fe15  1  0.33692029  0.67078450  1.00313104  1
  Fe  Fe16  1  0.50385700  0.83764405  0.17091534  1
  Fe  Fe17  1  0.33699632  0.67077128  0.33836617  1
  Fe  Fe18  1  0.67178104  1.00315318  0.00424482  1
  Fe  Fe19  1  0.83746512  0.17098710  0.17063352  1
  Fe  Fe20  1  0.67179212  1.00316698  0.33722768  1
  Fe  Fe21  1  0.67174702  0.33869152  0.00424477  1
  Fe  Fe22  1  0.83880505  0.50496350  0.17187224  1
  Fe  Fe23  1  0.67194361  0.33887702  0.33769053  1
  Fe  Fe24  1  0.67150305  0.67067985  1.00411094  1
  Fe  Fe25  1  0.83876580  0.83638771  0.17081377  1
  Fe  Fe26  1  0.67157825  0.67066456  0.33803119  1
  Ni  Ni27  1  0.17176668  0.16993702  0.50470331  1
  Fe  Fe28  1  0.00658377  0.00453268  0.67059598  1
  Fe  Fe29  1  0.17088367  0.17089721  0.83546007  1
  Fe  Fe30  1  0.16955496  0.50350996  0.50499745  1
  Ni  Ni31  1  1.00255553  0.33798259  0.67042743  1
  Fe  Fe32  1  0.17060762  0.50463456  0.83682796  1
  Fe  Fe33  1  0.17038742  0.83680401  0.50457123  1
  Fe  Fe34  1  0.00533069  0.67082973  0.67062305  1
  Fe  Fe35  1  0.17120315  0.83703519  0.83716720  1
  Fe  Fe36  1  0.50453108  0.17137465  0.50398504  1
  Ni  Ni37  1  0.33891299  1.00385024  0.67061118  1
  Fe  Fe38  1  0.50403324  0.17056637  0.83781471  1
  Fe  Fe39  1  0.50313968  0.50361438  0.50446055  1
  Fe  Fe40  1  0.33570142  0.33743727  0.67057760  1
  Fe  Fe41  1  0.50354705  0.50455269  0.83717505  1
  Fe  Fe42  1  0.50398543  0.83759876  0.50475202  1
  Ni  Ni43  1  0.33760152  0.67140797  0.67044527  1
  Fe  Fe44  1  0.50383509  0.83747899  0.83674721  1
  Fe  Fe45  1  0.83851228  0.17204013  0.50467873  1
  Fe  Fe46  1  0.67108674  1.00406380  0.67105046  1
  Fe  Fe47  1  0.83756121  0.17106019  0.83721633  1
  Ni  Ni48  1  0.83637356  0.50539889  0.50489820  1
  Fe  Fe49  1  0.66951986  0.33807907  0.67059579  1
  Fe  Fe50  1  0.83803905  0.50427300  0.83628780  1
  Fe  Fe51  1  0.83869500  0.83789930  0.50370530  1
  Fe  Fe52  1  0.67051029  0.67065156  0.67041249  1
  Fe  Fe53  1  0.83790012  0.83727800  0.83807233  1
" 