7884,Ni88Fe5Cr5_10,-237.049810177892, 173.373103758244,Ni88Fe5Cr5,"# generated using pymatgen
 data_Cr5Fe2Ni47
_symmetry_space_group_name_H-M   'P 1'
_cell_length_a   7.45741906
_cell_length_b   7.45741906
_cell_length_c   10.54638318
_cell_angle_alpha   90.00000000
_cell_angle_beta   90.00000000
_cell_angle_gamma   90.00000000
_symmetry_Int_Tables_number   1
_chemical_formula_structural   Cr5Fe2Ni47
_chemical_formula_sum   'Cr5 Fe2 Ni47'
_cell_volume   586.51705314
_cell_formula_units_Z   1
loop_
 _symmetry_equiv_pos_site_id
 _symmetry_equiv_pos_as_xyz
  1  'x, y, z'
loop_
 _atom_site_type_symbol
 _atom_site_label
 _atom_site_symmetry_multiplicity
 _atom_site_fract_x
 _atom_site_fract_y
 _atom_site_fract_z
 _atom_site_occupancy
  Ni  Ni0  1  0.00263251  0.99832094  0.00068955  1
  Ni  Ni1  1  0.16876988  0.16752298  0.16712947  1
  Ni  Ni2  1  0.00181299  0.99910637  0.33459760  1
  Ni  Ni3  1  0.00385057  0.33581340  0.99998673  1
  Ni  Ni4  1  0.16732509  0.50052790  0.16760573  1
  Ni  Ni5  1  0.00298177  0.33496621  0.33531290  1
  Ni  Ni6  1  0.00082621  0.66788466  0.00068993  1
  Ni  Ni7  1  0.16765359  0.83389678  0.16760673  1
  Ni  Ni8  1  1.00063229  0.66784710  0.33372595  1
  Ni  Ni9  1  0.33341010  1.00053004  1.00016856  1
  Ni  Ni10  1  0.49728436  0.16518677  0.16714968  1
  Ni  Ni11  1  0.33345387  0.00071341  0.33423747  1
  Ni  Ni12  1  0.33247083  0.33399760  0.00105227  1
  Ni  Ni13  1  0.49858938  0.50286113  0.16756515  1
  Ni  Ni14  1  0.33262106  0.33378302  0.33333394  1
  Ni  Ni15  1  0.33346829  0.66739988  1.00016260  1
  Ni  Ni16  1  0.50051146  0.83384114  0.16760457  1
  Ni  Ni17  1  0.33345023  0.66741789  0.33475696  1
  Ni  Ni18  1  0.66582025  0.99747197  1.00059795  1
  Cr  Cr19  1  0.83628729  0.16537721  0.16769241  1
  Ni  Ni20  1  0.66663168  0.99829879  0.33471471  1
  Cr  Cr21  1  0.66497347  0.33602815  0.00079127  1
  Ni  Ni22  1  0.83606042  0.50372775  0.16715180  1
  Cr  Cr23  1  0.66580289  0.33516004  0.33453652  1
  Ni  Ni24  1  0.66766847  0.66876394  1.00057862  1
  Ni  Ni25  1  0.83375849  0.83240351  0.16712577  1
  Ni  Ni26  1  0.66786979  0.66862023  0.33384042  1
  Ni  Ni27  1  0.16714253  0.16652501  0.49967306  1
  Ni  Ni28  1  0.00165384  0.99857235  0.66657051  1
  Ni  Ni29  1  0.16802640  0.16641058  0.83527616  1
  Ni  Ni30  1  0.16634042  0.50130943  0.49966910  1
  Fe  Fe31  1  0.00088212  0.33507022  0.66669416  1
  Ni  Ni32  1  0.16663121  0.50165650  0.83474246  1
  Ni  Ni33  1  0.16724420  0.83413048  0.50076457  1
  Ni  Ni34  1  1.00060483  0.66847694  0.66753704  1
  Ni  Ni35  1  0.16745880  0.83391531  0.83353172  1
  Ni  Ni36  1  0.49985000  0.16554188  0.50058027  1
  Ni  Ni37  1  0.33319271  0.99971988  0.66752599  1
  Ni  Ni38  1  0.49923268  0.16548940  0.83426901  1
  Ni  Ni39  1  0.50079252  0.50226443  0.50054048  1
  Cr  Cr40  1  0.33475927  0.33409246  0.66779084  1
  Ni  Ni41  1  0.50055664  0.50259076  0.83381478  1
  Ni  Ni42  1  0.50094209  0.83412147  0.50087744  1
  Ni  Ni43  1  0.33317112  0.66856349  0.66701418  1
  Ni  Ni44  1  0.50069317  0.83385542  0.83343411  1
  Fe  Fe45  1  0.83459403  0.16612943  0.50116367  1
  Ni  Ni46  1  0.66701090  1.00000522  0.66654266  1
  Cr  Cr47  1  0.83483427  0.16622055  0.83270427  1
  Ni  Ni48  1  0.83484473  0.50213297  0.50158862  1
  Ni  Ni49  1  0.66732829  0.33485363  0.66650293  1
  Ni  Ni50  1  0.83481723  0.50295009  0.83328227  1
  Ni  Ni51  1  0.83377736  0.83322990  0.50037342  1
  Ni  Ni52  1  0.66807411  0.66702900  0.66753075  1
  Ni  Ni53  1  0.83378798  0.83253507  0.83446094  1
" 