6300,Ni88Cr12_14,-204.264831973144, 178.001859753867,Ni88Cr12,"# generated using pymatgen
 data_Cr47Ni7
_symmetry_space_group_name_H-M   'P 1'
_cell_length_a   7.58900992
_cell_length_b   7.58900992
_cell_length_c   10.73248075
_cell_angle_alpha   90.00000000
_cell_angle_beta   90.00000000
_cell_angle_gamma   90.00000000
_symmetry_Int_Tables_number   1
_chemical_formula_structural   Cr47Ni7
_chemical_formula_sum   'Cr47 Ni7'
_cell_volume   618.11653180
_cell_formula_units_Z   1
loop_
 _symmetry_equiv_pos_site_id
 _symmetry_equiv_pos_as_xyz
  1  'x, y, z'
loop_
 _atom_site_type_symbol
 _atom_site_label
 _atom_site_symmetry_multiplicity
 _atom_site_fract_x
 _atom_site_fract_y
 _atom_site_fract_z
 _atom_site_occupancy
  Cr  Cr0  1  -0.00783494  -0.00775038  -0.00729985  1
  Cr  Cr1  1  0.15792345  0.15979415  0.15977119  1
  Cr  Cr2  1  -0.00717790  0.99103580  0.32365870  1
  Cr  Cr3  1  0.99045982  0.32578788  0.99063990  1
  Cr  Cr4  1  0.16056375  0.49334785  0.15844587  1
  Cr  Cr5  1  0.98979482  0.32641701  0.32546569  1
  Cr  Cr6  1  0.99021544  0.65779689  0.99065112  1
  Cr  Cr7  1  0.15861104  0.82274525  0.15791467  1
  Cr  Cr8  1  0.98968459  0.65840502  0.32678528  1
  Cr  Cr9  1  0.32583170  0.99119712  -0.00770205  1
  Cr  Cr10  1  0.49415891  0.15857466  0.15787087  1
  Cr  Cr11  1  0.32654961  0.99066523  0.32621649  1
  Cr  Cr12  1  0.32552900  0.32462395  0.99185851  1
  Cr  Cr13  1  0.49133226  0.49403328  0.15656642  1
  Cr  Cr14  1  0.32675245  0.32398535  0.32447675  1
  Ni  Ni15  1  0.32797213  0.65919345  -0.00785239  1
  Cr  Cr16  1  0.49398539  0.82333517  0.15601930  1
  Cr  Cr17  1  0.32727704  0.66122133  0.32612118  1
  Ni  Ni18  1  0.65809787  0.98937990  0.99169070  1
  Cr  Cr19  1  0.82377859  0.15658141  0.15832471  1
  Cr  Cr20  1  0.65655718  0.99051855  0.32576134  1
  Cr  Cr21  1  0.65995755  0.32659419  0.99149527  1
  Cr  Cr22  1  0.82401338  0.49369546  0.15865041  1
  Cr  Cr23  1  0.65934393  0.32704117  0.32597066  1
  Ni  Ni24  1  0.65761154  0.65973614  0.99083385  1
  Cr  Cr25  1  0.82316955  0.82561036  0.15655951  1
  Cr  Cr26  1  0.65883486  0.65839726  0.32755533  1
  Cr  Cr27  1  0.15774531  0.15968897  0.49206254  1
  Cr  Cr28  1  -0.00800849  0.99098074  0.65947371  1
  Cr  Cr29  1  0.15841348  0.15904239  0.82407664  1
  Cr  Cr30  1  0.15817700  0.49162033  0.49161886  1
  Cr  Cr31  1  0.98928293  0.32784427  0.66001356  1
  Cr  Cr32  1  0.15984658  0.49339290  0.82584724  1
  Cr  Cr33  1  0.15865887  0.82458638  0.49208226  1
  Cr  Cr34  1  0.98906207  0.65695135  0.65876986  1
  Cr  Cr35  1  0.15923514  0.82344514  0.82598952  1
  Cr  Cr36  1  0.49366224  0.15758779  0.49340483  1
  Cr  Cr37  1  0.32756880  0.99054906  0.65733649  1
  Cr  Cr38  1  0.49466537  0.15695543  0.82443884  1
  Cr  Cr39  1  0.49172750  0.49271773  0.49129102  1
  Cr  Cr40  1  0.32627848  0.32470940  0.65947232  1
  Cr  Cr41  1  0.49208308  0.49413493  0.82801423  1
  Ni  Ni42  1  0.49380942  0.82647360  0.49324874  1
  Cr  Cr43  1  0.32695044  0.66055542  0.65778455  1
  Cr  Cr44  1  0.49429369  0.82484853  0.82640145  1
  Cr  Cr45  1  0.82472811  0.15807965  0.49245372  1
  Ni  Ni46  1  0.65731484  0.99033585  0.65739663  1
  Cr  Cr47  1  0.82295268  0.15636091  0.82498632  1
  Ni  Ni48  1  0.82522067  0.49191486  0.49223269  1
  Cr  Cr49  1  0.66024707  0.32741214  0.65876160  1
  Ni  Ni50  1  0.82356899  0.49353264  0.82635703  1
  Cr  Cr51  1  0.82363449  0.82633582  0.49249845  1
  Cr  Cr52  1  0.65963036  0.65819232  0.65708677  1
  Cr  Cr53  1  0.82234327  0.82587337  0.82653604  1
" 