1660,Ni88Fe5Cr5_15,-236.892018025405, 174.407198514504,Ni88Fe5Cr5,"# generated using pymatgen
 data_Cr5Fe2Ni47
_symmetry_space_group_name_H-M   'P 1'
_cell_length_a   7.46103056
_cell_length_b   7.46103056
_cell_length_c   10.55149060
_cell_angle_alpha   90.00000000
_cell_angle_beta   90.00000000
_cell_angle_gamma   90.00000000
_symmetry_Int_Tables_number   1
_chemical_formula_structural   Cr5Fe2Ni47
_chemical_formula_sum   'Cr5 Fe2 Ni47'
_cell_volume   587.36958428
_cell_formula_units_Z   1
loop_
 _symmetry_equiv_pos_site_id
 _symmetry_equiv_pos_as_xyz
  1  'x, y, z'
loop_
 _atom_site_type_symbol
 _atom_site_label
 _atom_site_symmetry_multiplicity
 _atom_site_fract_x
 _atom_site_fract_y
 _atom_site_fract_z
 _atom_site_occupancy
  Ni  Ni0  1  0.00127174  0.00142523  0.99890387  1
  Ni  Ni1  1  0.16789305  0.16724743  0.16727591  1
  Ni  Ni2  1  0.00044907  0.00137564  0.33551905  1
  Ni  Ni3  1  0.00043927  0.33334660  0.00070781  1
  Ni  Ni4  1  0.16652264  0.49937527  0.16627237  1
  Ni  Ni5  1  0.00047820  0.33292044  0.33371614  1
  Ni  Ni6  1  0.00170675  0.66643699  1.00006146  1
  Ni  Ni7  1  0.16827096  0.83458992  0.16638280  1
  Ni  Ni8  1  0.99990931  0.66691342  0.33479537  1
  Ni  Ni9  1  0.33292636  0.99908015  0.00220738  1
  Ni  Ni10  1  0.50012227  0.16706404  0.16746367  1
  Fe  Fe11  1  0.33187930  0.00214351  0.33192000  1
  Ni  Ni12  1  0.33268112  0.33461534  0.00123694  1
  Ni  Ni13  1  0.50112296  0.49918771  0.16645962  1
  Ni  Ni14  1  0.33292259  0.33321278  0.33337346  1
  Ni  Ni15  1  0.33376014  0.66751541  1.00002081  1
  Ni  Ni16  1  0.49956167  0.83495997  0.16599888  1
  Cr  Cr17  1  0.33294588  0.66593313  0.33305181  1
  Ni  Ni18  1  0.66701165  1.00034633  0.00046174  1
  Ni  Ni19  1  0.83319361  0.16880689  0.16710711  1
  Ni  Ni20  1  0.66867588  0.00137614  0.33287644  1
  Ni  Ni21  1  0.66808913  0.33418039  0.00154055  1
  Ni  Ni22  1  0.83356444  0.49880874  0.16738125  1
  Ni  Ni23  1  0.66780804  0.33375456  0.33312827  1
  Ni  Ni24  1  0.66574368  0.66668283  0.99957088  1
  Cr  Cr25  1  0.83387219  0.83296160  0.16729538  1
  Ni  Ni26  1  0.66837829  0.66607817  0.33420400  1
  Ni  Ni27  1  0.16558576  0.16735920  0.50033941  1
  Fe  Fe28  1  0.00044502  0.00046573  0.66696816  1
  Ni  Ni29  1  0.16564612  0.16706039  0.83359638  1
  Ni  Ni30  1  0.16596084  0.49956884  0.50123668  1
  Ni  Ni31  1  0.00068225  0.33374370  0.66678554  1
  Ni  Ni32  1  0.16700996  0.50059726  0.83370001  1
  Ni  Ni33  1  0.16412759  0.83428360  0.50104501  1
  Ni  Ni34  1  0.00087026  0.66687432  0.66635210  1
  Ni  Ni35  1  0.16710259  0.83355156  0.83378457  1
  Cr  Cr36  1  0.50018316  0.16897147  0.50034896  1
  Ni  Ni37  1  0.33189018  0.99932315  0.66720150  1
  Cr  Cr38  1  0.50022400  0.16723632  0.83352474  1
  Ni  Ni39  1  0.50131661  0.49937956  0.50145354  1
  Ni  Ni40  1  0.33185333  0.33522013  0.66659868  1
  Ni  Ni41  1  0.50046079  0.50224289  0.83329583  1
  Cr  Cr42  1  0.50163861  0.83307565  0.50120807  1
  Ni  Ni43  1  0.33293319  0.66666791  0.66806163  1
  Ni  Ni44  1  0.50064359  0.83218531  0.83389578  1
  Ni  Ni45  1  0.83530330  0.16708968  0.50031906  1
  Ni  Ni46  1  0.66888063  0.99951209  0.66786882  1
  Ni  Ni47  1  0.83510652  0.16687768  0.83378411  1
  Ni  Ni48  1  0.83393276  0.50083489  0.49994075  1
  Ni  Ni49  1  0.66867390  0.33478596  0.66654141  1
  Ni  Ni50  1  0.83373913  0.50078574  0.83388780  1
  Ni  Ni51  1  0.83549446  0.83328498  0.50026825  1
  Ni  Ni52  1  0.66740647  0.66691193  0.66743386  1
  Ni  Ni53  1  0.83346328  0.83354594  0.83340095  1
" 