3610,Ni88Fe5Cr5_2,-237.023577730583, 174.8486986042,Ni88Fe5Cr5,"# generated using pymatgen
 data_Cr5Fe2Ni47
_symmetry_space_group_name_H-M   'P 1'
_cell_length_a   7.45672328
_cell_length_b   7.45672328
_cell_length_c   10.54539919
_cell_angle_alpha   90.00000000
_cell_angle_beta   90.00000000
_cell_angle_gamma   90.00000000
_symmetry_Int_Tables_number   1
_chemical_formula_structural   Cr5Fe2Ni47
_chemical_formula_sum   'Cr5 Fe2 Ni47'
_cell_volume   586.35290026
_cell_formula_units_Z   1
loop_
 _symmetry_equiv_pos_site_id
 _symmetry_equiv_pos_as_xyz
  1  'x, y, z'
loop_
 _atom_site_type_symbol
 _atom_site_label
 _atom_site_symmetry_multiplicity
 _atom_site_fract_x
 _atom_site_fract_y
 _atom_site_fract_z
 _atom_site_occupancy
  Ni  Ni0  1  1.00005650  0.99990620  0.99989705  1
  Ni  Ni1  1  0.16787163  0.16683458  0.16735895  1
  Ni  Ni2  1  1.00005650  0.99990620  0.33482085  1
  Ni  Ni3  1  1.00063638  0.33433270  0.99896841  1
  Cr  Cr4  1  0.16798031  0.50091722  0.16735895  1
  Ni  Ni5  1  1.00063638  0.33433270  0.33574949  1
  Ni  Ni6  1  0.99938338  0.66783766  1.00008005  1
  Ni  Ni7  1  0.16527479  0.83397803  0.16735895  1
  Ni  Ni8  1  0.99938338  0.66783766  0.33463785  1
  Cr  Cr9  1  0.33399102  0.00138312  0.00097925  1
  Ni  Ni10  1  0.50075053  0.16945354  0.16735895  1
  Cr  Cr11  1  0.33399102  0.00138312  0.33373865  1
  Ni  Ni12  1  0.33472681  0.33450034  1.00031479  1
  Ni  Ni13  1  0.50178430  0.50020018  0.16735895  1
  Ni  Ni14  1  0.33472681  0.33450034  0.33440311  1
  Ni  Ni15  1  0.33470890  0.66639554  0.99959732  1
  Fe  Fe16  1  0.50239902  0.83230729  0.16735895  1
  Ni  Ni17  1  0.33470890  0.66639554  0.33512058  1
  Ni  Ni18  1  0.66815992  0.99992502  1.00001553  1
  Cr  Cr19  1  0.83380333  0.16674583  0.16735895  1
  Ni  Ni20  1  0.66815992  0.99992502  0.33470237  1
  Ni  Ni21  1  0.66671362  0.33516878  0.99967534  1
  Ni  Ni22  1  0.83191221  0.50279188  0.16735895  1
  Ni  Ni23  1  0.66671362  0.33516878  0.33504256  1
  Ni  Ni24  1  0.66798743  0.66697948  0.00090383  1
  Ni  Ni25  1  0.83451998  0.83294052  0.16735895  1
  Ni  Ni26  1  0.66798743  0.66697948  0.33381407  1
  Ni  Ni27  1  0.16633038  0.16814344  0.50100522  1
  Ni  Ni28  1  0.00071503  0.00279472  0.66735895  1
  Ni  Ni29  1  0.16633038  0.16814344  0.83371268  1
  Ni  Ni30  1  0.16854782  0.50008349  0.49951360  1
  Ni  Ni31  1  0.00141282  0.33225840  0.66735895  1
  Ni  Ni32  1  0.16854782  0.50008349  0.83520430  1
  Ni  Ni33  1  0.16728917  0.83384919  0.50044114  1
  Cr  Cr34  1  1.00007944  0.66675115  0.66735895  1
  Ni  Ni35  1  0.16728917  0.83384919  0.83427676  1
  Ni  Ni36  1  0.50156254  0.16812231  0.50111704  1
  Ni  Ni37  1  0.33458664  0.00125264  0.66735895  1
  Ni  Ni38  1  0.50156254  0.16812231  0.83360086  1
  Ni  Ni39  1  0.50018250  0.50094520  0.50033324  1
  Ni  Ni40  1  0.33352312  0.33344240  0.66735895  1
  Ni  Ni41  1  0.50018250  0.50094520  0.83438466  1
  Ni  Ni42  1  0.50146460  0.83300931  0.50113971  1
  Ni  Ni43  1  0.33613022  0.66738162  0.66735895  1
  Ni  Ni44  1  0.50146460  0.83300931  0.83357819  1
  Ni  Ni45  1  0.83418680  0.16686158  0.50045894  1
  Ni  Ni46  1  0.66677569  1.00018756  0.66735895  1
  Ni  Ni47  1  0.83418680  0.16686158  0.83425896  1
  Ni  Ni48  1  0.83334351  0.49998550  0.49912741  1
  Fe  Fe49  1  0.66707990  0.33375341  0.66735895  1
  Ni  Ni50  1  0.83334351  0.49998550  0.83559049  1
  Ni  Ni51  1  0.83332551  0.83522716  0.49938893  1
  Ni  Ni52  1  0.66559081  0.66808026  0.66735895  1
  Ni  Ni53  1  0.83332551  0.83522716  0.83532897  1
" 