3501,Ni88Fe5Cr5_14,-237.001621355657, 174.866322402156,Ni88Fe5Cr5,"# generated using pymatgen
 data_Cr5Fe2Ni47
_symmetry_space_group_name_H-M   'P 1'
_cell_length_a   7.46032311
_cell_length_b   7.46032311
_cell_length_c   10.55049013
_cell_angle_alpha   90.00000000
_cell_angle_beta   90.00000000
_cell_angle_gamma   90.00000000
_symmetry_Int_Tables_number   1
_chemical_formula_structural   Cr5Fe2Ni47
_chemical_formula_sum   'Cr5 Fe2 Ni47'
_cell_volume   587.20251971
_cell_formula_units_Z   1
loop_
 _symmetry_equiv_pos_site_id
 _symmetry_equiv_pos_as_xyz
  1  'x, y, z'
loop_
 _atom_site_type_symbol
 _atom_site_label
 _atom_site_symmetry_multiplicity
 _atom_site_fract_x
 _atom_site_fract_y
 _atom_site_fract_z
 _atom_site_occupancy
  Ni  Ni0  1  1.00029834  0.99953831  1.00037486  1
  Ni  Ni1  1  0.16784021  0.16843667  0.16635741  1
  Cr  Cr2  1  0.00074769  0.99974683  0.33378681  1
  Fe  Fe3  1  0.00291257  0.33288484  0.00139457  1
  Ni  Ni4  1  0.16642273  0.49975321  0.16741961  1
  Ni  Ni5  1  0.00198369  0.33553926  0.33302762  1
  Ni  Ni6  1  0.00131977  0.66905146  0.00174634  1
  Ni  Ni7  1  0.16599936  0.83316123  0.16652124  1
  Ni  Ni8  1  0.00054857  0.66578676  0.33350106  1
  Ni  Ni9  1  0.33227000  0.00157869  0.99995462  1
  Ni  Ni10  1  0.49891066  0.16701251  0.16729804  1
  Ni  Ni11  1  0.33437039  0.00134822  0.33427793  1
  Ni  Ni12  1  0.33313050  0.33396445  0.00073457  1
  Ni  Ni13  1  0.49931740  0.50017234  0.16712411  1
  Ni  Ni14  1  0.33272978  0.33393526  0.33332367  1
  Ni  Ni15  1  0.33244398  0.66580812  0.99954736  1
  Cr  Cr16  1  0.50082874  0.83430165  0.16763002  1
  Ni  Ni17  1  0.33283749  0.66606866  0.33431015  1
  Ni  Ni18  1  0.66878507  1.00022771  0.99990282  1
  Ni  Ni19  1  0.83460801  0.16658977  0.16663304  1
  Ni  Ni20  1  0.66636080  0.99991153  0.33402797  1
  Cr  Cr21  1  0.66532318  0.33315265  0.00131107  1
  Ni  Ni22  1  0.83561533  0.50201031  0.16754916  1
  Cr  Cr23  1  0.66658280  0.33391257  0.33359146  1
  Ni  Ni24  1  0.66758921  0.66818120  0.00073621  1
  Ni  Ni25  1  0.83418563  0.83275315  0.16611166  1
  Ni  Ni26  1  0.66796411  0.66743152  0.33409814  1
  Ni  Ni27  1  0.16851321  0.16813940  0.50100202  1
  Ni  Ni28  1  1.00022073  1.00042463  0.66754739  1
  Ni  Ni29  1  0.16741623  0.16707538  0.83399463  1
  Ni  Ni30  1  0.16628178  0.49983573  0.50016949  1
  Ni  Ni31  1  0.00088277  0.33286664  0.66662885  1
  Ni  Ni32  1  0.16871604  0.50015534  0.83375962  1
  Ni  Ni33  1  0.16765539  0.83337746  0.50105555  1
  Ni  Ni34  1  0.00115909  0.66805642  0.66610925  1
  Ni  Ni35  1  0.16727927  0.83412047  0.83377841  1
  Ni  Ni36  1  0.49910143  0.16592730  0.50082343  1
  Ni  Ni37  1  0.33344756  0.00073741  0.66712164  1
  Ni  Ni38  1  0.49951567  0.16595428  0.83323191  1
  Ni  Ni39  1  0.50031970  0.50103420  0.50123150  1
  Ni  Ni40  1  0.33421190  0.33398180  0.66729655  1
  Ni  Ni41  1  0.49821820  0.50127112  0.83299656  1
  Ni  Ni42  1  0.50115825  0.83438999  0.50017260  1
  Ni  Ni43  1  0.33362237  0.66663236  0.66749566  1
  Ni  Ni44  1  0.50076348  0.83412732  0.83368287  1
  Fe  Fe45  1  0.83379709  0.16717660  0.50219629  1
  Ni  Ni46  1  0.66768360  0.00101441  0.66742011  1
  Ni  Ni47  1  0.83442363  0.16452185  0.83252933  1
  Ni  Ni48  1  0.83475091  0.50189184  0.50081896  1
  Ni  Ni49  1  0.66626022  0.33304310  0.66635453  1
  Cr  Cr50  1  0.83459560  0.50145184  0.83286252  1
  Ni  Ni51  1  0.83253876  0.83215677  0.50100355  1
  Ni  Ni52  1  0.66656898  0.66729385  0.66651803  1
  Ni  Ni53  1  0.83330906  0.83542056  0.83424415  1
" 