7033,Ni88Cr12_15,-204.149085775761, 175.9837197061,Ni88Cr12,"# generated using pymatgen
 data_Cr47Ni7
_symmetry_space_group_name_H-M   'P 1'
_cell_length_a   7.59327226
_cell_length_b   7.59327226
_cell_length_c   10.73850861
_cell_angle_alpha   90.00000000
_cell_angle_beta   90.00000000
_cell_angle_gamma   90.00000000
_symmetry_Int_Tables_number   1
_chemical_formula_structural   Cr47Ni7
_chemical_formula_sum   'Cr47 Ni7'
_cell_volume   619.15860614
_cell_formula_units_Z   1
loop_
 _symmetry_equiv_pos_site_id
 _symmetry_equiv_pos_as_xyz
  1  'x, y, z'
loop_
 _atom_site_type_symbol
 _atom_site_label
 _atom_site_symmetry_multiplicity
 _atom_site_fract_x
 _atom_site_fract_y
 _atom_site_fract_z
 _atom_site_occupancy
  Cr  Cr0  1  -0.00717134  0.99124650  -0.00681943  1
  Cr  Cr1  1  0.15817133  0.15743996  0.15812408  1
  Cr  Cr2  1  -0.00751849  0.99013856  0.32388353  1
  Cr  Cr3  1  0.99054741  0.32534830  0.99008522  1
  Cr  Cr4  1  0.15819433  0.49339220  0.15925895  1
  Cr  Cr5  1  0.99133927  0.32566623  0.32583445  1
  Cr  Cr6  1  0.99168573  0.65846794  0.99091822  1
  Ni  Ni7  1  0.15942893  0.82413441  0.15943489  1
  Ni  Ni8  1  -0.00742885  0.65889731  0.32409028  1
  Cr  Cr9  1  0.32522730  0.99066799  -0.00699487  1
  Cr  Cr10  1  0.49187233  0.15743347  0.15807504  1
  Cr  Cr11  1  0.32462691  0.99006999  0.32315174  1
  Cr  Cr12  1  0.32580918  0.32423354  0.99090150  1
  Cr  Cr13  1  0.49129055  0.49284488  0.15870732  1
  Cr  Cr14  1  0.32520617  0.32518118  0.32560371  1
  Cr  Cr15  1  0.32525363  0.66016534  -0.00626623  1
  Ni  Ni16  1  0.48963528  0.82512097  0.15845402  1
  Cr  Cr17  1  0.32414739  0.65981415  0.32333346  1
  Cr  Cr18  1  0.65701043  -0.00819856  -0.00777710  1
  Cr  Cr19  1  0.82502136  0.15791266  0.15870672  1
  Cr  Cr20  1  0.65795721  0.99120048  0.32428406  1
  Cr  Cr21  1  0.65870869  0.32537367  0.99011562  1
  Cr  Cr22  1  0.82557953  0.49233890  0.15885828  1
  Cr  Cr23  1  0.65852006  0.32518646  0.32525179  1
  Cr  Cr24  1  0.65812401  0.65788982  0.99145476  1
  Cr  Cr25  1  0.82557091  0.82481271  0.15925914  1
  Cr  Cr26  1  0.65844342  0.65867825  0.32446555  1
  Cr  Cr27  1  0.15914667  0.15826364  0.49247636  1
  Cr  Cr28  1  -0.00796141  -0.00830641  0.65800526  1
  Cr  Cr29  1  0.16043685  0.15808210  0.82446706  1
  Cr  Cr30  1  0.15803072  0.49212993  0.49054958  1
  Cr  Cr31  1  0.99089517  0.32571080  0.65914280  1
  Cr  Cr32  1  0.15717773  0.49152378  0.82525181  1
  Cr  Cr33  1  0.15800739  0.82467128  0.49209978  1
  Cr  Cr34  1  0.99090049  0.65765986  0.65909515  1
  Cr  Cr35  1  0.15879544  0.82545932  0.82428533  1
  Cr  Cr36  1  0.49168907  0.15713157  0.49365715  1
  Ni  Ni37  1  0.32795809  -0.00733111  0.65933728  1
  Ni  Ni38  1  0.49196182  0.15701008  0.82301382  1
  Cr  Cr39  1  0.49110643  0.49157109  0.49075500  1
  Cr  Cr40  1  0.32562400  0.32297080  0.65855769  1
  Cr  Cr41  1  0.49256211  0.49046458  0.82560322  1
  Cr  Cr42  1  0.49226973  0.82636473  0.49379450  1
  Cr  Cr43  1  0.32507074  0.65985945  0.65800486  1
  Cr  Cr44  1  0.49208623  0.82764993  0.82315225  1
  Cr  Cr45  1  0.82423011  0.15710119  0.49131097  1
  Ni  Ni46  1  0.65527386  -0.00732802  0.65918767  1
  Cr  Cr47  1  0.82312905  0.15855554  0.82505174  1
  Cr  Cr48  1  0.82592714  0.49271043  0.49036934  1
  Cr  Cr49  1  0.65854514  0.32410756  0.65969204  1
  Ni  Ni50  1  0.82499230  0.49131862  0.82497138  1
  Cr  Cr51  1  0.82478862  0.82525250  0.49191880  1
  Cr  Cr52  1  0.65909216  0.65871515  0.65914319  1
  Cr  Cr53  1  0.82418467  0.82439732  0.82388426  1
" 