2949,Ni88Fe7Cr3_15,-238.723937200257, 180.500553938538,Ni88Fe7Cr3,"# generated using pymatgen
 data_CrFeNi16
_symmetry_space_group_name_H-M   'P 1'
_cell_length_a   7.45313534
_cell_length_b   7.45313534
_cell_length_c   10.54032509
_cell_angle_alpha   90.00000000
_cell_angle_beta   90.00000000
_cell_angle_gamma   90.00000000
_symmetry_Int_Tables_number   1
_chemical_formula_structural   CrFeNi16
_chemical_formula_sum   'Cr3 Fe3 Ni48'
_cell_volume   585.50690517
_cell_formula_units_Z   3
loop_
 _symmetry_equiv_pos_site_id
 _symmetry_equiv_pos_as_xyz
  1  'x, y, z'
loop_
 _atom_site_type_symbol
 _atom_site_label
 _atom_site_symmetry_multiplicity
 _atom_site_fract_x
 _atom_site_fract_y
 _atom_site_fract_z
 _atom_site_occupancy
  Ni  Ni0  1  0.00129255  0.00111060  1.00061508  1
  Fe  Fe1  1  0.16771226  0.16750751  0.16767908  1
  Ni  Ni2  1  0.00198068  0.00117767  0.33446543  1
  Ni  Ni3  1  0.00098171  0.33383053  0.00144326  1
  Ni  Ni4  1  0.16788781  0.50166451  0.16816633  1
  Ni  Ni5  1  1.00068026  0.33350462  0.33401193  1
  Ni  Ni6  1  0.00219302  0.66784530  0.00115236  1
  Ni  Ni7  1  0.16771224  0.83349150  0.16783150  1
  Ni  Ni8  1  0.00194589  0.66815996  0.33461037  1
  Ni  Ni9  1  0.33422168  0.00116980  1.00086291  1
  Ni  Ni10  1  0.50188219  0.16783848  0.16826000  1
  Ni  Ni11  1  0.33330523  1.00091121  0.33426391  1
  Ni  Ni12  1  0.33435370  0.33359017  0.00098339  1
  Ni  Ni13  1  0.49813758  0.49822287  0.16742554  1
  Ni  Ni14  1  0.33446681  0.33356882  0.33452280  1
  Ni  Ni15  1  0.33291511  0.66801458  0.00139506  1
  Ni  Ni16  1  0.49802909  0.83691606  0.16745085  1
  Ni  Ni17  1  0.33339135  0.66832234  0.33404219  1
  Ni  Ni18  1  0.66729775  0.00248736  0.00174510  1
  Ni  Ni19  1  0.83343756  0.16768241  0.16750894  1
  Fe  Fe20  1  0.66767525  0.00202962  0.33394107  1
  Ni  Ni21  1  0.66746919  0.33266714  1.00075770  1
  Ni  Ni22  1  0.83676185  0.49808780  0.16778113  1
  Ni  Ni23  1  0.66761901  0.33349952  0.33437558  1
  Cr  Cr24  1  0.66717762  0.66774003  0.00125206  1
  Ni  Ni25  1  0.83704523  0.83722104  0.16779679  1
  Cr  Cr26  1  0.66736968  0.66724840  0.33319091  1
  Ni  Ni27  1  0.16778504  0.16656023  0.49950184  1
  Ni  Ni28  1  0.00147498  0.99969713  0.66772130  1
  Ni  Ni29  1  0.16868540  0.16658202  0.83590995  1
  Ni  Ni30  1  0.16922898  0.50176510  0.49964549  1
  Cr  Cr31  1  0.00194869  0.33317208  0.66776458  1
  Ni  Ni32  1  0.16900856  0.50212638  0.83506948  1
  Ni  Ni33  1  0.16807869  0.83451660  0.50107246  1
  Ni  Ni34  1  1.00052439  0.66941421  0.66703681  1
  Ni  Ni35  1  0.16777980  0.83409361  0.83390300  1
  Fe  Fe36  1  0.50053558  0.16771487  0.50115794  1
  Ni  Ni37  1  0.33380090  0.00109976  0.66770641  1
  Ni  Ni38  1  0.50135920  0.16755538  0.83355291  1
  Ni  Ni39  1  0.49963835  0.50044451  0.50172297  1
  Ni  Ni40  1  0.33573340  0.33363780  0.66733370  1
  Ni  Ni41  1  0.49943713  0.49963442  0.83356034  1
  Ni  Ni42  1  0.49957364  0.83467148  0.50146995  1
  Ni  Ni43  1  0.33483573  0.66803693  0.66739254  1
  Ni  Ni44  1  0.49974071  0.83563512  0.83379243  1
  Ni  Ni45  1  0.83363185  0.16662427  0.49994181  1
  Ni  Ni46  1  0.66747163  1.00054615  0.66693684  1
  Ni  Ni47  1  0.83278961  0.16636379  0.83538436  1
  Ni  Ni48  1  0.83399970  0.50021929  0.50070510  1
  Ni  Ni49  1  0.66617295  0.33454429  0.66766045  1
  Ni  Ni50  1  0.83437913  0.50043767  0.83429352  1
  Ni  Ni51  1  0.83515039  0.83605494  0.50171115  1
  Ni  Ni52  1  0.66743607  0.66773826  0.66773383  1
  Ni  Ni53  1  0.83525625  0.83600298  0.83318666  1
" 