2181,Ni88Fe5Cr5_3,-236.997774693066, 173.347151276445,Ni88Fe5Cr5,"# generated using pymatgen
 data_Cr5Fe2Ni47
_symmetry_space_group_name_H-M   'P 1'
_cell_length_a   7.45935413
_cell_length_b   7.45935413
_cell_length_c   10.54911977
_cell_angle_alpha   90.00000000
_cell_angle_beta   90.00000000
_cell_angle_gamma   90.00000000
_symmetry_Int_Tables_number   1
_chemical_formula_structural   Cr5Fe2Ni47
_chemical_formula_sum   'Cr5 Fe2 Ni47'
_cell_volume   586.97374238
_cell_formula_units_Z   1
loop_
 _symmetry_equiv_pos_site_id
 _symmetry_equiv_pos_as_xyz
  1  'x, y, z'
loop_
 _atom_site_type_symbol
 _atom_site_label
 _atom_site_symmetry_multiplicity
 _atom_site_fract_x
 _atom_site_fract_y
 _atom_site_fract_z
 _atom_site_occupancy
  Ni  Ni0  1  0.00353828  0.00209910  0.99945338  1
  Ni  Ni1  1  0.16717312  0.16745215  0.16810017  1
  Ni  Ni2  1  0.00194253  0.00231067  0.33470812  1
  Ni  Ni3  1  0.00078878  0.33351749  1.00032702  1
  Ni  Ni4  1  0.16612190  0.49930957  0.16655394  1
  Ni  Ni5  1  0.99982614  0.33364571  0.33395729  1
  Ni  Ni6  1  0.00182453  0.66576188  1.00002882  1
  Ni  Ni7  1  0.16792320  0.83466673  0.16604643  1
  Ni  Ni8  1  0.00201907  0.66571699  0.33480523  1
  Ni  Ni9  1  0.33117255  0.00165748  0.00151403  1
  Ni  Ni10  1  0.49940052  0.16839417  0.16824562  1
  Ni  Ni11  1  0.33354160  0.00157765  0.33369508  1
  Ni  Ni12  1  0.33331342  0.33369627  0.00105807  1
  Ni  Ni13  1  0.50022230  0.49810856  0.16526655  1
  Fe  Fe14  1  0.33359880  0.33274057  0.33406714  1
  Ni  Ni15  1  0.33273600  0.66599122  0.00149900  1
  Ni  Ni16  1  0.49807024  0.83507459  0.16651832  1
  Cr  Cr17  1  0.33250383  0.66745271  0.33383021  1
  Cr  Cr18  1  0.66764891  0.00370516  1.00035204  1
  Ni  Ni19  1  0.83484162  0.16980238  0.16815119  1
  Ni  Ni20  1  0.66605748  0.00361728  0.33486707  1
  Ni  Ni21  1  0.66739717  0.33570569  1.00041418  1
  Ni  Ni22  1  0.83512252  0.49763354  0.16665907  1
  Ni  Ni23  1  0.66804172  0.33206663  0.33344018  1
  Ni  Ni24  1  0.66699521  0.66384950  0.00077451  1
  Cr  Cr25  1  0.83618331  0.83405431  0.16766435  1
  Cr  Cr26  1  0.66700735  0.66553170  0.33512692  1
  Fe  Fe27  1  0.16666213  0.16714940  0.50092737  1
  Ni  Ni28  1  0.00067108  0.00095012  0.66750828  1
  Ni  Ni29  1  0.16740112  0.16768351  0.83310793  1
  Ni  Ni30  1  0.16610990  0.50002649  0.50130541  1
  Ni  Ni31  1  1.00043531  0.33384972  0.66737022  1
  Ni  Ni32  1  0.16724645  0.50003500  0.83369666  1
  Ni  Ni33  1  0.16627004  0.83394445  0.50136417  1
  Ni  Ni34  1  0.00101815  0.66675756  0.66658615  1
  Ni  Ni35  1  0.16537757  0.83383466  0.83422242  1
  Ni  Ni36  1  0.50090536  0.16739585  0.50047454  1
  Ni  Ni37  1  0.33275872  0.00139165  0.66649894  1
  Ni  Ni38  1  0.49928903  0.16985464  0.83280144  1
  Ni  Ni39  1  0.50006943  0.49793364  0.50279094  1
  Ni  Ni40  1  0.33357089  0.33394733  0.66642965  1
  Ni  Ni41  1  0.50003516  0.49817109  0.83351282  1
  Ni  Ni42  1  0.49988152  0.83610564  0.50224162  1
  Ni  Ni43  1  0.33275563  0.66620203  0.66627873  1
  Cr  Cr44  1  0.49935853  0.83291809  0.83275563  1
  Ni  Ni45  1  0.83316776  0.16745248  0.50022245  1
  Ni  Ni46  1  0.66788112  0.00188235  0.66582419  1
  Ni  Ni47  1  0.83501754  0.16831499  0.83301534  1
  Ni  Ni48  1  0.83538996  0.49889885  0.50106410  1
  Ni  Ni49  1  0.66736705  0.33365770  0.66759596  1
  Ni  Ni50  1  0.83431930  0.50021862  0.83380671  1
  Ni  Ni51  1  0.83545845  0.83521153  0.50131591  1
  Ni  Ni52  1  0.66788759  0.66585415  0.66566686  1
  Ni  Ni53  1  0.83653057  0.83306620  0.83233909  1
" 