2400,Ni88Cr12_4,-204.19461928637, 177.11455266265,Ni88Cr12,"# generated using pymatgen
 data_Cr47Ni7
_symmetry_space_group_name_H-M   'P 1'
_cell_length_a   7.59281617
_cell_length_b   7.59281617
_cell_length_c   10.73786361
_cell_angle_alpha   90.00000000
_cell_angle_beta   90.00000000
_cell_angle_gamma   90.00000000
_symmetry_Int_Tables_number   1
_chemical_formula_structural   Cr47Ni7
_chemical_formula_sum   'Cr47 Ni7'
_cell_volume   619.04704355
_cell_formula_units_Z   1
loop_
 _symmetry_equiv_pos_site_id
 _symmetry_equiv_pos_as_xyz
  1  'x, y, z'
loop_
 _atom_site_type_symbol
 _atom_site_label
 _atom_site_symmetry_multiplicity
 _atom_site_fract_x
 _atom_site_fract_y
 _atom_site_fract_z
 _atom_site_occupancy
  Ni  Ni0  1  0.99002234  0.99171730  -0.00828172  1
  Cr  Cr1  1  0.15639441  0.15712485  0.15712569  1
  Cr  Cr2  1  -0.00810165  -0.00695434  0.32522795  1
  Cr  Cr3  1  -0.00815368  0.32313866  -0.00808621  1
  Cr  Cr4  1  0.15950010  0.49255584  0.15782937  1
  Cr  Cr5  1  0.99090157  0.32376949  0.32594206  1
  Cr  Cr6  1  0.99073033  0.66029845  0.99085300  1
  Cr  Cr7  1  0.15796098  0.82547330  0.15763364  1
  Cr  Cr8  1  0.99134063  0.65833930  0.32538459  1
  Cr  Cr9  1  0.32389055  -0.00772646  -0.00806010  1
  Cr  Cr10  1  0.49408646  0.16029570  0.15891394  1
  Cr  Cr11  1  0.32434096  -0.00747122  0.32647419  1
  Cr  Cr12  1  0.32543097  0.32575817  -0.00786294  1
  Ni  Ni13  1  0.49273387  0.49070147  0.15922954  1
  Cr  Cr14  1  0.32587734  0.32482739  0.32482845  1
  Cr  Cr15  1  0.32599134  0.65712255  -0.00701875  1
  Cr  Cr16  1  0.49088220  0.82393565  0.15894122  1
  Cr  Cr17  1  0.32595786  0.65779937  0.32378769  1
  Cr  Cr18  1  0.66104687  0.99115568  0.99082660  1
  Ni  Ni19  1  0.82474559  0.15869068  0.15838482  1
  Cr  Cr20  1  0.65891504  -0.00703226  0.32485466  1
  Cr  Cr21  1  0.65787558  0.32523729  -0.00662134  1
  Cr  Cr22  1  0.82313943  0.48934916  0.16002716  1
  Ni  Ni23  1  0.65837910  0.32518951  0.32321807  1
  Cr  Cr24  1  0.65843059  0.65875963  0.99138480  1
  Cr  Cr25  1  0.82631093  0.82704130  0.15747584  1
  Cr  Cr26  1  0.65785519  0.65680137  0.32407711  1
  Ni  Ni27  1  0.15838257  0.15824576  0.49186038  1
  Cr  Cr28  1  0.99154238  -0.00810137  0.65820688  1
  Cr  Cr29  1  0.15780850  0.15780135  0.82597846  1
  Cr  Cr30  1  0.15837062  0.49175048  0.49313941  1
  Cr  Cr31  1  -0.00682047  0.32466042  0.65729592  1
  Cr  Cr32  1  0.15887088  0.49263404  0.82418423  1
  Cr  Cr33  1  0.15946743  0.82535317  0.49169079  1
  Cr  Cr34  1  0.99147188  0.65859385  0.65891474  1
  Cr  Cr35  1  0.15733430  0.82472046  0.82582816  1
  Cr  Cr36  1  0.49163858  0.15859157  0.49152289  1
  Cr  Cr37  1  0.32483997  -0.00803239  0.65673922  1
  Cr  Cr38  1  0.49209633  0.15833945  0.82471745  1
  Cr  Cr39  1  0.49211525  0.49167547  0.49167464  1
  Cr  Cr40  1  0.32374297  0.32513589  0.65818898  1
  Cr  Cr41  1  0.49100861  0.49207219  0.82434571  1
  Cr  Cr42  1  0.49047987  0.82488618  0.49258399  1
  Ni  Ni43  1  0.32519101  0.65824547  0.65838486  1
  Cr  Cr44  1  0.49200821  0.82474400  0.82362974  1
  Cr  Cr45  1  0.82513117  0.15968903  0.49036659  1
  Cr  Cr46  1  0.65877399  0.99025756  0.65947407  1
  Cr  Cr47  1  0.82525001  0.15680313  0.82640351  1
  Cr  Cr48  1  0.82466488  0.49058771  0.49096327  1
  Cr  Cr49  1  0.65823225  0.32520240  0.65855899  1
  Cr  Cr50  1  0.82527496  0.49254804  0.82416120  1
  Cr  Cr51  1  0.82520461  0.82487423  0.49187692  1
  Cr  Cr52  1  0.65829822  0.65969195  0.65969238  1
  Ni  Ni53  1  0.82590402  0.82590004  0.82589519  1
" 