5363,Ni88Fe7Cr3_4,-238.926835258112, 182.821903741528,Ni88Fe7Cr3,"# generated using pymatgen
 data_CrFeNi16
_symmetry_space_group_name_H-M   'P 1'
_cell_length_a   7.45261714
_cell_length_b   7.45261714
_cell_length_c   10.53959223
_cell_angle_alpha   90.00000000
_cell_angle_beta   90.00000000
_cell_angle_gamma   90.00000000
_symmetry_Int_Tables_number   1
_chemical_formula_structural   CrFeNi16
_chemical_formula_sum   'Cr3 Fe3 Ni48'
_cell_volume   585.38478569
_cell_formula_units_Z   3
loop_
 _symmetry_equiv_pos_site_id
 _symmetry_equiv_pos_as_xyz
  1  'x, y, z'
loop_
 _atom_site_type_symbol
 _atom_site_label
 _atom_site_symmetry_multiplicity
 _atom_site_fract_x
 _atom_site_fract_y
 _atom_site_fract_z
 _atom_site_occupancy
  Ni  Ni0  1  0.00162771  0.00230856  1.00062687  1
  Ni  Ni1  1  0.16694064  0.16742601  0.16868931  1
  Fe  Fe2  1  0.00138840  0.00183847  0.33529697  1
  Ni  Ni3  1  0.99905101  0.33296030  1.00021175  1
  Cr  Cr4  1  0.16805455  0.50091664  0.16679922  1
  Ni  Ni5  1  0.99935793  0.33388829  0.33468777  1
  Ni  Ni6  1  1.00048655  0.66772837  0.99873040  1
  Ni  Ni7  1  0.16809095  0.83489166  0.16867360  1
  Ni  Ni8  1  1.00086488  0.66650081  0.33623568  1
  Cr  Cr9  1  0.33386952  1.00053018  0.00123436  1
  Ni  Ni10  1  0.50180633  0.16898236  0.16850614  1
  Ni  Ni11  1  0.33476681  1.00082719  0.33416868  1
  Ni  Ni12  1  0.33568556  0.33397384  0.99961964  1
  Ni  Ni13  1  0.50215943  0.50071642  0.16782482  1
  Ni  Ni14  1  0.33506806  0.33249793  0.33540740  1
  Ni  Ni15  1  0.33574775  0.66805105  1.00055705  1
  Ni  Ni16  1  0.50074967  0.83319174  0.16860433  1
  Ni  Ni17  1  0.33507793  0.66961635  0.33447318  1
  Fe  Fe18  1  0.66817935  0.00186210  1.00005781  1
  Ni  Ni19  1  0.83414101  0.16896140  0.16746677  1
  Ni  Ni20  1  0.66523670  0.00227086  0.33464836  1
  Ni  Ni21  1  0.66822045  0.33507587  0.00167129  1
  Ni  Ni22  1  0.83271535  0.49962990  0.16773135  1
  Ni  Ni23  1  0.66849900  0.33408094  0.33401772  1
  Ni  Ni24  1  0.66670283  0.66533139  1.00019731  1
  Cr  Cr25  1  0.83437208  0.83377239  0.16751985  1
  Ni  Ni26  1  0.66702169  0.66660798  0.33542420  1
  Ni  Ni27  1  0.16775992  0.16791747  0.50075213  1
  Ni  Ni28  1  0.00177348  0.00152215  0.66710914  1
  Ni  Ni29  1  0.16670002  0.16876185  0.83341176  1
  Ni  Ni30  1  0.16787856  0.50096722  0.50124712  1
  Ni  Ni31  1  0.99951277  0.33430151  0.66799820  1
  Ni  Ni32  1  0.16792766  0.50088716  0.83453603  1
  Ni  Ni33  1  0.16765983  0.83411034  0.50044528  1
  Ni  Ni34  1  0.00107969  0.66708052  0.66796084  1
  Ni  Ni35  1  0.16648370  0.83338682  0.83380436  1
  Ni  Ni36  1  0.50124138  0.16747998  0.50113374  1
  Ni  Ni37  1  0.33414832  1.00017630  0.66741720  1
  Ni  Ni38  1  0.50205709  0.16888439  0.83328315  1
  Ni  Ni39  1  0.50062885  0.50093409  0.50041781  1
  Fe  Fe40  1  0.33436231  0.33462108  0.66752309  1
  Ni  Ni41  1  0.50078313  0.50093342  0.83460517  1
  Ni  Ni42  1  0.50136227  0.83457626  0.50080137  1
  Ni  Ni43  1  0.33431709  0.66937756  0.66785470  1
  Ni  Ni44  1  0.50224603  0.83321864  0.83362172  1
  Ni  Ni45  1  0.83386570  0.16724372  0.50076077  1
  Ni  Ni46  1  0.66703379  0.00152341  0.66853153  1
  Ni  Ni47  1  0.83428965  0.16725362  0.83476947  1
  Ni  Ni48  1  0.83439363  0.50099977  0.50055864  1
  Ni  Ni49  1  0.66906341  0.33449856  0.66721489  1
  Ni  Ni50  1  0.83418425  0.50100841  0.83465557  1
  Ni  Ni51  1  0.83382424  0.83465245  0.50160400  1
  Ni  Ni52  1  0.66749643  0.66688258  0.66724082  1
  Ni  Ni53  1  0.83432466  0.83464171  0.83393964  1
" 