6571,Ni88Fe12_17,-229.207054087926, 163.018747245278,Ni88Fe12,"# generated using pymatgen
 data_Fe47Ni7
_symmetry_space_group_name_H-M   'P 1'
_cell_length_a   7.40459396
_cell_length_b   7.40459396
_cell_length_c   10.47167720
_cell_angle_alpha   90.00000000
_cell_angle_beta   90.00000000
_cell_angle_gamma   90.00000000
_symmetry_Int_Tables_number   1
_chemical_formula_structural   Fe47Ni7
_chemical_formula_sum   'Fe47 Ni7'
_cell_volume   574.14123948
_cell_formula_units_Z   1
loop_
 _symmetry_equiv_pos_site_id
 _symmetry_equiv_pos_as_xyz
  1  'x, y, z'
loop_
 _atom_site_type_symbol
 _atom_site_label
 _atom_site_symmetry_multiplicity
 _atom_site_fract_x
 _atom_site_fract_y
 _atom_site_fract_z
 _atom_site_occupancy
  Fe  Fe0  1  1.00399706  1.00383135  1.00396017  1
  Fe  Fe1  1  0.17088163  0.17097021  0.17006040  1
  Fe  Fe2  1  1.00401299  1.00383093  0.33772185  1
  Fe  Fe3  1  1.00399648  0.33785220  1.00348552  1
  Fe  Fe4  1  0.17113355  0.50446780  0.17131263  1
  Fe  Fe5  1  1.00404725  0.33729337  0.33828290  1
  Fe  Fe6  1  1.00353388  0.67096893  0.00430263  1
  Fe  Fe7  1  0.17113753  0.83721282  0.17122362  1
  Fe  Fe8  1  0.00433194  0.67152829  0.33746580  1
  Fe  Fe9  1  0.33776857  1.00400061  1.00378762  1
  Fe  Fe10  1  0.50447482  0.17062989  0.17113893  1
  Fe  Fe11  1  0.33806273  1.00362286  0.33746574  1
  Fe  Fe12  1  0.33785463  0.33776841  1.00404615  1
  Fe  Fe13  1  0.50413379  0.50472448  0.17079905  1
  Fe  Fe14  1  0.33811015  0.33758401  0.33729350  1
  Fe  Fe15  1  0.33814358  0.67088284  0.00486440  1
  Fe  Fe16  1  0.50447160  0.83729904  0.17114295  1
  Ni  Ni17  1  0.33711591  0.67094777  0.33684391  1
  Fe  Fe18  1  0.67088596  1.00354172  0.00495078  1
  Fe  Fe19  1  0.83729749  0.17063509  0.17187451  1
  Ni  Ni20  1  0.67122924  0.00456126  0.33735744  1
  Fe  Fe21  1  0.67079982  0.33823063  1.00374089  1
  Fe  Fe22  1  0.83738064  0.50446764  0.17037111  1
  Fe  Fe23  1  0.67049535  0.33726260  0.33836944  1
  Ni  Ni24  1  0.67048013  0.67118522  0.00462328  1
  Fe  Fe25  1  0.83704043  0.83755230  0.17071279  1
  Fe  Fe26  1  0.67028479  0.67148061  0.33681815  1
  Fe  Fe27  1  0.17003339  0.17114085  0.50512126  1
  Fe  Fe28  1  1.00374271  0.00579400  0.67096914  1
  Ni  Ni29  1  0.17067231  0.17109383  0.83723876  1
  Fe  Fe30  1  0.17032365  0.50382557  0.50404204  1
  Ni  Ni31  1  1.00370543  0.33703498  0.67118404  1
  Fe  Fe32  1  0.17062893  0.50345298  0.83729387  1
  Fe  Fe33  1  0.17066698  0.83768345  0.50387767  1
  Fe  Fe34  1  1.00365661  0.66981442  0.67088325  1
  Fe  Fe35  1  0.17096984  0.83814346  0.83754559  1
  Fe  Fe36  1  0.50541188  0.17079922  0.50413199  1
  Fe  Fe37  1  0.33721222  0.00559186  0.67139568  1
  Fe  Fe38  1  0.50379512  0.17105206  0.83738131  1
  Fe  Fe39  1  0.50469160  0.50374512  0.50421608  1
  Fe  Fe40  1  0.33729857  0.33729533  0.67130991  1
  Fe  Fe41  1  0.50416876  0.50374459  0.83763716  1
  Fe  Fe42  1  0.50469141  0.83810719  0.50361788  1
  Fe  Fe43  1  0.33755163  0.66976328  0.67014531  1
  Fe  Fe44  1  0.50382965  0.83785493  0.83788776  1
  Ni  Ni45  1  0.83754747  0.17099380  0.50443051  1
  Fe  Fe46  1  0.67169743  0.00553585  0.66989527  1
  Fe  Fe47  1  0.83814487  0.17138836  0.83639755  1
  Fe  Fe48  1  0.83763539  0.50310979  0.50490132  1
  Ni  Ni49  1  0.67211177  0.33703975  0.67117697  1
  Fe  Fe50  1  0.83785391  0.50349101  0.83738637  1
  Fe  Fe51  1  0.83729211  0.83840116  0.50387545  1
  Fe  Fe52  1  0.67144359  0.66972955  0.67170687  1
  Fe  Fe53  1  0.83785091  0.83777080  0.83806487  1
" 