5668,Ni88Fe12_15,-229.034072007537, 161.311329888889,Ni88Fe12,"# generated using pymatgen
 data_Fe47Ni7
_symmetry_space_group_name_H-M   'P 1'
_cell_length_a   7.40678988
_cell_length_b   7.40678988
_cell_length_c   10.47478270
_cell_angle_alpha   90.00000000
_cell_angle_beta   90.00000000
_cell_angle_gamma   90.00000000
_symmetry_Int_Tables_number   1
_chemical_formula_structural   Fe47Ni7
_chemical_formula_sum   'Fe47 Ni7'
_cell_volume   574.65219674
_cell_formula_units_Z   1
loop_
 _symmetry_equiv_pos_site_id
 _symmetry_equiv_pos_as_xyz
  1  'x, y, z'
loop_
 _atom_site_type_symbol
 _atom_site_label
 _atom_site_symmetry_multiplicity
 _atom_site_fract_x
 _atom_site_fract_y
 _atom_site_fract_z
 _atom_site_occupancy
  Fe  Fe0  1  1.00303784  0.00502649  1.00389317  1
  Fe  Fe1  1  0.17136130  0.17064512  0.17143074  1
  Fe  Fe2  1  0.00508928  0.00484856  0.33713217  1
  Fe  Fe3  1  1.00319475  0.33703731  1.00380169  1
  Fe  Fe4  1  0.17091530  0.50388397  0.17101477  1
  Fe  Fe5  1  0.00528912  0.33670545  0.33742452  1
  Fe  Fe6  1  1.00357046  0.67013753  1.00355161  1
  Fe  Fe7  1  0.17082230  0.83766951  0.17079618  1
  Fe  Fe8  1  0.00526944  0.67064816  0.33792060  1
  Fe  Fe9  1  0.33800609  0.00447898  1.00406419  1
  Fe  Fe10  1  0.50372711  0.17108406  0.17097565  1
  Ni  Ni11  1  0.33750461  0.00474425  0.33694238  1
  Fe  Fe12  1  0.33792917  0.33766412  0.00475998  1
  Fe  Fe13  1  0.50415408  0.50343364  0.17056385  1
  Ni  Ni14  1  0.33792831  0.33618520  0.33720264  1
  Fe  Fe15  1  0.33809604  0.67006026  1.00404727  1
  Fe  Fe16  1  0.50379946  0.83768109  0.17159786  1
  Fe  Fe17  1  0.33775370  0.67089616  0.33748225  1
  Fe  Fe18  1  0.67117262  0.00487681  1.00379251  1
  Fe  Fe19  1  0.83712762  0.17100024  0.16969181  1
  Fe  Fe20  1  0.66943638  0.00430732  0.33767613  1
  Ni  Ni21  1  0.67104508  0.33759528  0.00437423  1
  Fe  Fe22  1  0.83714321  0.50399115  0.17049600  1
  Fe  Fe23  1  0.66972385  0.33679623  0.33670852  1
  Fe  Fe24  1  0.67053649  0.67022574  0.00424906  1
  Fe  Fe25  1  0.83758444  0.83721372  0.17075519  1
  Fe  Fe26  1  0.66917888  0.67108748  0.33766588  1
  Fe  Fe27  1  0.17232732  0.16985100  0.50362125  1
  Fe  Fe28  1  0.00426093  1.00388697  0.67117952  1
  Fe  Fe29  1  0.17058828  0.17038048  0.83713858  1
  Fe  Fe30  1  0.17115739  0.50466282  0.50406732  1
  Fe  Fe31  1  0.00440291  0.33705468  0.67097843  1
  Fe  Fe32  1  0.16978773  0.50382746  0.83712531  1
  Fe  Fe33  1  0.17145637  0.83769642  0.50444907  1
  Ni  Ni34  1  1.00307861  0.67057486  0.67104321  1
  Fe  Fe35  1  0.17005021  0.83800296  0.83695762  1
  Fe  Fe36  1  0.50317407  0.16990895  0.50372817  1
  Ni  Ni37  1  0.33778074  0.00444483  0.67087699  1
  Fe  Fe38  1  0.50462033  0.17084609  0.83749606  1
  Fe  Fe39  1  0.50397551  0.50420834  0.50370509  1
  Fe  Fe40  1  0.33663162  0.33765723  0.67012668  1
  Fe  Fe41  1  0.50501692  0.50301630  0.83794085  1
  Ni  Ni42  1  0.50339607  0.83723884  0.50375502  1
  Fe  Fe43  1  0.33710551  0.67155910  0.67066497  1
  Fe  Fe44  1  0.50430741  0.83835990  0.83653235  1
  Fe  Fe45  1  0.83670861  0.17023289  0.50467710  1
  Fe  Fe46  1  0.67088417  1.00338488  0.67072688  1
  Ni  Ni47  1  0.83770008  0.17104816  0.83760770  1
  Fe  Fe48  1  0.83705754  0.50509355  0.50433011  1
  Fe  Fe49  1  0.67117202  0.33712390  0.67178446  1
  Fe  Fe50  1  0.83737712  0.50352842  0.83739702  1
  Fe  Fe51  1  0.83713545  0.83687113  0.50422764  1
  Fe  Fe52  1  0.67027127  0.67168910  0.67028085  1
  Fe  Fe53  1  0.83783662  0.83758465  0.83722866  1
" 