7801,Ni88Fe7Cr3_16,-238.942069768552, 182.573948149658,Ni88Fe7Cr3,"# generated using pymatgen
 data_CrFeNi16
_symmetry_space_group_name_H-M   'P 1'
_cell_length_a   7.45323101
_cell_length_b   7.45323101
_cell_length_c   10.54046038
_cell_angle_alpha   90.00000000
_cell_angle_beta   90.00000000
_cell_angle_gamma   90.00000000
_symmetry_Int_Tables_number   1
_chemical_formula_structural   CrFeNi16
_chemical_formula_sum   'Cr3 Fe3 Ni48'
_cell_volume   585.52945245
_cell_formula_units_Z   3
loop_
 _symmetry_equiv_pos_site_id
 _symmetry_equiv_pos_as_xyz
  1  'x, y, z'
loop_
 _atom_site_type_symbol
 _atom_site_label
 _atom_site_symmetry_multiplicity
 _atom_site_fract_x
 _atom_site_fract_y
 _atom_site_fract_z
 _atom_site_occupancy
  Ni  Ni0  1  1.00065817  1.00091666  0.00175135  1
  Ni  Ni1  1  0.16776688  0.16747761  0.16774959  1
  Fe  Fe2  1  0.00118712  0.00093052  0.33421284  1
  Ni  Ni3  1  0.00162716  0.33289148  1.00008640  1
  Ni  Ni4  1  0.16838839  0.49967923  0.16654918  1
  Ni  Ni5  1  0.00123880  0.33345644  0.33533730  1
  Ni  Ni6  1  0.00161293  0.66900112  1.00021027  1
  Ni  Ni7  1  0.16721835  0.83564705  0.16634505  1
  Ni  Ni8  1  0.99964998  0.66855203  0.33509059  1
  Ni  Ni9  1  0.33418876  1.00084633  1.00078364  1
  Ni  Ni10  1  0.50067161  0.16747665  0.16705719  1
  Ni  Ni11  1  0.33439280  0.00257865  0.33454440  1
  Ni  Ni12  1  0.33417593  0.33395014  0.00219535  1
  Ni  Ni13  1  0.50041387  0.50003078  0.16693401  1
  Ni  Ni14  1  0.33439410  0.33155295  0.33387259  1
  Ni  Ni15  1  0.33424291  0.66797874  0.00137172  1
  Ni  Ni16  1  0.50155635  0.83527183  0.16674797  1
  Cr  Cr17  1  0.33413706  0.66816935  0.33429551  1
  Ni  Ni18  1  0.66797106  1.00086488  0.00168545  1
  Ni  Ni19  1  0.83436092  0.16630663  0.16758936  1
  Fe  Fe20  1  0.66723099  0.00116901  0.33421584  1
  Ni  Ni21  1  0.66695293  0.33291480  0.99999864  1
  Cr  Cr22  1  0.83407091  0.50067950  0.16673503  1
  Ni  Ni23  1  0.66716325  0.33320903  0.33532603  1
  Ni  Ni24  1  0.66694890  0.66891933  1.00056261  1
  Ni  Ni25  1  0.83399879  0.83591339  0.16746422  1
  Ni  Ni26  1  0.66900194  0.66854093  0.33508106  1
  Ni  Ni27  1  0.16687047  0.16650567  0.50000228  1
  Ni  Ni28  1  1.00055090  1.00091140  0.66696436  1
  Ni  Ni29  1  0.16589475  0.16637836  0.83513486  1
  Ni  Ni30  1  0.16576010  0.50069023  0.50086891  1
  Ni  Ni31  1  0.99906031  0.33392629  0.66730933  1
  Ni  Ni32  1  0.16717234  0.50141164  0.83541183  1
  Ni  Ni33  1  0.16714248  0.83558950  0.50240057  1
  Ni  Ni34  1  1.00053612  0.66794567  0.66739077  1
  Ni  Ni35  1  0.16820637  0.83496564  0.83406410  1
  Ni  Ni36  1  0.50161391  0.16651740  0.50069544  1
  Ni  Ni37  1  0.33414719  0.99926506  0.66742284  1
  Fe  Fe38  1  0.50159939  0.16647158  0.83497217  1
  Ni  Ni39  1  0.50299535  0.50095700  0.50055976  1
  Cr  Cr40  1  0.33407779  0.33414984  0.66678361  1
  Ni  Ni41  1  0.50190382  0.50277931  0.83541316  1
  Ni  Ni42  1  0.50161975  0.83525007  0.50203155  1
  Ni  Ni43  1  0.33425854  0.66942227  0.66714352  1
  Ni  Ni44  1  0.50083387  0.83362594  0.83405695  1
  Ni  Ni45  1  0.83433538  0.16789723  0.50103672  1
  Ni  Ni46  1  0.66809554  1.00082601  0.66699776  1
  Ni  Ni47  1  0.83503753  0.16742832  0.83430494  1
  Ni  Ni48  1  0.83401197  0.50070757  0.50160640  1
  Ni  Ni49  1  0.66962496  0.33402186  0.66732667  1
  Ni  Ni50  1  0.83373198  0.50048554  0.83387174  1
  Ni  Ni51  1  0.83400803  0.83423757  0.50087489  1
  Ni  Ni52  1  0.66799293  0.66790322  0.66707555  1
  Ni  Ni53  1  0.83374920  0.83485658  0.83453798  1
" 