7499,Ni88Fe5Cr5_12,-236.984206388443, 174.326423345434,Ni88Fe5Cr5,"# generated using pymatgen
 data_Cr5Fe2Ni47
_symmetry_space_group_name_H-M   'P 1'
_cell_length_a   7.45903880
_cell_length_b   7.45903880
_cell_length_c   10.54867384
_cell_angle_alpha   90.00000000
_cell_angle_beta   90.00000000
_cell_angle_gamma   90.00000000
_symmetry_Int_Tables_number   1
_chemical_formula_structural   Cr5Fe2Ni47
_chemical_formula_sum   'Cr5 Fe2 Ni47'
_cell_volume   586.89930783
_cell_formula_units_Z   1
loop_
 _symmetry_equiv_pos_site_id
 _symmetry_equiv_pos_as_xyz
  1  'x, y, z'
loop_
 _atom_site_type_symbol
 _atom_site_label
 _atom_site_symmetry_multiplicity
 _atom_site_fract_x
 _atom_site_fract_y
 _atom_site_fract_z
 _atom_site_occupancy
  Cr  Cr0  1  1.00034077  0.99966740  0.00287555  1
  Ni  Ni1  1  0.16687054  0.16690923  0.16784387  1
  Ni  Ni2  1  0.00062336  1.00046883  0.33387465  1
  Fe  Fe3  1  1.00015725  0.33499548  1.00050719  1
  Cr  Cr4  1  0.16815112  0.50118546  0.16794569  1
  Ni  Ni5  1  0.99980170  0.33301421  0.33381978  1
  Ni  Ni6  1  0.99894427  0.66631583  1.00037760  1
  Ni  Ni7  1  0.16793560  0.83433186  0.16898151  1
  Ni  Ni8  1  0.99941456  0.66809380  0.33470179  1
  Ni  Ni9  1  0.33472220  0.00092780  1.00045633  1
  Cr  Cr10  1  0.50063501  0.16773756  0.16765848  1
  Ni  Ni11  1  0.33279289  0.99993947  0.33416558  1
  Ni  Ni12  1  0.33490780  0.33439799  0.99836077  1
  Ni  Ni13  1  0.50245466  0.50196567  0.16808067  1
  Ni  Ni14  1  0.33400392  0.33403957  0.33618481  1
  Ni  Ni15  1  0.33544169  0.66652124  0.00059875  1
  Ni  Ni16  1  0.50078820  0.83283577  0.16704942  1
  Ni  Ni17  1  0.33511413  0.66783323  0.33514201  1
  Ni  Ni18  1  0.66629619  0.99942284  1.00050389  1
  Ni  Ni19  1  0.83374728  0.16804562  0.16930280  1
  Ni  Ni20  1  0.66826500  0.99955153  0.33451588  1
  Ni  Ni21  1  0.66620862  0.33582521  0.00071670  1
  Ni  Ni22  1  0.83273884  0.50072221  0.16698084  1
  Ni  Ni23  1  0.66789371  0.33527768  0.33511245  1
  Ni  Ni24  1  0.66731384  0.66638889  0.00054673  1
  Ni  Ni25  1  0.83277122  0.83284369  0.16798588  1
  Ni  Ni26  1  0.66729194  0.66684894  0.33338858  1
  Ni  Ni27  1  0.16794404  0.16749059  0.50053218  1
  Ni  Ni28  1  0.00062793  0.00062535  0.66478951  1
  Ni  Ni29  1  0.16956276  0.16939270  0.83326171  1
  Ni  Ni30  1  0.16640604  0.50024474  0.50086736  1
  Ni  Ni31  1  0.00157449  0.33489337  0.66728709  1
  Ni  Ni32  1  0.16706891  0.49921945  0.83334650  1
  Ni  Ni33  1  0.16693946  0.83392605  0.50022330  1
  Ni  Ni34  1  0.99929859  0.66622992  0.66635684  1
  Cr  Cr35  1  0.16781095  0.83232796  0.83147482  1
  Ni  Ni36  1  0.50025833  0.16697015  0.50086793  1
  Ni  Ni37  1  0.33458876  0.00171797  0.66682227  1
  Ni  Ni38  1  0.49932225  0.16724068  0.83359894  1
  Ni  Ni39  1  0.50112717  0.50018674  0.49982050  1
  Ni  Ni40  1  0.33413349  0.33407852  0.66731098  1
  Ni  Ni41  1  0.50075078  0.50036973  0.83369040  1
  Ni  Ni42  1  0.50107585  0.83443235  0.50053675  1
  Ni  Ni43  1  0.33510330  0.66582571  0.66583863  1
  Ni  Ni44  1  0.50219643  0.83407307  0.83404265  1
  Fe  Fe45  1  0.83366199  0.16743882  0.50038710  1
  Ni  Ni46  1  0.66618800  0.99937024  0.66665228  1
  Cr  Cr47  1  0.83178771  0.16744078  0.83162441  1
  Ni  Ni48  1  0.83405820  0.50109651  0.50052429  1
  Ni  Ni49  1  0.66604370  0.33531313  0.66591746  1
  Ni  Ni50  1  0.83371873  0.50192968  0.83406948  1
  Ni  Ni51  1  0.83354775  0.83294480  0.50123414  1
  Ni  Ni52  1  0.66715648  0.66672495  0.66771899  1
  Ni  Ni53  1  0.83141159  0.83137906  0.83251530  1
" 