9020,Ni88Fe7Cr4_19,-238.972037965629, 182.77958582939,Ni88Fe7Cr4,"# generated using pymatgen
 data_Cr3Fe4Ni47
_symmetry_space_group_name_H-M   'P 1'
_cell_length_a   7.44776845
_cell_length_b   7.44776845
_cell_length_c   10.53273515
_cell_angle_alpha   90.00000000
_cell_angle_beta   90.00000000
_cell_angle_gamma   90.00000000
_symmetry_Int_Tables_number   1
_chemical_formula_structural   Cr3Fe4Ni47
_chemical_formula_sum   'Cr3 Fe4 Ni47'
_cell_volume   584.24297095
_cell_formula_units_Z   1
loop_
 _symmetry_equiv_pos_site_id
 _symmetry_equiv_pos_as_xyz
  1  'x, y, z'
loop_
 _atom_site_type_symbol
 _atom_site_label
 _atom_site_symmetry_multiplicity
 _atom_site_fract_x
 _atom_site_fract_y
 _atom_site_fract_z
 _atom_site_occupancy
  Ni  Ni0  1  0.00235425  0.00198264  0.00157498  1
  Ni  Ni1  1  0.16890478  0.16890748  0.16785078  1
  Cr  Cr2  1  0.00314034  1.00082170  0.33429542  1
  Ni  Ni3  1  1.00126266  0.33474522  0.00179612  1
  Ni  Ni4  1  0.16773085  0.50135441  0.16821073  1
  Ni  Ni5  1  0.00182135  0.33665495  0.33470362  1
  Ni  Ni6  1  0.00170755  0.66715903  0.00160279  1
  Ni  Ni7  1  0.16892057  0.83365743  0.16690998  1
  Ni  Ni8  1  0.00273515  0.66622674  0.33422921  1
  Ni  Ni9  1  0.33437787  1.00107462  0.00164036  1
  Ni  Ni10  1  0.50017481  0.16863635  0.16695451  1
  Ni  Ni11  1  0.33424320  0.00189220  0.33473836  1
  Fe  Fe12  1  0.33424041  0.33481190  1.00085695  1
  Ni  Ni13  1  0.49998430  0.50022745  0.16717088  1
  Ni  Ni14  1  0.33464588  0.33395349  0.33398465  1
  Ni  Ni15  1  0.33483269  0.66829128  0.00206540  1
  Ni  Ni16  1  0.49909168  0.83496582  0.16683250  1
  Fe  Fe17  1  0.33334644  0.66734616  0.33463541  1
  Ni  Ni18  1  0.66718943  0.00145913  0.00189287  1
  Ni  Ni19  1  0.83478407  0.16990405  0.16631027  1
  Cr  Cr20  1  0.66609664  0.00245701  0.33394521  1
  Ni  Ni21  1  0.66825025  0.33521564  0.00171325  1
  Ni  Ni22  1  0.83595206  0.50026288  0.16744682  1
  Ni  Ni23  1  0.66738919  0.33537426  0.33461596  1
  Ni  Ni24  1  0.66732686  0.66720688  1.00128372  1
  Ni  Ni25  1  0.83575237  0.83369163  0.16506551  1
  Cr  Cr26  1  0.66873340  0.66636903  0.33465064  1
  Fe  Fe27  1  0.16902761  0.16912015  0.50224257  1
  Ni  Ni28  1  0.00187236  0.00147735  0.66802527  1
  Ni  Ni29  1  0.16773937  0.16851794  0.83395470  1
  Ni  Ni30  1  0.16795078  0.50188076  0.50098863  1
  Ni  Ni31  1  0.00176493  0.33497786  0.66743120  1
  Ni  Ni32  1  0.16781998  0.50107031  0.83466534  1
  Ni  Ni33  1  0.16880978  0.83286517  0.50243101  1
  Ni  Ni34  1  0.00154962  0.66747642  0.66804903  1
  Fe  Fe35  1  0.16816817  0.83451880  0.83463890  1
  Ni  Ni36  1  0.50078516  0.16874513  0.50215416  1
  Ni  Ni37  1  0.33461037  0.00150607  0.66759592  1
  Ni  Ni38  1  0.50125749  0.16720199  0.83470173  1
  Ni  Ni39  1  0.49955002  0.49978094  0.50239265  1
  Ni  Ni40  1  0.33456944  0.33485160  0.66875312  1
  Ni  Ni41  1  0.50062787  0.50178897  0.83428657  1
  Ni  Ni42  1  0.49895185  0.83531465  0.50283761  1
  Ni  Ni43  1  0.33473058  0.66756856  0.66723551  1
  Ni  Ni44  1  0.50169402  0.83490180  0.83423692  1
  Ni  Ni45  1  0.83399029  0.16976802  0.50302221  1
  Ni  Ni46  1  0.66749842  0.00130338  0.66778401  1
  Ni  Ni47  1  0.83486567  0.16744931  0.83460951  1
  Ni  Ni48  1  0.83628209  0.50008887  0.50224288  1
  Ni  Ni49  1  0.66763368  0.33511229  0.66760709  1
  Ni  Ni50  1  0.83538911  0.50142419  0.83423589  1
  Ni  Ni51  1  0.83603865  0.83405354  0.50418962  1
  Ni  Ni52  1  0.66759422  0.66747174  0.66799784  1
  Ni  Ni53  1  0.83413108  0.83500648  0.83460490  1
" 