6846,Ni88Fe5Cr5_13,-236.988249371274, 174.175355843339,Ni88Fe5Cr5,"# generated using pymatgen
 data_Cr5Fe2Ni47
_symmetry_space_group_name_H-M   'P 1'
_cell_length_a   7.45980161
_cell_length_b   7.45980161
_cell_length_c   10.54975260
_cell_angle_alpha   90.00000000
_cell_angle_beta   90.00000000
_cell_angle_gamma   90.00000000
_symmetry_Int_Tables_number   1
_chemical_formula_structural   Cr5Fe2Ni47
_chemical_formula_sum   'Cr5 Fe2 Ni47'
_cell_volume   587.07938487
_cell_formula_units_Z   1
loop_
 _symmetry_equiv_pos_site_id
 _symmetry_equiv_pos_as_xyz
  1  'x, y, z'
loop_
 _atom_site_type_symbol
 _atom_site_label
 _atom_site_symmetry_multiplicity
 _atom_site_fract_x
 _atom_site_fract_y
 _atom_site_fract_z
 _atom_site_occupancy
  Fe  Fe0  1  0.00161877  0.99950389  0.00144502  1
  Ni  Ni1  1  0.16706665  0.16701552  0.16670196  1
  Ni  Ni2  1  1.00003798  0.00107902  0.33327246  1
  Ni  Ni3  1  0.00156864  0.33552740  0.00132948  1
  Ni  Ni4  1  0.16557691  0.50063663  0.16737085  1
  Ni  Ni5  1  0.00126876  0.33412434  0.33387939  1
  Ni  Ni6  1  0.99991268  0.66585865  0.00053618  1
  Ni  Ni7  1  0.16706359  0.83376237  0.16734159  1
  Ni  Ni8  1  0.99977167  0.66623900  0.33409059  1
  Ni  Ni9  1  0.33409814  0.99999617  0.00163023  1
  Ni  Ni10  1  0.50060312  0.16549782  0.16732265  1
  Ni  Ni11  1  0.33469073  0.00110241  0.33388086  1
  Ni  Ni12  1  0.33131429  0.33309306  1.00023939  1
  Cr  Cr13  1  0.49992938  0.50092062  0.16696815  1
  Ni  Ni14  1  0.33071154  0.33150588  0.33357495  1
  Ni  Ni15  1  0.33290671  0.66839639  0.99940749  1
  Ni  Ni16  1  0.50043241  0.83551973  0.16714571  1
  Ni  Ni17  1  0.33229342  0.66888365  0.33376747  1
  Ni  Ni18  1  0.66616925  0.99829706  0.00225770  1
  Ni  Ni19  1  0.83382276  0.16693769  0.16711239  1
  Ni  Ni20  1  0.66675795  0.99957152  0.33409072  1
  Ni  Ni21  1  0.66863330  0.33443196  0.00177257  1
  Ni  Ni22  1  0.83552327  0.50045252  0.16711881  1
  Fe  Fe23  1  0.66906798  0.33190491  0.33380385  1
  Ni  Ni24  1  0.66861674  0.66866302  0.99930888  1
  Ni  Ni25  1  0.83399918  0.83400990  0.16692791  1
  Ni  Ni26  1  0.66938741  0.67020565  0.33335412  1
  Ni  Ni27  1  0.16692118  0.16686906  0.50097740  1
  Ni  Ni28  1  0.00139659  1.00008320  0.66679038  1
  Ni  Ni29  1  0.16722690  0.16710442  0.83378041  1
  Ni  Ni30  1  0.16556531  0.50075871  0.50054350  1
  Ni  Ni31  1  0.00170529  0.33470144  0.66628126  1
  Ni  Ni32  1  0.16746063  0.50102753  0.83355075  1
  Ni  Ni33  1  0.16687643  0.83382931  0.50059399  1
  Ni  Ni34  1  0.00187271  0.66662324  0.66682614  1
  Ni  Ni35  1  0.16717644  0.83327142  0.83349916  1
  Ni  Ni36  1  0.50069718  0.16547960  0.50061692  1
  Ni  Ni37  1  0.33320238  1.00010390  0.66595441  1
  Cr  Cr38  1  0.49941523  0.16769932  0.83332049  1
  Cr  Cr39  1  0.49890584  0.49991010  0.49959734  1
  Ni  Ni40  1  0.33141862  0.33324043  0.66763934  1
  Ni  Ni41  1  0.49940288  0.50142281  0.83486779  1
  Ni  Ni42  1  0.49945604  0.83643050  0.49963766  1
  Ni  Ni43  1  0.33123280  0.66813999  0.66826671  1
  Ni  Ni44  1  0.49930507  0.83255165  0.83470715  1
  Ni  Ni45  1  0.83385633  0.16678040  0.50081047  1
  Ni  Ni46  1  0.66689043  1.00026165  0.66511201  1
  Cr  Cr47  1  0.83553760  0.16669770  0.83348362  1
  Ni  Ni48  1  0.83643141  0.49950729  0.49966683  1
  Ni  Ni49  1  0.66837300  0.33283178  0.66587250  1
  Ni  Ni50  1  0.83459002  0.50130738  0.83469374  1
  Ni  Ni51  1  0.83511870  0.83511236  0.49986811  1
  Cr  Cr52  1  0.66833796  0.66858183  0.66895397  1
  Ni  Ni53  1  0.83501001  0.83276240  0.83466277  1
" 