5461,Ni88Fe7Cr3_13,-238.91919931122, 181.638253567395,Ni88Fe7Cr3,"# generated using pymatgen
 data_CrFeNi16
_symmetry_space_group_name_H-M   'P 1'
_cell_length_a   7.45353340
_cell_length_b   7.45353340
_cell_length_c   10.54088803
_cell_angle_alpha   90.00000000
_cell_angle_beta   90.00000000
_cell_angle_gamma   90.00000000
_symmetry_Int_Tables_number   1
_chemical_formula_structural   CrFeNi16
_chemical_formula_sum   'Cr3 Fe3 Ni48'
_cell_volume   585.60072275
_cell_formula_units_Z   3
loop_
 _symmetry_equiv_pos_site_id
 _symmetry_equiv_pos_as_xyz
  1  'x, y, z'
loop_
 _atom_site_type_symbol
 _atom_site_label
 _atom_site_symmetry_multiplicity
 _atom_site_fract_x
 _atom_site_fract_y
 _atom_site_fract_z
 _atom_site_occupancy
  Ni  Ni0  1  0.99988377  0.00135166  0.00112477  1
  Ni  Ni1  1  0.16671896  0.16855385  0.16689167  1
  Ni  Ni2  1  0.99896231  0.00117990  0.33365693  1
  Ni  Ni3  1  0.00122782  0.33433825  1.00055778  1
  Ni  Ni4  1  0.16656497  0.49981679  0.16719361  1
  Ni  Ni5  1  1.00062588  0.33419522  0.33432543  1
  Ni  Ni6  1  0.99986893  0.66703273  1.00036678  1
  Ni  Ni7  1  0.16553281  0.83434186  0.16548358  1
  Ni  Ni8  1  0.99877949  0.66735840  0.33488415  1
  Ni  Ni9  1  0.33471766  0.00140197  1.00037821  1
  Ni  Ni10  1  0.50184512  0.16842415  0.16760658  1
  Cr  Cr11  1  0.33407273  0.00190002  0.33433946  1
  Ni  Ni12  1  0.33339355  0.33431143  0.00119514  1
  Ni  Ni13  1  0.50193280  0.49983604  0.16670617  1
  Ni  Ni14  1  0.33391940  0.33448722  0.33448544  1
  Ni  Ni15  1  0.33465783  0.66702270  1.00075871  1
  Ni  Ni16  1  0.50293807  0.83444043  0.16564407  1
  Cr  Cr17  1  0.33452770  0.66634608  0.33326480  1
  Ni  Ni18  1  0.66813345  0.99999384  1.00075039  1
  Ni  Ni19  1  0.83432386  0.16756682  0.16764835  1
  Ni  Ni20  1  0.66971270  1.00057181  0.33455857  1
  Fe  Fe21  1  0.66807560  0.33397617  1.00069921  1
  Ni  Ni22  1  0.83428112  0.50079722  0.16802811  1
  Ni  Ni23  1  0.66833348  0.33452525  0.33405341  1
  Ni  Ni24  1  0.66815811  0.66824156  0.00114990  1
  Ni  Ni25  1  0.83415530  0.83430060  0.16828980  1
  Ni  Ni26  1  0.66934075  0.66764673  0.33401432  1
  Ni  Ni27  1  0.16464534  0.16734207  0.50059048  1
  Ni  Ni28  1  1.00031306  0.00207196  0.66791482  1
  Ni  Ni29  1  0.16668335  0.16662555  0.83517948  1
  Ni  Ni30  1  0.16619782  0.50060402  0.50070905  1
  Ni  Ni31  1  0.99926246  0.33360184  0.66778199  1
  Ni  Ni32  1  0.16695679  0.50163034  0.83469261  1
  Ni  Ni33  1  0.16612972  0.83481610  0.50297233  1
  Fe  Fe34  1  1.00015436  0.66779118  0.66760326  1
  Ni  Ni35  1  0.16778922  0.83456599  0.83413533  1
  Fe  Fe36  1  0.50314003  0.16769102  0.50128259  1
  Ni  Ni37  1  0.33385033  0.99908121  0.66796470  1
  Ni  Ni38  1  0.50182534  0.16658747  0.83413280  1
  Ni  Ni39  1  0.50291760  0.50162144  0.50056554  1
  Cr  Cr40  1  0.33331475  0.33472615  0.66698643  1
  Ni  Ni41  1  0.50178365  0.50183968  0.83538295  1
  Ni  Ni42  1  0.50266154  0.83340884  0.50279430  1
  Ni  Ni43  1  0.33525060  0.66859985  0.66803430  1
  Ni  Ni44  1  0.50098555  0.83415567  0.83416899  1
  Ni  Ni45  1  0.83493392  0.16776810  0.50086719  1
  Ni  Ni46  1  0.66870526  1.00022140  0.66745959  1
  Ni  Ni47  1  0.83439107  0.16741000  0.83433144  1
  Ni  Ni48  1  0.83348586  0.50016573  0.50101638  1
  Ni  Ni49  1  0.67001810  0.33487638  0.66850215  1
  Ni  Ni50  1  0.83396293  0.50074873  0.83383261  1
  Ni  Ni51  1  0.83375757  0.83487906  0.50054395  1
  Ni  Ni52  1  0.66723685  0.66759712  0.66755211  1
  Ni  Ni53  1  0.83391719  0.83456881  0.83390174  1
" 