131,Ni88Fe5Cr5_9,-237.003210337106, 173.369080349689,Ni88Fe5Cr5,"# generated using pymatgen
 data_Cr5Fe2Ni47
_symmetry_space_group_name_H-M   'P 1'
_cell_length_a   7.45817924
_cell_length_b   7.45817924
_cell_length_c   10.54745823
_cell_angle_alpha   90.00000000
_cell_angle_beta   90.00000000
_cell_angle_gamma   90.00000000
_symmetry_Int_Tables_number   1
_chemical_formula_structural   Cr5Fe2Ni47
_chemical_formula_sum   'Cr5 Fe2 Ni47'
_cell_volume   586.69643087
_cell_formula_units_Z   1
loop_
 _symmetry_equiv_pos_site_id
 _symmetry_equiv_pos_as_xyz
  1  'x, y, z'
loop_
 _atom_site_type_symbol
 _atom_site_label
 _atom_site_symmetry_multiplicity
 _atom_site_fract_x
 _atom_site_fract_y
 _atom_site_fract_z
 _atom_site_occupancy
  Cr  Cr0  1  0.99996171  0.99897656  0.99983233  1
  Cr  Cr1  1  0.16805969  0.16895135  0.16777486  1
  Ni  Ni2  1  1.00011773  0.99934627  0.33509875  1
  Ni  Ni3  1  0.00212798  0.33566449  0.99853725  1
  Ni  Ni4  1  0.16930299  0.50165220  0.16724285  1
  Ni  Ni5  1  1.00051033  0.33399537  0.33546992  1
  Ni  Ni6  1  0.00235743  0.66676919  0.99955339  1
  Ni  Ni7  1  0.16866700  0.83172348  0.16861401  1
  Ni  Ni8  1  0.00230417  0.66838581  0.33505302  1
  Ni  Ni9  1  0.33634712  0.99924277  0.99972792  1
  Ni  Ni10  1  0.50071052  0.16610843  0.16863647  1
  Ni  Ni11  1  0.33454714  0.99909737  0.33462208  1
  Ni  Ni12  1  0.33379581  0.33508147  0.99896893  1
  Ni  Ni13  1  0.49806655  0.50175091  0.16813986  1
  Ni  Ni14  1  0.33505753  0.33516190  0.33539530  1
  Ni  Ni15  1  0.33352824  0.66744913  0.00100448  1
  Ni  Ni16  1  0.50097093  0.83390319  0.16685793  1
  Ni  Ni17  1  0.33364431  0.66737332  0.33350928  1
  Ni  Ni18  1  0.66529642  0.99934454  1.00042048  1
  Ni  Ni19  1  0.83237718  0.16546225  0.16908580  1
  Ni  Ni20  1  0.66715951  0.00075306  0.33363815  1
  Cr  Cr21  1  0.66645383  0.33243856  1.00006144  1
  Cr  Cr22  1  0.83510906  0.50161706  0.16839619  1
  Ni  Ni23  1  0.66611984  0.33306539  0.33466846  1
  Ni  Ni24  1  0.66592643  0.66942226  0.99910621  1
  Ni  Ni25  1  0.83214963  0.83450137  0.16837653  1
  Ni  Ni26  1  0.66582994  0.66787131  0.33513948  1
  Ni  Ni27  1  0.16665379  0.16722530  0.50101221  1
  Ni  Ni28  1  0.00123859  0.00072193  0.66706821  1
  Ni  Ni29  1  0.16837205  0.16816076  0.83283483  1
  Ni  Ni30  1  0.16752477  0.49994929  0.50026925  1
  Ni  Ni31  1  0.00125003  0.33393391  0.66772370  1
  Ni  Ni32  1  0.16735646  0.50035004  0.83423955  1
  Ni  Ni33  1  0.16798011  0.83458407  0.50028388  1
  Ni  Ni34  1  0.00166184  0.66710278  0.66715723  1
  Ni  Ni35  1  0.16869588  0.83330626  0.83299840  1
  Fe  Fe36  1  0.49999308  0.16540199  0.49960593  1
  Ni  Ni37  1  0.33347561  0.99935454  0.66746695  1
  Ni  Ni38  1  0.49833787  0.16490161  0.83356695  1
  Ni  Ni39  1  0.49980237  0.50284580  0.49940717  1
  Fe  Fe40  1  0.33234020  0.33485156  0.66740173  1
  Ni  Ni41  1  0.49867923  0.50302381  0.83408693  1
  Ni  Ni42  1  0.50080554  0.83325584  0.50075690  1
  Ni  Ni43  1  0.33357846  0.66805089  0.66725886  1
  Ni  Ni44  1  0.50072926  0.83394928  0.83413632  1
  Ni  Ni45  1  0.83576974  0.16623703  0.49921356  1
  Ni  Ni46  1  0.66699539  0.99971836  0.66778132  1
  Ni  Ni47  1  0.83494309  0.16609264  0.83347063  1
  Ni  Ni48  1  0.83431478  0.50129518  0.49986391  1
  Cr  Cr49  1  0.66772134  0.33453972  0.66700947  1
  Ni  Ni50  1  0.83555790  0.50277942  0.83360238  1
  Ni  Ni51  1  0.83297514  0.83427988  0.50085903  1
  Ni  Ni52  1  0.66646249  0.66809384  0.66746739  1
  Ni  Ni53  1  0.83239115  0.83299042  0.83263110  1
" 