3098,Ni88Fe12_1,-229.056491457518, 158.138225190612,Ni88Fe12,"# generated using pymatgen
 data_Fe47Ni7
_symmetry_space_group_name_H-M   'P 1'
_cell_length_a   7.40463961
_cell_length_b   7.40463961
_cell_length_c   10.47174176
_cell_angle_alpha   90.00000000
_cell_angle_beta   90.00000000
_cell_angle_gamma   90.00000000
_symmetry_Int_Tables_number   1
_chemical_formula_structural   Fe47Ni7
_chemical_formula_sum   'Fe47 Ni7'
_cell_volume   574.15185936
_cell_formula_units_Z   1
loop_
 _symmetry_equiv_pos_site_id
 _symmetry_equiv_pos_as_xyz
  1  'x, y, z'
loop_
 _atom_site_type_symbol
 _atom_site_label
 _atom_site_symmetry_multiplicity
 _atom_site_fract_x
 _atom_site_fract_y
 _atom_site_fract_z
 _atom_site_occupancy
  Fe  Fe0  1  1.00394801  0.00464975  1.00413467  1
  Ni  Ni1  1  0.16992494  0.17236043  0.17067413  1
  Fe  Fe2  1  1.00394631  1.00411803  0.33745409  1
  Fe  Fe3  1  1.00416062  0.33688862  0.00465439  1
  Ni  Ni4  1  0.16991877  0.50264551  0.17068100  1
  Fe  Fe5  1  1.00416312  0.33749678  0.33702263  1
  Fe  Fe6  1  1.00382059  0.67110354  0.00488504  1
  Fe  Fe7  1  0.17106936  0.83710658  0.17105946  1
  Ni  Ni8  1  0.00528359  0.67010995  0.33764078  1
  Fe  Fe9  1  0.33807466  1.00421213  0.00457710  1
  Fe  Fe10  1  0.50364089  0.17047414  0.17079661  1
  Fe  Fe11  1  0.33777143  1.00336700  0.33745033  1
  Fe  Fe12  1  0.33750639  0.33697480  0.00465778  1
  Fe  Fe13  1  0.50293397  0.50399960  0.17070893  1
  Fe  Fe14  1  0.33684745  0.33754750  0.33701633  1
  Fe  Fe15  1  0.33829020  0.67145319  0.00457813  1
  Ni  Ni16  1  0.50554465  0.83767751  0.17042789  1
  Fe  Fe17  1  0.33795470  0.67172398  0.33736098  1
  Ni  Ni18  1  0.67047082  0.00451511  1.00355834  1
  Fe  Fe19  1  0.83744401  0.17034241  0.17079425  1
  Ni  Ni20  1  0.67010373  0.00463677  0.33800684  1
  Fe  Fe21  1  0.67096760  0.33710739  1.00387072  1
  Fe  Fe22  1  0.83850523  0.50448245  0.17114648  1
  Fe  Fe23  1  0.67162496  0.33768275  0.33780547  1
  Fe  Fe24  1  0.67053204  0.67167582  0.00422138  1
  Fe  Fe25  1  0.83798595  0.83782119  0.17106340  1
  Fe  Fe26  1  0.67088020  0.67195073  0.33771823  1
  Fe  Fe27  1  0.17154128  0.17030614  0.50389530  1
  Fe  Fe28  1  0.00438684  0.00438811  0.67105266  1
  Fe  Fe29  1  0.17088367  0.17087932  0.83795142  1
  Fe  Fe30  1  0.17119585  0.50513553  0.50345904  1
  Fe  Fe31  1  0.00421614  0.33745959  0.67096253  1
  Fe  Fe32  1  0.17088073  0.50430404  0.83804238  1
  Fe  Fe33  1  0.17106407  0.83719739  0.50429396  1
  Fe  Fe34  1  1.00421352  0.67079439  0.67039054  1
  Fe  Fe35  1  0.17070735  0.83745898  0.83728985  1
  Fe  Fe36  1  0.50456146  0.17017391  0.50412019  1
  Fe  Fe37  1  0.33763892  1.00394989  0.67061723  1
  Fe  Fe38  1  0.50456257  0.17078899  0.83772396  1
  Fe  Fe39  1  0.50421236  0.50457068  0.50455723  1
  Fe  Fe40  1  0.33745796  0.33754624  0.67096615  1
  Fe  Fe41  1  0.50421217  0.50404104  0.83737629  1
  Ni  Ni42  1  0.50493281  0.83755519  0.50516914  1
  Fe  Fe43  1  0.33789867  0.67114561  0.67070459  1
  Fe  Fe44  1  0.50447764  0.83781371  0.83781151  1
  Fe  Fe45  1  0.83653794  0.17004180  0.50412233  1
  Fe  Fe46  1  0.67061806  1.00394867  0.67061939  1
  Fe  Fe47  1  0.83719511  0.17061480  0.83772435  1
  Fe  Fe48  1  0.83723882  0.50505318  0.50412057  1
  Fe  Fe49  1  0.67096826  0.33771985  0.67096611  1
  Fe  Fe50  1  0.83754916  0.50421763  0.83737604  1
  Fe  Fe51  1  0.83710747  0.83754878  0.50376542  1
  Fe  Fe52  1  0.67053211  0.67097361  0.67070594  1
  Fe  Fe53  1  0.83745705  0.83781143  0.83781269  1
" 