5206,Ni88Fe7Cr3_18,-238.831796070856, 182.218946661803,Ni88Fe7Cr3,"# generated using pymatgen
 data_CrFeNi16
_symmetry_space_group_name_H-M   'P 1'
_cell_length_a   7.45330142
_cell_length_b   7.45330142
_cell_length_c   10.54055996
_cell_angle_alpha   90.00000000
_cell_angle_beta   90.00000000
_cell_angle_gamma   90.00000000
_symmetry_Int_Tables_number   1
_chemical_formula_structural   CrFeNi16
_chemical_formula_sum   'Cr3 Fe3 Ni48'
_cell_volume   585.54604717
_cell_formula_units_Z   3
loop_
 _symmetry_equiv_pos_site_id
 _symmetry_equiv_pos_as_xyz
  1  'x, y, z'
loop_
 _atom_site_type_symbol
 _atom_site_label
 _atom_site_symmetry_multiplicity
 _atom_site_fract_x
 _atom_site_fract_y
 _atom_site_fract_z
 _atom_site_occupancy
  Ni  Ni0  1  0.99991612  0.99973073  1.00058995  1
  Ni  Ni1  1  0.16767969  0.16627956  0.16772553  1
  Ni  Ni2  1  1.00047441  0.00109689  0.33426152  1
  Cr  Cr3  1  0.00162351  0.33433551  1.00078138  1
  Ni  Ni4  1  0.16768721  0.50084962  0.16939115  1
  Ni  Ni5  1  0.00112141  0.33363181  0.33430517  1
  Ni  Ni6  1  0.99974757  0.66992170  0.00121734  1
  Ni  Ni7  1  0.16683021  0.83566792  0.16847482  1
  Ni  Ni8  1  0.00101107  0.66802214  0.33321177  1
  Fe  Fe9  1  0.33343213  1.00063073  0.00159713  1
  Fe  Fe10  1  0.50132970  0.16772924  0.16847977  1
  Ni  Ni11  1  0.33426016  1.00070019  0.33354402  1
  Ni  Ni12  1  0.33494231  0.33410805  0.00168746  1
  Ni  Ni13  1  0.50228581  0.50095073  0.16790978  1
  Ni  Ni14  1  0.33404958  0.33456749  0.33405425  1
  Cr  Cr15  1  0.33386917  0.66614573  1.00077676  1
  Ni  Ni16  1  0.50194970  0.83445663  0.16841773  1
  Ni  Ni17  1  0.33462077  0.66756716  0.33468228  1
  Ni  Ni18  1  0.66944915  0.99996536  0.00179993  1
  Ni  Ni19  1  0.83404532  0.16667032  0.16848490  1
  Ni  Ni20  1  0.66804595  1.00054355  0.33452564  1
  Ni  Ni21  1  0.66664659  0.33448087  0.00201558  1
  Ni  Ni22  1  0.83276100  0.50165225  0.16820310  1
  Ni  Ni23  1  0.66759783  0.33404165  0.33394568  1
  Ni  Ni24  1  0.66827494  0.66837778  1.00057754  1
  Ni  Ni25  1  0.83393820  0.83451880  0.16675491  1
  Ni  Ni26  1  0.66715518  0.66819405  0.33386562  1
  Ni  Ni27  1  0.16759427  0.16716514  0.50148428  1
  Ni  Ni28  1  1.00079263  0.00115078  0.66777357  1
  Ni  Ni29  1  0.16641000  0.16607962  0.83347764  1
  Ni  Ni30  1  0.16724704  0.50111682  0.50088422  1
  Ni  Ni31  1  0.00099462  0.33390303  0.66771397  1
  Ni  Ni32  1  0.16709821  0.50142512  0.83253592  1
  Ni  Ni33  1  0.16767141  0.83448668  0.50052773  1
  Ni  Ni34  1  0.00132621  0.66769568  0.66816067  1
  Ni  Ni35  1  0.16722687  0.83527759  0.83373698  1
  Ni  Ni36  1  0.50083544  0.16737064  0.50029764  1
  Ni  Ni37  1  0.33353362  0.99979668  0.66740932  1
  Cr  Cr38  1  0.50139690  0.16747921  0.83481222  1
  Ni  Ni39  1  0.50133951  0.50107142  0.50149234  1
  Ni  Ni40  1  0.33327273  0.33529405  0.66727631  1
  Ni  Ni41  1  0.50254758  0.50202240  0.83339392  1
  Ni  Ni42  1  0.50071170  0.83432267  0.50112629  1
  Ni  Ni43  1  0.33435685  0.66769925  0.66735472  1
  Ni  Ni44  1  0.50139388  0.83353098  0.83317016  1
  Ni  Ni45  1  0.83434199  0.16779320  0.50113450  1
  Ni  Ni46  1  0.66845475  1.00008472  0.66648494  1
  Ni  Ni47  1  0.83477632  0.16732586  0.83321030  1
  Ni  Ni48  1  0.83418179  0.50099652  0.50052682  1
  Ni  Ni49  1  0.66848635  0.33475974  0.66698418  1
  Ni  Ni50  1  0.83305617  0.50118452  0.83408755  1
  Ni  Ni51  1  0.83438623  0.83397851  0.50127121  1
  Ni  Ni52  1  0.66711357  0.66789498  0.66816635  1
  Fe  Fe53  1  0.83450500  0.83405404  0.83402184  1
" 