3686,Ni88Cr12_6,-204.166608663195, 176.42607503553,Ni88Cr12,"# generated using pymatgen
 data_Cr47Ni7
_symmetry_space_group_name_H-M   'P 1'
_cell_length_a   7.59193260
_cell_length_b   7.59193260
_cell_length_c   10.73661405
_cell_angle_alpha   90.00000000
_cell_angle_beta   90.00000000
_cell_angle_gamma   90.00000000
_symmetry_Int_Tables_number   1
_chemical_formula_structural   Cr47Ni7
_chemical_formula_sum   'Cr47 Ni7'
_cell_volume   618.83095469
_cell_formula_units_Z   1
loop_
 _symmetry_equiv_pos_site_id
 _symmetry_equiv_pos_as_xyz
  1  'x, y, z'
loop_
 _atom_site_type_symbol
 _atom_site_label
 _atom_site_symmetry_multiplicity
 _atom_site_fract_x
 _atom_site_fract_y
 _atom_site_fract_z
 _atom_site_occupancy
  Cr  Cr0  1  -0.00822460  -0.00748930  -0.00789049  1
  Cr  Cr1  1  0.15786359  0.15868976  0.15829108  1
  Cr  Cr2  1  -0.00789681  -0.00671504  0.32695802  1
  Ni  Ni3  1  0.99177466  0.32694717  -0.00808101  1
  Cr  Cr4  1  0.15685308  0.49112548  0.15752750  1
  Cr  Cr5  1  0.99102235  0.32435767  0.32582048  1
  Cr  Cr6  1  -0.00822474  0.65586737  0.99177311  1
  Cr  Cr7  1  0.15839592  0.82550907  0.15844154  1
  Cr  Cr8  1  0.99101722  0.65768075  0.32368140  1
  Cr  Cr9  1  0.32615302  -0.00742371  0.99135251  1
  Cr  Cr10  1  0.49159702  0.15871216  0.15750131  1
  Cr  Cr11  1  0.32488905  0.99167036  0.32606275  1
  Cr  Cr12  1  0.32404869  0.32477887  0.98992861  1
  Cr  Cr13  1  0.49317030  0.49165812  0.15955780  1
  Cr  Cr14  1  0.32434466  0.32434661  0.32586789  1
  Cr  Cr15  1  0.32398103  0.65797131  0.99101994  1
  Cr  Cr16  1  0.49159711  0.82495548  0.15904496  1
  Cr  Cr17  1  0.32596870  0.65931059  0.32564734  1
  Cr  Cr18  1  0.65739553  -0.00742271  0.99067865  1
  Cr  Cr19  1  0.82586463  0.16025828  0.15773487  1
  Cr  Cr20  1  0.65833320  0.99166786  0.32639735  1
  Cr  Cr21  1  0.65950257  0.32478060  -0.00789409  1
  Ni  Ni22  1  0.82591260  0.49115500  0.15749913  1
  Cr  Cr23  1  0.65995988  0.32543415  0.32477080  1
  Cr  Cr24  1  0.65957065  0.65797020  -0.00679922  1
  Cr  Cr25  1  0.82533264  0.82393998  0.15788356  1
  Cr  Cr26  1  0.65833989  0.65822635  0.32455429  1
  Ni  Ni27  1  0.15668320  0.15804162  0.49158283  1
  Cr  Cr28  1  0.99144704  -0.00704181  0.65625894  1
  Cr  Cr29  1  0.15907620  0.16025299  0.82614821  1
  Cr  Cr30  1  0.15899693  0.49048964  0.49238001  1
  Cr  Cr31  1  -0.00747024  0.32468454  0.65739815  1
  Ni  Ni32  1  0.15790012  0.49089395  0.82614420  1
  Cr  Cr33  1  0.15946382  0.82654365  0.49143951  1
  Cr  Cr34  1  -0.00746512  0.65767898  0.65987274  1
  Cr  Cr35  1  0.15804028  0.82376015  0.82544359  1
  Cr  Cr36  1  0.49177512  0.15782921  0.49182283  1
  Cr  Cr37  1  0.32597179  -0.00757699  0.65791032  1
  Ni  Ni38  1  0.49151303  0.15851655  0.82530133  1
  Cr  Cr39  1  0.49177540  0.49308808  0.49144001  1
  Cr  Cr40  1  0.32434848  0.32467954  0.65953551  1
  Cr  Cr41  1  0.49038356  0.49026330  0.82432817  1
  Ni  Ni42  1  0.49177511  0.82549390  0.49163191  1
  Cr  Cr43  1  0.32488465  0.65822450  0.65866318  1
  Cr  Cr44  1  0.49195295  0.82634752  0.82483976  1
  Ni  Ni45  1  0.82686729  0.15804160  0.49168164  1
  Cr  Cr46  1  0.65790538  -0.00757458  0.65824606  1
  Cr  Cr47  1  0.82429058  0.15868833  0.82559227  1
  Cr  Cr48  1  0.82455341  0.49048960  0.49161605  1
  Cr  Cr49  1  0.65844573  0.32359143  0.65844075  1
  Cr  Cr50  1  0.82687620  0.49130448  0.82579868  1
  Cr  Cr51  1  0.82408656  0.82654363  0.49255677  1
  Cr  Cr52  1  0.65790687  0.65931063  0.65756913  1
  Cr  Cr53  1  0.82533202  0.82533131  0.82488554  1
" 