290,Ni88Cr12_13,-204.222792743466, 178.218111641072,Ni88Cr12,"# generated using pymatgen
 data_Cr47Ni7
_symmetry_space_group_name_H-M   'P 1'
_cell_length_a   7.59264791
_cell_length_b   7.59264791
_cell_length_c   10.73762565
_cell_angle_alpha   90.00000000
_cell_angle_beta   90.00000000
_cell_angle_gamma   90.00000000
_symmetry_Int_Tables_number   1
_chemical_formula_structural   Cr47Ni7
_chemical_formula_sum   'Cr47 Ni7'
_cell_volume   619.00589000
_cell_formula_units_Z   1
loop_
 _symmetry_equiv_pos_site_id
 _symmetry_equiv_pos_as_xyz
  1  'x, y, z'
loop_
 _atom_site_type_symbol
 _atom_site_label
 _atom_site_symmetry_multiplicity
 _atom_site_fract_x
 _atom_site_fract_y
 _atom_site_fract_z
 _atom_site_occupancy
  Cr  Cr0  1  -0.00752814  0.99111113  -0.00650871  1
  Cr  Cr1  1  0.15814477  0.15717665  0.15788687  1
  Cr  Cr2  1  -0.00753028  0.99073599  0.32368212  1
  Cr  Cr3  1  0.99122231  0.32481295  -0.00775878  1
  Cr  Cr4  1  0.15877512  0.49268858  0.15852501  1
  Cr  Cr5  1  0.99122180  0.32518888  0.32493138  1
  Cr  Cr6  1  -0.00689199  0.65926162  -0.00714849  1
  Ni  Ni7  1  0.15791251  0.82495583  0.15866696  1
  Cr  Cr8  1  -0.00689561  0.65926065  0.32470850  1
  Cr  Cr9  1  0.32553532  0.99048232  0.99158894  1
  Cr  Cr10  1  0.49167369  0.15834214  0.15916328  1
  Cr  Cr11  1  0.32505574  0.99134553  0.32473006  1
  Cr  Cr12  1  0.32678652  0.32544308  0.99033592  1
  Cr  Cr13  1  0.49168017  0.49216334  0.15872593  1
  Cr  Cr14  1  0.32630429  0.32457742  0.32598045  1
  Cr  Cr15  1  0.32553169  0.65926072  -0.00797486  1
  Cr  Cr16  1  0.49051258  0.82468110  0.15872573  1
  Cr  Cr17  1  0.32380945  0.65926357  0.32304139  1
  Cr  Cr18  1  0.65717753  -0.00763420  0.99013623  1
  Cr  Cr19  1  0.82536932  0.15834207  0.15788677  1
  Cr  Cr20  1  0.65765978  -0.00677031  0.32618077  1
  Cr  Cr21  1  0.65717885  0.32480804  0.99052307  1
  Cr  Cr22  1  0.82473170  0.49153279  0.15852532  1
  Cr  Cr23  1  0.65766089  0.32394352  0.32579400  1
  Cr  Cr24  1  0.65654538  0.65801258  0.98949630  1
  Cr  Cr25  1  0.82589186  0.82531182  0.15852548  1
  Cr  Cr26  1  0.65827092  0.65801390  0.32557033  1
  Cr  Cr27  1  0.16145704  0.15877703  0.49395703  1
  Cr  Cr28  1  -0.00700734  0.99140003  0.65801392  1
  Cr  Cr29  1  0.16104388  0.15877694  0.82334393  1
  Cr  Cr30  1  0.15905788  0.49043064  0.49271465  1
  Cr  Cr31  1  -0.00701387  0.32539002  0.65801392  1
  Cr  Cr32  1  0.16044253  0.49022958  0.82394786  1
  Cr  Cr33  1  0.15905747  0.82597857  0.49227563  1
  Cr  Cr34  1  -0.00816291  0.65839637  0.65762801  1
  Cr  Cr35  1  0.16043982  0.82617973  0.82438689  1
  Ni  Ni36  1  0.48990455  0.15850243  0.49363063  1
  Ni  Ni37  1  0.32779908  -0.00516940  0.65919486  1
  Ni  Ni38  1  0.48990772  0.15850086  0.82283531  1
  Cr  Cr39  1  0.49099457  0.48991060  0.49123832  1
  Ni  Ni40  1  0.32780121  0.32196078  0.65919407  1
  Ni  Ni41  1  0.49103042  0.49082186  0.82431625  1
  Cr  Cr42  1  0.49163048  0.82713879  0.49187622  1
  Cr  Cr43  1  0.32602000  0.65839632  0.66011369  1
  Ni  Ni44  1  0.49108333  0.82586371  0.82426074  1
  Cr  Cr45  1  0.82397386  0.15814029  0.49083266  1
  Cr  Cr46  1  0.65494352  -0.00735425  0.65886955  1
  Cr  Cr47  1  0.82438532  0.15814053  0.82646650  1
  Cr  Cr48  1  0.82513272  0.49231225  0.49121722  1
  Cr  Cr49  1  0.65494692  0.32415021  0.65886759  1
  Cr  Cr50  1  0.82374728  0.49211000  0.82544399  1
  Cr  Cr51  1  0.82449630  0.82473375  0.49185530  1
  Cr  Cr52  1  0.65733031  0.65839101  0.66011605  1
  Cr  Cr53  1  0.82310806  0.82493598  0.82480557  1
" 