6062,Ni88Fe12_3,-229.303552122228, 161.413358262794,Ni88Fe12,"# generated using pymatgen
 data_Fe47Ni7
_symmetry_space_group_name_H-M   'P 1'
_cell_length_a   7.40484784
_cell_length_b   7.40484784
_cell_length_c   10.47203624
_cell_angle_alpha   90.00000000
_cell_angle_beta   90.00000000
_cell_angle_gamma   90.00000000
_symmetry_Int_Tables_number   1
_chemical_formula_structural   Fe47Ni7
_chemical_formula_sum   'Fe47 Ni7'
_cell_volume   574.20029789
_cell_formula_units_Z   1
loop_
 _symmetry_equiv_pos_site_id
 _symmetry_equiv_pos_as_xyz
  1  'x, y, z'
loop_
 _atom_site_type_symbol
 _atom_site_label
 _atom_site_symmetry_multiplicity
 _atom_site_fract_x
 _atom_site_fract_y
 _atom_site_fract_z
 _atom_site_occupancy
  Fe  Fe0  1  0.00424102  0.00530167  1.00362632  1
  Fe  Fe1  1  0.17094838  0.17147678  0.17034175  1
  Fe  Fe2  1  1.00375854  1.00411683  0.33880277  1
  Ni  Ni3  1  0.00567156  0.33798202  1.00400274  1
  Fe  Fe4  1  0.17086393  0.50367679  0.17034368  1
  Fe  Fe5  1  1.00384755  0.33735152  0.33705483  1
  Fe  Fe6  1  1.00419899  0.67026062  0.00428498  1
  Fe  Fe7  1  0.17094794  0.83745164  0.17103846  1
  Fe  Fe8  1  1.00401971  0.67113131  0.33771283  1
  Fe  Fe9  1  0.33757835  0.00521920  0.00437058  1
  Fe  Fe10  1  0.50411738  0.17078058  0.17033487  1
  Fe  Fe11  1  0.33753231  1.00403071  0.33736163  1
  Ni  Ni12  1  0.33647189  0.33838452  0.00505257  1
  Fe  Fe13  1  0.50385347  0.50402039  0.17077719  1
  Fe  Fe14  1  0.33761840  0.33761650  0.33753710  1
  Fe  Fe15  1  0.33753325  0.67043058  0.00428465  1
  Fe  Fe16  1  0.50446423  0.83779624  0.17060124  1
  Fe  Fe17  1  0.33753236  0.67095305  0.33745113  1
  Ni  Ni18  1  0.67126614  1.00280328  0.00440579  1
  Fe  Fe19  1  0.83753639  0.17086548  0.17090436  1
  Fe  Fe20  1  0.67131073  0.00420254  0.33740340  1
  Fe  Fe21  1  0.67095447  0.33699164  0.00428468  1
  Fe  Fe22  1  0.83788343  0.50401897  0.17060102  1
  Fe  Fe23  1  0.67113326  0.33735223  0.33788382  1
  Fe  Fe24  1  0.67086763  0.67024497  1.00419886  1
  Fe  Fe25  1  0.83718839  0.83771217  0.17117435  1
  Fe  Fe26  1  0.67104762  0.67104511  0.33779890  1
  Fe  Fe27  1  0.16976681  0.17029808  0.50473046  1
  Ni  Ni28  1  1.00302790  1.00344774  0.67053773  1
  Fe  Fe29  1  0.17095779  0.17148411  0.83752704  1
  Fe  Fe30  1  0.17006991  0.50393522  0.50437501  1
  Fe  Fe31  1  0.00446220  0.33673542  0.67117501  1
  Fe  Fe32  1  0.17122078  0.50340658  0.83788010  1
  Fe  Fe33  1  0.16942014  0.83836649  0.50437861  1
  Fe  Fe34  1  0.00458936  0.67116850  0.67060131  1
  Fe  Fe35  1  0.17060143  0.83771438  0.83718277  1
  Fe  Fe36  1  0.50503347  0.17064282  0.50437683  1
  Fe  Fe37  1  0.33691493  0.00464762  0.67086761  1
  Fe  Fe38  1  0.50384544  0.17113631  0.83788947  1
  Fe  Fe39  1  0.50508020  0.50393944  0.50446324  1
  Ni  Ni40  1  0.33767640  0.33828451  0.67001774  1
  Fe  Fe41  1  0.50358366  0.50375078  0.83736008  1
  Fe  Fe42  1  0.50538461  0.83802056  0.50402892  1
  Fe  Fe43  1  0.33696225  0.67091628  0.67086404  1
  Fe  Fe44  1  0.50454865  0.83771295  0.83797034  1
  Ni  Ni45  1  0.83764444  0.17002527  0.50440939  1
  Fe  Fe46  1  0.67134584  0.00477146  0.67091181  1
  Fe  Fe47  1  0.83779642  0.17051705  0.83731740  1
  Fe  Fe48  1  0.83745121  0.50428559  0.50402887  1
  Fe  Fe49  1  0.67109189  0.33678323  0.67043204  1
  Fe  Fe50  1  0.83779781  0.50410432  0.83796848  1
  Ni  Ni51  1  0.83764178  0.83846670  0.50430354  1
  Fe  Fe52  1  0.67104739  0.67104520  0.67060177  1
  Fe  Fe53  1  0.83744651  0.83797258  0.83696242  1
" 