6536,Ni88Fe5Cr5_0,-237.03529118294, 174.73429499072,Ni88Fe5Cr5,"# generated using pymatgen
 data_Cr5Fe2Ni47
_symmetry_space_group_name_H-M   'P 1'
_cell_length_a   7.45901470
_cell_length_b   7.45901470
_cell_length_c   10.54863975
_cell_angle_alpha   90.00000000
_cell_angle_beta   90.00000000
_cell_angle_gamma   90.00000000
_symmetry_Int_Tables_number   1
_chemical_formula_structural   Cr5Fe2Ni47
_chemical_formula_sum   'Cr5 Fe2 Ni47'
_cell_volume   586.89361836
_cell_formula_units_Z   1
loop_
 _symmetry_equiv_pos_site_id
 _symmetry_equiv_pos_as_xyz
  1  'x, y, z'
loop_
 _atom_site_type_symbol
 _atom_site_label
 _atom_site_symmetry_multiplicity
 _atom_site_fract_x
 _atom_site_fract_y
 _atom_site_fract_z
 _atom_site_occupancy
  Ni  Ni0  1  0.00292301  0.99985036  0.00155655  1
  Ni  Ni1  1  0.16722571  0.16654456  0.16723261  1
  Ni  Ni2  1  0.00192131  1.00050704  0.33361550  1
  Ni  Ni3  1  0.00147856  0.33458906  0.00143739  1
  Ni  Ni4  1  0.16739762  0.50096284  0.16669907  1
  Ni  Ni5  1  0.00062729  0.33405322  0.33386986  1
  Ni  Ni6  1  0.00181291  0.66716810  1.00021738  1
  Ni  Ni7  1  0.16715128  0.83411222  0.16693676  1
  Ni  Ni8  1  1.00024175  0.66705421  0.33379884  1
  Ni  Ni9  1  0.33232224  0.00083944  1.00052854  1
  Ni  Ni10  1  0.49909999  0.16910514  0.16650820  1
  Ni  Ni11  1  0.33237941  0.00061418  0.33355056  1
  Ni  Ni12  1  0.33373375  0.33355890  1.00041094  1
  Ni  Ni13  1  0.50019038  0.49966111  0.16795485  1
  Ni  Ni14  1  0.33376520  0.33402797  0.33380001  1
  Ni  Ni15  1  0.33240727  0.66720930  1.00044911  1
  Ni  Ni16  1  0.49785910  0.83285728  0.16821337  1
  Ni  Ni17  1  0.33403967  0.66697599  0.33374099  1
  Cr  Cr18  1  0.66632921  0.00077847  0.00115481  1
  Ni  Ni19  1  0.83529392  0.16886522  0.16711852  1
  Cr  Cr20  1  0.66738179  1.00037300  0.33367293  1
  Ni  Ni21  1  0.66640642  0.33468050  0.00137211  1
  Ni  Ni22  1  0.83402909  0.49973540  0.16801991  1
  Ni  Ni23  1  0.66722016  0.33571078  0.33361433  1
  Cr  Cr24  1  0.66737217  0.66634158  0.00074580  1
  Ni  Ni25  1  0.83660362  0.83302285  0.16755219  1
  Ni  Ni26  1  0.66733070  0.66566523  0.33354708  1
  Ni  Ni27  1  0.16744674  0.16650427  0.50051412  1
  Ni  Ni28  1  0.00104407  0.99985443  0.66644808  1
  Ni  Ni29  1  0.16909519  0.16608766  0.83387054  1
  Ni  Ni30  1  0.16762431  0.50118977  0.50127355  1
  Ni  Ni31  1  0.00132225  0.33443230  0.66632349  1
  Fe  Fe32  1  0.16750412  0.50087460  0.83386143  1
  Ni  Ni33  1  0.16654621  0.83392474  0.50055622  1
  Ni  Ni34  1  0.00164314  0.66731907  0.66760890  1
  Ni  Ni35  1  0.16730993  0.83417487  0.83412113  1
  Ni  Ni36  1  0.49993745  0.16889599  0.50201543  1
  Ni  Ni37  1  0.33408845  0.00094771  0.66752342  1
  Ni  Ni38  1  0.49803053  0.16850177  0.83309999  1
  Ni  Ni39  1  0.50000044  0.49905196  0.49953602  1
  Ni  Ni40  1  0.33388129  0.33340934  0.66741575  1
  Ni  Ni41  1  0.49963298  0.49900391  0.83412062  1
  Fe  Fe42  1  0.49876490  0.83385564  0.50050839  1
  Ni  Ni43  1  0.33245731  0.66725258  0.66742393  1
  Ni  Ni44  1  0.49748009  0.83411817  0.83259768  1
  Ni  Ni45  1  0.83422599  0.16779230  0.50164587  1
  Ni  Ni46  1  0.66647135  0.00127363  0.66674914  1
  Cr  Cr47  1  0.83445299  0.16813544  0.83289021  1
  Ni  Ni48  1  0.83398532  0.49996363  0.49972302  1
  Ni  Ni49  1  0.66640917  0.33282016  0.66663123  1
  Ni  Ni50  1  0.83441826  0.50078473  0.83387645  1
  Ni  Ni51  1  0.83639205  0.83386128  0.50098783  1
  Cr  Cr52  1  0.66754941  0.66759886  0.66735591  1
  Ni  Ni53  1  0.83681990  0.83258462  0.83308080  1
" 