8292,Ni88Fe12_16,-228.92337043946, 162.873597205944,Ni88Fe12,"# generated using pymatgen
 data_Fe47Ni7
_symmetry_space_group_name_H-M   'P 1'
_cell_length_a   7.40126855
_cell_length_b   7.40126855
_cell_length_c   10.46697436
_cell_angle_alpha   90.00000000
_cell_angle_beta   90.00000000
_cell_angle_gamma   90.00000000
_symmetry_Int_Tables_number   1
_chemical_formula_structural   Fe47Ni7
_chemical_formula_sum   'Fe47 Ni7'
_cell_volume   573.36804535
_cell_formula_units_Z   1
loop_
 _symmetry_equiv_pos_site_id
 _symmetry_equiv_pos_as_xyz
  1  'x, y, z'
loop_
 _atom_site_type_symbol
 _atom_site_label
 _atom_site_symmetry_multiplicity
 _atom_site_fract_x
 _atom_site_fract_y
 _atom_site_fract_z
 _atom_site_occupancy
  Fe  Fe0  1  0.00492847  1.00403950  1.00383000  1
  Fe  Fe1  1  0.17164058  0.17001401  0.17102798  1
  Fe  Fe2  1  1.00407123  0.00481504  0.33807023  1
  Fe  Fe3  1  1.00436201  0.33786125  0.00444591  1
  Fe  Fe4  1  0.17164237  0.50545555  0.17164342  1
  Fe  Fe5  1  1.00411961  0.33809963  0.33801445  1
  Fe  Fe6  1  0.00501213  0.67142978  0.00452815  1
  Ni  Ni7  1  0.17189696  0.83767637  0.17171712  1
  Fe  Fe8  1  0.00447548  0.67041614  0.33769364  1
  Fe  Fe9  1  0.33761558  1.00371824  0.00476648  1
  Fe  Fe10  1  0.50415075  0.17034093  0.17135099  1
  Fe  Fe11  1  0.33847378  0.00449335  0.33713245  1
  Fe  Fe12  1  0.33777581  0.33777842  1.00427777  1
  Fe  Fe13  1  0.50423452  0.50521864  0.17126707  1
  Fe  Fe14  1  0.33801496  0.33801737  0.33818313  1
  Fe  Fe15  1  0.33744949  0.67183438  0.00476730  1
  Ni  Ni16  1  0.50394552  0.83806839  0.17082122  1
  Fe  Fe17  1  0.33798609  0.67082087  0.33745460  1
  Fe  Fe18  1  0.67078822  1.00436790  0.00476624  1
  Fe  Fe19  1  0.83753933  0.17028591  0.17135149  1
  Fe  Fe20  1  0.67078711  0.00484818  0.33745605  1
  Fe  Fe21  1  0.67119346  0.33769393  0.00497646  1
  Fe  Fe22  1  0.83745377  0.50526997  0.17126758  1
  Ni  Ni23  1  0.67072332  0.33826264  0.33759183  1
  Fe  Fe24  1  0.67087010  0.67127034  1.00406850  1
  Fe  Fe25  1  0.83778029  0.83777648  0.17111081  1
  Fe  Fe26  1  0.67086904  0.67087544  0.33806880  1
  Fe  Fe27  1  0.17087108  0.17142898  0.50476806  1
  Ni  Ni28  1  0.00544125  0.00456889  0.67140310  1
  Fe  Fe29  1  0.17087166  0.17038957  0.83753591  1
  Ni  Ni30  1  0.17072301  0.50435153  0.50483123  1
  Fe  Fe31  1  1.00414936  0.33806786  0.67087237  1
  Fe  Fe32  1  0.17119321  0.50475886  0.83732717  1
  Fe  Fe33  1  0.17078712  0.83762327  0.50468141  1
  Fe  Fe34  1  1.00443963  0.67159388  0.67111042  1
  Ni  Ni35  1  0.17110555  0.83768357  0.83706134  1
  Fe  Fe36  1  0.50406939  0.17204566  0.50412090  1
  Fe  Fe37  1  0.33767609  1.00367108  0.67143131  1
  Fe  Fe38  1  0.50382980  0.17074428  0.83785943  1
  Fe  Fe39  1  0.50444267  0.50436146  0.50452749  1
  Fe  Fe40  1  0.33753819  0.33801569  0.67087181  1
  Fe  Fe41  1  0.50423360  0.50513194  0.83753624  1
  Fe  Fe42  1  0.50423502  0.83692293  0.50415068  1
  Fe  Fe43  1  0.33724533  0.67164357  0.67110938  1
  Fe  Fe44  1  0.50428703  0.83745321  0.83806918  1
  Fe  Fe45  1  0.83839220  0.17163939  0.50436140  1
  Fe  Fe46  1  0.67159401  1.00396092  0.67110789  1
  Fe  Fe47  1  0.83863169  0.17033813  0.83761887  1
  Fe  Fe48  1  0.83769055  0.50444529  0.50436038  1
  Fe  Fe49  1  0.67164318  0.33763862  0.67066232  1
  Fe  Fe50  1  0.83790277  0.50521613  0.83770286  1
  Fe  Fe51  1  0.83830997  0.83724687  0.50509265  1
  Ni  Ni52  1  0.67060154  0.67049658  0.67101252  1
  Fe  Fe53  1  0.83825867  0.83777676  0.83712756  1
" 