4870,Ni88Fe12_11,-228.982379267285, 162.579424454222,Ni88Fe12,"# generated using pymatgen
 data_Fe47Ni7
_symmetry_space_group_name_H-M   'P 1'
_cell_length_a   7.40131618
_cell_length_b   7.40131618
_cell_length_c   10.46704172
_cell_angle_alpha   90.00000000
_cell_angle_beta   90.00000000
_cell_angle_gamma   90.00000000
_symmetry_Int_Tables_number   1
_chemical_formula_structural   Fe47Ni7
_chemical_formula_sum   'Fe47 Ni7'
_cell_volume   573.37911434
_cell_formula_units_Z   1
loop_
 _symmetry_equiv_pos_site_id
 _symmetry_equiv_pos_as_xyz
  1  'x, y, z'
loop_
 _atom_site_type_symbol
 _atom_site_label
 _atom_site_symmetry_multiplicity
 _atom_site_fract_x
 _atom_site_fract_y
 _atom_site_fract_z
 _atom_site_occupancy
  Fe  Fe0  1  1.00436168  1.00341167  0.00454423  1
  Fe  Fe1  1  0.17282750  0.17164363  0.17184032  1
  Fe  Fe2  1  1.00412377  1.00343007  0.33781234  1
  Fe  Fe3  1  0.00448984  0.33838772  1.00434575  1
  Fe  Fe4  1  0.17213919  0.50400355  0.17045646  1
  Fe  Fe5  1  0.00448913  0.33780175  0.33815630  1
  Ni  Ni6  1  1.00413366  0.67062254  1.00430652  1
  Fe  Fe7  1  0.17299389  0.83774418  0.17093099  1
  Fe  Fe8  1  0.00483291  0.67209907  0.33655435  1
  Fe  Fe9  1  0.33799040  0.00472209  0.00545556  1
  Ni  Ni10  1  0.50465731  0.17148182  0.17169286  1
  Ni  Ni11  1  0.33751203  0.00548216  0.33817749  1
  Fe  Fe12  1  0.33827414  0.33794768  0.00471511  1
  Ni  Ni13  1  0.50410692  0.50414632  0.17093165  1
  Fe  Fe14  1  0.33918711  0.33829258  0.33719251  1
  Fe  Fe15  1  0.33723441  0.67063471  1.00362984  1
  Fe  Fe16  1  0.50426415  0.83773434  0.17229742  1
  Fe  Fe17  1  0.33899762  0.67157224  0.33853434  1
  Fe  Fe18  1  0.67096252  0.00471581  1.00410157  1
  Fe  Fe19  1  0.83650769  0.17200564  0.17110216  1
  Fe  Fe20  1  0.67008109  1.00381563  0.33765454  1
  Fe  Fe21  1  0.67052573  0.33786114  0.00455733  1
  Fe  Fe22  1  0.83640209  0.50410770  0.17115683  1
  Fe  Fe23  1  0.66964466  0.33754883  0.33733091  1
  Fe  Fe24  1  0.67144534  0.67078060  0.00589279  1
  Fe  Fe25  1  0.83606466  0.83703719  0.17088150  1
  Ni  Ni26  1  0.67168870  0.67007951  0.33746351  1
  Fe  Fe27  1  0.17115701  0.17094162  0.50388429  1
  Fe  Fe28  1  0.00517537  1.00344847  0.67096662  1
  Fe  Fe29  1  0.17177065  0.17103771  0.83768857  1
  Fe  Fe30  1  0.17132995  0.50478164  0.50516839  1
  Fe  Fe31  1  0.00530832  0.33865434  0.67081506  1
  Fe  Fe32  1  0.17193018  0.50425320  0.83765323  1
  Fe  Fe33  1  0.17191947  0.83778420  0.50453735  1
  Fe  Fe34  1  0.00521765  0.67120752  0.67240072  1
  Fe  Fe35  1  0.17214396  0.83797865  0.83789065  1
  Fe  Fe36  1  0.50415184  0.17072771  0.50431643  1
  Fe  Fe37  1  0.33811687  1.00416009  0.67037102  1
  Ni  Ni38  1  0.50398784  0.17116367  0.83739348  1
  Fe  Fe39  1  0.50449062  0.50535228  0.50363251  1
  Fe  Fe40  1  0.33822849  0.33840414  0.67143827  1
  Fe  Fe41  1  0.50418847  0.50436088  0.83816853  1
  Fe  Fe42  1  0.50414465  0.83729601  0.50397037  1
  Ni  Ni43  1  0.33807441  0.67117053  0.67112668  1
  Fe  Fe44  1  0.50407081  0.83818974  0.83710538  1
  Fe  Fe45  1  0.83793815  0.17123566  0.50487702  1
  Fe  Fe46  1  0.67004418  1.00396145  0.67160647  1
  Fe  Fe47  1  0.83709563  0.17120191  0.83734418  1
  Fe  Fe48  1  0.83759656  0.50463914  0.50396761  1
  Fe  Fe49  1  0.66976587  0.33833110  0.67144274  1
  Fe  Fe50  1  0.83714653  0.50385626  0.83809812  1
  Fe  Fe51  1  0.83733505  0.83731175  0.50403329  1
  Fe  Fe52  1  0.67044048  0.67104342  0.66986242  1
  Fe  Fe53  1  0.83708114  0.83818500  0.83831365  1
" 