6785,Ni88Fe7Cr3_6,-238.82328951033, 180.232969666583,Ni88Fe7Cr3,"# generated using pymatgen
 data_CrFeNi16
_symmetry_space_group_name_H-M   'P 1'
_cell_length_a   7.45197854
_cell_length_b   7.45197854
_cell_length_c   10.53868912
_cell_angle_alpha   90.00000000
_cell_angle_beta   90.00000000
_cell_angle_gamma   90.00000000
_symmetry_Int_Tables_number   1
_chemical_formula_structural   CrFeNi16
_chemical_formula_sum   'Cr3 Fe3 Ni48'
_cell_volume   585.23431735
_cell_formula_units_Z   3
loop_
 _symmetry_equiv_pos_site_id
 _symmetry_equiv_pos_as_xyz
  1  'x, y, z'
loop_
 _atom_site_type_symbol
 _atom_site_label
 _atom_site_symmetry_multiplicity
 _atom_site_fract_x
 _atom_site_fract_y
 _atom_site_fract_z
 _atom_site_occupancy
  Cr  Cr0  1  0.99942803  0.99839285  1.00030774  1
  Cr  Cr1  1  0.17122292  0.16735842  0.17014692  1
  Ni  Ni2  1  1.00003854  0.99991726  0.33533352  1
  Cr  Cr3  1  1.00045582  0.33661534  0.99957274  1
  Ni  Ni4  1  0.16755010  0.50317028  0.16881690  1
  Ni  Ni5  1  1.00029308  0.33521431  0.33556940  1
  Ni  Ni6  1  0.00111444  0.66806344  1.00076711  1
  Ni  Ni7  1  0.16815292  0.83262497  0.16840980  1
  Ni  Ni8  1  0.00127494  0.66783910  0.33436369  1
  Ni  Ni9  1  0.33656093  1.00003115  0.99927406  1
  Ni  Ni10  1  0.50236438  0.16731806  0.16771804  1
  Ni  Ni11  1  0.33532115  0.99985350  0.33605795  1
  Ni  Ni12  1  0.33665287  0.33557009  1.00004294  1
  Ni  Ni13  1  0.50207922  0.50093629  0.16790895  1
  Ni  Ni14  1  0.33538948  0.33562682  0.33575075  1
  Ni  Ni15  1  0.33475716  0.66748654  0.00159313  1
  Ni  Ni16  1  0.50148135  0.83482882  0.16750440  1
  Ni  Ni17  1  0.33465133  0.66764684  0.33398631  1
  Ni  Ni18  1  0.66579723  1.00057519  0.00132597  1
  Fe  Fe19  1  0.83204538  0.16783323  0.16935750  1
  Ni  Ni20  1  0.66736397  1.00095690  0.33401874  1
  Ni  Ni21  1  0.66528770  0.33437710  1.00089916  1
  Ni  Ni22  1  0.83310969  0.50296751  0.16837517  1
  Ni  Ni23  1  0.66718906  0.33428535  0.33431664  1
  Ni  Ni24  1  0.66716594  0.66806528  1.00056448  1
  Ni  Ni25  1  0.83303996  0.83193693  0.16929276  1
  Ni  Ni26  1  0.66701191  0.66781055  0.33525397  1
  Ni  Ni27  1  0.16722476  0.16726010  0.50125680  1
  Ni  Ni28  1  1.00014683  0.00113958  0.66763814  1
  Ni  Ni29  1  0.16932483  0.16735575  0.83176127  1
  Ni  Ni30  1  0.16695230  0.50138961  0.50044967  1
  Ni  Ni31  1  0.00129098  0.33380129  0.66779334  1
  Ni  Ni32  1  0.16821620  0.50207310  0.83371816  1
  Ni  Ni33  1  0.16808178  0.83430720  0.50049095  1
  Ni  Ni34  1  0.00183572  0.66814938  0.66805456  1
  Ni  Ni35  1  0.16845674  0.83350652  0.83397330  1
  Ni  Ni36  1  0.50152148  0.16727714  0.50090518  1
  Fe  Fe37  1  0.33484147  1.00043957  0.66719898  1
  Ni  Ni38  1  0.50123119  0.16746395  0.83429957  1
  Ni  Ni39  1  0.50195387  0.50135540  0.50078981  1
  Ni  Ni40  1  0.33460428  0.33555126  0.66730283  1
  Ni  Ni41  1  0.50165583  0.50113676  0.83439155  1
  Ni  Ni42  1  0.50083631  0.83430932  0.50081205  1
  Ni  Ni43  1  0.33465170  0.66689054  0.66735052  1
  Ni  Ni44  1  0.50146667  0.83437462  0.83460699  1
  Ni  Ni45  1  0.83415117  0.16850377  0.50008062  1
  Ni  Ni46  1  0.66842968  0.00112803  0.66765115  1
  Ni  Ni47  1  0.83238640  0.16773865  0.83350775  1
  Ni  Ni48  1  0.83415650  0.50067311  0.50169231  1
  Ni  Ni49  1  0.66711525  0.33381868  0.66777524  1
  Ni  Ni50  1  0.83321636  0.50214853  0.83312776  1
  Fe  Fe51  1  0.83416555  0.83419528  0.50130278  1
  Ni  Ni52  1  0.66654011  0.66812848  0.66733231  1
  Ni  Ni53  1  0.83334480  0.83318047  0.83280593  1
" 