1172,Ni88Cr12_8,-204.117773818513, 175.819137355539,Ni88Cr12,"# generated using pymatgen
 data_Cr47Ni7
_symmetry_space_group_name_H-M   'P 1'
_cell_length_a   7.59350675
_cell_length_b   7.59350675
_cell_length_c   10.73884023
_cell_angle_alpha   90.00000000
_cell_angle_beta   90.00000000
_cell_angle_gamma   90.00000000
_symmetry_Int_Tables_number   1
_chemical_formula_structural   Cr47Ni7
_chemical_formula_sum   'Cr47 Ni7'
_cell_volume   619.21596804
_cell_formula_units_Z   1
loop_
 _symmetry_equiv_pos_site_id
 _symmetry_equiv_pos_as_xyz
  1  'x, y, z'
loop_
 _atom_site_type_symbol
 _atom_site_label
 _atom_site_symmetry_multiplicity
 _atom_site_fract_x
 _atom_site_fract_y
 _atom_site_fract_z
 _atom_site_occupancy
  Cr  Cr0  1  0.99127962  0.99004927  -0.00824486  1
  Cr  Cr1  1  0.15864821  0.15864805  0.15834119  1
  Cr  Cr2  1  0.99017099  0.99005146  0.32456401  1
  Cr  Cr3  1  0.99124730  0.32583030  -0.00821162  1
  Cr  Cr4  1  0.15748506  0.49377755  0.15717685  1
  Cr  Cr5  1  -0.00818929  0.32601918  0.32512847  1
  Ni  Ni6  1  -0.00707406  0.65924291  -0.00739529  1
  Cr  Cr7  1  0.15640598  0.82259344  0.15681433  1
  Ni  Ni8  1  0.98834013  0.65952301  0.32397398  1
  Cr  Cr9  1  0.32459798  0.99001221  -0.00821175  1
  Cr  Cr10  1  0.49252971  0.15748046  0.15914660  1
  Cr  Cr11  1  0.32589939  -0.00830761  0.32512893  1
  Cr  Cr12  1  0.32519476  0.32642704  -0.00766380  1
  Cr  Cr13  1  0.49136185  0.49261986  0.15797605  1
  Cr  Cr14  1  0.32481853  0.32493693  0.32517886  1
  Ni  Ni15  1  0.32290048  0.65823882  0.99126998  1
  Cr  Cr16  1  0.49360458  0.82491942  0.15914055  1
  Cr  Cr17  1  0.32541283  0.65839054  0.32531422  1
  Cr  Cr18  1  0.65914161  0.99112741  -0.00783358  1
  Cr  Cr19  1  0.82384222  0.15639787  0.15878416  1
  Ni  Ni20  1  0.65952371  0.98868722  0.32420491  1
  Cr  Cr21  1  0.65857743  0.32534734  0.99118891  1
  Cr  Cr22  1  0.82617216  0.49485541  0.15914039  1
  Cr  Cr23  1  0.65839053  0.32553486  0.32453036  1
  Cr  Cr24  1  0.65854067  0.65854505  0.99156840  1
  Ni  Ni25  1  0.82500871  0.82335211  0.16029136  1
  Ni  Ni26  1  0.66134562  0.66134843  0.32430698  1
  Cr  Cr27  1  0.15927048  0.15927039  0.49296511  1
  Cr  Cr28  1  -0.00791868  -0.00803702  0.65870061  1
  Cr  Cr29  1  0.15891359  0.15891369  0.82371692  1
  Cr  Cr30  1  0.15810271  0.49155120  0.49179780  1
  Cr  Cr31  1  -0.00742448  0.32452777  0.65810198  1
  Cr  Cr32  1  0.15890762  0.49271182  0.82604742  1
  Cr  Cr33  1  0.15752812  0.82419790  0.49158689  1
  Cr  Cr34  1  0.99148476  0.65852835  0.65810257  1
  Cr  Cr35  1  0.15833993  0.82339266  0.82661750  1
  Cr  Cr36  1  0.49155308  0.15810378  0.49179882  1
  Cr  Cr37  1  0.32440965  -0.00754494  0.65810221  1
  Cr  Cr38  1  0.49145929  0.15890816  0.82407918  1
  Cr  Cr39  1  0.49155014  0.49154673  0.49216111  1
  Ni  Ni40  1  0.32500656  0.32465799  0.65839053  1
  Cr  Cr41  1  0.49029144  0.49154933  0.82488359  1
  Cr  Cr42  1  0.49328740  0.82536866  0.49042342  1
  Cr  Cr43  1  0.32560333  0.65743556  0.65851530  1
  Cr  Cr44  1  0.49086456  0.82456094  0.82545328  1
  Cr  Cr45  1  0.82419650  0.15753034  0.49158909  1
  Cr  Cr46  1  0.65852832  0.99136569  0.65888633  1
  Cr  Cr47  1  0.82464694  0.15833942  0.82464660  1
  Cr  Cr48  1  0.82536643  0.49328551  0.49042202  1
  Cr  Cr49  1  0.65743744  0.32572206  0.65929999  1
  Cr  Cr50  1  0.82582018  0.49212335  0.82545204  1
  Cr  Cr51  1  0.82420507  0.82420568  0.48921485  1
  Cr  Cr52  1  0.65793184  0.65793227  0.65828782  1
  Cr  Cr53  1  0.82581417  0.82455730  0.82550155  1
" 