7574,Ni88Fe5Cr5_4,-237.001203147736, 173.487260708317,Ni88Fe5Cr5,"# generated using pymatgen
 data_Cr5Fe2Ni47
_symmetry_space_group_name_H-M   'P 1'
_cell_length_a   7.45985523
_cell_length_b   7.45985523
_cell_length_c   10.54982844
_cell_angle_alpha   90.00000000
_cell_angle_beta   90.00000000
_cell_angle_gamma   90.00000000
_symmetry_Int_Tables_number   1
_chemical_formula_structural   Cr5Fe2Ni47
_chemical_formula_sum   'Cr5 Fe2 Ni47'
_cell_volume   587.09204610
_cell_formula_units_Z   1
loop_
 _symmetry_equiv_pos_site_id
 _symmetry_equiv_pos_as_xyz
  1  'x, y, z'
loop_
 _atom_site_type_symbol
 _atom_site_label
 _atom_site_symmetry_multiplicity
 _atom_site_fract_x
 _atom_site_fract_y
 _atom_site_fract_z
 _atom_site_occupancy
  Cr  Cr0  1  0.99927028  0.99775869  0.00181285  1
  Ni  Ni1  1  0.16948442  0.16770959  0.16892860  1
  Fe  Fe2  1  1.00040132  1.00035099  0.33403814  1
  Cr  Cr3  1  0.99971468  0.33607844  0.00064519  1
  Ni  Ni4  1  0.16714855  0.50119257  0.16745792  1
  Ni  Ni5  1  0.00065348  0.33430141  0.33401631  1
  Ni  Ni6  1  0.00068047  0.66731768  0.99993292  1
  Ni  Ni7  1  0.16863794  0.83251607  0.16722782  1
  Ni  Ni8  1  0.00051808  0.66649874  0.33340508  1
  Ni  Ni9  1  0.33570076  0.00049335  0.00190453  1
  Ni  Ni10  1  0.50031913  0.16628079  0.16618678  1
  Ni  Ni11  1  0.33430910  0.00065646  0.33381885  1
  Ni  Ni12  1  0.33648167  0.33456148  0.00146710  1
  Fe  Fe13  1  0.50056750  0.50056604  0.16724644  1
  Ni  Ni14  1  0.33309731  0.33323548  0.33349053  1
  Ni  Ni15  1  0.33272824  0.66640252  0.00104891  1
  Ni  Ni16  1  0.50045407  0.83469391  0.16702693  1
  Ni  Ni17  1  0.33318037  0.66755400  0.33409653  1
  Ni  Ni18  1  0.66610096  0.00140332  0.00100255  1
  Ni  Ni19  1  0.83163071  0.16776920  0.16854469  1
  Ni  Ni20  1  0.66665852  0.00052053  0.33361123  1
  Ni  Ni21  1  0.66517191  0.33345330  0.99997386  1
  Ni  Ni22  1  0.83382124  0.50131781  0.16764777  1
  Ni  Ni23  1  0.66769378  0.33318525  0.33388981  1
  Ni  Ni24  1  0.66804533  0.66658833  0.00148284  1
  Ni  Ni25  1  0.83236200  0.83232812  0.16743258  1
  Ni  Ni26  1  0.66774603  0.66774281  0.33389252  1
  Ni  Ni27  1  0.16659638  0.16658991  0.49933915  1
  Ni  Ni28  1  0.99942218  0.99940433  0.66606361  1
  Cr  Cr29  1  0.16829087  0.16626512  0.83307527  1
  Ni  Ni30  1  0.16619420  0.50120213  0.49995201  1
  Ni  Ni31  1  0.99788988  0.33454244  0.66637486  1
  Ni  Ni32  1  0.16682265  0.50386604  0.83399552  1
  Ni  Ni33  1  0.16783975  0.83363797  0.50104327  1
  Ni  Ni34  1  0.00053250  0.66750481  0.66810340  1
  Ni  Ni35  1  0.16647608  0.83092663  0.83321652  1
  Ni  Ni36  1  0.50119382  0.16605195  0.50015904  1
  Ni  Ni37  1  0.33364730  0.99878074  0.66570520  1
  Ni  Ni38  1  0.50316441  0.16802156  0.83508001  1
  Ni  Ni39  1  0.50139449  0.50152941  0.49928344  1
  Cr  Cr40  1  0.33495016  0.33492698  0.66623939  1
  Ni  Ni41  1  0.50153473  0.49962561  0.83539837  1
  Ni  Ni42  1  0.50029416  0.83385937  0.50064558  1
  Ni  Ni43  1  0.33253584  0.66822191  0.66633650  1
  Cr  Cr44  1  0.50025217  0.83427082  0.83354783  1
  Ni  Ni45  1  0.83364006  0.16768803  0.50082254  1
  Ni  Ni46  1  0.66836773  0.00142392  0.66681044  1
  Ni  Ni47  1  0.83019414  0.16766790  0.83208623  1
  Ni  Ni48  1  0.83385870  0.50029335  0.50083728  1
  Ni  Ni49  1  0.66908514  0.33342194  0.66762834  1
  Ni  Ni50  1  0.83309218  0.50120514  0.83292267  1
  Ni  Ni51  1  0.83332003  0.83345843  0.50059064  1
  Ni  Ni52  1  0.66836602  0.66660039  0.66609803  1
  Ni  Ni53  1  0.83449847  0.83256816  0.83344747  1
" 