1272,Ni88Fe12_12,-229.069488387583, 160.759035185944,Ni88Fe12,"# generated using pymatgen
 data_Fe47Ni7
_symmetry_space_group_name_H-M   'P 1'
_cell_length_a   7.40570863
_cell_length_b   7.40570863
_cell_length_c   10.47325359
_cell_angle_alpha   90.00000000
_cell_angle_beta   90.00000000
_cell_angle_gamma   90.00000000
_symmetry_Int_Tables_number   1
_chemical_formula_structural   Fe47Ni7
_chemical_formula_sum   'Fe47 Ni7'
_cell_volume   574.40056980
_cell_formula_units_Z   1
loop_
 _symmetry_equiv_pos_site_id
 _symmetry_equiv_pos_as_xyz
  1  'x, y, z'
loop_
 _atom_site_type_symbol
 _atom_site_label
 _atom_site_symmetry_multiplicity
 _atom_site_fract_x
 _atom_site_fract_y
 _atom_site_fract_z
 _atom_site_occupancy
  Fe  Fe0  1  0.00431111  0.00440464  0.00431726  1
  Ni  Ni1  1  0.17111559  0.17203092  0.17071644  1
  Fe  Fe2  1  0.00436722  0.00445914  0.33781752  1
  Fe  Fe3  1  0.00456924  0.33747258  0.00456875  1
  Ni  Ni4  1  0.17111274  0.50363431  0.17073500  1
  Fe  Fe5  1  0.00501106  0.33774266  0.33713164  1
  Fe  Fe6  1  0.00431541  0.67055186  0.00487909  1
  Fe  Fe7  1  0.17054754  0.83722385  0.17089597  1
  Ni  Ni8  1  1.00359659  0.67135428  0.33747518  1
  Fe  Fe9  1  0.33755678  0.00457668  1.00397118  1
  Fe  Fe10  1  0.50272714  0.17162817  0.17041376  1
  Fe  Fe11  1  0.33673235  0.00434343  0.33712690  1
  Fe  Fe12  1  0.33722439  0.33721677  0.00496098  1
  Fe  Fe13  1  0.50280884  0.50331468  0.17107098  1
  Ni  Ni14  1  0.33780699  0.33682897  0.33736694  1
  Fe  Fe15  1  0.33730021  0.67063259  0.00422754  1
  Fe  Fe16  1  0.50300530  0.83747648  0.17063735  1
  Fe  Fe17  1  0.33677050  0.66993445  0.33722222  1
  Fe  Fe18  1  0.67055633  0.00431773  1.00380687  1
  Fe  Fe19  1  0.83855504  0.17137535  0.17120939  1
  Fe  Fe20  1  0.67131983  1.00405779  0.33806703  1
  Fe  Fe21  1  0.67063740  0.33721150  1.00362508  1
  Fe  Fe22  1  0.83881731  0.50391668  0.17080867  1
  Fe  Fe23  1  0.67104270  0.33777829  0.33782082  1
  Fe  Fe24  1  0.67080881  0.67089516  1.00406561  1
  Fe  Fe25  1  0.83886359  0.83714066  0.17155394  1
  Fe  Fe26  1  0.67092423  0.67058599  0.33772848  1
  Fe  Fe27  1  0.16998699  0.17041643  0.50339623  1
  Fe  Fe28  1  1.00363014  0.00414662  0.67029253  1
  Fe  Fe29  1  0.17141245  0.17072586  0.83804636  1
  Fe  Fe30  1  0.16967435  0.50422120  0.50312957  1
  Fe  Fe31  1  1.00388876  0.33721313  0.67071849  1
  Fe  Fe32  1  0.17137281  0.50365719  0.83796005  1
  Fe  Fe33  1  0.16938018  0.83778303  0.50414061  1
  Fe  Fe34  1  1.00397068  0.67106083  0.67006954  1
  Fe  Fe35  1  0.17145268  0.83804112  0.83738766  1
  Fe  Fe36  1  0.50504446  0.17049854  0.50453490  1
  Fe  Fe37  1  0.33773000  0.00431986  0.67132423  1
  Ni  Ni38  1  0.50413923  0.17081013  0.83747456  1
  Fe  Fe39  1  0.50510031  0.50387865  0.50396597  1
  Fe  Fe40  1  0.33772556  0.33729921  0.67056988  1
  Fe  Fe41  1  0.50422369  0.50361661  0.83738723  1
  Fe  Fe42  1  0.50529801  0.83804084  0.50422457  1
  Fe  Fe43  1  0.33747167  0.67080315  0.67097067  1
  Fe  Fe44  1  0.50405633  0.83799462  0.83756206  1
  Ni  Ni45  1  0.83727637  0.16979828  0.50424041  1
  Fe  Fe46  1  0.67106028  0.00440096  0.67055421  1
  Fe  Fe47  1  0.83687504  0.17089287  0.83690361  1
  Fe  Fe48  1  0.83765079  0.50447897  0.50405345  1
  Fe  Fe49  1  0.67081039  0.33695465  0.67097801  1
  Fe  Fe50  1  0.83682802  0.50357688  0.83756184  1
  Ni  Ni51  1  0.83727381  0.83787673  0.50434032  1
  Fe  Fe52  1  0.67098008  0.67106576  0.67063466  1
  Fe  Fe53  1  0.83691453  0.83795411  0.83698964  1
" 