5289,Ni88Fe7Cr4_15,-239.130650504476, 184.770848835871,Ni88Fe7Cr4,"# generated using pymatgen
 data_Cr3Fe4Ni47
_symmetry_space_group_name_H-M   'P 1'
_cell_length_a   7.44847299
_cell_length_b   7.44847299
_cell_length_c   10.53373152
_cell_angle_alpha   90.00000000
_cell_angle_beta   90.00000000
_cell_angle_gamma   90.00000000
_symmetry_Int_Tables_number   1
_chemical_formula_structural   Cr3Fe4Ni47
_chemical_formula_sum   'Cr3 Fe4 Ni47'
_cell_volume   584.40879054
_cell_formula_units_Z   1
loop_
 _symmetry_equiv_pos_site_id
 _symmetry_equiv_pos_as_xyz
  1  'x, y, z'
loop_
 _atom_site_type_symbol
 _atom_site_label
 _atom_site_symmetry_multiplicity
 _atom_site_fract_x
 _atom_site_fract_y
 _atom_site_fract_z
 _atom_site_occupancy
  Ni  Ni0  1  0.00282623  0.00265348  0.00223559  1
  Ni  Ni1  1  0.16812802  0.16813009  0.16847505  1
  Ni  Ni2  1  0.00133432  0.00219118  0.33456760  1
  Ni  Ni3  1  0.00135047  0.33412562  1.00053449  1
  Ni  Ni4  1  0.16814880  0.50089875  0.16722763  1
  Ni  Ni5  1  1.00073451  0.33205951  0.33381161  1
  Ni  Ni6  1  0.00230703  0.66703766  0.00271723  1
  Ni  Ni7  1  0.16804629  0.83472078  0.16841760  1
  Fe  Fe8  1  0.00200563  0.66900130  0.33320877  1
  Ni  Ni9  1  0.33400839  1.00120934  1.00064356  1
  Ni  Ni10  1  0.50111423  0.16821626  0.16845020  1
  Ni  Ni11  1  0.33403622  1.00081503  0.33581264  1
  Ni  Ni12  1  0.33428930  0.33432504  0.00154793  1
  Ni  Ni13  1  0.50036303  0.49998203  0.16728357  1
  Ni  Ni14  1  0.33476388  0.33399071  0.33337314  1
  Ni  Ni15  1  0.33478609  0.66816884  1.00121749  1
  Ni  Ni16  1  0.50029719  0.83554339  0.16650352  1
  Ni  Ni17  1  0.33466143  0.66891428  0.33341105  1
  Ni  Ni18  1  0.66679613  0.00225734  0.00259887  1
  Ni  Ni19  1  0.83455705  0.16811604  0.16724239  1
  Ni  Ni20  1  0.66844389  0.00213244  0.33435808  1
  Ni  Ni21  1  0.66812549  0.33484101  0.00137847  1
  Ni  Ni22  1  0.83536297  0.50003347  0.16774907  1
  Ni  Ni23  1  0.66830495  0.33322437  0.33507159  1
  Ni  Ni24  1  0.66672057  0.66673344  0.00182777  1
  Ni  Ni25  1  0.83552449  0.83555093  0.16654345  1
  Cr  Cr26  1  0.66661102  0.66839900  0.33494227  1
  Ni  Ni27  1  0.16759225  0.16707519  0.50131379  1
  Ni  Ni28  1  0.00177040  0.00230028  0.66718795  1
  Ni  Ni29  1  0.16794197  0.16764584  0.83412354  1
  Cr  Cr30  1  0.16911823  0.50048775  0.50055229  1
  Ni  Ni31  1  1.00101791  0.33267327  0.66907623  1
  Fe  Fe32  1  0.16811131  0.50115850  0.83487771  1
  Ni  Ni33  1  0.16744164  0.83542055  0.50125329  1
  Ni  Ni34  1  0.00168893  0.66856493  0.66700807  1
  Ni  Ni35  1  0.16872903  0.83474702  0.83405213  1
  Ni  Ni36  1  0.50160325  0.16873152  0.50095790  1
  Fe  Fe37  1  0.33465839  0.00187619  0.66792972  1
  Ni  Ni38  1  0.50128171  0.16888764  0.83450935  1
  Ni  Ni39  1  0.50100514  0.50013582  0.50190079  1
  Ni  Ni40  1  0.33512013  0.33450763  0.66867550  1
  Ni  Ni41  1  0.50172818  0.50083857  0.83459127  1
  Ni  Ni42  1  0.50074594  0.83505058  0.50288992  1
  Ni  Ni43  1  0.33548220  0.66832126  0.66884048  1
  Ni  Ni44  1  0.49960926  0.83418742  0.83441234  1
  Ni  Ni45  1  0.83457260  0.16712393  0.50157817  1
  Ni  Ni46  1  0.66804450  0.00192237  0.66704109  1
  Ni  Ni47  1  0.83456021  0.16972644  0.83493205  1
  Fe  Fe48  1  0.83398492  0.49969822  0.50264674  1
  Ni  Ni49  1  0.66749557  0.33412149  0.66732774  1
  Ni  Ni50  1  0.83402291  0.50007339  0.83335602  1
  Ni  Ni51  1  0.83551349  0.83628068  0.50208767  1
  Ni  Ni52  1  0.66641485  0.66757247  0.66702683  1
  Cr  Cr53  1  0.83442868  0.83493094  0.83603200  1
" 