180,Ni88Fe12_13,-229.192341633944, 161.436246160278,Ni88Fe12,"# generated using pymatgen
 data_Fe47Ni7
_symmetry_space_group_name_H-M   'P 1'
_cell_length_a   7.40420827
_cell_length_b   7.40420827
_cell_length_c   10.47113175
_cell_angle_alpha   90.00000000
_cell_angle_beta   90.00000000
_cell_angle_gamma   90.00000000
_symmetry_Int_Tables_number   1
_chemical_formula_structural   Fe47Ni7
_chemical_formula_sum   'Fe47 Ni7'
_cell_volume   574.05152751
_cell_formula_units_Z   1
loop_
 _symmetry_equiv_pos_site_id
 _symmetry_equiv_pos_as_xyz
  1  'x, y, z'
loop_
 _atom_site_type_symbol
 _atom_site_label
 _atom_site_symmetry_multiplicity
 _atom_site_fract_x
 _atom_site_fract_y
 _atom_site_fract_z
 _atom_site_occupancy
  Fe  Fe0  1  0.00427421  1.00372824  0.00467188  1
  Fe  Fe1  1  0.17131519  0.17004213  0.17109110  1
  Ni  Ni2  1  0.00467212  0.00445325  0.33768308  1
  Fe  Fe3  1  1.00396413  0.33785607  0.00440326  1
  Fe  Fe4  1  0.17104054  0.50475311  0.17164993  1
  Ni  Ni5  1  1.00424070  0.33757977  0.33820757  1
  Fe  Fe6  1  1.00401870  0.67114263  0.00430031  1
  Fe  Fe7  1  0.17126717  0.83794323  0.17118104  1
  Ni  Ni8  1  1.00381613  0.67069720  0.33768331  1
  Ni  Ni9  1  0.33764208  0.00470392  1.00382277  1
  Fe  Fe10  1  0.50387796  0.17008903  0.17054952  1
  Fe  Fe11  1  0.33610552  1.00397017  0.33669757  1
  Fe  Fe12  1  0.33817548  0.33755188  1.00415615  1
  Fe  Fe13  1  0.50452269  0.50507513  0.17064147  1
  Fe  Fe14  1  0.33573828  0.33766571  0.33775597  1
  Fe  Fe15  1  0.33849658  0.67184313  0.00452678  1
  Ni  Ni16  1  0.50392367  0.83789545  0.17120204  1
  Fe  Fe17  1  0.33600685  0.67109887  0.33748277  1
  Fe  Fe18  1  0.66990040  1.00340049  0.00452678  1
  Fe  Fe19  1  0.83753468  0.17031242  0.17164970  1
  Fe  Fe20  1  0.67247794  1.00405689  0.33748275  1
  Fe  Fe21  1  0.67059337  0.33779484  1.00378482  1
  Fe  Fe22  1  0.83717293  0.50511318  0.17048790  1
  Fe  Fe23  1  0.67275417  0.33749160  0.33775593  1
  Ni  Ni24  1  0.67096057  0.67033404  1.00371411  1
  Fe  Fe25  1  0.83720909  0.83729628  0.17127244  1
  Fe  Fe26  1  0.67238278  0.67118217  0.33669291  1
  Fe  Fe27  1  0.17045419  0.17090391  0.50378582  1
  Fe  Fe28  1  1.00424127  1.00424286  0.67030390  1
  Fe  Fe29  1  0.17057197  0.17124025  0.83785926  1
  Fe  Fe30  1  0.17053544  0.50424821  0.50369121  1
  Fe  Fe31  1  1.00396795  0.33785224  0.67075912  1
  Fe  Fe32  1  0.17026861  0.50415724  0.83739758  1
  Fe  Fe33  1  0.17035642  0.83757841  0.50387150  1
  Fe  Fe34  1  1.00405668  0.67063268  0.67067039  1
  Fe  Fe35  1  0.17048805  0.83734001  0.83767389  1
  Fe  Fe36  1  0.50423922  0.17099678  0.50450603  1
  Fe  Fe37  1  0.33766823  1.00423615  0.67161798  1
  Fe  Fe38  1  0.50448328  0.17132668  0.83767069  1
  Fe  Fe39  1  0.50416140  0.50415945  0.50441403  1
  Fe  Fe40  1  0.33766136  0.33757938  0.67081847  1
  Fe  Fe41  1  0.50516148  0.50442872  0.83766926  1
  Fe  Fe42  1  0.50424584  0.83757450  0.50380549  1
  Fe  Fe43  1  0.33757681  0.67091534  0.67072644  1
  Fe  Fe44  1  0.50484378  0.83697656  0.83873896  1
  Fe  Fe45  1  0.83804019  0.17081692  0.50369145  1
  Fe  Fe46  1  0.67082122  0.00432720  0.67072645  1
  Fe  Fe47  1  0.83767155  0.17154311  0.83739758  1
  Fe  Fe48  1  0.83803314  0.50425214  0.50439130  1
  Fe  Fe49  1  0.67110277  0.33776228  0.67118470  1
  Ni  Ni50  1  0.83779215  0.50403069  0.83736724  1
  Fe  Fe51  1  0.83812769  0.83766114  0.50378004  1
  Fe  Fe52  1  0.67109674  0.67063944  0.67188320  1
  Fe  Fe53  1  0.83739701  0.83665530  0.83767254  1
" 