5471,Ni88Cr12_11,-204.262017142656, 176.749790438371,Ni88Cr12,"# generated using pymatgen
 data_Cr47Ni7
_symmetry_space_group_name_H-M   'P 1'
_cell_length_a   7.59166122
_cell_length_b   7.59166122
_cell_length_c   10.73623026
_cell_angle_alpha   90.00000000
_cell_angle_beta   90.00000000
_cell_angle_gamma   90.00000000
_symmetry_Int_Tables_number   1
_chemical_formula_structural   Cr47Ni7
_chemical_formula_sum   'Cr47 Ni7'
_cell_volume   618.76459479
_cell_formula_units_Z   1
loop_
 _symmetry_equiv_pos_site_id
 _symmetry_equiv_pos_as_xyz
  1  'x, y, z'
loop_
 _atom_site_type_symbol
 _atom_site_label
 _atom_site_symmetry_multiplicity
 _atom_site_fract_x
 _atom_site_fract_y
 _atom_site_fract_z
 _atom_site_occupancy
  Cr  Cr0  1  -0.00664779  0.99145108  0.99168027  1
  Ni  Ni1  1  0.15767436  0.15923552  0.15972751  1
  Cr  Cr2  1  -0.00742521  -0.00633233  0.32480453  1
  Cr  Cr3  1  -0.00720028  0.32613626  0.99152416  1
  Cr  Cr4  1  0.15801945  0.48957802  0.15988143  1
  Ni  Ni5  1  -0.00728601  0.32415383  0.32400489  1
  Cr  Cr6  1  0.99165732  0.65779098  0.98888413  1
  Cr  Cr7  1  0.15857073  0.82633213  0.15818210  1
  Cr  Cr8  1  0.99088066  0.65712881  0.32535460  1
  Cr  Cr9  1  0.32390904  -0.00740685  -0.00752008  1
  Cr  Cr10  1  0.49047275  0.15834971  0.15742729  1
  Cr  Cr11  1  0.32453386  -0.00680765  0.32423030  1
  Cr  Cr12  1  0.32390502  0.32444325  -0.00717039  1
  Cr  Cr13  1  0.49151399  0.49231695  0.15857557  1
  Cr  Cr14  1  0.32290854  0.32399692  0.32365456  1
  Cr  Cr15  1  0.32390832  0.65833915  0.99018880  1
  Cr  Cr16  1  0.49207969  0.82471208  0.15834668  1
  Cr  Cr17  1  0.32564917  0.65818694  0.32574740  1
  Cr  Cr18  1  0.65811714  0.99145208  -0.00752004  1
  Cr  Cr19  1  0.82746401  0.15889880  0.15912397  1
  Cr  Cr20  1  0.65827093  0.99093276  0.32535486  1
  Cr  Cr21  1  0.65867204  0.32613899  0.99038771  1
  Cr  Cr22  1  0.82584230  0.49118822  0.15930602  1
  Cr  Cr23  1  0.65932444  0.32569255  0.32574747  1
  Cr  Cr24  1  0.65981381  0.65778922  -0.00737930  1
  Cr  Cr25  1  0.82472674  0.82529193  0.15857550  1
  Cr  Cr26  1  0.65884992  0.65875257  0.32443444  1
  Cr  Cr27  1  0.15710323  0.15913119  0.48981379  1
  Cr  Cr28  1  -0.00742655  0.99066787  0.65889641  1
  Cr  Cr29  1  0.15807007  0.15816104  0.82586164  1
  Cr  Cr30  1  0.15879841  0.49213278  0.49115148  1
  Cr  Cr31  1  0.99040398  0.32673198  0.65962062  1
  Ni  Ni32  1  0.15739956  0.49488887  0.82425401  1
  Cr  Cr33  1  0.15935215  0.82411213  0.49319850  1
  Cr  Cr34  1  -0.00638809  0.65797987  0.66113426  1
  Ni  Ni35  1  0.15916361  0.82200281  0.82410458  1
  Cr  Cr36  1  0.49302764  0.15913080  0.49360665  1
  Cr  Cr37  1  0.32450293  0.99019488  0.65866771  1
  Cr  Cr38  1  0.49320986  0.15928249  0.82434372  1
  Cr  Cr39  1  0.49133155  0.49213395  0.49300863  1
  Cr  Cr40  1  0.32612327  0.32665867  0.65889436  1
  Cr  Cr41  1  0.49151968  0.49161241  0.82380077  1
  Cr  Cr42  1  0.49078118  0.82411411  0.49211191  1
  Ni  Ni43  1  0.32365287  0.65852776  0.66015309  1
  Cr  Cr44  1  0.48935077  0.82448322  0.82492256  1
  Cr  Cr45  1  0.82524553  0.15967967  0.49225474  1
  Cr  Cr46  1  0.65830041  -0.00658952  0.65754342  1
  Cr  Cr47  1  0.82409844  0.16033652  0.82399875  1
  Cr  Cr48  1  0.82524820  0.48988977  0.49115198  1
  Ni  Ni49  1  0.65901653  0.32603316  0.65933443  1
  Ni  Ni50  1  0.82625837  0.49103988  0.82430323  1
  Cr  Cr51  1  0.82524672  0.82581062  0.49075939  1
  Cr  Cr52  1  0.65837967  0.65635752  0.65831959  1
  Cr  Cr53  1  0.82683254  0.82456111  0.82604292  1
" 