328,Ni88Fe12_10,-229.146449844942, 160.141788697111,Ni88Fe12,"# generated using pymatgen
 data_Fe47Ni7
_symmetry_space_group_name_H-M   'P 1'
_cell_length_a   7.40649827
_cell_length_b   7.40649827
_cell_length_c   10.47437030
_cell_angle_alpha   90.00000000
_cell_angle_beta   90.00000000
_cell_angle_gamma   90.00000000
_symmetry_Int_Tables_number   1
_chemical_formula_structural   Fe47Ni7
_chemical_formula_sum   'Fe47 Ni7'
_cell_volume   574.58432631
_cell_formula_units_Z   1
loop_
 _symmetry_equiv_pos_site_id
 _symmetry_equiv_pos_as_xyz
  1  'x, y, z'
loop_
 _atom_site_type_symbol
 _atom_site_label
 _atom_site_symmetry_multiplicity
 _atom_site_fract_x
 _atom_site_fract_y
 _atom_site_fract_z
 _atom_site_occupancy
  Fe  Fe0  1  0.00503493  1.00331512  0.00424659  1
  Fe  Fe1  1  0.16997170  0.17124610  0.17093913  1
  Ni  Ni2  1  1.00367498  1.00356862  0.33785545  1
  Fe  Fe3  1  0.00431292  0.33827836  0.00426860  1
  Fe  Fe4  1  0.17029249  0.50445454  0.17067062  1
  Fe  Fe5  1  1.00346573  0.33743241  0.33732668  1
  Fe  Fe6  1  0.00462818  0.67066673  0.00460624  1
  Fe  Fe7  1  0.16989379  0.83656154  0.17101788  1
  Ni  Ni8  1  0.00408900  0.67158688  0.33741778  1
  Fe  Fe9  1  0.33723627  1.00327031  1.00375440  1
  Fe  Fe10  1  0.50467405  0.17142843  0.17067823  1
  Fe  Fe11  1  0.33602113  1.00322761  0.33766838  1
  Fe  Fe12  1  0.33750437  0.33786155  0.00409132  1
  Fe  Fe13  1  0.50433969  0.50427261  0.17041367  1
  Fe  Fe14  1  0.33632156  0.33733395  0.33742079  1
  Ni  Ni15  1  0.33751825  0.67044156  1.00389145  1
  Fe  Fe16  1  0.50458528  0.83655770  0.17030703  1
  Fe  Fe17  1  0.33603514  0.67169728  0.33717793  1
  Fe  Fe18  1  0.66999722  1.00358769  1.00400038  1
  Fe  Fe19  1  0.83761045  0.17099963  0.17151964  1
  Fe  Fe20  1  0.67204530  1.00384983  0.33768547  1
  Fe  Fe21  1  0.67044035  0.33827504  0.00434255  1
  Ni  Ni22  1  0.83701772  0.50357517  0.17096902  1
  Fe  Fe23  1  0.67245545  0.33743448  0.33742324  1
  Fe  Fe24  1  0.67041067  0.67039370  0.00436102  1
  Fe  Fe25  1  0.83778425  0.83687768  0.17128839  1
  Fe  Fe26  1  0.67214487  0.67098653  0.33706303  1
  Fe  Fe27  1  0.17000758  0.17002574  0.50381389  1
  Fe  Fe28  1  0.00437639  1.00388900  0.66996155  1
  Fe  Fe29  1  0.17074600  0.17030129  0.83751150  1
  Fe  Fe30  1  0.17006714  0.50421462  0.50390455  1
  Fe  Fe31  1  1.00363338  0.33715549  0.67066009  1
  Fe  Fe32  1  0.17110384  0.50481151  0.83768797  1
  Ni  Ni33  1  0.17141983  0.83716158  0.50362061  1
  Fe  Fe34  1  0.00464558  0.67122533  0.67024871  1
  Ni  Ni35  1  0.17147593  0.83730680  0.83809702  1
  Fe  Fe36  1  0.50401260  0.17024606  0.50416282  1
  Fe  Fe37  1  0.33695144  1.00353164  0.67084465  1
  Fe  Fe38  1  0.50349421  0.17016311  0.83742091  1
  Fe  Fe39  1  0.50398970  0.50401082  0.50425382  1
  Fe  Fe40  1  0.33758858  0.33741760  0.67075034  1
  Fe  Fe41  1  0.50314081  0.50494451  0.83759454  1
  Fe  Fe42  1  0.50424802  0.83800568  0.50417489  1
  Fe  Fe43  1  0.33695648  0.67130842  0.67143282  1
  Fe  Fe44  1  0.50338321  0.83714792  0.83778168  1
  Ni  Ni45  1  0.83675899  0.17163560  0.50345701  1
  Fe  Fe46  1  0.67094356  0.00453425  0.67056676  1
  Fe  Fe47  1  0.83802316  0.17006238  0.83674258  1
  Fe  Fe48  1  0.83820220  0.50443889  0.50330932  1
  Fe  Fe49  1  0.67103004  0.33716530  0.67048820  1
  Fe  Fe50  1  0.83802261  0.50469129  0.83802022  1
  Fe  Fe51  1  0.83842831  0.83806839  0.50355598  1
  Fe  Fe52  1  0.67067858  0.67057640  0.67084160  1
  Fe  Fe53  1  0.83789553  0.83750876  0.83742050  1
" 