5162,Ni88Fe5Cr5_8,-237.023960346509, 173.989467313589,Ni88Fe5Cr5,"# generated using pymatgen
 data_Cr5Fe2Ni47
_symmetry_space_group_name_H-M   'P 1'
_cell_length_a   7.45861868
_cell_length_b   7.45861868
_cell_length_c   10.54807970
_cell_angle_alpha   90.00000000
_cell_angle_beta   90.00000000
_cell_angle_gamma   90.00000000
_symmetry_Int_Tables_number   1
_chemical_formula_structural   Cr5Fe2Ni47
_chemical_formula_sum   'Cr5 Fe2 Ni47'
_cell_volume   586.80014439
_cell_formula_units_Z   1
loop_
 _symmetry_equiv_pos_site_id
 _symmetry_equiv_pos_as_xyz
  1  'x, y, z'
loop_
 _atom_site_type_symbol
 _atom_site_label
 _atom_site_symmetry_multiplicity
 _atom_site_fract_x
 _atom_site_fract_y
 _atom_site_fract_z
 _atom_site_occupancy
  Ni  Ni0  1  0.00148516  0.00092984  0.99918876  1
  Ni  Ni1  1  0.16869651  0.16620091  0.16837768  1
  Ni  Ni2  1  0.00135161  0.00158496  0.33488170  1
  Cr  Cr3  1  0.00109491  0.33259411  0.00207284  1
  Ni  Ni4  1  0.16890980  0.50150613  0.16823550  1
  Ni  Ni5  1  1.00037596  0.33399668  0.33400239  1
  Fe  Fe6  1  0.00216585  0.66813001  0.00074316  1
  Ni  Ni7  1  0.16859030  0.83416484  0.16709428  1
  Ni  Ni8  1  0.00135571  0.66614747  0.33395939  1
  Ni  Ni9  1  0.33390562  0.99961125  0.00102010  1
  Ni  Ni10  1  0.50022812  0.16750572  0.16681573  1
  Ni  Ni11  1  0.33394127  1.00000711  0.33324434  1
  Ni  Ni12  1  0.33470256  0.33446662  1.00000863  1
  Ni  Ni13  1  0.50028968  0.50011978  0.16690694  1
  Ni  Ni14  1  0.33368409  0.33426740  0.33378542  1
  Ni  Ni15  1  0.33511151  0.66768619  1.00041641  1
  Ni  Ni16  1  0.49919899  0.83406343  0.16799948  1
  Ni  Ni17  1  0.33426096  0.66738454  0.33399332  1
  Ni  Ni18  1  0.66635966  1.00052420  0.99945312  1
  Ni  Ni19  1  0.83269891  0.16728520  0.16822840  1
  Ni  Ni20  1  0.66634016  0.00095615  0.33464700  1
  Ni  Ni21  1  0.66566130  0.33362069  0.00142473  1
  Ni  Ni22  1  0.83249819  0.50028455  0.16870100  1
  Ni  Ni23  1  0.66762447  0.33421721  0.33336223  1
  Ni  Ni24  1  0.66418591  0.66751426  0.00063224  1
  Cr  Cr25  1  0.83420671  0.83427545  0.16677097  1
  Ni  Ni26  1  0.66610333  0.66646905  0.33469091  1
  Ni  Ni27  1  0.16821873  0.16672989  0.49888286  1
  Ni  Ni28  1  0.99928671  0.99908053  0.66753033  1
  Ni  Ni29  1  0.16882581  0.16614109  0.83434835  1
  Ni  Ni30  1  0.16878146  0.50200182  0.50010143  1
  Cr  Cr31  1  0.00161795  0.33239012  0.66569419  1
  Ni  Ni32  1  0.17102427  0.50256542  0.83341320  1
  Ni  Ni33  1  0.16522863  0.83298041  0.49963921  1
  Ni  Ni34  1  0.00141953  0.66932011  0.66727113  1
  Ni  Ni35  1  0.16640712  0.83317315  0.83490705  1
  Ni  Ni36  1  0.50120479  0.16921903  0.49985075  1
  Cr  Cr37  1  0.33395410  1.00000765  0.66717711  1
  Ni  Ni38  1  0.50118126  0.16827204  0.83490711  1
  Ni  Ni39  1  0.50033368  0.49936967  0.50107562  1
  Ni  Ni40  1  0.33523567  0.33545940  0.66789500  1
  Ni  Ni41  1  0.49896860  0.50024964  0.83369439  1
  Fe  Fe42  1  0.50103730  0.83338115  0.49964541  1
  Ni  Ni43  1  0.33421964  0.66618119  0.66734440  1
  Ni  Ni44  1  0.50137041  0.83314529  0.83413018  1
  Ni  Ni45  1  0.83228983  0.16570968  0.49984711  1
  Ni  Ni46  1  0.66866183  1.00011039  0.66767292  1
  Ni  Ni47  1  0.83169215  0.16380975  0.83361576  1
  Ni  Ni48  1  0.83265057  0.50208053  0.49931589  1
  Ni  Ni49  1  0.66543294  0.33326060  0.66690198  1
  Cr  Cr50  1  0.83143797  0.50271698  0.83375123  1
  Ni  Ni51  1  0.83489545  0.83384532  0.50127757  1
  Ni  Ni52  1  0.66610308  0.66829015  0.66637484  1
  Ni  Ni53  1  0.83400578  0.83550774  0.83359082  1
" 