1522,Ni89Cr11_19,-203.547005553534, 182.118593543822,Ni89Cr11,"# generated using pymatgen
 data_Cr8Ni
_symmetry_space_group_name_H-M   'P 1'
_cell_length_a   7.59353245
_cell_length_b   7.59353245
_cell_length_c   10.73887658
_cell_angle_alpha   90.00000000
_cell_angle_beta   90.00000000
_cell_angle_gamma   90.00000000
_symmetry_Int_Tables_number   1
_chemical_formula_structural   Cr8Ni
_chemical_formula_sum   'Cr48 Ni6'
_cell_volume   619.22225620
_cell_formula_units_Z   6
loop_
 _symmetry_equiv_pos_site_id
 _symmetry_equiv_pos_as_xyz
  1  'x, y, z'
loop_
 _atom_site_type_symbol
 _atom_site_label
 _atom_site_symmetry_multiplicity
 _atom_site_fract_x
 _atom_site_fract_y
 _atom_site_fract_z
 _atom_site_occupancy
  Cr  Cr0  1  -0.00804972  0.99090783  0.99090796  1
  Cr  Cr1  1  0.15846053  0.15610664  0.15814723  1
  Ni  Ni2  1  0.99162241  -0.00660170  0.32708552  1
  Cr  Cr3  1  0.99093436  0.32531343  0.99167100  1
  Cr  Cr4  1  0.15785686  0.49239194  0.15833793  1
  Cr  Cr5  1  -0.00772270  0.32199488  0.32675329  1
  Cr  Cr6  1  0.99085472  0.65879393  0.99049119  1
  Cr  Cr7  1  0.15846158  0.82651534  0.15857335  1
  Cr  Cr8  1  0.99167066  0.65948158  0.32379995  1
  Ni  Ni9  1  0.32533657  -0.00799865  0.99167133  1
  Cr  Cr10  1  0.49191352  0.15845930  0.15537286  1
  Cr  Cr11  1  0.32328954  -0.00762858  0.32516382  1
  Cr  Cr12  1  0.32590851  0.32362144  -0.00809017  1
  Cr  Cr13  1  0.49309073  0.49061167  0.15812591  1
  Cr  Cr14  1  0.32377707  0.32486179  0.32618161  1
  Cr  Cr15  1  0.32482004  0.65931505  -0.00772568  1
  Cr  Cr16  1  0.49013230  0.82594390  0.15836437  1
  Cr  Cr17  1  0.32555566  0.65778271  0.32476664  1
  Cr  Cr18  1  0.65764679  -0.00800144  0.99049390  1
  Cr  Cr19  1  0.82464123  0.15906295  0.15874967  1
  Cr  Cr20  1  0.66066203  -0.00823487  0.32618325  1
  Ni  Ni21  1  0.65790454  0.32492677  -0.00827737  1
  Cr  Cr22  1  0.82406603  0.49061069  0.15739492  1
  Cr  Cr23  1  0.65895999  0.32425907  0.32516503  1
  Cr  Cr24  1  0.65933840  0.65830019  0.99109717  1
  Cr  Cr25  1  0.82642160  0.82534069  0.15970373  1
  Cr  Cr26  1  0.65778790  0.65899184  0.32476665  1
  Ni  Ni27  1  0.15550036  0.15752085  0.49065698  1
  Cr  Cr28  1  0.99025425  -0.00727884  0.65735571  1
  Cr  Cr29  1  0.15946573  0.15710887  0.82577020  1
  Cr  Cr30  1  0.15840195  0.49072571  0.49227397  1
  Cr  Cr31  1  -0.00736488  0.32349432  0.65658699  1
  Cr  Cr32  1  0.15769149  0.49220253  0.82440221  1
  Cr  Cr33  1  0.15783647  0.82701154  0.49049637  1
  Cr  Cr34  1  0.99085200  0.65879895  0.66072617  1
  Cr  Cr35  1  0.15776479  0.82570237  0.82594562  1
  Cr  Cr36  1  0.49191411  0.15845711  0.49227367  1
  Cr  Cr37  1  0.32478745  -0.00727238  0.65817761  1
  Cr  Cr38  1  0.49172130  0.15829128  0.82736538  1
  Cr  Cr39  1  0.49191831  0.49181043  0.49190971  1
  Cr  Cr40  1  0.32358536  0.32467023  0.65692247  1
  Cr  Cr41  1  0.49289857  0.49042359  0.82497681  1
  Cr  Cr42  1  0.49130493  0.82474631  0.49167120  1
  Cr  Cr43  1  0.32536613  0.65761717  0.65797373  1
  Cr  Cr44  1  0.49163866  0.82629912  0.82497777  1
  Ni  Ni45  1  0.82794554  0.15757736  0.49060410  1
  Cr  Cr46  1  0.65997329  0.99094655  0.65834113  1
  Cr  Cr47  1  0.82382796  0.15836781  0.82576903  1
  Cr  Cr48  1  0.82469417  0.49011533  0.49167081  1
  Cr  Cr49  1  0.65879450  0.32406885  0.65757686  1
  Cr  Cr50  1  0.82442470  0.49212249  0.82594531  1
  Cr  Cr51  1  0.82587393  0.82700408  0.49091007  1
  Cr  Cr52  1  0.65879529  0.65999986  0.65915419  1
  Ni  Ni53  1  0.82505571  0.82460338  0.82495409  1
" 