6108,Ni89Fe11_5,-228.329349111512, 155.38754301989,Ni89Fe11,"# generated using pymatgen
 data_Fe8Ni
_symmetry_space_group_name_H-M   'P 1'
_cell_length_a   7.40587222
_cell_length_b   7.40587222
_cell_length_c   10.47348494
_cell_angle_alpha   90.00000000
_cell_angle_beta   90.00000000
_cell_angle_gamma   90.00000000
_symmetry_Int_Tables_number   1
_chemical_formula_structural   Fe8Ni
_chemical_formula_sum   'Fe48 Ni6'
_cell_volume   574.43863593
_cell_formula_units_Z   6
loop_
 _symmetry_equiv_pos_site_id
 _symmetry_equiv_pos_as_xyz
  1  'x, y, z'
loop_
 _atom_site_type_symbol
 _atom_site_label
 _atom_site_symmetry_multiplicity
 _atom_site_fract_x
 _atom_site_fract_y
 _atom_site_fract_z
 _atom_site_occupancy
  Fe  Fe0  1  1.00333044  1.00267240  1.00393949  1
  Fe  Fe1  1  0.17079469  0.17079758  0.17079293  1
  Fe  Fe2  1  0.00430924  1.00412758  0.33727976  1
  Fe  Fe3  1  1.00360839  0.33863676  0.00422103  1
  Fe  Fe4  1  0.17060572  0.50432175  0.17051471  1
  Fe  Fe5  1  1.00384504  0.33774699  0.33774676  1
  Ni  Ni6  1  1.00345405  0.67059128  0.00433864  1
  Fe  Fe7  1  0.17060480  0.83727022  0.17069802  1
  Fe  Fe8  1  1.00393699  0.67051828  0.33722800  1
  Fe  Fe9  1  0.33737446  1.00300170  0.00431324  1
  Fe  Fe10  1  0.50404301  0.17079499  0.17149697  1
  Fe  Fe11  1  0.33765291  0.00440944  0.33765475  1
  Fe  Fe12  1  0.33746641  0.33868134  1.00412568  1
  Fe  Fe13  1  0.50432338  0.50441545  0.17042113  1
  Fe  Fe14  1  0.33774662  0.33709168  0.33765288  1
  Fe  Fe15  1  0.33746466  0.67070774  0.00422107  1
  Fe  Fe16  1  0.50432586  0.83718023  0.17060542  1
  Fe  Fe17  1  0.33737379  0.67088806  0.33746387  1
  Fe  Fe18  1  0.67168626  1.00267754  1.00323573  1
  Fe  Fe19  1  0.83755270  0.17079503  0.17088861  1
  Fe  Fe20  1  0.67042555  0.00450161  0.33835740  1
  Fe  Fe21  1  0.67131584  0.33872757  0.00431316  1
  Fe  Fe22  1  0.83746234  0.50460417  0.17093615  1
  Fe  Fe23  1  0.67079764  0.33746527  0.33803278  1
  Ni  Ni24  1  0.67180290  0.67102414  1.00390604  1
  Fe  Fe25  1  0.83746073  0.83699280  0.16953088  1
  Fe  Fe26  1  0.67108195  0.67042415  0.33704273  1
  Fe  Fe27  1  0.17074545  0.17149729  0.50403940  1
  Fe  Fe28  1  1.00337408  1.00384626  0.67117217  1
  Fe  Fe29  1  0.17018532  0.17027835  0.83755823  1
  Fe  Fe30  1  0.17084500  0.50352154  0.50413468  1
  Fe  Fe31  1  1.00332756  0.33713635  0.67042427  1
  Fe  Fe32  1  0.16999535  0.50493215  0.83774256  1
  Fe  Fe33  1  0.17088598  0.83737162  0.50394718  1
  Fe  Fe34  1  1.00304905  0.67140857  0.67131524  1
  Fe  Fe35  1  0.16995074  0.83717865  0.83774684  1
  Ni  Ni36  1  0.50333623  0.17042158  0.50392079  1
  Fe  Fe37  1  0.33830640  0.00450119  0.67042117  1
  Fe  Fe38  1  0.50493219  0.16990597  0.83648172  1
  Fe  Fe39  1  0.50460888  0.50356500  0.50403926  1
  Fe  Fe40  1  0.33835672  0.33648126  0.67061068  1
  Fe  Fe41  1  0.50484116  0.50502323  0.83792927  1
  Fe  Fe42  1  0.50493323  0.83769594  0.50432000  1
  Fe  Fe43  1  0.33798267  0.67140704  0.67070560  1
  Fe  Fe44  1  0.50526258  0.83746211  0.83746316  1
  Fe  Fe45  1  0.83661092  0.17117416  0.50432030  1
  Ni  Ni46  1  0.67057585  0.00435120  0.67046926  1
  Fe  Fe47  1  0.83727159  0.16985797  0.83718059  1
  Ni  Ni48  1  0.83794116  0.50481634  0.50434166  1
  Fe  Fe49  1  0.67070475  0.33681006  0.67004436  1
  Fe  Fe50  1  0.83755478  0.50525696  0.83750781  1
  Fe  Fe51  1  0.83657181  0.83779250  0.50502349  1
  Fe  Fe52  1  0.67136217  0.67136018  0.67140938  1
  Ni  Ni53  1  0.83767250  0.83691132  0.83780360  1
" 