8313,Ni89Fe9Cr1_8,-239.901569521394, 186.3100645296,Ni89Fe9Cr1,"# generated using pymatgen
 data_Cr(FeNi12)2
_symmetry_space_group_name_H-M   'P 1'
_cell_length_a   7.44872629
_cell_length_b   7.44872629
_cell_length_c   10.53408974
_cell_angle_alpha   90.00000000
_cell_angle_beta   90.00000000
_cell_angle_gamma   90.00000000
_symmetry_Int_Tables_number   1
_chemical_formula_structural   Cr(FeNi12)2
_chemical_formula_sum   'Cr2 Fe4 Ni48'
_cell_volume   584.46841392
_cell_formula_units_Z   2
loop_
 _symmetry_equiv_pos_site_id
 _symmetry_equiv_pos_as_xyz
  1  'x, y, z'
loop_
 _atom_site_type_symbol
 _atom_site_label
 _atom_site_symmetry_multiplicity
 _atom_site_fract_x
 _atom_site_fract_y
 _atom_site_fract_z
 _atom_site_occupancy
  Ni  Ni0  1  0.00151138  0.00211769  0.00158233  1
  Ni  Ni1  1  0.16762741  0.16807501  0.16771211  1
  Ni  Ni2  1  1.00097154  0.00183847  0.33428784  1
  Ni  Ni3  1  1.00081958  0.33458371  1.00107596  1
  Ni  Ni4  1  0.16807877  0.50156550  0.16752515  1
  Ni  Ni5  1  0.00177821  0.33462070  0.33454417  1
  Ni  Ni6  1  0.00318622  0.66698773  0.00138541  1
  Ni  Ni7  1  0.16769136  0.83404772  0.16697343  1
  Ni  Ni8  1  1.00076849  0.66723070  0.33409101  1
  Ni  Ni9  1  0.33499891  1.00104465  0.00129470  1
  Ni  Ni10  1  0.50147229  0.16794680  0.16695151  1
  Ni  Ni11  1  0.33505017  0.00158113  0.33454419  1
  Fe  Fe12  1  0.33335742  0.33341162  0.00207690  1
  Ni  Ni13  1  0.50015095  0.50081951  0.16865214  1
  Ni  Ni14  1  0.33397377  0.33460948  0.33406713  1
  Ni  Ni15  1  0.33232467  0.66907048  0.00240026  1
  Ni  Ni16  1  0.50066197  0.83492123  0.16827742  1
  Ni  Ni17  1  0.33524181  0.66749871  0.33434711  1
  Ni  Ni18  1  0.66718264  0.00340385  1.00101718  1
  Ni  Ni19  1  0.83458746  0.16755989  0.16734443  1
  Ni  Ni20  1  0.66766790  1.00056891  0.33409091  1
  Ni  Ni21  1  0.66926175  0.33190386  0.00258130  1
  Ni  Ni22  1  0.83545991  0.50075495  0.16773882  1
  Fe  Fe23  1  0.66785194  0.33462283  0.33445117  1
  Cr  Cr24  1  0.66830114  0.66865461  0.00224479  1
  Ni  Ni25  1  0.83533489  0.83537135  0.16868326  1
  Ni  Ni26  1  0.66767913  0.66830497  0.33447024  1
  Ni  Ni27  1  0.16772777  0.16817570  0.50150705  1
  Ni  Ni28  1  1.00111420  0.00172183  0.66781844  1
  Ni  Ni29  1  0.16723050  0.16875580  0.83446958  1
  Ni  Ni30  1  0.16818038  0.50122462  0.50144729  1
  Ni  Ni31  1  0.00124427  0.33476312  0.66807063  1
  Ni  Ni32  1  0.16668543  0.50094156  0.83471632  1
  Ni  Ni33  1  0.16771982  0.83428922  0.50193984  1
  Ni  Ni34  1  1.00098288  0.66720376  0.66821245  1
  Fe  Fe35  1  0.16811964  0.83528320  0.83467417  1
  Ni  Ni36  1  0.50113081  0.16804697  0.50202179  1
  Ni  Ni37  1  0.33517914  0.00147014  0.66785106  1
  Ni  Ni38  1  0.50157739  0.16606502  0.83471626  1
  Ni  Ni39  1  0.50087211  0.50154448  0.50138662  1
  Ni  Ni40  1  0.33378772  0.33375795  0.66753809  1
  Cr  Cr41  1  0.49961133  0.50082502  0.83354877  1
  Ni  Ni42  1  0.50145932  0.83409804  0.50170368  1
  Ni  Ni43  1  0.33430381  0.66846540  0.66694093  1
  Ni  Ni44  1  0.50152187  0.83668047  0.83370992  1
  Ni  Ni45  1  0.83483031  0.16758716  0.50156865  1
  Ni  Ni46  1  0.66739960  1.00120460  0.66857909  1
  Ni  Ni47  1  0.83488318  0.16665925  0.83477661  1
  Ni  Ni48  1  0.83463833  0.50155228  0.50224160  1
  Ni  Ni49  1  0.66865823  0.33388391  0.66676292  1
  Fe  Fe50  1  0.83675899  0.49980349  0.83371882  1
  Ni  Ni51  1  0.83450996  0.83454918  0.50125152  1
  Ni  Ni52  1  0.66840535  0.66859705  0.66707503  1
  Ni  Ni53  1  0.83488675  0.83614546  0.83375278  1
" 