105,Ni89Fe8Cr1_17,-240.05029543306, 187.577176893478,Ni89Fe8Cr1,"# generated using pymatgen
 data_Cr(FeNi12)2
_symmetry_space_group_name_H-M   'P 1'
_cell_length_a   7.44873737
_cell_length_b   7.44873737
_cell_length_c   10.53410541
_cell_angle_alpha   90.00000000
_cell_angle_beta   90.00000000
_cell_angle_gamma   90.00000000
_symmetry_Int_Tables_number   1
_chemical_formula_structural   Cr(FeNi12)2
_chemical_formula_sum   'Cr2 Fe4 Ni48'
_cell_volume   584.47102252
_cell_formula_units_Z   2
loop_
 _symmetry_equiv_pos_site_id
 _symmetry_equiv_pos_as_xyz
  1  'x, y, z'
loop_
 _atom_site_type_symbol
 _atom_site_label
 _atom_site_symmetry_multiplicity
 _atom_site_fract_x
 _atom_site_fract_y
 _atom_site_fract_z
 _atom_site_occupancy
  Ni  Ni0  1  1.00089116  0.00137390  1.00076518  1
  Ni  Ni1  1  0.16900642  0.16737091  0.16742297  1
  Ni  Ni2  1  0.00129200  0.00157869  0.33478097  1
  Ni  Ni3  1  1.00073332  0.33467586  0.00166324  1
  Ni  Ni4  1  0.16770728  0.50106723  0.16740137  1
  Ni  Ni5  1  1.00101187  0.33428780  0.33452823  1
  Ni  Ni6  1  1.00103685  0.66760328  0.00157151  1
  Ni  Ni7  1  0.16623544  0.83525559  0.16673142  1
  Ni  Ni8  1  0.99949199  0.66783269  0.33452042  1
  Ni  Ni9  1  0.33455760  1.00121048  0.00165551  1
  Ni  Ni10  1  0.50125410  0.16865552  0.16815365  1
  Ni  Ni11  1  0.33437711  0.00282520  0.33433250  1
  Ni  Ni12  1  0.33439338  0.33461144  1.00094069  1
  Ni  Ni13  1  0.50188467  0.49887599  0.16596156  1
  Ni  Ni14  1  0.33453486  0.33306897  0.33479250  1
  Ni  Ni15  1  0.33445830  0.66796452  1.00079379  1
  Fe  Fe16  1  0.50231574  0.83530982  0.16637315  1
  Cr  Cr17  1  0.33465714  0.66754546  0.33474592  1
  Ni  Ni18  1  0.66811246  0.00140632  1.00105447  1
  Ni  Ni19  1  0.83342912  0.16719576  0.16790810  1
  Ni  Ni20  1  0.66812476  1.00119766  0.33479641  1
  Ni  Ni21  1  0.66848425  0.33453331  0.00127518  1
  Ni  Ni22  1  0.83408492  0.50185685  0.16813726  1
  Ni  Ni23  1  0.66815476  0.33489133  0.33452076  1
  Ni  Ni24  1  0.66837677  0.66789450  0.00125039  1
  Ni  Ni25  1  0.83555094  0.83466425  0.16740104  1
  Ni  Ni26  1  0.66953998  0.66755102  0.33455275  1
  Ni  Ni27  1  0.16794957  0.16845361  0.50078697  1
  Ni  Ni28  1  0.99931889  0.00134850  0.66811594  1
  Fe  Fe29  1  0.16611567  0.16824490  0.83543891  1
  Ni  Ni30  1  0.16761453  0.50104856  0.50191205  1
  Ni  Ni31  1  1.00072969  0.33467638  0.66748729  1
  Ni  Ni32  1  0.16799282  0.50246126  0.83437716  1
  Ni  Ni33  1  0.16508204  0.83420516  0.50147403  1
  Ni  Ni34  1  1.00110434  0.66761724  0.66758772  1
  Ni  Ni35  1  0.16720918  0.83197471  0.83543333  1
  Ni  Ni36  1  0.50227471  0.16979354  0.50008089  1
  Cr  Cr37  1  0.33422805  0.00128578  0.66743844  1
  Ni  Ni38  1  0.50260566  0.16864051  0.83541438  1
  Ni  Ni39  1  0.50195921  0.49890000  0.50330066  1
  Ni  Ni40  1  0.33449772  0.33623250  0.66797743  1
  Fe  Fe41  1  0.50228738  0.50209358  0.83465434  1
  Fe  Fe42  1  0.50334225  0.83434721  0.50185962  1
  Ni  Ni43  1  0.33448720  0.66636486  0.66820300  1
  Ni  Ni44  1  0.50171161  0.83519631  0.83540075  1
  Ni  Ni45  1  0.83344352  0.16729197  0.50143074  1
  Ni  Ni46  1  0.66958587  0.00142142  0.66788245  1
  Ni  Ni47  1  0.83225688  0.16784601  0.83438015  1
  Ni  Ni48  1  0.83410895  0.50184180  0.50091818  1
  Ni  Ni49  1  0.66843659  0.33453916  0.66794023  1
  Ni  Ni50  1  0.83569294  0.50137310  0.83462474  1
  Ni  Ni51  1  0.83554303  0.83457049  0.50188546  1
  Ni  Ni52  1  0.66832970  0.66783411  0.66795064  1
  Ni  Ni53  1  0.83476533  0.83446347  0.83438405  1
" 