5422,Ni89Fe4Cr6_16,-237.853338063565, 176.59387880281,Ni89Fe4Cr6,"# generated using pymatgen
 data_Cr2FeNi24
_symmetry_space_group_name_H-M   'P 1'
_cell_length_a   7.45641792
_cell_length_b   7.45641792
_cell_length_c   10.54496736
_cell_angle_alpha   90.00000000
_cell_angle_beta   90.00000000
_cell_angle_gamma   90.00000000
_symmetry_Int_Tables_number   1
_chemical_formula_structural   Cr2FeNi24
_chemical_formula_sum   'Cr4 Fe2 Ni48'
_cell_volume   586.28086933
_cell_formula_units_Z   2
loop_
 _symmetry_equiv_pos_site_id
 _symmetry_equiv_pos_as_xyz
  1  'x, y, z'
loop_
 _atom_site_type_symbol
 _atom_site_label
 _atom_site_symmetry_multiplicity
 _atom_site_fract_x
 _atom_site_fract_y
 _atom_site_fract_z
 _atom_site_occupancy
  Ni  Ni0  1  0.00099381  1.00049547  0.00118034  1
  Ni  Ni1  1  0.16723825  0.16570150  0.16572743  1
  Cr  Cr2  1  0.00096288  1.00031815  0.33340005  1
  Ni  Ni3  1  1.00001413  0.33285489  1.00001910  1
  Cr  Cr4  1  0.16634488  0.50159949  0.16647216  1
  Ni  Ni5  1  0.99808650  0.33499562  0.33534279  1
  Ni  Ni6  1  0.99982376  0.66878826  1.00055895  1
  Ni  Ni7  1  0.16667984  0.83502524  0.16681478  1
  Ni  Ni8  1  0.99973967  0.66684046  0.33461219  1
  Ni  Ni9  1  0.33251211  0.00202129  1.00042275  1
  Ni  Ni10  1  0.50146439  0.16816485  0.16656324  1
  Ni  Ni11  1  0.33452342  0.99998475  0.33486040  1
  Ni  Ni12  1  0.33520876  0.33304455  1.00017315  1
  Ni  Ni13  1  0.50336950  0.49976697  0.16656481  1
  Cr  Cr14  1  0.33529319  0.33315909  0.33446792  1
  Ni  Ni15  1  0.33387245  0.66707175  0.99922261  1
  Cr  Cr16  1  0.50029833  0.83406101  0.16764753  1
  Ni  Ni17  1  0.33395578  0.66880636  0.33594856  1
  Ni  Ni18  1  0.66863289  0.00183169  0.99995126  1
  Ni  Ni19  1  0.83343624  0.16869294  0.16656569  1
  Ni  Ni20  1  0.66679322  0.00163989  0.33510816  1
  Ni  Ni21  1  0.66691637  0.33421511  0.00156495  1
  Ni  Ni22  1  0.83261811  0.50032599  0.16789981  1
  Ni  Ni23  1  0.66875942  0.33442846  0.33352531  1
  Ni  Ni24  1  0.66844246  0.66609172  1.00004005  1
  Ni  Ni25  1  0.83508165  0.83311891  0.16631724  1
  Ni  Ni26  1  0.66844303  0.66607060  0.33486008  1
  Ni  Ni27  1  0.16753852  0.16743628  0.50195282  1
  Ni  Ni28  1  0.00074853  1.00010378  0.66743291  1
  Ni  Ni29  1  0.16754154  0.16680080  0.83445765  1
  Ni  Ni30  1  0.16645407  0.50171346  0.50173535  1
  Fe  Fe31  1  1.00047719  0.33369508  0.66697101  1
  Fe  Fe32  1  0.16766267  0.50100076  0.83401090  1
  Ni  Ni33  1  0.16873348  0.83298908  0.50075286  1
  Ni  Ni34  1  1.00066310  0.66834138  0.66696787  1
  Ni  Ni35  1  0.16764987  0.83446314  0.83456939  1
  Ni  Ni36  1  0.50127051  0.16630495  0.50119560  1
  Ni  Ni37  1  0.33336491  0.00141405  0.66685613  1
  Ni  Ni38  1  0.50020082  0.16762092  0.83437785  1
  Ni  Ni39  1  0.50133154  0.50182107  0.50100287  1
  Ni  Ni40  1  0.33475985  0.33388454  0.66735342  1
  Ni  Ni41  1  0.50112904  0.50098083  0.83456913  1
  Ni  Ni42  1  0.50018420  0.83401272  0.50052669  1
  Ni  Ni43  1  0.33364048  0.66683946  0.66696801  1
  Ni  Ni44  1  0.50019878  0.83353684  0.83396080  1
  Ni  Ni45  1  0.83332732  0.16858361  0.50130593  1
  Ni  Ni46  1  0.66802502  0.00122379  0.66707958  1
  Ni  Ni47  1  0.83439563  0.16773026  0.83426714  1
  Ni  Ni48  1  0.83435156  0.50062759  0.49978101  1
  Ni  Ni49  1  0.66652251  0.33396996  0.66704729  1
  Ni  Ni50  1  0.83346906  0.50087341  0.83445867  1
  Ni  Ni51  1  0.83322060  0.83292821  0.50144208  1
  Ni  Ni52  1  0.66783487  0.66694433  0.66723859  1
  Ni  Ni53  1  0.83428980  0.83353520  0.83437763  1
" 