8552,Ni89Cr11_15,-203.498611146643, 180.530745351031,Ni89Cr11,"# generated using pymatgen
 data_Cr8Ni
_symmetry_space_group_name_H-M   'P 1'
_cell_length_a   7.59373403
_cell_length_b   7.59373403
_cell_length_c   10.73916166
_cell_angle_alpha   90.00000000
_cell_angle_beta   90.00000000
_cell_angle_gamma   90.00000000
_symmetry_Int_Tables_number   1
_chemical_formula_structural   Cr8Ni
_chemical_formula_sum   'Cr48 Ni6'
_cell_volume   619.27157219
_cell_formula_units_Z   6
loop_
 _symmetry_equiv_pos_site_id
 _symmetry_equiv_pos_as_xyz
  1  'x, y, z'
loop_
 _atom_site_type_symbol
 _atom_site_label
 _atom_site_symmetry_multiplicity
 _atom_site_fract_x
 _atom_site_fract_y
 _atom_site_fract_z
 _atom_site_occupancy
  Cr  Cr0  1  0.99067158  0.99051375  0.99135086  1
  Cr  Cr1  1  0.15751108  0.15805934  0.15839103  1
  Ni  Ni2  1  0.99143277  0.99134842  0.32539834  1
  Cr  Cr3  1  -0.00790278  0.32482381  -0.00797966  1
  Cr  Cr4  1  0.15990825  0.49064493  0.15616442  1
  Cr  Cr5  1  0.99143534  0.32434711  0.32547127  1
  Cr  Cr6  1  0.99017743  0.65963262  0.99012361  1
  Cr  Cr7  1  0.15765765  0.82636260  0.15981523  1
  Cr  Cr8  1  -0.00833809  0.65867414  0.32462514  1
  Cr  Cr9  1  0.32634913  -0.00613017  0.99140986  1
  Cr  Cr10  1  0.49110704  0.15946143  0.15648354  1
  Cr  Cr11  1  0.32419691  -0.00799442  0.32449954  1
  Ni  Ni12  1  0.32661155  0.32334449  0.99026274  1
  Cr  Cr13  1  0.49088779  0.49140347  0.15744991  1
  Cr  Cr14  1  0.32496019  0.32384575  0.32579133  1
  Cr  Cr15  1  0.32427438  0.65948087  -0.00802199  1
  Cr  Cr16  1  0.49164662  0.82424134  0.15916052  1
  Cr  Cr17  1  0.32449421  0.65918189  0.32632545  1
  Cr  Cr18  1  0.65806703  -0.00827074  0.98958635  1
  Cr  Cr19  1  0.82635507  0.15713087  0.16064846  1
  Cr  Cr20  1  0.65806711  -0.00780785  0.32433524  1
  Cr  Cr21  1  0.65761884  0.32272551  0.99135328  1
  Cr  Cr22  1  0.82420424  0.49106962  0.15832224  1
  Cr  Cr23  1  0.65857447  0.32454122  0.32540892  1
  Cr  Cr24  1  0.66047627  0.66035123  0.99140246  1
  Cr  Cr25  1  0.82555476  0.82663708  0.15873019  1
  Cr  Cr26  1  0.65884070  0.65823177  0.32456029  1
  Cr  Cr27  1  0.15529068  0.15582598  0.49136595  1
  Ni  Ni28  1  0.98797661  0.99028844  0.65906701  1
  Cr  Cr29  1  0.15887648  0.15845915  0.82542806  1
  Cr  Cr30  1  0.15864313  0.49170507  0.49255427  1
  Cr  Cr31  1  0.99157649  0.32444246  0.65757996  1
  Cr  Cr32  1  0.15996973  0.49065251  0.82634391  1
  Cr  Cr33  1  0.15625068  0.82741979  0.49149173  1
  Cr  Cr34  1  0.99106220  0.65934172  0.66016698  1
  Cr  Cr35  1  0.15611248  0.82622541  0.82384424  1
  Cr  Cr36  1  0.49357377  0.15699586  0.49315864  1
  Cr  Cr37  1  0.32639379  -0.00733976  0.65898825  1
  Ni  Ni38  1  0.49207942  0.15809163  0.82498346  1
  Cr  Cr39  1  0.49201225  0.49235000  0.49129926  1
  Cr  Cr40  1  0.32548095  0.32333281  0.65893618  1
  Cr  Cr41  1  0.49059603  0.48990941  0.82625780  1
  Cr  Cr42  1  0.49328113  0.82560650  0.49188771  1
  Cr  Cr43  1  0.32426369  0.65899571  0.65673947  1
  Cr  Cr44  1  0.49394597  0.82628664  0.82381143  1
  Cr  Cr45  1  0.82610758  0.15519102  0.49181480  1
  Ni  Ni46  1  0.66080258  -0.00829436  0.66097110  1
  Cr  Cr47  1  0.82429337  0.15541957  0.82268962  1
  Cr  Cr48  1  0.82432351  0.49142231  0.49136510  1
  Cr  Cr49  1  0.65783485  0.32241387  0.65817784  1
  Cr  Cr50  1  0.82439416  0.49262491  0.82527841  1
  Cr  Cr51  1  0.82541385  0.82814517  0.49298671  1
  Cr  Cr52  1  0.65955143  0.66005803  0.65892163  1
  Ni  Ni53  1  0.82461211  0.82813852  0.82238030  1
" 