4333,Ni89Fe11_0,-228.131216870903, 154.594774103555,Ni89Fe11,"# generated using pymatgen
 data_Fe8Ni
_symmetry_space_group_name_H-M   'P 1'
_cell_length_a   7.40436470
_cell_length_b   7.40436470
_cell_length_c   10.47135297
_cell_angle_alpha   90.00000000
_cell_angle_beta   90.00000000
_cell_angle_gamma   90.00000000
_symmetry_Int_Tables_number   1
_chemical_formula_structural   Fe8Ni
_chemical_formula_sum   'Fe48 Ni6'
_cell_volume   574.08791171
_cell_formula_units_Z   6
loop_
 _symmetry_equiv_pos_site_id
 _symmetry_equiv_pos_as_xyz
  1  'x, y, z'
loop_
 _atom_site_type_symbol
 _atom_site_label
 _atom_site_symmetry_multiplicity
 _atom_site_fract_x
 _atom_site_fract_y
 _atom_site_fract_z
 _atom_site_occupancy
  Fe  Fe0  1  1.00367591  1.00367234  0.00424563  1
  Fe  Fe1  1  0.17209286  0.17099217  0.17098889  1
  Fe  Fe2  1  0.00492020  1.00372137  0.33773410  1
  Fe  Fe3  1  1.00363528  0.33741086  1.00355130  1
  Fe  Fe4  1  0.17204273  0.50536371  0.17089635  1
  Fe  Fe5  1  0.00482994  0.33798746  0.33833722  1
  Ni  Ni6  1  0.00491795  0.67021805  0.00444500  1
  Fe  Fe7  1  0.17203845  0.83633551  0.17098854  1
  Fe  Fe8  1  0.00477191  0.67098973  0.33704956  1
  Fe  Fe9  1  0.33768578  1.00344788  0.00432868  1
  Fe  Fe10  1  0.50458857  0.17062924  0.17053201  1
  Fe  Fe11  1  0.33766408  1.00340948  0.33746653  1
  Fe  Fe12  1  0.33784206  0.33775330  0.00441836  1
  Ni  Ni13  1  0.50422546  0.50529737  0.17080087  1
  Fe  Fe14  1  0.33784623  0.33839042  0.33728358  1
  Fe  Fe15  1  0.33816999  0.67149547  0.00537065  1
  Ni  Ni16  1  0.50423003  0.83661857  0.17079689  1
  Ni  Ni17  1  0.33768273  0.67089587  0.33723919  1
  Ni  Ni18  1  0.67010770  0.00469389  0.00444866  1
  Fe  Fe19  1  0.83600992  0.17063076  0.17072627  1
  Fe  Fe20  1  0.67011724  1.00335858  0.33677558  1
  Fe  Fe21  1  0.67122164  0.33790728  0.00450843  1
  Fe  Fe22  1  0.83679610  0.50501034  0.17062721  1
  Fe  Fe23  1  0.67002644  0.33853196  0.33737697  1
  Fe  Fe24  1  0.67100638  0.67145759  0.00468239  1
  Fe  Fe25  1  0.83642371  0.83705816  0.17024896  1
  Fe  Fe26  1  0.66971869  0.67080890  0.33720028  1
  Fe  Fe27  1  0.17054089  0.17118003  0.50459631  1
  Fe  Fe28  1  0.00432333  0.00486821  0.67071942  1
  Fe  Fe29  1  0.17071405  0.17126299  0.83711553  1
  Fe  Fe30  1  0.17080785  0.50424025  0.50432154  1
  Ni  Ni31  1  0.00423288  0.33767023  0.67100472  1
  Fe  Fe32  1  0.17027402  0.50423525  0.83748371  1
  Fe  Fe33  1  0.17117284  0.83727971  0.50395651  1
  Fe  Fe34  1  1.00414270  0.67035804  0.67159425  1
  Fe  Fe35  1  0.17062993  0.83719295  0.83775441  1
  Fe  Fe36  1  0.50432648  0.17080582  0.50441141  1
  Fe  Fe37  1  0.33687945  0.00491149  0.67090099  1
  Fe  Fe38  1  0.50450484  0.17054152  0.83775678  1
  Fe  Fe39  1  0.50395409  0.50450703  0.50335488  1
  Fe  Fe40  1  0.33702299  0.33748388  0.67099205  1
  Fe  Fe41  1  0.50413974  0.50415046  0.83799222  1
  Fe  Fe42  1  0.50396142  0.83738518  0.50345372  1
  Fe  Fe43  1  0.33706830  0.67030258  0.67020600  1
  Fe  Fe44  1  0.50450386  0.83801278  0.83825508  1
  Fe  Fe45  1  0.83783171  0.17117270  0.50449628  1
  Fe  Fe46  1  0.67149555  0.00482146  0.67150489  1
  Fe  Fe47  1  0.83747194  0.17089796  0.83748099  1
  Fe  Fe48  1  0.83793614  0.50387601  0.50468585  1
  Fe  Fe49  1  0.67144270  0.33766510  0.67081012  1
  Fe  Fe50  1  0.83829231  0.50423625  0.83739174  1
  Fe  Fe51  1  0.83756333  0.83765167  0.50432076  1
  Fe  Fe52  1  0.67148767  0.67021236  0.67081021  1
  Fe  Fe53  1  0.83756408  0.83756496  0.83813463  1
" 