2781,Ni89Fe8Cr1_5,-240.055981466475, 187.278909098296,Ni89Fe8Cr1,"# generated using pymatgen
 data_Cr(FeNi12)2
_symmetry_space_group_name_H-M   'P 1'
_cell_length_a   7.44875926
_cell_length_b   7.44875926
_cell_length_c   10.53413637
_cell_angle_alpha   90.00000000
_cell_angle_beta   90.00000000
_cell_angle_gamma   90.00000000
_symmetry_Int_Tables_number   1
_chemical_formula_structural   Cr(FeNi12)2
_chemical_formula_sum   'Cr2 Fe4 Ni48'
_cell_volume   584.47617518
_cell_formula_units_Z   2
loop_
 _symmetry_equiv_pos_site_id
 _symmetry_equiv_pos_as_xyz
  1  'x, y, z'
loop_
 _atom_site_type_symbol
 _atom_site_label
 _atom_site_symmetry_multiplicity
 _atom_site_fract_x
 _atom_site_fract_y
 _atom_site_fract_z
 _atom_site_occupancy
  Ni  Ni0  1  1.00056074  1.00075392  1.00114321  1
  Ni  Ni1  1  0.16763376  0.16648441  0.16839423  1
  Ni  Ni2  1  1.00034564  1.00113532  0.33436548  1
  Ni  Ni3  1  0.99898175  0.33478462  1.00120295  1
  Ni  Ni4  1  0.16770396  0.50270574  0.16850043  1
  Ni  Ni5  1  0.00145166  0.33433675  0.33432448  1
  Ni  Ni6  1  0.00192521  0.66814337  0.00140078  1
  Ni  Ni7  1  0.16735861  0.83449101  0.16760858  1
  Ni  Ni8  1  0.00171022  0.66821083  0.33462383  1
  Ni  Ni9  1  0.33486893  0.99925165  0.00162849  1
  Ni  Ni10  1  0.50213196  0.16784461  0.16869258  1
  Fe  Fe11  1  0.33427538  0.00155808  0.33477153  1
  Cr  Cr12  1  0.33459679  0.33505580  1.00079780  1
  Ni  Ni13  1  0.50199368  0.50127600  0.16882111  1
  Ni  Ni14  1  0.33500291  0.33544084  0.33475192  1
  Ni  Ni15  1  0.33376932  0.66938741  1.00114277  1
  Fe  Fe16  1  0.50117011  0.83456249  0.16831775  1
  Ni  Ni17  1  0.33447984  0.66684329  0.33449461  1
  Ni  Ni18  1  0.66825526  0.00218875  1.00094465  1
  Ni  Ni19  1  0.83391473  0.16749783  0.16741575  1
  Ni  Ni20  1  0.66859406  0.00165917  0.33489151  1
  Ni  Ni21  1  0.66949364  0.33368166  0.00158895  1
  Ni  Ni22  1  0.83398547  0.50155260  0.16752375  1
  Ni  Ni23  1  0.66722864  0.33407828  0.33423841  1
  Fe  Fe24  1  0.66875521  0.66759585  1.00116596  1
  Ni  Ni25  1  0.83534616  0.83463226  0.16799010  1
  Ni  Ni26  1  0.66749249  0.66794661  0.33440648  1
  Ni  Ni27  1  0.16824382  0.16779547  0.50157985  1
  Ni  Ni28  1  1.00115324  1.00095084  0.66817353  1
  Ni  Ni29  1  0.16773657  0.16662513  0.83371162  1
  Ni  Ni30  1  0.16831707  0.50142693  0.50151140  1
  Ni  Ni31  1  0.00324920  0.33456094  0.66815590  1
  Ni  Ni32  1  0.16773032  0.50246266  0.83367027  1
  Ni  Ni33  1  0.16772901  0.83446087  0.50132854  1
  Ni  Ni34  1  0.00167070  0.66817139  0.66765785  1
  Ni  Ni35  1  0.16746067  0.83459488  0.83474859  1
  Ni  Ni36  1  0.50048785  0.16722504  0.50049242  1
  Ni  Ni37  1  0.33455390  1.00121497  0.66781759  1
  Ni  Ni38  1  0.50119400  0.16690607  0.83449769  1
  Ni  Ni39  1  0.50042392  0.50200159  0.50042663  1
  Ni  Ni40  1  0.33298555  0.33481982  0.66798655  1
  Ni  Ni41  1  0.50113158  0.50211444  0.83443221  1
  Ni  Ni42  1  0.50157882  0.83445550  0.50157769  1
  Ni  Ni43  1  0.33429545  0.66764849  0.66804511  1
  Fe  Fe44  1  0.50094841  0.83483992  0.83380299  1
  Ni  Ni45  1  0.83495005  0.16663762  0.50042476  1
  Ni  Ni46  1  0.66797487  0.99963816  0.66784698  1
  Ni  Ni47  1  0.83475168  0.16663459  0.83584053  1
  Ni  Ni48  1  0.83494315  0.50251845  0.50038324  1
  Cr  Cr49  1  0.66774401  0.33416980  0.66749051  1
  Ni  Ni50  1  0.83482257  0.50238929  0.83577368  1
  Ni  Ni51  1  0.83437390  0.83452714  0.50151101  1
  Ni  Ni52  1  0.66771543  0.66974179  0.66807465  1
  Ni  Ni53  1  0.83509908  0.83465999  0.83418108  1
" 