5743,Ni89Fe4Cr6_11,-237.637597591462, 175.324649697301,Ni89Fe4Cr6,"# generated using pymatgen
 data_Cr2FeNi24
_symmetry_space_group_name_H-M   'P 1'
_cell_length_a   7.45907023
_cell_length_b   7.45907023
_cell_length_c   10.54871829
_cell_angle_alpha   90.00000000
_cell_angle_beta   90.00000000
_cell_angle_gamma   90.00000000
_symmetry_Int_Tables_number   1
_chemical_formula_structural   Cr2FeNi24
_chemical_formula_sum   'Cr4 Fe2 Ni48'
_cell_volume   586.90672695
_cell_formula_units_Z   2
loop_
 _symmetry_equiv_pos_site_id
 _symmetry_equiv_pos_as_xyz
  1  'x, y, z'
loop_
 _atom_site_type_symbol
 _atom_site_label
 _atom_site_symmetry_multiplicity
 _atom_site_fract_x
 _atom_site_fract_y
 _atom_site_fract_z
 _atom_site_occupancy
  Ni  Ni0  1  0.00185813  1.00025466  1.00024443  1
  Ni  Ni1  1  0.16579944  0.16682095  0.16608108  1
  Ni  Ni2  1  0.00126898  0.99856960  0.33193389  1
  Ni  Ni3  1  0.00060353  0.33397826  0.00102775  1
  Ni  Ni4  1  0.16716173  0.50171780  0.16667333  1
  Ni  Ni5  1  0.99849905  0.33544539  0.33206376  1
  Ni  Ni6  1  1.00048439  0.66753872  0.00064440  1
  Ni  Ni7  1  0.16687178  0.83313574  0.16711907  1
  Ni  Ni8  1  0.99998983  0.66794333  0.33424866  1
  Ni  Ni9  1  0.33251434  1.00052798  0.00096714  1
  Ni  Ni10  1  0.50105682  0.16771092  0.16759307  1
  Ni  Ni11  1  0.33415425  0.99838780  0.33262221  1
  Ni  Ni12  1  0.33395783  0.33385073  0.00060377  1
  Ni  Ni13  1  0.50070923  0.50162363  0.16591691  1
  Cr  Cr14  1  0.33435656  0.33503127  0.33405627  1
  Ni  Ni15  1  0.33380224  0.66720376  0.00095655  1
  Ni  Ni16  1  0.50010085  0.83196421  0.16791418  1
  Ni  Ni17  1  0.33414765  0.66920368  0.33417598  1
  Cr  Cr18  1  0.66742907  0.99992551  0.99996044  1
  Ni  Ni19  1  0.83478572  0.16754088  0.16812315  1
  Fe  Fe20  1  0.66690228  0.99910758  0.33326274  1
  Ni  Ni21  1  0.66705988  0.33513090  0.00067667  1
  Fe  Fe22  1  0.83377367  0.50120109  0.16683169  1
  Ni  Ni23  1  0.66765476  0.33550342  0.33288005  1
  Ni  Ni24  1  0.66734665  0.66586454  1.00029862  1
  Ni  Ni25  1  0.83465246  0.83356300  0.16798797  1
  Ni  Ni26  1  0.66739961  0.66661301  0.33374916  1
  Cr  Cr27  1  0.16699081  0.16629848  0.50200015  1
  Ni  Ni28  1  0.00054815  0.99825090  0.66959425  1
  Ni  Ni29  1  0.16692361  0.16746321  0.83434445  1
  Ni  Ni30  1  0.16630348  0.50331951  0.50129235  1
  Ni  Ni31  1  1.00032525  0.33613364  0.66864409  1
  Ni  Ni32  1  0.16736480  0.50083502  0.83376742  1
  Ni  Ni33  1  0.16723361  0.83205399  0.50014194  1
  Ni  Ni34  1  1.00016278  0.66728869  0.66659377  1
  Ni  Ni35  1  0.16728394  0.83333195  0.83430939  1
  Ni  Ni36  1  0.50160154  0.16654328  0.50105184  1
  Ni  Ni37  1  0.33487869  0.99952333  0.66807935  1
  Ni  Ni38  1  0.49994621  0.16821081  0.83279272  1
  Ni  Ni39  1  0.50161397  0.50188482  0.50163052  1
  Ni  Ni40  1  0.33492702  0.33467684  0.66769960  1
  Ni  Ni41  1  0.50044872  0.50097973  0.83425642  1
  Ni  Ni42  1  0.50062345  0.83301022  0.49999596  1
  Ni  Ni43  1  0.33386269  0.66742182  0.66642841  1
  Ni  Ni44  1  0.49973374  0.83232905  0.83341992  1
  Cr  Cr45  1  0.83302464  0.16704827  0.50085051  1
  Ni  Ni46  1  0.66622997  0.99937199  0.66724810  1
  Ni  Ni47  1  0.83476708  0.16813728  0.83274288  1
  Ni  Ni48  1  0.83355110  0.50195496  0.49976306  1
  Ni  Ni49  1  0.66640752  0.33494954  0.66799548  1
  Ni  Ni50  1  0.83377164  0.50066884  0.83475513  1
  Ni  Ni51  1  0.83385893  0.83194997  0.50066132  1
  Ni  Ni52  1  0.66757759  0.66715086  0.66746530  1
  Ni  Ni53  1  0.83457448  0.83273075  0.83273883  1
" 