2249,Ni89Cr11_11,-203.559754431353, 183.73013119607,Ni89Cr11,"# generated using pymatgen
 data_Cr8Ni
_symmetry_space_group_name_H-M   'P 1'
_cell_length_a   7.59296744
_cell_length_b   7.59296744
_cell_length_c   10.73807753
_cell_angle_alpha   90.00000000
_cell_angle_beta   90.00000000
_cell_angle_gamma   90.00000000
_symmetry_Int_Tables_number   1
_chemical_formula_structural   Cr8Ni
_chemical_formula_sum   'Cr48 Ni6'
_cell_volume   619.08404286
_cell_formula_units_Z   6
loop_
 _symmetry_equiv_pos_site_id
 _symmetry_equiv_pos_as_xyz
  1  'x, y, z'
loop_
 _atom_site_type_symbol
 _atom_site_label
 _atom_site_symmetry_multiplicity
 _atom_site_fract_x
 _atom_site_fract_y
 _atom_site_fract_z
 _atom_site_occupancy
  Cr  Cr0  1  0.99157332  0.99007008  -0.00732958  1
  Cr  Cr1  1  0.15799034  0.15878987  0.15871582  1
  Cr  Cr2  1  -0.00806536  0.99147511  0.32328800  1
  Cr  Cr3  1  -0.00683827  0.32508903  0.99141821  1
  Cr  Cr4  1  0.15908889  0.49206137  0.15761456  1
  Ni  Ni5  1  0.99161486  0.32494744  0.32542472  1
  Cr  Cr6  1  -0.00740626  0.65996460  -0.00733104  1
  Ni  Ni7  1  0.15733203  0.82418191  0.15751525  1
  Cr  Cr8  1  0.99137264  0.65837508  0.32385396  1
  Cr  Cr9  1  0.32427286  -0.00825856  -0.00786702  1
  Cr  Cr10  1  0.49127659  0.15871447  0.15760763  1
  Cr  Cr11  1  0.32445325  0.99155247  0.32552305  1
  Ni  Ni12  1  0.32518182  0.32694759  0.99156567  1
  Cr  Cr13  1  0.49017619  0.49213735  0.15650512  1
  Cr  Cr14  1  0.32396571  0.32470683  0.32533029  1
  Ni  Ni15  1  0.32417887  0.65737908  -0.00757467  1
  Cr  Cr16  1  0.49127496  0.82427436  0.15795336  1
  Cr  Cr17  1  0.32445283  0.65886545  0.32513353  1
  Cr  Cr18  1  0.65927906  0.99116638  -0.00729655  1
  Cr  Cr19  1  0.82585558  0.15768829  0.15947890  1
  Cr  Cr20  1  0.65873736  0.99098640  0.32382016  1
  Cr  Cr21  1  0.65658190  0.32508811  0.99098118  1
  Cr  Cr22  1  0.82585867  0.49205445  0.15982097  1
  Cr  Cr23  1  0.65921899  0.32526922  0.32554158  1
  Cr  Cr24  1  0.65825800  0.65886851  -0.00729768  1
  Ni  Ni25  1  0.82680780  0.82518240  0.15837362  1
  Cr  Cr26  1  0.65930043  0.65886853  0.32438715  1
  Cr  Cr27  1  0.15736940  0.15891708  0.49071417  1
  Cr  Cr28  1  -0.00788362  0.99141820  0.65916760  1
  Cr  Cr29  1  0.15857904  0.15891727  0.82569559  1
  Cr  Cr30  1  0.15737712  0.49116631  0.49071286  1
  Cr  Cr31  1  0.99052744  0.32526918  0.65821299  1
  Cr  Cr32  1  0.15968105  0.49193739  0.82680046  1
  Cr  Cr33  1  0.15903947  0.82504075  0.49234091  1
  Cr  Cr34  1  0.99155272  0.65843721  0.65860094  1
  Cr  Cr35  1  0.15914789  0.82427227  0.82517336  1
  Cr  Cr36  1  0.49248404  0.15835178  0.49236118  1
  Cr  Cr37  1  0.32486012  -0.00800943  0.65746708  1
  Cr  Cr38  1  0.49204520  0.15945102  0.82515364  1
  Cr  Cr39  1  0.49247629  0.49173112  0.49236217  1
  Cr  Cr40  1  0.32646193  0.32470568  0.65842303  1
  Cr  Cr41  1  0.49094441  0.49140212  0.82625672  1
  Cr  Cr42  1  0.49137935  0.82504079  0.49204761  1
  Cr  Cr43  1  0.32485997  0.65842805  0.65785731  1
  Cr  Cr44  1  0.49094101  0.82427183  0.82512661  1
  Cr  Cr45  1  0.82527031  0.16000906  0.49182078  1
  Cr  Cr46  1  0.65814750  -0.00698452  0.65860144  1
  Cr  Cr47  1  0.82450009  0.15891689  0.82382160  1
  Cr  Cr48  1  0.82527037  0.49006431  0.49182078  1
  Ni  Ni49  1  0.65846305  0.32494754  0.65827892  1
  Cr  Cr50  1  0.82449903  0.49082749  0.82347852  1
  Cr  Cr51  1  0.82470526  0.82504961  0.49199987  1
  Cr  Cr52  1  0.65871208  0.65683564  0.65803440  1
  Cr  Cr53  1  0.82503532  0.82537847  0.82475215  1
" 