348,Ni89Cr11_2,-203.511470429704, 181.619484058322,Ni89Cr11,"# generated using pymatgen
 data_Cr8Ni
_symmetry_space_group_name_H-M   'P 1'
_cell_length_a   7.59288660
_cell_length_b   7.59288660
_cell_length_c   10.73796321
_cell_angle_alpha   90.00000000
_cell_angle_beta   90.00000000
_cell_angle_gamma   90.00000000
_symmetry_Int_Tables_number   1
_chemical_formula_structural   Cr8Ni
_chemical_formula_sum   'Cr48 Ni6'
_cell_volume   619.06427007
_cell_formula_units_Z   6
loop_
 _symmetry_equiv_pos_site_id
 _symmetry_equiv_pos_as_xyz
  1  'x, y, z'
loop_
 _atom_site_type_symbol
 _atom_site_label
 _atom_site_symmetry_multiplicity
 _atom_site_fract_x
 _atom_site_fract_y
 _atom_site_fract_z
 _atom_site_occupancy
  Ni  Ni0  1  0.99163736  0.99165530  0.99147634  1
  Cr  Cr1  1  0.15731125  0.15771221  0.15882454  1
  Cr  Cr2  1  0.99144291  -0.00662293  0.32444145  1
  Cr  Cr3  1  0.99098672  0.32397936  0.99142546  1
  Cr  Cr4  1  0.15784567  0.49184690  0.15935939  1
  Ni  Ni5  1  0.98997347  0.32504528  0.32519093  1
  Cr  Cr6  1  0.99144250  0.65950448  0.99159990  1
  Cr  Cr7  1  0.15784580  0.82558149  0.15717276  1
  Cr  Cr8  1  0.99144197  0.65671637  0.32448848  1
  Cr  Cr9  1  0.32402757  -0.00779269  -0.00784086  1
  Cr  Cr10  1  0.49323034  0.15989370  0.15770563  1
  Cr  Cr11  1  0.32602747  0.99127258  0.32558060  1
  Cr  Cr12  1  0.32605802  0.32500039  0.99104010  1
  Cr  Cr13  1  0.49322851  0.49020128  0.15775153  1
  Cr  Cr14  1  0.32490449  0.32557898  0.32557718  1
  Cr  Cr15  1  0.32504809  0.65793254  -0.00784092  1
  Cr  Cr16  1  0.49104589  0.82504530  0.15843000  1
  Cr  Cr17  1  0.32655543  0.65828801  0.32610835  1
  Cr  Cr18  1  0.65967122  -0.00733649  0.99159996  1
  Cr  Cr19  1  0.82459938  0.15988713  0.15882263  1
  Cr  Cr20  1  0.65767015  -0.00827409  0.32613903  1
  Ni  Ni21  1  0.65841483  0.32487780  -0.00825958  1
  Cr  Cr22  1  0.82406541  0.48967040  0.15935632  1
  Ni  Ni23  1  0.65945648  0.32598793  0.32567677  1
  Cr  Cr24  1  0.65864904  0.65747402  0.99160021  1
  Cr  Cr25  1  0.82624894  0.82558261  0.15717199  1
  Cr  Cr26  1  0.65714265  0.65783826  0.32666652  1
  Cr  Cr27  1  0.15771391  0.15879775  0.49129252  1
  Cr  Cr28  1  0.99126552  -0.00783862  0.65909850  1
  Cr  Cr29  1  0.15806932  0.15728453  0.82502117  1
  Cr  Cr30  1  0.15872983  0.49134179  0.49129290  1
  Cr  Cr31  1  -0.00762082  0.32504621  0.65833030  1
  Cr  Cr32  1  0.15860309  0.49227614  0.82448810  1
  Cr  Cr33  1  0.15981992  0.82500083  0.49204793  1
  Cr  Cr34  1  0.99126452  0.65793298  0.65905251  1
  Cr  Cr35  1  0.15751871  0.82558032  0.82591861  1
  Cr  Cr36  1  0.49246993  0.15880420  0.49129652  1
  Cr  Cr37  1  0.32602848  0.99162586  0.65739987  1
  Cr  Cr38  1  0.49247375  0.15946714  0.82614249  1
  Ni  Ni39  1  0.49256093  0.49288469  0.49100887  1
  Cr  Cr40  1  0.32491221  0.32558031  0.65852063  1
  Cr  Cr41  1  0.49247319  0.49062618  0.82609483  1
  Ni  Ni42  1  0.49156960  0.82316528  0.49185413  1
  Cr  Cr43  1  0.32655762  0.65793383  0.65687102  1
  Cr  Cr44  1  0.49137387  0.82504658  0.82466305  1
  Cr  Cr45  1  0.82495504  0.15988931  0.49020538  1
  Cr  Cr46  1  0.65784583  0.99051105  0.65739953  1
  Cr  Cr47  1  0.82459880  0.15838194  0.82611377  1
  Cr  Cr48  1  0.82394053  0.49025108  0.49020688  1
  Cr  Cr49  1  0.65784882  0.32558060  0.65851979  1
  Cr  Cr50  1  0.82406489  0.49117675  0.82558151  1
  Cr  Cr51  1  0.82394804  0.82499998  0.49238496  1
  Cr  Cr52  1  0.65731699  0.65904721  0.65686984  1
  Cr  Cr53  1  0.82624750  0.82558155  0.82558127  1
" 