2703,Ni89Fe4Cr6_18,-237.814572844254, 177.151463240228,Ni89Fe4Cr6,"# generated using pymatgen
 data_Cr2FeNi24
_symmetry_space_group_name_H-M   'P 1'
_cell_length_a   7.45873567
_cell_length_b   7.45873567
_cell_length_c   10.54824514
_cell_angle_alpha   90.00000000
_cell_angle_beta   90.00000000
_cell_angle_gamma   90.00000000
_symmetry_Int_Tables_number   1
_chemical_formula_structural   Cr2FeNi24
_chemical_formula_sum   'Cr4 Fe2 Ni48'
_cell_volume   586.82775536
_cell_formula_units_Z   2
loop_
 _symmetry_equiv_pos_site_id
 _symmetry_equiv_pos_as_xyz
  1  'x, y, z'
loop_
 _atom_site_type_symbol
 _atom_site_label
 _atom_site_symmetry_multiplicity
 _atom_site_fract_x
 _atom_site_fract_y
 _atom_site_fract_z
 _atom_site_occupancy
  Cr  Cr0  1  0.00109022  0.00079519  0.00064420  1
  Ni  Ni1  1  0.16809112  0.16867061  0.16823079  1
  Ni  Ni2  1  0.00163443  0.00151216  0.33321784  1
  Ni  Ni3  1  1.00050087  0.33524800  1.00048172  1
  Ni  Ni4  1  0.16728356  0.50063548  0.16704707  1
  Ni  Ni5  1  1.00011229  0.33416909  0.33375061  1
  Ni  Ni6  1  1.00042382  0.66562191  0.00071987  1
  Ni  Ni7  1  0.16774496  0.83240860  0.16812379  1
  Ni  Ni8  1  0.00129353  0.66600484  0.33253479  1
  Ni  Ni9  1  0.33430413  0.99958074  0.00142966  1
  Ni  Ni10  1  0.50072829  0.16760221  0.16672065  1
  Ni  Ni11  1  0.33396106  1.00026487  0.33361791  1
  Ni  Ni12  1  0.33292053  0.33500192  0.00146265  1
  Ni  Ni13  1  0.50006818  0.50015487  0.16727075  1
  Ni  Ni14  1  0.33411758  0.33410565  0.33408542  1
  Ni  Ni15  1  0.33427172  0.66710640  1.00028057  1
  Ni  Ni16  1  0.50064993  0.83389365  0.16704465  1
  Ni  Ni17  1  0.33413384  0.66734111  0.33428251  1
  Ni  Ni18  1  0.66671224  0.99951983  0.00141049  1
  Ni  Ni19  1  0.83283234  0.16804578  0.16810272  1
  Ni  Ni20  1  0.66617388  0.00145397  0.33284184  1
  Ni  Ni21  1  0.66809742  0.33529791  0.00165673  1
  Ni  Ni22  1  0.83434440  0.50051715  0.16698025  1
  Ni  Ni23  1  0.66745638  0.33441036  0.33396924  1
  Ni  Ni24  1  0.66687499  0.66689315  0.00056777  1
  Ni  Ni25  1  0.83329778  0.83310123  0.16846799  1
  Ni  Ni26  1  0.66624329  0.66574810  0.33318437  1
  Fe  Fe27  1  0.16679646  0.16842264  0.49956942  1
  Ni  Ni28  1  0.99986802  0.00141539  0.66788263  1
  Ni  Ni29  1  0.16531489  0.16975239  0.83332058  1
  Ni  Ni30  1  0.16729199  0.50120283  0.50055985  1
  Ni  Ni31  1  1.00024957  0.33402093  0.66738844  1
  Ni  Ni32  1  0.16778770  0.50068439  0.83402908  1
  Ni  Ni33  1  0.16754800  0.83162378  0.49985199  1
  Ni  Ni34  1  0.00123394  0.66623383  0.66836828  1
  Ni  Ni35  1  0.16645572  0.83129641  0.83375121  1
  Ni  Ni36  1  0.50243929  0.16851399  0.49975059  1
  Cr  Cr37  1  0.33311265  0.99936904  0.66672028  1
  Cr  Cr38  1  0.50163014  0.16919587  0.83589746  1
  Ni  Ni39  1  0.49974364  0.49982997  0.50084749  1
  Ni  Ni40  1  0.33316326  0.33640813  0.66614701  1
  Ni  Ni41  1  0.49921292  0.50183569  0.83350276  1
  Ni  Ni42  1  0.49976172  0.83331971  0.50007017  1
  Ni  Ni43  1  0.33407686  0.66564211  0.66710912  1
  Ni  Ni44  1  0.50183985  0.83130744  0.83452077  1
  Ni  Ni45  1  0.83318111  0.16859404  0.50080510  1
  Ni  Ni46  1  0.66863349  1.00055024  0.66739551  1
  Ni  Ni47  1  0.83441124  0.16736245  0.83275128  1
  Ni  Ni48  1  0.83459991  0.49866055  0.50107675  1
  Ni  Ni49  1  0.66812226  0.33511945  0.66626983  1
  Fe  Fe50  1  0.83392402  0.50084419  0.83399332  1
  Cr  Cr51  1  0.83460778  0.83391473  0.49979885  1
  Ni  Ni52  1  0.66629583  0.66599596  0.66784865  1
  Ni  Ni53  1  0.83342349  0.83386763  0.83273525  1
" 