8532,Ni89Fe8Cr1_6,-239.909074909517, 185.714968940166,Ni89Fe8Cr1,"# generated using pymatgen
 data_Cr(FeNi12)2
_symmetry_space_group_name_H-M   'P 1'
_cell_length_a   7.44863648
_cell_length_b   7.44863648
_cell_length_c   10.53396273
_cell_angle_alpha   90.00000000
_cell_angle_beta   90.00000000
_cell_angle_gamma   90.00000000
_symmetry_Int_Tables_number   1
_chemical_formula_structural   Cr(FeNi12)2
_chemical_formula_sum   'Cr2 Fe4 Ni48'
_cell_volume   584.44727246
_cell_formula_units_Z   2
loop_
 _symmetry_equiv_pos_site_id
 _symmetry_equiv_pos_as_xyz
  1  'x, y, z'
loop_
 _atom_site_type_symbol
 _atom_site_label
 _atom_site_symmetry_multiplicity
 _atom_site_fract_x
 _atom_site_fract_y
 _atom_site_fract_z
 _atom_site_occupancy
  Ni  Ni0  1  0.00145750  0.00302815  1.00117460  1
  Ni  Ni1  1  0.16828212  0.16851683  0.16782182  1
  Ni  Ni2  1  0.00271943  0.00246868  0.33561306  1
  Ni  Ni3  1  1.00077566  0.33433080  0.00157945  1
  Ni  Ni4  1  0.16832223  0.50062108  0.16832677  1
  Ni  Ni5  1  1.00098227  0.33405789  0.33411632  1
  Ni  Ni6  1  1.00122562  0.66632028  0.00153790  1
  Ni  Ni7  1  0.16965676  0.83455439  0.16949371  1
  Ni  Ni8  1  0.00130000  0.66727441  0.33563357  1
  Ni  Ni9  1  0.33536150  0.00233674  0.00229733  1
  Ni  Ni10  1  0.50097520  0.16802875  0.16918525  1
  Ni  Ni11  1  0.33390399  0.00141644  0.33481798  1
  Ni  Ni12  1  0.33541603  0.33432089  0.00138926  1
  Ni  Ni13  1  0.50098265  0.50111979  0.16897035  1
  Ni  Ni14  1  0.33490407  0.33404070  0.33453144  1
  Ni  Ni15  1  0.33570750  0.66704817  0.00274529  1
  Ni  Ni16  1  0.49976193  0.83448121  0.16752782  1
  Ni  Ni17  1  0.33520349  0.66830724  0.33478056  1
  Ni  Ni18  1  0.66676819  0.00277589  1.00086404  1
  Ni  Ni19  1  0.83447095  0.16956727  0.16862190  1
  Fe  Fe20  1  0.66714901  0.00166629  0.33537832  1
  Ni  Ni21  1  0.66751255  0.33465223  0.00137085  1
  Ni  Ni22  1  0.83443190  0.49967350  0.16845525  1
  Ni  Ni23  1  0.66847903  0.33525600  0.33448466  1
  Ni  Ni24  1  0.66676010  0.66635451  1.00000172  1
  Cr  Cr25  1  0.83374743  0.83435735  0.16766799  1
  Ni  Ni26  1  0.66696119  0.66616510  0.33529909  1
  Ni  Ni27  1  0.16819397  0.16966016  0.50167202  1
  Ni  Ni28  1  1.00021549  0.00251646  0.66696019  1
  Ni  Ni29  1  0.16832351  0.17004857  0.83424068  1
  Ni  Ni30  1  0.16832597  0.49955491  0.50113550  1
  Ni  Ni31  1  1.00093783  0.33435004  0.66802070  1
  Ni  Ni32  1  0.16834238  0.49932509  0.83422213  1
  Fe  Fe33  1  0.16619788  0.83461194  0.50099870  1
  Ni  Ni34  1  0.99993222  0.66689368  0.66648617  1
  Cr  Cr35  1  0.16852401  0.83434523  0.83362451  1
  Fe  Fe36  1  0.50201265  0.16870050  0.50136440  1
  Ni  Ni37  1  0.33541110  0.00211023  0.66680694  1
  Ni  Ni38  1  0.50112028  0.16784601  0.83339798  1
  Fe  Fe39  1  0.50226951  0.50066826  0.50119905  1
  Ni  Ni40  1  0.33472468  0.33440868  0.66780052  1
  Ni  Ni41  1  0.50070975  0.50112889  0.83340898  1
  Ni  Ni42  1  0.50120930  0.83455844  0.50120401  1
  Ni  Ni43  1  0.33582126  0.66725741  0.66625355  1
  Ni  Ni44  1  0.50274959  0.83475525  0.83492608  1
  Ni  Ni45  1  0.83554493  0.16831535  0.50085490  1
  Ni  Ni46  1  0.66779801  0.00136516  0.66743068  1
  Ni  Ni47  1  0.83424441  0.16799810  0.83423534  1
  Ni  Ni48  1  0.83559903  0.50089538  0.50101250  1
  Ni  Ni49  1  0.66862846  0.33471263  0.66790999  1
  Ni  Ni50  1  0.83465100  0.50096670  0.83423677  1
  Ni  Ni51  1  0.83185899  0.83449406  0.50161561  1
  Ni  Ni52  1  0.66779854  0.66774655  0.66825365  1
  Ni  Ni53  1  0.83237405  0.83476286  0.83377928  1
" 