4113,Ni89Fe7Cr3_10,-238.985277788615, 181.477905137706,Ni89Fe7Cr3,"# generated using pymatgen
 data_CrFeNi16
_symmetry_space_group_name_H-M   'P 1'
_cell_length_a   7.45330105
_cell_length_b   7.45330105
_cell_length_c   10.54055943
_cell_angle_alpha   90.00000000
_cell_angle_beta   90.00000000
_cell_angle_gamma   90.00000000
_symmetry_Int_Tables_number   1
_chemical_formula_structural   CrFeNi16
_chemical_formula_sum   'Cr3 Fe3 Ni48'
_cell_volume   585.54595957
_cell_formula_units_Z   3
loop_
 _symmetry_equiv_pos_site_id
 _symmetry_equiv_pos_as_xyz
  1  'x, y, z'
loop_
 _atom_site_type_symbol
 _atom_site_label
 _atom_site_symmetry_multiplicity
 _atom_site_fract_x
 _atom_site_fract_y
 _atom_site_fract_z
 _atom_site_occupancy
  Ni  Ni0  1  1.00081712  1.00061730  1.00089191  1
  Ni  Ni1  1  0.16768125  0.16781601  0.16585046  1
  Cr  Cr2  1  0.00258700  0.99938299  0.33262108  1
  Ni  Ni3  1  1.00057104  0.33415939  0.00101364  1
  Ni  Ni4  1  0.16703341  0.50211915  0.16545845  1
  Ni  Ni5  1  1.00050192  0.33708346  0.33351298  1
  Ni  Ni6  1  0.99995197  0.66830851  1.00038058  1
  Ni  Ni7  1  0.16919967  0.83296565  0.16633988  1
  Ni  Ni8  1  1.00068875  0.66640353  0.33474174  1
  Ni  Ni9  1  0.33410942  1.00084475  0.00154483  1
  Ni  Ni10  1  0.50179256  0.16661637  0.16576807  1
  Ni  Ni11  1  0.33631513  0.99965051  0.33429189  1
  Ni  Ni12  1  0.33467968  0.33423101  0.99983528  1
  Ni  Ni13  1  0.50153763  0.50232744  0.16659442  1
  Cr  Cr14  1  0.33430560  0.33404407  0.33464483  1
  Ni  Ni15  1  0.33483875  0.66773885  1.00064822  1
  Ni  Ni16  1  0.50060352  0.83386712  0.16745513  1
  Ni  Ni17  1  0.33425276  0.66878229  0.33453890  1
  Ni  Ni18  1  0.66795212  1.00027250  0.99992367  1
  Ni  Ni19  1  0.83329141  0.16868186  0.16630855  1
  Ni  Ni20  1  0.66533388  0.99980283  0.33408976  1
  Ni  Ni21  1  0.66746059  0.33476005  0.00112959  1
  Ni  Ni22  1  0.83413462  0.50082382  0.16776786  1
  Ni  Ni23  1  0.66732996  0.33516552  0.33323190  1
  Ni  Ni24  1  0.66770179  0.66743802  0.00092867  1
  Ni  Ni25  1  0.83296850  0.83324379  0.16607939  1
  Ni  Ni26  1  0.66777049  0.66769397  0.33431089  1
  Ni  Ni27  1  0.16884170  0.16751025  0.50252842  1
  Ni  Ni28  1  0.00251687  0.99968973  0.66865724  1
  Ni  Ni29  1  0.16715487  0.16724141  0.83420962  1
  Ni  Ni30  1  0.16705330  0.50199422  0.50331372  1
  Ni  Ni31  1  0.00122691  0.33486343  0.66818630  1
  Fe  Fe32  1  0.16657858  0.50234030  0.83416396  1
  Ni  Ni33  1  0.16897352  0.83329669  0.50183612  1
  Ni  Ni34  1  0.99986802  0.66855751  0.66772039  1
  Ni  Ni35  1  0.16856083  0.83577685  0.83454541  1
  Ni  Ni36  1  0.50025577  0.16682065  0.50297909  1
  Ni  Ni37  1  0.33352193  1.00077164  0.66708116  1
  Fe  Fe38  1  0.50148353  0.16656631  0.83461316  1
  Ni  Ni39  1  0.50175163  0.50206311  0.50160951  1
  Ni  Ni40  1  0.33513203  0.33394660  0.66834018  1
  Ni  Ni41  1  0.50112025  0.50161458  0.83453783  1
  Ni  Ni42  1  0.50033222  0.83357845  0.50099556  1
  Ni  Ni43  1  0.33507843  0.66798716  0.66756861  1
  Ni  Ni44  1  0.49986958  0.83229534  0.83438225  1
  Cr  Cr45  1  0.83394741  0.16910689  0.50161693  1
  Fe  Fe46  1  0.66710389  0.99940912  0.66890473  1
  Ni  Ni47  1  0.83598534  0.16844831  0.83447434  1
  Ni  Ni48  1  0.83388517  0.50207883  0.50083584  1
  Ni  Ni49  1  0.66647217  0.33624540  0.66843240  1
  Ni  Ni50  1  0.83260909  0.50027461  0.83419741  1
  Ni  Ni51  1  0.83329953  0.83183852  0.50254958  1
  Ni  Ni52  1  0.66751783  0.66666195  0.66753483  1
  Ni  Ni53  1  0.83424672  0.83397910  0.83408050  1
" 