3329,Ni89Fe8Cr1_11,-239.840890142537, 186.7288258142,Ni89Fe8Cr1,"# generated using pymatgen
 data_Cr(FeNi12)2
_symmetry_space_group_name_H-M   'P 1'
_cell_length_a   7.44804885
_cell_length_b   7.44804885
_cell_length_c   10.53313170
_cell_angle_alpha   90.00000000
_cell_angle_beta   90.00000000
_cell_angle_gamma   90.00000000
_symmetry_Int_Tables_number   1
_chemical_formula_structural   Cr(FeNi12)2
_chemical_formula_sum   'Cr2 Fe4 Ni48'
_cell_volume   584.30896229
_cell_formula_units_Z   2
loop_
 _symmetry_equiv_pos_site_id
 _symmetry_equiv_pos_as_xyz
  1  'x, y, z'
loop_
 _atom_site_type_symbol
 _atom_site_label
 _atom_site_symmetry_multiplicity
 _atom_site_fract_x
 _atom_site_fract_y
 _atom_site_fract_z
 _atom_site_occupancy
  Ni  Ni0  1  0.00186640  0.00155594  0.00135231  1
  Ni  Ni1  1  0.16824821  0.16719554  0.16853283  1
  Ni  Ni2  1  0.00182000  0.00313793  0.33460175  1
  Ni  Ni3  1  1.00051510  0.33495121  0.00165162  1
  Ni  Ni4  1  0.16822418  0.50074988  0.16746267  1
  Ni  Ni5  1  0.00311637  0.33296084  0.33475617  1
  Ni  Ni6  1  0.00179750  0.66732456  1.00103408  1
  Ni  Ni7  1  0.16827883  0.83587685  0.16715511  1
  Cr  Cr8  1  0.00178996  0.66734128  0.33505879  1
  Ni  Ni9  1  0.33450846  1.00072678  1.00121459  1
  Ni  Ni10  1  0.50035755  0.16721410  0.16721930  1
  Ni  Ni11  1  0.33451247  0.00133893  0.33479976  1
  Fe  Fe12  1  0.33472458  0.33454802  0.00143414  1
  Ni  Ni13  1  0.50143992  0.50178735  0.16746469  1
  Ni  Ni14  1  0.33297377  0.33450599  0.33421140  1
  Ni  Ni15  1  0.33431013  0.66840822  0.00145229  1
  Fe  Fe16  1  0.50025353  0.83407019  0.16801039  1
  Ni  Ni17  1  0.33611883  0.66797879  0.33475765  1
  Ni  Ni18  1  0.66745076  0.00201306  0.00129469  1
  Fe  Fe19  1  0.83604533  0.16812074  0.16705742  1
  Ni  Ni20  1  0.66749118  0.99998358  0.33465511  1
  Ni  Ni21  1  0.66853962  0.33475396  1.00103259  1
  Ni  Ni22  1  0.83416401  0.50176129  0.16633133  1
  Cr  Cr23  1  0.66803339  0.33482634  0.33544701  1
  Ni  Ni24  1  0.66771286  0.66706079  0.00154629  1
  Fe  Fe25  1  0.83419406  0.83497303  0.16709897  1
  Ni  Ni26  1  0.66594618  0.66927452  0.33459993  1
  Ni  Ni27  1  0.16773844  0.16774664  0.50036082  1
  Ni  Ni28  1  0.00143852  0.00130810  0.66786746  1
  Ni  Ni29  1  0.16787038  0.16740131  0.83493037  1
  Ni  Ni30  1  0.16855739  0.50041636  0.50117862  1
  Ni  Ni31  1  1.00099798  0.33484411  0.66741417  1
  Ni  Ni32  1  0.16761857  0.50159285  0.83518815  1
  Ni  Ni33  1  0.16854375  0.83566192  0.50193496  1
  Ni  Ni34  1  0.00144897  0.66767449  0.66824853  1
  Ni  Ni35  1  0.16768988  0.83483111  0.83474001  1
  Ni  Ni36  1  0.50062970  0.16692908  0.50193479  1
  Ni  Ni37  1  0.33461511  1.00123551  0.66780783  1
  Ni  Ni38  1  0.50156548  0.16765280  0.83467530  1
  Ni  Ni39  1  0.50088314  0.50231003  0.50143452  1
  Ni  Ni40  1  0.33479928  0.33465969  0.66809252  1
  Ni  Ni41  1  0.50182171  0.50134644  0.83493227  1
  Ni  Ni42  1  0.50171197  0.83458770  0.50013655  1
  Ni  Ni43  1  0.33442045  0.66793095  0.66761124  1
  Ni  Ni44  1  0.50149870  0.83482577  0.83522047  1
  Ni  Ni45  1  0.83546070  0.16691741  0.50120784  1
  Ni  Ni46  1  0.66777284  0.00168632  0.66786679  1
  Ni  Ni47  1  0.83439159  0.16772517  0.83521995  1
  Ni  Ni48  1  0.83438656  0.50150328  0.50276300  1
  Ni  Ni49  1  0.66802921  0.33464942  0.66799210  1
  Ni  Ni50  1  0.83438628  0.50152724  0.83473934  1
  Ni  Ni51  1  0.83356906  0.83540531  0.50146227  1
  Ni  Ni52  1  0.66795661  0.66749011  0.66767005  1
  Ni  Ni53  1  0.83463712  0.83457378  0.83500977  1
" 