7241,Ni89Fe7Cr3_15,-238.88507759043, 181.651618569505,Ni89Fe7Cr3,"# generated using pymatgen
 data_CrFeNi16
_symmetry_space_group_name_H-M   'P 1'
_cell_length_a   7.45211798
_cell_length_b   7.45211798
_cell_length_c   10.53888632
_cell_angle_alpha   90.00000000
_cell_angle_beta   90.00000000
_cell_angle_gamma   90.00000000
_symmetry_Int_Tables_number   1
_chemical_formula_structural   CrFeNi16
_chemical_formula_sum   'Cr3 Fe3 Ni48'
_cell_volume   585.26717122
_cell_formula_units_Z   3
loop_
 _symmetry_equiv_pos_site_id
 _symmetry_equiv_pos_as_xyz
  1  'x, y, z'
loop_
 _atom_site_type_symbol
 _atom_site_label
 _atom_site_symmetry_multiplicity
 _atom_site_fract_x
 _atom_site_fract_y
 _atom_site_fract_z
 _atom_site_occupancy
  Ni  Ni0  1  1.00096020  1.00087316  0.00180191  1
  Ni  Ni1  1  0.16801489  0.16747718  0.16764730  1
  Fe  Fe2  1  1.00067355  0.00143268  0.33360860  1
  Ni  Ni3  1  0.00276588  0.33412925  1.00067949  1
  Ni  Ni4  1  0.16774866  0.50076970  0.16746190  1
  Ni  Ni5  1  0.00218339  0.33405053  0.33374072  1
  Ni  Ni6  1  0.00142037  0.66804875  1.00028527  1
  Ni  Ni7  1  0.16832526  0.83478509  0.16708270  1
  Ni  Ni8  1  0.00132406  0.66719642  0.33287499  1
  Ni  Ni9  1  0.33416784  1.00079526  1.00024619  1
  Ni  Ni10  1  0.49992992  0.16660218  0.16751892  1
  Ni  Ni11  1  0.33619090  0.00190144  0.33427065  1
  Ni  Ni12  1  0.33244320  0.33442656  0.00142577  1
  Ni  Ni13  1  0.50036920  0.50180736  0.16900997  1
  Ni  Ni14  1  0.33390907  0.33376967  0.33439322  1
  Ni  Ni15  1  0.33397699  0.66784063  0.00143655  1
  Ni  Ni16  1  0.50071265  0.83458979  0.16754463  1
  Ni  Ni17  1  0.33442599  0.66735782  0.33362800  1
  Ni  Ni18  1  0.66789743  0.99937816  0.00102650  1
  Ni  Ni19  1  0.83512264  0.16706752  0.16873063  1
  Ni  Ni20  1  0.66700935  0.00111655  0.33438636  1
  Cr  Cr21  1  0.66786800  0.33414745  0.00118486  1
  Ni  Ni22  1  0.83489870  0.50159653  0.16789550  1
  Ni  Ni23  1  0.66687415  0.33255626  0.33391428  1
  Ni  Ni24  1  0.66760515  0.66969866  0.00106874  1
  Ni  Ni25  1  0.83402560  0.83436644  0.16758457  1
  Ni  Ni26  1  0.66716407  0.66941936  0.33372101  1
  Ni  Ni27  1  0.16776003  0.16912275  0.50088378  1
  Ni  Ni28  1  0.99930668  0.00177009  0.66743259  1
  Ni  Ni29  1  0.16696137  0.16741310  0.83437251  1
  Ni  Ni30  1  0.16931834  0.49927365  0.50129146  1
  Ni  Ni31  1  0.00243580  0.33293138  0.66853939  1
  Ni  Ni32  1  0.16833113  0.50047855  0.83421136  1
  Cr  Cr33  1  0.16774403  0.83400525  0.50120946  1
  Ni  Ni34  1  0.00172696  0.66841103  0.66980151  1
  Ni  Ni35  1  0.16814799  0.83512057  0.83454875  1
  Ni  Ni36  1  0.50098785  0.16767364  0.50178632  1
  Fe  Fe37  1  0.33472186  0.00145725  0.66824931  1
  Fe  Fe38  1  0.50028719  0.16714879  0.83399311  1
  Ni  Ni39  1  0.49970134  0.50094324  0.50051162  1
  Ni  Ni40  1  0.33400044  0.33488351  0.66725860  1
  Ni  Ni41  1  0.50027472  0.50258354  0.83350146  1
  Ni  Ni42  1  0.50231871  0.83432095  0.50097711  1
  Ni  Ni43  1  0.33489947  0.66619598  0.66788290  1
  Ni  Ni44  1  0.50086787  0.83364523  0.83437123  1
  Ni  Ni45  1  0.83425624  0.16648715  0.50075766  1
  Ni  Ni46  1  0.66833538  1.00091347  0.66764127  1
  Ni  Ni47  1  0.83606649  0.16679730  0.83350097  1
  Cr  Cr48  1  0.83395710  0.50098815  0.50205303  1
  Ni  Ni49  1  0.66644768  0.33265836  0.66817978  1
  Ni  Ni50  1  0.83440624  0.50125022  0.83336153  1
  Ni  Ni51  1  0.83248478  0.83603712  0.50118597  1
  Ni  Ni52  1  0.66639107  0.66937777  0.66820375  1
  Ni  Ni53  1  0.83394811  0.83500357  0.83421634  1
" 