8168,Ni89Cr11_7,-203.525716495499, 182.28906824726,Ni89Cr11,"# generated using pymatgen
 data_Cr8Ni
_symmetry_space_group_name_H-M   'P 1'
_cell_length_a   7.59323409
_cell_length_b   7.59323409
_cell_length_c   10.73845464
_cell_angle_alpha   90.00000000
_cell_angle_beta   90.00000000
_cell_angle_gamma   90.00000000
_symmetry_Int_Tables_number   1
_chemical_formula_structural   Cr8Ni
_chemical_formula_sum   'Cr48 Ni6'
_cell_volume   619.14926926
_cell_formula_units_Z   6
loop_
 _symmetry_equiv_pos_site_id
 _symmetry_equiv_pos_as_xyz
  1  'x, y, z'
loop_
 _atom_site_type_symbol
 _atom_site_label
 _atom_site_symmetry_multiplicity
 _atom_site_fract_x
 _atom_site_fract_y
 _atom_site_fract_z
 _atom_site_occupancy
  Cr  Cr0  1  -0.00756493  0.99139117  -0.00805880  1
  Cr  Cr1  1  0.15955656  0.15602151  0.15898616  1
  Cr  Cr2  1  -0.00719350  -0.00823700  0.32477357  1
  Cr  Cr3  1  -0.00685027  0.32587393  0.99134322  1
  Cr  Cr4  1  0.15955464  0.49364813  0.15855360  1
  Cr  Cr5  1  -0.00769928  0.32502505  0.32452450  1
  Cr  Cr6  1  -0.00633995  0.65780591  0.99071192  1
  Cr  Cr7  1  0.16137242  0.82540243  0.15835661  1
  Cr  Cr8  1  -0.00718732  0.65828446  0.32477378  1
  Ni  Ni9  1  0.32518217  0.98973326  -0.00811891  1
  Cr  Cr10  1  0.49049182  0.15727895  0.15772552  1
  Ni  Ni11  1  0.32598253  0.98877835  0.32594626  1
  Cr  Cr12  1  0.32416896  0.32587250  0.99008085  1
  Cr  Cr13  1  0.49112169  0.49301955  0.15835761  1
  Cr  Cr14  1  0.32464718  0.32502477  0.32540514  1
  Ni  Ni15  1  0.32406818  0.65936265  0.99076683  1
  Cr  Cr16  1  0.48804854  0.82477494  0.15815845  1
  Ni  Ni17  1  0.32597901  0.66126990  0.32594739  1
  Cr  Cr18  1  0.65723374  0.99138558  0.99156041  1
  Cr  Cr19  1  0.82502354  0.15911199  0.15835720  1
  Cr  Cr20  1  0.65639037  0.99053820  0.32600041  1
  Cr  Cr21  1  0.65775302  0.32464716  -0.00742808  1
  Cr  Cr22  1  0.82439506  0.49118795  0.15898769  1
  Cr  Cr23  1  0.65812552  0.32501861  0.32414337  1
  Cr  Cr24  1  0.65723642  0.65903940  -0.00805852  1
  Cr  Cr25  1  0.82565344  0.82477277  0.15772719  1
  Cr  Cr26  1  0.65639017  0.65951627  0.32600163  1
  Cr  Cr27  1  0.15888031  0.15707188  0.49083911  1
  Cr  Cr28  1  0.99106385  0.99156446  0.65835748  1
  Cr  Cr29  1  0.15907983  0.15844418  0.82524533  1
  Cr  Cr30  1  0.15888007  0.49259847  0.49127362  1
  Cr  Cr31  1  -0.00645024  0.32587649  0.65920700  1
  Ni  Ni32  1  0.15904790  0.49254240  0.82592662  1
  Cr  Cr33  1  0.16125095  0.82540173  0.48961345  1
  Cr  Cr34  1  -0.00770413  0.65763017  0.65959079  1
  Cr  Cr35  1  0.15968142  0.82383025  0.82710205  1
  Cr  Cr36  1  0.49096913  0.15656400  0.49147024  1
  Cr  Cr37  1  0.32625209  0.99159151  0.65712773  1
  Cr  Cr38  1  0.49116629  0.15793325  0.82587736  1
  Cr  Cr39  1  0.49159766  0.49373926  0.49083961  1
  Cr  Cr40  1  0.32379417  0.32587848  0.65959100  1
  Cr  Cr41  1  0.49002567  0.49216736  0.82587570  1
  Ni  Ni42  1  0.48988613  0.82512955  0.48967738  1
  Cr  Cr43  1  0.32502186  0.65760297  0.65835913  1
  Cr  Cr44  1  0.48993569  0.82497294  0.82666873  1
  Cr  Cr45  1  0.82522217  0.15893872  0.49231928  1
  Cr  Cr46  1  0.65775741  0.99033811  0.65750945  1
  Cr  Cr47  1  0.82482553  0.15854166  0.82439565  1
  Cr  Cr48  1  0.82459303  0.49136122  0.49168849  1
  Cr  Cr49  1  0.65772727  0.32464661  0.65835775  1
  Cr  Cr50  1  0.82596781  0.49156025  0.82439599  1
  Cr  Cr51  1  0.82408341  0.82477247  0.49269958  1
  Cr  Cr52  1  0.65775548  0.66008840  0.65712691  1
  Cr  Cr53  1  0.82545597  0.82497130  0.82464603  1
" 