303,Ni89Fe7Cr3_6,-238.852866458474, 182.740464967432,Ni89Fe7Cr3,"# generated using pymatgen
 data_CrFeNi16
_symmetry_space_group_name_H-M   'P 1'
_cell_length_a   7.45306476
_cell_length_b   7.45306476
_cell_length_c   10.54022527
_cell_angle_alpha   90.00000000
_cell_angle_beta   90.00000000
_cell_angle_gamma   90.00000000
_symmetry_Int_Tables_number   1
_chemical_formula_structural   CrFeNi16
_chemical_formula_sum   'Cr3 Fe3 Ni48'
_cell_volume   585.49027086
_cell_formula_units_Z   3
loop_
 _symmetry_equiv_pos_site_id
 _symmetry_equiv_pos_as_xyz
  1  'x, y, z'
loop_
 _atom_site_type_symbol
 _atom_site_label
 _atom_site_symmetry_multiplicity
 _atom_site_fract_x
 _atom_site_fract_y
 _atom_site_fract_z
 _atom_site_occupancy
  Ni  Ni0  1  0.00112980  0.00155385  0.00102076  1
  Ni  Ni1  1  0.16785638  0.16657495  0.16754944  1
  Ni  Ni2  1  0.00109245  0.99956117  0.33447896  1
  Ni  Ni3  1  0.00113067  0.33364127  1.00058159  1
  Ni  Ni4  1  0.16885746  0.50153231  0.16706612  1
  Cr  Cr5  1  1.00086914  0.33500857  0.33457332  1
  Ni  Ni6  1  0.00094286  0.66760587  0.00165518  1
  Ni  Ni7  1  0.16764551  0.83473184  0.16815787  1
  Ni  Ni8  1  0.00261358  0.66917631  0.33376412  1
  Ni  Ni9  1  0.33395253  1.00077303  1.00077706  1
  Fe  Fe10  1  0.50070992  0.16737110  0.16706214  1
  Ni  Ni11  1  0.33333142  0.99973630  0.33323962  1
  Ni  Ni12  1  0.33381042  0.33422490  0.00104710  1
  Ni  Ni13  1  0.49984324  0.49996998  0.16770057  1
  Ni  Ni14  1  0.33472716  0.33527494  0.33317981  1
  Ni  Ni15  1  0.33474268  0.66779973  0.00102495  1
  Ni  Ni16  1  0.49988125  0.83502332  0.16747775  1
  Ni  Ni17  1  0.33296139  0.66772970  0.33471477  1
  Ni  Ni18  1  0.66770977  1.00062913  0.00104887  1
  Ni  Ni19  1  0.83380396  0.16653621  0.16776590  1
  Ni  Ni20  1  0.66839309  0.00123442  0.33325245  1
  Ni  Ni21  1  0.66785449  0.33437149  0.00133386  1
  Ni  Ni22  1  0.83413310  0.50036646  0.16590123  1
  Ni  Ni23  1  0.66689068  0.33365739  0.33319639  1
  Ni  Ni24  1  0.66712243  0.66780057  1.00058095  1
  Ni  Ni25  1  0.83531832  0.83592392  0.16705618  1
  Cr  Cr26  1  0.66765600  0.66752029  0.33470370  1
  Fe  Fe27  1  0.16779113  0.16664462  0.50187446  1
  Ni  Ni28  1  0.00115599  1.00089332  0.66728523  1
  Ni  Ni29  1  0.16765425  0.16758742  0.83343640  1
  Ni  Ni30  1  0.16821120  0.50231623  0.50141014  1
  Ni  Ni31  1  0.00115688  0.33431585  0.66772940  1
  Ni  Ni32  1  0.16743603  0.50088616  0.83437025  1
  Ni  Ni33  1  0.16704436  0.83399596  0.50027617  1
  Ni  Ni34  1  0.00093883  0.66755139  0.66742778  1
  Ni  Ni35  1  0.16724364  0.83432402  0.83438152  1
  Cr  Cr36  1  0.50103063  0.16764022  0.50020698  1
  Ni  Ni37  1  0.33338328  0.99986269  0.66874746  1
  Ni  Ni38  1  0.50111291  0.16777835  0.83531168  1
  Ni  Ni39  1  0.49985809  0.50035344  0.50174287  1
  Ni  Ni40  1  0.33323366  0.33515261  0.66850072  1
  Ni  Ni41  1  0.50092287  0.50029689  0.83336982  1
  Ni  Ni42  1  0.49989780  0.83473311  0.50194942  1
  Ni  Ni43  1  0.33440879  0.66775283  0.66706406  1
  Ni  Ni44  1  0.50092210  0.83474299  0.83336919  1
  Fe  Fe45  1  0.83431784  0.16661630  0.50188098  1
  Ni  Ni46  1  0.66828055  0.99968619  0.66851481  1
  Ni  Ni47  1  0.83404545  0.16758820  0.83343300  1
  Ni  Ni48  1  0.83474110  0.50113952  0.50257511  1
  Ni  Ni49  1  0.66843339  0.33533168  0.66825328  1
  Ni  Ni50  1  0.83445715  0.50069124  0.83436805  1
  Ni  Ni51  1  0.83587167  0.83517282  0.50137722  1
  Ni  Ni52  1  0.66747590  0.66775368  0.66750931  1
  Ni  Ni53  1  0.83465004  0.83451846  0.83437927  1
" 