7130,Ni89Fe9Cr1_17,-239.944361359897, 186.382232021022,Ni89Fe9Cr1,"# generated using pymatgen
 data_Cr(FeNi12)2
_symmetry_space_group_name_H-M   'P 1'
_cell_length_a   7.44883486
_cell_length_b   7.44883486
_cell_length_c   10.53424328
_cell_angle_alpha   90.00000000
_cell_angle_beta   90.00000000
_cell_angle_gamma   90.00000000
_symmetry_Int_Tables_number   1
_chemical_formula_structural   Cr(FeNi12)2
_chemical_formula_sum   'Cr2 Fe4 Ni48'
_cell_volume   584.49397168
_cell_formula_units_Z   2
loop_
 _symmetry_equiv_pos_site_id
 _symmetry_equiv_pos_as_xyz
  1  'x, y, z'
loop_
 _atom_site_type_symbol
 _atom_site_label
 _atom_site_symmetry_multiplicity
 _atom_site_fract_x
 _atom_site_fract_y
 _atom_site_fract_z
 _atom_site_occupancy
  Ni  Ni0  1  1.00121689  1.00099615  0.00197794  1
  Ni  Ni1  1  0.16586902  0.16803394  0.16792170  1
  Ni  Ni2  1  0.00133445  0.00134641  0.33391819  1
  Ni  Ni3  1  0.00122455  0.33450500  0.00170697  1
  Ni  Ni4  1  0.16707755  0.50125834  0.16788939  1
  Ni  Ni5  1  0.00125371  0.33424654  0.33421587  1
  Ni  Ni6  1  1.00121684  0.66816471  0.00156232  1
  Ni  Ni7  1  0.16586757  0.83437527  0.16788852  1
  Ni  Ni8  1  0.00133140  0.66807802  0.33414474  1
  Ni  Ni9  1  0.33284685  1.00108856  0.99955750  1
  Cr  Cr10  1  0.50140253  0.16894789  0.16831019  1
  Ni  Ni11  1  0.33270757  0.00125548  0.33628991  1
  Ni  Ni12  1  0.33403298  0.33560487  1.00073425  1
  Ni  Ni13  1  0.50146584  0.50097871  0.16813478  1
  Ni  Ni14  1  0.33380093  0.33534702  0.33508898  1
  Ni  Ni15  1  0.33395452  0.66697481  1.00061487  1
  Cr  Cr16  1  0.50098013  0.83367660  0.16704697  1
  Ni  Ni17  1  0.33381430  0.66706331  0.33504327  1
  Ni  Ni18  1  0.66960382  1.00107968  0.99955765  1
  Ni  Ni19  1  0.83633182  0.16831295  0.16764405  1
  Ni  Ni20  1  0.66963164  0.00132991  0.33621975  1
  Ni  Ni21  1  0.66841050  0.33560241  1.00073219  1
  Ni  Ni22  1  0.83512416  0.50097963  0.16761178  1
  Ni  Ni23  1  0.66860853  0.33534978  0.33504591  1
  Ni  Ni24  1  0.66849572  0.66698510  1.00061579  1
  Ni  Ni25  1  0.83661014  0.83437542  0.16841251  1
  Ni  Ni26  1  0.66852253  0.66698710  0.33497923  1
  Ni  Ni27  1  0.16824305  0.16783547  0.50135239  1
  Ni  Ni28  1  0.00133747  1.00111606  0.66777355  1
  Fe  Fe29  1  0.16854741  0.16789896  0.83461394  1
  Ni  Ni30  1  0.16655317  0.50150086  0.50131971  1
  Ni  Ni31  1  0.00125519  0.33473744  0.66774582  1
  Ni  Ni32  1  0.16723141  0.50168614  0.83445811  1
  Ni  Ni33  1  0.16916509  0.83433085  0.50110685  1
  Ni  Ni34  1  0.00133183  0.66781620  0.66796146  1
  Ni  Ni35  1  0.16800087  0.83414687  0.83467201  1
  Ni  Ni36  1  0.50170755  0.16642855  0.50103089  1
  Ni  Ni37  1  0.33463069  1.00111622  0.66782031  1
  Ni  Ni38  1  0.50146756  0.16734497  0.83446885  1
  Fe  Fe39  1  0.50069658  0.50070011  0.50109232  1
  Ni  Ni40  1  0.33455622  0.33458211  0.66784692  1
  Ni  Ni41  1  0.50146534  0.50049566  0.83436098  1
  Ni  Ni42  1  0.50052342  0.83601122  0.50158822  1
  Ni  Ni43  1  0.33448403  0.66796753  0.66800705  1
  Ni  Ni44  1  0.50118681  0.83582611  0.83474684  1
  Ni  Ni45  1  0.83371629  0.16903366  0.50135220  1
  Ni  Ni46  1  0.66770392  1.00119147  0.66788956  1
  Fe  Fe47  1  0.83390208  0.16784376  0.83455908  1
  Ni  Ni48  1  0.83539095  0.50031431  0.50131953  1
  Ni  Ni49  1  0.66785333  0.33458648  0.66788909  1
  Ni  Ni50  1  0.83497054  0.50140495  0.83473607  1
  Fe  Fe51  1  0.83502728  0.83512332  0.50121947  1
  Ni  Ni52  1  0.66785164  0.66788962  0.66807151  1
  Ni  Ni53  1  0.83448003  0.83414374  0.83414832  1
" 