3737,Ni89Cr11_14,-203.549989715506, 181.845617310555,Ni89Cr11,"# generated using pymatgen
 data_Cr8Ni
_symmetry_space_group_name_H-M   'P 1'
_cell_length_a   7.59210426
_cell_length_b   7.59210426
_cell_length_c   10.73685681
_cell_angle_alpha   90.00000000
_cell_angle_beta   90.00000000
_cell_angle_gamma   90.00000000
_symmetry_Int_Tables_number   1
_chemical_formula_structural   Cr8Ni
_chemical_formula_sum   'Cr48 Ni6'
_cell_volume   618.87293199
_cell_formula_units_Z   6
loop_
 _symmetry_equiv_pos_site_id
 _symmetry_equiv_pos_as_xyz
  1  'x, y, z'
loop_
 _atom_site_type_symbol
 _atom_site_label
 _atom_site_symmetry_multiplicity
 _atom_site_fract_x
 _atom_site_fract_y
 _atom_site_fract_z
 _atom_site_occupancy
  Cr  Cr0  1  0.99108423  0.99108550  -0.00814616  1
  Cr  Cr1  1  0.15861593  0.16133065  0.16025824  1
  Cr  Cr2  1  0.99089793  -0.00763146  0.32488942  1
  Cr  Cr3  1  -0.00778890  0.32589094  -0.00774133  1
  Ni  Ni4  1  0.15810379  0.49015164  0.16006711  1
  Ni  Ni5  1  -0.00535967  0.32584478  0.32405114  1
  Cr  Cr6  1  -0.00776591  0.65831673  -0.00699326  1
  Cr  Cr7  1  0.15753997  0.82374010  0.15795787  1
  Cr  Cr8  1  -0.00795240  0.65738520  0.32338208  1
  Cr  Cr9  1  0.32520742  0.99164882  0.99128964  1
  Cr  Cr10  1  0.49096332  0.15852546  0.15851857  1
  Cr  Cr11  1  0.32504802  -0.00706668  0.32509766  1
  Cr  Cr12  1  0.32465008  0.32589664  -0.00779026  1
  Cr  Cr13  1  0.48989370  0.49136641  0.15892344  1
  Ni  Ni14  1  0.32311430  0.32688875  0.32527523  1
  Cr  Cr15  1  0.32406264  0.65774672  -0.00755679  1
  Cr  Cr16  1  0.49320029  0.82539902  0.15772238  1
  Cr  Cr17  1  0.32504866  0.65567131  0.32509927  1
  Cr  Cr18  1  0.65900184  0.99167148  -0.00719799  1
  Cr  Cr19  1  0.82571118  0.15803505  0.15910947  1
  Cr  Cr20  1  0.65934893  0.99129733  0.32417441  1
  Cr  Cr21  1  0.65843003  0.32474576  0.99069846  1
  Cr  Cr22  1  0.82736915  0.49244638  0.15851854  1
  Cr  Cr23  1  0.65763285  0.32554396  0.32624919  1
  Cr  Cr24  1  0.65899649  0.65887511  -0.00755432  1
  Ni  Ni25  1  0.82522546  0.82501776  0.15818114  1
  Cr  Cr26  1  0.65819805  0.65845143  0.32568386  1
  Cr  Cr27  1  0.15903974  0.16028264  0.49108875  1
  Cr  Cr28  1  -0.00795716  0.99169665  0.65854860  1
  Cr  Cr29  1  0.15923100  0.15888039  0.82394300  1
  Cr  Cr30  1  0.16010562  0.48961206  0.49068674  1
  Cr  Cr31  1  -0.00745819  0.32474665  0.65908854  1
  Cr  Cr32  1  0.15864343  0.49119875  0.82493777  1
  Cr  Cr33  1  0.15848024  0.82539788  0.49282854  1
  Cr  Cr34  1  -0.00794886  0.65884939  0.65890502  1
  Cr  Cr35  1  0.15866673  0.82521317  0.82450647  1
  Cr  Cr36  1  0.49016520  0.16078974  0.49165027  1
  Cr  Cr37  1  0.32451545  -0.00722227  0.65890433  1
  Cr  Cr38  1  0.49096284  0.15887513  0.82512250  1
  Ni  Ni39  1  0.49002108  0.49002028  0.49216788  1
  Ni  Ni40  1  0.32614021  0.32599367  0.65750840  1
  Cr  Cr41  1  0.49155130  0.49120461  0.82412770  1
  Cr  Cr42  1  0.49187937  0.82373624  0.49188204  1
  Cr  Cr43  1  0.32565856  0.65661904  0.65775159  1
  Cr  Cr44  1  0.49153395  0.82521250  0.82568810  1
  Cr  Cr45  1  0.82608571  0.15916259  0.49108551  1
  Cr  Cr46  1  0.65873450  -0.00771304  0.65831440  1
  Cr  Cr47  1  0.82509750  0.15889787  0.82509761  1
  Cr  Cr48  1  0.82442456  0.49131795  0.49167608  1
  Cr  Cr49  1  0.65650342  0.32588965  0.65834342  1
  Cr  Cr50  1  0.82509717  0.49176944  0.82509718  1
  Cr  Cr51  1  0.82493233  0.82481119  0.49183329  1
  Cr  Cr52  1  0.65758308  0.65711613  0.65716112  1
  Cr  Cr53  1  0.82509158  0.82462462  0.82514589  1
" 