7668,Ni89Fe7Cr3_17,-238.9013171364, 180.396522373783,Ni89Fe7Cr3,"# generated using pymatgen
 data_CrFeNi16
_symmetry_space_group_name_H-M   'P 1'
_cell_length_a   7.45299575
_cell_length_b   7.45299575
_cell_length_c   10.54012767
_cell_angle_alpha   90.00000000
_cell_angle_beta   90.00000000
_cell_angle_gamma   90.00000000
_symmetry_Int_Tables_number   1
_chemical_formula_structural   CrFeNi16
_chemical_formula_sum   'Cr3 Fe3 Ni48'
_cell_volume   585.47400670
_cell_formula_units_Z   3
loop_
 _symmetry_equiv_pos_site_id
 _symmetry_equiv_pos_as_xyz
  1  'x, y, z'
loop_
 _atom_site_type_symbol
 _atom_site_label
 _atom_site_symmetry_multiplicity
 _atom_site_fract_x
 _atom_site_fract_y
 _atom_site_fract_z
 _atom_site_occupancy
  Fe  Fe0  1  0.00116372  1.00077184  0.00119899  1
  Ni  Ni1  1  0.16751396  0.16776805  0.16738587  1
  Ni  Ni2  1  1.00018946  0.00098141  0.33368752  1
  Ni  Ni3  1  0.00228101  0.33461282  0.00110837  1
  Ni  Ni4  1  0.16755976  0.50083137  0.16724460  1
  Ni  Ni5  1  0.00123565  0.33389797  0.33400497  1
  Ni  Ni6  1  0.00143876  0.66736107  1.00088707  1
  Ni  Ni7  1  0.16743100  0.83428715  0.16831323  1
  Ni  Ni8  1  0.00152475  0.66797064  0.33454936  1
  Ni  Ni9  1  0.33477642  1.00068402  0.00122958  1
  Ni  Ni10  1  0.49974883  0.16651194  0.16854496  1
  Fe  Fe11  1  0.33440866  0.00115262  0.33409277  1
  Ni  Ni12  1  0.33169072  0.33290854  0.00152653  1
  Ni  Ni13  1  0.49979442  0.50208271  0.16856886  1
  Ni  Ni14  1  0.33403232  0.33479936  0.33391845  1
  Ni  Ni15  1  0.33255581  0.66922893  0.00188700  1
  Ni  Ni16  1  0.50115924  0.83421016  0.16727259  1
  Ni  Ni17  1  0.33390595  0.66734822  0.33384054  1
  Ni  Ni18  1  0.66713890  0.99985962  1.00077290  1
  Ni  Ni19  1  0.83555244  0.16633686  0.16866022  1
  Ni  Ni20  1  0.66819097  0.00112780  0.33401293  1
  Cr  Cr21  1  0.66936533  0.33215390  0.00253797  1
  Ni  Ni22  1  0.83551142  0.50226733  0.16888811  1
  Ni  Ni23  1  0.66754427  0.33339353  0.33441717  1
  Ni  Ni24  1  0.66884594  0.67046283  0.00188702  1
  Ni  Ni25  1  0.83428130  0.83423432  0.16737585  1
  Ni  Ni26  1  0.66738505  0.66833023  0.33391204  1
  Ni  Ni27  1  0.16729166  0.16817996  0.50103427  1
  Ni  Ni28  1  1.00083171  0.00099779  0.66817456  1
  Ni  Ni29  1  0.16765904  0.16745983  0.83432211  1
  Ni  Ni30  1  0.16672875  0.49908855  0.50037920  1
  Ni  Ni31  1  0.00103408  0.33404053  0.66767475  1
  Ni  Ni32  1  0.16512768  0.49994668  0.83514304  1
  Fe  Fe33  1  0.16618471  0.83528564  0.50018762  1
  Ni  Ni34  1  0.99980465  0.66777210  0.66745637  1
  Ni  Ni35  1  0.16668766  0.83547196  0.83439468  1
  Ni  Ni36  1  0.50043830  0.16723545  0.50124341  1
  Ni  Ni37  1  0.33428643  0.00220670  0.66708337  1
  Ni  Ni38  1  0.49965833  0.16488103  0.83296831  1
  Ni  Ni39  1  0.50139517  0.50052926  0.50001309  1
  Ni  Ni40  1  0.33306134  0.33197989  0.66740620  1
  Cr  Cr41  1  0.50095775  0.50104925  0.83437203  1
  Ni  Ni42  1  0.50275383  0.83512243  0.50026488  1
  Cr  Cr43  1  0.33262760  0.66886369  0.66695635  1
  Ni  Ni44  1  0.50177428  0.83674130  0.83511678  1
  Ni  Ni45  1  0.83505895  0.16683213  0.50092552  1
  Ni  Ni46  1  0.66768548  0.00108126  0.66799182  1
  Ni  Ni47  1  0.83557571  0.16644318  0.83329535  1
  Ni  Ni48  1  0.83468775  0.50146988  0.50100530  1
  Ni  Ni49  1  0.66873219  0.33270462  0.66631799  1
  Ni  Ni50  1  0.83689724  0.50210598  0.83294773  1
  Ni  Ni51  1  0.83370996  0.83454680  0.50112373  1
  Ni  Ni52  1  0.66972333  0.66904907  0.66704499  1
  Ni  Ni53  1  0.83430609  0.83424552  0.83433682  1
" 