4222,Ni89Fe8Cr1_0,-239.938696351899, 186.112812637406,Ni89Fe8Cr1,"# generated using pymatgen
 data_Cr(FeNi12)2
_symmetry_space_group_name_H-M   'P 1'
_cell_length_a   7.44755115
_cell_length_b   7.44755115
_cell_length_c   10.53242785
_cell_angle_alpha   90.00000000
_cell_angle_beta   90.00000000
_cell_angle_gamma   90.00000000
_symmetry_Int_Tables_number   1
_chemical_formula_structural   Cr(FeNi12)2
_chemical_formula_sum   'Cr2 Fe4 Ni48'
_cell_volume   584.19183479
_cell_formula_units_Z   2
loop_
 _symmetry_equiv_pos_site_id
 _symmetry_equiv_pos_as_xyz
  1  'x, y, z'
loop_
 _atom_site_type_symbol
 _atom_site_label
 _atom_site_symmetry_multiplicity
 _atom_site_fract_x
 _atom_site_fract_y
 _atom_site_fract_z
 _atom_site_occupancy
  Ni  Ni0  1  1.00102132  0.00140398  1.00107224  1
  Ni  Ni1  1  0.16808753  0.16869586  0.16884255  1
  Ni  Ni2  1  1.00101859  0.00170170  0.33470267  1
  Fe  Fe3  1  0.00250590  0.33415172  0.00175781  1
  Ni  Ni4  1  0.16807005  0.50087915  0.16785006  1
  Ni  Ni5  1  0.00147270  0.33452650  0.33393383  1
  Ni  Ni6  1  0.00203079  0.66811711  1.00112468  1
  Fe  Fe7  1  0.16776327  0.83491847  0.16783281  1
  Ni  Ni8  1  1.00094556  0.66771089  0.33435573  1
  Ni  Ni9  1  0.33455487  0.00253841  0.00133992  1
  Ni  Ni10  1  0.50089776  0.16746531  0.16784399  1
  Ni  Ni11  1  0.33484216  0.00184378  0.33403902  1
  Ni  Ni12  1  0.33434039  0.33432553  1.00099688  1
  Ni  Ni13  1  0.49939170  0.50047756  0.16939527  1
  Ni  Ni14  1  0.33456112  0.33452598  0.33509904  1
  Ni  Ni15  1  0.33334701  0.66706762  0.00139362  1
  Ni  Ni16  1  0.50066814  0.83590037  0.16908153  1
  Ni  Ni17  1  0.33492139  0.66756043  0.33368892  1
  Ni  Ni18  1  0.66830659  0.00245101  1.00126180  1
  Ni  Ni19  1  0.83499077  0.16720325  0.16781229  1
  Ni  Ni20  1  0.66806749  1.00127321  0.33416009  1
  Fe  Fe21  1  0.66710621  0.33361839  0.00162040  1
  Ni  Ni22  1  0.83649900  0.50079752  0.16928522  1
  Ni  Ni23  1  0.66790610  0.33466147  0.33368479  1
  Cr  Cr24  1  0.66773909  0.66883063  1.00126707  1
  Ni  Ni25  1  0.83533347  0.83579126  0.16936291  1
  Ni  Ni26  1  0.66803320  0.66794814  0.33492542  1
  Fe  Fe27  1  0.16892732  0.16679823  0.50031298  1
  Ni  Ni28  1  1.00129078  0.99983790  0.66822952  1
  Ni  Ni29  1  0.16899845  0.16695741  0.83457822  1
  Ni  Ni30  1  0.16898475  0.50335368  0.50039581  1
  Cr  Cr31  1  0.00198014  0.33426231  0.66774469  1
  Ni  Ni32  1  0.16898783  0.50235604  0.83553125  1
  Ni  Ni33  1  0.16804142  0.83363976  0.50082422  1
  Ni  Ni34  1  1.00118563  0.66936402  0.66852646  1
  Ni  Ni35  1  0.16794181  0.83451110  0.83551765  1
  Ni  Ni36  1  0.50215724  0.16779724  0.50119020  1
  Ni  Ni37  1  0.33456168  0.00163408  0.66857626  1
  Ni  Ni38  1  0.50118533  0.16771326  0.83492962  1
  Ni  Ni39  1  0.50061536  0.50094195  0.50118383  1
  Ni  Ni40  1  0.33630794  0.33452861  0.66781619  1
  Ni  Ni41  1  0.49968909  0.50024270  0.83342002  1
  Ni  Ni42  1  0.50071953  0.83517347  0.50130745  1
  Ni  Ni43  1  0.33469473  0.66774832  0.66889973  1
  Ni  Ni44  1  0.50000029  0.83589319  0.83355135  1
  Ni  Ni45  1  0.83275710  0.16687355  0.50002155  1
  Ni  Ni46  1  0.66808670  0.00139752  0.66850029  1
  Ni  Ni47  1  0.83379747  0.16663162  0.83602550  1
  Ni  Ni48  1  0.83438108  0.50180729  0.50004510  1
  Ni  Ni49  1  0.66654333  0.33464508  0.66887877  1
  Ni  Ni50  1  0.83523601  0.50133230  0.83462025  1
  Ni  Ni51  1  0.83518635  0.83520591  0.50154998  1
  Ni  Ni52  1  0.66804989  0.66783116  0.66774352  1
  Ni  Ni53  1  0.83595211  0.83581857  0.83303054  1
" 