5458,Ni89Cr11_6,-203.641266667895, 185.497713328377,Ni89Cr11,"# generated using pymatgen
 data_Cr8Ni
_symmetry_space_group_name_H-M   'P 1'
_cell_length_a   7.58955130
_cell_length_b   7.58955130
_cell_length_c   10.73324638
_cell_angle_alpha   90.00000000
_cell_angle_beta   90.00000000
_cell_angle_gamma   90.00000000
_symmetry_Int_Tables_number   1
_chemical_formula_structural   Cr8Ni
_chemical_formula_sum   'Cr48 Ni6'
_cell_volume   618.24882528
_cell_formula_units_Z   6
loop_
 _symmetry_equiv_pos_site_id
 _symmetry_equiv_pos_as_xyz
  1  'x, y, z'
loop_
 _atom_site_type_symbol
 _atom_site_label
 _atom_site_symmetry_multiplicity
 _atom_site_fract_x
 _atom_site_fract_y
 _atom_site_fract_z
 _atom_site_occupancy
  Cr  Cr0  1  0.99109276  0.99134740  0.99181394  1
  Cr  Cr1  1  0.15795913  0.16014859  0.15752035  1
  Cr  Cr2  1  0.99191775  0.99136626  0.32529307  1
  Ni  Ni3  1  0.99179778  0.32492247  0.99177526  1
  Cr  Cr4  1  0.15736263  0.49085629  0.15676556  1
  Cr  Cr5  1  -0.00762018  0.32516659  0.32499773  1
  Cr  Cr6  1  0.99103365  0.65967862  0.99176106  1
  Cr  Cr7  1  0.16072343  0.82474144  0.15880367  1
  Cr  Cr8  1  0.99192608  0.65927636  0.32493304  1
  Cr  Cr9  1  0.32531429  -0.00622704  0.99114442  1
  Cr  Cr10  1  0.49243918  0.15743618  0.15842400  1
  Cr  Cr11  1  0.32374013  -0.00658350  0.32497051  1
  Cr  Cr12  1  0.32663816  0.32526953  0.99062393  1
  Cr  Cr13  1  0.49243966  0.49303223  0.15876205  1
  Cr  Cr14  1  0.32629637  0.32614042  0.32608594  1
  Cr  Cr15  1  0.32572886  0.65677988  0.99117975  1
  Cr  Cr16  1  0.49185729  0.82531749  0.15929580  1
  Cr  Cr17  1  0.32484041  0.65616439  0.32617005  1
  Cr  Cr18  1  0.65947190  -0.00728494  0.99003425  1
  Cr  Cr19  1  0.82537443  0.16066681  0.15827874  1
  Cr  Cr20  1  0.66013076  -0.00703424  0.32496995  1
  Cr  Cr21  1  0.65701918  0.32526153  0.99099873  1
  Cr  Cr22  1  0.82596075  0.49035001  0.15752359  1
  Cr  Cr23  1  0.65707383  0.32620187  0.32614034  1
  Cr  Cr24  1  0.65911285  0.65788493  0.99002200  1
  Cr  Cr25  1  0.82321734  0.82474085  0.15839678  1
  Cr  Cr26  1  0.65898394  0.65655966  0.32621700  1
  Cr  Cr27  1  0.15754196  0.15970553  0.49339140  1
  Cr  Cr28  1  0.99099435  0.99130617  0.65877890  1
  Cr  Cr29  1  0.15776228  0.16068302  0.82480773  1
  Cr  Cr30  1  0.15779677  0.49093747  0.49335233  1
  Ni  Ni31  1  0.99182148  0.32536669  0.65880612  1
  Cr  Cr32  1  0.15723581  0.49032726  0.82557934  1
  Cr  Cr33  1  0.16024494  0.82524111  0.49212190  1
  Cr  Cr34  1  0.99088335  0.65950822  0.65918788  1
  Cr  Cr35  1  0.15911226  0.82474078  0.82485085  1
  Cr  Cr36  1  0.49243442  0.15768153  0.49184330  1
  Cr  Cr37  1  0.32557943  -0.00620364  0.65963395  1
  Ni  Ni38  1  0.49228761  0.16080511  0.82537308  1
  Ni  Ni39  1  0.49198000  0.49193751  0.49200479  1
  Cr  Cr40  1  0.32733390  0.32607128  0.65906840  1
  Ni  Ni41  1  0.49228448  0.48997598  0.82493261  1
  Cr  Cr42  1  0.49184404  0.82456564  0.49091814  1
  Cr  Cr43  1  0.32666273  0.65584362  0.65842424  1
  Cr  Cr44  1  0.49247524  0.82542740  0.82557341  1
  Cr  Cr45  1  0.82581127  0.16021029  0.49262957  1
  Cr  Cr46  1  0.65932591  -0.00744913  0.66087710  1
  Cr  Cr47  1  0.82599221  0.16048313  0.82481182  1
  Cr  Cr48  1  0.82531820  0.49042200  0.49259750  1
  Cr  Cr49  1  0.65623542  0.32617975  0.65861238  1
  Cr  Cr50  1  0.82652896  0.49076103  0.82557563  1
  Cr  Cr51  1  0.82370707  0.82524607  0.49250963  1
  Cr  Cr52  1  0.65829490  0.65703362  0.65966726  1
  Ni  Ni53  1  0.82486903  0.82520286  0.82535962  1
" 