8022,Ni89Fe4Cr6_9,-237.743420865293, 175.546921054389,Ni89Fe4Cr6,"# generated using pymatgen
 data_Cr2FeNi24
_symmetry_space_group_name_H-M   'P 1'
_cell_length_a   7.45918524
_cell_length_b   7.45918524
_cell_length_c   10.54888093
_cell_angle_alpha   90.00000000
_cell_angle_beta   90.00000000
_cell_angle_gamma   90.00000000
_symmetry_Int_Tables_number   1
_chemical_formula_structural   Cr2FeNi24
_chemical_formula_sum   'Cr4 Fe2 Ni48'
_cell_volume   586.93387370
_cell_formula_units_Z   2
loop_
 _symmetry_equiv_pos_site_id
 _symmetry_equiv_pos_as_xyz
  1  'x, y, z'
loop_
 _atom_site_type_symbol
 _atom_site_label
 _atom_site_symmetry_multiplicity
 _atom_site_fract_x
 _atom_site_fract_y
 _atom_site_fract_z
 _atom_site_occupancy
  Fe  Fe0  1  0.00122600  0.00088529  1.00013925  1
  Ni  Ni1  1  0.16857151  0.16817702  0.16698566  1
  Cr  Cr2  1  0.00209364  0.00101164  0.33409143  1
  Ni  Ni3  1  0.00177189  0.33348815  0.00148980  1
  Ni  Ni4  1  0.16711428  0.50058394  0.16699774  1
  Ni  Ni5  1  0.00087353  0.33535438  0.33386125  1
  Ni  Ni6  1  0.00288491  0.66746202  0.00149985  1
  Ni  Ni7  1  0.16856930  0.83286329  0.16678792  1
  Ni  Ni8  1  0.00072496  0.66569294  0.33363944  1
  Ni  Ni9  1  0.33443269  0.00067710  0.00094826  1
  Ni  Ni10  1  0.49954594  0.16785921  0.16647193  1
  Ni  Ni11  1  0.33382055  0.00068085  0.33388652  1
  Ni  Ni12  1  0.33331259  0.33368184  1.00029251  1
  Ni  Ni13  1  0.49961436  0.49955813  0.16832935  1
  Ni  Ni14  1  0.33337831  0.33384784  0.33359586  1
  Ni  Ni15  1  0.33192403  0.66719532  1.00028986  1
  Ni  Ni16  1  0.49862659  0.83408711  0.16738043  1
  Ni  Ni17  1  0.33355671  0.66705752  0.33335523  1
  Ni  Ni18  1  0.66680645  0.00186557  1.00034634  1
  Ni  Ni19  1  0.83361672  0.16936283  0.16542864  1
  Cr  Cr20  1  0.66611400  0.00059296  0.33364083  1
  Ni  Ni21  1  0.66645411  0.33118219  0.00151024  1
  Ni  Ni22  1  0.83482516  0.49962227  0.16848776  1
  Ni  Ni23  1  0.66725944  0.33517574  0.33341157  1
  Cr  Cr24  1  0.66576153  0.66782179  0.00123652  1
  Ni  Ni25  1  0.83456804  0.83265797  0.16636474  1
  Ni  Ni26  1  0.66724909  0.66591352  0.33379386  1
  Ni  Ni27  1  0.16871431  0.16831459  0.50120377  1
  Ni  Ni28  1  0.00062366  0.00069061  0.66768991  1
  Ni  Ni29  1  0.16773192  0.16727938  0.83346016  1
  Ni  Ni30  1  0.16640841  0.50064586  0.50061600  1
  Ni  Ni31  1  0.00170336  0.33297783  0.66623475  1
  Ni  Ni32  1  0.16848258  0.50059026  0.83400627  1
  Ni  Ni33  1  0.16868311  0.83263861  0.50117603  1
  Ni  Ni34  1  0.00160484  0.66795021  0.66641602  1
  Ni  Ni35  1  0.16774921  0.83374989  0.83368041  1
  Ni  Ni36  1  0.49957035  0.16731565  0.50112382  1
  Ni  Ni37  1  0.33374994  0.00067492  0.66675967  1
  Ni  Ni38  1  0.50039544  0.16687498  0.83397988  1
  Fe  Fe39  1  0.50013234  0.50047260  0.50059936  1
  Ni  Ni40  1  0.33337385  0.33375335  0.66770716  1
  Ni  Ni41  1  0.49823994  0.49951250  0.83258805  1
  Ni  Ni42  1  0.49942611  0.83376075  0.50112407  1
  Ni  Ni43  1  0.33352897  0.66716306  0.66792550  1
  Ni  Ni44  1  0.49941276  0.83514016  0.83299314  1
  Ni  Ni45  1  0.83334373  0.16957017  0.50251007  1
  Ni  Ni46  1  0.66718437  0.00054329  0.66755654  1
  Ni  Ni47  1  0.83352727  0.16606530  0.83373771  1
  Ni  Ni48  1  0.83437424  0.50049739  0.50002914  1
  Ni  Ni49  1  0.66636747  0.33280313  0.66665824  1
  Cr  Cr50  1  0.83505351  0.49948515  0.83286593  1
  Ni  Ni51  1  0.83351652  0.83155205  0.50246836  1
  Ni  Ni52  1  0.66636356  0.66823371  0.66629178  1
  Ni  Ni53  1  0.83450133  0.83584560  0.83279486  1
" 