2625,Ni89Fe11_12,-228.130447800584, 151.982001002555,Ni89Fe11,"# generated using pymatgen
 data_Fe8Ni
_symmetry_space_group_name_H-M   'P 1'
_cell_length_a   7.40648943
_cell_length_b   7.40648943
_cell_length_c   10.47435780
_cell_angle_alpha   90.00000000
_cell_angle_beta   90.00000000
_cell_angle_gamma   90.00000000
_symmetry_Int_Tables_number   1
_chemical_formula_structural   Fe8Ni
_chemical_formula_sum   'Fe48 Ni6'
_cell_volume   574.58226936
_cell_formula_units_Z   6
loop_
 _symmetry_equiv_pos_site_id
 _symmetry_equiv_pos_as_xyz
  1  'x, y, z'
loop_
 _atom_site_type_symbol
 _atom_site_label
 _atom_site_symmetry_multiplicity
 _atom_site_fract_x
 _atom_site_fract_y
 _atom_site_fract_z
 _atom_site_occupancy
  Fe  Fe0  1  0.00449058  1.00322842  1.00355547  1
  Fe  Fe1  1  0.17237904  0.17084120  0.17075437  1
  Fe  Fe2  1  1.00354605  1.00408561  0.33759363  1
  Fe  Fe3  1  0.00476178  0.33800779  1.00400401  1
  Fe  Fe4  1  0.17273958  0.50436040  0.17048631  1
  Fe  Fe5  1  1.00350230  0.33683492  0.33759376  1
  Fe  Fe6  1  0.00435499  0.67102809  1.00364414  1
  Fe  Fe7  1  0.17282936  0.83706264  0.17048321  1
  Fe  Fe8  1  1.00341157  0.67134408  0.33768223  1
  Fe  Fe9  1  0.33779113  1.00363393  0.00454447  1
  Ni  Ni10  1  0.50378823  0.17095010  0.17108200  1
  Fe  Fe11  1  0.33842197  0.00417506  0.33705341  1
  Fe  Fe12  1  0.33787922  0.33796176  0.00454112  1
  Ni  Ni13  1  0.50376186  0.50389259  0.17105537  1
  Fe  Fe14  1  0.33846233  0.33674702  0.33705675  1
  Ni  Ni15  1  0.33743956  0.67054149  1.00400379  1
  Ni  Ni16  1  0.50419064  0.83742216  0.17065422  1
  Fe  Fe17  1  0.33846425  0.67134257  0.33637871  1
  Fe  Fe18  1  0.66998498  1.00322877  0.00485889  1
  Fe  Fe19  1  0.83543282  0.17057070  0.17111114  1
  Ni  Ni20  1  0.67073432  0.00440488  0.33740476  1
  Fe  Fe21  1  0.66962294  0.33809574  0.00454456  1
  Fe  Fe22  1  0.83579370  0.50391338  0.17084272  1
  Fe  Fe23  1  0.67029794  0.33688019  0.33696653  1
  Fe  Fe24  1  0.67002787  0.67093936  0.00418444  1
  Fe  Fe25  1  0.83543442  0.83778152  0.17052634  1
  Fe  Fe26  1  0.67038721  0.67130136  0.33705346  1
  Fe  Fe27  1  0.17066740  0.17084149  0.50426355  1
  Fe  Fe28  1  1.00390582  1.00381628  0.67111417  1
  Fe  Fe29  1  0.16999433  0.17016831  0.83724678  1
  Fe  Fe30  1  0.17066961  0.50409072  0.50417222  1
  Fe  Fe31  1  0.00417573  0.33742149  0.67066677  1
  Fe  Fe32  1  0.17035220  0.50494574  0.83760491  1
  Fe  Fe33  1  0.17075847  0.83733234  0.50417485  1
  Fe  Fe34  1  1.00372873  0.67102652  0.67093679  1
  Fe  Fe35  1  0.17039976  0.83715003  0.83760548  1
  Fe  Fe36  1  0.50436119  0.17048236  0.50340486  1
  Fe  Fe37  1  0.33733665  0.00426348  0.67066680  1
  Fe  Fe38  1  0.50476472  0.17016605  0.83774684  1
  Fe  Fe39  1  0.50399985  0.50409086  0.50376361  1
  Fe  Fe40  1  0.33742518  0.33733284  0.67066958  1
  Fe  Fe41  1  0.50440438  0.50494596  0.83810458  1
  Fe  Fe42  1  0.50427100  0.83769202  0.50331548  1
  Fe  Fe43  1  0.33742532  0.67066815  0.67125531  1
  Fe  Fe44  1  0.50436301  0.83715206  0.83810544  1
  Fe  Fe45  1  0.83723615  0.17057134  0.50381583  1
  Fe  Fe46  1  0.67102363  1.00381486  0.67043834  1
  Fe  Fe47  1  0.83750571  0.17021068  0.83733818  1
  Fe  Fe48  1  0.83759498  0.50399985  0.50417491  1
  Fe  Fe49  1  0.67066364  0.33751019  0.67075539  1
  Fe  Fe50  1  0.83750790  0.50454210  0.83724680  1
  Fe  Fe51  1  0.83723501  0.83769449  0.50449149  1
  Fe  Fe52  1  0.67111156  0.67093886  0.67102634  1
  Ni  Ni53  1  0.83794938  0.83731715  0.83699680  1
" 