4017,Ni89Fe4Cr6_17,-237.772623984927, 176.479313290194,Ni89Fe4Cr6,"# generated using pymatgen
 data_Cr2FeNi24
_symmetry_space_group_name_H-M   'P 1'
_cell_length_a   7.45859236
_cell_length_b   7.45859236
_cell_length_c   10.54804247
_cell_angle_alpha   90.00000000
_cell_angle_beta   90.00000000
_cell_angle_gamma   90.00000000
_symmetry_Int_Tables_number   1
_chemical_formula_structural   Cr2FeNi24
_chemical_formula_sum   'Cr4 Fe2 Ni48'
_cell_volume   586.79393057
_cell_formula_units_Z   2
loop_
 _symmetry_equiv_pos_site_id
 _symmetry_equiv_pos_as_xyz
  1  'x, y, z'
loop_
 _atom_site_type_symbol
 _atom_site_label
 _atom_site_symmetry_multiplicity
 _atom_site_fract_x
 _atom_site_fract_y
 _atom_site_fract_z
 _atom_site_occupancy
  Ni  Ni0  1  0.00076497  0.00074648  1.00039167  1
  Ni  Ni1  1  0.16632247  0.16569072  0.16860859  1
  Ni  Ni2  1  1.00043831  1.00056527  0.33417333  1
  Ni  Ni3  1  0.99919964  0.33356481  1.00010858  1
  Ni  Ni4  1  0.16641743  0.50194659  0.16778597  1
  Ni  Ni5  1  0.00060921  0.33395158  0.33342962  1
  Ni  Ni6  1  1.00024533  0.66746661  1.00048597  1
  Ni  Ni7  1  0.16688598  0.83402877  0.16731134  1
  Ni  Ni8  1  0.00174620  0.66717925  0.33410256  1
  Ni  Ni9  1  0.33377276  0.99910961  1.00031103  1
  Ni  Ni10  1  0.50165765  0.16633367  0.16809934  1
  Ni  Ni11  1  0.33422675  1.00033266  0.33363645  1
  Cr  Cr12  1  0.33164030  0.33203398  0.00133612  1
  Ni  Ni13  1  0.50032485  0.50019211  0.16775423  1
  Ni  Ni14  1  0.33357236  0.33370912  0.33424748  1
  Ni  Ni15  1  0.33314560  0.66965217  0.00179991  1
  Ni  Ni16  1  0.49929609  0.83528367  0.16559931  1
  Ni  Ni17  1  0.33277691  0.66765387  0.33350818  1
  Ni  Ni18  1  0.66734043  1.00007279  0.00070014  1
  Ni  Ni19  1  0.83376800  0.16673477  0.16695731  1
  Ni  Ni20  1  0.66700347  0.00163080  0.33380873  1
  Ni  Ni21  1  0.66942623  0.33312572  0.00153789  1
  Ni  Ni22  1  0.83489399  0.49968620  0.16604693  1
  Ni  Ni23  1  0.66748512  0.33266113  0.33379337  1
  Ni  Ni24  1  0.66845851  0.66855143  0.00154169  1
  Ni  Ni25  1  0.83553920  0.83536024  0.16680058  1
  Cr  Cr26  1  0.66711611  0.66880774  0.33426815  1
  Fe  Fe27  1  0.16761035  0.16620985  0.49960572  1
  Ni  Ni28  1  1.00052845  0.99899766  0.66704482  1
  Ni  Ni29  1  0.16753859  0.16437677  0.83318252  1
  Ni  Ni30  1  0.16833051  0.50279758  0.50002347  1
  Cr  Cr31  1  0.00095773  0.33337975  0.66853518  1
  Ni  Ni32  1  0.16642570  0.50332729  0.83394809  1
  Ni  Ni33  1  0.16708757  0.83341424  0.50036600  1
  Ni  Ni34  1  1.00040279  0.66862595  0.66707733  1
  Ni  Ni35  1  0.16639949  0.83398288  0.83392999  1
  Ni  Ni36  1  0.50128149  0.16721473  0.50067164  1
  Ni  Ni37  1  0.33393935  1.00051860  0.66768010  1
  Ni  Ni38  1  0.50175691  0.16542197  0.83289744  1
  Ni  Ni39  1  0.49914249  0.49914192  0.50136252  1
  Ni  Ni40  1  0.33425554  0.33282435  0.66608663  1
  Cr  Cr41  1  0.50142065  0.50039251  0.83252234  1
  Ni  Ni42  1  0.49893157  0.83545996  0.50235544  1
  Ni  Ni43  1  0.33305228  0.66835850  0.66640630  1
  Fe  Fe44  1  0.50085734  0.83496403  0.83390287  1
  Ni  Ni45  1  0.83188726  0.16591310  0.49971647  1
  Ni  Ni46  1  0.66728296  1.00020854  0.66722556  1
  Ni  Ni47  1  0.83246310  0.16551007  0.83500288  1
  Ni  Ni48  1  0.83431600  0.50006229  0.50108202  1
  Ni  Ni49  1  0.66698748  0.33297511  0.66630907  1
  Ni  Ni50  1  0.83419773  0.50185335  0.83467274  1
  Ni  Ni51  1  0.83572110  0.83567563  0.50148029  1
  Ni  Ni52  1  0.66833791  0.66849320  0.66599434  1
  Ni  Ni53  1  0.83542167  0.83443627  0.83338168  1
" 