2127,Ni89Fe11_8,-228.226224953494, 151.866117807053,Ni89Fe11,"# generated using pymatgen
 data_Fe8Ni
_symmetry_space_group_name_H-M   'P 1'
_cell_length_a   7.40535846
_cell_length_b   7.40535846
_cell_length_c   10.47275837
_cell_angle_alpha   90.00000000
_cell_angle_beta   90.00000000
_cell_angle_gamma   90.00000000
_symmetry_Int_Tables_number   1
_chemical_formula_structural   Fe8Ni
_chemical_formula_sum   'Fe48 Ni6'
_cell_volume   574.31909286
_cell_formula_units_Z   6
loop_
 _symmetry_equiv_pos_site_id
 _symmetry_equiv_pos_as_xyz
  1  'x, y, z'
loop_
 _atom_site_type_symbol
 _atom_site_label
 _atom_site_symmetry_multiplicity
 _atom_site_fract_x
 _atom_site_fract_y
 _atom_site_fract_z
 _atom_site_occupancy
  Fe  Fe0  1  0.00416603  0.00416770  0.00416998  1
  Fe  Fe1  1  0.17083915  0.17082619  0.17083684  1
  Ni  Ni2  1  1.00414981  1.00414901  0.33749769  1
  Fe  Fe3  1  1.00416431  0.33749850  1.00416265  1
  Fe  Fe4  1  0.17083916  0.50417165  0.17083768  1
  Fe  Fe5  1  0.00416538  0.33749201  0.33749849  1
  Fe  Fe6  1  0.00416517  0.67082931  0.00417083  1
  Fe  Fe7  1  0.17083011  0.83749767  0.17083767  1
  Ni  Ni8  1  1.00416517  0.67084188  0.33749769  1
  Fe  Fe9  1  0.33750519  1.00415762  1.00416262  1
  Fe  Fe10  1  0.50416518  0.17082687  0.17083854  1
  Fe  Fe11  1  0.33749536  1.00416206  0.33749518  1
  Fe  Fe12  1  0.33749682  0.33749850  0.00417168  1
  Fe  Fe13  1  0.50416099  0.50416678  0.17083433  1
  Ni  Ni14  1  0.33750544  0.33750462  0.33749769  1
  Fe  Fe15  1  0.33750605  0.67083939  1.00416347  1
  Ni  Ni16  1  0.50416570  0.83749986  0.17084179  1
  Fe  Fe17  1  0.33749515  0.67084144  0.33749519  1
  Fe  Fe18  1  0.67082429  1.00415848  0.00417079  1
  Fe  Fe19  1  0.83749118  0.17081783  0.17083683  1
  Ni  Ni20  1  0.67083977  1.00416389  0.33749719  1
  Fe  Fe21  1  0.67083438  0.33749935  1.00416350  1
  Fe  Fe22  1  0.83749537  0.50417583  0.17083263  1
  Fe  Fe23  1  0.67083896  0.33749181  0.33749935  1
  Fe  Fe24  1  0.67082429  0.67083768  1.00416347  1
  Fe  Fe25  1  0.83749603  0.83750185  0.17084272  1
  Fe  Fe26  1  0.67083519  0.67084185  0.33749519  1
  Fe  Fe27  1  0.17083268  0.17083266  0.50416016  1
  Fe  Fe28  1  0.00416603  0.00416686  0.67082618  1
  Fe  Fe29  1  0.17083832  0.17082535  0.83749851  1
  Fe  Fe30  1  0.17083268  0.50416518  0.50415932  1
  Fe  Fe31  1  1.00416431  0.33749850  0.67083436  1
  Fe  Fe32  1  0.17083832  0.50417166  0.83749851  1
  Fe  Fe33  1  0.17082261  0.83749767  0.50416018  1
  Fe  Fe34  1  0.00416517  0.67083015  0.67082533  1
  Fe  Fe35  1  0.17083768  0.83749851  0.83749766  1
  Fe  Fe36  1  0.50416518  0.17083437  0.50415931  1
  Fe  Fe37  1  0.33750185  1.00416096  0.67083770  1
  Fe  Fe38  1  0.50416517  0.17082598  0.83749766  1
  Fe  Fe39  1  0.50416099  0.50415929  0.50416352  1
  Fe  Fe40  1  0.33749766  0.33749850  0.67082448  1
  Fe  Fe41  1  0.50416517  0.50417102  0.83749766  1
  Fe  Fe42  1  0.50416936  0.83750186  0.50416436  1
  Fe  Fe43  1  0.33750271  0.67083605  0.67083686  1
  Ni  Ni44  1  0.50416513  0.83749847  0.83749235  1
  Fe  Fe45  1  0.83749765  0.17082430  0.50416017  1
  Fe  Fe46  1  0.67082763  1.00416181  0.67082953  1
  Fe  Fe47  1  0.83749202  0.17082534  0.83749851  1
  Fe  Fe48  1  0.83750184  0.50416936  0.50416437  1
  Fe  Fe49  1  0.67083353  0.33749935  0.67083266  1
  Fe  Fe50  1  0.83749202  0.50417166  0.83749851  1
  Fe  Fe51  1  0.83750353  0.83750185  0.50415513  1
  Fe  Fe52  1  0.67082763  0.67083434  0.67083686  1
  Fe  Fe53  1  0.83749265  0.83749851  0.83749766  1
" 