7291,Ni89Fe4Cr6_0,-237.772061645974, 175.225639175716,Ni89Fe4Cr6,"# generated using pymatgen
 data_Cr2FeNi24
_symmetry_space_group_name_H-M   'P 1'
_cell_length_a   7.45933981
_cell_length_b   7.45933981
_cell_length_c   10.54909952
_cell_angle_alpha   90.00000000
_cell_angle_beta   90.00000000
_cell_angle_gamma   90.00000000
_symmetry_Int_Tables_number   1
_chemical_formula_structural   Cr2FeNi24
_chemical_formula_sum   'Cr4 Fe2 Ni48'
_cell_volume   586.97036201
_cell_formula_units_Z   2
loop_
 _symmetry_equiv_pos_site_id
 _symmetry_equiv_pos_as_xyz
  1  'x, y, z'
loop_
 _atom_site_type_symbol
 _atom_site_label
 _atom_site_symmetry_multiplicity
 _atom_site_fract_x
 _atom_site_fract_y
 _atom_site_fract_z
 _atom_site_occupancy
  Ni  Ni0  1  1.00006625  1.00048814  1.00031551  1
  Ni  Ni1  1  0.16699929  0.16728341  0.16736846  1
  Ni  Ni2  1  0.00141457  0.00205417  0.33354807  1
  Ni  Ni3  1  0.00094439  0.33339545  1.00049516  1
  Ni  Ni4  1  0.16697639  0.50070725  0.16763657  1
  Ni  Ni5  1  0.00147229  0.33204460  0.33313329  1
  Ni  Ni6  1  0.00076803  0.66766651  0.00113021  1
  Ni  Ni7  1  0.16689410  0.83355902  0.16771263  1
  Fe  Fe8  1  0.00392987  0.66717650  0.33213117  1
  Fe  Fe9  1  0.33384501  0.00052106  0.00081792  1
  Ni  Ni10  1  0.50095424  0.16728399  0.16763290  1
  Ni  Ni11  1  0.33328981  0.99998324  0.33352085  1
  Ni  Ni12  1  0.33368987  0.33451429  0.00055072  1
  Ni  Ni13  1  0.50002683  0.49975513  0.16668052  1
  Ni  Ni14  1  0.33328968  0.33417629  0.33433901  1
  Ni  Ni15  1  0.33410611  0.66678893  1.00049498  1
  Ni  Ni16  1  0.50010881  0.83451196  0.16675630  1
  Ni  Ni17  1  0.33277157  0.66739072  0.33457278  1
  Ni  Ni18  1  0.66779523  1.00007295  0.00073067  1
  Ni  Ni19  1  0.83359753  0.16720141  0.16788531  1
  Ni  Ni20  1  0.66684699  0.00256780  0.33354766  1
  Ni  Ni21  1  0.66691500  0.33381028  0.00090983  1
  Ni  Ni22  1  0.83455020  0.49985705  0.16639438  1
  Ni  Ni23  1  0.66678937  0.33153089  0.33313313  1
  Ni  Ni24  1  0.66667745  0.66766648  1.00031179  1
  Ni  Ni25  1  0.83454952  0.83449000  0.16642588  1
  Cr  Cr26  1  0.66494539  0.66717104  0.33192172  1
  Ni  Ni27  1  0.16667478  0.16797009  0.49975085  1
  Ni  Ni28  1  0.99931723  0.00128123  0.66768534  1
  Ni  Ni29  1  0.16618752  0.16807579  0.83443063  1
  Ni  Ni30  1  0.16932956  0.50052426  0.50061011  1
  Ni  Ni31  1  0.00110857  0.33300241  0.66791950  1
  Ni  Ni32  1  0.16710790  0.50057504  0.83330457  1
  Ni  Ni33  1  0.16831144  0.83305431  0.49958707  1
  Ni  Ni34  1  0.00195931  0.66726677  0.66831276  1
  Ni  Ni35  1  0.16600488  0.83290029  0.83425044  1
  Ni  Ni36  1  0.50127708  0.16797061  0.49948789  1
  Cr  Cr37  1  0.33353090  1.00032657  0.66725027  1
  Ni  Ni38  1  0.50151660  0.16807576  0.83442970  1
  Ni  Ni39  1  0.49767669  0.49957329  0.50156428  1
  Ni  Ni40  1  0.33369010  0.33605448  0.66666034  1
  Ni  Ni41  1  0.50058896  0.50056801  0.83330466  1
  Ni  Ni42  1  0.49869331  0.83400615  0.50054229  1
  Ni  Ni43  1  0.33410467  0.66547876  0.66648248  1
  Ni  Ni44  1  0.50169203  0.83290734  0.83424965  1
  Ni  Ni45  1  0.83359837  0.16695317  0.50053880  1
  Ni  Ni46  1  0.66853938  0.00086872  0.66727332  1
  Ni  Ni47  1  0.83384618  0.16697132  0.83312446  1
  Cr  Cr48  1  0.83449301  0.49826464  0.50147780  1
  Ni  Ni49  1  0.66675015  0.33341466  0.66750768  1
  Ni  Ni50  1  0.83385313  0.50075178  0.83375172  1
  Cr  Cr51  1  0.83449225  0.83630180  0.50168570  1
  Ni  Ni52  1  0.66548830  0.66726685  0.66913116  1
  Ni  Ni53  1  0.83385325  0.83382667  0.83348847  1
" 