6640,Ni89Fe11_16,-228.299222229004, 155.043339924973,Ni89Fe11,"# generated using pymatgen
 data_Fe8Ni
_symmetry_space_group_name_H-M   'P 1'
_cell_length_a   7.40636451
_cell_length_b   7.40636451
_cell_length_c   10.47418114
_cell_angle_alpha   90.00000000
_cell_angle_beta   90.00000000
_cell_angle_gamma   90.00000000
_symmetry_Int_Tables_number   1
_chemical_formula_structural   Fe8Ni
_chemical_formula_sum   'Fe48 Ni6'
_cell_volume   574.55319583
_cell_formula_units_Z   6
loop_
 _symmetry_equiv_pos_site_id
 _symmetry_equiv_pos_as_xyz
  1  'x, y, z'
loop_
 _atom_site_type_symbol
 _atom_site_label
 _atom_site_symmetry_multiplicity
 _atom_site_fract_x
 _atom_site_fract_y
 _atom_site_fract_z
 _atom_site_occupancy
  Fe  Fe0  1  0.00422739  0.00468047  0.00418245  1
  Fe  Fe1  1  0.17045239  0.17161767  0.17066611  1
  Fe  Fe2  1  0.00435644  0.00409836  0.33751645  1
  Fe  Fe3  1  1.00396873  0.33739021  0.00418020  1
  Fe  Fe4  1  0.17049083  0.50382769  0.16990896  1
  Fe  Fe5  1  1.00365176  0.33770185  0.33715815  1
  Fe  Fe6  1  0.00409794  0.67021976  1.00409422  1
  Fe  Fe7  1  0.17009462  0.83684747  0.17102253  1
  Fe  Fe8  1  1.00382568  0.67048957  0.33715783  1
  Fe  Fe9  1  0.33797781  0.00455810  0.00435822  1
  Fe  Fe10  1  0.50467888  0.17134654  0.17021853  1
  Fe  Fe11  1  0.33725790  1.00392418  0.33742724  1
  Ni  Ni12  1  0.33644789  0.33851051  0.00495046  1
  Fe  Fe13  1  0.50436663  0.50382512  0.17066615  1
  Fe  Fe14  1  0.33743001  0.33734409  0.33751647  1
  Fe  Fe15  1  0.33774082  0.67070690  1.00382289  1
  Fe  Fe16  1  0.50503653  0.83711840  0.17057905  1
  Fe  Fe17  1  0.33743032  0.67102213  0.33751644  1
  Ni  Ni18  1  0.67172921  1.00322921  0.00507089  1
  Fe  Fe19  1  0.83715909  0.17094743  0.17057920  1
  Fe  Fe20  1  0.67067604  0.00409805  0.33751646  1
  Fe  Fe21  1  0.67057293  0.33715337  0.00462615  1
  Ni  Ni22  1  0.83743073  0.50399862  0.17046810  1
  Fe  Fe23  1  0.67120791  0.33787418  0.33715823  1
  Fe  Fe24  1  0.67045045  0.67044824  0.00453975  1
  Fe  Fe25  1  0.83716134  0.83715666  0.17049216  1
  Fe  Fe26  1  0.67103402  0.67031723  0.33715792  1
  Fe  Fe27  1  0.17103518  0.17103675  0.50419433  1
  Fe  Fe28  1  0.00413993  0.00468071  0.67059116  1
  Fe  Fe29  1  0.17131313  0.17203049  0.83743007  1
  Fe  Fe30  1  0.17111943  0.50382671  0.50503816  1
  Fe  Fe31  1  0.00423991  0.33712068  0.67095097  1
  Ni  Ni32  1  0.17089410  0.50386732  0.83752770  1
  Fe  Fe33  1  0.17067638  0.83742926  0.50383692  1
  Fe  Fe34  1  0.00436799  0.67048927  0.67103711  1
  Fe  Fe35  1  0.17059120  0.83671419  0.83743060  1
  Fe  Fe36  1  0.50409696  0.17076462  0.50464283  1
  Fe  Fe37  1  0.33797901  0.00455938  0.67050463  1
  Fe  Fe38  1  0.50351624  0.17134530  0.83742958  1
  Fe  Fe39  1  0.50373797  0.50382415  0.50428108  1
  Ni  Ni40  1  0.33644797  0.33841137  0.67000855  1
  Fe  Fe41  1  0.50274406  0.50354647  0.83734314  1
  Fe  Fe42  1  0.50445563  0.83770120  0.50428133  1
  Fe  Fe43  1  0.33774051  0.67061898  0.67095120  1
  Fe  Fe44  1  0.50423727  0.83739765  0.83743011  1
  Fe  Fe45  1  0.83715814  0.17031909  0.50436807  1
  Ni  Ni46  1  0.67162958  1.00322976  0.66988757  1
  Fe  Fe47  1  0.83746192  0.17053763  0.83734307  1
  Fe  Fe48  1  0.83743002  0.50418284  0.50325365  1
  Fe  Fe49  1  0.67030202  0.33688239  0.67050460  1
  Fe  Fe50  1  0.83814461  0.50426812  0.83801410  1
  Fe  Fe51  1  0.83716040  0.83778580  0.50445508  1
  Fe  Fe52  1  0.67018070  0.67071919  0.67059117  1
  Fe  Fe53  1  0.83746648  0.83747972  0.83734305  1
" 