7497,Ni89Fe11_18,-227.999367965852, 154.702880437226,Ni89Fe11,"# generated using pymatgen
 data_Fe8Ni
_symmetry_space_group_name_H-M   'P 1'
_cell_length_a   7.40350176
_cell_length_b   7.40350176
_cell_length_c   10.47013260
_cell_angle_alpha   90.00000000
_cell_angle_beta   90.00000000
_cell_angle_gamma   90.00000000
_symmetry_Int_Tables_number   1
_chemical_formula_structural   Fe8Ni
_chemical_formula_sum   'Fe48 Ni6'
_cell_volume   573.88721502
_cell_formula_units_Z   6
loop_
 _symmetry_equiv_pos_site_id
 _symmetry_equiv_pos_as_xyz
  1  'x, y, z'
loop_
 _atom_site_type_symbol
 _atom_site_label
 _atom_site_symmetry_multiplicity
 _atom_site_fract_x
 _atom_site_fract_y
 _atom_site_fract_z
 _atom_site_occupancy
  Fe  Fe0  1  1.00420074  1.00429067  1.00377903  1
  Fe  Fe1  1  0.17123093  0.17059092  0.17132581  1
  Fe  Fe2  1  0.00483824  1.00429066  0.33823429  1
  Fe  Fe3  1  0.00429358  0.33826457  1.00383654  1
  Fe  Fe4  1  0.17086945  0.50429367  0.17026142  1
  Fe  Fe5  1  0.00489488  0.33702789  0.33744070  1
  Fe  Fe6  1  1.00420118  0.67031993  1.00392962  1
  Fe  Fe7  1  0.17123349  0.83798983  0.17132539  1
  Fe  Fe8  1  0.00480197  0.67155649  0.33734768  1
  Fe  Fe9  1  0.33780787  0.00438341  0.00516867  1
  Fe  Fe10  1  0.50401676  0.17059367  0.17113985  1
  Ni  Ni11  1  0.33762597  1.00418166  0.33795191  1
  Fe  Fe12  1  0.33735034  0.33780982  1.00410805  1
  Fe  Fe13  1  0.50438145  0.50429368  0.17165490  1
  Fe  Fe14  1  0.33789628  0.33726101  0.33780732  1
  Fe  Fe15  1  0.33735089  0.67068185  1.00341183  1
  Fe  Fe16  1  0.50401421  0.83798707  0.17113944  1
  Fe  Fe17  1  0.33789598  0.67122918  0.33850351  1
  Fe  Fe18  1  0.67086606  1.00429051  0.00437921  1
  Fe  Fe19  1  0.83762702  0.17095833  0.17095824  1
  Fe  Fe20  1  0.67041066  1.00429055  0.33744074  1
  Fe  Fe21  1  0.67123077  0.33780999  1.00410796  1
  Fe  Fe22  1  0.83762400  0.50429079  0.17035828  1
  Fe  Fe23  1  0.67008362  0.33729832  0.33790041  1
  Fe  Fe24  1  0.67132341  0.67077472  1.00420138  1
  Fe  Fe25  1  0.83762701  0.83762573  0.17095823  1
  Fe  Fe26  1  0.67017636  0.67128579  0.33780748  1
  Fe  Fe27  1  0.17146653  0.17092150  0.50410886  1
  Ni  Ni28  1  1.00382266  0.00487098  0.67107231  1
  Fe  Fe29  1  0.16999463  0.17183030  0.83744353  1
  Fe  Fe30  1  0.17186875  0.50456558  0.50507677  1
  Fe  Fe31  1  0.00489516  0.33813717  0.67159372  1
  Ni  Ni32  1  0.17019746  0.50440786  0.83729101  1
  Fe  Fe33  1  0.17183191  0.83738769  0.50448009  1
  Fe  Fe34  1  0.00484458  0.67105675  0.67159400  1
  Fe  Fe35  1  0.17036055  0.83647814  0.83707240  1
  Fe  Fe36  1  0.50410990  0.17132405  0.50383501  1
  Fe  Fe37  1  0.33707588  1.00374148  0.67035800  1
  Fe  Fe38  1  0.50438110  0.17216093  0.83790230  1
  Ni  Ni39  1  0.50406878  0.50440495  0.50450867  1
  Fe  Fe40  1  0.33702236  0.33811294  0.67095846  1
  Fe  Fe41  1  0.50401988  0.50456316  0.83674553  1
  Fe  Fe42  1  0.50374388  0.83698423  0.50420159  1
  Ni  Ni43  1  0.33820296  0.67014786  0.67095903  1
  Fe  Fe44  1  0.50401584  0.83614849  0.83753628  1
  Fe  Fe45  1  0.83729581  0.17128953  0.50456848  1
  Fe  Fe46  1  0.67098879  1.00368895  0.67105500  1
  Fe  Fe47  1  0.83849704  0.17183574  0.83734909  1
  Fe  Fe48  1  0.83689554  0.50419981  0.50461464  1
  Fe  Fe49  1  0.67095693  0.33807960  0.67086467  1
  Ni  Ni50  1  0.83850227  0.50440116  0.83729777  1
  Fe  Fe51  1  0.83729873  0.83738822  0.50447434  1
  Fe  Fe52  1  0.67101636  0.67110565  0.67086411  1
  Fe  Fe53  1  0.83849941  0.83684340  0.83744324  1
" 