4805,Ni89Cr11_4,-203.512595437864, 180.460834599378,Ni89Cr11,"# generated using pymatgen
 data_Cr8Ni
_symmetry_space_group_name_H-M   'P 1'
_cell_length_a   7.59410966
_cell_length_b   7.59410966
_cell_length_c   10.73969288
_cell_angle_alpha   90.00000000
_cell_angle_beta   90.00000000
_cell_angle_gamma   90.00000000
_symmetry_Int_Tables_number   1
_chemical_formula_structural   Cr8Ni
_chemical_formula_sum   'Cr48 Ni6'
_cell_volume   619.36347471
_cell_formula_units_Z   6
loop_
 _symmetry_equiv_pos_site_id
 _symmetry_equiv_pos_as_xyz
  1  'x, y, z'
loop_
 _atom_site_type_symbol
 _atom_site_label
 _atom_site_symmetry_multiplicity
 _atom_site_fract_x
 _atom_site_fract_y
 _atom_site_fract_z
 _atom_site_occupancy
  Cr  Cr0  1  0.99058524  0.99069383  -0.00803190  1
  Cr  Cr1  1  0.15852368  0.15852241  0.15918963  1
  Cr  Cr2  1  -0.00785921  -0.00777013  0.32585825  1
  Cr  Cr3  1  0.99158708  0.32630494  -0.00803165  1
  Cr  Cr4  1  0.15743907  0.49249575  0.15665964  1
  Cr  Cr5  1  0.99002693  0.32408681  0.32441273  1
  Ni  Ni6  1  0.99146710  0.65865655  0.99163307  1
  Cr  Cr7  1  0.15798912  0.82388589  0.15788790  1
  Cr  Cr8  1  0.99158739  0.65858664  0.32458560  1
  Cr  Cr9  1  0.32693607  -0.00777665  0.99144172  1
  Cr  Cr10  1  0.49312840  0.15796964  0.15791759  1
  Cr  Cr11  1  0.32413001  0.99112961  0.32441310  1
  Cr  Cr12  1  0.32538281  0.32422127  0.99050607  1
  Cr  Cr13  1  0.49205093  0.49088341  0.16009957  1
  Cr  Cr14  1  0.32676411  0.32571370  0.32532097  1
  Cr  Cr15  1  0.32384968  0.65845838  -0.00747710  1
  Cr  Cr16  1  0.49205428  0.82604847  0.15755244  1
  Cr  Cr17  1  0.32631043  0.65805950  0.32549465  1
  Ni  Ni18  1  0.65772331  -0.00792259  0.99074807  1
  Cr  Cr19  1  0.82325100  0.15851947  0.15919115  1
  Cr  Cr20  1  0.65863223  -0.00731448  0.32458570  1
  Cr  Cr21  1  0.65793179  0.32321722  0.99126923  1
  Cr  Cr22  1  0.82541164  0.49141809  0.15807975  1
  Ni  Ni23  1  0.65750543  0.32585133  0.32589973  1
  Cr  Cr24  1  0.65946374  0.65946111  0.99141338  1
  Cr  Cr25  1  0.82486047  0.82496469  0.15647205  1
  Cr  Cr26  1  0.65700421  0.65594680  0.32660416  1
  Cr  Cr27  1  0.15876665  0.15876518  0.49237957  1
  Cr  Cr28  1  -0.00820782  -0.00809827  0.65707625  1
  Cr  Cr29  1  0.16065265  0.15959886  0.82333089  1
  Cr  Cr30  1  0.16031636  0.49100020  0.49293343  1
  Cr  Cr31  1  -0.00720490  0.32441449  0.65852129  1
  Cr  Cr32  1  0.15801307  0.49159412  0.82530577  1
  Cr  Cr33  1  0.15823550  0.82513678  0.49151874  1
  Cr  Cr34  1  0.99123877  0.65858651  0.65868444  1
  Cr  Cr35  1  0.15748635  0.82371095  0.82549641  1
  Cr  Cr36  1  0.49163659  0.16083820  0.49168021  1
  Cr  Cr37  1  0.32505057  -0.00656960  0.65904754  1
  Ni  Ni38  1  0.49163583  0.15816230  0.82511053  1
  Ni  Ni39  1  0.49163327  0.49009005  0.49149156  1
  Ni  Ni40  1  0.32650865  0.32496704  0.65825438  1
  Cr  Cr41  1  0.49055390  0.48950374  0.82350417  1
  Cr  Cr42  1  0.49163500  0.82358954  0.49129963  1
  Cr  Cr43  1  0.32615652  0.65650533  0.65688622  1
  Cr  Cr44  1  0.49271238  0.82743211  0.82605136  1
  Cr  Cr45  1  0.82449882  0.15876263  0.49021822  1
  Cr  Cr46  1  0.65806052  -0.00812421  0.65998301  1
  Cr  Cr47  1  0.82261425  0.15744043  0.82549561  1
  Cr  Cr48  1  0.82295285  0.49099729  0.49077240  1
  Cr  Cr49  1  0.65598355  0.32552038  0.65813955  1
  Cr  Cr50  1  0.82633495  0.49267004  0.82605252  1
  Cr  Cr51  1  0.82503200  0.82514133  0.49219008  1
  Cr  Cr52  1  0.65750726  0.65750558  0.65688458  1
  Cr  Cr53  1  0.82470477  0.82479257  0.82624135  1
" 