8140,Ni89Fe8Cr1_3,-240.08114968822, 186.473843610022,Ni89Fe8Cr1,"# generated using pymatgen
 data_Cr(FeNi12)2
_symmetry_space_group_name_H-M   'P 1'
_cell_length_a   7.44855162
_cell_length_b   7.44855162
_cell_length_c   10.53384272
_cell_angle_alpha   90.00000000
_cell_angle_beta   90.00000000
_cell_angle_gamma   90.00000000
_symmetry_Int_Tables_number   1
_chemical_formula_structural   Cr(FeNi12)2
_chemical_formula_sum   'Cr2 Fe4 Ni48'
_cell_volume   584.42729847
_cell_formula_units_Z   2
loop_
 _symmetry_equiv_pos_site_id
 _symmetry_equiv_pos_as_xyz
  1  'x, y, z'
loop_
 _atom_site_type_symbol
 _atom_site_label
 _atom_site_symmetry_multiplicity
 _atom_site_fract_x
 _atom_site_fract_y
 _atom_site_fract_z
 _atom_site_occupancy
  Ni  Ni0  1  0.00158543  1.00085082  0.00194812  1
  Ni  Ni1  1  0.16655417  0.16924577  0.16646421  1
  Ni  Ni2  1  0.99923659  0.99969446  0.33362372  1
  Ni  Ni3  1  0.00145309  0.33506447  1.00089901  1
  Ni  Ni4  1  0.16757473  0.50078497  0.16802648  1
  Ni  Ni5  1  1.00020847  0.33632201  0.33435937  1
  Ni  Ni6  1  0.00124320  0.66784573  0.00133037  1
  Ni  Ni7  1  0.16632191  0.83360421  0.16645197  1
  Ni  Ni8  1  1.00045058  0.66765044  0.33467058  1
  Ni  Ni9  1  0.33435008  0.00149638  1.00050251  1
  Ni  Ni10  1  0.50251416  0.16895582  0.16687023  1
  Cr  Cr11  1  0.33565323  1.00104698  0.33370029  1
  Ni  Ni12  1  0.33466398  0.33450270  0.00161722  1
  Ni  Ni13  1  0.50167257  0.50119472  0.16772878  1
  Ni  Ni14  1  0.33570834  0.33650780  0.33361639  1
  Ni  Ni15  1  0.33414800  0.66766313  0.00164008  1
  Ni  Ni16  1  0.50321979  0.83354431  0.16618484  1
  Fe  Fe17  1  0.33488548  0.66691791  0.33443503  1
  Ni  Ni18  1  0.66774938  0.00131248  0.00165168  1
  Ni  Ni19  1  0.83468476  0.16793460  0.16794213  1
  Ni  Ni20  1  0.66918992  1.00112036  0.33505283  1
  Ni  Ni21  1  0.66751021  0.33489476  0.00171860  1
  Ni  Ni22  1  0.83451276  0.50135147  0.16710576  1
  Ni  Ni23  1  0.66778425  0.33521388  0.33467981  1
  Ni  Ni24  1  0.66830098  0.66753447  1.00098847  1
  Ni  Ni25  1  0.83419888  0.83444278  0.16808943  1
  Ni  Ni26  1  0.66928491  0.66731991  0.33481824  1
  Cr  Cr27  1  0.16686826  0.16895397  0.50237370  1
  Ni  Ni28  1  1.00043362  0.99913936  0.66824920  1
  Ni  Ni29  1  0.16795271  0.16839336  0.83481812  1
  Ni  Ni30  1  0.16792319  0.50265721  0.50118366  1
  Fe  Fe31  1  1.00040272  0.33574116  0.66859148  1
  Ni  Ni32  1  0.16845781  0.50090289  0.83434318  1
  Ni  Ni33  1  0.16635038  0.83211407  0.50261781  1
  Ni  Ni34  1  1.00104719  0.66842778  0.66779005  1
  Ni  Ni35  1  0.16701602  0.83441872  0.83447237  1
  Ni  Ni36  1  0.50384453  0.16907376  0.50231860  1
  Ni  Ni37  1  0.33505609  1.00076127  0.66926155  1
  Ni  Ni38  1  0.50107469  0.16844948  0.83446351  1
  Ni  Ni39  1  0.50151839  0.50117506  0.50116865  1
  Ni  Ni40  1  0.33633002  0.33555083  0.66848813  1
  Ni  Ni41  1  0.50080950  0.50107616  0.83473010  1
  Ni  Ni42  1  0.50310913  0.83340343  0.50310206  1
  Ni  Ni43  1  0.33402286  0.66735050  0.66707418  1
  Ni  Ni44  1  0.50234761  0.83421847  0.83433273  1
  Ni  Ni45  1  0.83292615  0.16769043  0.50136950  1
  Ni  Ni46  1  0.66817347  0.00155718  0.66714434  1
  Fe  Fe47  1  0.83404856  0.16669567  0.83495372  1
  Ni  Ni48  1  0.83435282  0.50151127  0.50203197  1
  Ni  Ni49  1  0.66689679  0.33497524  0.66744803  1
  Fe  Fe50  1  0.83406688  0.50231538  0.83494636  1
  Ni  Ni51  1  0.83436417  0.83449438  0.50094733  1
  Ni  Ni52  1  0.66864211  0.66721753  0.66798732  1
  Ni  Ni53  1  0.83434994  0.83476362  0.83472167  1
" 