6025,Ni89Fe8Cr1_16,-239.837580085618, 185.93969337335,Ni89Fe8Cr1,"# generated using pymatgen
 data_Cr(FeNi12)2
_symmetry_space_group_name_H-M   'P 1'
_cell_length_a   7.44797382
_cell_length_b   7.44797382
_cell_length_c   10.53302558
_cell_angle_alpha   90.00000000
_cell_angle_beta   90.00000000
_cell_angle_gamma   90.00000000
_symmetry_Int_Tables_number   1
_chemical_formula_structural   Cr(FeNi12)2
_chemical_formula_sum   'Cr2 Fe4 Ni48'
_cell_volume   584.29130200
_cell_formula_units_Z   2
loop_
 _symmetry_equiv_pos_site_id
 _symmetry_equiv_pos_as_xyz
  1  'x, y, z'
loop_
 _atom_site_type_symbol
 _atom_site_label
 _atom_site_symmetry_multiplicity
 _atom_site_fract_x
 _atom_site_fract_y
 _atom_site_fract_z
 _atom_site_occupancy
  Ni  Ni0  1  0.00130233  1.00059461  1.00126809  1
  Ni  Ni1  1  0.16778618  0.16907861  0.16753289  1
  Ni  Ni2  1  0.00208489  0.00129603  0.33468907  1
  Fe  Fe3  1  0.00172794  0.33418090  0.00149811  1
  Ni  Ni4  1  0.16810937  0.50082674  0.16851425  1
  Ni  Ni5  1  1.00077965  0.33406749  0.33426356  1
  Ni  Ni6  1  1.00086548  0.66921526  0.00185950  1
  Fe  Fe7  1  0.16815067  0.83494156  0.16789438  1
  Ni  Ni8  1  0.00202995  0.66862309  0.33460935  1
  Ni  Ni9  1  0.33395666  0.00211416  1.00065388  1
  Ni  Ni10  1  0.50104652  0.16766023  0.16793359  1
  Ni  Ni11  1  0.33341584  0.00187858  0.33460673  1
  Ni  Ni12  1  0.33559159  0.33414749  0.00178761  1
  Ni  Ni13  1  0.49966669  0.50091790  0.16712230  1
  Ni  Ni14  1  0.33506487  0.33378996  0.33455222  1
  Ni  Ni15  1  0.33436284  0.66763548  0.00169694  1
  Ni  Ni16  1  0.50102636  0.83529928  0.16638757  1
  Ni  Ni17  1  0.33342169  0.66835241  0.33451813  1
  Ni  Ni18  1  0.66862414  0.00167181  0.00217635  1
  Ni  Ni19  1  0.83502276  0.16744526  0.16824440  1
  Fe  Fe20  1  0.66796024  0.00222420  0.33445598  1
  Ni  Ni21  1  0.66713385  0.33466168  0.00148315  1
  Ni  Ni22  1  0.83618076  0.50072582  0.16628031  1
  Ni  Ni23  1  0.66798667  0.33378530  0.33464399  1
  Ni  Ni24  1  0.66858131  0.66755610  1.00097477  1
  Ni  Ni25  1  0.83500523  0.83565716  0.16714007  1
  Cr  Cr26  1  0.66881354  0.66675749  0.33439267  1
  Ni  Ni27  1  0.16648077  0.16736476  0.50086423  1
  Ni  Ni28  1  0.00152436  1.00107957  0.66788773  1
  Ni  Ni29  1  0.16636919  0.16758325  0.83547250  1
  Ni  Ni30  1  0.16677856  0.50217551  0.49994190  1
  Ni  Ni31  1  0.99947943  0.33411714  0.66834947  1
  Ni  Ni32  1  0.16765664  0.50245247  0.83540807  1
  Ni  Ni33  1  0.16789924  0.83427580  0.50100288  1
  Ni  Ni34  1  1.00103514  0.66867590  0.66733109  1
  Ni  Ni35  1  0.16749741  0.83378475  0.83500861  1
  Ni  Ni36  1  0.50240782  0.16675253  0.50013102  1
  Ni  Ni37  1  0.33397078  0.99985533  0.66859982  1
  Ni  Ni38  1  0.50291344  0.16699741  0.83575882  1
  Ni  Ni39  1  0.50090795  0.50175103  0.50101138  1
  Cr  Cr40  1  0.33482154  0.33355135  0.66729731  1
  Ni  Ni41  1  0.50100411  0.50258757  0.83572256  1
  Ni  Ni42  1  0.50028673  0.83530554  0.50287030  1
  Ni  Ni43  1  0.33447781  0.66960797  0.66763968  1
  Ni  Ni44  1  0.50194539  0.83423071  0.83463444  1
  Ni  Ni45  1  0.83496517  0.16788166  0.50089585  1
  Ni  Ni46  1  0.66835349  0.00150501  0.66727629  1
  Ni  Ni47  1  0.83453347  0.16681261  0.83475553  1
  Ni  Ni48  1  0.83611813  0.50034734  0.50282804  1
  Ni  Ni49  1  0.66933753  0.33462660  0.66768002  1
  Fe  Fe50  1  0.83441747  0.50165671  0.83440459  1
  Ni  Ni51  1  0.83561466  0.83568888  0.50222075  1
  Ni  Ni52  1  0.66826233  0.66780257  0.66844741  1
  Ni  Ni53  1  0.83438871  0.83557072  0.83452517  1
" 