1068,Ni89Cr11_18,-203.547828499225, 181.287373337181,Ni89Cr11,"# generated using pymatgen
 data_Cr8Ni
_symmetry_space_group_name_H-M   'P 1'
_cell_length_a   7.59184766
_cell_length_b   7.59184766
_cell_length_c   10.73649392
_cell_angle_alpha   90.00000000
_cell_angle_beta   90.00000000
_cell_angle_gamma   90.00000000
_symmetry_Int_Tables_number   1
_chemical_formula_structural   Cr8Ni
_chemical_formula_sum   'Cr48 Ni6'
_cell_volume   618.81018313
_cell_formula_units_Z   6
loop_
 _symmetry_equiv_pos_site_id
 _symmetry_equiv_pos_as_xyz
  1  'x, y, z'
loop_
 _atom_site_type_symbol
 _atom_site_label
 _atom_site_symmetry_multiplicity
 _atom_site_fract_x
 _atom_site_fract_y
 _atom_site_fract_z
 _atom_site_occupancy
  Cr  Cr0  1  0.99134667  -0.00778654  0.99032305  1
  Cr  Cr1  1  0.15976075  0.15900891  0.15787925  1
  Cr  Cr2  1  0.99051473  0.99162297  0.32568275  1
  Cr  Cr3  1  0.99134468  0.32434242  -0.00819488  1
  Cr  Cr4  1  0.15870007  0.49228379  0.15933699  1
  Cr  Cr5  1  -0.00788092  0.32544652  0.32511307  1
  Cr  Cr6  1  0.99132371  0.65878646  -0.00787485  1
  Cr  Cr7  1  0.15926849  0.82404994  0.15842226  1
  Cr  Cr8  1  -0.00740421  0.65827247  0.32533949  1
  Cr  Cr9  1  0.32543739  -0.00721841  -0.00767373  1
  Ni  Ni10  1  0.49264994  0.15743890  0.15945931  1
  Cr  Cr11  1  0.32718979  0.99169422  0.32456995  1
  Cr  Cr12  1  0.32654774  0.32488579  -0.00765048  1
  Cr  Cr13  1  0.49089834  0.49124293  0.15860160  1
  Cr  Cr14  1  0.32559417  0.32538702  0.32400010  1
  Cr  Cr15  1  0.32600291  0.65767514  0.99071427  1
  Cr  Cr16  1  0.49200412  0.82676584  0.16010511  1
  Ni  Ni17  1  0.32504777  0.65871346  0.32516349  1
  Cr  Cr18  1  0.65855741  -0.00724197  -0.00725970  1
  Cr  Cr19  1  0.82302986  0.15790370  0.15894494  1
  Ni  Ni20  1  0.65741139  -0.00766512  0.32410188  1
  Cr  Cr21  1  0.65744895  0.32491093  0.99084863  1
  Cr  Cr22  1  0.82574479  0.49173174  0.15844788  1
  Cr  Cr23  1  0.65762734  0.32330705  0.32439111  1
  Cr  Cr24  1  0.65801500  0.65767221  0.99066530  1
  Cr  Cr25  1  0.82407069  0.82570523  0.15899289  1
  Cr  Cr26  1  0.65769491  0.65987046  0.32511245  1
  Cr  Cr27  1  0.15833631  0.15867531  0.49235010  1
  Cr  Cr28  1  0.99152814  -0.00763276  0.65933690  1
  Cr  Cr29  1  0.15706432  0.15816188  0.82511266  1
  Cr  Cr30  1  0.15888395  0.49243988  0.49031928  1
  Cr  Cr31  1  0.98992742  0.32400818  0.65842311  1
  Cr  Cr32  1  0.15971267  0.49184483  0.82568263  1
  Cr  Cr33  1  0.15945163  0.82422822  0.49157839  1
  Cr  Cr34  1  0.99150439  0.65896723  0.65787817  1
  Cr  Cr35  1  0.15867631  0.82533549  0.82533939  1
  Cr  Cr36  1  0.49332253  0.15810674  0.49139042  1
  Cr  Cr37  1  0.32448386  -0.00817044  0.65844788  1
  Cr  Cr38  1  0.49363746  0.16029686  0.82439351  1
  Cr  Cr39  1  0.49166617  0.49189461  0.49273690  1
  Cr  Cr40  1  0.32719902  0.32565700  0.65899227  1
  Ni  Ni41  1  0.49281508  0.49088367  0.82410325  1
  Cr  Cr42  1  0.49166585  0.82534115  0.49011970  1
  Cr  Cr43  1  0.32615637  0.65785545  0.65894572  1
  Cr  Cr44  1  0.49148931  0.82373726  0.82511298  1
  Cr  Cr45  1  0.82368389  0.15867423  0.49239391  1
  Cr  Cr46  1  0.65932942  -0.00659514  0.65860132  1
  Ni  Ni47  1  0.82421849  0.15948427  0.82410449  1
  Cr  Cr48  1  0.82479236  0.49077892  0.49232600  1
  Ni  Ni49  1  0.65854210  0.32516014  0.66042011  1
  Cr  Cr50  1  0.82303993  0.48969512  0.82457151  1
  Cr  Cr51  1  0.82422462  0.82588669  0.49066669  1
  Cr  Cr52  1  0.65768067  0.65624925  0.65956339  1
  Cr  Cr53  1  0.82517651  0.82638520  0.82568253  1
" 