6192,Ni89Fe9Cr1_5,-240.116592757088, 186.624341336384,Ni89Fe9Cr1,"# generated using pymatgen
 data_Cr(FeNi12)2
_symmetry_space_group_name_H-M   'P 1'
_cell_length_a   7.44800812
_cell_length_b   7.44800812
_cell_length_c   10.53307410
_cell_angle_alpha   90.00000000
_cell_angle_beta   90.00000000
_cell_angle_gamma   90.00000000
_symmetry_Int_Tables_number   1
_chemical_formula_structural   Cr(FeNi12)2
_chemical_formula_sum   'Cr2 Fe4 Ni48'
_cell_volume   584.29937587
_cell_formula_units_Z   2
loop_
 _symmetry_equiv_pos_site_id
 _symmetry_equiv_pos_as_xyz
  1  'x, y, z'
loop_
 _atom_site_type_symbol
 _atom_site_label
 _atom_site_symmetry_multiplicity
 _atom_site_fract_x
 _atom_site_fract_y
 _atom_site_fract_z
 _atom_site_occupancy
  Ni  Ni0  1  0.00258146  0.00337503  0.00242092  1
  Ni  Ni1  1  0.16761714  0.16730176  0.16818424  1
  Ni  Ni2  1  0.00184626  0.00205224  0.33497080  1
  Ni  Ni3  1  0.00135536  0.33409302  1.00095327  1
  Ni  Ni4  1  0.16762616  0.50159683  0.16733514  1
  Ni  Ni5  1  1.00073090  0.33486461  0.33474910  1
  Fe  Fe6  1  0.00234191  0.66688107  0.00218787  1
  Ni  Ni7  1  0.16865149  0.83491466  0.16767768  1
  Ni  Ni8  1  0.00224654  0.66697644  0.33396240  1
  Ni  Ni9  1  0.33406710  1.00066975  1.00087518  1
  Ni  Ni10  1  0.50140936  0.16781363  0.16739139  1
  Ni  Ni11  1  0.33448954  1.00001305  0.33462163  1
  Ni  Ni12  1  0.33399299  0.33522999  0.00235287  1
  Ni  Ni13  1  0.50192122  0.50160584  0.16818424  1
  Fe  Fe14  1  0.33433916  0.33488382  0.33426412  1
  Ni  Ni15  1  0.33512997  0.66786762  1.00095327  1
  Ni  Ni16  1  0.50017153  0.83438676  0.16744441  1
  Ni  Ni17  1  0.33435837  0.66849209  0.33474910  1
  Ni  Ni18  1  0.66717161  0.00205138  0.00245728  1
  Ni  Ni19  1  0.83483623  0.16905146  0.16744441  1
  Ni  Ni20  1  0.66744897  0.00177401  0.33423407  1
  Ni  Ni21  1  0.66855324  0.33515588  1.00087518  1
  Ni  Ni22  1  0.83430833  0.50057150  0.16767768  1
  Ni  Ni23  1  0.66920993  0.33473345  0.33462163  1
  Ni  Ni24  1  0.66584795  0.66664152  0.00242092  1
  Fe  Fe25  1  0.83425416  0.83496883  0.16887924  1
  Ni  Ni26  1  0.66717075  0.66737672  0.33497080  1
  Ni  Ni27  1  0.16795481  0.16765847  0.50108287  1
  Ni  Ni28  1  0.00395502  0.00246225  0.66657775  1
  Ni  Ni29  1  0.16802744  0.16700413  0.83466115  1
  Ni  Ni30  1  0.16768146  0.50154152  0.50153775  1
  Ni  Ni31  1  0.00135793  0.33459483  0.66804930  1
  Fe  Fe32  1  0.16881450  0.50040849  0.83439759  1
  Ni  Ni33  1  0.16790062  0.83459348  0.50172918  1
  Ni  Ni34  1  0.00258570  0.66663728  0.66746236  1
  Ni  Ni35  1  0.16947179  0.83544882  0.83433647  1
  Ni  Ni36  1  0.50015001  0.16907297  0.50041062  1
  Ni  Ni37  1  0.33282454  1.00106858  0.66835693  1
  Ni  Ni38  1  0.49962787  0.16959511  0.83609279  1
  Ni  Ni39  1  0.50156451  0.50126817  0.50108287  1
  Ni  Ni40  1  0.33439649  0.33482650  0.66737469  1
  Ni  Ni41  1  0.50221885  0.50119555  0.83466115  1
  Ni  Ni42  1  0.49986888  0.83350855  0.50104769  1
  Ni  Ni43  1  0.33462815  0.66786506  0.66804930  1
  Ni  Ni44  1  0.49842626  0.83307141  0.83537038  1
  Ni  Ni45  1  0.83571444  0.16935411  0.50104769  1
  Cr  Cr46  1  0.66678357  0.00243942  0.66706920  1
  Ni  Ni47  1  0.83615158  0.17079673  0.83537038  1
  Ni  Ni48  1  0.83462951  0.50132237  0.50172918  1
  Ni  Ni49  1  0.66815440  0.33639844  0.66835693  1
  Ni  Ni50  1  0.83377417  0.49975119  0.83433647  1
  Ni  Ni51  1  0.83605850  0.83316448  0.49952227  1
  Ni  Ni52  1  0.66676073  0.66526797  0.66657775  1
  Cr  Cr53  1  0.83586122  0.83336176  0.83587107  1
" 