442,Ni89Fe11_11,-228.310891545449, 153.291948718498,Ni89Fe11,"# generated using pymatgen
 data_Fe8Ni
_symmetry_space_group_name_H-M   'P 1'
_cell_length_a   7.40516021
_cell_length_b   7.40516021
_cell_length_c   10.47247799
_cell_angle_alpha   90.00000000
_cell_angle_beta   90.00000000
_cell_angle_gamma   90.00000000
_symmetry_Int_Tables_number   1
_chemical_formula_structural   Fe8Ni
_chemical_formula_sum   'Fe48 Ni6'
_cell_volume   574.27296791
_cell_formula_units_Z   6
loop_
 _symmetry_equiv_pos_site_id
 _symmetry_equiv_pos_as_xyz
  1  'x, y, z'
loop_
 _atom_site_type_symbol
 _atom_site_label
 _atom_site_symmetry_multiplicity
 _atom_site_fract_x
 _atom_site_fract_y
 _atom_site_fract_z
 _atom_site_occupancy
  Fe  Fe0  1  1.00417247  1.00416608  0.00418026  1
  Fe  Fe1  1  0.17084612  0.17084535  0.17084614  1
  Fe  Fe2  1  0.00417946  0.00417948  0.33751039  1
  Fe  Fe3  1  1.00417328  0.33752379  1.00417407  1
  Fe  Fe4  1  0.17084293  0.50418107  0.17084214  1
  Fe  Fe5  1  1.00417626  0.33751360  0.33752060  1
  Ni  Ni6  1  1.00417300  0.67084772  0.00418688  1
  Fe  Fe7  1  0.17084212  0.83750959  0.17084295  1
  Fe  Fe8  1  1.00417626  0.67084293  0.33751522  1
  Fe  Fe9  1  0.33751200  1.00416629  1.00417865  1
  Fe  Fe10  1  0.50417788  0.17084535  0.17084614  1
  Fe  Fe11  1  0.33751200  1.00417866  0.33751202  1
  Fe  Fe12  1  0.33751200  0.33752439  0.00418026  1
  Fe  Fe13  1  0.50418107  0.50418107  0.17084213  1
  Fe  Fe14  1  0.33751200  0.33751122  0.33750958  1
  Fe  Fe15  1  0.33751280  0.67084532  0.00417946  1
  Fe  Fe16  1  0.50418188  0.83750959  0.17084294  1
  Fe  Fe17  1  0.33751281  0.67084612  0.33751201  1
  Fe  Fe18  1  0.67085154  1.00416527  0.00417946  1
  Fe  Fe19  1  0.83751200  0.17084453  0.17084615  1
  Fe  Fe20  1  0.67084455  1.00417866  0.33751120  1
  Fe  Fe21  1  0.67085072  0.33752460  1.00417327  1
  Fe  Fe22  1  0.83751200  0.50418507  0.17084513  1
  Fe  Fe23  1  0.67084774  0.33751441  0.33752141  1
  Ni  Ni24  1  0.67085178  0.67084772  0.00418023  1
  Fe  Fe25  1  0.83751200  0.83750641  0.17083813  1
  Fe  Fe26  1  0.67084693  0.67084292  0.33750823  1
  Fe  Fe27  1  0.17083673  0.17085393  0.50418026  1
  Fe  Fe28  1  1.00417327  0.00418567  0.67084535  1
  Fe  Fe29  1  0.17084372  0.17084775  0.83750960  1
  Fe  Fe30  1  0.17083250  0.50417947  0.50418427  1
  Ni  Ni31  1  1.00417165  0.33751979  0.67084169  1
  Fe  Fe32  1  0.17083651  0.50418188  0.83750960  1
  Fe  Fe33  1  0.17083674  0.83750261  0.50418107  1
  Ni  Ni34  1  0.00418244  0.67084104  0.67083894  1
  Fe  Fe35  1  0.17083971  0.83750638  0.83751199  1
  Fe  Fe36  1  0.50418806  0.17085393  0.50418107  1
  Fe  Fe37  1  0.33750581  0.00418485  0.67084534  1
  Fe  Fe38  1  0.50418107  0.17084774  0.83750879  1
  Fe  Fe39  1  0.50418830  0.50417547  0.50418026  1
  Fe  Fe40  1  0.33750580  0.33751740  0.67084615  1
  Fe  Fe41  1  0.50418427  0.50417786  0.83751361  1
  Fe  Fe42  1  0.50418407  0.83750660  0.50417706  1
  Fe  Fe43  1  0.33750561  0.67083375  0.67084454  1
  Fe  Fe44  1  0.50418108  0.83751039  0.83751600  1
  Fe  Fe45  1  0.83751120  0.17085817  0.50418427  1
  Fe  Fe46  1  0.67085692  0.00418586  0.67084535  1
  Fe  Fe47  1  0.83751120  0.17085093  0.83750558  1
  Ni  Ni48  1  0.83751328  0.50417731  0.50418255  1
  Ni  Ni49  1  0.67084650  0.33750511  0.67084169  1
  Fe  Fe50  1  0.83751522  0.50418189  0.83750259  1
  Fe  Fe51  1  0.83751520  0.83750237  0.50418026  1
  Fe  Fe52  1  0.67086034  0.67082951  0.67084751  1
  Fe  Fe53  1  0.83751522  0.83750319  0.83751762  1
" 