3223,Ni89Fe9Cr1_9,-239.816143780963, 185.554934305855,Ni89Fe9Cr1,"# generated using pymatgen
 data_Cr(FeNi12)2
_symmetry_space_group_name_H-M   'P 1'
_cell_length_a   7.44708013
_cell_length_b   7.44708013
_cell_length_c   10.53176172
_cell_angle_alpha   90.00000000
_cell_angle_beta   90.00000000
_cell_angle_gamma   90.00000000
_symmetry_Int_Tables_number   1
_chemical_formula_structural   Cr(FeNi12)2
_chemical_formula_sum   'Cr2 Fe4 Ni48'
_cell_volume   584.08099856
_cell_formula_units_Z   2
loop_
 _symmetry_equiv_pos_site_id
 _symmetry_equiv_pos_as_xyz
  1  'x, y, z'
loop_
 _atom_site_type_symbol
 _atom_site_label
 _atom_site_symmetry_multiplicity
 _atom_site_fract_x
 _atom_site_fract_y
 _atom_site_fract_z
 _atom_site_occupancy
  Fe  Fe0  1  1.00074617  0.00134062  0.00154605  1
  Ni  Ni1  1  0.16824901  0.16845304  0.16797957  1
  Ni  Ni2  1  1.00100840  0.00134062  0.33431387  1
  Ni  Ni3  1  0.00200800  0.33430948  1.00081175  1
  Ni  Ni4  1  0.16795915  0.50134062  0.16811282  1
  Ni  Ni5  1  0.00177101  0.33391841  0.33503027  1
  Ni  Ni6  1  0.00200800  0.66837177  1.00081175  1
  Ni  Ni7  1  0.16824901  0.83422821  0.16797957  1
  Ni  Ni8  1  0.00177101  0.66876284  0.33503027  1
  Fe  Fe9  1  0.33531885  0.00134062  0.00167519  1
  Ni  Ni10  1  0.50144482  0.16809998  0.16818658  1
  Ni  Ni11  1  0.33470600  0.00134062  0.33524104  1
  Ni  Ni12  1  0.33408788  0.33472055  0.00136882  1
  Ni  Ni13  1  0.50138408  0.50134062  0.16754502  1
  Ni  Ni14  1  0.33444131  0.33441635  0.33454179  1
  Ni  Ni15  1  0.33408788  0.66796070  0.00136882  1
  Ni  Ni16  1  0.50144482  0.83458127  0.16818658  1
  Ni  Ni17  1  0.33444131  0.66826489  0.33454179  1
  Ni  Ni18  1  0.66834076  0.00134062  1.00128706  1
  Ni  Ni19  1  0.83433024  0.16838789  0.16790329  1
  Ni  Ni20  1  0.66830730  0.00134062  0.33483271  1
  Ni  Ni21  1  0.66792287  0.33306551  1.00087964  1
  Ni  Ni22  1  0.83467895  0.50134062  0.16806317  1
  Ni  Ni23  1  0.66780961  0.33365298  0.33475424  1
  Ni  Ni24  1  0.66792287  0.66961574  1.00087964  1
  Ni  Ni25  1  0.83433024  0.83429336  0.16790329  1
  Ni  Ni26  1  0.66780961  0.66902827  0.33475424  1
  Ni  Ni27  1  0.16903569  0.16897018  0.50085851  1
  Cr  Cr28  1  0.00182334  0.00134062  0.66807325  1
  Ni  Ni29  1  0.16928358  0.16941404  0.83518858  1
  Ni  Ni30  1  0.16767720  0.50134062  0.50153588  1
  Ni  Ni31  1  0.00220087  0.33598028  0.66817986  1
  Ni  Ni32  1  0.16701244  0.50134062  0.83437266  1
  Ni  Ni33  1  0.16903569  0.83371107  0.50085851  1
  Ni  Ni34  1  0.00220087  0.66670097  0.66817986  1
  Ni  Ni35  1  0.16928358  0.83326721  0.83518858  1
  Ni  Ni36  1  0.50054461  0.16870644  0.50058150  1
  Fe  Fe37  1  0.33467687  0.00134062  0.66760033  1
  Ni  Ni38  1  0.50064792  0.16816448  0.83525301  1
  Ni  Ni39  1  0.50163865  0.50134062  0.50205375  1
  Ni  Ni40  1  0.33432813  0.33533832  0.66811287  1
  Fe  Fe41  1  0.50128961  0.50134062  0.83462510  1
  Ni  Ni42  1  0.50054461  0.83397481  0.50058150  1
  Ni  Ni43  1  0.33432813  0.66734293  0.66811287  1
  Ni  Ni44  1  0.50064792  0.83451677  0.83525301  1
  Ni  Ni45  1  0.83444217  0.17007117  0.49976406  1
  Cr  Cr46  1  0.66751691  0.00134062  0.66729053  1
  Ni  Ni47  1  0.83409615  0.17043512  0.83634701  1
  Ni  Ni48  1  0.83470661  0.50134062  0.50185212  1
  Ni  Ni49  1  0.66748949  0.33563142  0.66839199  1
  Ni  Ni50  1  0.83533570  0.50134062  0.83410652  1
  Ni  Ni51  1  0.83444217  0.83261008  0.49976406  1
  Ni  Ni52  1  0.66748949  0.66704983  0.66839199  1
  Ni  Ni53  1  0.83409615  0.83224613  0.83634701  1
" 