5446,Ni89Fe7Cr3_9,-238.854312813251, 181.475125165871,Ni89Fe7Cr3,"# generated using pymatgen
 data_CrFeNi16
_symmetry_space_group_name_H-M   'P 1'
_cell_length_a   7.45373911
_cell_length_b   7.45373911
_cell_length_c   10.54117894
_cell_angle_alpha   90.00000000
_cell_angle_beta   90.00000000
_cell_angle_gamma   90.00000000
_symmetry_Int_Tables_number   1
_chemical_formula_structural   CrFeNi16
_chemical_formula_sum   'Cr3 Fe3 Ni48'
_cell_volume   585.64920974
_cell_formula_units_Z   3
loop_
 _symmetry_equiv_pos_site_id
 _symmetry_equiv_pos_as_xyz
  1  'x, y, z'
loop_
 _atom_site_type_symbol
 _atom_site_label
 _atom_site_symmetry_multiplicity
 _atom_site_fract_x
 _atom_site_fract_y
 _atom_site_fract_z
 _atom_site_occupancy
  Ni  Ni0  1  0.00094335  1.00082169  0.00105848  1
  Ni  Ni1  1  0.16712836  0.16715020  0.16695065  1
  Ni  Ni2  1  0.00178192  0.00168038  0.33344680  1
  Ni  Ni3  1  1.00085417  0.33464330  0.00124128  1
  Ni  Ni4  1  0.16574230  0.50097042  0.16718465  1
  Ni  Ni5  1  1.00071242  0.33451238  0.33428010  1
  Ni  Ni6  1  0.00121703  0.66720905  0.00101284  1
  Ni  Ni7  1  0.16743883  0.83455771  0.16762962  1
  Ni  Ni8  1  0.00196059  0.66648589  0.33339376  1
  Ni  Ni9  1  0.33446701  1.00046254  0.00112325  1
  Ni  Ni10  1  0.50118748  0.16552029  0.16695036  1
  Ni  Ni11  1  0.33446680  1.00043220  0.33447393  1
  Ni  Ni12  1  0.33338789  0.33384218  1.00001064  1
  Cr  Cr13  1  0.50071099  0.50092926  0.16726632  1
  Ni  Ni14  1  0.33338615  0.33361032  0.33530697  1
  Ni  Ni15  1  0.33338928  0.66837794  1.00028266  1
  Ni  Ni16  1  0.50087680  0.83618590  0.16763005  1
  Ni  Ni17  1  0.33338513  0.66863498  0.33516928  1
  Ni  Ni18  1  0.66726783  1.00082213  0.00130437  1
  Ni  Ni19  1  0.83436245  0.16721378  0.16788228  1
  Ni  Ni20  1  0.66643034  0.00167988  0.33320120  1
  Ni  Ni21  1  0.66843185  0.33356500  1.00016348  1
  Ni  Ni22  1  0.83598874  0.50065918  0.16737627  1
  Ni  Ni23  1  0.66857882  0.33343159  0.33535838  1
  Ni  Ni24  1  0.66807435  0.66828680  0.99993494  1
  Ni  Ni25  1  0.83436253  0.83480439  0.16650517  1
  Ni  Ni26  1  0.66733268  0.66756667  0.33447369  1
  Ni  Ni27  1  0.16773135  0.16751955  0.50174623  1
  Ni  Ni28  1  0.00159644  0.00184505  0.66817649  1
  Fe  Fe29  1  0.16752074  0.16805507  0.83417103  1
  Ni  Ni30  1  0.16709245  0.49994368  0.50023964  1
  Ni  Ni31  1  1.00043808  0.33422281  0.66715816  1
  Ni  Ni32  1  0.16691469  0.50077665  0.83524819  1
  Ni  Ni33  1  0.16878919  0.83521461  0.50018177  1
  Ni  Ni34  1  1.00004810  0.66660888  0.66827513  1
  Ni  Ni35  1  0.16765116  0.83481807  0.83486094  1
  Ni  Ni36  1  0.50076903  0.16770905  0.50155459  1
  Ni  Ni37  1  0.33423129  0.00223076  0.66708725  1
  Fe  Fe38  1  0.50091856  0.16811807  0.83423409  1
  Ni  Ni39  1  0.50159780  0.49994391  0.50062399  1
  Ni  Ni40  1  0.33422575  0.33267372  0.66736616  1
  Ni  Ni41  1  0.50177539  0.50077463  0.83486379  1
  Ni  Ni42  1  0.49971721  0.83502469  0.49998931  1
  Cr  Cr43  1  0.33422379  0.66755188  0.66668611  1
  Ni  Ni44  1  0.50085040  0.83462588  0.83505431  1
  Ni  Ni45  1  0.83417796  0.16940340  0.50076134  1
  Ni  Ni46  1  0.66685137  0.00184220  0.66817439  1
  Ni  Ni47  1  0.83417687  0.16801138  0.83403431  1
  Ni  Ni48  1  0.83398803  0.49889247  0.50132224  1
  Ni  Ni49  1  0.66801408  0.33421610  0.66715809  1
  Ni  Ni50  1  0.83398826  0.49978306  0.83398069  1
  Cr  Cr51  1  0.83440975  0.83453159  0.50189173  1
  Ni  Ni52  1  0.66840546  0.66661781  0.66827415  1
  Fe  Fe53  1  0.83423863  0.83319693  0.83448240  1
" 