2930,Ni89Cr11_10,-203.561521850398, 181.455118557232,Ni89Cr11,"# generated using pymatgen
 data_Cr8Ni
_symmetry_space_group_name_H-M   'P 1'
_cell_length_a   7.59236710
_cell_length_b   7.59236710
_cell_length_c   10.73722853
_cell_angle_alpha   90.00000000
_cell_angle_beta   90.00000000
_cell_angle_gamma   90.00000000
_symmetry_Int_Tables_number   1
_chemical_formula_structural   Cr8Ni
_chemical_formula_sum   'Cr48 Ni6'
_cell_volume   618.93721158
_cell_formula_units_Z   6
loop_
 _symmetry_equiv_pos_site_id
 _symmetry_equiv_pos_as_xyz
  1  'x, y, z'
loop_
 _atom_site_type_symbol
 _atom_site_label
 _atom_site_symmetry_multiplicity
 _atom_site_fract_x
 _atom_site_fract_y
 _atom_site_fract_z
 _atom_site_occupancy
  Cr  Cr0  1  0.99126070  -0.00642430  -0.00712728  1
  Cr  Cr1  1  0.15688047  0.15965663  0.15728571  1
  Cr  Cr2  1  0.98995500  -0.00726039  0.32519955  1
  Ni  Ni3  1  0.98981806  0.32525029  -0.00825275  1
  Cr  Cr4  1  0.15735120  0.49034394  0.15820917  1
  Cr  Cr5  1  0.98994670  0.32340146  0.32445499  1
  Cr  Cr6  1  0.99022004  0.65654353  0.99062022  1
  Cr  Cr7  1  0.15847792  0.82524133  0.15933707  1
  Cr  Cr8  1  -0.00722166  0.65910073  0.32542756  1
  Cr  Cr9  1  0.32507360  0.99139753  0.99139888  1
  Cr  Cr10  1  0.49239024  0.15795817  0.15818382  1
  Cr  Cr11  1  0.32473533  0.99105894  0.32427364  1
  Cr  Cr12  1  0.32403260  0.32513501  0.99174677  1
  Cr  Cr13  1  0.49246752  0.49259334  0.15860343  1
  Cr  Cr14  1  0.32644311  0.32677883  0.32598255  1
  Cr  Cr15  1  0.32613170  0.65870800  -0.00790539  1
  Cr  Cr16  1  0.49303935  0.82468972  0.15728372  1
  Cr  Cr17  1  0.32529003  0.65740359  0.32598136  1
  Cr  Cr18  1  0.65890510  0.99148022  -0.00712758  1
  Ni  Ni19  1  0.82619897  0.15904946  0.15791221  1
  Cr  Cr20  1  0.66055020  -0.00610850  0.32485153  1
  Cr  Cr21  1  0.66106529  0.32617396  -0.00825283  1
  Cr  Cr22  1  0.82542412  0.49099565  0.15611288  1
  Cr  Cr23  1  0.65885215  0.32395608  0.32655782  1
  Ni  Ni24  1  0.65931598  0.65736249  0.99072331  1
  Cr  Cr25  1  0.82372504  0.82516173  0.15820914  1
  Cr  Cr26  1  0.65717287  0.65739444  0.32558546  1
  Cr  Cr27  1  0.15747326  0.15869368  0.49232340  1
  Cr  Cr28  1  0.99107499  -0.00804273  0.65716496  1
  Cr  Cr29  1  0.15850236  0.15947329  0.82563315  1
  Cr  Cr30  1  0.15957771  0.49146100  0.49116953  1
  Cr  Cr31  1  0.98995131  0.32496385  0.65903561  1
  Cr  Cr32  1  0.15572855  0.49016095  0.82586131  1
  Cr  Cr33  1  0.15795751  0.82508598  0.49174704  1
  Cr  Cr34  1  0.99165839  0.65831950  0.65919513  1
  Cr  Cr35  1  0.15847810  0.82560760  0.82415739  1
  Cr  Cr36  1  0.49272677  0.15973916  0.49232364  1
  Cr  Cr37  1  0.32473648  0.99139713  0.65956867  1
  Cr  Cr38  1  0.49076515  0.15777519  0.82473382  1
  Ni  Ni39  1  0.49168232  0.49167278  0.49169667  1
  Cr  Cr40  1  0.32644143  0.32610001  0.65751365  1
  Cr  Cr41  1  0.49408872  0.49241118  0.82546683  1
  Cr  Cr42  1  0.49225816  0.82402876  0.49174695  1
  Cr  Cr43  1  0.32528847  0.65774402  0.65716668  1
  Cr  Cr44  1  0.49304007  0.82505512  0.82621120  1
  Ni  Ni45  1  0.82491013  0.15844508  0.49142420  1
  Cr  Cr46  1  0.65942916  -0.00689103  0.65751334  1
  Cr  Cr47  1  0.82597311  0.16052032  0.82528420  1
  Cr  Cr48  1  0.82398111  0.49099321  0.49214218  1
  Cr  Cr49  1  0.65884915  0.32551409  0.65693550  1
  Ni  Ni50  1  0.82522217  0.49203614  0.82697901  1
  Cr  Cr51  1  0.82502541  0.82613285  0.49174622  1
  Cr  Cr52  1  0.65829342  0.65661898  0.65903684  1
  Cr  Cr53  1  0.82372335  0.82228045  0.82528630  1
" 