2998,Ni89Fe8Cr1_8,-240.054770017316, 186.871044059739,Ni89Fe8Cr1,"# generated using pymatgen
 data_Cr(FeNi12)2
_symmetry_space_group_name_H-M   'P 1'
_cell_length_a   7.44895118
_cell_length_b   7.44895118
_cell_length_c   10.53440779
_cell_angle_alpha   90.00000000
_cell_angle_beta   90.00000000
_cell_angle_gamma   90.00000000
_symmetry_Int_Tables_number   1
_chemical_formula_structural   Cr(FeNi12)2
_chemical_formula_sum   'Cr2 Fe4 Ni48'
_cell_volume   584.52135426
_cell_formula_units_Z   2
loop_
 _symmetry_equiv_pos_site_id
 _symmetry_equiv_pos_as_xyz
  1  'x, y, z'
loop_
 _atom_site_type_symbol
 _atom_site_label
 _atom_site_symmetry_multiplicity
 _atom_site_fract_x
 _atom_site_fract_y
 _atom_site_fract_z
 _atom_site_occupancy
  Ni  Ni0  1  1.00055169  0.00249999  0.00170378  1
  Ni  Ni1  1  0.16772474  0.16774758  0.16716608  1
  Ni  Ni2  1  0.00159710  1.00061615  0.33537541  1
  Ni  Ni3  1  0.00155152  0.33468318  0.00156014  1
  Ni  Ni4  1  0.16735237  0.50151728  0.16726905  1
  Ni  Ni5  1  0.00207253  0.33500414  0.33463582  1
  Ni  Ni6  1  1.00013861  0.66658172  0.00233009  1
  Ni  Ni7  1  0.16777331  0.83436184  0.16774695  1
  Ni  Ni8  1  1.00024438  0.66805371  0.33440794  1
  Ni  Ni9  1  0.33552580  0.00235501  0.00227721  1
  Ni  Ni10  1  0.50167991  0.16787377  0.16735770  1
  Ni  Ni11  1  0.33340407  1.00099177  0.33351755  1
  Ni  Ni12  1  0.33398654  0.33403461  1.00055686  1
  Ni  Ni13  1  0.50182600  0.50112645  0.16703936  1
  Ni  Ni14  1  0.33310125  0.33470076  0.33386887  1
  Ni  Ni15  1  0.33537415  0.66710978  0.00268604  1
  Ni  Ni16  1  0.50121871  0.83460720  0.16794814  1
  Fe  Fe17  1  0.33459107  0.66747433  0.33441544  1
  Ni  Ni18  1  0.66749072  1.00095256  0.00150677  1
  Ni  Ni19  1  0.83423859  0.16825517  0.16816171  1
  Ni  Ni20  1  0.66866946  0.99919200  0.33345971  1
  Ni  Ni21  1  0.66797359  0.33445065  0.00143633  1
  Ni  Ni22  1  0.83449312  0.50111561  0.16791509  1
  Ni  Ni23  1  0.66849805  0.33617766  0.33381869  1
  Ni  Ni24  1  0.66803397  0.66822430  1.00052490  1
  Ni  Ni25  1  0.83461982  0.83426163  0.16655922  1
  Ni  Ni26  1  0.66889814  0.66832289  0.33506056  1
  Ni  Ni27  1  0.16639679  0.16792843  0.50215516  1
  Fe  Fe28  1  1.00066738  0.00251059  0.66697355  1
  Ni  Ni29  1  0.16780537  0.16952632  0.83441905  1
  Ni  Ni30  1  0.16735126  0.50166612  0.50155309  1
  Ni  Ni31  1  0.00153689  0.33558399  0.66738784  1
  Ni  Ni32  1  0.16621159  0.50055005  0.83465711  1
  Ni  Ni33  1  0.16803644  0.83407532  0.50122970  1
  Ni  Ni34  1  1.00015858  0.66590547  0.66696423  1
  Cr  Cr35  1  0.16918697  0.83332672  0.83508459  1
  Cr  Cr36  1  0.50226805  0.16815343  0.50068321  1
  Ni  Ni37  1  0.33525219  0.00135704  0.66771988  1
  Ni  Ni38  1  0.50200931  0.16648245  0.83487700  1
  Ni  Ni39  1  0.50170609  0.50296071  0.50241351  1
  Ni  Ni40  1  0.33276241  0.33482612  0.66915599  1
  Fe  Fe41  1  0.50069080  0.50037332  0.83441653  1
  Ni  Ni42  1  0.50108197  0.83307782  0.50111102  1
  Ni  Ni43  1  0.33490170  0.66746817  0.66608121  1
  Ni  Ni44  1  0.50203911  0.83500222  0.83440662  1
  Ni  Ni45  1  0.83578527  0.16845340  0.50117148  1
  Ni  Ni46  1  0.66782474  0.99990594  0.66856219  1
  Ni  Ni47  1  0.83366591  0.16978432  0.83441230  1
  Ni  Ni48  1  0.83458656  0.50114576  0.50104224  1
  Ni  Ni49  1  0.66922875  0.33525692  0.66831068  1
  Ni  Ni50  1  0.83513367  0.50052718  0.83466688  1
  Ni  Ni51  1  0.83444527  0.83410689  0.50254966  1
  Ni  Ni52  1  0.66846900  0.66853782  0.66819569  1
  Fe  Fe53  1  0.83376229  0.83480932  0.83508777  1
" 