5999,Ni89Fe11_15,-228.250191337049, 157.488684879212,Ni89Fe11,"# generated using pymatgen
 data_Fe8Ni
_symmetry_space_group_name_H-M   'P 1'
_cell_length_a   7.40264654
_cell_length_b   7.40264654
_cell_length_c   10.46892313
_cell_angle_alpha   90.00000000
_cell_angle_beta   90.00000000
_cell_angle_gamma   90.00000000
_symmetry_Int_Tables_number   1
_chemical_formula_structural   Fe8Ni
_chemical_formula_sum   'Fe48 Ni6'
_cell_volume   573.68835834
_cell_formula_units_Z   6
loop_
 _symmetry_equiv_pos_site_id
 _symmetry_equiv_pos_as_xyz
  1  'x, y, z'
loop_
 _atom_site_type_symbol
 _atom_site_label
 _atom_site_symmetry_multiplicity
 _atom_site_fract_x
 _atom_site_fract_y
 _atom_site_fract_z
 _atom_site_occupancy
  Fe  Fe0  1  0.00478419  1.00391697  0.00480502  1
  Fe  Fe1  1  0.17029149  0.17104226  0.17101656  1
  Fe  Fe2  1  0.00468773  1.00393108  0.33732775  1
  Fe  Fe3  1  0.00441132  0.33829473  1.00373236  1
  Fe  Fe4  1  0.17098996  0.50432255  0.17101494  1
  Fe  Fe5  1  0.00466345  0.33793510  0.33792694  1
  Fe  Fe6  1  0.00463066  0.67082881  1.00398320  1
  Fe  Fe7  1  0.17100044  0.83769281  0.17101117  1
  Fe  Fe8  1  0.00489450  0.67117806  0.33768280  1
  Fe  Fe9  1  0.33767232  1.00381254  1.00414052  1
  Fe  Fe10  1  0.50508857  0.17093183  0.17092295  1
  Fe  Fe11  1  0.33759039  1.00381992  0.33777681  1
  Fe  Fe12  1  0.33778286  0.33816292  0.00435018  1
  Fe  Fe13  1  0.50428737  0.50433146  0.17172273  1
  Fe  Fe14  1  0.33806019  0.33852715  0.33806109  1
  Ni  Ni15  1  0.33800805  0.67119892  1.00400785  1
  Fe  Fe16  1  0.50438656  0.83779390  0.17091941  1
  Ni  Ni17  1  0.33811142  0.67121477  0.33802955  1
  Fe  Fe18  1  0.67059946  1.00401485  0.00471654  1
  Ni  Ni19  1  0.83800678  0.17083715  0.17059400  1
  Fe  Fe20  1  0.67077734  1.00402987  0.33730217  1
  Fe  Fe21  1  0.67085758  0.33831171  0.00444825  1
  Fe  Fe22  1  0.83778320  0.50360924  0.17030033  1
  Fe  Fe23  1  0.67033012  0.33830836  0.33758399  1
  Fe  Fe24  1  0.67074545  0.67072157  1.00389309  1
  Fe  Fe25  1  0.83767298  0.83848016  0.17111026  1
  Fe  Fe26  1  0.67020621  0.67070779  0.33815460  1
  Fe  Fe27  1  0.17133912  0.17191404  0.50480934  1
  Fe  Fe28  1  0.00443659  0.00487959  0.67090111  1
  Fe  Fe29  1  0.17012441  0.17191511  0.83721926  1
  Fe  Fe30  1  0.17163817  0.50434376  0.50426832  1
  Ni  Ni31  1  1.00360067  0.33727528  0.67101721  1
  Fe  Fe32  1  0.17036683  0.50433786  0.83775865  1
  Fe  Fe33  1  0.17198354  0.83679229  0.50399442  1
  Fe  Fe34  1  1.00389864  0.67025816  0.67138827  1
  Fe  Fe35  1  0.17077265  0.83678743  0.83804070  1
  Fe  Fe36  1  0.50436146  0.17148481  0.50444324  1
  Fe  Fe37  1  0.33698033  0.00513226  0.67113205  1
  Fe  Fe38  1  0.50496836  0.17145578  0.83768339  1
  Ni  Ni39  1  0.50404658  0.50465732  0.50478744  1
  Fe  Fe40  1  0.33738865  0.33769950  0.67065757  1
  Fe  Fe41  1  0.50461021  0.50471569  0.83741769  1
  Fe  Fe42  1  0.50408271  0.83686376  0.50411049  1
  Fe  Fe43  1  0.33733733  0.67022074  0.67066480  1
  Fe  Fe44  1  0.50469284  0.83688458  0.83801594  1
  Fe  Fe45  1  0.83734153  0.17181858  0.50387744  1
  Fe  Fe46  1  0.67163096  0.00496322  0.67101632  1
  Fe  Fe47  1  0.83795536  0.17184526  0.83805657  1
  Fe  Fe48  1  0.83740872  0.50406758  0.50542322  1
  Fe  Fe49  1  0.67155316  0.33823939  0.67102559  1
  Ni  Ni50  1  0.83767870  0.50422781  0.83768575  1
  Fe  Fe51  1  0.83698244  0.83716304  0.50434991  1
  Fe  Fe52  1  0.67180227  0.66985399  0.67102456  1
  Fe  Fe53  1  0.83759007  0.83713957  0.83758857  1
" 