1438,Ni89Fe7Cr3_1,-238.922560624787, 182.108441158061,Ni89Fe7Cr3,"# generated using pymatgen
 data_CrFeNi16
_symmetry_space_group_name_H-M   'P 1'
_cell_length_a   7.45357952
_cell_length_b   7.45357952
_cell_length_c   10.54095325
_cell_angle_alpha   90.00000000
_cell_angle_beta   90.00000000
_cell_angle_gamma   90.00000000
_symmetry_Int_Tables_number   1
_chemical_formula_structural   CrFeNi16
_chemical_formula_sum   'Cr3 Fe3 Ni48'
_cell_volume   585.61159362
_cell_formula_units_Z   3
loop_
 _symmetry_equiv_pos_site_id
 _symmetry_equiv_pos_as_xyz
  1  'x, y, z'
loop_
 _atom_site_type_symbol
 _atom_site_label
 _atom_site_symmetry_multiplicity
 _atom_site_fract_x
 _atom_site_fract_y
 _atom_site_fract_z
 _atom_site_occupancy
  Ni  Ni0  1  0.99935498  0.99824092  0.99997266  1
  Cr  Cr1  1  0.16796334  0.16728783  0.16827706  1
  Ni  Ni2  1  0.99900509  0.99911951  0.33540892  1
  Fe  Fe3  1  1.00028655  0.33451369  1.00016535  1
  Ni  Ni4  1  0.16761271  0.50211484  0.16756892  1
  Ni  Ni5  1  1.00026213  0.33591897  0.33461168  1
  Ni  Ni6  1  0.00128436  0.66836361  1.00073974  1
  Ni  Ni7  1  0.16751715  0.83314774  0.16746990  1
  Ni  Ni8  1  0.00195356  0.66789654  0.33425031  1
  Ni  Ni9  1  0.33488437  0.99981743  0.99962849  1
  Ni  Ni10  1  0.50082608  0.16654420  0.16653561  1
  Ni  Ni11  1  0.33566356  0.99914135  0.33542068  1
  Ni  Ni12  1  0.33688935  0.33567947  0.99993153  1
  Ni  Ni13  1  0.50006140  0.50208597  0.16657422  1
  Ni  Ni14  1  0.33468265  0.33610358  0.33573857  1
  Ni  Ni15  1  0.33331491  0.66724941  0.00110462  1
  Ni  Ni16  1  0.50111387  0.83419949  0.16717858  1
  Ni  Ni17  1  0.33288590  0.66758378  0.33346449  1
  Ni  Ni18  1  0.66834614  0.00182347  0.00133495  1
  Ni  Ni19  1  0.83410592  0.16650463  0.16637615  1
  Ni  Ni20  1  0.66802925  1.00052669  0.33357318  1
  Ni  Ni21  1  0.66727209  0.33386013  0.00096395  1
  Ni  Ni22  1  0.83522177  0.50223245  0.16628996  1
  Cr  Cr23  1  0.66779406  0.33220002  0.33357718  1
  Ni  Ni24  1  0.66817264  0.66713610  1.00084600  1
  Ni  Ni25  1  0.83404237  0.83398836  0.16767609  1
  Fe  Fe26  1  0.66771423  0.66847070  0.33344599  1
  Ni  Ni27  1  0.16738713  0.16775147  0.50110487  1
  Ni  Ni28  1  1.00011437  0.99994491  0.66727504  1
  Ni  Ni29  1  0.16779505  0.16751204  0.83335492  1
  Ni  Ni30  1  0.16653965  0.49976193  0.49969534  1
  Ni  Ni31  1  0.99996057  0.33487567  0.66778724  1
  Ni  Ni32  1  0.16662205  0.49952515  0.83556751  1
  Ni  Ni33  1  0.16687746  0.83528441  0.49985350  1
  Ni  Ni34  1  1.00026867  0.66790271  0.66767903  1
  Ni  Ni35  1  0.16653205  0.83553803  0.83547476  1
  Ni  Ni36  1  0.49990716  0.16648711  0.50177783  1
  Ni  Ni37  1  0.33470539  0.00155963  0.66766583  1
  Ni  Ni38  1  0.50070580  0.16750330  0.83425165  1
  Ni  Ni39  1  0.50129196  0.50163754  0.50108191  1
  Ni  Ni40  1  0.33513545  0.33383020  0.66699090  1
  Ni  Ni41  1  0.50200344  0.50013715  0.83509295  1
  Ni  Ni42  1  0.50226772  0.83495471  0.49992251  1
  Cr  Cr43  1  0.33160674  0.66809288  0.66883956  1
  Ni  Ni44  1  0.50231136  0.83527291  0.83574915  1
  Ni  Ni45  1  0.83546028  0.16687097  0.50157912  1
  Ni  Ni46  1  0.66805244  0.00257577  0.66778409  1
  Ni  Ni47  1  0.83438174  0.16744931  0.83460272  1
  Ni  Ni48  1  0.83499875  0.50224170  0.50214011  1
  Ni  Ni49  1  0.66770341  0.33319239  0.66775205  1
  Ni  Ni50  1  0.83411831  0.50120611  0.83416802  1
  Ni  Ni51  1  0.83363705  0.83385567  0.50101768  1
  Fe  Fe52  1  0.66823577  0.66797738  0.66845718  1
  Ni  Ni53  1  0.83390685  0.83409521  0.83399683  1
" 