1428,Ni89Cr11_12,-203.636403133276, 183.782496722251,Ni89Cr11,"# generated using pymatgen
 data_Cr8Ni
_symmetry_space_group_name_H-M   'P 1'
_cell_length_a   7.58989800
_cell_length_b   7.58989800
_cell_length_c   10.73373669
_cell_angle_alpha   90.00000000
_cell_angle_beta   90.00000000
_cell_angle_gamma   90.00000000
_symmetry_Int_Tables_number   1
_chemical_formula_structural   Cr8Ni
_chemical_formula_sum   'Cr48 Ni6'
_cell_volume   618.33355716
_cell_formula_units_Z   6
loop_
 _symmetry_equiv_pos_site_id
 _symmetry_equiv_pos_as_xyz
  1  'x, y, z'
loop_
 _atom_site_type_symbol
 _atom_site_label
 _atom_site_symmetry_multiplicity
 _atom_site_fract_x
 _atom_site_fract_y
 _atom_site_fract_z
 _atom_site_occupancy
  Cr  Cr0  1  -0.00802449  -0.00784595  0.99049489  1
  Cr  Cr1  1  0.15803142  0.15815820  0.15808886  1
  Ni  Ni2  1  -0.00807332  -0.00732569  0.32525035  1
  Ni  Ni3  1  0.99137624  0.32262367  0.99002855  1
  Cr  Cr4  1  0.15741853  0.49022160  0.15716347  1
  Cr  Cr5  1  0.99152925  0.32413256  0.32499693  1
  Cr  Cr6  1  -0.00747663  0.65913878  0.99026068  1
  Cr  Cr7  1  0.15825018  0.82742560  0.15810670  1
  Cr  Cr8  1  -0.00761439  0.66046104  0.32552101  1
  Ni  Ni9  1  0.32296001  0.99146138  0.99013977  1
  Cr  Cr10  1  0.49013348  0.15717036  0.15714251  1
  Cr  Cr11  1  0.32409845  -0.00808323  0.32424800  1
  Cr  Cr12  1  0.32524155  0.32390947  -0.00767022  1
  Cr  Cr13  1  0.49162755  0.49198893  0.15811201  1
  Cr  Cr14  1  0.32635427  0.32529221  0.32681102  1
  Cr  Cr15  1  0.32407085  0.66114582  0.99059623  1
  Cr  Cr16  1  0.49095138  0.82667040  0.15647614  1
  Cr  Cr17  1  0.32520232  0.65849483  0.32563811  1
  Cr  Cr18  1  0.65824789  -0.00723944  0.99079903  1
  Cr  Cr19  1  0.82762942  0.15831831  0.15814294  1
  Cr  Cr20  1  0.65955491  -0.00723128  0.32512175  1
  Cr  Cr21  1  0.66083107  0.32356811  0.99152209  1
  Cr  Cr22  1  0.82715627  0.49125494  0.15650595  1
  Cr  Cr23  1  0.65805730  0.32483630  0.32459081  1
  Cr  Cr24  1  0.65882884  0.65866663  -0.00643158  1
  Cr  Cr25  1  0.82588254  0.82603364  0.16120915  1
  Cr  Cr26  1  0.65813697  0.65795751  0.32345304  1
  Cr  Cr27  1  0.15753972  0.15795377  0.48965668  1
  Cr  Cr28  1  0.99119545  -0.00801505  0.65999163  1
  Cr  Cr29  1  0.15798798  0.15882161  0.82736048  1
  Cr  Cr30  1  0.15776115  0.49145362  0.49265439  1
  Cr  Cr31  1  0.99126291  0.32385228  0.66033703  1
  Cr  Cr32  1  0.15809897  0.49195872  0.82592358  1
  Cr  Cr33  1  0.15725772  0.82661208  0.49121721  1
  Cr  Cr34  1  -0.00668628  0.66025635  0.66019564  1
  Ni  Ni35  1  0.15900986  0.82769035  0.82679931  1
  Cr  Cr36  1  0.49256081  0.15672038  0.49380813  1
  Cr  Cr37  1  0.32434105  0.99142097  0.66032796  1
  Cr  Cr38  1  0.49271775  0.15697531  0.82474973  1
  Cr  Cr39  1  0.49234982  0.49229618  0.49282075  1
  Cr  Cr40  1  0.32519119  0.32506736  0.65649989  1
  Cr  Cr41  1  0.49216680  0.49198848  0.82485862  1
  Cr  Cr42  1  0.49348732  0.82636176  0.49366057  1
  Cr  Cr43  1  0.32331702  0.65982887  0.65967462  1
  Cr  Cr44  1  0.49110184  0.82664150  0.82538972  1
  Cr  Cr45  1  0.82561572  0.15664391  0.49262392  1
  Ni  Ni46  1  0.66038082  -0.00695489  0.66046429  1
  Ni  Ni47  1  0.82579528  0.15737381  0.82541323  1
  Cr  Cr48  1  0.82571423  0.49251346  0.49210981  1
  Cr  Cr49  1  0.65987780  0.32248735  0.65971381  1
  Cr  Cr50  1  0.82629113  0.48964490  0.82697096  1
  Cr  Cr51  1  0.82470137  0.82664895  0.49104554  1
  Cr  Cr52  1  0.65910066  0.65928350  0.65858895  1
  Cr  Cr53  1  0.82445700  0.82624667  0.82380227  1
" 