8969,Ni89Fe7Cr3_5,-238.901328999448, 182.382485131255,Ni89Fe7Cr3,"# generated using pymatgen
 data_CrFeNi16
_symmetry_space_group_name_H-M   'P 1'
_cell_length_a   7.45320848
_cell_length_b   7.45320848
_cell_length_c   10.54042851
_cell_angle_alpha   90.00000000
_cell_angle_beta   90.00000000
_cell_angle_gamma   90.00000000
_symmetry_Int_Tables_number   1
_chemical_formula_structural   CrFeNi16
_chemical_formula_sum   'Cr3 Fe3 Ni48'
_cell_volume   585.52414123
_cell_formula_units_Z   3
loop_
 _symmetry_equiv_pos_site_id
 _symmetry_equiv_pos_as_xyz
  1  'x, y, z'
loop_
 _atom_site_type_symbol
 _atom_site_label
 _atom_site_symmetry_multiplicity
 _atom_site_fract_x
 _atom_site_fract_y
 _atom_site_fract_z
 _atom_site_occupancy
  Ni  Ni0  1  0.00093618  1.00065895  1.00063222  1
  Ni  Ni1  1  0.16713984  0.16895236  0.16678937  1
  Cr  Cr2  1  1.00082786  1.00055328  0.33450406  1
  Ni  Ni3  1  0.00093874  0.33450128  0.00141381  1
  Ni  Ni4  1  0.16722667  0.50138702  0.16771114  1
  Ni  Ni5  1  1.00064565  0.33643829  0.33457437  1
  Ni  Ni6  1  0.00094616  0.66762152  0.00115392  1
  Ni  Ni7  1  0.16867125  0.83246304  0.16624483  1
  Ni  Ni8  1  0.00170035  0.66614325  0.33419257  1
  Ni  Ni9  1  0.33340251  0.99969771  1.00066724  1
  Cr  Cr10  1  0.50072914  0.16714102  0.16773830  1
  Ni  Ni11  1  0.33410083  0.99824573  0.33416565  1
  Ni  Ni12  1  0.33354784  0.33560168  1.00037528  1
  Ni  Ni13  1  0.50073870  0.50258524  0.16706907  1
  Ni  Ni14  1  0.33293481  0.33723834  0.33416953  1
  Ni  Ni15  1  0.33448164  0.66754985  1.00039455  1
  Ni  Ni16  1  0.50076140  0.83265764  0.16807911  1
  Ni  Ni17  1  0.33400007  0.66730394  0.33492383  1
  Ni  Ni18  1  0.66843127  0.99970256  0.99996130  1
  Ni  Ni19  1  0.83450409  0.16888579  0.16647908  1
  Ni  Ni20  1  0.66806600  0.99916818  0.33453559  1
  Ni  Ni21  1  0.66830780  0.33557399  0.99969282  1
  Ni  Ni22  1  0.83484548  0.50106578  0.16776993  1
  Ni  Ni23  1  0.66918914  0.33621745  0.33453491  1
  Ni  Ni24  1  0.66737360  0.66757511  0.00185727  1
  Ni  Ni25  1  0.83335005  0.83279440  0.16632687  1
  Fe  Fe26  1  0.66745014  0.66710947  0.33429694  1
  Ni  Ni27  1  0.16727610  0.16890224  0.50162688  1
  Ni  Ni28  1  0.00122206  1.00036466  0.66758152  1
  Ni  Ni29  1  0.16814734  0.16813491  0.83435489  1
  Ni  Ni30  1  0.16701431  0.50116443  0.50078570  1
  Ni  Ni31  1  0.00122402  0.33480647  0.66680953  1
  Ni  Ni32  1  0.16624709  0.50102222  0.83430069  1
  Ni  Ni33  1  0.16843849  0.83269529  0.50223023  1
  Ni  Ni34  1  1.00017586  0.66762019  0.66742035  1
  Ni  Ni35  1  0.16774211  0.83358816  0.83430128  1
  Cr  Cr36  1  0.50090631  0.16718104  0.50039476  1
  Ni  Ni37  1  0.33344074  1.00042711  0.66788586  1
  Ni  Ni38  1  0.50081301  0.16672735  0.83434758  1
  Ni  Ni39  1  0.50089431  0.50239506  0.50149875  1
  Ni  Ni40  1  0.33362868  0.33493180  0.66821633  1
  Fe  Fe41  1  0.50136713  0.50105206  0.83457020  1
  Ni  Ni42  1  0.50094205  0.83286185  0.50046594  1
  Fe  Fe43  1  0.33415339  0.66772704  0.66747907  1
  Ni  Ni44  1  0.50114156  0.83530391  0.83429952  1
  Ni  Ni45  1  0.83458170  0.16886901  0.50229211  1
  Ni  Ni46  1  0.66812382  0.99944170  0.66824550  1
  Ni  Ni47  1  0.83382834  0.16814064  0.83400906  1
  Ni  Ni48  1  0.83483646  0.50115208  0.50069150  1
  Ni  Ni49  1  0.66795061  0.33589504  0.66855912  1
  Ni  Ni50  1  0.83543392  0.50136649  0.83433951  1
  Ni  Ni51  1  0.83341635  0.83274346  0.50209119  1
  Ni  Ni52  1  0.66803052  0.66753683  0.66673869  1
  Ni  Ni53  1  0.83391016  0.83324973  0.83434436  1
" 