399,Ni89Fe7Cr3_7,-238.956370085292, 181.911370790348,Ni89Fe7Cr3,"# generated using pymatgen
 data_CrFeNi16
_symmetry_space_group_name_H-M   'P 1'
_cell_length_a   7.45405732
_cell_length_b   7.45405732
_cell_length_c   10.54162895
_cell_angle_alpha   90.00000000
_cell_angle_beta   90.00000000
_cell_angle_gamma   90.00000000
_symmetry_Int_Tables_number   1
_chemical_formula_structural   CrFeNi16
_chemical_formula_sum   'Cr3 Fe3 Ni48'
_cell_volume   585.72421793
_cell_formula_units_Z   3
loop_
 _symmetry_equiv_pos_site_id
 _symmetry_equiv_pos_as_xyz
  1  'x, y, z'
loop_
 _atom_site_type_symbol
 _atom_site_label
 _atom_site_symmetry_multiplicity
 _atom_site_fract_x
 _atom_site_fract_y
 _atom_site_fract_z
 _atom_site_occupancy
  Fe  Fe0  1  1.00021934  0.00207506  0.99997684  1
  Ni  Ni1  1  0.16815263  0.16958206  0.16769575  1
  Ni  Ni2  1  1.00012758  0.00140124  0.33480367  1
  Ni  Ni3  1  1.00053707  0.33426743  0.00111692  1
  Ni  Ni4  1  0.16675913  0.49834942  0.16840879  1
  Ni  Ni5  1  0.00094512  0.33403856  0.33367963  1
  Ni  Ni6  1  0.99785134  0.66652082  1.00004887  1
  Cr  Cr7  1  0.16723556  0.83449730  0.16913885  1
  Ni  Ni8  1  1.00006619  0.66717428  0.33480111  1
  Ni  Ni9  1  0.33502499  0.00344316  1.00004957  1
  Ni  Ni10  1  0.50066043  0.16752403  0.16763836  1
  Ni  Ni11  1  0.33417995  0.00227560  0.33398525  1
  Ni  Ni12  1  0.33396872  0.33156680  0.00111701  1
  Ni  Ni13  1  0.50180386  0.50015579  0.16907683  1
  Ni  Ni14  1  0.33410633  0.33390516  0.33341501  1
  Cr  Cr15  1  0.33504776  0.66722294  1.00003193  1
  Ni  Ni16  1  0.50334419  0.83493510  0.16832621  1
  Ni  Ni17  1  0.33410931  0.66642937  0.33379680  1
  Fe  Fe18  1  0.66730088  0.00112596  0.00093069  1
  Ni  Ni19  1  0.83380044  0.16804098  0.16801164  1
  Ni  Ni20  1  0.66830574  0.00139752  0.33263432  1
  Ni  Ni21  1  0.66810762  0.33427942  0.00087184  1
  Ni  Ni22  1  0.83405028  0.50103448  0.16737774  1
  Ni  Ni23  1  0.66756252  0.33396639  0.33410303  1
  Ni  Ni24  1  0.66972922  0.66757909  0.00111710  1
  Ni  Ni25  1  0.83198967  0.83354064  0.16795759  1
  Ni  Ni26  1  0.66844026  0.66724838  0.33259858  1
  Ni  Ni27  1  0.16784910  0.16787011  0.50062467  1
  Ni  Ni28  1  0.00095344  1.00057587  0.66775982  1
  Ni  Ni29  1  0.16815191  0.16759070  0.83429340  1
  Ni  Ni30  1  0.16676645  0.50098196  0.50062459  1
  Ni  Ni31  1  1.00070474  0.33403904  0.66781649  1
  Ni  Ni32  1  0.16675980  0.50034025  0.83357977  1
  Ni  Ni33  1  0.16623361  0.83376073  0.50100391  1
  Ni  Ni34  1  0.00089277  0.66799927  0.66776346  1
  Ni  Ni35  1  0.16727507  0.83468404  0.83265474  1
  Ni  Ni36  1  0.50082091  0.16859057  0.50081702  1
  Ni  Ni37  1  0.33335518  0.00144983  0.66857879  1
  Ni  Ni38  1  0.50047484  0.16734134  0.83415762  1
  Fe  Fe39  1  0.50087716  0.49908922  0.50087615  1
  Ni  Ni40  1  0.33434636  0.33390518  0.66808241  1
  Ni  Ni41  1  0.50161914  0.50034040  0.83272118  1
  Cr  Cr42  1  0.50067372  0.83488678  0.50066305  1
  Ni  Ni43  1  0.33328130  0.66725724  0.66877056  1
  Ni  Ni44  1  0.50135357  0.83493304  0.83366102  1
  Ni  Ni45  1  0.83394409  0.16805509  0.50081715  1
  Ni  Ni46  1  0.66830524  0.00163822  0.66886226  1
  Ni  Ni47  1  0.83398636  0.16785730  0.83378475  1
  Ni  Ni48  1  0.83503120  0.50079314  0.50081724  1
  Ni  Ni49  1  0.66756326  0.33396560  0.66763952  1
  Ni  Ni50  1  0.83423410  0.50121880  0.83441925  1
  Ni  Ni51  1  0.83574879  0.83376440  0.50062445  1
  Ni  Ni52  1  0.66844018  0.66700814  0.66889925  1
  Ni  Ni53  1  0.83398480  0.83354005  0.83403083  1
" 