812,Ni89Fe9Cr1_15,-239.885681718956, 186.447281148311,Ni89Fe9Cr1,"# generated using pymatgen
 data_Cr(FeNi12)2
_symmetry_space_group_name_H-M   'P 1'
_cell_length_a   7.44759962
_cell_length_b   7.44759962
_cell_length_c   10.53249638
_cell_angle_alpha   90.00000000
_cell_angle_beta   90.00000000
_cell_angle_gamma   90.00000000
_symmetry_Int_Tables_number   1
_chemical_formula_structural   Cr(FeNi12)2
_chemical_formula_sum   'Cr2 Fe4 Ni48'
_cell_volume   584.20323872
_cell_formula_units_Z   2
loop_
 _symmetry_equiv_pos_site_id
 _symmetry_equiv_pos_as_xyz
  1  'x, y, z'
loop_
 _atom_site_type_symbol
 _atom_site_label
 _atom_site_symmetry_multiplicity
 _atom_site_fract_x
 _atom_site_fract_y
 _atom_site_fract_z
 _atom_site_occupancy
  Ni  Ni0  1  0.00147292  1.00020573  1.00082410  1
  Ni  Ni1  1  0.16833604  0.16633818  0.16939832  1
  Ni  Ni2  1  1.00072643  0.00158195  0.33491064  1
  Cr  Cr3  1  0.00151312  0.33430532  0.00153642  1
  Ni  Ni4  1  0.16813666  0.50305312  0.16901425  1
  Ni  Ni5  1  0.00178880  0.33409028  0.33496332  1
  Ni  Ni6  1  0.00182671  0.66952378  1.00121638  1
  Ni  Ni7  1  0.16835028  0.83441395  0.16769917  1
  Ni  Ni8  1  0.00201435  0.66827165  0.33465705  1
  Ni  Ni9  1  0.33479211  1.00120301  0.00189809  1
  Ni  Ni10  1  0.50200782  0.16745137  0.16787485  1
  Fe  Fe11  1  0.33391385  1.00011408  0.33397542  1
  Ni  Ni12  1  0.33615089  0.33473526  1.00087065  1
  Ni  Ni13  1  0.50199041  0.50183433  0.16821164  1
  Ni  Ni14  1  0.33356302  0.33648459  0.33417902  1
  Ni  Ni15  1  0.33497148  0.66798733  1.00121720  1
  Ni  Ni16  1  0.50060140  0.83459208  0.16818298  1
  Ni  Ni17  1  0.33488330  0.66734510  0.33478232  1
  Ni  Ni18  1  0.66760350  0.00141718  1.00081408  1
  Ni  Ni19  1  0.83359634  0.16771652  0.16890897  1
  Ni  Ni20  1  0.66947594  1.00027758  0.33412485  1
  Ni  Ni21  1  0.66611952  0.33440936  0.00161094  1
  Ni  Ni22  1  0.83378777  0.50179916  0.16900177  1
  Ni  Ni23  1  0.66845057  0.33508704  0.33352411  1
  Ni  Ni24  1  0.66708973  0.66811042  1.00118540  1
  Fe  Fe25  1  0.83467018  0.83446929  0.16732198  1
  Ni  Ni26  1  0.66700546  0.66845721  0.33518379  1
  Ni  Ni27  1  0.16544688  0.16714695  0.50095585  1
  Ni  Ni28  1  0.00180781  0.00197004  0.66821238  1
  Ni  Ni29  1  0.16863851  0.16628951  0.83349043  1
  Ni  Ni30  1  0.16691647  0.50230431  0.50103858  1
  Ni  Ni31  1  1.00097385  0.33432758  0.66736793  1
  Ni  Ni32  1  0.16819842  0.50302831  0.83372825  1
  Ni  Ni33  1  0.16842506  0.83442999  0.50131260  1
  Ni  Ni34  1  0.00211942  0.66764342  0.66809874  1
  Ni  Ni35  1  0.16800181  0.83464431  0.83493779  1
  Cr  Cr36  1  0.50222410  0.16756583  0.50102686  1
  Ni  Ni37  1  0.33381253  0.99940671  0.66824981  1
  Ni  Ni38  1  0.50173727  0.16735858  0.83505623  1
  Ni  Ni39  1  0.50222722  0.50352776  0.50098118  1
  Fe  Fe40  1  0.33385770  0.33554514  0.66853537  1
  Ni  Ni41  1  0.50198924  0.50176794  0.83460172  1
  Ni  Ni42  1  0.50059948  0.83315030  0.50134034  1
  Ni  Ni43  1  0.33487714  0.66867032  0.66792389  1
  Ni  Ni44  1  0.50104488  0.83480548  0.83446701  1
  Ni  Ni45  1  0.83594631  0.16880754  0.50135503  1
  Ni  Ni46  1  0.66825700  1.00070525  0.66896095  1
  Ni  Ni47  1  0.83357282  0.16720148  0.83363399  1
  Ni  Ni48  1  0.83473898  0.50062915  0.50102111  1
  Ni  Ni49  1  0.66954619  0.33542650  0.66891615  1
  Ni  Ni50  1  0.83375636  0.50239777  0.83389813  1
  Fe  Fe51  1  0.83514777  0.83433484  0.50212713  1
  Ni  Ni52  1  0.66692011  0.66780844  0.66759521  1
  Ni  Ni53  1  0.83488342  0.83433707  0.83458505  1
" 