7333,Ni89Fe9Cr1_1,-239.904337547333, 186.657742944533,Ni89Fe9Cr1,"# generated using pymatgen
 data_Cr(FeNi12)2
_symmetry_space_group_name_H-M   'P 1'
_cell_length_a   7.44748989
_cell_length_b   7.44748989
_cell_length_c   10.53234120
_cell_angle_alpha   90.00000000
_cell_angle_beta   90.00000000
_cell_angle_gamma   90.00000000
_symmetry_Int_Tables_number   1
_chemical_formula_structural   Cr(FeNi12)2
_chemical_formula_sum   'Cr2 Fe4 Ni48'
_cell_volume   584.17741685
_cell_formula_units_Z   2
loop_
 _symmetry_equiv_pos_site_id
 _symmetry_equiv_pos_as_xyz
  1  'x, y, z'
loop_
 _atom_site_type_symbol
 _atom_site_label
 _atom_site_symmetry_multiplicity
 _atom_site_fract_x
 _atom_site_fract_y
 _atom_site_fract_z
 _atom_site_occupancy
  Ni  Ni0  1  1.00098760  0.00134300  1.00102174  1
  Ni  Ni1  1  0.16660513  0.16755743  0.16878379  1
  Ni  Ni2  1  1.00096834  1.00117054  0.33487516  1
  Ni  Ni3  1  0.99984473  0.33435322  0.00158927  1
  Ni  Ni4  1  0.16754911  0.50253062  0.16877393  1
  Ni  Ni5  1  0.00132881  0.33431814  0.33447530  1
  Ni  Ni6  1  1.00119170  0.66835049  0.00154187  1
  Ni  Ni7  1  0.16755864  0.83385259  0.16745181  1
  Ni  Ni8  1  1.00115509  0.66848951  0.33451022  1
  Ni  Ni9  1  0.33477211  0.99983919  0.00175475  1
  Ni  Ni10  1  0.50244124  0.16788374  0.16875993  1
  Ni  Ni11  1  0.33355400  1.00024227  0.33307198  1
  Cr  Cr12  1  0.33461448  0.33394807  1.00129146  1
  Ni  Ni13  1  0.50173609  0.50234314  0.16831653  1
  Ni  Ni14  1  0.33382541  0.33576152  0.33393256  1
  Ni  Ni15  1  0.33476650  0.66968805  0.00149937  1
  Ni  Ni16  1  0.50131355  0.83368941  0.16807778  1
  Ni  Ni17  1  0.33489408  0.66791873  0.33456957  1
  Ni  Ni18  1  0.66818070  1.00114882  1.00102058  1
  Ni  Ni19  1  0.83489519  0.16809070  0.16769946  1
  Ni  Ni20  1  0.66942597  1.00001780  0.33409240  1
  Ni  Ni21  1  0.66949598  0.33440986  0.00146556  1
  Fe  Fe22  1  0.83493785  0.50177784  0.16789182  1
  Ni  Ni23  1  0.66884187  0.33566350  0.33338176  1
  Ni  Ni24  1  0.66797399  0.66850164  0.00143419  1
  Ni  Ni25  1  0.83507341  0.83457840  0.16766939  1
  Ni  Ni26  1  0.66787130  0.66828282  0.33480336  1
  Ni  Ni27  1  0.16646174  0.16762779  0.50123086  1
  Ni  Ni28  1  1.00121450  1.00120610  0.66802514  1
  Ni  Ni29  1  0.16720899  0.16682977  0.83386455  1
  Fe  Fe30  1  0.16755294  0.50173583  0.50064891  1
  Ni  Ni31  1  0.00137559  0.33487647  0.66794472  1
  Fe  Fe32  1  0.16586966  0.50246069  0.83466324  1
  Ni  Ni33  1  0.16797829  0.83489537  0.50122438  1
  Ni  Ni34  1  1.00118741  0.66791628  0.66792477  1
  Ni  Ni35  1  0.16815852  0.83454234  0.83524197  1
  Cr  Cr36  1  0.50100827  0.16823967  0.50091530  1
  Ni  Ni37  1  0.33362493  1.00042138  0.66898797  1
  Ni  Ni38  1  0.50181652  0.16722377  0.83389973  1
  Ni  Ni39  1  0.50211197  0.50273092  0.50195589  1
  Ni  Ni40  1  0.33344444  0.33565353  0.66867119  1
  Fe  Fe41  1  0.50305412  0.50241649  0.83392416  1
  Ni  Ni42  1  0.50061395  0.83205099  0.50120158  1
  Ni  Ni43  1  0.33449204  0.66805875  0.66803275  1
  Ni  Ni44  1  0.50069775  0.83442482  0.83461143  1
  Ni  Ni45  1  0.83676705  0.16911771  0.50201622  1
  Ni  Ni46  1  0.66914415  1.00010985  0.66875725  1
  Ni  Ni47  1  0.83492176  0.16926690  0.83422271  1
  Ni  Ni48  1  0.83399980  0.50131965  0.50045873  1
  Ni  Ni49  1  0.66900459  0.33573228  0.66909448  1
  Ni  Ni50  1  0.83470966  0.50143402  0.83559653  1
  Ni  Ni51  1  0.83537298  0.83347201  0.50201722  1
  Ni  Ni52  1  0.66822812  0.66812199  0.66777007  1
  Ni  Ni53  1  0.83508160  0.83326782  0.83424696  1
" 