6600,Ni89Fe9Cr1_6,-240.059891806921, 187.430634120472,Ni89Fe9Cr1,"# generated using pymatgen
 data_Cr(FeNi12)2
_symmetry_space_group_name_H-M   'P 1'
_cell_length_a   7.44794279
_cell_length_b   7.44794279
_cell_length_c   10.53298171
_cell_angle_alpha   90.00000000
_cell_angle_beta   90.00000000
_cell_angle_gamma   90.00000000
_symmetry_Int_Tables_number   1
_chemical_formula_structural   Cr(FeNi12)2
_chemical_formula_sum   'Cr2 Fe4 Ni48'
_cell_volume   584.28400021
_cell_formula_units_Z   2
loop_
 _symmetry_equiv_pos_site_id
 _symmetry_equiv_pos_as_xyz
  1  'x, y, z'
loop_
 _atom_site_type_symbol
 _atom_site_label
 _atom_site_symmetry_multiplicity
 _atom_site_fract_x
 _atom_site_fract_y
 _atom_site_fract_z
 _atom_site_occupancy
  Ni  Ni0  1  1.00116352  1.00110011  0.00187769  1
  Fe  Fe1  1  0.16825491  0.16806252  0.16737227  1
  Fe  Fe2  1  1.00021492  1.00005804  0.33412093  1
  Ni  Ni3  1  1.00039611  0.33347909  1.00112155  1
  Ni  Ni4  1  0.16769006  0.50185877  0.16829354  1
  Ni  Ni5  1  1.00040594  0.33628302  0.33469496  1
  Ni  Ni6  1  1.00058144  0.66921107  0.00176270  1
  Ni  Ni7  1  0.16826121  0.83389861  0.16795616  1
  Ni  Ni8  1  0.00157252  0.66751466  0.33510713  1
  Ni  Ni9  1  0.33448623  0.00140415  1.00006966  1
  Ni  Ni10  1  0.50210107  0.16750908  0.16809350  1
  Ni  Ni11  1  0.33615585  1.00038959  0.33473840  1
  Ni  Ni12  1  0.33554085  0.33349072  0.00254426  1
  Ni  Ni13  1  0.50109666  0.50109362  0.16795916  1
  Ni  Ni14  1  0.33521738  0.33517668  0.33366863  1
  Ni  Ni15  1  0.33505546  0.66892858  0.00221054  1
  Ni  Ni16  1  0.50095698  0.83525996  0.16783457  1
  Ni  Ni17  1  0.33379285  0.66816430  0.33512555  1
  Ni  Ni18  1  0.66821090  0.00169339  1.00094931  1
  Ni  Ni19  1  0.83379535  0.16807867  0.16822071  1
  Ni  Ni20  1  0.66748776  0.00159334  0.33512331  1
  Ni  Ni21  1  0.66785459  0.33401491  1.00109161  1
  Ni  Ni22  1  0.83506642  0.50077666  0.16758325  1
  Ni  Ni23  1  0.66811884  0.33395727  0.33509803  1
  Ni  Ni24  1  0.66821101  0.66814097  1.00106700  1
  Ni  Ni25  1  0.83460971  0.83498026  0.16796690  1
  Ni  Ni26  1  0.66846132  0.66827684  0.33489302  1
  Cr  Cr27  1  0.16817247  0.16809442  0.50118167  1
  Ni  Ni28  1  0.99987538  0.99970890  0.66834257  1
  Ni  Ni29  1  0.16788866  0.16627750  0.83525113  1
  Ni  Ni30  1  0.16804450  0.50276223  0.50106151  1
  Fe  Fe31  1  0.99862121  0.33530015  0.66794154  1
  Cr  Cr32  1  0.16793955  0.50192069  0.83458713  1
  Ni  Ni33  1  0.16798838  0.83287012  0.50147341  1
  Ni  Ni34  1  1.00066817  0.67054101  0.66695335  1
  Ni  Ni35  1  0.16780641  0.83620830  0.83435329  1
  Ni  Ni36  1  0.50295518  0.16789107  0.50120131  1
  Fe  Fe37  1  0.33644369  0.99961921  0.66867052  1
  Ni  Ni38  1  0.50151998  0.16792676  0.83440780  1
  Ni  Ni39  1  0.50116879  0.50118772  0.50073587  1
  Ni  Ni40  1  0.33698262  0.33484286  0.66771982  1
  Ni  Ni41  1  0.50261242  0.50120086  0.83513938  1
  Ni  Ni42  1  0.50158899  0.83461687  0.50111835  1
  Ni  Ni43  1  0.33491990  0.66764980  0.66656389  1
  Ni  Ni44  1  0.50155543  0.83455339  0.83480490  1
  Ni  Ni45  1  0.83274901  0.16781657  0.50124458  1
  Ni  Ni46  1  0.66947581  0.00171672  0.66778513  1
  Ni  Ni47  1  0.83445319  0.16760332  0.83444849  1
  Ni  Ni48  1  0.83447012  0.50135719  0.50140245  1
  Ni  Ni49  1  0.66656601  0.33396568  0.66764216  1
  Ni  Ni50  1  0.83278258  0.50139034  0.83481382  1
  Ni  Ni51  1  0.83438707  0.83474325  0.50082583  1
  Ni  Ni52  1  0.66820363  0.66814579  0.66788205  1
  Ni  Ni53  1  0.83465909  0.83495244  0.83516174  1
" 