7906,Ni89Fe8Cr1_1,-240.06611407957, 187.455287935426,Ni89Fe8Cr1,"# generated using pymatgen
 data_Cr(FeNi12)2
_symmetry_space_group_name_H-M   'P 1'
_cell_length_a   7.44769465
_cell_length_b   7.44769465
_cell_length_c   10.53263079
_cell_angle_alpha   90.00000000
_cell_angle_beta   90.00000000
_cell_angle_gamma   90.00000000
_symmetry_Int_Tables_number   1
_chemical_formula_structural   Cr(FeNi12)2
_chemical_formula_sum   'Cr2 Fe4 Ni48'
_cell_volume   584.22560382
_cell_formula_units_Z   2
loop_
 _symmetry_equiv_pos_site_id
 _symmetry_equiv_pos_as_xyz
  1  'x, y, z'
loop_
 _atom_site_type_symbol
 _atom_site_label
 _atom_site_symmetry_multiplicity
 _atom_site_fract_x
 _atom_site_fract_y
 _atom_site_fract_z
 _atom_site_occupancy
  Ni  Ni0  1  0.00283511  1.00061883  1.00012080  1
  Ni  Ni1  1  0.16902177  0.16863325  0.16881530  1
  Ni  Ni2  1  0.00263166  0.00154710  0.33599527  1
  Ni  Ni3  1  0.00251841  0.33551745  0.00133633  1
  Ni  Ni4  1  0.17027052  0.50044127  0.16691747  1
  Fe  Fe5  1  0.00266233  0.33390075  0.33586365  1
  Ni  Ni6  1  0.00146422  0.66789532  1.00084298  1
  Ni  Ni7  1  0.16855035  0.83486561  0.16686567  1
  Cr  Cr8  1  1.00124424  0.66878774  0.33436712  1
  Ni  Ni9  1  0.33442065  0.00189295  0.00210226  1
  Ni  Ni10  1  0.50020005  0.16866609  0.16772546  1
  Ni  Ni11  1  0.33435156  0.00193799  0.33411215  1
  Ni  Ni12  1  0.33471405  0.33421719  1.00062930  1
  Ni  Ni13  1  0.49983042  0.50116627  0.16838011  1
  Ni  Ni14  1  0.33561516  0.33435151  0.33528640  1
  Ni  Ni15  1  0.33448752  0.66782727  0.00172715  1
  Ni  Ni16  1  0.50153749  0.83412252  0.16873208  1
  Ni  Ni17  1  0.33557033  0.66750905  0.33463466  1
  Ni  Ni18  1  0.66659603  1.00075233  1.00015365  1
  Cr  Cr19  1  0.83408316  0.16687381  0.16761228  1
  Ni  Ni20  1  0.66702490  1.00124489  0.33583922  1
  Ni  Ni21  1  0.66658392  0.33561510  1.00026738  1
  Fe  Fe22  1  0.83303636  0.50231555  0.16657744  1
  Ni  Ni23  1  0.66597144  0.33549010  0.33534181  1
  Ni  Ni24  1  0.66787170  0.66764218  0.00159103  1
  Ni  Ni25  1  0.83376962  0.83516717  0.16723061  1
  Ni  Ni26  1  0.66664209  0.66718545  0.33505425  1
  Fe  Fe27  1  0.16840413  0.16731301  0.50147051  1
  Ni  Ni28  1  0.00186776  0.00158543  0.66792743  1
  Ni  Ni29  1  0.16730497  0.16829313  0.83449854  1
  Ni  Ni30  1  0.16928702  0.50119780  0.50230564  1
  Ni  Ni31  1  1.00031343  0.33486117  0.66711077  1
  Ni  Ni32  1  0.16802508  0.50148046  0.83460772  1
  Ni  Ni33  1  0.16894969  0.83428622  0.50193466  1
  Ni  Ni34  1  0.00150929  0.66737594  0.66836593  1
  Ni  Ni35  1  0.16802614  0.83414297  0.83504946  1
  Ni  Ni36  1  0.50265128  0.16811750  0.50090887  1
  Ni  Ni37  1  0.33479198  1.00089361  0.66787054  1
  Ni  Ni38  1  0.50173709  0.16798766  0.83527111  1
  Ni  Ni39  1  0.50059999  0.50108043  0.50129730  1
  Fe  Fe40  1  0.33522042  0.33450165  0.66844030  1
  Ni  Ni41  1  0.50085662  0.50164111  0.83425341  1
  Ni  Ni42  1  0.50083454  0.83467987  0.50047617  1
  Ni  Ni43  1  0.33438834  0.66865600  0.66752151  1
  Ni  Ni44  1  0.50114161  0.83426521  0.83469694  1
  Ni  Ni45  1  0.83403107  0.16779809  0.50130733  1
  Ni  Ni46  1  0.66732742  0.00225857  0.66778067  1
  Ni  Ni47  1  0.83487479  0.16799725  0.83449615  1
  Ni  Ni48  1  0.83406701  0.49979802  0.50121305  1
  Ni  Ni49  1  0.66862701  0.33462667  0.66816780  1
  Ni  Ni50  1  0.83500993  0.50090015  0.83529349  1
  Ni  Ni51  1  0.83406935  0.83620119  0.50241215  1
  Ni  Ni52  1  0.66800438  0.66701494  0.66716089  1
  Ni  Ni53  1  0.83473453  0.83502115  0.83419974  1
" 