5444,Ni89Fe8Cr1_9,-240.000871489518, 186.490583441455,Ni89Fe8Cr1,"# generated using pymatgen
 data_Cr(FeNi12)2
_symmetry_space_group_name_H-M   'P 1'
_cell_length_a   7.44897944
_cell_length_b   7.44897944
_cell_length_c   10.53444775
_cell_angle_alpha   90.00000000
_cell_angle_beta   90.00000000
_cell_angle_gamma   90.00000000
_symmetry_Int_Tables_number   1
_chemical_formula_structural   Cr(FeNi12)2
_chemical_formula_sum   'Cr2 Fe4 Ni48'
_cell_volume   584.52800725
_cell_formula_units_Z   2
loop_
 _symmetry_equiv_pos_site_id
 _symmetry_equiv_pos_as_xyz
  1  'x, y, z'
loop_
 _atom_site_type_symbol
 _atom_site_label
 _atom_site_symmetry_multiplicity
 _atom_site_fract_x
 _atom_site_fract_y
 _atom_site_fract_z
 _atom_site_occupancy
  Ni  Ni0  1  1.00060964  0.00191081  0.00140793  1
  Ni  Ni1  1  0.16746869  0.16785165  0.16832457  1
  Ni  Ni2  1  0.00132961  0.00336043  0.33408403  1
  Ni  Ni3  1  0.00190421  0.33434263  0.00121285  1
  Ni  Ni4  1  0.16835556  0.50029191  0.16744155  1
  Ni  Ni5  1  0.00177794  0.33267491  0.33453404  1
  Ni  Ni6  1  0.00170884  0.66738530  1.00102768  1
  Ni  Ni7  1  0.16835560  0.83549299  0.16740390  1
  Cr  Cr8  1  0.00142529  0.66788315  0.33366084  1
  Fe  Fe9  1  0.33407371  1.00024820  1.00114689  1
  Ni  Ni10  1  0.50127918  0.16778041  0.16813965  1
  Ni  Ni11  1  0.33490046  0.00175040  0.33412083  1
  Fe  Fe12  1  0.33400908  0.33508530  0.00151621  1
  Ni  Ni13  1  0.50146309  0.50143403  0.16857888  1
  Ni  Ni14  1  0.33464539  0.33447562  0.33399480  1
  Ni  Ni15  1  0.33474527  0.66718370  0.00121285  1
  Ni  Ni16  1  0.50153205  0.83442354  0.16851289  1
  Ni  Ni17  1  0.33651642  0.66741229  0.33463879  1
  Ni  Ni18  1  0.66807996  1.00102095  1.00121257  1
  Ni  Ni19  1  0.83489103  0.16778257  0.16873636  1
  Ni  Ni20  1  0.66740727  0.00148634  0.33433757  1
  Fe  Fe21  1  0.66884401  0.33501633  1.00114684  1
  Ni  Ni22  1  0.83382217  0.50054704  0.16715056  1
  Ni  Ni23  1  0.66721409  0.33429038  0.33405531  1
  Ni  Ni24  1  0.66718393  0.66847832  0.00140790  1
  Ni  Ni25  1  0.83374954  0.83531043  0.16708174  1
  Ni  Ni26  1  0.66560601  0.66786148  0.33414958  1
  Ni  Ni27  1  0.16746038  0.16705222  0.50014245  1
  Ni  Ni28  1  1.00114688  1.00118277  0.66814688  1
  Ni  Ni29  1  0.16688854  0.16702627  0.83517168  1
  Ni  Ni30  1  0.16743682  0.50076797  0.50121144  1
  Ni  Ni31  1  0.99978654  0.33466614  0.66789190  1
  Ni  Ni32  1  0.16670590  0.50194158  0.83498383  1
  Ni  Ni33  1  0.16850891  0.83581933  0.50228304  1
  Ni  Ni34  1  0.00133229  0.66778882  0.66871588  1
  Ni  Ni35  1  0.16777214  0.83466706  0.83395118  1
  Ni  Ni36  1  0.50138802  0.16705873  0.50038946  1
  Ni  Ni37  1  0.33471774  0.99957688  0.66849961  1
  Ni  Ni38  1  0.50210402  0.16695582  0.83511064  1
  Ni  Ni39  1  0.50248438  0.50183160  0.50014206  1
  Cr  Cr40  1  0.33449396  0.33481458  0.66809980  1
  Ni  Ni41  1  0.50228908  0.50201440  0.83491817  1
  Ni  Ni42  1  0.50140652  0.83474846  0.50121288  1
  Ni  Ni43  1  0.33452411  0.66940478  0.66778714  1
  Ni  Ni44  1  0.50128831  0.83466675  0.83391367  1
  Fe  Fe45  1  0.83460266  0.16794046  0.50121286  1
  Ni  Ni46  1  0.66777329  1.00112033  0.66808782  1
  Ni  Ni47  1  0.83464767  0.16802646  0.83369020  1
  Ni  Ni48  1  0.83371725  0.50078305  0.50228264  1
  Ni  Ni49  1  0.66938949  0.33447329  0.66856519  1
  Ni  Ni50  1  0.83464746  0.50113024  0.83420536  1
  Ni  Ni51  1  0.83372293  0.83472384  0.50203616  1
  Ni  Ni52  1  0.66778181  0.66804400  0.66808143  1
  Ni  Ni53  1  0.83457578  0.83448396  0.83451997  1
" 