3314,Ni89Fe7Cr3_4,-238.851821795633, 181.263064126961,Ni89Fe7Cr3,"# generated using pymatgen
 data_CrFeNi16
_symmetry_space_group_name_H-M   'P 1'
_cell_length_a   7.45212833
_cell_length_b   7.45212833
_cell_length_c   10.53890096
_cell_angle_alpha   90.00000000
_cell_angle_beta   90.00000000
_cell_angle_gamma   90.00000000
_symmetry_Int_Tables_number   1
_chemical_formula_structural   CrFeNi16
_chemical_formula_sum   'Cr3 Fe3 Ni48'
_cell_volume   585.26960926
_cell_formula_units_Z   3
loop_
 _symmetry_equiv_pos_site_id
 _symmetry_equiv_pos_as_xyz
  1  'x, y, z'
loop_
 _atom_site_type_symbol
 _atom_site_label
 _atom_site_symmetry_multiplicity
 _atom_site_fract_x
 _atom_site_fract_y
 _atom_site_fract_z
 _atom_site_occupancy
  Ni  Ni0  1  0.00123179  0.00126809  0.99961310  1
  Cr  Cr1  1  0.16762516  0.16761118  0.16734294  1
  Ni  Ni2  1  0.00145122  0.00148799  0.33590450  1
  Ni  Ni3  1  1.00018032  0.33506695  1.00026357  1
  Ni  Ni4  1  0.16764909  0.50258890  0.16761276  1
  Ni  Ni5  1  0.99958987  0.33507671  0.33508273  1
  Ni  Ni6  1  0.00223445  0.66666803  1.00022283  1
  Ni  Ni7  1  0.16948002  0.83249408  0.16741668  1
  Ni  Ni8  1  0.00244924  0.66644216  0.33536627  1
  Ni  Ni9  1  0.33489117  0.99997220  1.00001615  1
  Ni  Ni10  1  0.50257864  0.16765931  0.16760526  1
  Ni  Ni11  1  0.33490135  0.99936305  0.33533230  1
  Ni  Ni12  1  0.33482902  0.33524957  1.00066068  1
  Ni  Ni13  1  0.50109795  0.50108281  0.16714108  1
  Fe  Fe14  1  0.33519425  0.33517483  0.33487514  1
  Ni  Ni15  1  0.33406816  0.66779888  0.00130082  1
  Ni  Ni16  1  0.49952649  0.83426420  0.16766590  1
  Ni  Ni17  1  0.33417413  0.66826768  0.33408565  1
  Ni  Ni18  1  0.66687736  0.00202663  1.00044481  1
  Ni  Ni19  1  0.83249503  0.16949783  0.16741681  1
  Ni  Ni20  1  0.66665087  0.00224131  0.33514509  1
  Ni  Ni21  1  0.66800662  0.33424775  0.00105487  1
  Ni  Ni22  1  0.83426519  0.49954424  0.16766581  1
  Ni  Ni23  1  0.66849446  0.33435193  0.33433207  1
  Ni  Ni24  1  0.66669527  0.66672879  1.00050664  1
  Cr  Cr25  1  0.83423574  0.83420059  0.16753546  1
  Ni  Ni26  1  0.66638138  0.66641553  0.33512342  1
  Ni  Ni27  1  0.16700252  0.16698163  0.50057541  1
  Ni  Ni28  1  0.00108462  0.00171455  0.66748399  1
  Ni  Ni29  1  0.16731794  0.16729635  0.83505573  1
  Ni  Ni30  1  0.16683241  0.50160643  0.49993574  1
  Ni  Ni31  1  0.99935073  0.33370216  0.66766416  1
  Ni  Ni32  1  0.16634166  0.50150334  0.83546189  1
  Ni  Ni33  1  0.16794672  0.83441743  0.50094221  1
  Fe  Fe34  1  1.00072224  0.66791897  0.66771618  1
  Ni  Ni35  1  0.16818079  0.83420912  0.83465616  1
  Ni  Ni36  1  0.50170182  0.16673708  0.50004556  1
  Ni  Ni37  1  0.33389007  0.99892045  0.66766342  1
  Ni  Ni38  1  0.50160075  0.16624636  0.83535010  1
  Ni  Ni39  1  0.50186697  0.50184682  0.50063092  1
  Cr  Cr40  1  0.33391901  0.33442252  0.66724215  1
  Fe  Fe41  1  0.50183049  0.50187392  0.83508433  1
  Ni  Ni42  1  0.50099260  0.83442160  0.50092822  1
  Ni  Ni43  1  0.33482858  0.66941996  0.66761044  1
  Ni  Ni44  1  0.50098376  0.83500293  0.83441335  1
  Ni  Ni45  1  0.83430621  0.16786072  0.50098736  1
  Ni  Ni46  1  0.66803242  1.00068506  0.66741824  1
  Ni  Ni47  1  0.83408905  0.16808288  0.83459973  1
  Ni  Ni48  1  0.83430953  0.50090626  0.50088214  1
  Ni  Ni49  1  0.66985183  0.33464418  0.66761047  1
  Ni  Ni50  1  0.83487987  0.50088750  0.83446986  1
  Ni  Ni51  1  0.83405848  0.83424087  0.50118478  1
  Ni  Ni52  1  0.66704375  0.66767571  0.66736401  1
  Ni  Ni53  1  0.83383536  0.83403841  0.83434456  1
" 