1308,Ni89Cr11_3,-203.504602500781, 181.132836117222,Ni89Cr11,"# generated using pymatgen
 data_Cr8Ni
_symmetry_space_group_name_H-M   'P 1'
_cell_length_a   7.59353406
_cell_length_b   7.59353406
_cell_length_c   10.73887886
_cell_angle_alpha   90.00000000
_cell_angle_beta   90.00000000
_cell_angle_gamma   90.00000000
_symmetry_Int_Tables_number   1
_chemical_formula_structural   Cr8Ni
_chemical_formula_sum   'Cr48 Ni6'
_cell_volume   619.22265120
_cell_formula_units_Z   6
loop_
 _symmetry_equiv_pos_site_id
 _symmetry_equiv_pos_as_xyz
  1  'x, y, z'
loop_
 _atom_site_type_symbol
 _atom_site_label
 _atom_site_symmetry_multiplicity
 _atom_site_fract_x
 _atom_site_fract_y
 _atom_site_fract_z
 _atom_site_occupancy
  Cr  Cr0  1  -0.00746218  -0.00756414  -0.00751195  1
  Ni  Ni1  1  0.15811887  0.15841339  0.15823642  1
  Cr  Cr2  1  -0.00746079  -0.00756265  0.32418866  1
  Cr  Cr3  1  -0.00685728  0.32411440  -0.00727223  1
  Cr  Cr4  1  0.16073681  0.49215710  0.15797417  1
  Cr  Cr5  1  -0.00685514  0.32375821  0.32358444  1
  Cr  Cr6  1  -0.00814959  0.65846285  0.99034322  1
  Cr  Cr7  1  0.16024984  0.82423341  0.15857655  1
  Cr  Cr8  1  -0.00815217  0.65881697  0.32596995  1
  Cr  Cr9  1  0.32406583  -0.00805227  0.99151975  1
  Cr  Cr10  1  0.49124853  0.15911860  0.15797546  1
  Cr  Cr11  1  0.32371010  -0.00804797  0.32479161  1
  Cr  Cr12  1  0.32464260  0.32578582  -0.00670163  1
  Ni  Ni13  1  0.48966099  0.49331757  0.15851943  1
  Cr  Cr14  1  0.32545385  0.32659261  0.32419102  1
  Ni  Ni15  1  0.32596934  0.65752444  -0.00728333  1
  Cr  Cr16  1  0.48999109  0.82265307  0.15797409  1
  Ni  Ni17  1  0.32688329  0.65661089  0.32487381  1
  Cr  Cr18  1  0.65841291  0.99065769  0.99154919  1
  Cr  Cr19  1  0.82585711  0.15863064  0.15857813  1
  Cr  Cr20  1  0.65876744  0.99065729  0.32476485  1
  Cr  Cr21  1  0.65723223  0.32646961  -0.00769098  1
  Cr  Cr22  1  0.82427320  0.49090068  0.15797538  1
  Cr  Cr23  1  0.65642051  0.32728085  0.32518018  1
  Cr  Cr24  1  0.65673947  0.65788437  -0.00751306  1
  Cr  Cr25  1  0.82476757  0.82548409  0.15857793  1
  Cr  Cr26  1  0.65593263  0.65707309  0.32500240  1
  Cr  Cr27  1  0.15826395  0.15827082  0.49137991  1
  Cr  Cr28  1  -0.00789676  0.99124134  0.65833622  1
  Cr  Cr29  1  0.15845454  0.15846060  0.82505673  1
  Cr  Cr30  1  0.15993542  0.49320555  0.49122024  1
  Cr  Cr31  1  0.99101526  0.32512027  0.65870060  1
  Cr  Cr32  1  0.15843627  0.49320771  0.82582103  1
  Cr  Cr33  1  0.15944359  0.82353969  0.49098367  1
  Cr  Cr34  1  0.99089345  0.65865346  0.65870083  1
  Cr  Cr35  1  0.15963590  0.82334743  0.82545422  1
  Cr  Cr36  1  0.49321277  0.15993489  0.49357477  1
  Cr  Cr37  1  0.32468851  -0.00755589  0.65870086  1
  Cr  Cr38  1  0.49321284  0.15843404  0.82346294  1
  Ni  Ni39  1  0.49177256  0.49177124  0.49159128  1
  Cr  Cr40  1  0.32696218  0.32509848  0.65752493  1
  Cr  Cr41  1  0.49142872  0.49143223  0.82524531  1
  Cr  Cr42  1  0.49025538  0.82365133  0.49061693  1
  Cr  Cr43  1  0.32587415  0.65747445  0.65752711  1
  Cr  Cr44  1  0.49025312  0.82514744  0.82642432  1
  Cr  Cr45  1  0.82353980  0.15944279  0.49260521  1
  Cr  Cr46  1  0.65822179  -0.00767770  0.65870058  1
  Cr  Cr47  1  0.82334914  0.15963350  0.82383103  1
  Cr  Cr48  1  0.82365229  0.49024993  0.49297096  1
  Ni  Ni49  1  0.65762413  0.32572294  0.65742493  1
  Cr  Cr50  1  0.82515012  0.49024977  0.82406676  1
  Cr  Cr51  1  0.82531295  0.82531993  0.49119157  1
  Cr  Cr52  1  0.65824500  0.65638115  0.65752635  1
  Cr  Cr53  1  0.82512344  0.82512960  0.82524481  1
" 