4955,Ni89Fe8Cr1_15,-240.062802259081, 187.484360906128,Ni89Fe8Cr1,"# generated using pymatgen
 data_Cr(FeNi12)2
_symmetry_space_group_name_H-M   'P 1'
_cell_length_a   7.45207295
_cell_length_b   7.45207295
_cell_length_c   10.53882263
_cell_angle_alpha   90.00000000
_cell_angle_beta   90.00000000
_cell_angle_gamma   90.00000000
_symmetry_Int_Tables_number   1
_chemical_formula_structural   Cr(FeNi12)2
_chemical_formula_sum   'Cr2 Fe4 Ni48'
_cell_volume   585.25656031
_cell_formula_units_Z   2
loop_
 _symmetry_equiv_pos_site_id
 _symmetry_equiv_pos_as_xyz
  1  'x, y, z'
loop_
 _atom_site_type_symbol
 _atom_site_label
 _atom_site_symmetry_multiplicity
 _atom_site_fract_x
 _atom_site_fract_y
 _atom_site_fract_z
 _atom_site_occupancy
  Ni  Ni0  1  0.00101203  0.00124298  1.00076873  1
  Ni  Ni1  1  0.16745959  0.16811384  0.16849214  1
  Ni  Ni2  1  0.00126474  0.00102642  0.33457017  1
  Ni  Ni3  1  1.00100007  0.33433632  0.00113109  1
  Ni  Ni4  1  0.16770121  0.50061137  0.16791702  1
  Ni  Ni5  1  1.00031068  0.33366851  0.33313515  1
  Ni  Ni6  1  1.00100003  0.66743497  1.00076876  1
  Ni  Ni7  1  0.16745492  0.83428711  0.16851951  1
  Ni  Ni8  1  1.00030969  0.66831879  0.33364634  1
  Ni  Ni9  1  0.33428721  0.00105874  1.00095459  1
  Ni  Ni10  1  0.50116999  0.16793406  0.16830596  1
  Ni  Ni11  1  0.33405349  1.00083127  0.33441483  1
  Ni  Ni12  1  0.33410692  0.33432815  1.00076880  1
  Ni  Ni13  1  0.50074227  0.50060768  0.16827778  1
  Ni  Ni14  1  0.33488776  0.33373551  0.33354876  1
  Ni  Ni15  1  0.33429100  0.66762722  1.00095454  1
  Ni  Ni16  1  0.50117044  0.83447273  0.16833508  1
  Ni  Ni17  1  0.33507597  0.66843510  0.33352475  1
  Ni  Ni18  1  0.66771482  0.00105862  1.00095470  1
  Ni  Ni19  1  0.83438509  0.16768770  0.16806532  1
  Ni  Ni20  1  0.66769553  1.00083776  0.33414382  1
  Ni  Ni21  1  0.66790733  0.33434015  1.00076864  1
  Ni  Ni22  1  0.83456887  0.50061214  0.16873388  1
  Ni  Ni23  1  0.66781289  0.33469299  0.33451372  1
  Ni  Ni24  1  0.66772300  0.66761535  1.00095466  1
  Ni  Ni25  1  0.83438930  0.83471476  0.16809175  1
  Ni  Ni26  1  0.66762338  0.66748492  0.33448174  1
  Fe  Fe27  1  0.16898352  0.16467218  0.50015361  1
  Ni  Ni28  1  0.00126444  0.99913438  0.66767435  1
  Ni  Ni29  1  0.16824853  0.16732292  0.83430058  1
  Cr  Cr30  1  0.16912399  0.50194097  0.50020295  1
  Cr  Cr31  1  1.00036662  0.33390301  0.66916505  1
  Ni  Ni32  1  0.16849092  0.50140106  0.83487650  1
  Ni  Ni33  1  0.16701523  0.83581596  0.50123918  1
  Ni  Ni34  1  1.00031014  0.67021158  0.66859810  1
  Ni  Ni35  1  0.16722744  0.83428820  0.83325477  1
  Fe  Fe36  1  0.50084146  0.16697357  0.50106126  1
  Ni  Ni37  1  0.33422812  1.00066022  0.66764337  1
  Ni  Ni38  1  0.50117002  0.16816192  0.83346725  1
  Ni  Ni39  1  0.50206472  0.50052946  0.50123926  1
  Ni  Ni40  1  0.33678095  0.33373456  0.66869398  1
  Ni  Ni41  1  0.50074344  0.50038048  0.83349689  1
  Ni  Ni42  1  0.50155295  0.83426328  0.50100478  1
  Ni  Ni43  1  0.33524901  0.66860803  0.66853515  1
  Ni  Ni44  1  0.50117006  0.83447218  0.83367433  1
  Fe  Fe45  1  0.83318758  0.16600899  0.50015291  1
  Ni  Ni46  1  0.66752154  1.00066674  0.66791398  1
  Ni  Ni47  1  0.83359741  0.16690010  0.83472429  1
  Fe  Fe48  1  0.83179358  0.50330419  0.50015318  1
  Ni  Ni49  1  0.66591689  0.33469089  0.66772975  1
  Ni  Ni50  1  0.83377719  0.50140173  0.83405960  1
  Ni  Ni51  1  0.83444315  0.83532145  0.50123913  1
  Ni  Ni52  1  0.66745126  0.66765756  0.66757788  1
  Ni  Ni53  1  0.83461708  0.83471471  0.83368115  1
" 