5738,Ni89Fe8Cr1_14,-239.977832770196, 186.365829055705,Ni89Fe8Cr1,"# generated using pymatgen
 data_Cr(FeNi12)2
_symmetry_space_group_name_H-M   'P 1'
_cell_length_a   7.44833975
_cell_length_b   7.44833975
_cell_length_c   10.53354309
_cell_angle_alpha   90.00000000
_cell_angle_beta   90.00000000
_cell_angle_gamma   90.00000000
_symmetry_Int_Tables_number   1
_chemical_formula_structural   Cr(FeNi12)2
_chemical_formula_sum   'Cr2 Fe4 Ni48'
_cell_volume   584.37742805
_cell_formula_units_Z   2
loop_
 _symmetry_equiv_pos_site_id
 _symmetry_equiv_pos_as_xyz
  1  'x, y, z'
loop_
 _atom_site_type_symbol
 _atom_site_label
 _atom_site_symmetry_multiplicity
 _atom_site_fract_x
 _atom_site_fract_y
 _atom_site_fract_z
 _atom_site_occupancy
  Ni  Ni0  1  0.99957940  0.00151444  0.00223129  1
  Ni  Ni1  1  0.16666807  0.16911379  0.16889599  1
  Fe  Fe2  1  0.00164737  1.00064175  0.33462121  1
  Ni  Ni3  1  1.00083201  0.33452820  1.00058933  1
  Ni  Ni4  1  0.16801108  0.50123391  0.16689899  1
  Ni  Ni5  1  0.00150952  0.33529998  0.33517250  1
  Ni  Ni6  1  1.00047499  0.66769017  0.00143064  1
  Ni  Ni7  1  0.16696280  0.83327585  0.16914307  1
  Ni  Ni8  1  1.00040029  0.66624423  0.33470518  1
  Cr  Cr9  1  0.33573108  0.00200648  0.00239773  1
  Ni  Ni10  1  0.50226284  0.16920907  0.16854107  1
  Ni  Ni11  1  0.33641020  0.00200207  0.33470416  1
  Ni  Ni12  1  0.33472463  0.33550869  1.00119420  1
  Ni  Ni13  1  0.50097023  0.50162241  0.16798463  1
  Ni  Ni14  1  0.33323354  0.33372406  0.33463020  1
  Ni  Ni15  1  0.33489763  0.66664962  0.00132454  1
  Ni  Ni16  1  0.50225582  0.83313404  0.16840481  1
  Ni  Ni17  1  0.33472782  0.66801351  0.33489869  1
  Ni  Ni18  1  0.66934664  0.00138972  1.00019504  1
  Ni  Ni19  1  0.83485316  0.16799515  0.16761050  1
  Ni  Ni20  1  0.66706376  1.00086824  0.33501065  1
  Ni  Ni21  1  0.66819713  0.33435833  0.00246396  1
  Ni  Ni22  1  0.83465813  0.50128434  0.16797378  1
  Fe  Fe23  1  0.66708854  0.33519639  0.33461838  1
  Ni  Ni24  1  0.66837622  0.66802756  0.00145921  1
  Ni  Ni25  1  0.83461740  0.83448503  0.16730911  1
  Ni  Ni26  1  0.66867825  0.66942489  0.33478966  1
  Ni  Ni27  1  0.16791927  0.16795732  0.50139354  1
  Ni  Ni28  1  0.00183953  0.00285669  0.66702438  1
  Ni  Ni29  1  0.16669820  0.16791301  0.83363134  1
  Ni  Ni30  1  0.16924198  0.50017411  0.50148888  1
  Ni  Ni31  1  1.00046756  0.33245611  0.66796041  1
  Fe  Fe32  1  0.16885290  0.50040662  0.83514064  1
  Ni  Ni33  1  0.16910197  0.83549831  0.50006775  1
  Cr  Cr34  1  0.99991737  0.66722917  0.66746158  1
  Ni  Ni35  1  0.16780565  0.83560925  0.83473591  1
  Ni  Ni36  1  0.50080862  0.16825980  0.50156446  1
  Ni  Ni37  1  0.33437922  0.00165073  0.66734060  1
  Ni  Ni38  1  0.50193925  0.16986621  0.83368970  1
  Ni  Ni39  1  0.50093129  0.50153101  0.50115764  1
  Ni  Ni40  1  0.33506552  0.33351244  0.66785247  1
  Ni  Ni41  1  0.50210810  0.50116013  0.83469053  1
  Ni  Ni42  1  0.50092750  0.83415570  0.50190023  1
  Ni  Ni43  1  0.33682719  0.66855192  0.66742599  1
  Ni  Ni44  1  0.50166108  0.83277015  0.83342639  1
  Ni  Ni45  1  0.83504319  0.16819619  0.50151217  1
  Fe  Fe46  1  0.66782621  0.00168943  0.66798836  1
  Ni  Ni47  1  0.83525854  0.16849773  0.83458091  1
  Ni  Ni48  1  0.83345581  0.50023032  0.50026338  1
  Ni  Ni49  1  0.66824946  0.33522102  0.66679881  1
  Ni  Ni50  1  0.83221901  0.50001072  0.83560106  1
  Ni  Ni51  1  0.83383354  0.83538690  0.50071408  1
  Ni  Ni52  1  0.66685188  0.66732979  0.66756180  1
  Ni  Ni53  1  0.83440703  0.83525275  0.83564386  1
" 