2145,Ni89Cr11_13,-203.574640744964, 183.351354915067,Ni89Cr11,"# generated using pymatgen
 data_Cr8Ni
_symmetry_space_group_name_H-M   'P 1'
_cell_length_a   7.59325456
_cell_length_b   7.59325456
_cell_length_c   10.73848359
_cell_angle_alpha   90.00000000
_cell_angle_beta   90.00000000
_cell_angle_gamma   90.00000000
_symmetry_Int_Tables_number   1
_chemical_formula_structural   Cr8Ni
_chemical_formula_sum   'Cr48 Ni6'
_cell_volume   619.15427680
_cell_formula_units_Z   6
loop_
 _symmetry_equiv_pos_site_id
 _symmetry_equiv_pos_as_xyz
  1  'x, y, z'
loop_
 _atom_site_type_symbol
 _atom_site_label
 _atom_site_symmetry_multiplicity
 _atom_site_fract_x
 _atom_site_fract_y
 _atom_site_fract_z
 _atom_site_occupancy
  Cr  Cr0  1  0.99004981  0.99158713  -0.00785547  1
  Cr  Cr1  1  0.15862940  0.15817120  0.15926028  1
  Cr  Cr2  1  -0.00820741  -0.00808439  0.32490676  1
  Cr  Cr3  1  -0.00725785  0.32540306  0.99087866  1
  Cr  Cr4  1  0.15965604  0.49192167  0.15853138  1
  Cr  Cr5  1  -0.00820057  0.32446112  0.32484788  1
  Cr  Cr6  1  -0.00781876  0.65807704  0.99069927  1
  Cr  Cr7  1  0.15807399  0.82497583  0.15869599  1
  Cr  Cr8  1  0.99123664  0.65869158  0.32468336  1
  Cr  Cr9  1  0.32609573  -0.00785648  0.99123905  1
  Cr  Cr10  1  0.49222896  0.15922239  0.15702733  1
  Cr  Cr11  1  0.32512311  0.99137571  0.32691849  1
  Cr  Cr12  1  0.32506664  0.32650436  -0.00762831  1
  Ni  Ni13  1  0.49168793  0.49155413  0.15849955  1
  Cr  Cr14  1  0.32568045  0.32556538  0.32301083  1
  Cr  Cr15  1  0.32507212  0.65642180  0.99123946  1
  Cr  Cr16  1  0.49222132  0.82448908  0.15741595  1
  Cr  Cr17  1  0.32678106  0.65812867  0.32524819  1
  Ni  Ni18  1  0.65840344  0.99145553  -0.00821553  1
  Cr  Cr19  1  0.82420894  0.15763816  0.15759053  1
  Cr  Cr20  1  0.65815341  0.99081429  0.32596402  1
  Cr  Cr21  1  0.65726035  0.32437897  -0.00691535  1
  Cr  Cr22  1  0.82372160  0.49191482  0.15926019  1
  Cr  Cr23  1  0.65758807  0.32612064  0.32396459  1
  Cr  Cr24  1  0.65781648  0.65911054  -0.00709200  1
  Cr  Cr25  1  0.82477169  0.82551566  0.15702573  1
  Cr  Cr26  1  0.65705109  0.65813468  0.32524693  1
  Cr  Cr27  1  0.15786426  0.15863368  0.49154886  1
  Cr  Cr28  1  0.99164274  -0.00685510  0.65801740  1
  Cr  Cr29  1  0.15804139  0.16019062  0.82425803  1
  Cr  Cr30  1  0.15730129  0.49130981  0.49249998  1
  Ni  Ni31  1  0.99074240  0.32597180  0.65911811  1
  Ni  Ni32  1  0.15726455  0.49087743  0.82426109  1
  Cr  Cr33  1  0.15999653  0.82512516  0.49078699  1
  Cr  Cr34  1  -0.00781674  0.65637251  0.65968665  1
  Cr  Cr35  1  0.15858306  0.82338385  0.82558563  1
  Cr  Cr36  1  0.49223096  0.15760257  0.49267966  1
  Cr  Cr37  1  0.32578502  0.99101575  0.65690997  1
  Cr  Cr38  1  0.49317562  0.15806538  0.82536426  1
  Cr  Cr39  1  0.49278641  0.49233390  0.49172736  1
  Cr  Cr40  1  0.32415056  0.32556248  0.65968456  1
  Cr  Cr41  1  0.49104779  0.49092425  0.82464641  1
  Ni  Ni42  1  0.49164216  0.82525682  0.49159602  1
  Cr  Cr43  1  0.32525174  0.65848924  0.65857998  1
  Cr  Cr44  1  0.49207271  0.82607914  0.82573871  1
  Cr  Cr45  1  0.82497216  0.16028863  0.49321532  1
  Cr  Cr46  1  0.65764341  -0.00796024  0.65764131  1
  Cr  Cr47  1  0.82385052  0.15916354  0.82426367  1
  Cr  Cr48  1  0.82498032  0.49020989  0.49321647  1
  Ni  Ni49  1  0.66039582  0.32502156  0.65821138  1
  Cr  Cr50  1  0.82653949  0.49038741  0.82259206  1
  Cr  Cr51  1  0.82394976  0.82456902  0.49101151  1
  Cr  Cr52  1  0.65763589  0.65800544  0.65691178  1
  Cr  Cr53  1  0.82441136  0.82551775  0.82703392  1
" 