2771,Ni89Cr11_1,-203.570117114103, 182.44733044493,Ni89Cr11,"# generated using pymatgen
 data_Cr8Ni
_symmetry_space_group_name_H-M   'P 1'
_cell_length_a   7.59262429
_cell_length_b   7.59262429
_cell_length_c   10.73759225
_cell_angle_alpha   90.00000000
_cell_angle_beta   90.00000000
_cell_angle_gamma   90.00000000
_symmetry_Int_Tables_number   1
_chemical_formula_structural   Cr8Ni
_chemical_formula_sum   'Cr48 Ni6'
_cell_volume   619.00011236
_cell_formula_units_Z   6
loop_
 _symmetry_equiv_pos_site_id
 _symmetry_equiv_pos_as_xyz
  1  'x, y, z'
loop_
 _atom_site_type_symbol
 _atom_site_label
 _atom_site_symmetry_multiplicity
 _atom_site_fract_x
 _atom_site_fract_y
 _atom_site_fract_z
 _atom_site_occupancy
  Cr  Cr0  1  0.99149345  -0.00695229  -0.00803976  1
  Cr  Cr1  1  0.15650273  0.15927165  0.15736041  1
  Cr  Cr2  1  0.99134079  -0.00747612  0.32437438  1
  Ni  Ni3  1  -0.00812740  0.32492656  -0.00809521  1
  Cr  Cr4  1  0.15706768  0.49028562  0.15832908  1
  Ni  Ni5  1  0.99067394  0.32593706  0.32546525  1
  Cr  Cr6  1  0.99150105  0.65741574  0.99156634  1
  Cr  Cr7  1  0.15930936  0.82563474  0.15828309  1
  Cr  Cr8  1  -0.00754085  0.65682844  0.32623357  1
  Cr  Cr9  1  0.32479321  -0.00799076  -0.00804038  1
  Cr  Cr10  1  0.49227849  0.15872111  0.15945011  1
  Cr  Cr11  1  0.32572210  -0.00739592  0.32549589  1
  Cr  Cr12  1  0.32373970  0.32529405  0.99081112  1
  Cr  Cr13  1  0.49285114  0.49197019  0.15848362  1
  Cr  Cr14  1  0.32517642  0.32529232  0.32718583  1
  Cr  Cr15  1  0.32534967  0.65788757  -0.00746647  1
  Cr  Cr16  1  0.49115844  0.82449951  0.15793690  1
  Cr  Cr17  1  0.32405673  0.65729387  0.32492155  1
  Cr  Cr18  1  0.65890456  0.99143776  0.99138571  1
  Cr  Cr19  1  0.82640790  0.16095559  0.15905292  1
  Cr  Cr20  1  0.65812713  -0.00635919  0.32584247  1
  Cr  Cr21  1  0.65937671  0.32528650  0.99120608  1
  Cr  Cr22  1  0.82527320  0.48917298  0.15905383  1
  Ni  Ni23  1  0.65921319  0.32395122  0.32583945  1
  Cr  Cr24  1  0.65834042  0.65846683  -0.00804037  1
  Cr  Cr25  1  0.82472318  0.82506329  0.15851090  1
  Cr  Cr26  1  0.65867626  0.65737201  0.32380149  1
  Cr  Cr27  1  0.15904721  0.15991815  0.49095515  1
  Cr  Cr28  1  0.99115813  0.98984432  0.65885712  1
  Cr  Cr29  1  0.15761463  0.15883132  0.82687855  1
  Ni  Ni30  1  0.15682368  0.49170174  0.49187829  1
  Cr  Cr31  1  -0.00715197  0.32727115  0.65830998  1
  Cr  Cr32  1  0.15707107  0.49150287  0.82478906  1
  Cr  Cr33  1  0.15801435  0.82324355  0.49285047  1
  Ni  Ni34  1  -0.00730039  0.65790328  0.65762074  1
  Cr  Cr35  1  0.15819863  0.82485749  0.82405796  1
  Ni  Ni36  1  0.49243081  0.15929632  0.49100525  1
  Cr  Cr37  1  0.32590551  -0.00684663  0.65773447  1
  Cr  Cr38  1  0.49150052  0.15828018  0.82443968  1
  Cr  Cr39  1  0.49142492  0.48987218  0.49095332  1
  Cr  Cr40  1  0.32535925  0.32510997  0.65718829  1
  Cr  Cr41  1  0.49207238  0.49207743  0.82575370  1
  Cr  Cr42  1  0.49134005  0.82645007  0.49172838  1
  Cr  Cr43  1  0.32262680  0.65692653  0.65773636  1
  Cr  Cr44  1  0.49149226  0.82483315  0.82552610  1
  Cr  Cr45  1  0.82367996  0.15999842  0.48983695  1
  Cr  Cr46  1  0.65812658  -0.00741837  0.65796085  1
  Cr  Cr47  1  0.82607442  0.15941051  0.82630345  1
  Cr  Cr48  1  0.82687758  0.49090987  0.49095962  1
  Cr  Cr49  1  0.65698464  0.32399213  0.65791458  1
  Cr  Cr50  1  0.82604857  0.49149629  0.82518036  1
  Cr  Cr51  1  0.82583641  0.82428322  0.49319770  1
  Cr  Cr52  1  0.66029364  0.65861835  0.65943072  1
  Cr  Cr53  1  0.82550007  0.82428512  0.82348402  1
" 