109,Ni89Fe8Cr1_12,-239.953940341244, 186.264568988,Ni89Fe8Cr1,"# generated using pymatgen
 data_Cr(FeNi12)2
_symmetry_space_group_name_H-M   'P 1'
_cell_length_a   7.44771765
_cell_length_b   7.44771765
_cell_length_c   10.53266331
_cell_angle_alpha   90.00000000
_cell_angle_beta   90.00000000
_cell_angle_gamma   90.00000000
_symmetry_Int_Tables_number   1
_chemical_formula_structural   Cr(FeNi12)2
_chemical_formula_sum   'Cr2 Fe4 Ni48'
_cell_volume   584.23101583
_cell_formula_units_Z   2
loop_
 _symmetry_equiv_pos_site_id
 _symmetry_equiv_pos_as_xyz
  1  'x, y, z'
loop_
 _atom_site_type_symbol
 _atom_site_label
 _atom_site_symmetry_multiplicity
 _atom_site_fract_x
 _atom_site_fract_y
 _atom_site_fract_z
 _atom_site_occupancy
  Ni  Ni0  1  1.00022784  0.00254299  1.00036528  1
  Ni  Ni1  1  0.16627864  0.16896612  0.16850668  1
  Ni  Ni2  1  0.99935278  0.00223988  0.33523075  1
  Ni  Ni3  1  0.00135146  0.33437135  0.00192428  1
  Fe  Fe4  1  0.16753446  0.50042953  0.16799047  1
  Ni  Ni5  1  0.00204437  0.33371952  0.33445868  1
  Ni  Ni6  1  1.00013189  0.66686554  1.00051435  1
  Cr  Cr7  1  0.16717577  0.83523031  0.16764712  1
  Ni  Ni8  1  1.00080439  0.66761405  0.33549204  1
  Ni  Ni9  1  0.33480111  1.00106429  0.99998637  1
  Cr  Cr10  1  0.50132125  0.16906499  0.16767847  1
  Fe  Fe11  1  0.33442325  0.00151481  0.33634686  1
  Ni  Ni12  1  0.33333086  0.33560272  1.00051647  1
  Ni  Ni13  1  0.50207317  0.50241591  0.16771280  1
  Ni  Ni14  1  0.33359917  0.33646115  0.33505028  1
  Ni  Ni15  1  0.33602779  0.66715213  1.00049744  1
  Ni  Ni16  1  0.50262458  0.83210587  0.16893251  1
  Ni  Ni17  1  0.33577027  0.66623503  0.33534127  1
  Ni  Ni18  1  0.66887068  0.99993237  1.00077703  1
  Ni  Ni19  1  0.83615382  0.16827674  0.16811572  1
  Ni  Ni20  1  0.66980809  1.00022641  0.33501820  1
  Ni  Ni21  1  0.66914977  0.33565711  1.00046723  1
  Ni  Ni22  1  0.83341048  0.50153409  0.16928042  1
  Ni  Ni23  1  0.66840353  0.33501102  0.33557753  1
  Ni  Ni24  1  0.66768307  0.66828141  0.00185762  1
  Ni  Ni25  1  0.83399704  0.83397372  0.16772358  1
  Ni  Ni26  1  0.66731846  0.66865916  0.33475875  1
  Ni  Ni27  1  0.16785108  0.16796363  0.50097971  1
  Ni  Ni28  1  1.00100904  0.00153076  0.66826188  1
  Ni  Ni29  1  0.16808640  0.16773892  0.83435339  1
  Ni  Ni30  1  0.16937987  0.50199188  0.50060020  1
  Ni  Ni31  1  0.00214927  0.33410683  0.66749784  1
  Ni  Ni32  1  0.16789589  0.50174054  0.83522005  1
  Ni  Ni33  1  0.16623839  0.83391455  0.50161543  1
  Ni  Ni34  1  0.00176634  0.66810926  0.66776106  1
  Ni  Ni35  1  0.16756494  0.83438768  0.83405190  1
  Ni  Ni36  1  0.50181653  0.17010058  0.50121989  1
  Ni  Ni37  1  0.33452043  0.00157084  0.66721414  1
  Ni  Ni38  1  0.50135188  0.16861293  0.83440784  1
  Ni  Ni39  1  0.50114996  0.50060567  0.50133490  1
  Ni  Ni40  1  0.33423377  0.33490585  0.66826293  1
  Ni  Ni41  1  0.50169278  0.50103571  0.83484560  1
  Fe  Fe42  1  0.50099228  0.83513061  0.50171347  1
  Ni  Ni43  1  0.33453299  0.66753276  0.66825229  1
  Ni  Ni44  1  0.50118032  0.83423853  0.83432907  1
  Ni  Ni45  1  0.83417174  0.16682368  0.50096114  1
  Ni  Ni46  1  0.66830769  0.00130828  0.66832745  1
  Ni  Ni47  1  0.83444697  0.16828170  0.83485545  1
  Fe  Fe48  1  0.83553312  0.50046153  0.50132681  1
  Ni  Ni49  1  0.66766864  0.33416043  0.66774673  1
  Ni  Ni50  1  0.83430849  0.50155491  0.83348012  1
  Ni  Ni51  1  0.83573915  0.83463664  0.50093408  1
  Ni  Ni52  1  0.66767491  0.66841670  0.66753301  1
  Ni  Ni53  1  0.83514552  0.83406670  0.83522177  1
" 