8669,Ni89Fe11_6,-228.229144273085, 151.71530822589,Ni89Fe11,"# generated using pymatgen
 data_Fe8Ni
_symmetry_space_group_name_H-M   'P 1'
_cell_length_a   7.40520895
_cell_length_b   7.40520895
_cell_length_c   10.47254693
_cell_angle_alpha   90.00000000
_cell_angle_beta   90.00000000
_cell_angle_gamma   90.00000000
_symmetry_Int_Tables_number   1
_chemical_formula_structural   Fe8Ni
_chemical_formula_sum   'Fe48 Ni6'
_cell_volume   574.28430814
_cell_formula_units_Z   6
loop_
 _symmetry_equiv_pos_site_id
 _symmetry_equiv_pos_as_xyz
  1  'x, y, z'
loop_
 _atom_site_type_symbol
 _atom_site_label
 _atom_site_symmetry_multiplicity
 _atom_site_fract_x
 _atom_site_fract_y
 _atom_site_fract_z
 _atom_site_occupancy
  Fe  Fe0  1  0.00417857  1.00417294  1.00416996  1
  Fe  Fe1  1  0.17084523  0.17083318  0.17084281  1
  Fe  Fe2  1  0.00418479  1.00415950  0.33751168  1
  Fe  Fe3  1  1.00417455  0.33750868  1.00417456  1
  Fe  Fe4  1  0.17084122  0.50418818  0.17084764  1
  Fe  Fe5  1  0.00418075  0.33750969  0.33750869  1
  Fe  Fe6  1  0.00417775  0.67084442  0.00418478  1
  Ni  Ni7  1  0.17084335  0.83750814  0.17084669  1
  Ni  Ni8  1  0.00418548  0.67083238  0.33750817  1
  Fe  Fe9  1  0.33750547  1.00417295  0.00418397  1
  Fe  Fe10  1  0.50416994  0.17082941  0.17084762  1
  Ni  Ni11  1  0.33752129  1.00417104  0.33750817  1
  Fe  Fe12  1  0.33750948  0.33750868  1.00417294  1
  Fe  Fe13  1  0.50416593  0.50418397  0.17084281  1
  Fe  Fe14  1  0.33750948  0.33750868  0.33750950  1
  Fe  Fe15  1  0.33750628  0.67084442  0.00418317  1
  Fe  Fe16  1  0.50416571  0.83751268  0.17085085  1
  Ni  Ni17  1  0.33749583  0.67084318  0.33750426  1
  Fe  Fe18  1  0.67084202  0.00417614  0.00418076  1
  Fe  Fe19  1  0.83751089  0.17083341  0.17084361  1
  Ni  Ni20  1  0.67083396  0.00418626  0.33750869  1
  Fe  Fe21  1  0.67084202  0.33750949  1.00417457  1
  Fe  Fe22  1  0.83751890  0.50418396  0.17084362  1
  Fe  Fe23  1  0.67083582  0.33750850  0.33750868  1
  Fe  Fe24  1  0.67084202  0.67084041  1.00417213  1
  Fe  Fe25  1  0.83751511  0.83750868  0.17084683  1
  Fe  Fe26  1  0.67083581  0.67085384  0.33750950  1
  Fe  Fe27  1  0.17084202  0.17083720  0.50417857  1
  Ni  Ni28  1  1.00417219  0.00417774  0.67084280  1
  Fe  Fe29  1  0.17083881  0.17083961  0.83750467  1
  Fe  Fe30  1  0.17084202  0.50418095  0.50416972  1
  Fe  Fe31  1  0.00417536  0.33750146  0.67084280  1
  Fe  Fe32  1  0.17084282  0.50417455  0.83750869  1
  Fe  Fe33  1  0.17084202  0.83750788  0.50416351  1
  Fe  Fe34  1  1.00417454  0.67084844  0.67083660  1
  Fe  Fe35  1  0.17083881  0.83751189  0.83751168  1
  Fe  Fe36  1  0.50417613  0.17083641  0.50416893  1
  Fe  Fe37  1  0.33750145  0.00417615  0.67083740  1
  Fe  Fe38  1  0.50417534  0.17084280  0.83750950  1
  Fe  Fe39  1  0.50417212  0.50417777  0.50417456  1
  Fe  Fe40  1  0.33750248  0.33750248  0.67084361  1
  Fe  Fe41  1  0.50417534  0.50417536  0.83750868  1
  Fe  Fe42  1  0.50417294  0.83751187  0.50416651  1
  Fe  Fe43  1  0.33750329  0.67084742  0.67083740  1
  Fe  Fe44  1  0.50417616  0.83750789  0.83750869  1
  Fe  Fe45  1  0.83750789  0.17083641  0.50417695  1
  Fe  Fe46  1  0.67084923  1.00417534  0.67083660  1
  Fe  Fe47  1  0.83751189  0.17083880  0.83750548  1
  Fe  Fe48  1  0.83751189  0.50417776  0.50417293  1
  Fe  Fe49  1  0.67084821  0.33750330  0.67084280  1
  Fe  Fe50  1  0.83750789  0.50417536  0.83750950  1
  Fe  Fe51  1  0.83751109  0.83751188  0.50417454  1
  Fe  Fe52  1  0.67084821  0.67084741  0.67084442  1
  Fe  Fe53  1  0.83751108  0.83751189  0.83750467  1
" 