1983,Ni89Fe11_4,-228.096569849504, 153.685188220558,Ni89Fe11,"# generated using pymatgen
 data_Fe8Ni
_symmetry_space_group_name_H-M   'P 1'
_cell_length_a   7.40463177
_cell_length_b   7.40463177
_cell_length_c   10.47173068
_cell_angle_alpha   90.00000000
_cell_angle_beta   90.00000000
_cell_angle_gamma   90.00000000
_symmetry_Int_Tables_number   1
_chemical_formula_structural   Fe8Ni
_chemical_formula_sum   'Fe48 Ni6'
_cell_volume   574.15003590
_cell_formula_units_Z   6
loop_
 _symmetry_equiv_pos_site_id
 _symmetry_equiv_pos_as_xyz
  1  'x, y, z'
loop_
 _atom_site_type_symbol
 _atom_site_label
 _atom_site_symmetry_multiplicity
 _atom_site_fract_x
 _atom_site_fract_y
 _atom_site_fract_z
 _atom_site_occupancy
  Fe  Fe0  1  1.00373582  0.00439818  0.00449260  1
  Fe  Fe1  1  0.17088442  0.17097673  0.17097541  1
  Fe  Fe2  1  0.00449081  0.00430794  0.33736961  1
  Fe  Fe3  1  1.00358913  0.33683648  0.00429938  1
  Fe  Fe4  1  0.17087965  0.50422006  0.17068748  1
  Fe  Fe5  1  1.00392571  0.33764601  0.33764722  1
  Fe  Fe6  1  1.00358952  0.67140883  1.00368298  1
  Fe  Fe7  1  0.17078548  0.83744712  0.17106929  1
  Fe  Fe8  1  1.00392527  0.67068882  0.33836307  1
  Fe  Fe9  1  0.33830444  1.00392786  1.00402186  1
  Fe  Fe10  1  0.50449969  0.17060010  0.17060368  1
  Fe  Fe11  1  0.33727341  1.00420939  0.33746348  1
  Fe  Fe12  1  0.33807942  0.33693079  0.00430569  1
  Fe  Fe13  1  0.50402912  0.50412149  0.17159669  1
  Fe  Fe14  1  0.33783772  0.33774382  0.33774517  1
  Fe  Fe15  1  0.33854799  0.67178385  1.00402329  1
  Fe  Fe16  1  0.50450022  0.83792326  0.16988801  1
  Fe  Fe17  1  0.33793537  0.67069219  0.33764986  1
  Ni  Ni18  1  0.67043368  0.00442279  0.00501672  1
  Fe  Fe19  1  0.83725858  0.17050502  0.17050851  1
  Fe  Fe20  1  0.67087924  1.00420945  0.33736379  1
  Fe  Fe21  1  0.67097506  0.33708274  0.00439910  1
  Fe  Fe22  1  0.83773535  0.50422016  0.17150348  1
  Fe  Fe23  1  0.67088160  0.33830302  0.33811645  1
  Fe  Fe24  1  0.67050322  0.67164148  1.00411386  1
  Fe  Fe25  1  0.83735565  0.83792059  0.17060052  1
  Fe  Fe26  1  0.67078595  0.67013135  0.33802323  1
  Fe  Fe27  1  0.17097450  0.17221190  0.50402990  1
  Fe  Fe28  1  1.00382363  1.00372919  0.67078145  1
  Fe  Fe29  1  0.17159181  0.17044878  0.83763865  1
  Fe  Fe30  1  0.17060608  0.50449484  0.50450089  1
  Fe  Fe31  1  1.00330617  0.33767793  0.67069569  1
  Fe  Fe32  1  0.17121990  0.50511619  0.83745301  1
  Fe  Fe33  1  0.17050662  0.83593223  0.50431178  1
  Ni  Ni34  1  0.00501587  0.66983845  0.67043164  1
  Fe  Fe35  1  0.17115773  0.83707399  0.83725974  1
  Fe  Fe36  1  0.50511261  0.17187975  0.50440419  1
  Fe  Fe37  1  0.33758911  1.00330975  0.67115867  1
  Fe  Fe38  1  0.50479476  0.16964621  0.83763695  1
  Ni  Ni39  1  0.50520843  0.50443380  0.50453986  1
  Fe  Fe40  1  0.33774321  0.33773967  0.67059724  1
  Fe  Fe41  1  0.50393947  0.50468929  0.83711055  1
  Fe  Fe42  1  0.50511617  0.83674183  0.50502320  1
  Fe  Fe43  1  0.33818012  0.67159378  0.67097448  1
  Ni  Ni44  1  0.50413868  0.83791009  0.83766223  1
  Fe  Fe45  1  0.83655304  0.17177698  0.50440207  1
  Ni  Ni46  1  0.67016819  0.00468991  0.67019017  1
  Fe  Fe47  1  0.83625406  0.16959088  0.83773355  1
  Ni  Ni48  1  0.83700425  0.50400357  0.50411039  1
  Fe  Fe49  1  0.67159452  0.33826403  0.67013133  1
  Fe  Fe50  1  0.83749008  0.50512053  0.83673313  1
  Fe  Fe51  1  0.83702359  0.83635808  0.50469498  1
  Fe  Fe52  1  0.67117812  0.67108504  0.67050893  1
  Fe  Fe53  1  0.83667876  0.83793481  0.83734592  1
" 