4758,Ni89Fe8Cr1_10,-239.941770295038, 186.294989733734,Ni89Fe8Cr1,"# generated using pymatgen
 data_Cr(FeNi12)2
_symmetry_space_group_name_H-M   'P 1'
_cell_length_a   7.44775650
_cell_length_b   7.44775650
_cell_length_c   10.53271825
_cell_angle_alpha   90.00000000
_cell_angle_beta   90.00000000
_cell_angle_gamma   90.00000000
_symmetry_Int_Tables_number   1
_chemical_formula_structural   Cr(FeNi12)2
_chemical_formula_sum   'Cr2 Fe4 Ni48'
_cell_volume   584.24015747
_cell_formula_units_Z   2
loop_
 _symmetry_equiv_pos_site_id
 _symmetry_equiv_pos_as_xyz
  1  'x, y, z'
loop_
 _atom_site_type_symbol
 _atom_site_label
 _atom_site_symmetry_multiplicity
 _atom_site_fract_x
 _atom_site_fract_y
 _atom_site_fract_z
 _atom_site_occupancy
  Ni  Ni0  1  1.00113170  0.00161446  1.00109355  1
  Ni  Ni1  1  0.16823857  0.16755068  0.16817235  1
  Ni  Ni2  1  1.00079295  0.00189385  0.33460163  1
  Ni  Ni3  1  0.00178211  0.33449672  1.00087179  1
  Ni  Ni4  1  0.16730519  0.50150479  0.16807263  1
  Ni  Ni5  1  0.00148046  0.33402363  0.33525953  1
  Ni  Ni6  1  0.00131207  0.66775292  1.00099584  1
  Ni  Ni7  1  0.16617406  0.83480556  0.16771229  1
  Ni  Ni8  1  0.00150628  0.66796348  0.33501321  1
  Ni  Ni9  1  0.33309272  1.00129248  1.00034853  1
  Ni  Ni10  1  0.50125778  0.16940190  0.16814876  1
  Ni  Ni11  1  0.33372696  0.00236326  0.33659719  1
  Ni  Ni12  1  0.33347139  0.33576927  0.00258544  1
  Ni  Ni13  1  0.50190747  0.49939182  0.16736670  1
  Ni  Ni14  1  0.33450833  0.33489449  0.33422655  1
  Ni  Ni15  1  0.33400793  0.66666779  0.99954306  1
  Cr  Cr16  1  0.50108114  0.83482848  0.16802397  1
  Ni  Ni17  1  0.33382667  0.66637026  0.33568321  1
  Ni  Ni18  1  0.66988966  1.00100901  0.00135425  1
  Ni  Ni19  1  0.83447826  0.16829939  0.16734839  1
  Ni  Ni20  1  0.66936166  0.00239673  0.33535512  1
  Ni  Ni21  1  0.66897695  0.33564480  0.00136531  1
  Ni  Ni22  1  0.83467296  0.50144328  0.16848228  1
  Ni  Ni23  1  0.66796499  0.33423668  0.33542499  1
  Ni  Ni24  1  0.66855610  0.66742318  1.00007222  1
  Ni  Ni25  1  0.83651707  0.83412766  0.16808820  1
  Ni  Ni26  1  0.66854088  0.66713867  0.33564250  1
  Ni  Ni27  1  0.16826475  0.16764107  0.50146163  1
  Ni  Ni28  1  0.99956848  0.00167419  0.66829871  1
  Ni  Ni29  1  0.16732934  0.16806388  0.83433480  1
  Ni  Ni30  1  0.16783410  0.50154383  0.50137741  1
  Ni  Ni31  1  0.00302133  0.33414182  0.66778944  1
  Ni  Ni32  1  0.16731317  0.50092732  0.83438689  1
  Ni  Ni33  1  0.16638908  0.83446795  0.50163437  1
  Ni  Ni34  1  0.00132728  0.66809618  0.66790057  1
  Ni  Ni35  1  0.16682635  0.83465372  0.83469361  1
  Ni  Ni36  1  0.50117435  0.16849452  0.50119913  1
  Fe  Fe37  1  0.33254658  0.99982676  0.66739020  1
  Cr  Cr38  1  0.50061928  0.16871079  0.83503434  1
  Ni  Ni39  1  0.50145272  0.50013415  0.50145745  1
  Ni  Ni40  1  0.33329797  0.33617946  0.66706420  1
  Ni  Ni41  1  0.50185392  0.50214056  0.83498305  1
  Fe  Fe42  1  0.50136638  0.83402806  0.50137219  1
  Ni  Ni43  1  0.33504449  0.66615330  0.66845529  1
  Ni  Ni44  1  0.50191138  0.83392471  0.83378794  1
  Ni  Ni45  1  0.83440809  0.16767084  0.50223826  1
  Ni  Ni46  1  0.66940864  0.99983646  0.66701630  1
  Fe  Fe47  1  0.83638298  0.16798620  0.83471978  1
  Ni  Ni48  1  0.83482481  0.50217649  0.50143061  1
  Fe  Fe49  1  0.66915927  0.33679876  0.66686084  1
  Ni  Ni50  1  0.83504552  0.50257093  0.83387648  1
  Ni  Ni51  1  0.83559275  0.83442659  0.50069672  1
  Ni  Ni52  1  0.66749615  0.66961543  0.66793908  1
  Ni  Ni53  1  0.83491368  0.83374597  0.83508636  1
" 