539,Ni89Fe4Cr6_4,-237.750346584408, 176.305313142893,Ni89Fe4Cr6,"# generated using pymatgen
 data_Cr2FeNi24
_symmetry_space_group_name_H-M   'P 1'
_cell_length_a   7.45953378
_cell_length_b   7.45953378
_cell_length_c   10.54937384
_cell_angle_alpha   90.00000000
_cell_angle_beta   90.00000000
_cell_angle_gamma   90.00000000
_symmetry_Int_Tables_number   1
_chemical_formula_structural   Cr2FeNi24
_chemical_formula_sum   'Cr4 Fe2 Ni48'
_cell_volume   587.01615430
_cell_formula_units_Z   2
loop_
 _symmetry_equiv_pos_site_id
 _symmetry_equiv_pos_as_xyz
  1  'x, y, z'
loop_
 _atom_site_type_symbol
 _atom_site_label
 _atom_site_symmetry_multiplicity
 _atom_site_fract_x
 _atom_site_fract_y
 _atom_site_fract_z
 _atom_site_occupancy
  Ni  Ni0  1  1.00027460  0.99864884  1.00042432  1
  Ni  Ni1  1  0.16852398  0.16604422  0.16833549  1
  Ni  Ni2  1  1.00023990  0.00077083  0.33331395  1
  Cr  Cr3  1  0.00093157  0.33178132  0.00122214  1
  Ni  Ni4  1  0.16709508  0.50033454  0.16724768  1
  Ni  Ni5  1  1.00037521  0.33349761  0.33405413  1
  Ni  Ni6  1  0.00148112  0.66928122  0.00068067  1
  Ni  Ni7  1  0.16647609  0.83507506  0.16650333  1
  Ni  Ni8  1  0.99946766  0.66725835  0.33494398  1
  Ni  Ni9  1  0.33399928  1.00029405  1.00022679  1
  Ni  Ni10  1  0.50023435  0.16695637  0.16811387  1
  Ni  Ni11  1  0.33375344  0.00155018  0.33454752  1
  Ni  Ni12  1  0.33542049  0.33411850  1.00034402  1
  Ni  Ni13  1  0.50168291  0.49919230  0.16569790  1
  Ni  Ni14  1  0.33366316  0.33292210  0.33388120  1
  Ni  Ni15  1  0.33414377  0.66718229  1.00040111  1
  Ni  Ni16  1  0.50148215  0.83541062  0.16621834  1
  Cr  Cr17  1  0.33543630  0.66709947  0.33283118  1
  Ni  Ni18  1  0.66724591  1.00050174  0.99969843  1
  Ni  Ni19  1  0.83256762  0.16612182  0.16792335  1
  Ni  Ni20  1  0.66758196  1.00023623  0.33453406  1
  Ni  Ni21  1  0.66467733  0.33283421  0.00116453  1
  Ni  Ni22  1  0.83290168  0.50140157  0.16881701  1
  Ni  Ni23  1  0.66748743  0.33406909  0.33387674  1
  Ni  Ni24  1  0.66595930  0.66819098  0.00188788  1
  Ni  Ni25  1  0.83373948  0.83381651  0.16736847  1
  Ni  Ni26  1  0.66858347  0.66727091  0.33368024  1
  Ni  Ni27  1  0.16759973  0.16781783  0.49929930  1
  Cr  Cr28  1  0.99985297  0.00181276  0.66858561  1
  Ni  Ni29  1  0.16946111  0.16702568  0.83401591  1
  Ni  Ni30  1  0.16694343  0.49913395  0.50172979  1
  Ni  Ni31  1  0.00127157  0.33374142  0.66625580  1
  Ni  Ni32  1  0.16965521  0.50105345  0.83237664  1
  Ni  Ni33  1  0.16785363  0.83458260  0.50036858  1
  Fe  Fe34  1  0.00120733  0.66710872  0.66596636  1
  Ni  Ni35  1  0.16867469  0.83346301  0.83467083  1
  Fe  Fe36  1  0.50052548  0.16732467  0.50055512  1
  Ni  Ni37  1  0.33480405  0.99973084  0.66668009  1
  Ni  Ni38  1  0.50017590  0.16692607  0.83266651  1
  Ni  Ni39  1  0.50145762  0.50030431  0.50143365  1
  Ni  Ni40  1  0.33348332  0.33466503  0.66724887  1
  Ni  Ni41  1  0.49899686  0.50039241  0.83418967  1
  Ni  Ni42  1  0.50125850  0.83430510  0.50127033  1
  Ni  Ni43  1  0.33493952  0.66708455  0.66747148  1
  Ni  Ni44  1  0.50039574  0.83410458  0.83375591  1
  Ni  Ni45  1  0.83369459  0.16796351  0.49975469  1
  Ni  Ni46  1  0.66617748  0.99980594  0.66725271  1
  Ni  Ni47  1  0.83170669  0.16589266  0.83402343  1
  Ni  Ni48  1  0.83314697  0.49997821  0.50036288  1
  Ni  Ni49  1  0.66677450  0.33345000  0.66643300  1
  Cr  Cr50  1  0.83219419  0.50140484  0.83243719  1
  Ni  Ni51  1  0.83231762  0.83352533  0.49966647  1
  Ni  Ni52  1  0.66485051  0.66804202  0.66598548  1
  Ni  Ni53  1  0.83235213  0.83469607  0.83480189  1
" 