4144,Ni89Fe7Cr3_0,-238.876184968347, 180.948747688543,Ni89Fe7Cr3,"# generated using pymatgen
 data_CrFeNi16
_symmetry_space_group_name_H-M   'P 1'
_cell_length_a   7.45275512
_cell_length_b   7.45275512
_cell_length_c   10.53978737
_cell_angle_alpha   90.00000000
_cell_angle_beta   90.00000000
_cell_angle_gamma   90.00000000
_symmetry_Int_Tables_number   1
_chemical_formula_structural   CrFeNi16
_chemical_formula_sum   'Cr3 Fe3 Ni48'
_cell_volume   585.41729993
_cell_formula_units_Z   3
loop_
 _symmetry_equiv_pos_site_id
 _symmetry_equiv_pos_as_xyz
  1  'x, y, z'
loop_
 _atom_site_type_symbol
 _atom_site_label
 _atom_site_symmetry_multiplicity
 _atom_site_fract_x
 _atom_site_fract_y
 _atom_site_fract_z
 _atom_site_occupancy
  Ni  Ni0  1  0.00165830  0.00138170  0.00212690  1
  Ni  Ni1  1  0.16740610  0.16749179  0.16775957  1
  Ni  Ni2  1  1.00051222  0.00312362  0.33426528  1
  Ni  Ni3  1  1.00084036  0.33463679  1.00058238  1
  Ni  Ni4  1  0.16822209  0.50005056  0.16644405  1
  Ni  Ni5  1  0.00160035  0.33254098  0.33473805  1
  Ni  Ni6  1  0.00158579  0.66685881  0.00167890  1
  Ni  Ni7  1  0.16822525  0.83533440  0.16609354  1
  Cr  Cr8  1  1.00069538  0.66757307  0.33407982  1
  Ni  Ni9  1  0.33341543  0.00189611  0.00161717  1
  Ni  Ni10  1  0.50088319  0.16722331  0.16725074  1
  Ni  Ni11  1  0.33464734  0.00175379  0.33451447  1
  Ni  Ni12  1  0.33448355  0.33437350  1.00079456  1
  Ni  Ni13  1  0.50113396  0.50138596  0.16724726  1
  Ni  Ni14  1  0.33380950  0.33416024  0.33426537  1
  Ni  Ni15  1  0.33322363  0.66660695  0.00177596  1
  Ni  Ni16  1  0.50139993  0.83426706  0.16750625  1
  Ni  Ni17  1  0.33626507  0.66696273  0.33451448  1
  Ni  Ni18  1  0.66780288  0.00264227  0.00250663  1
  Ni  Ni19  1  0.83458724  0.16722572  0.16702321  1
  Ni  Ni20  1  0.66771720  1.00066766  0.33451447  1
  Ni  Ni21  1  0.66755258  0.33444568  0.00109102  1
  Ni  Ni22  1  0.83352045  0.50056768  0.16643015  1
  Fe  Fe23  1  0.66736475  0.33398222  0.33434207  1
  Ni  Ni24  1  0.66806689  0.66578961  0.00262873  1
  Ni  Ni25  1  0.83325163  0.83508325  0.16668849  1
  Ni  Ni26  1  0.66609751  0.66805066  0.33451448  1
  Ni  Ni27  1  0.16751009  0.16738768  0.50072434  1
  Ni  Ni28  1  0.00165772  1.00076559  0.66648476  1
  Ni  Ni29  1  0.16836540  0.16778862  0.83439241  1
  Ni  Ni30  1  0.16832563  0.50015487  0.50203956  1
  Fe  Fe31  1  0.00112492  0.33462779  0.66730091  1
  Ni  Ni32  1  0.16728202  0.50035281  0.83439231  1
  Ni  Ni33  1  0.16825128  0.83533379  0.50246206  1
  Ni  Ni34  1  0.00158543  0.66747465  0.66693271  1
  Ni  Ni35  1  0.16720566  0.83473527  0.83432044  1
  Ni  Ni36  1  0.50088314  0.16719685  0.50130554  1
  Ni  Ni37  1  0.33319327  0.00211837  0.66674494  1
  Ni  Ni38  1  0.50018974  0.16948681  0.83432053  1
  Ni  Ni39  1  0.50113381  0.50141241  0.50130898  1
  Ni  Ni40  1  0.33509974  0.33437351  0.66781667  1
  Ni  Ni41  1  0.50127265  0.49865439  0.83432057  1
  Ni  Ni42  1  0.50139989  0.83426709  0.50108292  1
  Ni  Ni43  1  0.33300154  0.66638479  0.66658617  1
  Cr  Cr44  1  0.49987861  0.83455776  0.83429021  1
  Ni  Ni45  1  0.83448357  0.16712192  0.50146105  1
  Ni  Ni46  1  0.66802570  0.00286434  0.66585616  1
  Fe  Fe47  1  0.83432479  0.16944361  0.83456834  1
  Ni  Ni48  1  0.83341722  0.50067168  0.50205380  1
  Ni  Ni49  1  0.66693750  0.33444544  0.66752035  1
  Ni  Ni50  1  0.83432197  0.49981203  0.83439201  1
  Ni  Ni51  1  0.83322571  0.83508275  0.50186721  1
  Ni  Ni52  1  0.66828933  0.66556794  0.66573384  1
  Cr  Cr53  1  0.83542424  0.83362024  0.83450632  1
" 