3504,Ni89Fe9Cr1_12,-240.024772475802, 187.156989647493,Ni89Fe9Cr1,"# generated using pymatgen
 data_Cr(FeNi12)2
_symmetry_space_group_name_H-M   'P 1'
_cell_length_a   7.44854876
_cell_length_b   7.44854876
_cell_length_c   10.53383868
_cell_angle_alpha   90.00000000
_cell_angle_beta   90.00000000
_cell_angle_gamma   90.00000000
_symmetry_Int_Tables_number   1
_chemical_formula_structural   Cr(FeNi12)2
_chemical_formula_sum   'Cr2 Fe4 Ni48'
_cell_volume   584.42662613
_cell_formula_units_Z   2
loop_
 _symmetry_equiv_pos_site_id
 _symmetry_equiv_pos_as_xyz
  1  'x, y, z'
loop_
 _atom_site_type_symbol
 _atom_site_label
 _atom_site_symmetry_multiplicity
 _atom_site_fract_x
 _atom_site_fract_y
 _atom_site_fract_z
 _atom_site_occupancy
  Ni  Ni0  1  1.00071422  0.00125555  0.00174030  1
  Ni  Ni1  1  0.16833274  0.16825192  0.16841349  1
  Ni  Ni2  1  1.00110298  0.00230951  0.33408617  1
  Ni  Ni3  1  1.00062913  0.33476060  0.00156135  1
  Ni  Ni4  1  0.16816229  0.50106386  0.16698027  1
  Ni  Ni5  1  0.00133510  0.33542905  0.33463550  1
  Ni  Ni6  1  1.00083172  0.66770248  0.00154175  1
  Ni  Ni7  1  0.16811758  0.83440850  0.16865185  1
  Ni  Ni8  1  0.00255607  0.66598102  0.33353183  1
  Ni  Ni9  1  0.33497895  1.00106996  0.00219128  1
  Ni  Ni10  1  0.50067706  0.16814890  0.16735477  1
  Ni  Ni11  1  0.33577761  1.00117954  0.33443829  1
  Ni  Ni12  1  0.33499079  0.33487678  0.00132321  1
  Ni  Ni13  1  0.50076145  0.50110652  0.16851249  1
  Ni  Ni14  1  0.33411464  0.33517620  0.33471085  1
  Ni  Ni15  1  0.33494863  0.66777463  0.00127927  1
  Ni  Ni16  1  0.50088401  0.83442678  0.16763220  1
  Ni  Ni17  1  0.33419145  0.66734518  0.33498512  1
  Ni  Ni18  1  0.66801921  0.00126575  1.00061775  1
  Ni  Ni19  1  0.83472439  0.16812959  0.16795259  1
  Ni  Ni20  1  0.66685297  0.00230253  0.33380184  1
  Ni  Ni21  1  0.66811639  0.33475571  0.00193782  1
  Ni  Ni22  1  0.83481301  0.50125637  0.16798664  1
  Fe  Fe23  1  0.66827336  0.33363330  0.33405813  1
  Ni  Ni24  1  0.66793305  0.66768479  0.00194149  1
  Ni  Ni25  1  0.83471148  0.83432071  0.16751816  1
  Fe  Fe26  1  0.66754835  0.66793932  0.33332595  1
  Ni  Ni27  1  0.16758291  0.16958132  0.50010598  1
  Ni  Ni28  1  1.00017619  0.00237906  0.66794516  1
  Ni  Ni29  1  0.16722835  0.16852123  0.83527195  1
  Ni  Ni30  1  0.16727253  0.50107890  0.50225279  1
  Ni  Ni31  1  1.00074561  0.33492453  0.66757550  1
  Fe  Fe32  1  0.16799519  0.50102048  0.83476301  1
  Ni  Ni33  1  0.16903525  0.83308039  0.50008609  1
  Ni  Ni34  1  0.00187303  0.66640777  0.66870039  1
  Ni  Ni35  1  0.16703724  0.83411491  0.83499633  1
  Ni  Ni36  1  0.50183302  0.16856670  0.50068637  1
  Cr  Cr37  1  0.33494702  1.00122258  0.66727343  1
  Ni  Ni38  1  0.50162463  0.16977891  0.83562874  1
  Fe  Fe39  1  0.50029816  0.50081700  0.50178848  1
  Ni  Ni40  1  0.33466543  0.33632106  0.66781109  1
  Ni  Ni41  1  0.50204490  0.50106202  0.83377060  1
  Ni  Ni42  1  0.50045368  0.83400996  0.50070695  1
  Ni  Ni43  1  0.33467992  0.66624522  0.66753529  1
  Ni  Ni44  1  0.50179671  0.83288522  0.83537655  1
  Ni  Ni45  1  0.83429543  0.17025449  0.50177019  1
  Ni  Ni46  1  0.66843220  0.00226431  0.66929325  1
  Ni  Ni47  1  0.83486714  0.16876036  0.83384026  1
  Ni  Ni48  1  0.83533544  0.49960114  0.50110646  1
  Ni  Ni49  1  0.66823445  0.33457851  0.66704204  1
  Ni  Ni50  1  0.83355924  0.50126349  0.83448070  1
  Cr  Cr51  1  0.83496098  0.83422461  0.50217539  1
  Ni  Ni52  1  0.66711679  0.66683636  0.66807386  1
  Ni  Ni53  1  0.83486578  0.83370030  0.83428865  1
" 