8388,Ni89Cr11_5,-203.566167723886, 182.890905600528,Ni89Cr11,"# generated using pymatgen
 data_Cr8Ni
_symmetry_space_group_name_H-M   'P 1'
_cell_length_a   7.59267521
_cell_length_b   7.59267521
_cell_length_c   10.73766426
_cell_angle_alpha   90.00000000
_cell_angle_beta   90.00000000
_cell_angle_gamma   90.00000000
_symmetry_Int_Tables_number   1
_chemical_formula_structural   Cr8Ni
_chemical_formula_sum   'Cr48 Ni6'
_cell_volume   619.01256751
_cell_formula_units_Z   6
loop_
 _symmetry_equiv_pos_site_id
 _symmetry_equiv_pos_as_xyz
  1  'x, y, z'
loop_
 _atom_site_type_symbol
 _atom_site_label
 _atom_site_symmetry_multiplicity
 _atom_site_fract_x
 _atom_site_fract_y
 _atom_site_fract_z
 _atom_site_occupancy
  Cr  Cr0  1  0.99076397  -0.00638170  0.99153316  1
  Cr  Cr1  1  0.15787400  0.15891783  0.15787004  1
  Cr  Cr2  1  0.99167996  0.99168223  0.32440162  1
  Ni  Ni3  1  0.99098404  0.32400200  0.99094190  1
  Cr  Cr4  1  0.15786872  0.49043659  0.15753954  1
  Cr  Cr5  1  0.99168054  0.32510567  0.32435634  1
  Cr  Cr6  1  -0.00761928  0.65734421  0.99167923  1
  Cr  Cr7  1  0.15839417  0.82582740  0.15806442  1
  Cr  Cr8  1  0.99068849  0.65839427  0.32510971  1
  Cr  Cr9  1  0.32501522  0.99100660  -0.00794367  1
  Cr  Cr10  1  0.49107349  0.15839208  0.15844091  1
  Cr  Cr11  1  0.32615058  0.99167773  0.32654246  1
  Cr  Cr12  1  0.32401382  0.32582566  -0.00794385  1
  Cr  Cr13  1  0.49269272  0.49257456  0.15858974  1
  Cr  Cr14  1  0.32563185  0.32458577  0.32602402  1
  Cr  Cr15  1  0.32500940  0.65834859  0.99172509  1
  Cr  Cr16  1  0.49269086  0.82421543  0.15863367  1
  Cr  Cr17  1  0.32662176  0.65891703  0.32492264  1
  Cr  Cr18  1  0.65940160  -0.00737561  0.99043473  1
  Cr  Cr19  1  0.82623472  0.15891880  0.15716225  1
  Cr  Cr20  1  0.65735085  0.99068920  0.32654141  1
  Cr  Cr21  1  0.66040496  0.32420816  0.99043533  1
  Cr  Cr22  1  0.82462039  0.49205524  0.15916146  1
  Cr  Cr23  1  0.65787015  0.32557745  0.32602229  1
  Cr  Cr24  1  0.65779041  0.65834783  -0.00756751  1
  Cr  Cr25  1  0.82409477  0.82420739  0.15968779  1
  Ni  Ni26  1  0.65746557  0.65931847  0.32570527  1
  Cr  Cr27  1  0.16013631  0.15834893  0.49106545  1
  Cr  Cr28  1  0.99076300  0.99088070  0.65924692  1
  Cr  Cr29  1  0.15683120  0.15891628  0.82624202  1
  Cr  Cr30  1  0.15751967  0.49192504  0.49301976  1
  Cr  Cr31  1  0.99076488  0.32590878  0.65929066  1
  Cr  Cr32  1  0.15730176  0.49167927  0.82461938  1
  Cr  Cr33  1  0.15851695  0.82490770  0.49301890  1
  Ni  Ni34  1  -0.00799846  0.65839272  0.65839255  1
  Cr  Cr35  1  0.15782239  0.82458654  0.82409770  1
  Ni  Ni36  1  0.49145342  0.15654475  0.49172777  1
  Cr  Cr37  1  0.32649972  0.99135510  0.65658078  1
  Cr  Cr38  1  0.49276561  0.15839400  0.82501256  1
  Cr  Cr39  1  0.49268849  0.49192272  0.49087621  1
  Cr  Cr40  1  0.32597891  0.32490750  0.65710112  1
  Cr  Cr41  1  0.49177415  0.49168165  0.82572102  1
  Ni  Ni42  1  0.49246870  0.82611957  0.49066287  1
  Cr  Cr43  1  0.32388318  0.65891678  0.65853295  1
  Cr  Cr44  1  0.49177357  0.82510579  0.82567404  1
  Cr  Cr45  1  0.82397567  0.15834818  0.49177368  1
  Cr  Cr46  1  0.65791948  -0.00703076  0.65820224  1
  Ni  Ni47  1  0.82598850  0.15931896  0.82626602  1
  Cr  Cr48  1  0.82497154  0.49353835  0.49139859  1
  Cr  Cr49  1  0.65844054  0.32329202  0.65872410  1
  Cr  Cr50  1  0.82610503  0.49069074  0.82462158  1
  Cr  Cr51  1  0.82397231  0.82329473  0.49139847  1
  Cr  Cr52  1  0.65891277  0.65891773  0.65782432  1
  Cr  Cr53  1  0.82558382  0.82557823  0.82409921  1
" 