7394,Ni89Fe4Cr6_6,-237.7786072639, 176.230337753878,Ni89Fe4Cr6,"# generated using pymatgen
 data_Cr2FeNi24
_symmetry_space_group_name_H-M   'P 1'
_cell_length_a   7.45750166
_cell_length_b   7.45750166
_cell_length_c   10.54649999
_cell_angle_alpha   90.00000000
_cell_angle_beta   90.00000000
_cell_angle_gamma   90.00000000
_symmetry_Int_Tables_number   1
_chemical_formula_structural   Cr2FeNi24
_chemical_formula_sum   'Cr4 Fe2 Ni48'
_cell_volume   586.53654212
_cell_formula_units_Z   2
loop_
 _symmetry_equiv_pos_site_id
 _symmetry_equiv_pos_as_xyz
  1  'x, y, z'
loop_
 _atom_site_type_symbol
 _atom_site_label
 _atom_site_symmetry_multiplicity
 _atom_site_fract_x
 _atom_site_fract_y
 _atom_site_fract_z
 _atom_site_occupancy
  Ni  Ni0  1  0.00073199  0.00067354  0.00069111  1
  Ni  Ni1  1  0.16672030  0.16715302  0.16751555  1
  Ni  Ni2  1  1.00037532  0.00203227  0.33389233  1
  Ni  Ni3  1  0.00161605  0.33310577  0.00147349  1
  Ni  Ni4  1  0.16796224  0.49982640  0.16583440  1
  Ni  Ni5  1  0.00087533  0.33219936  0.33437237  1
  Ni  Ni6  1  0.00168934  0.66820719  0.00145168  1
  Ni  Ni7  1  0.16838245  0.83492834  0.16675720  1
  Cr  Cr8  1  0.00070866  0.66765085  0.33407094  1
  Ni  Ni9  1  0.33419116  0.00098465  1.00057236  1
  Ni  Ni10  1  0.50100212  0.16698942  0.16727281  1
  Ni  Ni11  1  0.33428358  0.00109849  0.33440586  1
  Ni  Ni12  1  0.33444195  0.33379870  1.00023470  1
  Ni  Ni13  1  0.50085821  0.50113536  0.16688879  1
  Ni  Ni14  1  0.33440816  0.33391449  0.33383828  1
  Ni  Ni15  1  0.33403337  0.66716156  1.00055779  1
  Ni  Ni16  1  0.50063966  0.83377649  0.16790333  1
  Ni  Ni17  1  0.33565079  0.66690260  0.33411673  1
  Ni  Ni18  1  0.66694451  0.00103885  1.00024740  1
  Ni  Ni19  1  0.83419387  0.16737656  0.16728401  1
  Ni  Ni20  1  0.66725389  0.00077478  0.33407555  1
  Ni  Ni21  1  0.66588554  0.33297368  0.00169655  1
  Ni  Ni22  1  0.83306392  0.49950204  0.16733884  1
  Ni  Ni23  1  0.66656654  0.33365361  0.33385741  1
  Ni  Ni24  1  0.66613817  0.66804737  0.00168333  1
  Ni  Ni25  1  0.83288731  0.83501716  0.16554822  1
  Ni  Ni26  1  0.66552423  0.66744108  0.33408257  1
  Ni  Ni27  1  0.16752611  0.16853078  0.50000389  1
  Cr  Cr28  1  0.00100710  0.00197736  0.66751891  1
  Ni  Ni29  1  0.16751016  0.16790649  0.83443370  1
  Ni  Ni30  1  0.16995423  0.49867919  0.50133294  1
  Ni  Ni31  1  0.00167888  0.33310886  0.66610488  1
  Ni  Ni32  1  0.16934797  0.50016976  0.83470235  1
  Ni  Ni33  1  0.17016874  0.83462409  0.49964930  1
  Cr  Cr34  1  0.00214343  0.66705543  0.66618792  1
  Ni  Ni35  1  0.17042290  0.83390332  0.83564528  1
  Ni  Ni36  1  0.50126096  0.16732481  0.50110409  1
  Ni  Ni37  1  0.33591753  0.00097981  0.66695266  1
  Ni  Ni38  1  0.50124028  0.16680233  0.83353939  1
  Ni  Ni39  1  0.50004885  0.50106735  0.50110758  1
  Ni  Ni40  1  0.33443051  0.33388908  0.66783611  1
  Ni  Ni41  1  0.49939170  0.50143983  0.83390268  1
  Ni  Ni42  1  0.50096674  0.83347622  0.50076148  1
  Ni  Ni43  1  0.33567476  0.66704991  0.66730077  1
  Ni  Ni44  1  0.49986459  0.83375855  0.83329926  1
  Ni  Ni45  1  0.83314304  0.16763215  0.49995153  1
  Ni  Ni46  1  0.66536861  0.00102183  0.66753990  1
  Ni  Ni47  1  0.83316213  0.16727923  0.83475455  1
  Fe  Fe48  1  0.83178593  0.49863698  0.50015646  1
  Ni  Ni49  1  0.66569434  0.33283123  0.66635559  1
  Cr  Cr50  1  0.83292567  0.49868313  0.83438797  1
  Ni  Ni51  1  0.83070512  0.83599323  0.50057331  1
  Ni  Ni52  1  0.66423258  0.66807725  0.66608639  1
  Fe  Fe53  1  0.83195972  0.83529938  0.83570873  1
" 