2731,Ni89Fe4Cr6_1,-237.692346845641, 175.831520042661,Ni89Fe4Cr6,"# generated using pymatgen
 data_Cr2FeNi24
_symmetry_space_group_name_H-M   'P 1'
_cell_length_a   7.45819493
_cell_length_b   7.45819493
_cell_length_c   10.54748041
_cell_angle_alpha   90.00000000
_cell_angle_beta   90.00000000
_cell_angle_gamma   90.00000000
_symmetry_Int_Tables_number   1
_chemical_formula_structural   Cr2FeNi24
_chemical_formula_sum   'Cr4 Fe2 Ni48'
_cell_volume   586.70013359
_cell_formula_units_Z   2
loop_
 _symmetry_equiv_pos_site_id
 _symmetry_equiv_pos_as_xyz
  1  'x, y, z'
loop_
 _atom_site_type_symbol
 _atom_site_label
 _atom_site_symmetry_multiplicity
 _atom_site_fract_x
 _atom_site_fract_y
 _atom_site_fract_z
 _atom_site_occupancy
  Ni  Ni0  1  0.99941081  0.00171058  0.00144073  1
  Ni  Ni1  1  0.16565796  0.16812140  0.16590783  1
  Ni  Ni2  1  0.99795367  0.99942985  0.33301741  1
  Ni  Ni3  1  0.00137141  0.33294285  0.00119354  1
  Ni  Ni4  1  0.16761563  0.49982296  0.16752790  1
  Ni  Ni5  1  0.99970418  0.33527858  0.33302982  1
  Ni  Ni6  1  0.00074214  0.66712595  0.00276137  1
  Ni  Ni7  1  0.16666534  0.83381822  0.16706191  1
  Ni  Ni8  1  1.00049298  0.66708520  0.33377423  1
  Ni  Ni9  1  0.33491098  0.00142084  0.00133514  1
  Fe  Fe10  1  0.50180718  0.16823102  0.16657853  1
  Cr  Cr11  1  0.33486734  0.99892088  0.33260792  1
  Ni  Ni12  1  0.33380882  0.33420095  1.00043857  1
  Ni  Ni13  1  0.50109287  0.50115444  0.16752777  1
  Ni  Ni14  1  0.33466879  0.33671652  0.33296282  1
  Ni  Ni15  1  0.33482287  0.66621498  0.00147187  1
  Ni  Ni16  1  0.50186532  0.83231110  0.16645935  1
  Ni  Ni17  1  0.33387293  0.66547305  0.33442153  1
  Ni  Ni18  1  0.66756410  0.00068455  1.00041181  1
  Ni  Ni19  1  0.83463691  0.16734826  0.16811868  1
  Ni  Ni20  1  0.66907868  1.00031905  0.33414384  1
  Ni  Ni21  1  0.66661120  0.33284889  0.00148848  1
  Ni  Ni22  1  0.83308765  0.50014904  0.16735701  1
  Ni  Ni23  1  0.66743750  0.33421426  0.33410141  1
  Ni  Ni24  1  0.66620564  0.66826355  0.00127173  1
  Ni  Ni25  1  0.83321772  0.83430171  0.16694816  1
  Ni  Ni26  1  0.66740114  0.66730516  0.33385283  1
  Cr  Cr27  1  0.16715315  0.16792918  0.50171875  1
  Ni  Ni28  1  0.99847415  1.00037241  0.66725493  1
  Ni  Ni29  1  0.16738494  0.16859296  0.83411923  1
  Ni  Ni30  1  0.16701000  0.50139934  0.50053503  1
  Ni  Ni31  1  1.00051585  0.33434463  0.66753423  1
  Ni  Ni32  1  0.16901750  0.49836711  0.83369977  1
  Ni  Ni33  1  0.16604984  0.83222104  0.50096878  1
  Ni  Ni34  1  1.00050257  0.66704598  0.66533814  1
  Cr  Cr35  1  0.16720766  0.83420011  0.83373058  1
  Ni  Ni36  1  0.50245860  0.16826470  0.50073234  1
  Ni  Ni37  1  0.33598934  0.00066231  0.66755321  1
  Ni  Ni38  1  0.50051433  0.16726954  0.83441784  1
  Ni  Ni39  1  0.50138794  0.50018588  0.50064659  1
  Ni  Ni40  1  0.33494888  0.33493817  0.66838534  1
  Ni  Ni41  1  0.49944880  0.50044174  0.83359572  1
  Ni  Ni42  1  0.50215598  0.83337724  0.50167457  1
  Ni  Ni43  1  0.33479686  0.66612809  0.66587602  1
  Ni  Ni44  1  0.50240099  0.83408463  0.83359882  1
  Fe  Fe45  1  0.83235543  0.16747304  0.50042975  1
  Ni  Ni46  1  0.66715039  0.00065659  0.66723094  1
  Ni  Ni47  1  0.83386479  0.16587069  0.83299776  1
  Ni  Ni48  1  0.83333396  0.50116772  0.50009678  1
  Ni  Ni49  1  0.66626922  0.33296958  0.66622762  1
  Cr  Cr50  1  0.83325892  0.50135919  0.83489465  1
  Ni  Ni51  1  0.83349179  0.83329372  0.50053717  1
  Ni  Ni52  1  0.66647962  0.66814782  0.66671076  1
  Ni  Ni53  1  0.83185504  0.83587107  0.83433080  1
" 