2412,Ni89Fe7Cr3_19,-238.839260232867, 181.00027768467,Ni89Fe7Cr3,"# generated using pymatgen
 data_CrFeNi16
_symmetry_space_group_name_H-M   'P 1'
_cell_length_a   7.45489346
_cell_length_b   7.45489346
_cell_length_c   10.54281144
_cell_angle_alpha   90.00000000
_cell_angle_beta   90.00000000
_cell_angle_gamma   90.00000000
_symmetry_Int_Tables_number   1
_chemical_formula_structural   CrFeNi16
_chemical_formula_sum   'Cr3 Fe3 Ni48'
_cell_volume   585.92134743
_cell_formula_units_Z   3
loop_
 _symmetry_equiv_pos_site_id
 _symmetry_equiv_pos_as_xyz
  1  'x, y, z'
loop_
 _atom_site_type_symbol
 _atom_site_label
 _atom_site_symmetry_multiplicity
 _atom_site_fract_x
 _atom_site_fract_y
 _atom_site_fract_z
 _atom_site_occupancy
  Ni  Ni0  1  0.00195079  1.00011974  0.99958626  1
  Ni  Ni1  1  0.16904451  0.16880159  0.16748185  1
  Ni  Ni2  1  0.00195079  1.00011974  0.33537744  1
  Ni  Ni3  1  0.00182285  0.33511936  0.99992706  1
  Ni  Ni4  1  0.16728209  0.49981201  0.16748185  1
  Ni  Ni5  1  0.00182285  0.33511936  0.33503663  1
  Ni  Ni6  1  0.00092738  0.66726308  0.99975861  1
  Fe  Fe7  1  0.16713270  0.83363731  0.16748185  1
  Ni  Ni8  1  0.00092738  0.66726308  0.33520508  1
  Ni  Ni9  1  0.33288144  0.00158754  0.00164046  1
  Ni  Ni10  1  0.49888200  0.16720816  0.16748185  1
  Ni  Ni11  1  0.33288144  0.00158754  0.33332323  1
  Ni  Ni12  1  0.33401206  0.33435885  0.99968569  1
  Ni  Ni13  1  0.49990093  0.50116810  0.16748185  1
  Ni  Ni14  1  0.33401206  0.33435885  0.33527800  1
  Ni  Ni15  1  0.33319325  0.66642152  0.00177338  1
  Ni  Ni16  1  0.50145608  0.83409653  0.16748185  1
  Ni  Ni17  1  0.33319325  0.66642152  0.33319031  1
  Ni  Ni18  1  0.66761441  0.00098301  1.00019913  1
  Cr  Cr19  1  0.83560904  0.16838668  0.16748185  1
  Ni  Ni20  1  0.66761441  0.00098301  0.33476456  1
  Ni  Ni21  1  0.66665783  0.33545367  0.99985772  1
  Ni  Ni22  1  0.83524039  0.50299264  0.16748185  1
  Ni  Ni23  1  0.66665783  0.33545367  0.33510597  1
  Ni  Ni24  1  0.66820982  0.66615336  0.00151659  1
  Ni  Ni25  1  0.83351675  0.83285694  0.16748185  1
  Ni  Ni26  1  0.66820982  0.66615336  0.33344710  1
  Ni  Ni27  1  0.16701437  0.16784034  0.50046844  1
  Ni  Ni28  1  0.00158849  0.00205194  0.66748185  1
  Ni  Ni29  1  0.16701437  0.16784034  0.83449526  1
  Ni  Ni30  1  0.16724532  0.50051886  0.50121359  1
  Ni  Ni31  1  1.00014690  0.33365952  0.66748185  1
  Ni  Ni32  1  0.16724532  0.50051886  0.83375010  1
  Ni  Ni33  1  0.16626366  0.83393953  0.50039469  1
  Fe  Fe34  1  0.99986697  0.66801657  0.66748185  1
  Ni  Ni35  1  0.16626366  0.83393953  0.83456901  1
  Ni  Ni36  1  0.50073978  0.16849389  0.50075255  1
  Ni  Ni37  1  0.33145931  0.00111718  0.66748185  1
  Ni  Ni38  1  0.50073978  0.16849389  0.83421114  1
  Ni  Ni39  1  0.50038558  0.49973298  0.50080896  1
  Fe  Fe40  1  0.33475594  0.33306038  0.66748185  1
  Ni  Ni41  1  0.50038558  0.49973298  0.83415473  1
  Cr  Cr42  1  0.50091203  0.83381230  0.50094804  1
  Ni  Ni43  1  0.33228813  0.66595221  0.66748185  1
  Cr  Cr44  1  0.50091203  0.83381230  0.83401565  1
  Ni  Ni45  1  0.83479075  0.16771279  0.50034811  1
  Ni  Ni46  1  0.66949281  0.00299939  0.66748185  1
  Ni  Ni47  1  0.83479075  0.16771279  0.83461559  1
  Ni  Ni48  1  0.83467340  0.50055355  0.50008994  1
  Ni  Ni49  1  0.66888606  0.33476637  0.66748185  1
  Ni  Ni50  1  0.83467340  0.50055355  0.83487375  1
  Ni  Ni51  1  0.83542933  0.83430569  0.50116491  1
  Ni  Ni52  1  0.66802247  0.66469605  0.66748185  1
  Ni  Ni53  1  0.83542933  0.83430569  0.83379878  1
" 