1432,Ni89Fe8Cr1_2,-239.920487271316, 186.353102192094,Ni89Fe8Cr1,"# generated using pymatgen
 data_Cr(FeNi12)2
_symmetry_space_group_name_H-M   'P 1'
_cell_length_a   7.44839416
_cell_length_b   7.44839416
_cell_length_c   10.53362004
_cell_angle_alpha   90.00000000
_cell_angle_beta   90.00000000
_cell_angle_gamma   90.00000000
_symmetry_Int_Tables_number   1
_chemical_formula_structural   Cr(FeNi12)2
_chemical_formula_sum   'Cr2 Fe4 Ni48'
_cell_volume   584.39023589
_cell_formula_units_Z   2
loop_
 _symmetry_equiv_pos_site_id
 _symmetry_equiv_pos_as_xyz
  1  'x, y, z'
loop_
 _atom_site_type_symbol
 _atom_site_label
 _atom_site_symmetry_multiplicity
 _atom_site_fract_x
 _atom_site_fract_y
 _atom_site_fract_z
 _atom_site_occupancy
  Ni  Ni0  1  0.00186318  0.00148397  0.00151147  1
  Ni  Ni1  1  0.16778336  0.16797664  0.16852657  1
  Ni  Ni2  1  0.00182265  0.00154922  0.33468346  1
  Ni  Ni3  1  1.00098671  0.33412353  1.00092152  1
  Ni  Ni4  1  0.16772011  0.50138452  0.16706649  1
  Ni  Ni5  1  1.00024398  0.33450698  0.33489540  1
  Ni  Ni6  1  1.00119827  0.66817948  1.00109882  1
  Ni  Ni7  1  0.16773499  0.83445322  0.16783574  1
  Ni  Ni8  1  0.00182101  0.66765494  0.33497374  1
  Ni  Ni9  1  0.33439937  1.00098777  0.00143130  1
  Ni  Ni10  1  0.50135437  0.16804656  0.16744700  1
  Ni  Ni11  1  0.33470611  1.00015125  0.33444621  1
  Ni  Ni12  1  0.33478144  0.33412263  1.00120998  1
  Ni  Ni13  1  0.50113748  0.50103502  0.16816274  1
  Fe  Fe14  1  0.33465996  0.33502716  0.33415877  1
  Ni  Ni15  1  0.33506833  0.66869408  1.00101224  1
  Ni  Ni16  1  0.50106295  0.83472246  0.16782853  1
  Ni  Ni17  1  0.33473525  0.66922521  0.33473344  1
  Ni  Ni18  1  0.66748392  1.00119174  1.00045134  1
  Ni  Ni19  1  0.83463014  0.16799309  0.16746875  1
  Ni  Ni20  1  0.66725600  0.00156780  0.33530193  1
  Ni  Ni21  1  0.66802746  0.33475736  0.00132815  1
  Ni  Ni22  1  0.83489950  0.50104760  0.16819528  1
  Ni  Ni23  1  0.66869763  0.33453816  0.33443947  1
  Ni  Ni24  1  0.66753292  0.66777180  0.00153666  1
  Ni  Ni25  1  0.83495943  0.83472204  0.16817706  1
  Ni  Ni26  1  0.66721153  0.66759442  0.33495508  1
  Fe  Fe27  1  0.16868840  0.16663430  0.50056802  1
  Ni  Ni28  1  0.00240433  0.99976442  0.66759829  1
  Ni  Ni29  1  0.16906488  0.16631169  0.83470005  1
  Ni  Ni30  1  0.16895015  0.50293725  0.50145255  1
  Cr  Cr31  1  0.00161517  0.33431004  0.66832717  1
  Fe  Fe32  1  0.16902801  0.50226802  0.83530370  1
  Ni  Ni33  1  0.16783031  0.83376339  0.50129325  1
  Ni  Ni34  1  1.00108138  0.66993792  0.66766501  1
  Ni  Ni35  1  0.16770828  0.83530117  0.83463699  1
  Ni  Ni36  1  0.50062937  0.16736139  0.50077671  1
  Ni  Ni37  1  0.33392822  1.00076347  0.66793417  1
  Ni  Ni38  1  0.49950755  0.16771171  0.83540600  1
  Ni  Ni39  1  0.49973867  0.50152291  0.50035507  1
  Ni  Ni40  1  0.33520540  0.33401449  0.66724617  1
  Ni  Ni41  1  0.50056782  0.50174254  0.83509058  1
  Ni  Ni42  1  0.50050926  0.83478203  0.50176375  1
  Ni  Ni43  1  0.33518980  0.66885934  0.66805053  1
  Ni  Ni44  1  0.50058875  0.83420688  0.83420816  1
  Ni  Ni45  1  0.83408820  0.16603863  0.49978255  1
  Fe  Fe46  1  0.66757270  0.99958051  0.66812201  1
  Ni  Ni47  1  0.83524460  0.16621519  0.83662513  1
  Ni  Ni48  1  0.83511106  0.50276989  0.49937730  1
  Cr  Cr49  1  0.66710785  0.33542749  0.66829663  1
  Ni  Ni50  1  0.83402658  0.50328154  0.83635419  1
  Ni  Ni51  1  0.83543829  0.83479507  0.50164423  1
  Ni  Ni52  1  0.66753358  0.66863451  0.66727146  1
  Ni  Ni53  1  0.83548106  0.83417322  0.83397085  1
" 