5535,Ni89Fe11_7,-228.25498881987, 154.507424233167,Ni89Fe11,"# generated using pymatgen
 data_Fe8Ni
_symmetry_space_group_name_H-M   'P 1'
_cell_length_a   7.40524590
_cell_length_b   7.40524590
_cell_length_c   10.47259918
_cell_angle_alpha   90.00000000
_cell_angle_beta   90.00000000
_cell_angle_gamma   90.00000000
_symmetry_Int_Tables_number   1
_chemical_formula_structural   Fe8Ni
_chemical_formula_sum   'Fe48 Ni6'
_cell_volume   574.29290442
_cell_formula_units_Z   6
loop_
 _symmetry_equiv_pos_site_id
 _symmetry_equiv_pos_as_xyz
  1  'x, y, z'
loop_
 _atom_site_type_symbol
 _atom_site_label
 _atom_site_symmetry_multiplicity
 _atom_site_fract_x
 _atom_site_fract_y
 _atom_site_fract_z
 _atom_site_occupancy
  Fe  Fe0  1  0.00488889  1.00306830  1.00398575  1
  Fe  Fe1  1  0.17030702  0.17146196  0.17156065  1
  Fe  Fe2  1  0.00426709  1.00369144  0.33827588  1
  Fe  Fe3  1  0.00451086  0.33889763  0.00436782  1
  Fe  Fe4  1  0.16996621  0.50513591  0.17046030  1
  Fe  Fe5  1  0.00426664  0.33798798  0.33750482  1
  Ni  Ni6  1  0.00495224  0.67071885  1.00369266  1
  Fe  Fe7  1  0.17001425  0.83592228  0.17036624  1
  Ni  Ni8  1  1.00414923  0.67083923  0.33810439  1
  Fe  Fe9  1  0.33687873  1.00297777  0.00417865  1
  Fe  Fe10  1  0.50498452  0.17146250  0.17084039  1
  Fe  Fe11  1  0.33659186  1.00402192  0.33778855  1
  Fe  Fe12  1  0.33687899  0.33860743  1.00407987  1
  Fe  Fe13  1  0.50445545  0.50427582  0.17055282  1
  Fe  Fe14  1  0.33659433  0.33765940  0.33798376  1
  Ni  Ni15  1  0.33649612  0.67072869  0.00439014  1
  Fe  Fe16  1  0.50441387  0.83678035  0.17045824  1
  Fe  Fe17  1  0.33712103  0.67083958  0.33687950  1
  Fe  Fe18  1  0.67075076  1.00291951  1.00407988  1
  Fe  Fe19  1  0.83722742  0.17150859  0.17064743  1
  Fe  Fe20  1  0.67165890  1.00316574  0.33779274  1
  Fe  Fe21  1  0.67112642  0.33904376  0.00446011  1
  Ni  Ni22  1  0.83742562  0.50497427  0.17050542  1
  Fe  Fe23  1  0.67165898  0.33851361  0.33702891  1
  Fe  Fe24  1  0.67103641  0.67055601  0.00436509  1
  Fe  Fe25  1  0.83809254  0.83644508  0.17155735  1
  Fe  Fe26  1  0.67198857  0.67083693  0.33769554  1
  Ni  Ni27  1  0.17165970  0.17110501  0.50439692  1
  Fe  Fe28  1  0.00417315  0.00435587  0.67025706  1
  Fe  Fe29  1  0.17083802  0.17083944  0.83669250  1
  Fe  Fe30  1  0.17002390  0.50451400  0.50398237  1
  Fe  Fe31  1  0.00455360  0.33703439  0.67064523  1
  Fe  Fe32  1  0.17093129  0.50484289  0.83807743  1
  Fe  Fe33  1  0.16997188  0.83779420  0.50388774  1
  Fe  Fe34  1  1.00369475  0.67112666  0.67055134  1
  Fe  Fe35  1  0.17093170  0.83683616  0.83826603  1
  Fe  Fe36  1  0.50423115  0.17021603  0.50416683  1
  Fe  Fe37  1  0.33721584  0.00464362  0.67055248  1
  Fe  Fe38  1  0.50436155  0.17083942  0.83751132  1
  Fe  Fe39  1  0.50407764  0.50408158  0.50436004  1
  Fe  Fe40  1  0.33721808  0.33712936  0.67045582  1
  Fe  Fe41  1  0.50378963  0.50436932  0.83760727  1
  Fe  Fe42  1  0.50411775  0.83822067  0.50426569  1
  Fe  Fe43  1  0.33778523  0.67074765  0.67165294  1
  Fe  Fe44  1  0.50378947  0.83730937  0.83779635  1
  Fe  Fe45  1  0.83799401  0.17016499  0.50435987  1
  Fe  Fe46  1  0.67112996  1.00378612  0.67064469  1
  Fe  Fe47  1  0.83731917  0.17083931  0.83751108  1
  Fe  Fe48  1  0.83841828  0.50440468  0.50326190  1
  Fe  Fe49  1  0.67075070  0.33760536  0.67102773  1
  Fe  Fe50  1  0.83779651  0.50427516  0.83841772  1
  Ni  Ni51  1  0.83702423  0.83668521  0.50394765  1
  Fe  Fe52  1  0.67103510  0.67112342  0.67045519  1
  Fe  Fe53  1  0.83779776  0.83740259  0.83697888  1
" 