1575,Ni89Fe4Cr6_12,-237.803144188512, 177.125891879083,Ni89Fe4Cr6,"# generated using pymatgen
 data_Cr2FeNi24
_symmetry_space_group_name_H-M   'P 1'
_cell_length_a   7.45842882
_cell_length_b   7.45842882
_cell_length_c   10.54781119
_cell_angle_alpha   90.00000000
_cell_angle_beta   90.00000000
_cell_angle_gamma   90.00000000
_symmetry_Int_Tables_number   1
_chemical_formula_structural   Cr2FeNi24
_chemical_formula_sum   'Cr4 Fe2 Ni48'
_cell_volume   586.75533252
_cell_formula_units_Z   2
loop_
 _symmetry_equiv_pos_site_id
 _symmetry_equiv_pos_as_xyz
  1  'x, y, z'
loop_
 _atom_site_type_symbol
 _atom_site_label
 _atom_site_symmetry_multiplicity
 _atom_site_fract_x
 _atom_site_fract_y
 _atom_site_fract_z
 _atom_site_occupancy
  Ni  Ni0  1  0.00135587  0.00118838  0.00069950  1
  Ni  Ni1  1  0.16726615  0.16567067  0.16710625  1
  Ni  Ni2  1  0.00183870  0.00100632  0.33344072  1
  Ni  Ni3  1  1.00031507  0.33244701  0.99999026  1
  Cr  Cr4  1  0.16614877  0.49974547  0.16654042  1
  Ni  Ni5  1  0.99901791  0.33208158  0.33454395  1
  Ni  Ni6  1  1.00009803  0.66807722  0.99992389  1
  Ni  Ni7  1  0.16632460  0.83608689  0.16637871  1
  Ni  Ni8  1  0.99780338  0.66862600  0.33485358  1
  Ni  Ni9  1  0.33344724  0.99979313  0.00097485  1
  Ni  Ni10  1  0.49998387  0.16604305  0.16825839  1
  Ni  Ni11  1  0.33292967  0.00222029  0.33382308  1
  Fe  Fe12  1  0.33336925  0.33276723  0.99974658  1
  Ni  Ni13  1  0.50192857  0.50055343  0.16713661  1
  Ni  Ni14  1  0.33521648  0.33099609  0.33384952  1
  Ni  Ni15  1  0.33488725  0.66950515  0.99958121  1
  Ni  Ni16  1  0.50163621  0.83497944  0.16639217  1
  Cr  Cr17  1  0.33460515  0.66955570  0.33592784  1
  Ni  Ni18  1  0.66685087  0.99967074  0.00092381  1
  Ni  Ni19  1  0.83452568  0.16616336  0.16818042  1
  Fe  Fe20  1  0.66770132  0.00080651  0.33400252  1
  Cr  Cr21  1  0.66853433  0.33364657  0.99964469  1
  Ni  Ni22  1  0.83331033  0.50138896  0.16820410  1
  Ni  Ni23  1  0.66749359  0.33447065  0.33415168  1
  Ni  Ni24  1  0.66668637  0.66805357  0.00100029  1
  Ni  Ni25  1  0.83378453  0.83406121  0.16694565  1
  Ni  Ni26  1  0.66841471  0.66609835  0.33306982  1
  Ni  Ni27  1  0.16746107  0.16747367  0.50027694  1
  Ni  Ni28  1  0.00111784  0.00102257  0.66760336  1
  Ni  Ni29  1  0.16717388  0.16737249  0.83425417  1
  Ni  Ni30  1  0.16632919  0.49940453  0.50160671  1
  Ni  Ni31  1  1.00024065  0.33326683  0.66720266  1
  Ni  Ni32  1  0.16698796  0.50064572  0.83368076  1
  Ni  Ni33  1  0.16605377  0.83492836  0.50168017  1
  Ni  Ni34  1  0.00221658  0.66748623  0.66693940  1
  Ni  Ni35  1  0.16715255  0.83372796  0.83380858  1
  Ni  Ni36  1  0.50044235  0.16723927  0.50067568  1
  Ni  Ni37  1  0.33343476  1.00052583  0.66690237  1
  Ni  Ni38  1  0.49992250  0.16580036  0.83261868  1
  Ni  Ni39  1  0.50039151  0.49870154  0.50051068  1
  Ni  Ni40  1  0.33402130  0.33342709  0.66761925  1
  Ni  Ni41  1  0.49858062  0.50061556  0.83404665  1
  Ni  Ni42  1  0.50099177  0.83590808  0.50079018  1
  Ni  Ni43  1  0.33260663  0.66772662  0.66691901  1
  Ni  Ni44  1  0.50008223  0.83515120  0.83477915  1
  Ni  Ni45  1  0.83391268  0.16702105  0.50092349  1
  Ni  Ni46  1  0.66720332  0.00243347  0.66716712  1
  Ni  Ni47  1  0.83455871  0.16591704  0.83257347  1
  Ni  Ni48  1  0.83496505  0.49996419  0.49939445  1
  Ni  Ni49  1  0.66743690  0.33239173  0.66721670  1
  Ni  Ni50  1  0.83601995  0.50070299  0.83398947  1
  Ni  Ni51  1  0.83472113  0.83480191  0.49969337  1
  Cr  Cr52  1  0.66718308  0.66672599  0.66784689  1
  Ni  Ni53  1  0.83451870  0.83511532  0.83519075  1
" 