4541,Ni89Fe7Cr3_2,-238.761727621575, 181.036679853711,Ni89Fe7Cr3,"# generated using pymatgen
 data_CrFeNi16
_symmetry_space_group_name_H-M   'P 1'
_cell_length_a   7.45273767
_cell_length_b   7.45273767
_cell_length_c   10.53976268
_cell_angle_alpha   90.00000000
_cell_angle_beta   90.00000000
_cell_angle_gamma   90.00000000
_symmetry_Int_Tables_number   1
_chemical_formula_structural   CrFeNi16
_chemical_formula_sum   'Cr3 Fe3 Ni48'
_cell_volume   585.41318727
_cell_formula_units_Z   3
loop_
 _symmetry_equiv_pos_site_id
 _symmetry_equiv_pos_as_xyz
  1  'x, y, z'
loop_
 _atom_site_type_symbol
 _atom_site_label
 _atom_site_symmetry_multiplicity
 _atom_site_fract_x
 _atom_site_fract_y
 _atom_site_fract_z
 _atom_site_occupancy
  Ni  Ni0  1  0.00182295  1.00052947  0.00114570  1
  Ni  Ni1  1  0.16802278  0.16773099  0.16727099  1
  Ni  Ni2  1  0.00315675  0.99941428  0.33367378  1
  Ni  Ni3  1  0.00279195  0.33457739  1.00086069  1
  Ni  Ni4  1  0.16814090  0.50099183  0.16707375  1
  Ni  Ni5  1  0.00251115  0.33585011  0.33326238  1
  Ni  Ni6  1  0.00135123  0.66777885  1.00079252  1
  Ni  Ni7  1  0.16755844  0.83413072  0.16763965  1
  Ni  Ni8  1  1.00076368  0.66767121  0.33477261  1
  Ni  Ni9  1  0.33378419  1.00079078  0.00106839  1
  Ni  Ni10  1  0.49977371  0.16683089  0.16865384  1
  Ni  Ni11  1  0.33403403  0.00114070  0.33439326  1
  Ni  Ni12  1  0.33300035  0.33410982  1.00012868  1
  Ni  Ni13  1  0.49959152  0.50196969  0.16851883  1
  Ni  Ni14  1  0.33404441  0.33348213  0.33514387  1
  Ni  Ni15  1  0.33377464  0.66797134  0.00181755  1
  Ni  Ni16  1  0.50114247  0.83414056  0.16669624  1
  Fe  Fe17  1  0.33392812  0.66815256  0.33423037  1
  Ni  Ni18  1  0.66709933  0.99940687  1.00072058  1
  Ni  Ni19  1  0.83517971  0.16610314  0.16844478  1
  Ni  Ni20  1  0.66566156  0.99937785  0.33361882  1
  Cr  Cr21  1  0.66811493  0.33449370  0.00198034  1
  Ni  Ni22  1  0.83512827  0.50247683  0.16835227  1
  Ni  Ni23  1  0.66629539  0.33582111  0.33328067  1
  Ni  Ni24  1  0.66758393  0.66882743  1.00034509  1
  Ni  Ni25  1  0.83419179  0.83429036  0.16763948  1
  Ni  Ni26  1  0.66799763  0.66763772  0.33475571  1
  Ni  Ni27  1  0.16934098  0.16757065  0.50158178  1
  Ni  Ni28  1  0.00295506  0.99989087  0.66799316  1
  Ni  Ni29  1  0.16799051  0.16712648  0.83406621  1
  Ni  Ni30  1  0.16789293  0.50121994  0.50143247  1
  Ni  Ni31  1  0.00301820  0.33547216  0.66868424  1
  Ni  Ni32  1  0.16842516  0.50184551  0.83436334  1
  Ni  Ni33  1  0.16765290  0.83419827  0.50075230  1
  Ni  Ni34  1  0.00171607  0.66751545  0.66737635  1
  Ni  Ni35  1  0.16701526  0.83394099  0.83448525  1
  Ni  Ni36  1  0.49862492  0.16665201  0.50016384  1
  Ni  Ni37  1  0.33375179  1.00009250  0.66745567  1
  Ni  Ni38  1  0.49916927  0.16634572  0.83414944  1
  Ni  Ni39  1  0.49986274  0.50221824  0.49996329  1
  Fe  Fe40  1  0.33310942  0.33460903  0.66764135  1
  Ni  Ni41  1  0.49879002  0.50256506  0.83442130  1
  Ni  Ni42  1  0.50101094  0.83417567  0.50169799  1
  Ni  Ni43  1  0.33378726  0.66878554  0.66687589  1
  Fe  Fe44  1  0.50006471  0.83390261  0.83445058  1
  Cr  Cr45  1  0.83524612  0.16588241  0.49934678  1
  Ni  Ni46  1  0.66584644  0.99883183  0.66842652  1
  Ni  Ni47  1  0.83569000  0.16504580  0.83459536  1
  Ni  Ni48  1  0.83499036  0.50357043  0.50040383  1
  Cr  Cr49  1  0.66760477  0.33551485  0.66795539  1
  Ni  Ni50  1  0.83568909  0.50343249  0.83425236  1
  Ni  Ni51  1  0.83419079  0.83271639  0.50147489  1
  Ni  Ni52  1  0.66714962  0.66861871  0.66777719  1
  Ni  Ni53  1  0.83481134  0.83440456  0.83377490  1
" 