6888,Ni89Fe9Cr1_4,-240.078578966897, 186.527244422522,Ni89Fe9Cr1,"# generated using pymatgen
 data_Cr(FeNi12)2
_symmetry_space_group_name_H-M   'P 1'
_cell_length_a   7.44773763
_cell_length_b   7.44773763
_cell_length_c   10.53269156
_cell_angle_alpha   90.00000000
_cell_angle_beta   90.00000000
_cell_angle_gamma   90.00000000
_symmetry_Int_Tables_number   1
_chemical_formula_structural   Cr(FeNi12)2
_chemical_formula_sum   'Cr2 Fe4 Ni48'
_cell_volume   584.23571745
_cell_formula_units_Z   2
loop_
 _symmetry_equiv_pos_site_id
 _symmetry_equiv_pos_as_xyz
  1  'x, y, z'
loop_
 _atom_site_type_symbol
 _atom_site_label
 _atom_site_symmetry_multiplicity
 _atom_site_fract_x
 _atom_site_fract_y
 _atom_site_fract_z
 _atom_site_occupancy
  Ni  Ni0  1  1.00055244  0.00253537  0.00180533  1
  Ni  Ni1  1  0.16899937  0.16840370  0.16655354  1
  Cr  Cr2  1  0.00264410  0.00161981  0.33513980  1
  Ni  Ni3  1  1.00094442  0.33432915  0.00166864  1
  Fe  Fe4  1  0.16791286  0.50146637  0.16793822  1
  Ni  Ni5  1  0.99974712  0.33525741  0.33454690  1
  Ni  Ni6  1  1.00032177  0.66700338  0.00307755  1
  Ni  Ni7  1  0.16906701  0.83422557  0.16672733  1
  Ni  Ni8  1  1.00117182  0.66661857  0.33452994  1
  Ni  Ni9  1  0.33556992  0.00215033  0.00218981  1
  Ni  Ni10  1  0.50093625  0.16863387  0.16874934  1
  Ni  Ni11  1  0.33553644  1.00095265  0.33473382  1
  Ni  Ni12  1  0.33512879  0.33436906  0.00209410  1
  Ni  Ni13  1  0.50240125  0.50114509  0.16721686  1
  Fe  Fe14  1  0.33433766  0.33574566  0.33482273  1
  Ni  Ni15  1  0.33607852  0.66730639  0.00219322  1
  Ni  Ni16  1  0.50075483  0.83415581  0.16794500  1
  Ni  Ni17  1  0.33559684  0.66925608  0.33457921  1
  Ni  Ni18  1  0.66763555  0.00153712  0.00287809  1
  Ni  Ni19  1  0.83382562  0.17003595  0.16672481  1
  Fe  Fe20  1  0.66793121  1.00021506  0.33432827  1
  Ni  Ni21  1  0.66786545  0.33479858  1.00097515  1
  Ni  Ni22  1  0.83379755  0.50104601  0.16809197  1
  Ni  Ni23  1  0.66807258  0.33543631  0.33473503  1
  Ni  Ni24  1  0.66756011  0.66750270  1.00111668  1
  Ni  Ni25  1  0.83408934  0.83252330  0.16666668  1
  Ni  Ni26  1  0.66708003  0.66599777  0.33474082  1
  Ni  Ni27  1  0.16904178  0.16918592  0.50287969  1
  Ni  Ni28  1  1.00029473  0.00265814  0.66724590  1
  Ni  Ni29  1  0.16870588  0.17042265  0.83451775  1
  Ni  Ni30  1  0.16767682  0.50148093  0.50027848  1
  Ni  Ni31  1  1.00118838  0.33460436  0.66759877  1
  Ni  Ni32  1  0.16721563  0.49986128  0.83536073  1
  Ni  Ni33  1  0.16915268  0.83348038  0.50268743  1
  Ni  Ni34  1  1.00048418  0.66669699  0.66611308  1
  Cr  Cr35  1  0.16809677  0.83455966  0.83418325  1
  Ni  Ni36  1  0.50132128  0.16828332  0.50024042  1
  Ni  Ni37  1  0.33581941  0.00224468  0.66688081  1
  Ni  Ni38  1  0.50127051  0.16741131  0.83494966  1
  Ni  Ni39  1  0.50164305  0.50117114  0.50212302  1
  Ni  Ni40  1  0.33488525  0.33470296  0.66720413  1
  Fe  Fe41  1  0.50126278  0.50078318  0.83465400  1
  Ni  Ni42  1  0.50105980  0.83443373  0.50099509  1
  Ni  Ni43  1  0.33591558  0.66693712  0.66703200  1
  Ni  Ni44  1  0.50281600  0.83548299  0.83494350  1
  Ni  Ni45  1  0.83345239  0.16982730  0.50227612  1
  Ni  Ni46  1  0.66765029  0.00151816  0.66675975  1
  Ni  Ni47  1  0.83387240  0.16864043  0.83495209  1
  Ni  Ni48  1  0.83440883  0.50102897  0.50121270  1
  Ni  Ni49  1  0.66784511  0.33465440  0.66823178  1
  Ni  Ni50  1  0.83550805  0.50129126  0.83454303  1
  Ni  Ni51  1  0.83372894  0.83272678  0.50233995  1
  Ni  Ni52  1  0.66751741  0.66765690  0.66808595  1
  Ni  Ni53  1  0.83261094  0.83399174  0.83494582  1
" 