8642,Ni89Fe7Cr3_11,-238.752901360319, 180.091472775094,Ni89Fe7Cr3,"# generated using pymatgen
 data_CrFeNi16
_symmetry_space_group_name_H-M   'P 1'
_cell_length_a   7.45522249
_cell_length_b   7.45522249
_cell_length_c   10.54327676
_cell_angle_alpha   90.00000000
_cell_angle_beta   90.00000000
_cell_angle_gamma   90.00000000
_symmetry_Int_Tables_number   1
_chemical_formula_structural   CrFeNi16
_chemical_formula_sum   'Cr3 Fe3 Ni48'
_cell_volume   585.99893279
_cell_formula_units_Z   3
loop_
 _symmetry_equiv_pos_site_id
 _symmetry_equiv_pos_as_xyz
  1  'x, y, z'
loop_
 _atom_site_type_symbol
 _atom_site_label
 _atom_site_symmetry_multiplicity
 _atom_site_fract_x
 _atom_site_fract_y
 _atom_site_fract_z
 _atom_site_occupancy
  Ni  Ni0  1  1.00076969  1.00077417  0.00154146  1
  Ni  Ni1  1  0.16789273  0.16724783  0.16738734  1
  Ni  Ni2  1  0.00111752  0.00089710  0.33371662  1
  Ni  Ni3  1  0.00170448  0.33361812  1.00009061  1
  Ni  Ni4  1  0.16674422  0.50025570  0.16738830  1
  Ni  Ni5  1  0.00108294  0.33362109  0.33483360  1
  Ni  Ni6  1  0.00181537  0.66798734  1.00074829  1
  Ni  Ni7  1  0.16514073  0.83486987  0.16695761  1
  Ni  Ni8  1  0.00215892  0.66785997  0.33450516  1
  Ni  Ni9  1  0.33361924  0.00170257  1.00023230  1
  Ni  Ni10  1  0.49984750  0.16697987  0.16712525  1
  Ni  Ni11  1  0.33351036  0.00094685  0.33475978  1
  Ni  Ni12  1  0.33354003  0.33353913  0.00091736  1
  Cr  Cr13  1  0.49967386  0.49945553  0.16710814  1
  Fe  Fe14  1  0.33324494  0.33318951  0.33489292  1
  Ni  Ni15  1  0.33249086  0.66713596  0.99940691  1
  Cr  Cr16  1  0.50156590  0.83577406  0.16745746  1
  Ni  Ni17  1  0.33238180  0.66788895  0.33558685  1
  Ni  Ni18  1  0.66799163  0.00181664  1.00061091  1
  Fe  Fe19  1  0.83477637  0.16566227  0.16751066  1
  Ni  Ni20  1  0.66775371  0.00202673  0.33457663  1
  Ni  Ni21  1  0.66713335  0.33249199  0.99918236  1
  Cr  Cr22  1  0.83566273  0.50194228  0.16705889  1
  Ni  Ni23  1  0.66777628  0.33249578  0.33570047  1
  Ni  Ni24  1  0.66807243  0.66806881  0.99843210  1
  Ni  Ni25  1  0.83606907  0.83543139  0.16750024  1
  Ni  Ni26  1  0.66783785  0.66785502  0.33675182  1
  Ni  Ni27  1  0.16743621  0.16743622  0.50072788  1
  Ni  Ni28  1  0.00090556  0.00113417  0.66711937  1
  Ni  Ni29  1  0.16754876  0.16819610  0.83426696  1
  Ni  Ni30  1  0.16717497  0.50068716  0.50006283  1
  Ni  Ni31  1  1.00072882  0.33412624  0.66745802  1
  Ni  Ni32  1  0.16728556  0.49992567  0.83493232  1
  Ni  Ni33  1  0.16745116  0.83425400  0.50069290  1
  Ni  Ni34  1  0.00091973  0.66711844  0.66711895  1
  Fe  Fe35  1  0.16751436  0.83414392  0.83417203  1
  Ni  Ni36  1  0.50068756  0.16717456  0.50058703  1
  Ni  Ni37  1  0.33424045  0.00086563  0.66738240  1
  Ni  Ni38  1  0.50034057  0.16705043  0.83466938  1
  Ni  Ni39  1  0.50114710  0.50114731  0.50052127  1
  Ni  Ni40  1  0.33415824  0.33413587  0.66695706  1
  Ni  Ni41  1  0.50080212  0.50127275  0.83473489  1
  Ni  Ni42  1  0.50113396  0.83405574  0.50038819  1
  Ni  Ni43  1  0.33423596  0.66737683  0.66738151  1
  Ni  Ni44  1  0.50176086  0.83405672  0.83453417  1
  Ni  Ni45  1  0.83425415  0.16745117  0.50021562  1
  Ni  Ni46  1  0.66723361  0.00105699  0.66719521  1
  Ni  Ni47  1  0.83449091  0.16723915  0.83496853  1
  Ni  Ni48  1  0.83405581  0.50113325  0.50091201  1
  Ni  Ni49  1  0.66749150  0.33412117  0.66749941  1
  Ni  Ni50  1  0.83429179  0.50134611  0.83427234  1
  Ni  Ni51  1  0.83379374  0.83379255  0.50021133  1
  Ni  Ni52  1  0.66722393  0.66720110  0.66719532  1
  Ni  Ni53  1  0.83314424  0.83379229  0.83466916  1
" 