4011,Ni89Fe9Cr1_3,-239.89621570968, 186.612554151189,Ni89Fe9Cr1,"# generated using pymatgen
 data_Cr(FeNi12)2
_symmetry_space_group_name_H-M   'P 1'
_cell_length_a   7.44736942
_cell_length_b   7.44736942
_cell_length_c   10.53217083
_cell_angle_alpha   90.00000000
_cell_angle_beta   90.00000000
_cell_angle_gamma   90.00000000
_symmetry_Int_Tables_number   1
_chemical_formula_structural   Cr(FeNi12)2
_chemical_formula_sum   'Cr2 Fe4 Ni48'
_cell_volume   584.14906863
_cell_formula_units_Z   2
loop_
 _symmetry_equiv_pos_site_id
 _symmetry_equiv_pos_as_xyz
  1  'x, y, z'
loop_
 _atom_site_type_symbol
 _atom_site_label
 _atom_site_symmetry_multiplicity
 _atom_site_fract_x
 _atom_site_fract_y
 _atom_site_fract_z
 _atom_site_occupancy
  Ni  Ni0  1  0.00133868  1.00117777  0.00162961  1
  Ni  Ni1  1  0.16745657  0.16782069  0.16863035  1
  Ni  Ni2  1  1.00080029  1.00069763  0.33491337  1
  Ni  Ni3  1  0.00282470  0.33463857  1.00130151  1
  Ni  Ni4  1  0.16859744  0.50115984  0.16732225  1
  Ni  Ni5  1  1.00058898  0.33526869  0.33461859  1
  Ni  Ni6  1  0.00143959  0.66814116  0.00159452  1
  Ni  Ni7  1  0.16824898  0.83496099  0.16793034  1
  Ni  Ni8  1  0.00229408  0.66801482  0.33427636  1
  Ni  Ni9  1  0.33441895  1.00099909  0.00163242  1
  Fe  Fe10  1  0.50033053  0.16696597  0.16854700  1
  Ni  Ni11  1  0.33417470  0.99924695  0.33371584  1
  Ni  Ni12  1  0.33309331  0.33488399  0.00166838  1
  Ni  Ni13  1  0.49996613  0.50276519  0.16948291  1
  Ni  Ni14  1  0.33412527  0.33647416  0.33338543  1
  Ni  Ni15  1  0.33452663  0.66800259  1.00125728  1
  Ni  Ni16  1  0.50106342  0.83420854  0.16761199  1
  Ni  Ni17  1  0.33394043  0.66822587  0.33487900  1
  Ni  Ni18  1  0.66818442  0.99957337  1.00122746  1
  Ni  Ni19  1  0.83620477  0.16667908  0.16867777  1
  Ni  Ni20  1  0.66884757  1.00096652  0.33345984  1
  Cr  Cr21  1  0.66849414  0.33457398  1.00121824  1
  Ni  Ni22  1  0.83539248  0.50190543  0.16887917  1
  Ni  Ni23  1  0.66912196  0.33504085  0.33387650  1
  Ni  Ni24  1  0.66798125  0.66937735  0.00198514  1
  Ni  Ni25  1  0.83463262  0.83542433  0.16808316  1
  Fe  Fe26  1  0.66803501  0.66827468  0.33482879  1
  Fe  Fe27  1  0.16657284  0.16821699  0.50104183  1
  Ni  Ni28  1  1.00120561  1.00086451  0.66734086  1
  Ni  Ni29  1  0.16848310  0.16753564  0.83390218  1
  Ni  Ni30  1  0.16831175  0.50218584  0.50141724  1
  Ni  Ni31  1  1.00095884  0.33500394  0.66796864  1
  Ni  Ni32  1  0.16864318  0.50161763  0.83523695  1
  Ni  Ni33  1  0.16798065  0.83401964  0.50104314  1
  Ni  Ni34  1  0.00153451  0.66812478  0.66808448  1
  Ni  Ni35  1  0.16729868  0.83480953  0.83498916  1
  Cr  Cr36  1  0.50190945  0.16837825  0.50094175  1
  Ni  Ni37  1  0.33382198  0.99990293  0.66865123  1
  Ni  Ni38  1  0.50019896  0.16761320  0.83468430  1
  Ni  Ni39  1  0.50069253  0.50240606  0.50128956  1
  Ni  Ni40  1  0.33399137  0.33593741  0.66882190  1
  Ni  Ni41  1  0.50012488  0.50134887  0.83314711  1
  Ni  Ni42  1  0.50083824  0.83361941  0.50205918  1
  Ni  Ni43  1  0.33433770  0.66808150  0.66792151  1
  Fe  Fe44  1  0.50130856  0.83435170  0.83473760  1
  Ni  Ni45  1  0.83531652  0.16771324  0.50176913  1
  Ni  Ni46  1  0.66883245  1.00046164  0.66934290  1
  Ni  Ni47  1  0.83523597  0.16634255  0.83352046  1
  Ni  Ni48  1  0.83491072  0.50091393  0.50133342  1
  Ni  Ni49  1  0.66888959  0.33554143  0.66879619  1
  Ni  Ni50  1  0.83523468  0.50273931  0.83371414  1
  Ni  Ni51  1  0.83509153  0.83535075  0.50099230  1
  Ni  Ni52  1  0.66809279  0.66788773  0.66709365  1
  Ni  Ni53  1  0.83540216  0.83490565  0.83486806  1
" 