4926,Ni89Fe9Cr1_13,-240.00090168716, 187.543332023456,Ni89Fe9Cr1,"# generated using pymatgen
 data_Cr(FeNi12)2
_symmetry_space_group_name_H-M   'P 1'
_cell_length_a   7.44724790
_cell_length_b   7.44724790
_cell_length_c   10.53199898
_cell_angle_alpha   90.00000000
_cell_angle_beta   90.00000000
_cell_angle_gamma   90.00000000
_symmetry_Int_Tables_number   1
_chemical_formula_structural   Cr(FeNi12)2
_chemical_formula_sum   'Cr2 Fe4 Ni48'
_cell_volume   584.12047478
_cell_formula_units_Z   2
loop_
 _symmetry_equiv_pos_site_id
 _symmetry_equiv_pos_as_xyz
  1  'x, y, z'
loop_
 _atom_site_type_symbol
 _atom_site_label
 _atom_site_symmetry_multiplicity
 _atom_site_fract_x
 _atom_site_fract_y
 _atom_site_fract_z
 _atom_site_occupancy
  Ni  Ni0  1  0.00225432  0.00260214  0.00242196  1
  Ni  Ni1  1  0.16821434  0.16816300  0.16748644  1
  Fe  Fe2  1  1.00074655  1.00129030  0.33472309  1
  Ni  Ni3  1  1.00113517  0.33429134  0.00134044  1
  Ni  Ni4  1  0.16708195  0.50051117  0.16873183  1
  Ni  Ni5  1  0.00179652  0.33487968  0.33454267  1
  Ni  Ni6  1  1.00084722  0.66709262  0.00168344  1
  Ni  Ni7  1  0.16686847  0.83531889  0.16840111  1
  Ni  Ni8  1  0.00227573  0.66754844  0.33511132  1
  Ni  Ni9  1  0.33446579  0.00262341  1.00130885  1
  Ni  Ni10  1  0.50121809  0.16809216  0.16754941  1
  Fe  Fe11  1  0.33523499  1.00132069  0.33465426  1
  Ni  Ni12  1  0.33419647  0.33288010  1.00082491  1
  Ni  Ni13  1  0.50226821  0.50049395  0.16878494  1
  Ni  Ni14  1  0.33396467  0.33536376  0.33511226  1
  Cr  Cr15  1  0.33472535  0.66837607  0.00152467  1
  Ni  Ni16  1  0.50254995  0.83540497  0.16846526  1
  Ni  Ni17  1  0.33423559  0.66783577  0.33473458  1
  Ni  Ni18  1  0.66726646  0.00233604  0.00165233  1
  Ni  Ni19  1  0.83455570  0.16787389  0.16760255  1
  Ni  Ni20  1  0.66794912  1.00128227  0.33508170  1
  Ni  Ni21  1  0.66865603  0.33429049  0.00134090  1
  Ni  Ni22  1  0.83463974  0.50184475  0.16745922  1
  Ni  Ni23  1  0.66822603  0.33401395  0.33481273  1
  Ni  Ni24  1  0.66868346  0.66736162  0.00245807  1
  Ni  Ni25  1  0.83456737  0.83426710  0.16774097  1
  Ni  Ni26  1  0.66747844  0.66869177  0.33460678  1
  Ni  Ni27  1  0.16788318  0.16805007  0.50144561  1
  Ni  Ni28  1  0.00267027  0.00329762  0.66675184  1
  Ni  Ni29  1  0.16831584  0.16801506  0.83505334  1
  Ni  Ni30  1  0.16794744  0.50137828  0.50127099  1
  Ni  Ni31  1  1.00069489  0.33385010  0.66810397  1
  Ni  Ni32  1  0.16726709  0.50032805  0.83398482  1
  Ni  Ni33  1  0.16781558  0.83455781  0.50165417  1
  Fe  Fe34  1  0.00181735  0.66760865  0.66706733  1
  Ni  Ni35  1  0.16901674  0.83563982  0.83393519  1
  Ni  Ni36  1  0.50158003  0.16797566  0.50142900  1
  Ni  Ni37  1  0.33423445  0.99967303  0.66807310  1
  Ni  Ni38  1  0.50103887  0.16802310  0.83500992  1
  Ni  Ni39  1  0.50151170  0.50144736  0.50126649  1
  Fe  Fe40  1  0.33517130  0.33416475  0.66799853  1
  Ni  Ni41  1  0.50216604  0.50039557  0.83393692  1
  Ni  Ni42  1  0.50171053  0.83456178  0.50165054  1
  Ni  Ni43  1  0.33508419  0.66910970  0.66791108  1
  Ni  Ni44  1  0.50040148  0.83556058  0.83387393  1
  Ni  Ni45  1  0.83453131  0.16784651  0.50165040  1
  Ni  Ni46  1  0.66708429  0.00214788  0.66725555  1
  Ni  Ni47  1  0.83464035  0.16977844  0.83473275  1
  Ni  Ni48  1  0.83452972  0.50151518  0.50147385  1
  Ni  Ni49  1  0.66935876  0.33470850  0.66783426  1
  Ni  Ni50  1  0.83455405  0.49969292  0.83505501  1
  Ni  Ni51  1  0.83445458  0.83462797  0.50123685  1
  Ni  Ni52  1  0.66572284  0.66713153  0.66692154  1
  Cr  Cr53  1  0.83447925  0.83464760  0.83505017  1
" 