363,Ni89Fe11_3,-228.24581789884, 151.598592596056,Ni89Fe11,"# generated using pymatgen
 data_Fe8Ni
_symmetry_space_group_name_H-M   'P 1'
_cell_length_a   7.40722453
_cell_length_b   7.40722453
_cell_length_c   10.47539740
_cell_angle_alpha   90.00000000
_cell_angle_beta   90.00000000
_cell_angle_gamma   90.00000000
_symmetry_Int_Tables_number   1
_chemical_formula_structural   Fe8Ni
_chemical_formula_sum   'Fe48 Ni6'
_cell_volume   574.75337036
_cell_formula_units_Z   6
loop_
 _symmetry_equiv_pos_site_id
 _symmetry_equiv_pos_as_xyz
  1  'x, y, z'
loop_
 _atom_site_type_symbol
 _atom_site_label
 _atom_site_symmetry_multiplicity
 _atom_site_fract_x
 _atom_site_fract_y
 _atom_site_fract_z
 _atom_site_occupancy
  Fe  Fe0  1  1.00394057  0.00483093  0.00413593  1
  Fe  Fe1  1  0.16925953  0.17153806  0.17052291  1
  Fe  Fe2  1  1.00332861  0.00421995  0.33727291  1
  Ni  Ni3  1  1.00275399  0.33713035  1.00395780  1
  Fe  Fe4  1  0.16961046  0.50355405  0.17025767  1
  Fe  Fe5  1  1.00302720  0.33680378  0.33635860  1
  Fe  Fe6  1  1.00381774  0.66934278  0.00421895  1
  Fe  Fe7  1  0.16991697  0.83702371  0.17043806  1
  Fe  Fe8  1  1.00320496  0.67109127  0.33735913  1
  Fe  Fe9  1  0.33728749  0.00456588  1.00387239  1
  Fe  Fe10  1  0.50574837  0.17118801  0.17087325  1
  Fe  Fe11  1  0.33789931  0.00403981  0.33753607  1
  Fe  Fe12  1  0.33737261  0.33790410  1.00387009  1
  Fe  Fe13  1  0.50504695  0.50355512  0.17017066  1
  Fe  Fe14  1  0.33793891  0.33671984  0.33779247  1
  Ni  Ni15  1  0.33706914  0.67139163  1.00382626  1
  Fe  Fe16  1  0.50509059  0.83737185  0.17078683  1
  Fe  Fe17  1  0.33793912  0.67135514  0.33688268  1
  Fe  Fe18  1  0.67088613  0.00482857  0.00478868  1
  Ni  Ni19  1  0.83726217  0.17163757  0.17060150  1
  Ni  Ni20  1  0.67091256  0.00424670  0.33767243  1
  Ni  Ni21  1  0.67229278  0.33673100  0.00435635  1
  Ni  Ni22  1  0.83727610  0.50308435  0.17048136  1
  Fe  Fe23  1  0.67114867  0.33684331  0.33635831  1
  Fe  Fe24  1  0.67092229  0.66925748  0.00413403  1
  Fe  Fe25  1  0.83710614  0.83772351  0.17122291  1
  Fe  Fe26  1  0.67097034  0.67105180  0.33735915  1
  Fe  Fe27  1  0.17078634  0.17079028  0.50420613  1
  Fe  Fe28  1  0.00412151  1.00395542  0.67070591  1
  Fe  Fe29  1  0.17043916  0.17088781  0.83738460  1
  Fe  Fe30  1  0.17078811  0.50403788  0.50411906  1
  Fe  Fe31  1  0.00411957  0.33737149  0.67119001  1
  Fe  Fe32  1  0.17078778  0.50412049  0.83773572  1
  Fe  Fe33  1  0.17070507  0.83728631  0.50412129  1
  Fe  Fe34  1  1.00395159  0.67078750  0.67053639  1
  Fe  Fe35  1  0.17105064  0.83710765  0.83755431  1
  Fe  Fe36  1  0.50422078  0.17044233  0.50385782  1
  Fe  Fe37  1  0.33728729  0.00412346  0.67070598  1
  Fe  Fe38  1  0.50430552  0.17088633  0.83738490  1
  Fe  Fe39  1  0.50387105  0.50403790  0.50420611  1
  Fe  Fe40  1  0.33737232  0.33728663  0.67045191  1
  Fe  Fe41  1  0.50395535  0.50412000  0.83773721  1
  Fe  Fe42  1  0.50430212  0.83763433  0.50377290  1
  Fe  Fe43  1  0.33737222  0.67070454  0.67127450  1
  Fe  Fe44  1  0.50369320  0.83710883  0.83755485  1
  Fe  Fe45  1  0.83710784  0.17035970  0.50328966  1
  Fe  Fe46  1  0.67070569  1.00395552  0.67005279  1
  Fe  Fe47  1  0.83737033  0.17114576  0.83838472  1
  Fe  Fe48  1  0.83745534  0.50411922  0.50363744  1
  Fe  Fe49  1  0.67062263  0.33745638  0.67127468  1
  Fe  Fe50  1  0.83737130  0.50350912  0.83830034  1
  Fe  Fe51  1  0.83710735  0.83763607  0.50394238  1
  Fe  Fe52  1  0.67079061  0.67070247  0.67062125  1
  Fe  Fe53  1  0.83737007  0.83745650  0.83695025  1
" 