6457,Ni89Fe8Cr1_18,-239.861237045943, 186.220688664266,Ni89Fe8Cr1,"# generated using pymatgen
 data_Cr(FeNi12)2
_symmetry_space_group_name_H-M   'P 1'
_cell_length_a   7.44772139
_cell_length_b   7.44772139
_cell_length_c   10.53266860
_cell_angle_alpha   90.00000000
_cell_angle_beta   90.00000000
_cell_angle_gamma   90.00000000
_symmetry_Int_Tables_number   1
_chemical_formula_structural   Cr(FeNi12)2
_chemical_formula_sum   'Cr2 Fe4 Ni48'
_cell_volume   584.23189539
_cell_formula_units_Z   2
loop_
 _symmetry_equiv_pos_site_id
 _symmetry_equiv_pos_as_xyz
  1  'x, y, z'
loop_
 _atom_site_type_symbol
 _atom_site_label
 _atom_site_symmetry_multiplicity
 _atom_site_fract_x
 _atom_site_fract_y
 _atom_site_fract_z
 _atom_site_occupancy
  Ni  Ni0  1  1.00109434  1.00127886  1.00119954  1
  Ni  Ni1  1  0.16870802  0.16744318  0.16803037  1
  Ni  Ni2  1  1.00129670  1.00106837  0.33474420  1
  Ni  Ni3  1  0.00209911  0.33335476  0.00159305  1
  Ni  Ni4  1  0.16835362  0.50160739  0.16802755  1
  Ni  Ni5  1  0.00199090  0.33329845  0.33441800  1
  Ni  Ni6  1  0.00205346  0.66924344  0.00178381  1
  Ni  Ni7  1  0.16762021  0.83486352  0.16732098  1
  Ni  Ni8  1  0.00223989  0.66943693  0.33409471  1
  Ni  Ni9  1  0.33428366  0.00175292  1.00109877  1
  Ni  Ni10  1  0.50082770  0.16790489  0.16766848  1
  Ni  Ni11  1  0.33407125  0.00150103  0.33485316  1
  Ni  Ni12  1  0.33499614  0.33462359  1.00090864  1
  Ni  Ni13  1  0.50091538  0.50093644  0.16765973  1
  Ni  Ni14  1  0.33510859  0.33461651  0.33511415  1
  Ni  Ni15  1  0.33457837  0.66757078  1.00047047  1
  Fe  Fe16  1  0.50088574  0.83518381  0.16793045  1
  Ni  Ni17  1  0.33440809  0.66777874  0.33543809  1
  Ni  Ni18  1  0.66853674  0.00167578  1.00022619  1
  Ni  Ni19  1  0.83435039  0.16718048  0.16765831  1
  Ni  Ni20  1  0.66853170  0.00176009  0.33577972  1
  Ni  Ni21  1  0.66687974  0.33365324  0.00192853  1
  Ni  Ni22  1  0.83463152  0.50192985  0.16765474  1
  Ni  Ni23  1  0.66689015  0.33366375  0.33374928  1
  Ni  Ni24  1  0.66722739  0.66863209  0.00204475  1
  Ni  Ni25  1  0.83500434  0.83475611  0.16803050  1
  Ni  Ni26  1  0.66717163  0.66854086  0.33394010  1
  Ni  Ni27  1  0.16862774  0.16739997  0.50079808  1
  Ni  Ni28  1  0.00149549  1.00093537  0.66794270  1
  Ni  Ni29  1  0.16864313  0.16815436  0.83508757  1
  Ni  Ni30  1  0.17000550  0.50166699  0.50123743  1
  Fe  Fe31  1  0.00403681  0.33347531  0.66800144  1
  Ni  Ni32  1  0.16998611  0.50106232  0.83464042  1
  Ni  Ni33  1  0.16828550  0.83487094  0.50176712  1
  Ni  Ni34  1  0.00282547  0.67156740  0.66800538  1
  Fe  Fe35  1  0.16855352  0.83527334  0.83471020  1
  Ni  Ni36  1  0.50071342  0.16748507  0.50150892  1
  Ni  Ni37  1  0.33323317  0.00174779  0.66791330  1
  Ni  Ni38  1  0.50042309  0.16724656  0.83473425  1
  Ni  Ni39  1  0.49963862  0.50148682  0.50168667  1
  Ni  Ni40  1  0.33616252  0.33422572  0.66787616  1
  Ni  Ni41  1  0.49935568  0.50173155  0.83453677  1
  Ni  Ni42  1  0.50081461  0.83476138  0.50065834  1
  Ni  Ni43  1  0.33484269  0.66791718  0.66794685  1
  Ni  Ni44  1  0.50156084  0.83473825  0.83523476  1
  Ni  Ni45  1  0.83457535  0.16583239  0.50176936  1
  Fe  Fe46  1  0.66665280  1.00034653  0.66800558  1
  Ni  Ni47  1  0.83483762  0.16553448  0.83451626  1
  Cr  Cr48  1  0.83477513  0.50184344  0.50075908  1
  Ni  Ni49  1  0.66534834  0.33299994  0.66819816  1
  Cr  Cr50  1  0.83485666  0.50197317  0.83542920  1
  Ni  Ni51  1  0.83463205  0.83603135  0.50143831  1
  Ni  Ni52  1  0.66641510  0.66852270  0.66786036  1
  Ni  Ni53  1  0.83401102  0.83597664  0.83443380  1
" 