915,Ni89Fe4Cr6_8,-237.841807930086, 177.769317167806,Ni89Fe4Cr6,"# generated using pymatgen
 data_Cr2FeNi24
_symmetry_space_group_name_H-M   'P 1'
_cell_length_a   7.45887047
_cell_length_b   7.45887047
_cell_length_c   10.54843578
_cell_angle_alpha   90.00000000
_cell_angle_beta   90.00000000
_cell_angle_gamma   90.00000000
_symmetry_Int_Tables_number   1
_chemical_formula_structural   Cr2FeNi24
_chemical_formula_sum   'Cr4 Fe2 Ni48'
_cell_volume   586.85957373
_cell_formula_units_Z   2
loop_
 _symmetry_equiv_pos_site_id
 _symmetry_equiv_pos_as_xyz
  1  'x, y, z'
loop_
 _atom_site_type_symbol
 _atom_site_label
 _atom_site_symmetry_multiplicity
 _atom_site_fract_x
 _atom_site_fract_y
 _atom_site_fract_z
 _atom_site_occupancy
  Ni  Ni0  1  0.00089281  0.99941819  0.99926181  1
  Ni  Ni1  1  0.16791441  0.16557194  0.16824567  1
  Ni  Ni2  1  0.99984018  0.99841682  0.33418577  1
  Ni  Ni3  1  0.00113790  0.33370079  1.00031324  1
  Ni  Ni4  1  0.16619011  0.50210096  0.16829252  1
  Ni  Ni5  1  0.00080704  0.33557553  0.33387990  1
  Ni  Ni6  1  0.00152699  0.66856394  0.00114213  1
  Ni  Ni7  1  0.16787343  0.83401378  0.16742667  1
  Ni  Ni8  1  1.00042297  0.66752594  0.33463585  1
  Ni  Ni9  1  0.33425318  0.99938202  0.99964128  1
  Ni  Ni10  1  0.49992584  0.16597243  0.16853650  1
  Ni  Ni11  1  0.33534572  0.99959297  0.33364788  1
  Cr  Cr12  1  0.33355725  0.33440944  0.00136978  1
  Ni  Ni13  1  0.50194903  0.50189887  0.16790460  1
  Ni  Ni14  1  0.33496195  0.33501798  0.33279051  1
  Ni  Ni15  1  0.33399740  0.66839640  1.00018082  1
  Ni  Ni16  1  0.49994391  0.83377794  0.16705415  1
  Ni  Ni17  1  0.33409631  0.66682209  0.33415851  1
  Ni  Ni18  1  0.66652899  0.99934117  0.99959314  1
  Cr  Cr19  1  0.83353698  0.16744681  0.16710358  1
  Ni  Ni20  1  0.66658812  0.99927819  0.33499846  1
  Ni  Ni21  1  0.66625197  0.33342962  0.99948149  1
  Ni  Ni22  1  0.83348060  0.50198472  0.16705145  1
  Ni  Ni23  1  0.66591622  0.33449450  0.33588406  1
  Ni  Ni24  1  0.66609802  0.66880915  0.00142268  1
  Ni  Ni25  1  0.83384352  0.83199897  0.16690620  1
  Ni  Ni26  1  0.66713354  0.66780406  0.33410280  1
  Cr  Cr27  1  0.16771482  0.16623844  0.49912247  1
  Ni  Ni28  1  0.99763658  0.99978673  0.66808480  1
  Ni  Ni29  1  0.16660093  0.16599889  0.83336158  1
  Ni  Ni30  1  0.16741839  0.50188362  0.50067814  1
  Ni  Ni31  1  0.00258992  0.33338481  0.66734084  1
  Ni  Ni32  1  0.16776397  0.50160882  0.83288484  1
  Ni  Ni33  1  0.16740667  0.83187356  0.50070857  1
  Ni  Ni34  1  0.00114337  0.66834118  0.66603855  1
  Ni  Ni35  1  0.16743805  0.83360003  0.83339803  1
  Ni  Ni36  1  0.50213239  0.16703817  0.50062869  1
  Fe  Fe37  1  0.33370577  0.99868556  0.66774265  1
  Ni  Ni38  1  0.50117170  0.16603576  0.83249349  1
  Ni  Ni39  1  0.50062342  0.50108896  0.50081591  1
  Ni  Ni40  1  0.33457683  0.33505942  0.66799003  1
  Ni  Ni41  1  0.49988781  0.50184971  0.83312396  1
  Ni  Ni42  1  0.50029847  0.83351928  0.50044185  1
  Ni  Ni43  1  0.33438722  0.66538800  0.66739457  1
  Ni  Ni44  1  0.50027107  0.83363550  0.83397677  1
  Ni  Ni45  1  0.83272219  0.16728591  0.50086146  1
  Ni  Ni46  1  0.66765786  1.00001558  0.66708462  1
  Ni  Ni47  1  0.83396355  0.16593731  0.83376691  1
  Ni  Ni48  1  0.83394531  0.50102376  0.50039906  1
  Fe  Fe49  1  0.66756022  0.33445728  0.66644088  1
  Cr  Cr50  1  0.83361442  0.50186533  0.83470075  1
  Ni  Ni51  1  0.83364289  0.83369633  0.50037958  1
  Ni  Ni52  1  0.66604558  0.67034999  0.66617541  1
  Ni  Ni53  1  0.83366626  0.83520688  0.83435417  1
" 