5276,Ni89Fe7Cr3_3,-238.891799946562, 180.783973273222,Ni89Fe7Cr3,"# generated using pymatgen
 data_CrFeNi16
_symmetry_space_group_name_H-M   'P 1'
_cell_length_a   7.45306208
_cell_length_b   7.45306208
_cell_length_c   10.54022148
_cell_angle_alpha   90.00000000
_cell_angle_beta   90.00000000
_cell_angle_gamma   90.00000000
_symmetry_Int_Tables_number   1
_chemical_formula_structural   CrFeNi16
_chemical_formula_sum   'Cr3 Fe3 Ni48'
_cell_volume   585.48963909
_cell_formula_units_Z   3
loop_
 _symmetry_equiv_pos_site_id
 _symmetry_equiv_pos_as_xyz
  1  'x, y, z'
loop_
 _atom_site_type_symbol
 _atom_site_label
 _atom_site_symmetry_multiplicity
 _atom_site_fract_x
 _atom_site_fract_y
 _atom_site_fract_z
 _atom_site_occupancy
  Ni  Ni0  1  1.00021502  0.00122165  1.00043294  1
  Ni  Ni1  1  0.16596366  0.16844453  0.16827999  1
  Ni  Ni2  1  1.00048669  1.00091285  0.33415714  1
  Ni  Ni3  1  0.00132591  0.33496044  1.00064307  1
  Ni  Ni4  1  0.16824293  0.50038832  0.16759517  1
  Ni  Ni5  1  1.00063782  0.33496672  0.33470463  1
  Ni  Ni6  1  1.00041611  0.66670148  0.00125081  1
  Ni  Ni7  1  0.16715941  0.83401670  0.16801049  1
  Ni  Ni8  1  1.00063733  0.66692798  0.33376964  1
  Cr  Cr9  1  0.33339219  1.00088987  1.00059521  1
  Fe  Fe10  1  0.50045848  0.16894982  0.16935258  1
  Ni  Ni11  1  0.33460806  1.00083980  0.33413782  1
  Ni  Ni12  1  0.33363320  0.33608009  1.00045412  1
  Ni  Ni13  1  0.50088507  0.50178922  0.16728692  1
  Ni  Ni14  1  0.33419336  0.33473541  0.33465078  1
  Ni  Ni15  1  0.33447811  0.66569647  1.00075840  1
  Ni  Ni16  1  0.50103660  0.83154436  0.16932404  1
  Ni  Ni17  1  0.33424675  0.66727123  0.33407712  1
  Cr  Cr18  1  0.66885473  1.00050324  0.00101716  1
  Ni  Ni19  1  0.83613176  0.16827774  0.16828932  1
  Ni  Ni20  1  0.66769334  1.00088361  0.33448688  1
  Fe  Fe21  1  0.66852926  0.33633839  1.00068978  1
  Ni  Ni22  1  0.83371047  0.50067776  0.16753827  1
  Ni  Ni23  1  0.66797551  0.33458323  0.33349257  1
  Ni  Ni24  1  0.66790991  0.66677042  1.00034030  1
  Ni  Ni25  1  0.83460060  0.83400736  0.16832485  1
  Ni  Ni26  1  0.66793371  0.66742265  0.33480771  1
  Ni  Ni27  1  0.16654531  0.16829815  0.50043202  1
  Ni  Ni28  1  0.99879730  1.00058678  0.66826312  1
  Ni  Ni29  1  0.16570433  0.16942365  0.83413199  1
  Ni  Ni30  1  0.16802273  0.50081087  0.50074479  1
  Ni  Ni31  1  1.00038595  0.33531981  0.66748284  1
  Ni  Ni32  1  0.16791712  0.50072817  0.83447590  1
  Ni  Ni33  1  0.16691672  0.83370958  0.49980065  1
  Ni  Ni34  1  0.00129251  0.66691963  0.66780228  1
  Ni  Ni35  1  0.16593087  0.83265820  0.83498014  1
  Ni  Ni36  1  0.50195277  0.16863218  0.49956799  1
  Cr  Cr37  1  0.33478800  0.00096994  0.66802530  1
  Ni  Ni38  1  0.50181863  0.17031771  0.83416182  1
  Ni  Ni39  1  0.50090098  0.50082164  0.50112781  1
  Ni  Ni40  1  0.33463275  0.33616448  0.66769873  1
  Ni  Ni41  1  0.50073245  0.50102534  0.83436979  1
  Ni  Ni42  1  0.50165940  0.83330825  0.50024726  1
  Ni  Ni43  1  0.33358700  0.66589051  0.66803675  1
  Ni  Ni44  1  0.50189986  0.83159449  0.83328707  1
  Ni  Ni45  1  0.83426666  0.16754569  0.50108947  1
  Ni  Ni46  1  0.66879747  0.00158227  0.66753792  1
  Ni  Ni47  1  0.83535699  0.16826293  0.83351856  1
  Ni  Ni48  1  0.83390703  0.50046011  0.50052755  1
  Ni  Ni49  1  0.66778650  0.33363165  0.66832811  1
  Ni  Ni50  1  0.83420058  0.50075957  0.83465557  1
  Ni  Ni51  1  0.83424179  0.83475209  0.50079857  1
  Fe  Fe52  1  0.66825644  0.66686410  0.66743310  1
  Ni  Ni53  1  0.83501087  0.83382585  0.83367217  1
" 