6,Ni89Fe4Cr6_13,-237.686503819407, 175.051496811695,Ni89Fe4Cr6,"# generated using pymatgen
 data_Cr2FeNi24
_symmetry_space_group_name_H-M   'P 1'
_cell_length_a   7.45586529
_cell_length_b   7.45586529
_cell_length_c   10.54418582
_cell_angle_alpha   90.00000000
_cell_angle_beta   90.00000000
_cell_angle_gamma   90.00000000
_symmetry_Int_Tables_number   1
_chemical_formula_structural   Cr2FeNi24
_chemical_formula_sum   'Cr4 Fe2 Ni48'
_cell_volume   586.15052280
_cell_formula_units_Z   2
loop_
 _symmetry_equiv_pos_site_id
 _symmetry_equiv_pos_as_xyz
  1  'x, y, z'
loop_
 _atom_site_type_symbol
 _atom_site_label
 _atom_site_symmetry_multiplicity
 _atom_site_fract_x
 _atom_site_fract_y
 _atom_site_fract_z
 _atom_site_occupancy
  Cr  Cr0  1  1.00016936  0.99988512  0.00177567  1
  Ni  Ni1  1  0.16854999  0.16831992  0.16834171  1
  Ni  Ni2  1  0.00082514  1.00070075  0.33415201  1
  Ni  Ni3  1  0.99958555  0.33649486  0.00157672  1
  Ni  Ni4  1  0.16462701  0.49970355  0.16772761  1
  Ni  Ni5  1  1.00058185  0.33389683  0.33374699  1
  Ni  Ni6  1  0.99904229  0.66567979  1.00053009  1
  Ni  Ni7  1  0.16750262  0.83422492  0.16901926  1
  Ni  Ni8  1  0.00076922  0.66765266  0.33356221  1
  Ni  Ni9  1  0.33682379  0.00166073  0.00181936  1
  Ni  Ni10  1  0.50028938  0.16543278  0.16668047  1
  Ni  Ni11  1  0.33403891  1.00051856  0.33332096  1
  Ni  Ni12  1  0.33443813  0.33228511  1.00053028  1
  Cr  Cr13  1  0.50175081  0.50009786  0.16868193  1
  Ni  Ni14  1  0.33333723  0.33313406  0.33471963  1
  Cr  Cr15  1  0.33317858  0.66843328  0.99955989  1
  Ni  Ni16  1  0.50152113  0.83693317  0.16791164  1
  Ni  Ni17  1  0.33333095  0.66859745  0.33509235  1
  Ni  Ni18  1  0.66560122  0.00111623  1.00030340  1
  Ni  Ni19  1  0.83341001  0.16830877  0.16820674  1
  Ni  Ni20  1  0.66738592  1.00070605  0.33397432  1
  Ni  Ni21  1  0.66822445  0.33306870  0.99972791  1
  Ni  Ni22  1  0.83611906  0.50093574  0.16686553  1
  Ni  Ni23  1  0.66833058  0.33318981  0.33466018  1
  Ni  Ni24  1  0.66981079  0.66806704  0.99996473  1
  Ni  Ni25  1  0.83322855  0.83300680  0.16815224  1
  Ni  Ni26  1  0.66815115  0.66835628  0.33447849  1
  Ni  Ni27  1  0.16791124  0.16792719  0.50053810  1
  Ni  Ni28  1  1.00062541  0.99988687  0.66651590  1
  Cr  Cr29  1  0.16842883  0.16843205  0.83334698  1
  Ni  Ni30  1  0.16700157  0.50051809  0.50076195  1
  Ni  Ni31  1  0.99954665  0.33425808  0.66692557  1
  Ni  Ni32  1  0.16657406  0.50165605  0.83376145  1
  Ni  Ni33  1  0.16790631  0.83380358  0.50090977  1
  Ni  Ni34  1  0.00077534  0.66810485  0.66815711  1
  Ni  Ni35  1  0.16768334  0.83207362  0.83232396  1
  Ni  Ni36  1  0.50040739  0.16710622  0.50064721  1
  Ni  Ni37  1  0.33400350  0.99970664  0.66711199  1
  Ni  Ni38  1  0.50213170  0.16748798  0.83491713  1
  Fe  Fe39  1  0.50080933  0.50075750  0.50110075  1
  Ni  Ni40  1  0.33518372  0.33453356  0.66700282  1
  Ni  Ni41  1  0.50167213  0.50007115  0.83272126  1
  Ni  Ni42  1  0.50059481  0.83444333  0.50046174  1
  Ni  Ni43  1  0.33413782  0.66801000  0.66767620  1
  Ni  Ni44  1  0.50159535  0.83469163  0.83387170  1
  Ni  Ni45  1  0.83392941  0.16801038  0.50083332  1
  Fe  Fe46  1  0.66742316  0.00080937  0.66747037  1
  Ni  Ni47  1  0.83138196  0.16859330  0.83320574  1
  Ni  Ni48  1  0.83457084  0.50070660  0.50053994  1
  Ni  Ni49  1  0.66751987  0.33438693  0.66786351  1
  Ni  Ni50  1  0.83400047  0.50111704  0.83484429  1
  Ni  Ni51  1  0.83374787  0.83353264  0.50064828  1
  Ni  Ni52  1  0.66733737  0.66692505  0.66780987  1
  Ni  Ni53  1  0.83297147  0.83253815  0.83344539  1
" 