1076,Ni89Fe7Cr3_13,-238.920102310608, 182.112315034184,Ni89Fe7Cr3,"# generated using pymatgen
 data_CrFeNi16
_symmetry_space_group_name_H-M   'P 1'
_cell_length_a   7.45463594
_cell_length_b   7.45463594
_cell_length_c   10.54244724
_cell_angle_alpha   90.00000000
_cell_angle_beta   90.00000000
_cell_angle_gamma   90.00000000
_symmetry_Int_Tables_number   1
_chemical_formula_structural   CrFeNi16
_chemical_formula_sum   'Cr3 Fe3 Ni48'
_cell_volume   585.86062922
_cell_formula_units_Z   3
loop_
 _symmetry_equiv_pos_site_id
 _symmetry_equiv_pos_as_xyz
  1  'x, y, z'
loop_
 _atom_site_type_symbol
 _atom_site_label
 _atom_site_symmetry_multiplicity
 _atom_site_fract_x
 _atom_site_fract_y
 _atom_site_fract_z
 _atom_site_occupancy
  Ni  Ni0  1  1.00073425  0.99826979  0.00106590  1
  Cr  Cr1  1  0.16706723  0.16748044  0.16660232  1
  Ni  Ni2  1  1.00012735  0.99932746  0.33470041  1
  Ni  Ni3  1  0.00242676  0.33659813  0.00106651  1
  Ni  Ni4  1  0.16734738  0.50221458  0.16759131  1
  Ni  Ni5  1  0.99985513  0.33561887  0.33442998  1
  Ni  Ni6  1  0.00161555  0.66763244  1.00080338  1
  Ni  Ni7  1  0.16734586  0.83256128  0.16734589  1
  Ni  Ni8  1  1.00028305  0.66755351  0.33378435  1
  Ni  Ni9  1  0.33535839  0.99964901  0.99969146  1
  Ni  Ni10  1  0.50180053  0.16687167  0.16833572  1
  Ni  Ni11  1  0.33533405  1.00047480  0.33470041  1
  Ni  Ni12  1  0.33366376  0.33521875  0.99969221  1
  Ni  Ni13  1  0.50019127  0.50157444  0.16827172  1
  Ni  Ni14  1  0.33560730  0.33447400  0.33442894  1
  Ni  Ni15  1  0.33309357  0.66763183  0.00155863  1
  Ni  Ni16  1  0.50104377  0.83405540  0.16742009  1
  Fe  Fe17  1  0.33444049  0.66780070  0.33377509  1
  Ni  Ni18  1  0.66640401  0.99883657  0.00217976  1
  Ni  Ni19  1  0.83346963  0.16687049  0.16877646  1
  Ni  Ni20  1  0.66703478  0.00090009  0.33369724  1
  Cr  Cr21  1  0.66644795  0.33429230  0.00209751  1
  Ni  Ni22  1  0.83496041  0.50145577  0.16814125  1
  Ni  Ni23  1  0.66703517  0.33432152  0.33404753  1
  Fe  Fe24  1  0.66750430  0.66934724  1.00081974  1
  Ni  Ni25  1  0.83411008  0.83417354  0.16729064  1
  Ni  Ni26  1  0.66818461  0.66727711  0.33340737  1
  Ni  Ni27  1  0.16722340  0.16683163  0.50126083  1
  Ni  Ni28  1  0.00161916  0.99955736  0.66672788  1
  Ni  Ni29  1  0.16931803  0.16771769  0.83432395  1
  Fe  Fe30  1  0.16721959  0.50048666  0.50105430  1
  Ni  Ni31  1  0.00134450  0.33538736  0.66699815  1
  Ni  Ni32  1  0.16764513  0.50045183  0.83417486  1
  Ni  Ni33  1  0.16734537  0.83525030  0.50073320  1
  Ni  Ni34  1  1.00043192  0.66755629  0.66791264  1
  Ni  Ni35  1  0.16764440  0.83432861  0.83441884  1
  Ni  Ni36  1  0.50039134  0.16796379  0.50086417  1
  Ni  Ni37  1  0.33447280  0.00093301  0.66810277  1
  Ni  Ni38  1  0.49764611  0.16686981  0.83329851  1
  Ni  Ni39  1  0.50162026  0.50063335  0.50093457  1
  Ni  Ni40  1  0.33475054  0.33400867  0.66837558  1
  Ni  Ni41  1  0.49970233  0.50169078  0.83329224  1
  Ni  Ni42  1  0.50048605  0.83389993  0.50093560  1
  Ni  Ni43  1  0.33428360  0.66755488  0.66715716  1
  Ni  Ni44  1  0.50055488  0.83393914  0.83414345  1
  Ni  Ni45  1  0.83488229  0.16796409  0.50042360  1
  Ni  Ni46  1  0.66640311  1.00002265  0.66661917  1
  Cr  Cr47  1  0.83565297  0.16678963  0.83310271  1
  Ni  Ni48  1  0.83353268  0.50051322  0.50106415  1
  Ni  Ni49  1  0.66640493  0.33519636  0.66627006  1
  Ni  Ni50  1  0.83514880  0.50336173  0.83329394  1
  Ni  Ni51  1  0.83466712  0.83401970  0.50106476  1
  Ni  Ni52  1  0.66778037  0.66727813  0.66853964  1
  Ni  Ni53  1  0.83429561  0.83226556  0.83414537  1
" 