3816,Ni89Fe11_2,-228.240729514555, 155.619365240723,Ni89Fe11,"# generated using pymatgen
 data_Fe8Ni
_symmetry_space_group_name_H-M   'P 1'
_cell_length_a   7.40406839
_cell_length_b   7.40406839
_cell_length_c   10.47093393
_cell_angle_alpha   90.00000000
_cell_angle_beta   90.00000000
_cell_angle_gamma   90.00000000
_symmetry_Int_Tables_number   1
_chemical_formula_structural   Fe8Ni
_chemical_formula_sum   'Fe48 Ni6'
_cell_volume   574.01899284
_cell_formula_units_Z   6
loop_
 _symmetry_equiv_pos_site_id
 _symmetry_equiv_pos_as_xyz
  1  'x, y, z'
loop_
 _atom_site_type_symbol
 _atom_site_label
 _atom_site_symmetry_multiplicity
 _atom_site_fract_x
 _atom_site_fract_y
 _atom_site_fract_z
 _atom_site_occupancy
  Fe  Fe0  1  1.00379665  0.00471329  1.00408433  1
  Fe  Fe1  1  0.16991037  0.17201191  0.17152397  1
  Fe  Fe2  1  0.00464743  0.00560335  0.33741467  1
  Fe  Fe3  1  1.00336969  0.33730874  0.00499920  1
  Fe  Fe4  1  0.16982869  0.50316179  0.17143884  1
  Ni  Ni5  1  0.00454944  0.33729076  0.33708347  1
  Fe  Fe6  1  1.00407297  0.67073550  0.00452035  1
  Fe  Fe7  1  0.16977158  0.83758388  0.17074662  1
  Fe  Fe8  1  0.00456125  0.66955610  0.33732016  1
  Fe  Fe9  1  0.33758400  1.00408640  0.00426510  1
  Fe  Fe10  1  0.50499922  0.17167352  0.17118401  1
  Fe  Fe11  1  0.33701323  0.00534454  0.33757592  1
  Fe  Fe12  1  0.33767117  0.33758640  0.00474642  1
  Fe  Fe13  1  0.50507857  0.50350233  0.17109654  1
  Ni  Ni14  1  0.33677353  0.33769238  0.33748362  1
  Fe  Fe15  1  0.33758422  0.67108633  1.00350300  1
  Fe  Fe16  1  0.50548635  0.83758416  0.17084308  1
  Fe  Fe17  1  0.33701309  0.66991337  0.33824164  1
  Fe  Fe18  1  0.67137802  0.00479994  1.00417129  1
  Ni  Ni19  1  0.83769538  0.17193301  0.17167440  1
  Fe  Fe20  1  0.67109586  0.00566200  0.33741578  1
  Fe  Fe21  1  0.67171880  0.33731042  0.00433951  1
  Ni  Ni22  1  0.83769733  0.50312852  0.17102808  1
  Fe  Fe23  1  0.67143583  0.33759035  0.33707351  1
  Fe  Fe24  1  0.67110169  0.67064891  0.00460739  1
  Fe  Fe25  1  0.83750181  0.83750349  0.17093014  1
  Fe  Fe26  1  0.67118211  0.66950576  0.33732127  1
  Fe  Fe27  1  0.17100060  0.17144953  0.50364136  1
  Fe  Fe28  1  0.00456532  1.00386400  0.67126503  1
  Fe  Fe29  1  0.17039229  0.17093287  0.83758797  1
  Fe  Fe30  1  0.17126346  0.50398684  0.50407928  1
  Fe  Fe31  1  0.00447088  0.33789928  0.67068557  1
  Fe  Fe32  1  0.17069359  0.50393205  0.83723533  1
  Fe  Fe33  1  0.17117895  0.83732218  0.50468902  1
  Fe  Fe34  1  0.00486549  0.67099608  0.67091799  1
  Fe  Fe35  1  0.17060601  0.83789488  0.83732371  1
  Fe  Fe36  1  0.50390397  0.17110498  0.50398559  1
  Fe  Fe37  1  0.33758377  1.00356306  0.67091814  1
  Fe  Fe38  1  0.50477502  0.17092534  0.83758816  1
  Fe  Fe39  1  0.50364110  0.50433161  0.50442363  1
  Fe  Fe40  1  0.33767056  0.33819704  0.67034032  1
  Fe  Fe41  1  0.50447588  0.50393750  0.83723767  1
  Fe  Fe42  1  0.50407990  0.83732398  0.50459093  1
  Ni  Ni43  1  0.33788710  0.67112105  0.67112760  1
  Fe  Fe44  1  0.50457101  0.83789699  0.83732581  1
  Fe  Fe45  1  0.83785329  0.17101821  0.50416987  1
  Fe  Fe46  1  0.67061017  1.00395086  0.67117798  1
  Ni  Ni47  1  0.83758958  0.17102257  0.83713360  1
  Fe  Fe48  1  0.83785377  0.50415453  0.50340862  1
  Fe  Fe49  1  0.67061625  0.33790066  0.67135074  1
  Fe  Fe50  1  0.83759194  0.50372749  0.83816628  1
  Fe  Fe51  1  0.83750203  0.83758587  0.50432817  1
  Fe  Fe52  1  0.67031824  0.67090931  0.67083084  1
  Fe  Fe53  1  0.83758433  0.83819688  0.83750127  1
" 