6204,Ni89Fe4Cr6_2,-237.808206306021, 175.646184380611,Ni89Fe4Cr6,"# generated using pymatgen
 data_Cr2FeNi24
_symmetry_space_group_name_H-M   'P 1'
_cell_length_a   7.45765367
_cell_length_b   7.45765367
_cell_length_c   10.54671496
_cell_angle_alpha   90.00000000
_cell_angle_beta   90.00000000
_cell_angle_gamma   90.00000000
_symmetry_Int_Tables_number   1
_chemical_formula_structural   Cr2FeNi24
_chemical_formula_sum   'Cr4 Fe2 Ni48'
_cell_volume   586.57240801
_cell_formula_units_Z   2
loop_
 _symmetry_equiv_pos_site_id
 _symmetry_equiv_pos_as_xyz
  1  'x, y, z'
loop_
 _atom_site_type_symbol
 _atom_site_label
 _atom_site_symmetry_multiplicity
 _atom_site_fract_x
 _atom_site_fract_y
 _atom_site_fract_z
 _atom_site_occupancy
  Ni  Ni0  1  0.00106607  1.00023110  0.00079679  1
  Ni  Ni1  1  0.16546602  0.16736864  0.16699277  1
  Ni  Ni2  1  0.00178137  1.00038208  0.33363276  1
  Ni  Ni3  1  0.00203477  0.33391373  0.00088822  1
  Ni  Ni4  1  0.16739311  0.50032595  0.16789894  1
  Ni  Ni5  1  1.00009101  0.33343076  0.33388617  1
  Ni  Ni6  1  0.00071781  0.66772585  0.00090191  1
  Ni  Ni7  1  0.16724060  0.83420961  0.16755555  1
  Ni  Ni8  1  1.00042934  0.66806424  0.33445645  1
  Ni  Ni9  1  0.33277442  0.99930963  0.99969069  1
  Cr  Cr10  1  0.49933801  0.16630785  0.16876776  1
  Ni  Ni11  1  0.33197420  0.99925878  0.33503419  1
  Ni  Ni12  1  0.33162904  0.33467885  0.99973592  1
  Ni  Ni13  1  0.49958388  0.50320513  0.16788938  1
  Ni  Ni14  1  0.33238351  0.33345828  0.33393193  1
  Ni  Ni15  1  0.33381439  0.66790586  0.00113538  1
  Ni  Ni16  1  0.50069984  0.83200496  0.16719183  1
  Ni  Ni17  1  0.33325728  0.66905903  0.33282123  1
  Ni  Ni18  1  0.66810707  0.99812873  1.00014054  1
  Ni  Ni19  1  0.83690055  0.16624190  0.16805286  1
  Fe  Fe20  1  0.66869358  0.99901934  0.33454621  1
  Cr  Cr21  1  0.66836998  0.33539070  0.99919047  1
  Ni  Ni22  1  0.83492933  0.50153724  0.16861495  1
  Ni  Ni23  1  0.66939242  0.33471451  0.33393422  1
  Ni  Ni24  1  0.66735830  0.66893585  1.00054320  1
  Ni  Ni25  1  0.83400371  0.83399756  0.16727284  1
  Ni  Ni26  1  0.66823195  0.66730576  0.33281144  1
  Ni  Ni27  1  0.16633452  0.16735248  0.50066074  1
  Ni  Ni28  1  0.00101356  1.00042844  0.66747504  1
  Ni  Ni29  1  0.16705417  0.16743068  0.83423780  1
  Ni  Ni30  1  0.16596568  0.49999536  0.50058554  1
  Ni  Ni31  1  0.00197312  0.33363258  0.66709444  1
  Ni  Ni32  1  0.16738903  0.50036867  0.83342449  1
  Ni  Ni33  1  0.16747868  0.83443666  0.50069547  1
  Ni  Ni34  1  0.00073743  0.66782383  0.66652680  1
  Ni  Ni35  1  0.16722814  0.83409967  0.83366274  1
  Fe  Fe36  1  0.49948258  0.16531258  0.50036876  1
  Ni  Ni37  1  0.33349416  1.00013690  0.66720604  1
  Ni  Ni38  1  0.49857605  0.16497925  0.83285595  1
  Cr  Cr39  1  0.49918719  0.50268671  0.49983452  1
  Ni  Ni40  1  0.33134700  0.33280854  0.66830643  1
  Ni  Ni41  1  0.49826282  0.50288948  0.83439864  1
  Ni  Ni42  1  0.50082264  0.83495569  0.50055616  1
  Ni  Ni43  1  0.33291807  0.66885659  0.66799781  1
  Ni  Ni44  1  0.50092495  0.83398153  0.83401240  1
  Ni  Ni45  1  0.83596450  0.16610229  0.49951779  1
  Ni  Ni46  1  0.66733007  0.99891459  0.66670985  1
  Ni  Ni47  1  0.83620145  0.16482941  0.83417809  1
  Ni  Ni48  1  0.83615909  0.50119493  0.49984476  1
  Cr  Cr49  1  0.66869950  0.33337262  0.66892863  1
  Ni  Ni50  1  0.83623111  0.50277580  0.83348898  1
  Ni  Ni51  1  0.83364269  0.83443134  0.50086672  1
  Ni  Ni52  1  0.66821522  0.66976221  0.66860358  1
  Ni  Ni53  1  0.83371523  0.83433951  0.83365744  1
" 