6881,Ni89Fe8Cr1_19,-240.034833583163, 187.199799590195,Ni89Fe8Cr1,"# generated using pymatgen
 data_Cr(FeNi12)2
_symmetry_space_group_name_H-M   'P 1'
_cell_length_a   7.44690973
_cell_length_b   7.44690973
_cell_length_c   10.53152074
_cell_angle_alpha   90.00000000
_cell_angle_beta   90.00000000
_cell_angle_gamma   90.00000000
_symmetry_Int_Tables_number   1
_chemical_formula_structural   Cr(FeNi12)2
_chemical_formula_sum   'Cr2 Fe4 Ni48'
_cell_volume   584.04090625
_cell_formula_units_Z   2
loop_
 _symmetry_equiv_pos_site_id
 _symmetry_equiv_pos_as_xyz
  1  'x, y, z'
loop_
 _atom_site_type_symbol
 _atom_site_label
 _atom_site_symmetry_multiplicity
 _atom_site_fract_x
 _atom_site_fract_y
 _atom_site_fract_z
 _atom_site_occupancy
  Cr  Cr0  1  1.00120330  1.00117333  0.00136902  1
  Ni  Ni1  1  0.16810210  0.16872482  0.16898008  1
  Ni  Ni2  1  1.00132971  0.00151239  0.33484525  1
  Ni  Ni3  1  1.00055616  0.33633439  1.00090163  1
  Ni  Ni4  1  0.16811655  0.50099420  0.16740813  1
  Ni  Ni5  1  1.00127730  0.33443137  0.33500828  1
  Ni  Ni6  1  0.00165704  0.66597718  0.00144045  1
  Ni  Ni7  1  0.16928452  0.83433596  0.16892145  1
  Ni  Ni8  1  0.00153806  0.66811258  0.33421146  1
  Ni  Ni9  1  0.33640283  1.00083136  1.00081242  1
  Fe  Fe10  1  0.50162667  0.16768357  0.16823107  1
  Ni  Ni11  1  0.33436203  0.00144220  0.33504496  1
  Fe  Fe12  1  0.33493540  0.33500698  1.00130833  1
  Ni  Ni13  1  0.50149305  0.50210912  0.16814800  1
  Ni  Ni14  1  0.33461392  0.33469824  0.33429449  1
  Ni  Ni15  1  0.33470682  0.66845932  1.00113191  1
  Ni  Ni16  1  0.50115725  0.83405129  0.16757344  1
  Ni  Ni17  1  0.33442215  0.66791462  0.33498078  1
  Ni  Ni18  1  0.66612246  0.00193137  1.00115038  1
  Ni  Ni19  1  0.83473619  0.16906136  0.16865926  1
  Ni  Ni20  1  0.66836643  0.00170169  0.33439847  1
  Ni  Ni21  1  0.66860007  0.33463996  1.00107315  1
  Ni  Ni22  1  0.83444798  0.50092590  0.16783507  1
  Ni  Ni23  1  0.66816754  0.33449188  0.33498464  1
  Ni  Ni24  1  0.66769234  0.66748468  1.00087147  1
  Ni  Ni25  1  0.83361334  0.83406675  0.16861491  1
  Ni  Ni26  1  0.66809602  0.66786163  0.33491968  1
  Ni  Ni27  1  0.16808961  0.16764320  0.50150586  1
  Ni  Ni28  1  0.00331419  1.00092227  0.66807831  1
  Ni  Ni29  1  0.16881872  0.16776336  0.83356948  1
  Ni  Ni30  1  0.16834639  0.50121983  0.50148180  1
  Fe  Fe31  1  0.00143648  0.33466810  0.66785698  1
  Fe  Fe32  1  0.16795958  0.50190369  0.83474876  1
  Ni  Ni33  1  0.16827079  0.83519322  0.50130767  1
  Ni  Ni34  1  0.00160979  0.66866260  0.66840047  1
  Ni  Ni35  1  0.16908531  0.83497914  0.83382984  1
  Ni  Ni36  1  0.50027949  0.16905647  0.50025448  1
  Ni  Ni37  1  0.33225860  0.00177244  0.66820382  1
  Ni  Ni38  1  0.50016105  0.16893403  0.83616577  1
  Ni  Ni39  1  0.50162700  0.50141072  0.50156814  1
  Ni  Ni40  1  0.33526631  0.33466595  0.66843085  1
  Ni  Ni41  1  0.50235279  0.50151753  0.83433983  1
  Ni  Ni42  1  0.50028745  0.83358746  0.50078875  1
  Ni  Ni43  1  0.33415167  0.66761858  0.66793922  1
  Ni  Ni44  1  0.50009154  0.83360753  0.83569156  1
  Ni  Ni45  1  0.83568864  0.16898117  0.50068128  1
  Cr  Cr46  1  0.66831552  0.00179837  0.66840740  1
  Ni  Ni47  1  0.83507536  0.17001951  0.83471325  1
  Ni  Ni48  1  0.83408305  0.50123034  0.50124437  1
  Ni  Ni49  1  0.66744136  0.33636681  0.66800415  1
  Ni  Ni50  1  0.83370710  0.50125470  0.83497513  1
  Ni  Ni51  1  0.83549723  0.83384549  0.50048146  1
  Ni  Ni52  1  0.66829297  0.66564990  0.66826510  1
  Ni  Ni53  1  0.83487799  0.83278267  0.83496129  1
" 