2273,Ni89Cr11_17,-203.549947013796, 183.523039955623,Ni89Cr11,"# generated using pymatgen
 data_Cr8Ni
_symmetry_space_group_name_H-M   'P 1'
_cell_length_a   7.59334623
_cell_length_b   7.59334623
_cell_length_c   10.73861322
_cell_angle_alpha   90.00000000
_cell_angle_beta   90.00000000
_cell_angle_gamma   90.00000000
_symmetry_Int_Tables_number   1
_chemical_formula_structural   Cr8Ni
_chemical_formula_sum   'Cr48 Ni6'
_cell_volume   619.17670113
_cell_formula_units_Z   6
loop_
 _symmetry_equiv_pos_site_id
 _symmetry_equiv_pos_as_xyz
  1  'x, y, z'
loop_
 _atom_site_type_symbol
 _atom_site_label
 _atom_site_symmetry_multiplicity
 _atom_site_fract_x
 _atom_site_fract_y
 _atom_site_fract_z
 _atom_site_occupancy
  Cr  Cr0  1  -0.00773946  0.99063447  -0.00798850  1
  Cr  Cr1  1  0.15927818  0.15700433  0.15867955  1
  Cr  Cr2  1  -0.00800292  0.99163251  0.32465520  1
  Cr  Cr3  1  0.99108484  0.32477582  -0.00795972  1
  Cr  Cr4  1  0.15810958  0.49222124  0.15751094  1
  Cr  Cr5  1  0.98966086  0.32496611  0.32699186  1
  Cr  Cr6  1  -0.00714375  0.65963989  -0.00738946  1
  Ni  Ni7  1  0.15945935  0.82592807  0.15875379  1
  Cr  Cr8  1  0.99091332  0.65844967  0.32465671  1
  Cr  Cr9  1  0.32409180  0.99062826  -0.00757917  1
  Cr  Cr10  1  0.49116059  0.15692265  0.15948261  1
  Ni  Ni11  1  0.32629490  0.99044287  0.32395727  1
  Cr  Cr12  1  0.32585381  0.32537309  0.99144167  1
  Cr  Cr13  1  0.49232637  0.49230678  0.15831864  1
  Cr  Cr14  1  0.32547567  0.32388562  0.32465724  1
  Cr  Cr15  1  0.32409142  0.65904970  -0.00798961  1
  Cr  Cr16  1  0.49184043  0.82582273  0.16124264  1
  Cr  Cr17  1  0.32538615  0.66069603  0.32385046  1
  Cr  Cr18  1  0.65869981  -0.00760162  0.99065494  1
  Cr  Cr19  1  0.82461373  0.15749050  0.15812955  1
  Ni  Ni20  1  0.65710234  0.99073524  0.32592482  1
  Cr  Cr21  1  0.65811213  0.32477693  0.99120288  1
  Cr  Cr22  1  0.82461463  0.49290110  0.15849187  1
  Cr  Cr23  1  0.65991148  0.32497013  0.32662463  1
  Cr  Cr24  1  0.65810322  0.65787550  0.99125343  1
  Cr  Cr25  1  0.82453740  0.82465998  0.15888110  1
  Ni  Ni26  1  0.65893015  0.65947773  0.32592568  1
  Cr  Cr27  1  0.15797734  0.15830509  0.49159406  1
  Cr  Cr28  1  0.99099051  -0.00774537  0.65838300  1
  Cr  Cr29  1  0.15846807  0.15895261  0.82477835  1
  Cr  Cr30  1  0.15680793  0.49092047  0.49276255  1
  Cr  Cr31  1  0.98982080  0.32477593  0.65601979  1
  Cr  Cr32  1  0.15846053  0.49108001  0.82477806  1
  Cr  Cr33  1  0.15906097  0.82582566  0.49154347  1
  Cr  Cr34  1  0.99158724  0.65801977  0.65778294  1
  Cr  Cr35  1  0.15787084  0.82501782  0.82459058  1
  Cr  Cr36  1  0.49226450  0.15654461  0.49019296  1
  Cr  Cr37  1  0.32490073  0.99108575  0.65877772  1
  Cr  Cr38  1  0.49132005  0.15834847  0.82537701  1
  Cr  Cr39  1  0.49343136  0.49268684  0.49135553  1
  Cr  Cr40  1  0.32550623  0.32537445  0.65895318  1
  Cr  Cr41  1  0.49132766  0.49168459  0.82537712  1
  Cr  Cr42  1  0.49294402  0.82582128  0.48962731  1
  Cr  Cr43  1  0.32489999  0.65859118  0.65919033  1
  Cr  Cr44  1  0.49252137  0.82501778  0.82417911  1
  Ni  Ni45  1  0.82415699  0.15969649  0.49118013  1
  Cr  Cr46  1  0.65915922  -0.00714237  0.65857108  1
  Cr  Cr47  1  0.82526291  0.15775946  0.82556463  1
  Ni  Ni48  1  0.82415613  0.49048615  0.49102676  1
  Cr  Cr49  1  0.65972304  0.32477613  0.65721940  1
  Cr  Cr50  1  0.82526280  0.49228118  0.82556447  1
  Cr  Cr51  1  0.82304615  0.82465813  0.49079385  1
  Cr  Cr52  1  0.65856257  0.65741677  0.65797207  1
  Cr  Cr53  1  0.82465842  0.82501014  0.82537788  1
" 