1639,Ni89Fe4Cr6_15,-237.806807470962, 176.530814807583,Ni89Fe4Cr6,"# generated using pymatgen
 data_Cr2FeNi24
_symmetry_space_group_name_H-M   'P 1'
_cell_length_a   7.45887263
_cell_length_b   7.45887263
_cell_length_c   10.54843884
_cell_angle_alpha   90.00000000
_cell_angle_beta   90.00000000
_cell_angle_gamma   90.00000000
_symmetry_Int_Tables_number   1
_chemical_formula_structural   Cr2FeNi24
_chemical_formula_sum   'Cr4 Fe2 Ni48'
_cell_volume   586.86008381
_cell_formula_units_Z   2
loop_
 _symmetry_equiv_pos_site_id
 _symmetry_equiv_pos_as_xyz
  1  'x, y, z'
loop_
 _atom_site_type_symbol
 _atom_site_label
 _atom_site_symmetry_multiplicity
 _atom_site_fract_x
 _atom_site_fract_y
 _atom_site_fract_z
 _atom_site_occupancy
  Ni  Ni0  1  0.00125648  0.99970857  0.00113829  1
  Ni  Ni1  1  0.16739067  0.16694178  0.16699890  1
  Ni  Ni2  1  0.00061366  1.00015604  0.33360166  1
  Ni  Ni3  1  1.00014385  0.33460133  0.00155831  1
  Ni  Ni4  1  0.16698140  0.50091471  0.16723985  1
  Fe  Fe5  1  0.00100822  0.33373944  0.33399299  1
  Ni  Ni6  1  0.00101794  0.66733902  1.00031109  1
  Ni  Ni7  1  0.16715301  0.83378586  0.16698458  1
  Ni  Ni8  1  0.00255631  0.66808744  0.33424372  1
  Ni  Ni9  1  0.33201935  0.99888254  0.00188558  1
  Ni  Ni10  1  0.49951360  0.16806701  0.16819121  1
  Ni  Ni11  1  0.33315340  0.00118113  0.33431762  1
  Ni  Ni12  1  0.33357924  0.33596049  0.00217843  1
  Ni  Ni13  1  0.49996876  0.49975020  0.16598885  1
  Ni  Ni14  1  0.33426411  0.33404522  0.33386602  1
  Ni  Ni15  1  0.33341879  0.66670013  0.00076442  1
  Ni  Ni16  1  0.49853516  0.83378185  0.16737494  1
  Ni  Ni17  1  0.33173354  0.66640347  0.33383133  1
  Cr  Cr18  1  0.66871570  0.99974948  0.00205538  1
  Ni  Ni19  1  0.83483314  0.16834261  0.16787331  1
  Ni  Ni20  1  0.66783907  0.00263748  0.33401448  1
  Ni  Ni21  1  0.66794329  0.33601439  0.00111754  1
  Ni  Ni22  1  0.83470585  0.50008669  0.16628178  1
  Ni  Ni23  1  0.66620772  0.33211337  0.33398108  1
  Ni  Ni24  1  0.66718959  0.66568717  1.00024058  1
  Ni  Ni25  1  0.83589961  0.83328504  0.16725823  1
  Cr  Cr26  1  0.66716295  0.66702747  0.33395914  1
  Ni  Ni27  1  0.16717967  0.16704419  0.50058446  1
  Ni  Ni28  1  0.99896901  0.99973287  0.66682562  1
  Cr  Cr29  1  0.16580507  0.16746731  0.83414825  1
  Ni  Ni30  1  0.16703952  0.50080384  0.50042335  1
  Ni  Ni31  1  1.00049308  0.33426781  0.66590642  1
  Ni  Ni32  1  0.16689158  0.50206261  0.83387366  1
  Ni  Ni33  1  0.16696331  0.83370036  0.50061438  1
  Ni  Ni34  1  0.00131413  0.66759305  0.66710831  1
  Ni  Ni35  1  0.16700566  0.83201486  0.83408007  1
  Ni  Ni36  1  0.50065893  0.16725179  0.50046266  1
  Fe  Fe37  1  0.33344967  0.99894098  0.66572322  1
  Cr  Cr38  1  0.50095126  0.16838539  0.83299239  1
  Ni  Ni39  1  0.50001572  0.49973807  0.50152346  1
  Ni  Ni40  1  0.33363773  0.33678631  0.66555521  1
  Ni  Ni41  1  0.50072715  0.50224551  0.83408219  1
  Ni  Ni42  1  0.49977684  0.83458994  0.50127498  1
  Ni  Ni43  1  0.33342493  0.66593394  0.66699219  1
  Ni  Ni44  1  0.49981454  0.83120549  0.83306708  1
  Ni  Ni45  1  0.83384110  0.16721350  0.50066565  1
  Ni  Ni46  1  0.66928589  0.99985531  0.66578418  1
  Ni  Ni47  1  0.83476316  0.16835774  0.83308311  1
  Ni  Ni48  1  0.83463638  0.50004594  0.50155280  1
  Ni  Ni49  1  0.66759631  0.33432643  0.66655224  1
  Ni  Ni50  1  0.83403088  0.50074804  0.83373434  1
  Ni  Ni51  1  0.83485567  0.83434414  0.50123482  1
  Ni  Ni52  1  0.66692329  0.66741813  0.66740063  1
  Ni  Ni53  1  0.83473730  0.83252874  0.83309719  1
" 