384,Ni89Fe11_17,-228.003792210093, 155.654213159338,Ni89Fe11,"# generated using pymatgen
 data_Fe8Ni
_symmetry_space_group_name_H-M   'P 1'
_cell_length_a   7.40422611
_cell_length_b   7.40422611
_cell_length_c   10.47115699
_cell_angle_alpha   90.00000000
_cell_angle_beta   90.00000000
_cell_angle_gamma   90.00000000
_symmetry_Int_Tables_number   1
_chemical_formula_structural   Fe8Ni
_chemical_formula_sum   'Fe48 Ni6'
_cell_volume   574.05567725
_cell_formula_units_Z   6
loop_
 _symmetry_equiv_pos_site_id
 _symmetry_equiv_pos_as_xyz
  1  'x, y, z'
loop_
 _atom_site_type_symbol
 _atom_site_label
 _atom_site_symmetry_multiplicity
 _atom_site_fract_x
 _atom_site_fract_y
 _atom_site_fract_z
 _atom_site_occupancy
  Fe  Fe0  1  1.00394637  1.00394637  0.00459751  1
  Fe  Fe1  1  0.17060897  0.17060897  0.17121355  1
  Ni  Ni2  1  1.00376816  1.00376816  0.33746364  1
  Fe  Fe3  1  1.00423626  0.33758157  0.00444317  1
  Fe  Fe4  1  0.17101382  0.50424196  0.17080860  1
  Fe  Fe5  1  1.00384905  0.33726626  0.33778293  1
  Fe  Fe6  1  1.00393354  0.67120303  1.00393630  1
  Fe  Fe7  1  0.17060420  0.83787209  0.17120984  1
  Fe  Fe8  1  1.00393478  0.67110233  0.33777969  1
  Fe  Fe9  1  0.33758157  1.00423626  0.00444317  1
  Fe  Fe10  1  0.50424196  0.17101382  0.17080860  1
  Fe  Fe11  1  0.33726626  1.00384905  0.33778293  1
  Fe  Fe12  1  0.33786857  0.33786857  1.00326911  1
  Fe  Fe13  1  0.50414059  0.50414059  0.17004993  1
  Fe  Fe14  1  0.33682046  0.33682046  0.33804373  1
  Fe  Fe15  1  0.33788399  0.67061510  1.00414090  1
  Fe  Fe16  1  0.50414849  0.83757230  0.17167778  1
  Fe  Fe17  1  0.33722338  0.67206390  0.33767735  1
  Fe  Fe18  1  0.67120303  1.00393354  1.00393630  1
  Fe  Fe19  1  0.83787209  0.17060420  0.17120984  1
  Fe  Fe20  1  0.67110233  1.00393478  0.33777969  1
  Fe  Fe21  1  0.67061510  0.33788399  1.00414090  1
  Fe  Fe22  1  0.83757230  0.50414849  0.17167778  1
  Fe  Fe23  1  0.67206390  0.33722338  0.33767735  1
  Fe  Fe24  1  0.67090992  0.67090992  1.00362357  1
  Fe  Fe25  1  0.83797181  0.83797181  0.17033822  1
  Fe  Fe26  1  0.67156819  0.67156819  0.33819558  1
  Fe  Fe27  1  0.17090776  0.17090776  0.50424464  1
  Fe  Fe28  1  0.00470590  0.00470590  0.67074886  1
  Fe  Fe29  1  0.17120709  0.17120709  0.83726783  1
  Fe  Fe30  1  0.17128569  0.50460545  0.50454425  1
  Fe  Fe31  1  0.00465115  0.33786794  0.67050565  1
  Fe  Fe32  1  0.17124154  0.50460553  0.83737245  1
  Fe  Fe33  1  0.17053168  0.83721306  0.50374196  1
  Fe  Fe34  1  0.00430132  0.67015116  0.67101237  1
  Fe  Fe35  1  0.17077640  0.83691592  0.83777507  1
  Fe  Fe36  1  0.50460545  0.17128569  0.50454425  1
  Fe  Fe37  1  0.33786794  0.00465115  0.67050565  1
  Fe  Fe38  1  0.50460553  0.17124154  0.83737245  1
  Fe  Fe39  1  0.50455586  0.50455586  0.50519585  1
  Ni  Ni40  1  0.33816252  0.33816252  0.67114112  1
  Ni  Ni41  1  0.50360732  0.50360732  0.83721720  1
  Ni  Ni42  1  0.50360677  0.83821036  0.50448052  1
  Fe  Fe43  1  0.33817404  0.67032111  0.67090849  1
  Fe  Fe44  1  0.50495333  0.83696274  0.83700668  1
  Fe  Fe45  1  0.83721306  0.17053168  0.50374196  1
  Fe  Fe46  1  0.67015116  0.00430132  0.67101237  1
  Fe  Fe47  1  0.83691592  0.17077640  0.83777507  1
  Ni  Ni48  1  0.83821036  0.50360677  0.50448052  1
  Fe  Fe49  1  0.67032111  0.33817404  0.67090849  1
  Fe  Fe50  1  0.83696274  0.50495333  0.83700668  1
  Fe  Fe51  1  0.83726530  0.83726530  0.50462396  1
  Fe  Fe52  1  0.67025409  0.67025409  0.67090863  1
  Ni  Ni53  1  0.83809262  0.83809262  0.83733177  1
" 