5991,Ni89Fe9Cr1_0,-240.061891805068, 187.480655726706,Ni89Fe9Cr1,"# generated using pymatgen
 data_Cr(FeNi12)2
_symmetry_space_group_name_H-M   'P 1'
_cell_length_a   7.44865344
_cell_length_b   7.44865344
_cell_length_c   10.53398672
_cell_angle_alpha   90.00000000
_cell_angle_beta   90.00000000
_cell_angle_gamma   90.00000000
_symmetry_Int_Tables_number   1
_chemical_formula_structural   Cr(FeNi12)2
_chemical_formula_sum   'Cr2 Fe4 Ni48'
_cell_volume   584.45126630
_cell_formula_units_Z   2
loop_
 _symmetry_equiv_pos_site_id
 _symmetry_equiv_pos_as_xyz
  1  'x, y, z'
loop_
 _atom_site_type_symbol
 _atom_site_label
 _atom_site_symmetry_multiplicity
 _atom_site_fract_x
 _atom_site_fract_y
 _atom_site_fract_z
 _atom_site_occupancy
  Fe  Fe0  1  0.00241404  1.00086292  0.00183320  1
  Ni  Ni1  1  0.16871213  0.16705061  0.16764653  1
  Ni  Ni2  1  0.00136214  1.00117048  0.33295718  1
  Ni  Ni3  1  1.00055544  0.33444440  1.00027622  1
  Cr  Cr4  1  0.16657233  0.50091890  0.16846053  1
  Ni  Ni5  1  1.00049078  0.33375353  0.33574213  1
  Ni  Ni6  1  1.00080920  0.66786048  1.00036041  1
  Ni  Ni7  1  0.16818396  0.83587756  0.16769505  1
  Ni  Ni8  1  1.00072417  0.66862994  0.33570805  1
  Ni  Ni9  1  0.33387772  1.00107126  0.00137533  1
  Ni  Ni10  1  0.50047689  0.16813569  0.16884047  1
  Ni  Ni11  1  0.33462581  1.00107244  0.33430362  1
  Ni  Ni12  1  0.33480054  0.33341988  1.00044910  1
  Fe  Fe13  1  0.50176595  0.50156351  0.16773276  1
  Ni  Ni14  1  0.33502687  0.33354796  0.33529663  1
  Ni  Ni15  1  0.33474326  0.66943229  0.99983631  1
  Ni  Ni16  1  0.50099170  0.83522230  0.16893813  1
  Ni  Ni17  1  0.33498262  0.66928705  0.33593382  1
  Cr  Cr18  1  0.66716447  1.00113733  1.00087346  1
  Ni  Ni19  1  0.83482713  0.16930026  0.16874048  1
  Ni  Ni20  1  0.66791453  0.00125388  0.33488070  1
  Ni  Ni21  1  0.66845746  0.33555126  0.00165765  1
  Ni  Ni22  1  0.83355994  0.50139075  0.16783598  1
  Ni  Ni23  1  0.66817519  0.33438646  0.33369742  1
  Ni  Ni24  1  0.66831484  0.66706484  0.00160430  1
  Ni  Ni25  1  0.83479298  0.83301224  0.16878610  1
  Ni  Ni26  1  0.66802709  0.66811860  0.33374317  1
  Ni  Ni27  1  0.16890608  0.16776195  0.50062950  1
  Ni  Ni28  1  0.00139328  0.00126083  0.66887098  1
  Ni  Ni29  1  0.16903811  0.16810281  0.83538009  1
  Ni  Ni30  1  0.16727763  0.50043867  0.50182442  1
  Ni  Ni31  1  0.00132520  0.33447211  0.66768451  1
  Ni  Ni32  1  0.16713001  0.50048714  0.83381876  1
  Ni  Ni33  1  0.16713371  0.83553356  0.50109824  1
  Ni  Ni34  1  0.00145011  0.66791848  0.66766259  1
  Ni  Ni35  1  0.16739829  0.83518608  0.83492040  1
  Ni  Ni36  1  0.50064410  0.16786725  0.50135531  1
  Ni  Ni37  1  0.33432371  1.00119469  0.66800207  1
  Ni  Ni38  1  0.49964681  0.16867944  0.83340728  1
  Ni  Ni39  1  0.50222737  0.50044555  0.50065199  1
  Ni  Ni40  1  0.33440745  0.33469861  0.66807064  1
  Ni  Ni41  1  0.50212079  0.50044147  0.83566775  1
  Ni  Ni42  1  0.50218249  0.83535599  0.50177911  1
  Ni  Ni43  1  0.33435449  0.66782551  0.66809439  1
  Ni  Ni44  1  0.50131461  0.83459745  0.83298255  1
  Fe  Fe45  1  0.83467384  0.16747536  0.50080660  1
  Ni  Ni46  1  0.66813844  0.00127159  0.66762042  1
  Fe  Fe47  1  0.83492592  0.16885908  0.83380536  1
  Ni  Ni48  1  0.83430592  0.50199955  0.50101132  1
  Ni  Ni49  1  0.66808410  0.33456845  0.66836161  1
  Ni  Ni50  1  0.83461257  0.50194233  0.83480567  1
  Ni  Ni51  1  0.83435023  0.83369476  0.50095500  1
  Ni  Ni52  1  0.66789860  0.66777851  0.66838526  1
  Ni  Ni53  1  0.83506242  0.83228147  0.83381893  1
" 