6838,Ni89Fe4Cr6_14,-237.770592967299, 177.054172644312,Ni89Fe4Cr6,"# generated using pymatgen
 data_Cr2FeNi24
_symmetry_space_group_name_H-M   'P 1'
_cell_length_a   7.45685969
_cell_length_b   7.45685969
_cell_length_c   10.54559210
_cell_angle_alpha   90.00000000
_cell_angle_beta   90.00000000
_cell_angle_gamma   90.00000000
_symmetry_Int_Tables_number   1
_chemical_formula_structural   Cr2FeNi24
_chemical_formula_sum   'Cr4 Fe2 Ni48'
_cell_volume   586.38507948
_cell_formula_units_Z   2
loop_
 _symmetry_equiv_pos_site_id
 _symmetry_equiv_pos_as_xyz
  1  'x, y, z'
loop_
 _atom_site_type_symbol
 _atom_site_label
 _atom_site_symmetry_multiplicity
 _atom_site_fract_x
 _atom_site_fract_y
 _atom_site_fract_z
 _atom_site_occupancy
  Ni  Ni0  1  0.00150100  0.99923151  0.99942286  1
  Cr  Cr1  1  0.16733358  0.16680391  0.16748252  1
  Ni  Ni2  1  0.99963290  0.99982917  0.33507297  1
  Fe  Fe3  1  1.00015819  0.33514451  0.99976196  1
  Ni  Ni4  1  0.16767249  0.50243470  0.16721702  1
  Ni  Ni5  1  0.99980856  0.33483726  0.33433808  1
  Ni  Ni6  1  0.00081481  0.66758829  1.00047633  1
  Ni  Ni7  1  0.16740471  0.83254741  0.16709611  1
  Ni  Ni8  1  1.00064267  0.66738624  0.33396757  1
  Ni  Ni9  1  0.33300944  1.00028317  0.99965138  1
  Ni  Ni10  1  0.50154848  0.16834383  0.16792537  1
  Ni  Ni11  1  0.33489135  1.00006100  0.33438461  1
  Ni  Ni12  1  0.33434282  0.33397891  1.00041887  1
  Ni  Ni13  1  0.50103156  0.50083160  0.16727688  1
  Ni  Ni14  1  0.33470344  0.33459305  0.33502743  1
  Ni  Ni15  1  0.33246198  0.66779048  0.00124704  1
  Ni  Ni16  1  0.50002245  0.83287409  0.16788695  1
  Ni  Ni17  1  0.33363720  0.66739476  0.33396692  1
  Cr  Cr18  1  0.66720123  0.00093811  0.00068425  1
  Ni  Ni19  1  0.83300705  0.16807331  0.16817264  1
  Ni  Ni20  1  0.66752620  0.00089588  0.33391358  1
  Ni  Ni21  1  0.66773202  0.33466766  0.00124517  1
  Ni  Ni22  1  0.83334545  0.50090713  0.16698505  1
  Ni  Ni23  1  0.66753521  0.33358432  0.33402276  1
  Ni  Ni24  1  0.66877158  0.66626729  0.00137820  1
  Ni  Ni25  1  0.83462028  0.83307064  0.16810241  1
  Ni  Ni26  1  0.66776881  0.66756863  0.33365851  1
  Ni  Ni27  1  0.16748573  0.16749412  0.50076456  1
  Fe  Fe28  1  0.00093550  0.00102316  0.66743743  1
  Ni  Ni29  1  0.16741612  0.16700281  0.83411903  1
  Ni  Ni30  1  0.16757931  0.50067898  0.50088619  1
  Ni  Ni31  1  0.00076745  0.33469183  0.66806139  1
  Ni  Ni32  1  0.16581117  0.50078116  0.83395039  1
  Ni  Ni33  1  0.16749795  0.83387833  0.50063600  1
  Ni  Ni34  1  0.00229928  0.66657941  0.66760467  1
  Ni  Ni35  1  0.16733922  0.83426846  0.83431481  1
  Ni  Ni36  1  0.50068664  0.16758185  0.50088579  1
  Ni  Ni37  1  0.33474691  0.00102079  0.66801998  1
  Ni  Ni38  1  0.49990435  0.16648593  0.83324111  1
  Ni  Ni39  1  0.49985841  0.49985603  0.49973519  1
  Ni  Ni40  1  0.33274231  0.33262879  0.66659719  1
  Cr  Cr41  1  0.50024786  0.50025788  0.83462379  1
  Ni  Ni42  1  0.49985315  0.83460985  0.50005605  1
  Ni  Ni43  1  0.33096872  0.66840192  0.66683006  1
  Ni  Ni44  1  0.49906843  0.83569935  0.83410830  1
  Ni  Ni45  1  0.83387924  0.16749960  0.50063732  1
  Ni  Ni46  1  0.66671992  0.00255428  0.66766064  1
  Ni  Ni47  1  0.83473391  0.16800532  0.83324468  1
  Ni  Ni48  1  0.83460959  0.49984576  0.50005641  1
  Ni  Ni49  1  0.66853866  0.33091828  0.66677298  1
  Ni  Ni50  1  0.83616721  0.49994625  0.83500950  1
  Ni  Ni51  1  0.83469858  0.83470417  0.49981153  1
  Cr  Cr52  1  0.66856511  0.66844940  0.66690616  1
  Ni  Ni53  1  0.83564253  0.83409810  0.83413410  1
" 