3355,Ni89Fe11_10,-228.305828863059, 155.834357120498,Ni89Fe11,"# generated using pymatgen
 data_Fe8Ni
_symmetry_space_group_name_H-M   'P 1'
_cell_length_a   7.40341583
_cell_length_b   7.40341583
_cell_length_c   10.47001107
_cell_angle_alpha   90.00000000
_cell_angle_beta   90.00000000
_cell_angle_gamma   90.00000000
_symmetry_Int_Tables_number   1
_chemical_formula_structural   Fe8Ni
_chemical_formula_sum   'Fe48 Ni6'
_cell_volume   573.86723241
_cell_formula_units_Z   6
loop_
 _symmetry_equiv_pos_site_id
 _symmetry_equiv_pos_as_xyz
  1  'x, y, z'
loop_
 _atom_site_type_symbol
 _atom_site_label
 _atom_site_symmetry_multiplicity
 _atom_site_fract_x
 _atom_site_fract_y
 _atom_site_fract_z
 _atom_site_occupancy
  Fe  Fe0  1  0.00439064  1.00354580  1.00400777  1
  Fe  Fe1  1  0.17070346  0.17181601  0.17125193  1
  Fe  Fe2  1  0.00430237  0.00487624  0.33782544  1
  Fe  Fe3  1  1.00392204  0.33861184  0.00524250  1
  Fe  Fe4  1  0.17047839  0.50364956  0.17160903  1
  Ni  Ni5  1  0.00442157  0.33786173  0.33752008  1
  Ni  Ni6  1  1.00387721  0.67106110  0.00486568  1
  Fe  Fe7  1  0.17076333  0.83743398  0.17048402  1
  Fe  Fe8  1  0.00431928  0.66981016  0.33697600  1
  Fe  Fe9  1  0.33726990  1.00385044  0.00470034  1
  Ni  Ni10  1  0.50399860  0.17014439  0.17072447  1
  Fe  Fe11  1  0.33735967  0.00513080  0.33713082  1
  Fe  Fe12  1  0.33737140  0.33789153  1.00375170  1
  Fe  Fe13  1  0.50498189  0.50367818  0.17086868  1
  Fe  Fe14  1  0.33705999  0.33753879  0.33837097  1
  Fe  Fe15  1  0.33693762  0.67113241  1.00420425  1
  Fe  Fe16  1  0.50494296  0.83762709  0.17108371  1
  Fe  Fe17  1  0.33669381  0.67021093  0.33811546  1
  Fe  Fe18  1  0.67122220  1.00395809  0.00449432  1
  Fe  Fe19  1  0.83723904  0.17185948  0.17135339  1
  Fe  Fe20  1  0.67122065  0.00523907  0.33745349  1
  Fe  Fe21  1  0.67160615  0.33826954  0.00491032  1
  Ni  Ni22  1  0.83859063  0.50491765  0.17108218  1
  Fe  Fe23  1  0.67163547  0.33753806  0.33682530  1
  Fe  Fe24  1  0.67192472  0.67065978  0.00449826  1
  Fe  Fe25  1  0.83718592  0.83742558  0.17058419  1
  Fe  Fe26  1  0.67189227  0.67011644  0.33743895  1
  Fe  Fe27  1  0.17086563  0.17214121  0.50438420  1
  Fe  Fe28  1  0.00485418  0.00493684  0.67106000  1
  Fe  Fe29  1  0.17125040  0.17118770  0.83723918  1
  Ni  Ni30  1  0.17050278  0.50440823  0.50451267  1
  Fe  Fe31  1  0.00516115  0.33784389  0.66992856  1
  Fe  Fe32  1  0.17104600  0.50428679  0.83689012  1
  Fe  Fe33  1  0.17095332  0.83705322  0.50429214  1
  Fe  Fe34  1  0.00521887  0.67011453  0.67142935  1
  Fe  Fe35  1  0.17057371  0.83742139  0.83812710  1
  Fe  Fe36  1  0.50337305  0.17180536  0.50401854  1
  Fe  Fe37  1  0.33772452  0.00487763  0.67105944  1
  Fe  Fe38  1  0.50399595  0.17127014  0.83800874  1
  Fe  Fe39  1  0.50332708  0.50418784  0.50487131  1
  Ni  Ni40  1  0.33773148  0.33740326  0.67040052  1
  Fe  Fe41  1  0.50399503  0.50399880  0.83714025  1
  Fe  Fe42  1  0.50375001  0.83689266  0.50427393  1
  Fe  Fe43  1  0.33741971  0.67008275  0.67057483  1
  Fe  Fe44  1  0.50438988  0.83762044  0.83753468  1
  Fe  Fe45  1  0.83865568  0.17171683  0.50409934  1
  Fe  Fe46  1  0.67031362  0.00495316  0.67094284  1
  Fe  Fe47  1  0.83764565  0.17079409  0.83743688  1
  Fe  Fe48  1  0.83849652  0.50410085  0.50325289  1
  Fe  Fe49  1  0.67030274  0.33754181  0.67115777  1
  Fe  Fe50  1  0.83784298  0.50467456  0.83877370  1
  Fe  Fe51  1  0.83818882  0.83707325  0.50450777  1
  Fe  Fe52  1  0.67024701  0.67039738  0.67096156  1
  Fe  Fe53  1  0.83792590  0.83742363  0.83781132  1
" 