7171,Ni89Fe7Cr3_12,-238.89276118996, 181.90646795054,Ni89Fe7Cr3,"# generated using pymatgen
 data_CrFeNi16
_symmetry_space_group_name_H-M   'P 1'
_cell_length_a   7.45434497
_cell_length_b   7.45434497
_cell_length_c   10.54203576
_cell_angle_alpha   90.00000000
_cell_angle_beta   90.00000000
_cell_angle_gamma   90.00000000
_symmetry_Int_Tables_number   1
_chemical_formula_structural   CrFeNi16
_chemical_formula_sum   'Cr3 Fe3 Ni48'
_cell_volume   585.79203153
_cell_formula_units_Z   3
loop_
 _symmetry_equiv_pos_site_id
 _symmetry_equiv_pos_as_xyz
  1  'x, y, z'
loop_
 _atom_site_type_symbol
 _atom_site_label
 _atom_site_symmetry_multiplicity
 _atom_site_fract_x
 _atom_site_fract_y
 _atom_site_fract_z
 _atom_site_occupancy
  Ni  Ni0  1  0.00371473  0.99994619  0.99990698  1
  Ni  Ni1  1  0.16992085  0.16749901  0.16752274  1
  Ni  Ni2  1  0.00165958  1.00007100  0.33495672  1
  Ni  Ni3  1  0.00193924  0.33514810  1.00005960  1
  Ni  Ni4  1  0.16701384  0.50098225  0.16751838  1
  Ni  Ni5  1  0.00165665  0.33486552  0.33502922  1
  Ni  Ni6  1  1.00081958  0.66746219  0.00103880  1
  Ni  Ni7  1  0.16784062  0.83407399  0.16703274  1
  Ni  Ni8  1  1.00061742  0.66761883  0.33394446  1
  Ni  Ni9  1  0.33245074  0.00106089  0.00122299  1
  Ni  Ni10  1  0.49829986  0.16772543  0.16832304  1
  Ni  Ni11  1  0.33429873  0.00118565  0.33350507  1
  Ni  Ni12  1  0.33395566  0.33376816  1.00078343  1
  Fe  Fe13  1  0.50059688  0.50120556  0.16750943  1
  Ni  Ni14  1  0.33410924  0.33356118  0.33420328  1
  Ni  Ni15  1  0.33396065  0.66772910  1.00050454  1
  Ni  Ni16  1  0.50012887  0.83410079  0.16854661  1
  Ni  Ni17  1  0.33403460  0.66780947  0.33437681  1
  Cr  Cr18  1  0.66652811  0.99985262  0.99977999  1
  Cr  Cr19  1  0.83459129  0.16844398  0.16823957  1
  Ni  Ni20  1  0.66659725  1.00014343  0.33529892  1
  Ni  Ni21  1  0.66666028  0.33666104  0.99999349  1
  Ni  Ni22  1  0.83436094  0.50281503  0.16752288  1
  Ni  Ni23  1  0.66678794  0.33460420  0.33487290  1
  Ni  Ni24  1  0.66777414  0.66595480  0.00097197  1
  Ni  Ni25  1  0.83458928  0.83119805  0.16832345  1
  Ni  Ni26  1  0.66790276  0.66780796  0.33375925  1
  Ni  Ni27  1  0.16715700  0.16810318  0.49955903  1
  Ni  Ni28  1  0.99900038  1.00078088  0.66769383  1
  Ni  Ni29  1  0.16754175  0.16808804  0.83547236  1
  Ni  Ni30  1  0.16789765  0.50102187  0.50128467  1
  Ni  Ni31  1  1.00076817  0.33436011  0.66746759  1
  Ni  Ni32  1  0.16745816  0.50058219  0.83375309  1
  Ni  Ni33  1  0.16602537  0.83343006  0.49999324  1
  Ni  Ni34  1  1.00069471  0.66741638  0.66757143  1
  Ni  Ni35  1  0.16641310  0.83388575  0.83552829  1
  Ni  Ni36  1  0.50186892  0.16892662  0.49980567  1
  Cr  Cr37  1  0.33421175  1.00081702  0.66767941  1
  Ni  Ni38  1  0.50045890  0.16913471  0.83442260  1
  Ni  Ni39  1  0.50088489  0.49995078  0.50081744  1
  Ni  Ni40  1  0.33421590  0.33587063  0.66757175  1
  Ni  Ni41  1  0.50133947  0.50033635  0.83470557  1
  Fe  Fe42  1  0.50171997  0.83324897  0.49993307  1
  Ni  Ni43  1  0.33414241  0.66575331  0.66767677  1
  Ni  Ni44  1  0.50133771  0.83308473  0.83376843  1
  Ni  Ni45  1  0.83353052  0.16706030  0.50144489  1
  Ni  Ni46  1  0.66923345  0.00085300  0.66738875  1
  Fe  Fe47  1  0.83506863  0.16834414  0.83294266  1
  Ni  Ni48  1  0.83377425  0.50108127  0.50061031  1
  Ni  Ni49  1  0.66757414  0.33417785  0.66769450  1
  Ni  Ni50  1  0.83375905  0.50146482  0.83442100  1
  Ni  Ni51  1  0.83459672  0.83441439  0.50060548  1
  Ni  Ni52  1  0.66771875  0.66752538  0.66782654  1
  Ni  Ni53  1  0.83480808  0.83300242  0.83362392  1
" 