7680,Ni89Fe9Cr1_2,-240.129878812449, 186.4280490348,Ni89Fe9Cr1,"# generated using pymatgen
 data_Cr(FeNi12)2
_symmetry_space_group_name_H-M   'P 1'
_cell_length_a   7.44853706
_cell_length_b   7.44853706
_cell_length_c   10.53382213
_cell_angle_alpha   90.00000000
_cell_angle_beta   90.00000000
_cell_angle_gamma   90.00000000
_symmetry_Int_Tables_number   1
_chemical_formula_structural   Cr(FeNi12)2
_chemical_formula_sum   'Cr2 Fe4 Ni48'
_cell_volume   584.42387154
_cell_formula_units_Z   2
loop_
 _symmetry_equiv_pos_site_id
 _symmetry_equiv_pos_as_xyz
  1  'x, y, z'
loop_
 _atom_site_type_symbol
 _atom_site_label
 _atom_site_symmetry_multiplicity
 _atom_site_fract_x
 _atom_site_fract_y
 _atom_site_fract_z
 _atom_site_occupancy
  Ni  Ni0  1  0.99953740  0.00161653  0.00209873  1
  Ni  Ni1  1  0.16708548  0.16863175  0.16813493  1
  Fe  Fe2  1  0.00184806  0.00165652  0.33467469  1
  Ni  Ni3  1  1.00112561  0.33473210  1.00056717  1
  Ni  Ni4  1  0.16804107  0.50172166  0.16728548  1
  Ni  Ni5  1  0.00127877  0.33458326  0.33463376  1
  Ni  Ni6  1  1.00086374  0.66736111  0.00233984  1
  Ni  Ni7  1  0.16698294  0.83336246  0.16888955  1
  Fe  Fe8  1  0.00179161  0.66739689  0.33473791  1
  Cr  Cr9  1  0.33364459  1.00015422  0.00248567  1
  Ni  Ni10  1  0.50211117  0.16885376  0.16912717  1
  Ni  Ni11  1  0.33573739  1.00105325  0.33480693  1
  Ni  Ni12  1  0.33284525  0.33698166  0.00282124  1
  Ni  Ni13  1  0.50100731  0.50136611  0.16766758  1
  Ni  Ni14  1  0.33193218  0.33463236  0.33436643  1
  Ni  Ni15  1  0.33464636  0.66623190  0.00164421  1
  Ni  Ni16  1  0.50220930  0.83347824  0.16758365  1
  Ni  Ni17  1  0.33600158  0.66804634  0.33435909  1
  Ni  Ni18  1  0.67081867  0.99989451  0.00237090  1
  Ni  Ni19  1  0.83436795  0.16757610  0.16740299  1
  Ni  Ni20  1  0.66777076  0.99969677  0.33436592  1
  Ni  Ni21  1  0.66971904  0.33569989  0.00355416  1
  Ni  Ni22  1  0.83453612  0.50176652  0.16789116  1
  Fe  Fe23  1  0.66677040  0.33492506  0.33474377  1
  Ni  Ni24  1  0.66827144  0.66798838  0.00124804  1
  Ni  Ni25  1  0.83476101  0.83440529  0.16772857  1
  Ni  Ni26  1  0.66780900  0.66925285  0.33463948  1
  Ni  Ni27  1  0.16819118  0.16771268  0.50197907  1
  Ni  Ni28  1  1.00095088  0.00162503  0.66721467  1
  Ni  Ni29  1  0.16587565  0.16810616  0.83361262  1
  Ni  Ni30  1  0.16821176  0.50170849  0.50170347  1
  Ni  Ni31  1  1.00108687  0.33475546  0.66853044  1
  Ni  Ni32  1  0.16828682  0.50228275  0.83473633  1
  Ni  Ni33  1  0.16803411  0.83432969  0.50115335  1
  Ni  Ni34  1  1.00082932  0.66732006  0.66674568  1
  Ni  Ni35  1  0.16538590  0.83325437  0.83362336  1
  Ni  Ni36  1  0.50106265  0.16781915  0.50091107  1
  Ni  Ni37  1  0.33350497  1.00024946  0.66615757  1
  Cr  Cr38  1  0.50269774  0.17048376  0.83345189  1
  Ni  Ni39  1  0.50082801  0.50132403  0.50131551  1
  Ni  Ni40  1  0.33285043  0.33558770  0.66649945  1
  Ni  Ni41  1  0.50135882  0.50177199  0.83474711  1
  Ni  Ni42  1  0.50126052  0.83450830  0.50237969  1
  Ni  Ni43  1  0.33464499  0.66776779  0.66771611  1
  Fe  Fe44  1  0.50203121  0.83257558  0.83374359  1
  Ni  Ni45  1  0.83429665  0.16745738  0.50167328  1
  Ni  Ni46  1  0.66929810  0.99987274  0.66698870  1
  Ni  Ni47  1  0.83543020  0.16727920  0.83474350  1
  Ni  Ni48  1  0.83454528  0.50178214  0.50135747  1
  Ni  Ni49  1  0.66971656  0.33568450  0.66556888  1
  Ni  Ni50  1  0.83408624  0.50190507  0.83450097  1
  Ni  Ni51  1  0.83472014  0.83451087  0.50128863  1
  Ni  Ni52  1  0.66830893  0.66793949  0.66784585  1
  Ni  Ni53  1  0.83609030  0.83441907  0.83474116  1
" 