1820,Ni89Fe8Cr1_4,-239.968902595731, 186.442495349583,Ni89Fe8Cr1,"# generated using pymatgen
 data_Cr(FeNi12)2
_symmetry_space_group_name_H-M   'P 1'
_cell_length_a   7.44714780
_cell_length_b   7.44714780
_cell_length_c   10.53185742
_cell_angle_alpha   90.00000000
_cell_angle_beta   90.00000000
_cell_angle_gamma   90.00000000
_symmetry_Int_Tables_number   1
_chemical_formula_structural   Cr(FeNi12)2
_chemical_formula_sum   'Cr2 Fe4 Ni48'
_cell_volume   584.09692171
_cell_formula_units_Z   2
loop_
 _symmetry_equiv_pos_site_id
 _symmetry_equiv_pos_as_xyz
  1  'x, y, z'
loop_
 _atom_site_type_symbol
 _atom_site_label
 _atom_site_symmetry_multiplicity
 _atom_site_fract_x
 _atom_site_fract_y
 _atom_site_fract_z
 _atom_site_occupancy
  Ni  Ni0  1  0.00150802  0.00135649  0.00200435  1
  Ni  Ni1  1  0.16657650  0.16755454  0.16783917  1
  Fe  Fe2  1  0.00150940  0.00197234  0.33446220  1
  Ni  Ni3  1  0.00144250  0.33481212  1.00068738  1
  Ni  Ni4  1  0.16735026  0.50129431  0.16761903  1
  Ni  Ni5  1  1.00119802  0.33524694  0.33508148  1
  Ni  Ni6  1  0.00161685  0.66770072  0.00134366  1
  Ni  Ni7  1  0.16927786  0.83518623  0.16770964  1
  Ni  Ni8  1  0.00168172  0.66702744  0.33473598  1
  Ni  Ni9  1  0.33380043  1.00021651  0.00193032  1
  Fe  Fe10  1  0.50056142  0.16861655  0.16843402  1
  Ni  Ni11  1  0.33542578  1.00108479  0.33502836  1
  Ni  Ni12  1  0.33342324  0.33589483  0.00292030  1
  Ni  Ni13  1  0.50216408  0.50273295  0.16774771  1
  Ni  Ni14  1  0.33408531  0.33471298  0.33449306  1
  Ni  Ni15  1  0.33463663  0.66803307  1.00102289  1
  Ni  Ni16  1  0.50105114  0.83452559  0.16736168  1
  Ni  Ni17  1  0.33450101  0.66830859  0.33482158  1
  Ni  Ni18  1  0.66882148  1.00016774  0.00224766  1
  Ni  Ni19  1  0.83514444  0.16864911  0.16706600  1
  Ni  Ni20  1  0.66742407  0.00141878  0.33465569  1
  Ni  Ni21  1  0.66906607  0.33579880  0.00256196  1
  Ni  Ni22  1  0.83448612  0.50000007  0.16805969  1
  Ni  Ni23  1  0.66860365  0.33428774  0.33475926  1
  Ni  Ni24  1  0.66788431  0.66798291  0.00147008  1
  Fe  Fe25  1  0.83536605  0.83324267  0.16784454  1
  Ni  Ni26  1  0.66798331  0.66828609  0.33472115  1
  Ni  Ni27  1  0.16884317  0.16892341  0.50038655  1
  Cr  Cr28  1  1.00131293  1.00091082  0.66759622  1
  Ni  Ni29  1  0.16766169  0.16870202  0.83587923  1
  Ni  Ni30  1  0.16749590  0.50128682  0.50126853  1
  Ni  Ni31  1  0.00153548  0.33643657  0.66826120  1
  Ni  Ni32  1  0.16738371  0.50098415  0.83513063  1
  Ni  Ni33  1  0.16906941  0.83382390  0.50038510  1
  Ni  Ni34  1  1.00119999  0.66655468  0.66788478  1
  Ni  Ni35  1  0.16860371  0.83435703  0.83588703  1
  Ni  Ni36  1  0.50154655  0.16771573  0.50032826  1
  Ni  Ni37  1  0.33543092  1.00050568  0.66701513  1
  Cr  Cr38  1  0.50053532  0.16790003  0.83522614  1
  Ni  Ni39  1  0.50186489  0.50144327  0.50126763  1
  Ni  Ni40  1  0.33366285  0.33559223  0.66659185  1
  Ni  Ni41  1  0.50219065  0.50274099  0.83501636  1
  Ni  Ni42  1  0.50152829  0.83489262  0.50229033  1
  Ni  Ni43  1  0.33448113  0.66793544  0.66815658  1
  Ni  Ni44  1  0.50184781  0.83351373  0.83436997  1
  Ni  Ni45  1  0.83362392  0.16923949  0.50152222  1
  Ni  Ni46  1  0.66732480  1.00009080  0.66704128  1
  Fe  Fe47  1  0.83501249  0.16883238  0.83565488  1
  Ni  Ni48  1  0.83464341  0.50129255  0.50125031  1
  Ni  Ni49  1  0.66885464  0.33565320  0.66667195  1
  Ni  Ni50  1  0.83449724  0.50198521  0.83473043  1
  Ni  Ni51  1  0.83345774  0.83358689  0.49929359  1
  Ni  Ni52  1  0.66833381  0.66827967  0.66777244  1
  Ni  Ni53  1  0.83361558  0.83285752  0.83664025  1
" 