8089,Ni89Fe9Cr1_14,-239.987340728586, 186.826305447867,Ni89Fe9Cr1,"# generated using pymatgen
 data_Cr(FeNi12)2
_symmetry_space_group_name_H-M   'P 1'
_cell_length_a   7.44747582
_cell_length_b   7.44747582
_cell_length_c   10.53232131
_cell_angle_alpha   90.00000000
_cell_angle_beta   90.00000000
_cell_angle_gamma   90.00000000
_symmetry_Int_Tables_number   1
_chemical_formula_structural   Cr(FeNi12)2
_chemical_formula_sum   'Cr2 Fe4 Ni48'
_cell_volume   584.17410621
_cell_formula_units_Z   2
loop_
 _symmetry_equiv_pos_site_id
 _symmetry_equiv_pos_as_xyz
  1  'x, y, z'
loop_
 _atom_site_type_symbol
 _atom_site_label
 _atom_site_symmetry_multiplicity
 _atom_site_fract_x
 _atom_site_fract_y
 _atom_site_fract_z
 _atom_site_occupancy
  Fe  Fe0  1  0.00326440  1.00046358  1.00126466  1
  Ni  Ni1  1  0.16790031  0.16819558  0.16805362  1
  Ni  Ni2  1  1.00064600  1.00093415  0.33356700  1
  Ni  Ni3  1  0.00155900  0.33551884  0.00164460  1
  Ni  Ni4  1  0.16758459  0.50082399  0.16835463  1
  Ni  Ni5  1  1.00117100  0.33553687  0.33479433  1
  Ni  Ni6  1  1.00131110  0.66634844  1.00120599  1
  Ni  Ni7  1  0.16793984  0.83477140  0.16796980  1
  Ni  Ni8  1  0.00200435  0.66748449  0.33455538  1
  Ni  Ni9  1  0.33508855  0.00150230  0.00163689  1
  Ni  Ni10  1  0.50018487  0.16890050  0.16902235  1
  Ni  Ni11  1  0.33452322  0.00202164  0.33321840  1
  Ni  Ni12  1  0.33317618  0.33476462  0.00163557  1
  Ni  Ni13  1  0.50131471  0.50123306  0.16819968  1
  Ni  Ni14  1  0.33467206  0.33516482  0.33455983  1
  Ni  Ni15  1  0.33434811  0.66775562  1.00123281  1
  Ni  Ni16  1  0.50075411  0.83394350  0.16932589  1
  Ni  Ni17  1  0.33239197  0.66669746  0.33349751  1
  Cr  Cr18  1  0.66768972  0.00143806  1.00086710  1
  Ni  Ni19  1  0.83601160  0.16910419  0.16906732  1
  Ni  Ni20  1  0.66887965  0.00287441  0.33416540  1
  Fe  Fe21  1  0.66701852  0.33665173  0.00136476  1
  Ni  Ni22  1  0.83487208  0.50123632  0.16782671  1
  Ni  Ni23  1  0.66813828  0.33347840  0.33354837  1
  Ni  Ni24  1  0.66842681  0.66819400  0.00199877  1
  Ni  Ni25  1  0.83561434  0.83356744  0.16918093  1
  Fe  Fe26  1  0.66876474  0.66664665  0.33405312  1
  Ni  Ni27  1  0.16845166  0.16765188  0.50096945  1
  Ni  Ni28  1  1.00090891  1.00126419  0.66872013  1
  Ni  Ni29  1  0.16796942  0.16827571  0.83484841  1
  Ni  Ni30  1  0.16748682  0.50074286  0.50140342  1
  Ni  Ni31  1  0.00142582  0.33522742  0.66748221  1
  Ni  Ni32  1  0.16752058  0.50067305  0.83414536  1
  Ni  Ni33  1  0.16588126  0.83550525  0.50139923  1
  Ni  Ni34  1  0.00137155  0.66747386  0.66813392  1
  Ni  Ni35  1  0.16798657  0.83484577  0.83444268  1
  Ni  Ni36  1  0.50065312  0.16969249  0.50139628  1
  Ni  Ni37  1  0.33416274  0.00239719  0.66914134  1
  Ni  Ni38  1  0.50000095  0.16907088  0.83343813  1
  Ni  Ni39  1  0.50195354  0.49887658  0.50145601  1
  Ni  Ni40  1  0.33436948  0.33486093  0.66775512  1
  Ni  Ni41  1  0.50154896  0.50142421  0.83450615  1
  Cr  Cr42  1  0.50117259  0.83497076  0.50147027  1
  Ni  Ni43  1  0.33332462  0.66665834  0.66915083  1
  Ni  Ni44  1  0.50078764  0.83379002  0.83336437  1
  Fe  Fe45  1  0.83507861  0.16843708  0.50126875  1
  Ni  Ni46  1  0.66892307  0.00228585  0.66851465  1
  Ni  Ni47  1  0.83610273  0.16938620  0.83329421  1
  Ni  Ni48  1  0.83448836  0.50162589  0.50139439  1
  Ni  Ni49  1  0.66814904  0.33443111  0.66909191  1
  Ni  Ni50  1  0.83467194  0.50138235  0.83492632  1
  Ni  Ni51  1  0.83654319  0.83410906  0.50133101  1
  Ni  Ni52  1  0.66925950  0.66728668  0.66864900  1
  Ni  Ni53  1  0.83551259  0.83335771  0.83345037  1
" 