6214,Ni89Fe11_14,-228.243369931953, 155.178434475391,Ni89Fe11,"# generated using pymatgen
 data_Fe8Ni
_symmetry_space_group_name_H-M   'P 1'
_cell_length_a   7.40550270
_cell_length_b   7.40550270
_cell_length_c   10.47296236
_cell_angle_alpha   90.00000000
_cell_angle_beta   90.00000000
_cell_angle_gamma   90.00000000
_symmetry_Int_Tables_number   1
_chemical_formula_structural   Fe8Ni
_chemical_formula_sum   'Fe48 Ni6'
_cell_volume   574.35265410
_cell_formula_units_Z   6
loop_
 _symmetry_equiv_pos_site_id
 _symmetry_equiv_pos_as_xyz
  1  'x, y, z'
loop_
 _atom_site_type_symbol
 _atom_site_label
 _atom_site_symmetry_multiplicity
 _atom_site_fract_x
 _atom_site_fract_y
 _atom_site_fract_z
 _atom_site_occupancy
  Fe  Fe0  1  0.00433365  1.00415511  1.00377422  1
  Fe  Fe1  1  0.17151619  0.17151888  0.17100602  1
  Fe  Fe2  1  1.00364104  1.00355012  0.33739439  1
  Fe  Fe3  1  1.00350272  0.33739760  1.00359521  1
  Fe  Fe4  1  0.17147090  0.50397421  0.17091159  1
  Fe  Fe5  1  1.00354496  0.33800269  0.33758002  1
  Fe  Fe6  1  0.00433507  0.67091380  1.00349749  1
  Fe  Fe7  1  0.17142499  0.83697307  0.17012327  1
  Fe  Fe8  1  1.00359528  0.67091305  0.33757999  1
  Fe  Fe9  1  0.33702993  1.00378514  1.00396384  1
  Fe  Fe10  1  0.50397697  0.17137944  0.17082059  1
  Fe  Fe11  1  0.33791160  1.00354783  0.33748883  1
  Fe  Fe12  1  0.33786222  0.33777070  0.00470879  1
  Ni  Ni13  1  0.50437831  0.50427457  0.17148209  1
  Fe  Fe14  1  0.33837466  0.33837194  0.33720994  1
  Fe  Fe15  1  0.33740129  0.67091096  1.00415300  1
  Fe  Fe16  1  0.50453069  0.83664951  0.17119221  1
  Fe  Fe17  1  0.33832790  0.67054553  0.33720947  1
  Fe  Fe18  1  0.67110434  0.00461723  1.00326756  1
  Fe  Fe19  1  0.83697277  0.17133383  0.17021434  1
  Fe  Fe20  1  0.67091325  1.00359892  0.33818600  1
  Fe  Fe21  1  0.67109675  0.33776841  1.00387732  1
  Fe  Fe22  1  0.83664918  0.50452857  0.17058678  1
  Fe  Fe23  1  0.67054618  0.33841909  0.33711881  1
  Fe  Fe24  1  0.67073198  0.67007927  0.00503351  1
  Fe  Fe25  1  0.83651139  0.83660523  0.17137374  1
  Ni  Ni26  1  0.67070159  0.67081107  0.33747618  1
  Fe  Fe27  1  0.17091224  0.17100428  0.50387988  1
  Fe  Fe28  1  1.00368636  0.00415560  0.67129414  1
  Fe  Fe29  1  0.16965649  0.17095979  0.83757996  1
  Fe  Fe30  1  0.17082082  0.50397405  0.50416000  1
  Fe  Fe31  1  1.00290075  0.33688531  0.67128941  1
  Fe  Fe32  1  0.16956420  0.50411162  0.83739450  1
  Fe  Fe33  1  0.17082112  0.83748772  0.50476284  1
  Fe  Fe34  1  1.00372922  0.67142611  0.67138666  1
  Ni  Ni35  1  0.17165783  0.83791758  0.83706136  1
  Fe  Fe36  1  0.50425527  0.17045145  0.50452719  1
  Fe  Fe37  1  0.33776876  1.00378686  0.67101165  1
  Fe  Fe38  1  0.50499080  0.17045161  0.83711886  1
  Fe  Fe39  1  0.50425591  0.50443606  0.50308919  1
  Fe  Fe40  1  0.33818583  0.33688704  0.67054942  1
  Fe  Fe41  1  0.50461920  0.50415795  0.83818630  1
  Fe  Fe42  1  0.50480821  0.83757770  0.50415550  1
  Fe  Fe43  1  0.33772685  0.67179330  0.67110364  1
  Fe  Fe44  1  0.50509252  0.83785524  0.83711973  1
  Fe  Fe45  1  0.83729903  0.17045206  0.50504108  1
  Ni  Ni46  1  0.67104633  1.00406447  0.67104462  1
  Ni  Ni47  1  0.83711691  0.17183206  0.83704952  1
  Fe  Fe48  1  0.83738847  0.50452798  0.50439120  1
  Fe  Fe49  1  0.67137551  0.33684121  0.67147087  1
  Ni  Ni50  1  0.83670230  0.50269947  0.83748850  1
  Fe  Fe51  1  0.83683728  0.83748674  0.50388250  1
  Fe  Fe52  1  0.67101162  0.67100456  0.67031471  1
  Fe  Fe53  1  0.83777327  0.83776534  0.83721044  1
" 