1350,Ni89Cr11_9,-203.512175995106, 182.04478909105,Ni89Cr11,"# generated using pymatgen
 data_Cr8Ni
_symmetry_space_group_name_H-M   'P 1'
_cell_length_a   7.59414689
_cell_length_b   7.59414689
_cell_length_c   10.73974553
_cell_angle_alpha   90.00000000
_cell_angle_beta   90.00000000
_cell_angle_gamma   90.00000000
_symmetry_Int_Tables_number   1
_chemical_formula_structural   Cr8Ni
_chemical_formula_sum   'Cr48 Ni6'
_cell_volume   619.37258391
_cell_formula_units_Z   6
loop_
 _symmetry_equiv_pos_site_id
 _symmetry_equiv_pos_as_xyz
  1  'x, y, z'
loop_
 _atom_site_type_symbol
 _atom_site_label
 _atom_site_symmetry_multiplicity
 _atom_site_fract_x
 _atom_site_fract_y
 _atom_site_fract_z
 _atom_site_occupancy
  Cr  Cr0  1  0.99023922  -0.00836765  -0.00803057  1
  Cr  Cr1  1  0.15834568  0.15834114  0.15829810  1
  Cr  Cr2  1  0.99103196  -0.00743995  0.32627347  1
  Cr  Cr3  1  -0.00710383  0.32556086  0.99109950  1
  Cr  Cr4  1  0.15988214  0.49216665  0.15922210  1
  Cr  Cr5  1  0.99103588  0.32370287  0.32549699  1
  Cr  Cr6  1  -0.00821101  0.65770150  0.98998337  1
  Cr  Cr7  1  0.15887589  0.82438791  0.15994489  1
  Cr  Cr8  1  -0.00742503  0.65863065  0.32496440  1
  Cr  Cr9  1  0.32624746  -0.00781740  0.99107380  1
  Cr  Cr10  1  0.49216409  0.15882377  0.15665055  1
  Cr  Cr11  1  0.32452670  0.99046355  0.32552271  1
  Cr  Cr12  1  0.32467655  0.32609457  0.99163085  1
  Ni  Ni13  1  0.49068979  0.49257143  0.15933244  1
  Cr  Cr14  1  0.32560970  0.32688752  0.32331666  1
  Cr  Cr15  1  0.32523279  0.65661920  0.99145538  1
  Cr  Cr16  1  0.49162827  0.82391400  0.15829694  1
  Ni  Ni17  1  0.32562648  0.65745057  0.32411978  1
  Ni  Ni18  1  0.65853037  0.99158813  0.99153677  1
  Cr  Cr19  1  0.82438525  0.15781419  0.15737253  1
  Cr  Cr20  1  0.65933758  -0.00799563  0.32566950  1
  Cr  Cr21  1  0.65732364  0.32455018  -0.00710782  1
  Cr  Cr22  1  0.82390614  0.49163119  0.15829864  1
  Cr  Cr23  1  0.65825035  0.32534150  0.32534754  1
  Cr  Cr24  1  0.65787395  0.65927492  -0.00727990  1
  Cr  Cr25  1  0.82438905  0.82545099  0.15664846  1
  Cr  Cr26  1  0.65615111  0.65754820  0.32387459  1
  Cr  Cr27  1  0.15713021  0.15786003  0.49107415  1
  Cr  Cr28  1  0.99105458  -0.00779077  0.65665196  1
  Cr  Cr29  1  0.15884926  0.15958079  0.82552306  1
  Cr  Cr30  1  0.15867104  0.49267091  0.49092735  1
  Cr  Cr31  1  0.99058067  0.32496160  0.65829991  1
  Ni  Ni32  1  0.15825480  0.49186371  0.82506008  1
  Cr  Cr33  1  0.15922672  0.82436529  0.49032338  1
  Cr  Cr34  1  -0.00788234  0.65772239  0.65994840  1
  Cr  Cr35  1  0.15829902  0.82357256  0.82462743  1
  Cr  Cr36  1  0.49355419  0.15894303  0.49328020  1
  Cr  Cr37  1  0.32500781  -0.00832099  0.65829875  1
  Cr  Cr38  1  0.49276124  0.15800989  0.82496601  1
  Cr  Cr39  1  0.49200817  0.49158368  0.49124931  1
  Cr  Cr40  1  0.32549043  0.32549743  0.65994631  1
  Cr  Cr41  1  0.49121684  0.49065697  0.82370467  1
  Cr  Cr42  1  0.49036954  0.82436922  0.49109987  1
  Cr  Cr43  1  0.32448086  0.65771859  0.65922432  1
  Cr  Cr44  1  0.49222752  0.82622950  0.82549736  1
  Ni  Ni45  1  0.82411724  0.15895982  0.49247708  1
  Cr  Cr46  1  0.65883332  -0.00678453  0.65737475  1
  Cr  Cr47  1  0.82328587  0.15856613  0.82514148  1
  Cr  Cr48  1  0.82421486  0.48948444  0.49272227  1
  Ni  Ni49  1  0.65923810  0.32402313  0.65726441  1
  Cr  Cr50  1  0.82594159  0.49120729  0.82387676  1
  Cr  Cr51  1  0.82529732  0.82590830  0.49163246  1
  Cr  Cr52  1  0.65829785  0.65723947  0.65829822  1
  Cr  Cr53  1  0.82436817  0.82512233  0.82661349  1
" 