424,Ni89Fe9Cr1_16,-240.047219502248, 187.020649512928,Ni89Fe9Cr1,"# generated using pymatgen
 data_Cr(FeNi12)2
_symmetry_space_group_name_H-M   'P 1'
_cell_length_a   7.44808260
_cell_length_b   7.44808260
_cell_length_c   10.53317943
_cell_angle_alpha   90.00000000
_cell_angle_beta   90.00000000
_cell_angle_gamma   90.00000000
_symmetry_Int_Tables_number   1
_chemical_formula_structural   Cr(FeNi12)2
_chemical_formula_sum   'Cr2 Fe4 Ni48'
_cell_volume   584.31690529
_cell_formula_units_Z   2
loop_
 _symmetry_equiv_pos_site_id
 _symmetry_equiv_pos_as_xyz
  1  'x, y, z'
loop_
 _atom_site_type_symbol
 _atom_site_label
 _atom_site_symmetry_multiplicity
 _atom_site_fract_x
 _atom_site_fract_y
 _atom_site_fract_z
 _atom_site_occupancy
  Fe  Fe0  1  0.00261232  1.00066242  0.00199290  1
  Ni  Ni1  1  0.16805594  0.16755250  0.16759572  1
  Ni  Ni2  1  0.00147052  0.00157418  0.33400935  1
  Ni  Ni3  1  0.00215034  0.33666017  0.00217945  1
  Ni  Ni4  1  0.16836159  0.50176404  0.16750349  1
  Ni  Ni5  1  0.99990832  0.33506982  0.33471956  1
  Ni  Ni6  1  0.00299779  0.66684519  0.00143585  1
  Ni  Ni7  1  0.16800754  0.83438036  0.16761605  1
  Ni  Ni8  1  0.00263215  0.66715411  0.33447441  1
  Ni  Ni9  1  0.33547650  1.00125331  0.00136136  1
  Ni  Ni10  1  0.50141784  0.16802389  0.16760945  1
  Ni  Ni11  1  0.33521313  0.99991932  0.33473344  1
  Ni  Ni12  1  0.33412848  0.33412036  0.00213940  1
  Ni  Ni13  1  0.50000731  0.50031214  0.16891183  1
  Fe  Fe14  1  0.33352514  0.33351350  0.33477721  1
  Ni  Ni15  1  0.33230122  0.66842083  0.00129250  1
  Ni  Ni16  1  0.50012987  0.83543336  0.16820370  1
  Ni  Ni17  1  0.33385745  0.66896523  0.33407113  1
  Ni  Ni18  1  0.66588817  0.00225855  0.00244867  1
  Ni  Ni19  1  0.83432847  0.16766232  0.16741613  1
  Ni  Ni20  1  0.66715621  0.00265248  0.33446372  1
  Ni  Ni21  1  0.66754842  0.33343609  0.00211877  1
  Ni  Ni22  1  0.83538292  0.50046378  0.16835396  1
  Ni  Ni23  1  0.66894914  0.33374035  0.33407032  1
  Cr  Cr24  1  0.66828523  0.66785585  0.00192430  1
  Ni  Ni25  1  0.83580968  0.83578599  0.16875157  1
  Fe  Fe26  1  0.66870314  0.66874801  0.33504157  1
  Ni  Ni27  1  0.16783454  0.16732174  0.50172154  1
  Ni  Ni28  1  0.00244570  1.00038863  0.66697300  1
  Ni  Ni29  1  0.17040132  0.16774296  0.83441839  1
  Ni  Ni30  1  0.16839091  0.50197263  0.50171130  1
  Ni  Ni31  1  0.00220016  0.33584430  0.66695931  1
  Ni  Ni32  1  0.16881948  0.50173552  0.83470503  1
  Ni  Ni33  1  0.16785522  0.83442164  0.50133336  1
  Ni  Ni34  1  0.00148905  0.66757634  0.66795542  1
  Ni  Ni35  1  0.16727077  0.83435009  0.83469530  1
  Ni  Ni36  1  0.50155466  0.16807367  0.50156810  1
  Ni  Ni37  1  0.33471084  1.00125195  0.66778417  1
  Ni  Ni38  1  0.49960433  0.16889954  0.83471168  1
  Ni  Ni39  1  0.50106379  0.50132043  0.50111244  1
  Ni  Ni40  1  0.33442019  0.33439937  0.66732145  1
  Ni  Ni41  1  0.49999163  0.49947039  0.83389381  1
  Ni  Ni42  1  0.50095960  0.83443262  0.50204345  1
  Ni  Ni43  1  0.33421606  0.66819232  0.66848728  1
  Fe  Fe44  1  0.50017539  0.83513997  0.83378577  1
  Ni  Ni45  1  0.83434445  0.16754034  0.50154112  1
  Ni  Ni46  1  0.66664686  1.00062754  0.66700727  1
  Cr  Cr47  1  0.83411531  0.16775592  0.83456138  1
  Ni  Ni48  1  0.83435788  0.50138527  0.50197258  1
  Ni  Ni49  1  0.66721504  0.33535735  0.66755924  1
  Ni  Ni50  1  0.83500029  0.50262194  0.83358264  1
  Ni  Ni51  1  0.83506719  0.83499023  0.50133593  1
  Ni  Ni52  1  0.66806847  0.66786938  0.66721832  1
  Ni  Ni53  1  0.83622598  0.83383972  0.83357487  1
" 