6391,Ni89Fe9Cr1_7,-239.993121715217, 187.902838097486,Ni89Fe9Cr1,"# generated using pymatgen
 data_Cr(FeNi12)2
_symmetry_space_group_name_H-M   'P 1'
_cell_length_a   7.44813759
_cell_length_b   7.44813759
_cell_length_c   10.53325719
_cell_angle_alpha   90.00000000
_cell_angle_beta   90.00000000
_cell_angle_gamma   90.00000000
_symmetry_Int_Tables_number   1
_chemical_formula_structural   Cr(FeNi12)2
_chemical_formula_sum   'Cr2 Fe4 Ni48'
_cell_volume   584.32984616
_cell_formula_units_Z   2
loop_
 _symmetry_equiv_pos_site_id
 _symmetry_equiv_pos_as_xyz
  1  'x, y, z'
loop_
 _atom_site_type_symbol
 _atom_site_label
 _atom_site_symmetry_multiplicity
 _atom_site_fract_x
 _atom_site_fract_y
 _atom_site_fract_z
 _atom_site_occupancy
  Ni  Ni0  1  0.00157928  0.00158397  0.00148429  1
  Ni  Ni1  1  0.16796912  0.16821478  0.16812358  1
  Ni  Ni2  1  0.00152247  0.00167943  0.33501292  1
  Ni  Ni3  1  1.00122828  0.33436841  1.00114831  1
  Ni  Ni4  1  0.16768940  0.50120696  0.16739316  1
  Ni  Ni5  1  1.00021248  0.33263882  0.33378364  1
  Ni  Ni6  1  0.00142467  0.66793483  0.00211662  1
  Ni  Ni7  1  0.16833059  0.83439180  0.16781805  1
  Fe  Fe8  1  1.00046296  0.66927562  0.33364216  1
  Ni  Ni9  1  0.33401610  1.00101246  0.00176011  1
  Ni  Ni10  1  0.50140666  0.16719047  0.16750016  1
  Ni  Ni11  1  0.33366500  1.00063993  0.33468388  1
  Ni  Ni12  1  0.33453565  0.33495393  1.00119959  1
  Ni  Ni13  1  0.50120433  0.50176365  0.16810104  1
  Ni  Ni14  1  0.33512787  0.33388771  0.33371755  1
  Ni  Ni15  1  0.33471249  0.66787545  0.00134082  1
  Ni  Ni16  1  0.50154021  0.83488327  0.16786175  1
  Ni  Ni17  1  0.33614689  0.66930146  0.33355032  1
  Ni  Ni18  1  0.66822779  1.00117026  0.00151201  1
  Ni  Ni19  1  0.83442150  0.16787103  0.16786916  1
  Ni  Ni20  1  0.66861970  1.00082858  0.33467903  1
  Ni  Ni21  1  0.66804549  0.33512979  0.00165126  1
  Ni  Ni22  1  0.83492681  0.50139265  0.16782851  1
  Ni  Ni23  1  0.66852367  0.33507349  0.33447637  1
  Ni  Ni24  1  0.66766578  0.66752176  1.00109001  1
  Ni  Ni25  1  0.83389880  0.83456457  0.16758915  1
  Ni  Ni26  1  0.66739386  0.66791567  0.33496677  1
  Ni  Ni27  1  0.16826589  0.16680321  0.50175145  1
  Ni  Ni28  1  0.00153123  0.00132631  0.66751093  1
  Ni  Ni29  1  0.16775902  0.16869297  0.83387020  1
  Cr  Cr30  1  0.16702029  0.50080928  0.50143854  1
  Ni  Ni31  1  0.00182352  0.33356542  0.66875311  1
  Ni  Ni32  1  0.16719626  0.50117585  0.83466878  1
  Ni  Ni33  1  0.16867657  0.83571566  0.50185014  1
  Ni  Ni34  1  1.00050337  0.66911413  0.66828193  1
  Fe  Fe35  1  0.16854228  0.83475005  0.83480313  1
  Ni  Ni36  1  0.50037275  0.16517310  0.50069705  1
  Ni  Ni37  1  0.33406670  1.00093957  0.66745906  1
  Ni  Ni38  1  0.50034325  0.16561937  0.83558488  1
  Fe  Fe39  1  0.50171113  0.50219022  0.50023145  1
  Ni  Ni40  1  0.33369001  0.33373846  0.66872990  1
  Ni  Ni41  1  0.50020305  0.50324085  0.83463411  1
  Ni  Ni42  1  0.50149908  0.83551898  0.50138990  1
  Ni  Ni43  1  0.33538537  0.66913572  0.66878295  1
  Ni  Ni44  1  0.50156450  0.83496171  0.83449378  1
  Ni  Ni45  1  0.83516211  0.16713908  0.50067644  1
  Ni  Ni46  1  0.66825586  0.99945188  0.66773730  1
  Ni  Ni47  1  0.83566976  0.16727505  0.83525652  1
  Ni  Ni48  1  0.83494322  0.50242530  0.50061522  1
  Cr  Cr49  1  0.66792591  0.33468722  0.66747547  1
  Ni  Ni50  1  0.83638166  0.50227703  0.83531597  1
  Ni  Ni51  1  0.83364845  0.83434717  0.50207464  1
  Ni  Ni52  1  0.66791889  0.66942484  0.66773253  1
  Fe  Fe53  1  0.83399209  0.83478094  0.83483451  1
" 