8889,Ni89Fe9Cr1_19,-239.959363155967, 186.254307625378,Ni89Fe9Cr1,"# generated using pymatgen
 data_Cr(FeNi12)2
_symmetry_space_group_name_H-M   'P 1'
_cell_length_a   7.44748649
_cell_length_b   7.44748649
_cell_length_c   10.53233640
_cell_angle_alpha   90.00000000
_cell_angle_beta   90.00000000
_cell_angle_gamma   90.00000000
_symmetry_Int_Tables_number   1
_chemical_formula_structural   Cr(FeNi12)2
_chemical_formula_sum   'Cr2 Fe4 Ni48'
_cell_volume   584.17661797
_cell_formula_units_Z   2
loop_
 _symmetry_equiv_pos_site_id
 _symmetry_equiv_pos_as_xyz
  1  'x, y, z'
loop_
 _atom_site_type_symbol
 _atom_site_label
 _atom_site_symmetry_multiplicity
 _atom_site_fract_x
 _atom_site_fract_y
 _atom_site_fract_z
 _atom_site_occupancy
  Ni  Ni0  1  1.00119758  0.00203961  1.00105409  1
  Ni  Ni1  1  0.16882626  0.16803017  0.16866654  1
  Ni  Ni2  1  1.00110473  0.00195278  0.33516840  1
  Ni  Ni3  1  1.00072685  0.33399781  0.00142827  1
  Ni  Ni4  1  0.16602212  0.49911752  0.16752324  1
  Ni  Ni5  1  1.00106050  0.33440614  0.33478991  1
  Ni  Ni6  1  0.99983522  0.66785644  0.00131815  1
  Ni  Ni7  1  0.16567196  0.83680602  0.16826076  1
  Ni  Ni8  1  1.00020467  0.66758258  0.33457976  1
  Ni  Ni9  1  0.33465083  0.00270894  0.00169638  1
  Ni  Ni10  1  0.50073476  0.16835995  0.16754823  1
  Ni  Ni11  1  0.33467089  0.00290058  0.33420454  1
  Ni  Ni12  1  0.33475653  0.33311844  1.00090632  1
  Ni  Ni13  1  0.50351007  0.49882508  0.16867214  1
  Ni  Ni14  1  0.33443044  0.33325302  0.33502050  1
  Cr  Cr15  1  0.33514107  0.66860101  0.00189972  1
  Ni  Ni16  1  0.50356048  0.83679936  0.16836280  1
  Cr  Cr17  1  0.33411308  0.66826754  0.33392531  1
  Ni  Ni18  1  0.66807166  0.00179078  1.00069741  1
  Ni  Ni19  1  0.83437844  0.16810359  0.16830012  1
  Ni  Ni20  1  0.66820758  0.00197372  0.33484645  1
  Ni  Ni21  1  0.66838029  0.33441085  0.00142742  1
  Ni  Ni22  1  0.83439591  0.50189031  0.16828088  1
  Ni  Ni23  1  0.66850315  0.33413655  0.33451808  1
  Ni  Ni24  1  0.66900931  0.66772783  1.00130406  1
  Ni  Ni25  1  0.83472568  0.83394604  0.16792648  1
  Ni  Ni26  1  0.66954148  0.66785884  0.33459419  1
  Ni  Ni27  1  0.16920089  0.16775657  0.50098232  1
  Ni  Ni28  1  0.00149796  0.00221263  0.66771410  1
  Ni  Ni29  1  0.16866317  0.16699209  0.83424173  1
  Ni  Ni30  1  0.16666702  0.50088082  0.50287267  1
  Ni  Ni31  1  1.00018047  0.33421211  0.66781328  1
  Fe  Fe32  1  0.16674251  0.50047881  0.83402824  1
  Ni  Ni33  1  0.16667032  0.83520348  0.50203721  1
  Ni  Ni34  1  0.00183559  0.66746902  0.66818174  1
  Ni  Ni35  1  0.16703758  0.83623413  0.83361612  1
  Ni  Ni36  1  0.50093461  0.16822170  0.50136441  1
  Ni  Ni37  1  0.33460434  1.00031375  0.66797431  1
  Ni  Ni38  1  0.50061766  0.16841946  0.83506286  1
  Fe  Fe39  1  0.50245086  0.49979702  0.50194414  1
  Fe  Fe40  1  0.33468430  0.33373457  0.66793330  1
  Ni  Ni41  1  0.50316731  0.50017229  0.83315286  1
  Fe  Fe42  1  0.50234476  0.83661925  0.50213570  1
  Ni  Ni43  1  0.33453785  0.66867401  0.66804377  1
  Ni  Ni44  1  0.50183701  0.83522234  0.83328237  1
  Ni  Ni45  1  0.83387976  0.16821571  0.50159762  1
  Ni  Ni46  1  0.66787499  0.00221306  0.66837039  1
  Ni  Ni47  1  0.83464914  0.16849514  0.83404435  1
  Ni  Ni48  1  0.83481926  0.50214044  0.50095760  1
  Ni  Ni49  1  0.66918452  0.33428526  0.66797569  1
  Ni  Ni50  1  0.83358461  0.50184960  0.83469849  1
  Ni  Ni51  1  0.83523169  0.83357179  0.50171197  1
  Ni  Ni52  1  0.66755172  0.66748709  0.66791976  1
  Ni  Ni53  1  0.83503511  0.83358296  0.83433939  1
" 