3047,Ni89Fe7Cr3_18,-238.88903609278, 181.8286377254,Ni89Fe7Cr3,"# generated using pymatgen
 data_CrFeNi16
_symmetry_space_group_name_H-M   'P 1'
_cell_length_a   7.45413180
_cell_length_b   7.45413180
_cell_length_c   10.54173429
_cell_angle_alpha   90.00000000
_cell_angle_beta   90.00000000
_cell_angle_gamma   90.00000000
_symmetry_Int_Tables_number   1
_chemical_formula_structural   CrFeNi16
_chemical_formula_sum   'Cr3 Fe3 Ni48'
_cell_volume   585.74177708
_cell_formula_units_Z   3
loop_
 _symmetry_equiv_pos_site_id
 _symmetry_equiv_pos_as_xyz
  1  'x, y, z'
loop_
 _atom_site_type_symbol
 _atom_site_label
 _atom_site_symmetry_multiplicity
 _atom_site_fract_x
 _atom_site_fract_y
 _atom_site_fract_z
 _atom_site_occupancy
  Fe  Fe0  1  0.00147549  1.00077914  0.00112332  1
  Ni  Ni1  1  0.16672555  0.16624070  0.16860910  1
  Ni  Ni2  1  1.00076309  0.00087321  0.33348695  1
  Ni  Ni3  1  1.00001674  0.33333167  0.00177764  1
  Ni  Ni4  1  0.16642324  0.50213134  0.16879629  1
  Ni  Ni5  1  1.00066903  0.33368369  0.33361523  1
  Ni  Ni6  1  0.00134959  0.66836828  0.00155504  1
  Ni  Ni7  1  0.16786887  0.83416943  0.16749419  1
  Ni  Ni8  1  1.00034689  0.66801915  0.33415045  1
  Ni  Ni9  1  0.33416548  0.99952279  0.00098160  1
  Ni  Ni10  1  0.50154256  0.16664807  0.16897376  1
  Ni  Ni11  1  0.33400831  0.00105093  0.33396936  1
  Cr  Cr12  1  0.33348969  0.33316531  0.00115815  1
  Ni  Ni13  1  0.50199495  0.50189814  0.16803299  1
  Ni  Ni14  1  0.33417597  0.33351263  0.33364473  1
  Ni  Ni15  1  0.33401641  0.66997541  1.00050468  1
  Ni  Ni16  1  0.50026015  0.83401765  0.16786705  1
  Ni  Ni17  1  0.33433072  0.66802485  0.33349438  1
  Fe  Fe18  1  0.66703770  1.00073483  0.00107934  1
  Ni  Ni19  1  0.83433307  0.16808416  0.16758911  1
  Ni  Ni20  1  0.66782395  1.00067799  0.33410890  1
  Ni  Ni21  1  0.66851308  0.33319665  0.00159522  1
  Ni  Ni22  1  0.83415482  0.50079203  0.16770647  1
  Ni  Ni23  1  0.66777795  0.33397350  0.33385469  1
  Ni  Ni24  1  0.66721828  0.66873298  0.00202172  1
  Ni  Ni25  1  0.83449441  0.83372319  0.16785628  1
  Ni  Ni26  1  0.66794226  0.66791672  0.33368781  1
  Ni  Ni27  1  0.16755429  0.16644117  0.50076038  1
  Ni  Ni28  1  0.00088269  0.00086768  0.66833615  1
  Ni  Ni29  1  0.16670959  0.16625245  0.83339667  1
  Fe  Fe30  1  0.16786006  0.50070174  0.50064387  1
  Ni  Ni31  1  0.00187582  0.33273346  0.66699347  1
  Ni  Ni32  1  0.16804423  0.50193860  0.83266126  1
  Ni  Ni33  1  0.16774972  0.83507213  0.50100826  1
  Ni  Ni34  1  0.00317441  0.66897239  0.66669512  1
  Ni  Ni35  1  0.16779321  0.83438106  0.83419747  1
  Ni  Ni36  1  0.50034780  0.16785168  0.50099829  1
  Ni  Ni37  1  0.33403797  0.00101452  0.66762801  1
  Ni  Ni38  1  0.50144832  0.16657981  0.83282027  1
  Ni  Ni39  1  0.50046643  0.49978593  0.50011885  1
  Ni  Ni40  1  0.33405226  0.33348709  0.66810716  1
  Ni  Ni41  1  0.49933957  0.50086658  0.83446325  1
  Ni  Ni42  1  0.49900207  0.83493808  0.49988108  1
  Ni  Ni43  1  0.33263859  0.66802544  0.66850678  1
  Ni  Ni44  1  0.49941403  0.83518036  0.83489833  1
  Ni  Ni45  1  0.83469125  0.16792570  0.50125172  1
  Ni  Ni46  1  0.66769479  0.00237312  0.66797316  1
  Ni  Ni47  1  0.83440753  0.16623598  0.83395823  1
  Ni  Ni48  1  0.83459279  0.49957269  0.49965469  1
  Ni  Ni49  1  0.66671584  0.33140379  0.66707019  1
  Cr  Cr50  1  0.83492513  0.49973301  0.83485494  1
  Ni  Ni51  1  0.83589093  0.83513745  0.50006126  1
  Cr  Cr52  1  0.66705068  0.66950300  0.66628608  1
  Ni  Ni53  1  0.83550477  0.83656369  0.83482363  1
" 