7840,Ni89Fe11_13,-228.221759691131, 155.099139035999,Ni89Fe11,"# generated using pymatgen
 data_Fe8Ni
_symmetry_space_group_name_H-M   'P 1'
_cell_length_a   7.40524891
_cell_length_b   7.40524891
_cell_length_c   10.47260345
_cell_angle_alpha   90.00000000
_cell_angle_beta   90.00000000
_cell_angle_gamma   90.00000000
_symmetry_Int_Tables_number   1
_chemical_formula_structural   Fe8Ni
_chemical_formula_sum   'Fe48 Ni6'
_cell_volume   574.29360604
_cell_formula_units_Z   6
loop_
 _symmetry_equiv_pos_site_id
 _symmetry_equiv_pos_as_xyz
  1  'x, y, z'
loop_
 _atom_site_type_symbol
 _atom_site_label
 _atom_site_symmetry_multiplicity
 _atom_site_fract_x
 _atom_site_fract_y
 _atom_site_fract_z
 _atom_site_occupancy
  Fe  Fe0  1  0.00442531  0.00442901  0.00442679  1
  Ni  Ni1  1  0.17143448  0.17014808  0.17103979  1
  Fe  Fe2  1  0.00475998  0.00468069  0.33742406  1
  Fe  Fe3  1  1.00417089  0.33750345  0.00417516  1
  Fe  Fe4  1  0.17092033  0.50366033  0.17075749  1
  Fe  Fe5  1  0.00446850  0.33670442  0.33775689  1
  Fe  Fe6  1  1.00391867  0.67058416  1.00391977  1
  Fe  Fe7  1  0.17109057  0.83826461  0.17109442  1
  Fe  Fe8  1  0.00454792  0.67113260  0.33767814  1
  Fe  Fe9  1  0.33725317  0.00442466  0.00497285  1
  Fe  Fe10  1  0.50333281  0.17058727  0.17101092  1
  Ni  Ni11  1  0.33710732  0.00466672  0.33719997  1
  Fe  Fe12  1  0.33725131  0.33725159  0.00442721  1
  Fe  Fe13  1  0.50354340  0.50362346  0.17075753  1
  Fe  Fe14  1  0.33725224  0.33674672  0.33708704  1
  Fe  Fe15  1  0.33750566  0.67083967  1.00417259  1
  Fe  Fe16  1  0.50337325  0.83830754  0.17109488  1
  Fe  Fe17  1  0.33750586  0.67143076  0.33742783  1
  Fe  Fe18  1  0.67084099  0.00417503  1.00417259  1
  Fe  Fe19  1  0.83801640  0.17075723  0.17130877  1
  Fe  Fe20  1  0.67050255  0.00442696  0.33767767  1
  Fe  Fe21  1  0.67109613  0.33775823  1.00392018  1
  Fe  Fe22  1  0.83805449  0.50370614  0.17076118  1
  Fe  Fe23  1  0.67079699  0.33695831  0.33801111  1
  Fe  Fe24  1  0.67109248  0.67058533  1.00337308  1
  Fe  Fe25  1  0.83805411  0.83805426  0.17067446  1
  Fe  Fe26  1  0.67046263  0.67113412  0.33822500  1
  Fe  Fe27  1  0.17003932  0.17113555  0.50337117  1
  Fe  Fe28  1  1.00345207  1.00387865  0.67066787  1
  Fe  Fe29  1  0.17037173  0.17138877  0.83813613  1
  Fe  Fe30  1  0.16978178  0.50362372  0.50417263  1
  Fe  Fe31  1  1.00286007  0.33831286  0.67058653  1
  Fe  Fe32  1  0.17041059  0.50417167  0.83758779  1
  Fe  Fe33  1  0.16999349  0.83776023  0.50391773  1
  Fe  Fe34  1  1.00323570  0.67032623  0.67091990  1
  Fe  Fe35  1  0.17028905  0.83695762  0.83750461  1
  Fe  Fe36  1  0.50497146  0.17113419  0.50391772  1
  Fe  Fe37  1  0.33805442  1.00354199  0.67036899  1
  Fe  Fe38  1  0.50464004  0.17138843  0.83758789  1
  Fe  Fe39  1  0.50548165  0.50387775  0.50442680  1
  Fe  Fe40  1  0.33805363  0.33805421  0.67100427  1
  Fe  Fe41  1  0.50485193  0.50442497  0.83733419  1
  Fe  Fe42  1  0.50527198  0.83750702  0.50417150  1
  Fe  Fe43  1  0.33801503  0.67092127  0.67091743  1
  Fe  Fe44  1  0.50497612  0.83670466  0.83725080  1
  Ni  Ni45  1  0.83750635  0.17163795  0.50417301  1
  Fe  Fe46  1  0.67101189  1.00391794  0.67066760  1
  Fe  Fe47  1  0.83750602  0.17126602  0.83703651  1
  Ni  Ni48  1  0.83710670  0.50377986  0.50404709  1
  Fe  Fe49  1  0.67160411  0.33827105  0.67058622  1
  Ni  Ni50  1  0.83710763  0.50447487  0.83753983  1
  Fe  Fe51  1  0.83725186  0.83725000  0.50442678  1
  Ni  Ni52  1  0.67144590  0.67032758  0.67103608  1
  Fe  Fe53  1  0.83725295  0.83674550  0.83741749  1
" 