2715,Ni89Fe8Cr1_7,-239.899484475423, 186.250898069405,Ni89Fe8Cr1,"# generated using pymatgen
 data_Cr(FeNi12)2
_symmetry_space_group_name_H-M   'P 1'
_cell_length_a   7.44934730
_cell_length_b   7.44934730
_cell_length_c   10.53496798
_cell_angle_alpha   90.00000000
_cell_angle_beta   90.00000000
_cell_angle_gamma   90.00000000
_symmetry_Int_Tables_number   1
_chemical_formula_structural   Cr(FeNi12)2
_chemical_formula_sum   'Cr2 Fe4 Ni48'
_cell_volume   584.61461004
_cell_formula_units_Z   2
loop_
 _symmetry_equiv_pos_site_id
 _symmetry_equiv_pos_as_xyz
  1  'x, y, z'
loop_
 _atom_site_type_symbol
 _atom_site_label
 _atom_site_symmetry_multiplicity
 _atom_site_fract_x
 _atom_site_fract_y
 _atom_site_fract_z
 _atom_site_occupancy
  Ni  Ni0  1  0.00185626  0.00226195  0.00187422  1
  Ni  Ni1  1  0.16699426  0.16826188  0.16699437  1
  Ni  Ni2  1  1.00037015  1.00095003  0.33427872  1
  Fe  Fe3  1  0.00121743  0.33280786  0.00122647  1
  Ni  Ni4  1  0.16902743  0.50069085  0.16903218  1
  Ni  Ni5  1  1.00086402  0.33531537  0.33385424  1
  Cr  Cr6  1  1.00095107  0.66818613  1.00096695  1
  Ni  Ni7  1  0.16772992  0.83460585  0.16773647  1
  Ni  Ni8  1  1.00087204  0.66729605  0.33464998  1
  Ni  Ni9  1  0.33422661  0.00174174  1.00099426  1
  Ni  Ni10  1  0.50212162  0.16857108  0.16693318  1
  Cr  Cr11  1  0.33436196  0.00169699  0.33435371  1
  Ni  Ni12  1  0.33527017  0.33412337  0.00183955  1
  Ni  Ni13  1  0.50113828  0.50141821  0.16768146  1
  Fe  Fe14  1  0.33453729  0.33572829  0.33453049  1
  Ni  Ni15  1  0.33578310  0.66769458  0.00183885  1
  Ni  Ni16  1  0.50212204  0.83357247  0.16711628  1
  Fe  Fe17  1  0.33420913  0.66638326  0.33420364  1
  Ni  Ni18  1  0.66748227  0.00174241  0.00187337  1
  Ni  Ni19  1  0.83444531  0.16728000  0.16814837  1
  Ni  Ni20  1  0.66903538  0.00145942  0.33416077  1
  Ni  Ni21  1  0.66687605  0.33456992  0.00142527  1
  Ni  Ni22  1  0.83340299  0.50068764  0.16889722  1
  Ni  Ni23  1  0.66821425  0.33512305  0.33447096  1
  Ni  Ni24  1  0.66635503  0.66724931  0.00142513  1
  Ni  Ni25  1  0.83371784  0.83558960  0.16888172  1
  Ni  Ni26  1  0.66872600  0.66697894  0.33396783  1
  Ni  Ni27  1  0.16733595  0.16814412  0.50211939  1
  Ni  Ni28  1  0.00185621  1.00095220  0.66741460  1
  Ni  Ni29  1  0.16793467  0.16755116  0.83444987  1
  Ni  Ni30  1  0.16832919  0.50161405  0.50112653  1
  Ni  Ni31  1  0.00141229  0.33493000  0.66828425  1
  Ni  Ni32  1  0.16900988  0.50068600  0.83340116  1
  Ni  Ni33  1  0.16629350  0.83380681  0.50211813  1
  Ni  Ni34  1  0.00141357  0.66768051  0.66749064  1
  Ni  Ni35  1  0.16866329  0.83532087  0.83371491  1
  Ni  Ni36  1  0.50212662  0.16919769  0.50212076  1
  Ni  Ni37  1  0.33416851  0.00145929  0.66840737  1
  Ni  Ni38  1  0.50118572  0.16786944  0.83451768  1
  Ni  Ni39  1  0.50114163  0.50057319  0.50112915  1
  Ni  Ni40  1  0.33448471  0.33429439  0.66725478  1
  Ni  Ni41  1  0.50116223  0.50141535  0.83476067  1
  Fe  Fe42  1  0.50229061  0.83389986  0.50228329  1
  Ni  Ni43  1  0.33397996  0.66781019  0.66775449  1
  Ni  Ni44  1  0.50118636  0.83427833  0.83433723  1
  Ni  Ni45  1  0.83410544  0.16716621  0.50096482  1
  Ni  Ni46  1  0.66754041  0.00145972  0.66753009  1
  Ni  Ni47  1  0.83444268  0.16752515  0.83444838  1
  Ni  Ni48  1  0.83409797  0.50161304  0.50125896  1
  Ni  Ni49  1  0.66766749  0.33473754  0.66766938  1
  Ni  Ni50  1  0.83338845  0.50068423  0.83339605  1
  Ni  Ni51  1  0.83514355  0.83478408  0.50096465  1
  Ni  Ni52  1  0.66817221  0.66736603  0.66816910  1
  Ni  Ni53  1  0.83371339  0.83534877  0.83371242  1
" 