6321,Ni89Fe11_1,-228.167827841459, 151.222738114011,Ni89Fe11,"# generated using pymatgen
 data_Fe8Ni
_symmetry_space_group_name_H-M   'P 1'
_cell_length_a   7.40675066
_cell_length_b   7.40675066
_cell_length_c   10.47472724
_cell_angle_alpha   90.00000000
_cell_angle_beta   90.00000000
_cell_angle_gamma   90.00000000
_symmetry_Int_Tables_number   1
_chemical_formula_structural   Fe8Ni
_chemical_formula_sum   'Fe48 Ni6'
_cell_volume   574.64306900
_cell_formula_units_Z   6
loop_
 _symmetry_equiv_pos_site_id
 _symmetry_equiv_pos_as_xyz
  1  'x, y, z'
loop_
 _atom_site_type_symbol
 _atom_site_label
 _atom_site_symmetry_multiplicity
 _atom_site_fract_x
 _atom_site_fract_y
 _atom_site_fract_z
 _atom_site_occupancy
  Fe  Fe0  1  0.00498071  0.00427414  0.00427700  1
  Fe  Fe1  1  0.17189599  0.16948093  0.17022596  1
  Fe  Fe2  1  0.00427654  1.00367140  0.33748671  1
  Ni  Ni3  1  1.00356070  0.33780289  0.00417400  1
  Fe  Fe4  1  0.17163764  0.50436543  0.17053172  1
  Fe  Fe5  1  1.00397541  0.33749916  0.33694293  1
  Fe  Fe6  1  0.00501924  0.67099224  0.00427425  1
  Ni  Ni7  1  0.17073194  0.83656640  0.17084506  1
  Fe  Fe8  1  0.00437082  0.67103800  0.33729296  1
  Ni  Ni9  1  0.33828028  1.00345469  0.00432769  1
  Ni  Ni10  1  0.50456194  0.17039722  0.17112187  1
  Fe  Fe11  1  0.33770398  1.00376941  0.33584798  1
  Fe  Fe12  1  0.33740881  0.33618778  1.00387818  1
  Fe  Fe13  1  0.50351817  0.50491388  0.17102597  1
  Fe  Fe14  1  0.33780249  0.33719728  0.33748802  1
  Fe  Fe15  1  0.33656473  0.67129492  0.00467511  1
  Ni  Ni16  1  0.50299741  0.83858597  0.17050749  1
  Fe  Fe17  1  0.33730821  0.67124455  0.33699156  1
  Fe  Fe18  1  0.66987357  0.00511910  0.00427627  1
  Fe  Fe19  1  0.83720235  0.16983712  0.17062877  1
  Fe  Fe20  1  0.67022957  0.00416592  0.33699314  1
  Fe  Fe21  1  0.67017710  0.33615040  1.00397634  1
  Fe  Fe22  1  0.83705349  0.50441883  0.17043406  1
  Fe  Fe23  1  0.67043529  0.33710245  0.33729370  1
  Fe  Fe24  1  0.67062475  0.67094513  0.00427772  1
  Fe  Fe25  1  0.83665455  0.83795681  0.17092929  1
  Fe  Fe26  1  0.67052931  0.67094530  0.33729130  1
  Fe  Fe27  1  0.17054551  0.17083238  0.50416596  1
  Fe  Fe28  1  1.00397603  1.00387692  0.67044831  1
  Fe  Fe29  1  0.17124734  0.17083027  0.83781931  1
  Fe  Fe30  1  0.17073766  0.50397173  0.50416601  1
  Fe  Fe31  1  0.00407082  0.33749923  0.67129095  1
  Fe  Fe32  1  0.17098994  0.50302491  0.83751349  1
  Fe  Fe33  1  0.17064465  0.83740693  0.50351679  1
  Fe  Fe34  1  0.00407297  0.67083520  0.67064467  1
  Fe  Fe35  1  0.17168775  0.83835467  0.83816334  1
  Fe  Fe36  1  0.50406811  0.17083035  0.50416578  1
  Fe  Fe37  1  0.33770473  0.00436986  0.67168791  1
  Ni  Ni38  1  0.50428878  0.17095519  0.83678261  1
  Fe  Fe39  1  0.50407002  0.50416817  0.50416584  1
  Fe  Fe40  1  0.33780138  0.33719821  0.67084450  1
  Fe  Fe41  1  0.50416513  0.50356664  0.83701932  1
  Fe  Fe42  1  0.50416503  0.83721291  0.50351670  1
  Fe  Fe43  1  0.33730646  0.67064331  0.67054509  1
  Fe  Fe44  1  0.50386545  0.83821173  0.83816485  1
  Fe  Fe45  1  0.83759775  0.17073739  0.50406904  1
  Fe  Fe46  1  0.67053092  0.00437180  0.67094125  1
  Fe  Fe47  1  0.83720048  0.17113232  0.83751351  1
  Fe  Fe48  1  0.83740354  0.50406880  0.50406902  1
  Fe  Fe49  1  0.67033974  0.33710198  0.67094047  1
  Fe  Fe50  1  0.83705434  0.50312333  0.83770823  1
  Fe  Fe51  1  0.83740132  0.83740502  0.50426278  1
  Fe  Fe52  1  0.67083177  0.67073824  0.67064190  1
  Fe  Fe53  1  0.83665922  0.83795703  0.83701914  1
" 