3616,Ni89Cr11_16,-203.561141807896, 182.100918243906,Ni89Cr11,"# generated using pymatgen
 data_Cr8Ni
_symmetry_space_group_name_H-M   'P 1'
_cell_length_a   7.59364944
_cell_length_b   7.59364944
_cell_length_c   10.73904203
_cell_angle_alpha   90.00000000
_cell_angle_beta   90.00000000
_cell_angle_gamma   90.00000000
_symmetry_Int_Tables_number   1
_chemical_formula_structural   Cr8Ni
_chemical_formula_sum   'Cr48 Ni6'
_cell_volume   619.25087743
_cell_formula_units_Z   6
loop_
 _symmetry_equiv_pos_site_id
 _symmetry_equiv_pos_as_xyz
  1  'x, y, z'
loop_
 _atom_site_type_symbol
 _atom_site_label
 _atom_site_symmetry_multiplicity
 _atom_site_fract_x
 _atom_site_fract_y
 _atom_site_fract_z
 _atom_site_occupancy
  Cr  Cr0  1  0.99037723  0.99114337  0.99147113  1
  Cr  Cr1  1  0.15920474  0.15854936  0.15925617  1
  Cr  Cr2  1  -0.00796646  -0.00731199  0.32574177  1
  Cr  Cr3  1  0.99092207  0.32528959  0.99092222  1
  Cr  Cr4  1  0.15703471  0.49218920  0.15637948  1
  Cr  Cr5  1  -0.00742126  0.32342730  0.32595769  1
  Ni  Ni6  1  -0.00815762  0.65824351  -0.00824349  1
  Cr  Cr7  1  0.15758705  0.82425378  0.15692746  1
  Cr  Cr8  1  0.99052110  0.65887734  0.32451024  1
  Cr  Cr9  1  0.32516496  0.99107288  -0.00783536  1
  Cr  Cr10  1  0.49133658  0.15800359  0.15766955  1
  Cr  Cr11  1  0.32375462  -0.00786388  0.32523826  1
  Cr  Cr12  1  0.32517091  0.32591645  -0.00745853  1
  Cr  Cr13  1  0.49241097  0.49163989  0.15944696  1
  Cr  Cr14  1  0.32482320  0.32559217  0.32593152  1
  Cr  Cr15  1  0.32362964  0.65800276  0.99166229  1
  Cr  Cr16  1  0.49240530  0.82534765  0.15907250  1
  Cr  Cr17  1  0.32743571  0.65726280  0.32540863  1
  Cr  Cr18  1  0.65945254  -0.00731591  0.99092059  1
  Cr  Cr19  1  0.82445098  0.15855631  0.15817200  1
  Cr  Cr20  1  0.65920421  0.99007416  0.32379071  1
  Cr  Cr21  1  0.65890160  0.32375814  0.99037164  1
  Cr  Cr22  1  0.82554457  0.49325259  0.15854793  1
  Cr  Cr23  1  0.65758750  0.32710552  0.32540950  1
  Cr  Cr24  1  0.65882439  0.65854932  -0.00817836  1
  Cr  Cr25  1  0.82499891  0.82318289  0.15909543  1
  Ni  Ni26  1  0.65744881  0.65740577  0.32587789  1
  Ni  Ni27  1  0.15946920  0.15766317  0.49235449  1
  Cr  Cr28  1  -0.00751593  -0.00674584  0.65778114  1
  Cr  Cr29  1  0.15857896  0.15780848  0.82366282  1
  Cr  Cr30  1  0.15882188  0.49007725  0.49188259  1
  Cr  Cr31  1  0.99148773  0.32303249  0.65811453  1
  Cr  Cr32  1  0.15688440  0.49268527  0.82673177  1
  Cr  Cr33  1  0.15890107  0.82728121  0.49295423  1
  Cr  Cr34  1  -0.00796379  0.65870447  0.65903637  1
  Cr  Cr35  1  0.15850109  0.82450072  0.82511033  1
  Cr  Cr36  1  0.48922943  0.15863005  0.49240338  1
  Ni  Ni37  1  0.32402636  -0.00745771  0.65749836  1
  Cr  Cr38  1  0.49228983  0.15726326  0.82491827  1
  Ni  Ni39  1  0.49237913  0.49242008  0.49059840  1
  Cr  Cr40  1  0.32499731  0.32472728  0.65652077  1
  Cr  Cr41  1  0.49181832  0.49107164  0.82473228  1
  Cr  Cr42  1  0.49183893  0.82422794  0.49188065  1
  Cr  Cr43  1  0.32606564  0.65863308  0.65792020  1
  Cr  Cr44  1  0.49074764  0.82665833  0.82403687  1
  Cr  Cr45  1  0.82631532  0.15870401  0.49171118  1
  Cr  Cr46  1  0.65858229  -0.00781102  0.66028075  1
  Ni  Ni47  1  0.82481770  0.15837701  0.82522998  1
  Cr  Cr48  1  0.82325920  0.49268805  0.49059437  1
  Cr  Cr49  1  0.65850567  0.32516838  0.65920986  1
  Cr  Cr50  1  0.82628581  0.49114399  0.82584917  1
  Cr  Cr51  1  0.82425548  0.82359925  0.49026208  1
  Cr  Cr52  1  0.65688731  0.65763287  0.65688086  1
  Cr  Cr53  1  0.82574126  0.82496592  0.82563268  1
" 