2287,Ni89Fe4Cr6_5,-237.870614121421, 176.908813014534,Ni89Fe4Cr6,"# generated using pymatgen
 data_Cr2FeNi24
_symmetry_space_group_name_H-M   'P 1'
_cell_length_a   7.45720438
_cell_length_b   7.45720438
_cell_length_c   10.54607957
_cell_angle_alpha   90.00000000
_cell_angle_beta   90.00000000
_cell_angle_gamma   90.00000000
_symmetry_Int_Tables_number   1
_chemical_formula_structural   Cr2FeNi24
_chemical_formula_sum   'Cr4 Fe2 Ni48'
_cell_volume   586.46639992
_cell_formula_units_Z   2
loop_
 _symmetry_equiv_pos_site_id
 _symmetry_equiv_pos_as_xyz
  1  'x, y, z'
loop_
 _atom_site_type_symbol
 _atom_site_label
 _atom_site_symmetry_multiplicity
 _atom_site_fract_x
 _atom_site_fract_y
 _atom_site_fract_z
 _atom_site_occupancy
  Ni  Ni0  1  1.00021136  1.00031954  1.00018113  1
  Ni  Ni1  1  0.16778507  0.16716295  0.16738017  1
  Ni  Ni2  1  0.00125462  0.00134509  0.33278915  1
  Ni  Ni3  1  0.00122853  0.33374419  0.00178541  1
  Ni  Ni4  1  0.16764942  0.50040708  0.16761212  1
  Ni  Ni5  1  0.00071308  0.33446070  0.33406922  1
  Ni  Ni6  1  0.00293961  0.66795827  0.00156635  1
  Ni  Ni7  1  0.16740494  0.83440001  0.16744221  1
  Ni  Ni8  1  0.00193604  0.66626138  0.33296230  1
  Ni  Ni9  1  0.33359610  0.00083446  0.00150546  1
  Ni  Ni10  1  0.50012213  0.16753654  0.16719282  1
  Ni  Ni11  1  0.33398659  1.00055200  0.33398057  1
  Ni  Ni12  1  0.33416506  0.33482696  1.00047988  1
  Ni  Ni13  1  0.50042244  0.50017027  0.16677959  1
  Ni  Ni14  1  0.33412430  0.33458519  0.33336765  1
  Ni  Ni15  1  0.33198340  0.66636293  0.00158008  1
  Ni  Ni16  1  0.50023454  0.83422777  0.16852925  1
  Ni  Ni17  1  0.33348657  0.66681888  0.33415181  1
  Ni  Ni18  1  0.66818300  0.00244051  0.00172529  1
  Ni  Ni19  1  0.83406937  0.16737089  0.16788176  1
  Ni  Ni20  1  0.66660362  0.00205929  0.33285963  1
  Ni  Ni21  1  0.66659110  0.33197907  0.00126892  1
  Ni  Ni22  1  0.83393513  0.50050041  0.16822007  1
  Ni  Ni23  1  0.66712451  0.33388835  0.33432780  1
  Fe  Fe24  1  0.66717620  0.66705617  0.00258340  1
  Ni  Ni25  1  0.83422243  0.83406624  0.16667591  1
  Ni  Ni26  1  0.66635164  0.66603374  0.33247640  1
  Ni  Ni27  1  0.16804084  0.16699577  0.50058738  1
  Ni  Ni28  1  0.00281743  0.00145394  0.66895575  1
  Ni  Ni29  1  0.16782162  0.16729292  0.83398889  1
  Ni  Ni30  1  0.16784078  0.50056032  0.50067434  1
  Ni  Ni31  1  0.00167503  0.33337437  0.66615301  1
  Ni  Ni32  1  0.16899226  0.50050746  0.83375449  1
  Ni  Ni33  1  0.16838483  0.83441536  0.50089510  1
  Ni  Ni34  1  0.00287365  0.66708395  0.66755841  1
  Ni  Ni35  1  0.16604800  0.83417736  0.83363479  1
  Ni  Ni36  1  0.49886718  0.16948842  0.49970099  1
  Ni  Ni37  1  0.33156433  0.00147879  0.66648429  1
  Ni  Ni38  1  0.49921125  0.16962594  0.83490903  1
  Ni  Ni39  1  0.50055716  0.49975117  0.50117668  1
  Ni  Ni40  1  0.33403251  0.33440152  0.66809214  1
  Ni  Ni41  1  0.49881806  0.49855117  0.83394828  1
  Fe  Fe42  1  0.49875942  0.83324556  0.49920997  1
  Ni  Ni43  1  0.33258669  0.66603317  0.66632668  1
  Cr  Cr44  1  0.49927192  0.83279689  0.83429972  1
  Ni  Ni45  1  0.83485849  0.16945689  0.49976763  1
  Cr  Cr46  1  0.66743004  0.00362623  0.66716094  1
  Ni  Ni47  1  0.83504262  0.16703812  0.83438824  1
  Ni  Ni48  1  0.83342972  0.49959047  0.50050030  1
  Ni  Ni49  1  0.66627743  0.33461431  0.66645966  1
  Cr  Cr50  1  0.83394702  0.50066895  0.83338045  1
  Cr  Cr51  1  0.83615565  0.83262447  0.49996114  1
  Ni  Ni52  1  0.66629779  0.66486231  0.66714122  1
  Ni  Ni53  1  0.83653648  0.83455427  0.83515516  1
" 