6932,Ni89Fe9Cr1_10,-239.728732997525, 185.83156136323,Ni89Fe9Cr1,"# generated using pymatgen
 data_Cr(FeNi12)2
_symmetry_space_group_name_H-M   'P 1'
_cell_length_a   7.44725278
_cell_length_b   7.44725278
_cell_length_c   10.53200588
_cell_angle_alpha   90.00000000
_cell_angle_beta   90.00000000
_cell_angle_gamma   90.00000000
_symmetry_Int_Tables_number   1
_chemical_formula_structural   Cr(FeNi12)2
_chemical_formula_sum   'Cr2 Fe4 Ni48'
_cell_volume   584.12162237
_cell_formula_units_Z   2
loop_
 _symmetry_equiv_pos_site_id
 _symmetry_equiv_pos_as_xyz
  1  'x, y, z'
loop_
 _atom_site_type_symbol
 _atom_site_label
 _atom_site_symmetry_multiplicity
 _atom_site_fract_x
 _atom_site_fract_y
 _atom_site_fract_z
 _atom_site_occupancy
  Ni  Ni0  1  1.00010793  0.00157983  1.00076903  1
  Ni  Ni1  1  0.16666005  0.16626945  0.16700244  1
  Ni  Ni2  1  1.00070889  1.00129676  0.33513304  1
  Ni  Ni3  1  0.00197640  0.33418643  0.00147825  1
  Ni  Ni4  1  0.16685896  0.50304107  0.16710975  1
  Ni  Ni5  1  1.00017698  0.33441507  0.33475561  1
  Ni  Ni6  1  0.00148891  0.66828296  1.00119954  1
  Ni  Ni7  1  0.16797060  0.83455748  0.16824253  1
  Ni  Ni8  1  1.00102482  0.66827755  0.33434023  1
  Fe  Fe9  1  0.33491496  1.00114804  0.00136087  1
  Ni  Ni10  1  0.50284849  0.16685223  0.16663975  1
  Ni  Ni11  1  0.33505458  1.00031183  0.33430447  1
  Ni  Ni12  1  0.33461884  0.33516204  1.00096916  1
  Ni  Ni13  1  0.50285377  0.50261837  0.16676804  1
  Cr  Cr14  1  0.33447370  0.33454073  0.33387978  1
  Ni  Ni15  1  0.33499833  0.66688497  1.00111989  1
  Ni  Ni16  1  0.50112283  0.83439759  0.16894981  1
  Ni  Ni17  1  0.33491195  0.66910485  0.33530207  1
  Ni  Ni18  1  0.66853140  1.00119752  0.00142559  1
  Ni  Ni19  1  0.83445494  0.16807107  0.16865144  1
  Ni  Ni20  1  0.66830363  1.00118249  0.33459603  1
  Ni  Ni21  1  0.66737748  0.33401450  1.00102832  1
  Ni  Ni22  1  0.83426371  0.50127268  0.16829943  1
  Ni  Ni23  1  0.66899797  0.33423626  0.33490328  1
  Ni  Ni24  1  0.66744518  0.66884619  1.00114706  1
  Ni  Ni25  1  0.83485343  0.83465173  0.16734196  1
  Ni  Ni26  1  0.66811387  0.66857962  0.33450556  1
  Ni  Ni27  1  0.16733005  0.16598671  0.50260338  1
  Ni  Ni28  1  1.00065657  0.00339938  0.66800386  1
  Ni  Ni29  1  0.16756477  0.16721270  0.83426105  1
  Ni  Ni30  1  0.16812102  0.50213124  0.50153808  1
  Ni  Ni31  1  0.00251327  0.33294745  0.66775552  1
  Ni  Ni32  1  0.16868292  0.50111050  0.83528465  1
  Ni  Ni33  1  0.16860825  0.83584262  0.50048524  1
  Cr  Cr34  1  1.00084316  0.66791686  0.66889719  1
  Ni  Ni35  1  0.16988486  0.83566871  0.83538646  1
  Ni  Ni36  1  0.50240674  0.16738638  0.50244255  1
  Ni  Ni37  1  0.33523394  0.00213966  0.66838732  1
  Ni  Ni38  1  0.50184565  0.16753228  0.83480199  1
  Ni  Ni39  1  0.50268844  0.50200297  0.50267672  1
  Ni  Ni40  1  0.33409478  0.33457987  0.66849611  1
  Ni  Ni41  1  0.50185770  0.50190140  0.83446255  1
  Fe  Fe42  1  0.50152224  0.83497343  0.50140332  1
  Ni  Ni43  1  0.33659782  0.66734976  0.66764530  1
  Ni  Ni44  1  0.50038489  0.83448338  0.83387685  1
  Ni  Ni45  1  0.83429131  0.16764641  0.50123681  1
  Ni  Ni46  1  0.66809744  1.00078919  0.66798241  1
  Ni  Ni47  1  0.83456436  0.16867459  0.83410546  1
  Ni  Ni48  1  0.83319257  0.50084578  0.50019998  1
  Fe  Fe49  1  0.66790184  0.33437121  0.66805433  1
  Ni  Ni50  1  0.83340635  0.49960118  0.83559660  1
  Ni  Ni51  1  0.83452437  0.83550775  0.50110187  1
  Ni  Ni52  1  0.66629891  0.66906906  0.66832244  1
  Fe  Fe53  1  0.83353930  0.83571635  0.83553519  1
" 