2579,Ni89Fe7Cr3_14,-238.85395395206, 181.578177992535,Ni89Fe7Cr3,"# generated using pymatgen
 data_CrFeNi16
_symmetry_space_group_name_H-M   'P 1'
_cell_length_a   7.45443098
_cell_length_b   7.45443098
_cell_length_c   10.54215740
_cell_angle_alpha   90.00000000
_cell_angle_beta   90.00000000
_cell_angle_gamma   90.00000000
_symmetry_Int_Tables_number   1
_chemical_formula_structural   CrFeNi16
_chemical_formula_sum   'Cr3 Fe3 Ni48'
_cell_volume   585.81230890
_cell_formula_units_Z   3
loop_
 _symmetry_equiv_pos_site_id
 _symmetry_equiv_pos_as_xyz
  1  'x, y, z'
loop_
 _atom_site_type_symbol
 _atom_site_label
 _atom_site_symmetry_multiplicity
 _atom_site_fract_x
 _atom_site_fract_y
 _atom_site_fract_z
 _atom_site_occupancy
  Cr  Cr0  1  0.00149775  1.00063659  0.00140578  1
  Ni  Ni1  1  0.16740478  0.16917446  0.16806816  1
  Ni  Ni2  1  0.99969261  0.00101417  0.33400034  1
  Ni  Ni3  1  0.99997557  0.33580553  1.00060751  1
  Ni  Ni4  1  0.16740446  0.50134329  0.16816629  1
  Ni  Ni5  1  1.00060383  0.33432253  0.33436465  1
  Ni  Ni6  1  0.00125695  0.66531404  0.00085310  1
  Ni  Ni7  1  0.16750733  0.83209846  0.16749521  1
  Ni  Ni8  1  0.00117085  0.66717455  0.33353420  1
  Ni  Ni9  1  0.33575466  0.99999934  1.00065370  1
  Ni  Ni10  1  0.50216548  0.16816364  0.16671090  1
  Cr  Cr11  1  0.33354467  1.00045215  0.33343802  1
  Fe  Fe12  1  0.33426522  0.33469082  0.00084769  1
  Ni  Ni13  1  0.50108605  0.50114833  0.16805100  1
  Ni  Ni14  1  0.33433947  0.33578635  0.33392949  1
  Ni  Ni15  1  0.33431737  0.66840178  0.00108518  1
  Ni  Ni16  1  0.50199507  0.83325796  0.16710428  1
  Ni  Ni17  1  0.33407561  0.66583228  0.33410492  1
  Ni  Ni18  1  0.66536905  0.00115402  0.00085520  1
  Ni  Ni19  1  0.83297001  0.16824513  0.16888302  1
  Ni  Ni20  1  0.66891555  0.00130409  0.33376927  1
  Ni  Ni21  1  0.66823588  0.33448578  0.00103946  1
  Ni  Ni22  1  0.83405504  0.50106337  0.16759029  1
  Ni  Ni23  1  0.66761591  0.33446771  0.33389718  1
  Ni  Ni24  1  0.66695469  0.66687068  1.00060282  1
  Ni  Ni25  1  0.83305916  0.83321692  0.16897223  1
  Ni  Ni26  1  0.66731624  0.66672360  0.33401284  1
  Ni  Ni27  1  0.16665481  0.16765762  0.50189795  1
  Ni  Ni28  1  0.00135720  0.00100664  0.66748161  1
  Ni  Ni29  1  0.16840476  0.16801710  0.83252249  1
  Ni  Ni30  1  0.16757150  0.50169782  0.50084830  1
  Ni  Ni31  1  0.00227717  0.33430830  0.66752020  1
  Ni  Ni32  1  0.16744101  0.50137088  0.83351974  1
  Ni  Ni33  1  0.16635181  0.83315711  0.50168310  1
  Ni  Ni34  1  0.00121982  0.66721349  0.66816792  1
  Ni  Ni35  1  0.16848134  0.83317778  0.83340447  1
  Ni  Ni36  1  0.50126721  0.16773422  0.50085400  1
  Ni  Ni37  1  0.33393380  1.00066908  0.66798740  1
  Ni  Ni38  1  0.50012794  0.16621345  0.83500397  1
  Ni  Ni39  1  0.50016532  0.50155073  0.49977681  1
  Ni  Ni40  1  0.33276338  0.33428338  0.66776621  1
  Ni  Ni41  1  0.49998775  0.50214348  0.83478998  1
  Fe  Fe42  1  0.50112122  0.83340173  0.50160904  1
  Ni  Ni43  1  0.33411830  0.66756816  0.66732724  1
  Ni  Ni44  1  0.50088764  0.83423548  0.83354762  1
  Ni  Ni45  1  0.83463632  0.16649418  0.49980864  1
  Ni  Ni46  1  0.66726109  0.99971579  0.66782412  1
  Ni  Ni47  1  0.83400164  0.16712344  0.83392074  1
  Ni  Ni48  1  0.83482848  0.50172048  0.49999364  1
  Cr  Cr49  1  0.66790811  0.33512553  0.66793682  1
  Ni  Ni50  1  0.83508077  0.50215977  0.83498920  1
  Fe  Fe51  1  0.83489546  0.83396224  0.50084740  1
  Ni  Ni52  1  0.66722735  0.66857891  0.66783513  1
  Ni  Ni53  1  0.83317707  0.83326314  0.83279102  1
" 