8073,Ni89Cr11_0,-203.524570553928, 181.955612723851,Ni89Cr11,"# generated using pymatgen
 data_Cr8Ni
_symmetry_space_group_name_H-M   'P 1'
_cell_length_a   7.59333063
_cell_length_b   7.59333063
_cell_length_c   10.73859115
_cell_angle_alpha   90.00000000
_cell_angle_beta   90.00000000
_cell_angle_gamma   90.00000000
_symmetry_Int_Tables_number   1
_chemical_formula_structural   Cr8Ni
_chemical_formula_sum   'Cr48 Ni6'
_cell_volume   619.17288338
_cell_formula_units_Z   6
loop_
 _symmetry_equiv_pos_site_id
 _symmetry_equiv_pos_as_xyz
  1  'x, y, z'
loop_
 _atom_site_type_symbol
 _atom_site_label
 _atom_site_symmetry_multiplicity
 _atom_site_fract_x
 _atom_site_fract_y
 _atom_site_fract_z
 _atom_site_occupancy
  Ni  Ni0  1  0.98976449  0.98774414  0.99037124  1
  Cr  Cr1  1  0.15635193  0.15628012  0.15679678  1
  Cr  Cr2  1  -0.00670150  -0.00744126  0.32662641  1
  Cr  Cr3  1  -0.00763409  0.32576646  0.99149627  1
  Cr  Cr4  1  0.15677248  0.49383073  0.15679002  1
  Cr  Cr5  1  -0.00533536  0.32553277  0.32846405  1
  Ni  Ni6  1  0.99012220  0.66240908  0.99044518  1
  Cr  Cr7  1  0.15629886  0.82497293  0.15565788  1
  Cr  Cr8  1  -0.00736547  0.65693425  0.32575912  1
  Cr  Cr9  1  0.32450040  -0.00805317  -0.00750652  1
  Cr  Cr10  1  0.49234349  0.15850558  0.15836405  1
  Cr  Cr11  1  0.32365793  -0.00704866  0.32525855  1
  Cr  Cr12  1  0.32477559  0.32489545  -0.00789349  1
  Cr  Cr13  1  0.49185776  0.49155405  0.15834070  1
  Cr  Cr14  1  0.32219358  0.32495700  0.32531577  1
  Cr  Cr15  1  0.32475215  0.65826107  -0.00806004  1
  Cr  Cr16  1  0.49034283  0.82499651  0.16057612  1
  Cr  Cr17  1  0.32368042  0.65716252  0.32567801  1
  Cr  Cr18  1  0.65915324  0.98968622  0.99027361  1
  Cr  Cr19  1  0.82630532  0.15771116  0.15817318  1
  Cr  Cr20  1  0.65823545  0.99042923  0.32504993  1
  Cr  Cr21  1  0.65783353  0.32557744  0.99150553  1
  Cr  Cr22  1  0.82647436  0.49204209  0.15794970  1
  Cr  Cr23  1  0.65848270  0.32557060  0.32369211  1
  Cr  Cr24  1  0.66011206  0.65973679  0.99127181  1
  Cr  Cr25  1  0.82811687  0.82536450  0.15747467  1
  Cr  Cr26  1  0.65889083  0.65905400  0.32411199  1
  Ni  Ni27  1  0.15895578  0.16071303  0.49150354  1
  Cr  Cr28  1  0.99163895  -0.00827152  0.65843461  1
  Cr  Cr29  1  0.15703289  0.15671471  0.82659234  1
  Ni  Ni30  1  0.16031253  0.49079810  0.49301114  1
  Cr  Cr31  1  -0.00591697  0.32505923  0.65482081  1
  Cr  Cr32  1  0.15845757  0.49427155  0.82496735  1
  Cr  Cr33  1  0.15943543  0.82389417  0.49223618  1
  Cr  Cr34  1  -0.00785566  0.65806728  0.65839622  1
  Cr  Cr35  1  0.15649463  0.82413911  0.82685874  1
  Cr  Cr36  1  0.49195727  0.15842063  0.49184854  1
  Cr  Cr37  1  0.32342352  -0.00801738  0.65723691  1
  Cr  Cr38  1  0.49162311  0.15903039  0.82496197  1
  Cr  Cr39  1  0.49071216  0.49271991  0.49321486  1
  Cr  Cr40  1  0.32203190  0.32551675  0.65759688  1
  Cr  Cr41  1  0.49022252  0.49219936  0.82335377  1
  Cr  Cr42  1  0.49032859  0.82399883  0.49226299  1
  Ni  Ni43  1  0.32302496  0.65685793  0.65652116  1
  Cr  Cr44  1  0.48964832  0.82386170  0.82215116  1
  Cr  Cr45  1  0.82540226  0.15853807  0.49124010  1
  Cr  Cr46  1  0.65995457  0.98976605  0.66009228  1
  Cr  Cr47  1  0.82649469  0.15679679  0.82568296  1
  Cr  Cr48  1  0.82543602  0.49136879  0.49085170  1
  Cr  Cr49  1  0.65926485  0.32509290  0.65974457  1
  Cr  Cr50  1  0.82656692  0.49289222  0.82606176  1
  Cr  Cr51  1  0.82525377  0.82514997  0.49139089  1
  Cr  Cr52  1  0.65931000  0.66009004  0.65996415  1
  Ni  Ni53  1  0.82777629  0.82486872  0.82798874  1
" 