1739,Ni89Fe7Cr3_8,-238.664868858564, 180.075130104967,Ni89Fe7Cr3,"# generated using pymatgen
 data_CrFeNi16
_symmetry_space_group_name_H-M   'P 1'
_cell_length_a   7.45384172
_cell_length_b   7.45384172
_cell_length_c   10.54132406
_cell_angle_alpha   90.00000000
_cell_angle_beta   90.00000000
_cell_angle_gamma   90.00000000
_symmetry_Int_Tables_number   1
_chemical_formula_structural   CrFeNi16
_chemical_formula_sum   'Cr3 Fe3 Ni48'
_cell_volume   585.67339685
_cell_formula_units_Z   3
loop_
 _symmetry_equiv_pos_site_id
 _symmetry_equiv_pos_as_xyz
  1  'x, y, z'
loop_
 _atom_site_type_symbol
 _atom_site_label
 _atom_site_symmetry_multiplicity
 _atom_site_fract_x
 _atom_site_fract_y
 _atom_site_fract_z
 _atom_site_occupancy
  Ni  Ni0  1  1.00057251  0.00091739  0.00092496  1
  Ni  Ni1  1  0.16769246  0.16688453  0.16782914  1
  Ni  Ni2  1  0.99936281  0.00196878  0.33310176  1
  Ni  Ni3  1  0.00228060  0.33288676  0.00148917  1
  Ni  Ni4  1  0.16742025  0.50087466  0.16735092  1
  Ni  Ni5  1  0.00113323  0.33399639  0.33453062  1
  Ni  Ni6  1  0.00208991  0.66881292  0.00143339  1
  Ni  Ni7  1  0.16769192  0.83485111  0.16743935  1
  Ni  Ni8  1  0.99991271  0.66664079  0.33334753  1
  Ni  Ni9  1  0.33445230  0.00091944  1.00023143  1
  Ni  Ni10  1  0.50024658  0.16791743  0.16732588  1
  Ni  Ni11  1  0.33571195  0.00195594  0.33380579  1
  Ni  Ni12  1  0.33307246  0.33320563  0.00189939  1
  Ni  Ni13  1  0.50134113  0.50070802  0.16751672  1
  Ni  Ni14  1  0.33423255  0.33430520  0.33416947  1
  Ni  Ni15  1  0.33326059  0.66851090  0.00182519  1
  Ni  Ni16  1  0.50006466  0.83404566  0.16758218  1
  Ni  Ni17  1  0.33543952  0.66639912  0.33304408  1
  Ni  Ni18  1  0.66766510  1.00073727  1.00035022  1
  Ni  Ni19  1  0.83472008  0.16818866  0.16733500  1
  Ni  Ni20  1  0.66763106  1.00081796  0.33462019  1
  Ni  Ni21  1  0.66734407  0.33141544  0.00275727  1
  Ni  Ni22  1  0.83389236  0.50070640  0.16751398  1
  Ni  Ni23  1  0.66731407  0.33378243  0.33437012  1
  Ni  Ni24  1  0.66734646  0.67046393  0.00269854  1
  Ni  Ni25  1  0.83490553  0.83377515  0.16759486  1
  Ni  Ni26  1  0.66731489  0.66804372  0.33462088  1
  Ni  Ni27  1  0.16741927  0.16827357  0.50068114  1
  Ni  Ni28  1  0.99883933  0.00178111  0.66849741  1
  Ni  Ni29  1  0.16748760  0.16628945  0.83408781  1
  Fe  Fe30  1  0.16757814  0.49982825  0.50006514  1
  Ni  Ni31  1  0.00260172  0.33290795  0.66667255  1
  Fe  Fe32  1  0.16763923  0.50067970  0.83494200  1
  Cr  Cr33  1  0.16732768  0.83641816  0.49956723  1
  Ni  Ni34  1  0.00161193  0.66786875  0.66772151  1
  Ni  Ni35  1  0.16748558  0.83533083  0.83450616  1
  Ni  Ni36  1  0.50018471  0.16836931  0.50133974  1
  Fe  Fe37  1  0.33482275  0.00180922  0.66812746  1
  Ni  Ni38  1  0.50009664  0.16675029  0.83390914  1
  Ni  Ni39  1  0.50197851  0.50073062  0.50073243  1
  Ni  Ni40  1  0.33308275  0.33425802  0.66672050  1
  Cr  Cr41  1  0.50161319  0.50037162  0.83541251  1
  Ni  Ni42  1  0.50149718  0.83350726  0.50131783  1
  Ni  Ni43  1  0.33409734  0.66646863  0.66775625  1
  Ni  Ni44  1  0.49992805  0.83508374  0.83367138  1
  Ni  Ni45  1  0.83501561  0.16831389  0.50128619  1
  Ni  Ni46  1  0.66826188  1.00084201  0.66772575  1
  Ni  Ni47  1  0.83502964  0.16677610  0.83405815  1
  Ni  Ni48  1  0.83318056  0.50069068  0.50107522  1
  Ni  Ni49  1  0.66706856  0.33152328  0.66580301  1
  Cr  Cr50  1  0.83390953  0.50033549  0.83473028  1
  Ni  Ni51  1  0.83373697  0.83358554  0.50129038  1
  Ni  Ni52  1  0.66704442  0.67025359  0.66561323  1
  Ni  Ni53  1  0.83518509  0.83505692  0.83381718  1
" 