1422,Ni89Fe11_9,-228.276714924035, 154.194306582444,Ni89Fe11,"# generated using pymatgen
 data_Fe8Ni
_symmetry_space_group_name_H-M   'P 1'
_cell_length_a   7.40713505
_cell_length_b   7.40713505
_cell_length_c   10.47527085
_cell_angle_alpha   90.00000000
_cell_angle_beta   90.00000000
_cell_angle_gamma   90.00000000
_symmetry_Int_Tables_number   1
_chemical_formula_structural   Fe8Ni
_chemical_formula_sum   'Fe48 Ni6'
_cell_volume   574.73254030
_cell_formula_units_Z   6
loop_
 _symmetry_equiv_pos_site_id
 _symmetry_equiv_pos_as_xyz
  1  'x, y, z'
loop_
 _atom_site_type_symbol
 _atom_site_label
 _atom_site_symmetry_multiplicity
 _atom_site_fract_x
 _atom_site_fract_y
 _atom_site_fract_z
 _atom_site_occupancy
  Fe  Fe0  1  1.00399642  0.00458331  0.00458334  1
  Fe  Fe1  1  0.17129758  0.16993597  0.17070996  1
  Ni  Ni2  1  0.00498341  1.00321240  0.33760674  1
  Fe  Fe3  1  0.00417986  0.33693416  1.00376348  1
  Fe  Fe4  1  0.17143511  0.50359935  0.17061737  1
  Fe  Fe5  1  1.00325232  0.33717554  0.33785911  1
  Fe  Fe6  1  1.00404175  0.67061513  1.00395397  1
  Fe  Fe7  1  0.17134219  0.83859262  0.17071031  1
  Fe  Fe8  1  1.00311861  0.67036736  0.33766776  1
  Ni  Ni9  1  0.33645393  1.00322788  1.00393709  1
  Ni  Ni10  1  0.50383744  0.17039729  0.17035253  1
  Fe  Fe11  1  0.33772177  0.00496998  0.33645433  1
  Fe  Fe12  1  0.33816927  0.33648887  0.00424558  1
  Fe  Fe13  1  0.50463737  0.50286225  0.17071257  1
  Fe  Fe14  1  0.33753549  0.33645171  0.33717625  1
  Fe  Fe15  1  0.33791589  0.67066445  1.00395151  1
  Fe  Fe16  1  0.50356353  0.83816463  0.17032244  1
  Fe  Fe17  1  0.33728587  0.67070940  0.33747078  1
  Fe  Fe18  1  0.66972959  0.00483877  0.00415135  1
  Fe  Fe19  1  0.83648728  0.17101230  0.17100789  1
  Fe  Fe20  1  0.67100592  0.00483902  0.33717617  1
  Ni  Ni21  1  0.67085077  0.33818894  1.00322624  1
  Fe  Fe22  1  0.83606100  0.50282097  0.17124720  1
  Ni  Ni23  1  0.67044403  0.33831718  0.33832012  1
  Fe  Fe24  1  0.67017504  0.67084965  1.00385761  1
  Fe  Fe25  1  0.83722648  0.83830275  0.17100468  1
  Fe  Fe26  1  0.67172940  0.67055589  0.33785913  1
  Fe  Fe27  1  0.16969501  0.17095385  0.50393868  1
  Fe  Fe28  1  1.00404243  0.00404549  0.67007889  1
  Fe  Fe29  1  0.17090973  0.17032190  0.83748416  1
  Fe  Fe30  1  0.17021863  0.50413685  0.50423116  1
  Fe  Fe31  1  1.00393788  0.33776502  0.67051091  1
  Fe  Fe32  1  0.17071259  0.50413692  0.83728430  1
  Fe  Fe33  1  0.16979116  0.83703975  0.50375001  1
  Fe  Fe34  1  1.00374972  0.67032283  0.67051168  1
  Fe  Fe35  1  0.17100170  0.83767132  0.83767257  1
  Fe  Fe36  1  0.50496795  0.17172779  0.50321257  1
  Fe  Fe37  1  0.33747407  0.00404730  0.67143410  1
  Fe  Fe38  1  0.50404414  0.17071125  0.83860012  1
  Fe  Fe39  1  0.50492670  0.50384491  0.50384368  1
  Fe  Fe40  1  0.33719107  0.33737555  0.67071045  1
  Fe  Fe41  1  0.50433795  0.50384365  0.83757631  1
  Fe  Fe42  1  0.50458023  0.83656173  0.50432527  1
  Fe  Fe43  1  0.33737807  0.67070972  0.67071042  1
  Fe  Fe44  1  0.50365648  0.83757777  0.83748442  1
  Fe  Fe45  1  0.83747029  0.17130122  0.50354781  1
  Fe  Fe46  1  0.67061626  1.00385865  0.67080460  1
  Fe  Fe47  1  0.83717735  0.17100425  0.83757745  1
  Ni  Ni48  1  0.83770326  0.50426297  0.50415308  1
  Fe  Fe49  1  0.67100470  0.33766992  0.67041625  1
  Fe  Fe50  1  0.83708322  0.50375032  0.83703994  1
  Fe  Fe51  1  0.83776377  0.83708501  0.50384410  1
  Fe  Fe52  1  0.67100593  0.67060519  0.67041655  1
  Fe  Fe53  1  0.83747172  0.83738039  0.83728435  1
" 