8614,Ni89Cr11_8,-203.555183257449, 183.94969528833,Ni89Cr11,"# generated using pymatgen
 data_Cr8Ni
_symmetry_space_group_name_H-M   'P 1'
_cell_length_a   7.59313205
_cell_length_b   7.59313205
_cell_length_c   10.73831033
_cell_angle_alpha   90.00000000
_cell_angle_beta   90.00000000
_cell_angle_gamma   90.00000000
_symmetry_Int_Tables_number   1
_chemical_formula_structural   Cr8Ni
_chemical_formula_sum   'Cr48 Ni6'
_cell_volume   619.12430865
_cell_formula_units_Z   6
loop_
 _symmetry_equiv_pos_site_id
 _symmetry_equiv_pos_as_xyz
  1  'x, y, z'
loop_
 _atom_site_type_symbol
 _atom_site_label
 _atom_site_symmetry_multiplicity
 _atom_site_fract_x
 _atom_site_fract_y
 _atom_site_fract_z
 _atom_site_occupancy
  Cr  Cr0  1  -0.00825539  0.99128314  -0.00830245  1
  Cr  Cr1  1  0.15802856  0.15989604  0.15802706  1
  Cr  Cr2  1  -0.00789565  -0.00727859  0.32435238  1
  Cr  Cr3  1  -0.00723108  0.32515719  -0.00791515  1
  Cr  Cr4  1  0.15859147  0.48960248  0.15825057  1
  Ni  Ni5  1  0.99129340  0.32511055  0.32479211  1
  Cr  Cr6  1  -0.00825433  0.65865224  0.99130989  1
  Cr  Cr7  1  0.15859115  0.82559352  0.15825097  1
  Cr  Cr8  1  0.99051927  0.65706398  0.32451635  1
  Cr  Cr9  1  0.32480480  -0.00712307  -0.00773733  1
  Cr  Cr10  1  0.49060073  0.15879634  0.15696858  1
  Cr  Cr11  1  0.32557103  -0.00776306  0.32602289  1
  Ni  Ni12  1  0.32517025  0.32470448  -0.00830247  1
  Cr  Cr13  1  0.49169905  0.49236394  0.15768729  1
  Cr  Cr14  1  0.32454475  0.32420433  0.32563340  1
  Cr  Cr15  1  0.32479562  0.65706120  -0.00812530  1
  Cr  Cr16  1  0.49280238  0.82393164  0.15913498  1
  Cr  Cr17  1  0.32605695  0.65865226  0.32474019  1
  Cr  Cr18  1  0.65854327  -0.00814632  0.99113227  1
  Cr  Cr19  1  0.82646199  0.15879546  0.15879000  1
  Cr  Cr20  1  0.65741814  0.99121438  0.32602167  1
  Cr  Cr21  1  0.65695334  0.32514889  0.99056681  1
  Cr  Cr22  1  0.82480101  0.49180279  0.16046299  1
  Cr  Cr23  1  0.65900357  0.32579159  0.32658600  1
  Cr  Cr24  1  0.65855162  0.65808984  -0.00734960  1
  Cr  Cr25  1  0.82370000  0.82449470  0.15901708  1
  Ni  Ni26  1  0.65877008  0.65828599  0.32469461  1
  Cr  Cr27  1  0.15866890  0.15913330  0.49025162  1
  Cr  Cr28  1  -0.00825590  0.98990950  0.65904326  1
  Cr  Cr29  1  0.15879442  0.15913302  0.82681431  1
  Cr  Cr30  1  0.15764727  0.49207578  0.49279773  1
  Cr  Cr31  1  0.99118108  0.32671148  0.65809000  1
  Cr  Cr32  1  0.15935453  0.49222797  0.82404042  1
  Cr  Cr33  1  0.15874291  0.82388271  0.49390406  1
  Ni  Ni34  1  -0.00635269  0.65859660  0.65855598  1
  Cr  Cr35  1  0.15826047  0.82373113  0.82293497  1
  Ni  Ni36  1  0.49169763  0.15822345  0.49184208  1
  Cr  Cr37  1  0.32575147  0.99101481  0.65680636  1
  Cr  Cr38  1  0.49125888  0.15912445  0.82608549  1
  Cr  Cr39  1  0.49169413  0.49215679  0.49169815  1
  Cr  Cr40  1  0.32631308  0.32560706  0.65776037  1
  Cr  Cr41  1  0.49016216  0.49170214  0.82571254  1
  Cr  Cr42  1  0.49170191  0.82490956  0.49135724  1
  Ni  Ni43  1  0.32294091  0.65859624  0.65860201  1
  Cr  Cr44  1  0.49126625  0.82426482  0.82460582  1
  Cr  Cr45  1  0.82472515  0.15912440  0.49093359  1
  Cr  Cr46  1  0.65759616  -0.00683989  0.65793638  1
  Cr  Cr47  1  0.82503844  0.15802892  0.82536843  1
  Cr  Cr48  1  0.82575170  0.49208091  0.49059156  1
  Cr  Cr49  1  0.65759680  0.32402293  0.65793681  1
  Cr  Cr50  1  0.82557516  0.49223911  0.82403773  1
  Cr  Cr51  1  0.82464934  0.82388601  0.49169712  1
  Cr  Cr52  1  0.65870141  0.65790937  0.65865404  1
  Cr  Cr53  1  0.82556572  0.82482476  0.82437941  1
" 