255,Ni89Fe4Cr6_7,-237.782071417479, 176.207489611589,Ni89Fe4Cr6,"# generated using pymatgen
 data_Cr2FeNi24
_symmetry_space_group_name_H-M   'P 1'
_cell_length_a   7.45626153
_cell_length_b   7.45626153
_cell_length_c   10.54474618
_cell_angle_alpha   90.00000000
_cell_angle_beta   90.00000000
_cell_angle_gamma   90.00000000
_symmetry_Int_Tables_number   1
_chemical_formula_structural   Cr2FeNi24
_chemical_formula_sum   'Cr4 Fe2 Ni48'
_cell_volume   586.24397937
_cell_formula_units_Z   2
loop_
 _symmetry_equiv_pos_site_id
 _symmetry_equiv_pos_as_xyz
  1  'x, y, z'
loop_
 _atom_site_type_symbol
 _atom_site_label
 _atom_site_symmetry_multiplicity
 _atom_site_fract_x
 _atom_site_fract_y
 _atom_site_fract_z
 _atom_site_occupancy
  Fe  Fe0  1  0.00138822  0.00199609  0.00170178  1
  Ni  Ni1  1  0.16758264  0.16755000  0.16707590  1
  Ni  Ni2  1  1.00018241  0.00075128  0.33358664  1
  Ni  Ni3  1  1.00045187  0.33447280  1.00070159  1
  Ni  Ni4  1  0.16647748  0.50017855  0.16843790  1
  Ni  Ni5  1  0.00132516  0.33358972  0.33408128  1
  Ni  Ni6  1  0.99949257  0.66608868  0.00181123  1
  Ni  Ni7  1  0.16628237  0.83444461  0.16823900  1
  Ni  Ni8  1  0.00300972  0.66782872  0.33408060  1
  Ni  Ni9  1  0.33484093  0.00217853  0.00093998  1
  Ni  Ni10  1  0.50089071  0.16746620  0.16725173  1
  Fe  Fe11  1  0.33367310  0.00099792  0.33394193  1
  Ni  Ni12  1  0.33370234  0.33190736  1.00069872  1
  Ni  Ni13  1  0.50080314  0.49906704  0.16729758  1
  Ni  Ni14  1  0.33374285  0.33467283  0.33362936  1
  Cr  Cr15  1  0.33421241  0.66766212  1.00028435  1
  Ni  Ni16  1  0.50108066  0.83563745  0.16705767  1
  Ni  Ni17  1  0.33225724  0.66694787  0.33421890  1
  Ni  Ni18  1  0.66602464  0.00122202  0.00155438  1
  Ni  Ni19  1  0.83369636  0.16726935  0.16746693  1
  Ni  Ni20  1  0.66798394  0.00223643  0.33427598  1
  Ni  Ni21  1  0.66801643  0.33371975  1.00070196  1
  Ni  Ni22  1  0.83488953  0.50036907  0.16606407  1
  Ni  Ni23  1  0.66710210  0.33184443  0.33402006  1
  Ni  Ni24  1  0.66858909  0.66722752  0.00181146  1
  Ni  Ni25  1  0.83480658  0.83453334  0.16650046  1
  Cr  Cr26  1  0.66706228  0.66783095  0.33369994  1
  Ni  Ni27  1  0.16722422  0.16743953  0.50088928  1
  Ni  Ni28  1  0.00169449  0.00161084  0.66702945  1
  Ni  Ni29  1  0.16789077  0.16763090  0.83420577  1
  Ni  Ni30  1  0.16731439  0.50128046  0.50080798  1
  Ni  Ni31  1  0.00084178  0.33382495  0.66738725  1
  Ni  Ni32  1  0.16669272  0.49998228  0.83292350  1
  Ni  Ni33  1  0.16702840  0.83345056  0.50108362  1
  Ni  Ni34  1  0.00363741  0.66673492  0.66627924  1
  Ni  Ni35  1  0.16846955  0.83455759  0.83284610  1
  Ni  Ni36  1  0.50138566  0.16744542  0.50088873  1
  Ni  Ni37  1  0.33399925  1.00030696  0.66734461  1
  Ni  Ni38  1  0.50058316  0.16754833  0.83403078  1
  Ni  Ni39  1  0.49908408  0.49906320  0.50080677  1
  Ni  Ni40  1  0.33374306  0.33401945  0.66784102  1
  Ni  Ni41  1  0.50058576  0.49886733  0.83406574  1
  Ni  Ni42  1  0.49936230  0.83566395  0.50107990  1
  Ni  Ni43  1  0.33225098  0.66784370  0.66750591  1
  Ni  Ni44  1  0.49889488  0.83575350  0.83403193  1
  Ni  Ni45  1  0.83355971  0.16715918  0.50100303  1
  Ni  Ni46  1  0.66647632  0.00310085  0.66634015  1
  Ni  Ni47  1  0.83369588  0.16932365  0.83369920  1
  Ni  Ni48  1  0.83577334  0.49925740  0.50096712  1
  Ni  Ni49  1  0.66758532  0.33207558  0.66744815  1
  Ni  Ni50  1  0.83489197  0.49829480  0.83513956  1
  Ni  Ni51  1  0.83577669  0.83575148  0.50060784  1
  Cr  Cr52  1  0.66629854  0.66684911  0.66670603  1
  Cr  Cr53  1  0.83475026  0.83453108  0.83496763  1
" 