3466,Ni89Fe11_19,-228.40149155211, 154.592665469073,Ni89Fe11,"# generated using pymatgen
 data_Fe8Ni
_symmetry_space_group_name_H-M   'P 1'
_cell_length_a   7.40544237
_cell_length_b   7.40544237
_cell_length_c   10.47287704
_cell_angle_alpha   90.00000000
_cell_angle_beta   90.00000000
_cell_angle_gamma   90.00000000
_symmetry_Int_Tables_number   1
_chemical_formula_structural   Fe8Ni
_chemical_formula_sum   'Fe48 Ni6'
_cell_volume   574.33861667
_cell_formula_units_Z   6
loop_
 _symmetry_equiv_pos_site_id
 _symmetry_equiv_pos_as_xyz
  1  'x, y, z'
loop_
 _atom_site_type_symbol
 _atom_site_label
 _atom_site_symmetry_multiplicity
 _atom_site_fract_x
 _atom_site_fract_y
 _atom_site_fract_z
 _atom_site_occupancy
  Fe  Fe0  1  1.00415209  0.00417435  0.00416700  1
  Fe  Fe1  1  0.17081578  0.17082236  0.17082139  1
  Fe  Fe2  1  1.00415944  1.00415849  0.33749377  1
  Ni  Ni3  1  1.00414841  0.33749131  0.00416194  1
  Fe  Fe4  1  0.17081499  0.50415581  0.17082237  1
  Fe  Fe5  1  1.00415093  0.33748522  0.33748639  1
  Fe  Fe6  1  1.00415682  0.67081500  0.00416224  1
  Ni  Ni7  1  0.17083585  0.83748209  0.17081451  1
  Fe  Fe8  1  0.00416894  0.67083465  0.33749376  1
  Fe  Fe9  1  0.33748903  0.00416946  0.00416224  1
  Fe  Fe10  1  0.50416241  0.17082156  0.17082235  1
  Fe  Fe11  1  0.33748523  1.00414997  0.33749279  1
  Fe  Fe12  1  0.33749378  0.33749375  1.00415750  1
  Fe  Fe13  1  0.50416324  0.50415664  0.17082333  1
  Fe  Fe14  1  0.33749472  0.33749472  0.33749473  1
  Fe  Fe15  1  0.33748904  0.67081514  0.00416322  1
  Fe  Fe16  1  0.50415934  0.83750016  0.17082612  1
  Fe  Fe17  1  0.33748525  0.67083365  0.33749279  1
  Fe  Fe18  1  0.67083725  0.00417910  0.00416225  1
  Ni  Ni19  1  0.83748208  0.17083987  0.17081234  1
  Fe  Fe20  1  0.67083370  0.00416798  0.33749375  1
  Ni  Ni21  1  0.67083811  0.33749132  0.00416089  1
  Fe  Fe22  1  0.83750015  0.50415275  0.17081762  1
  Fe  Fe23  1  0.67083269  0.33748524  0.33748639  1
  Fe  Fe24  1  0.67083252  0.67081026  1.00415751  1
  Fe  Fe25  1  0.83749934  0.83749937  0.17082614  1
  Fe  Fe26  1  0.67082420  0.67082517  0.33749375  1
  Fe  Fe27  1  0.17081953  0.17081955  0.50416140  1
  Fe  Fe28  1  1.00415945  1.00415848  0.67081761  1
  Fe  Fe29  1  0.17082432  0.17083088  0.83749558  1
  Fe  Fe30  1  0.17081874  0.50415862  0.50416042  1
  Fe  Fe31  1  1.00415570  0.33748902  0.67082973  1
  Fe  Fe32  1  0.17082235  0.50415469  0.83749558  1
  Ni  Ni33  1  0.17083682  0.83748209  0.50417019  1
  Fe  Fe34  1  0.00416419  0.67083087  0.67082237  1
  Fe  Fe35  1  0.17082708  0.83749280  0.83749183  1
  Fe  Fe36  1  0.50415864  0.17081876  0.50416042  1
  Fe  Fe37  1  0.33748902  1.00415473  0.67082335  1
  Fe  Fe38  1  0.50416126  0.17082892  0.83749560  1
  Fe  Fe39  1  0.50415946  0.50415945  0.50415945  1
  Fe  Fe40  1  0.33749375  0.33749375  0.67082614  1
  Fe  Fe41  1  0.50416323  0.50415665  0.83749560  1
  Fe  Fe42  1  0.50416029  0.83750016  0.50416042  1
  Fe  Fe43  1  0.33748903  0.67082987  0.67082237  1
  Fe  Fe44  1  0.50416046  0.83749280  0.83749183  1
  Ni  Ni45  1  0.83748209  0.17083674  0.50417019  1
  Fe  Fe46  1  0.67082990  0.00416322  0.67082237  1
  Fe  Fe47  1  0.83749279  0.17083365  0.83750033  1
  Fe  Fe48  1  0.83750016  0.50416027  0.50416042  1
  Fe  Fe49  1  0.67082891  0.33748903  0.67082876  1
  Fe  Fe50  1  0.83749279  0.50415389  0.83750033  1
  Fe  Fe51  1  0.83749937  0.83749937  0.50416140  1
  Fe  Fe52  1  0.67082516  0.67082613  0.67082711  1
  Fe  Fe53  1  0.83749083  0.83749083  0.83749084  1
" 