1593,Ni89Fe8Cr1_13,-239.891723934432, 186.324630275545,Ni89Fe8Cr1,"# generated using pymatgen
 data_Cr(FeNi12)2
_symmetry_space_group_name_H-M   'P 1'
_cell_length_a   7.44943702
_cell_length_b   7.44943702
_cell_length_c   10.53509487
_cell_angle_alpha   90.00000000
_cell_angle_beta   90.00000000
_cell_angle_gamma   90.00000000
_symmetry_Int_Tables_number   1
_chemical_formula_structural   Cr(FeNi12)2
_chemical_formula_sum   'Cr2 Fe4 Ni48'
_cell_volume   584.63573412
_cell_formula_units_Z   2
loop_
 _symmetry_equiv_pos_site_id
 _symmetry_equiv_pos_as_xyz
  1  'x, y, z'
loop_
 _atom_site_type_symbol
 _atom_site_label
 _atom_site_symmetry_multiplicity
 _atom_site_fract_x
 _atom_site_fract_y
 _atom_site_fract_z
 _atom_site_occupancy
  Ni  Ni0  1  0.00119958  0.00133749  1.00074005  1
  Ni  Ni1  1  0.16798599  0.16749621  0.16800486  1
  Ni  Ni2  1  1.00048160  0.00149464  0.33523373  1
  Ni  Ni3  1  0.00119545  0.33431908  0.00122638  1
  Ni  Ni4  1  0.16786764  0.50157778  0.16786414  1
  Ni  Ni5  1  0.00139284  0.33386053  0.33499530  1
  Ni  Ni6  1  0.00146245  0.66788827  0.00148854  1
  Ni  Ni7  1  0.16778958  0.83447062  0.16780566  1
  Ni  Ni8  1  0.00157563  0.66819036  0.33449799  1
  Ni  Ni9  1  0.33460287  0.00125088  0.00165061  1
  Ni  Ni10  1  0.50150340  0.16775951  0.16736272  1
  Fe  Fe11  1  0.33326884  1.00054026  0.33338076  1
  Ni  Ni12  1  0.33452815  0.33432579  1.00065700  1
  Ni  Ni13  1  0.50143799  0.50112718  0.16780365  1
  Ni  Ni14  1  0.33366225  0.33577299  0.33412486  1
  Ni  Ni15  1  0.33434964  0.66796859  1.00090527  1
  Ni  Ni16  1  0.50124865  0.83465754  0.16849351  1
  Ni  Ni17  1  0.33448569  0.66728250  0.33495108  1
  Ni  Ni18  1  0.66774257  0.00151595  1.00102705  1
  Ni  Ni19  1  0.83405434  0.16768330  0.16832368  1
  Ni  Ni20  1  0.66939949  1.00067462  0.33380726  1
  Ni  Ni21  1  0.66782227  0.33406577  0.00135088  1
  Ni  Ni22  1  0.83423997  0.50132602  0.16817386  1
  Ni  Ni23  1  0.66848932  0.33467772  0.33374093  1
  Ni  Ni24  1  0.66773419  0.66796375  1.00102867  1
  Ni  Ni25  1  0.83450391  0.83453710  0.16737888  1
  Ni  Ni26  1  0.66748382  0.66819171  0.33514991  1
  Ni  Ni27  1  0.16631505  0.16761470  0.50165686  1
  Fe  Fe28  1  0.00181102  1.00114812  0.66741995  1
  Ni  Ni29  1  0.16797197  0.16751092  0.83388339  1
  Ni  Ni30  1  0.16793760  0.50173922  0.50165769  1
  Ni  Ni31  1  0.00319409  0.33469310  0.66732318  1
  Ni  Ni32  1  0.16769712  0.50156367  0.83402271  1
  Ni  Ni33  1  0.16710892  0.83418583  0.50114393  1
  Ni  Ni34  1  0.00163605  0.66742417  0.66756284  1
  Ni  Ni35  1  0.16861619  0.83446865  0.83459415  1
  Cr  Cr36  1  0.50066656  0.16791496  0.50044464  1
  Ni  Ni37  1  0.33410493  1.00034147  0.66828094  1
  Ni  Ni38  1  0.50078599  0.16662311  0.83554711  1
  Ni  Ni39  1  0.50059948  0.50335536  0.50062707  1
  Ni  Ni40  1  0.33144532  0.33493652  0.66875908  1
  Ni  Ni41  1  0.50079537  0.50218928  0.83511692  1
  Fe  Fe42  1  0.50155910  0.83250947  0.50161359  1
  Ni  Ni43  1  0.33408334  0.66826604  0.66769061  1
  Ni  Ni44  1  0.50077089  0.83473290  0.83359839  1
  Ni  Ni45  1  0.83655733  0.16672700  0.50026178  1
  Ni  Ni46  1  0.66807417  0.99878443  0.66871119  1
  Ni  Ni47  1  0.83478984  0.16753516  0.83496092  1
  Ni  Ni48  1  0.83500876  0.50256038  0.50026985  1
  Cr  Cr49  1  0.66881260  0.33493524  0.66853332  1
  Ni  Ni50  1  0.83505150  0.50154622  0.83510191  1
  Ni  Ni51  1  0.83495106  0.83425312  0.50182366  1
  Ni  Ni52  1  0.66782627  0.67008831  0.66737245  1
  Fe  Fe53  1  0.83414982  0.83422490  0.83468304  1
" 