5026,Ni89Fe4Cr6_19,-237.654913073336, 175.837476952633,Ni89Fe4Cr6,"# generated using pymatgen
 data_Cr2FeNi24
_symmetry_space_group_name_H-M   'P 1'
_cell_length_a   7.45941244
_cell_length_b   7.45941244
_cell_length_c   10.54920224
_cell_angle_alpha   90.00000000
_cell_angle_beta   90.00000000
_cell_angle_gamma   90.00000000
_symmetry_Int_Tables_number   1
_chemical_formula_structural   Cr2FeNi24
_chemical_formula_sum   'Cr4 Fe2 Ni48'
_cell_volume   586.98750775
_cell_formula_units_Z   2
loop_
 _symmetry_equiv_pos_site_id
 _symmetry_equiv_pos_as_xyz
  1  'x, y, z'
loop_
 _atom_site_type_symbol
 _atom_site_label
 _atom_site_symmetry_multiplicity
 _atom_site_fract_x
 _atom_site_fract_y
 _atom_site_fract_z
 _atom_site_occupancy
  Ni  Ni0  1  1.00051140  0.99966788  1.00050215  1
  Ni  Ni1  1  0.16913513  0.16737098  0.16672961  1
  Fe  Fe2  1  0.00141806  1.00019687  0.33485220  1
  Ni  Ni3  1  0.00312316  0.33312432  0.99827311  1
  Ni  Ni4  1  0.16784135  0.49966658  0.16794441  1
  Ni  Ni5  1  0.00262267  0.33457130  0.33553728  1
  Ni  Ni6  1  0.00062047  0.66898731  0.99954884  1
  Ni  Ni7  1  0.16660404  0.83467094  0.16833483  1
  Ni  Ni8  1  0.00153756  0.66767481  0.33415727  1
  Fe  Fe9  1  0.33378050  0.00135053  1.00024106  1
  Ni  Ni10  1  0.49910094  0.16698121  0.16696973  1
  Ni  Ni11  1  0.33376258  0.00139244  0.33207387  1
  Ni  Ni12  1  0.33379171  0.33255969  0.00107477  1
  Ni  Ni13  1  0.49986352  0.49972416  0.16872265  1
  Ni  Ni14  1  0.33334593  0.33330308  0.33362239  1
  Cr  Cr15  1  0.33369381  0.66607174  0.00077203  1
  Ni  Ni16  1  0.50118876  0.83467785  0.16778422  1
  Ni  Ni17  1  0.33237671  0.66678965  0.33326153  1
  Ni  Ni18  1  0.66731436  0.99987410  0.99969392  1
  Cr  Cr19  1  0.83435099  0.16712271  0.16699879  1
  Ni  Ni20  1  0.66644765  0.00054046  0.33409024  1
  Ni  Ni21  1  0.66476071  0.33296559  0.99860186  1
  Cr  Cr22  1  0.83421672  0.50133045  0.16538191  1
  Ni  Ni23  1  0.66574884  0.33295000  0.33571244  1
  Ni  Ni24  1  0.66743259  0.66904394  0.99992420  1
  Ni  Ni25  1  0.83375918  0.83392160  0.16730340  1
  Ni  Ni26  1  0.66746367  0.66791845  0.33327555  1
  Ni  Ni27  1  0.16752870  0.16716457  0.50048947  1
  Ni  Ni28  1  1.00026758  0.00056534  0.66612133  1
  Ni  Ni29  1  0.16696855  0.16708375  0.83419391  1
  Ni  Ni30  1  0.16699122  0.50051888  0.50066046  1
  Ni  Ni31  1  0.00067708  0.33348726  0.66757209  1
  Ni  Ni32  1  0.16633818  0.49953181  0.83298972  1
  Ni  Ni33  1  0.16571078  0.83399073  0.50075733  1
  Ni  Ni34  1  0.00060578  0.66742928  0.66759003  1
  Ni  Ni35  1  0.16622650  0.83480898  0.83231462  1
  Ni  Ni36  1  0.50017292  0.16824615  0.50066083  1
  Ni  Ni37  1  0.33263162  0.00174892  0.66928595  1
  Ni  Ni38  1  0.50032501  0.16718061  0.83382094  1
  Ni  Ni39  1  0.50053633  0.49904865  0.50022681  1
  Ni  Ni40  1  0.33367609  0.33363212  0.66680079  1
  Ni  Ni41  1  0.50129617  0.49977125  0.83257278  1
  Cr  Cr42  1  0.49900765  0.83370276  0.50245361  1
  Ni  Ni43  1  0.33236364  0.66610199  0.66777734  1
  Ni  Ni44  1  0.50133988  0.83452805  0.83264471  1
  Ni  Ni45  1  0.83403224  0.16764230  0.50058507  1
  Ni  Ni46  1  0.66848306  0.00167391  0.66811670  1
  Ni  Ni47  1  0.83415250  0.16720823  0.83380118  1
  Ni  Ni48  1  0.83405461  0.50043965  0.50070356  1
  Ni  Ni49  1  0.66720995  0.33322268  0.66693033  1
  Ni  Ni50  1  0.83389752  0.50038088  0.83452842  1
  Ni  Ni51  1  0.83494776  0.83357638  0.50014219  1
  Ni  Ni52  1  0.66836984  0.66651756  0.66843027  1
  Ni  Ni53  1  0.83401198  0.83398484  0.83408144  1
" 