5842,Ni89Fe4Cr6_3,-237.764369454601, 175.823022690317,Ni89Fe4Cr6,"# generated using pymatgen
 data_Cr2FeNi24
_symmetry_space_group_name_H-M   'P 1'
_cell_length_a   7.45663243
_cell_length_b   7.45663243
_cell_length_c   10.54527071
_cell_angle_alpha   90.00000000
_cell_angle_beta   90.00000000
_cell_angle_gamma   90.00000000
_symmetry_Int_Tables_number   1
_chemical_formula_structural   Cr2FeNi24
_chemical_formula_sum   'Cr4 Fe2 Ni48'
_cell_volume   586.33146847
_cell_formula_units_Z   2
loop_
 _symmetry_equiv_pos_site_id
 _symmetry_equiv_pos_as_xyz
  1  'x, y, z'
loop_
 _atom_site_type_symbol
 _atom_site_label
 _atom_site_symmetry_multiplicity
 _atom_site_fract_x
 _atom_site_fract_y
 _atom_site_fract_z
 _atom_site_occupancy
  Ni  Ni0  1  1.00068370  1.00051843  1.00028589  1
  Ni  Ni1  1  0.16885900  0.16701580  0.16713927  1
  Ni  Ni2  1  0.00145536  0.99974929  0.33520806  1
  Ni  Ni3  1  0.00184813  0.33515600  0.99969765  1
  Ni  Ni4  1  0.16587109  0.50105430  0.16713969  1
  Ni  Ni5  1  0.00163601  0.33515701  0.33480933  1
  Ni  Ni6  1  0.99964016  0.66642055  0.00145193  1
  Ni  Ni7  1  0.16736503  0.83402484  0.16749237  1
  Ni  Ni8  1  1.00040706  0.66718925  0.33403698  1
  Ni  Ni9  1  0.33503481  0.00150570  0.00149622  1
  Ni  Ni10  1  0.49902824  0.16569052  0.16731446  1
  Ni  Ni11  1  0.33426500  0.00073833  0.33399539  1
  Ni  Ni12  1  0.33288181  0.33317720  0.99969730  1
  Cr  Cr13  1  0.50090102  0.50049717  0.16752881  1
  Ni  Ni14  1  0.33309390  0.33317501  0.33480974  1
  Ni  Ni15  1  0.33410218  0.66740868  1.00024315  1
  Ni  Ni16  1  0.50034899  0.83552352  0.16713944  1
  Ni  Ni17  1  0.33333363  0.66817915  0.33524769  1
  Ni  Ni18  1  0.66637522  0.99929700  0.99964373  1
  Cr  Cr19  1  0.83382671  0.16756992  0.16752869  1
  Ni  Ni20  1  0.66637361  0.99950894  0.33486366  1
  Ni  Ni21  1  0.66736509  0.33422502  0.99852378  1
  Ni  Ni22  1  0.83570669  0.50237533  0.16731440  1
  Ni  Ni23  1  0.66736511  0.33422556  0.33621247  1
  Ni  Ni24  1  0.66835410  0.66857323  0.99975216  1
  Ni  Ni25  1  0.83438116  0.83253562  0.16713945  1
  Ni  Ni26  1  0.66835567  0.66836072  0.33475327  1
  Ni  Ni27  1  0.16719279  0.16697008  0.50082479  1
  Ni  Ni28  1  0.00197031  0.00165535  0.66659837  1
  Ni  Ni29  1  0.16719269  0.16880663  0.83412982  1
  Ni  Ni30  1  0.16753770  0.50068024  0.50046100  1
  Ni  Ni31  1  0.00146323  0.33397674  0.66758940  1
  Ni  Ni32  1  0.16753787  0.49883789  0.83449693  1
  Ni  Ni33  1  0.16736524  0.83444126  0.50051038  1
  Fe  Fe34  1  0.99961568  0.66623417  0.66653749  1
  Cr  Cr35  1  0.16736503  0.83454860  0.83382716  1
  Ni  Ni36  1  0.50012006  0.16830598  0.49951955  1
  Ni  Ni37  1  0.33276576  0.00166132  0.66659826  1
  Ni  Ni38  1  0.50029131  0.16847653  0.83526013  1
  Ni  Ni39  1  0.50100972  0.50058470  0.50093443  1
  Ni  Ni40  1  0.33326686  0.33396470  0.66758940  1
  Ni  Ni41  1  0.50118097  0.50041369  0.83384575  1
  Ni  Ni42  1  0.49984970  0.83320288  0.49976996  1
  Fe  Fe43  1  0.33510585  0.66624282  0.66653810  1
  Ni  Ni44  1  0.50169017  0.83320285  0.83518613  1
  Ni  Ni45  1  0.83478278  0.16813278  0.50004796  1
  Cr  Cr46  1  0.66735824  1.00000785  0.66756139  1
  Ni  Ni47  1  0.83461160  0.16830328  0.83473182  1
  Ni  Ni48  1  0.83354778  0.50041184  0.50040619  1
  Ni  Ni49  1  0.66736517  0.33649343  0.66736368  1
  Ni  Ni50  1  0.83337629  0.50024059  0.83437409  1
  Ni  Ni51  1  0.83488043  0.83354884  0.49977044  1
  Ni  Ni52  1  0.66737105  0.66596655  0.66758944  1
  Ni  Ni53  1  0.83303995  0.83354909  0.83518569  1
" 