8887,Ni89Fe4Cr6_10,-237.774154670265, 177.168464694009,Ni89Fe4Cr6,"# generated using pymatgen
 data_Cr2FeNi24
_symmetry_space_group_name_H-M   'P 1'
_cell_length_a   7.45905375
_cell_length_b   7.45905375
_cell_length_c   10.54869498
_cell_angle_alpha   90.00000000
_cell_angle_beta   90.00000000
_cell_angle_gamma   90.00000000
_symmetry_Int_Tables_number   1
_chemical_formula_structural   Cr2FeNi24
_chemical_formula_sum   'Cr4 Fe2 Ni48'
_cell_volume   586.90283569
_cell_formula_units_Z   2
loop_
 _symmetry_equiv_pos_site_id
 _symmetry_equiv_pos_as_xyz
  1  'x, y, z'
loop_
 _atom_site_type_symbol
 _atom_site_label
 _atom_site_symmetry_multiplicity
 _atom_site_fract_x
 _atom_site_fract_y
 _atom_site_fract_z
 _atom_site_occupancy
  Ni  Ni0  1  0.00072421  1.00037793  1.00040349  1
  Ni  Ni1  1  0.16809735  0.16628268  0.16678893  1
  Ni  Ni2  1  0.99981324  1.00008015  0.33297848  1
  Ni  Ni3  1  0.00087502  0.33439437  0.00070073  1
  Ni  Ni4  1  0.16832785  0.50156693  0.16723894  1
  Cr  Cr5  1  0.00251102  0.33422148  0.33319439  1
  Ni  Ni6  1  0.00088220  0.66681998  0.00072639  1
  Ni  Ni7  1  0.16698717  0.83381328  0.16740220  1
  Ni  Ni8  1  1.00000220  0.66820594  0.33274276  1
  Ni  Ni9  1  0.33410880  1.00018488  1.00002666  1
  Ni  Ni10  1  0.49952184  0.16692021  0.16684576  1
  Ni  Ni11  1  0.33488968  0.00111031  0.33338715  1
  Ni  Ni12  1  0.33337518  0.33407653  0.00108987  1
  Ni  Ni13  1  0.49982279  0.50131647  0.16620081  1
  Ni  Ni14  1  0.33379939  0.33405508  0.33391168  1
  Ni  Ni15  1  0.33357167  0.66732451  1.00042505  1
  Ni  Ni16  1  0.50050047  0.83332937  0.16815217  1
  Ni  Ni17  1  0.33468361  0.66655292  0.33275896  1
  Ni  Ni18  1  0.66679540  1.00021868  0.00073229  1
  Ni  Ni19  1  0.83401029  0.16561350  0.16531087  1
  Ni  Ni20  1  0.66699239  0.99886401  0.33414151  1
  Ni  Ni21  1  0.66732948  0.33389715  1.00038868  1
  Ni  Ni22  1  0.83356674  0.50249461  0.16579853  1
  Cr  Cr23  1  0.66603798  0.33337823  0.33339749  1
  Ni  Ni24  1  0.66715388  0.66753079  1.00040389  1
  Ni  Ni25  1  0.83413584  0.83366978  0.16793461  1
  Ni  Ni26  1  0.66694360  0.66893267  0.33413225  1
  Ni  Ni27  1  0.16760646  0.16788160  0.50140816  1
  Ni  Ni28  1  0.00099121  0.00127063  0.66831927  1
  Ni  Ni29  1  0.16705669  0.16736416  0.83331801  1
  Fe  Fe30  1  0.16892365  0.50055918  0.50140517  1
  Ni  Ni31  1  0.00080120  0.33400864  0.66700082  1
  Ni  Ni32  1  0.16735274  0.50048499  0.83312511  1
  Cr  Cr33  1  0.16692790  0.83466604  0.50057257  1
  Ni  Ni34  1  0.99986508  0.66631811  0.66800161  1
  Ni  Ni35  1  0.16685077  0.83369891  0.83364473  1
  Ni  Ni36  1  0.49889346  0.16844131  0.50044837  1
  Ni  Ni37  1  0.33317312  0.00115898  0.66820055  1
  Ni  Ni38  1  0.49952950  0.16897209  0.83442194  1
  Ni  Ni39  1  0.49979881  0.50122653  0.50140108  1
  Ni  Ni40  1  0.33366589  0.33403017  0.66675259  1
  Ni  Ni41  1  0.50066351  0.50032376  0.83405323  1
  Ni  Ni42  1  0.50111422  0.83182151  0.49954063  1
  Ni  Ni43  1  0.33470172  0.66648847  0.66854085  1
  Ni  Ni44  1  0.49955739  0.83225071  0.83414183  1
  Ni  Ni45  1  0.83514744  0.16585573  0.50158349  1
  Cr  Cr46  1  0.66611777  0.99981533  0.66760065  1
  Ni  Ni47  1  0.83490337  0.16839959  0.83475533  1
  Fe  Fe48  1  0.83290046  0.50160595  0.50192942  1
  Ni  Ni49  1  0.66721447  0.33515012  0.66731888  1
  Ni  Ni50  1  0.83361436  0.50052897  0.83326116  1
  Ni  Ni51  1  0.83389385  0.83291284  0.49942503  1
  Ni  Ni52  1  0.66712716  0.66578769  0.66701955  1
  Ni  Ni53  1  0.83508434  0.83268141  0.83453129  1
" 