2112,Ni89Fe7Cr3_16,-238.897218847224, 181.739705580689,Ni89Fe7Cr3,"# generated using pymatgen
 data_CrFeNi16
_symmetry_space_group_name_H-M   'P 1'
_cell_length_a   7.45336332
_cell_length_b   7.45336332
_cell_length_c   10.54064749
_cell_angle_alpha   90.00000000
_cell_angle_beta   90.00000000
_cell_angle_gamma   90.00000000
_symmetry_Int_Tables_number   1
_chemical_formula_structural   CrFeNi16
_chemical_formula_sum   'Cr3 Fe3 Ni48'
_cell_volume   585.56063459
_cell_formula_units_Z   3
loop_
 _symmetry_equiv_pos_site_id
 _symmetry_equiv_pos_as_xyz
  1  'x, y, z'
loop_
 _atom_site_type_symbol
 _atom_site_label
 _atom_site_symmetry_multiplicity
 _atom_site_fract_x
 _atom_site_fract_y
 _atom_site_fract_z
 _atom_site_occupancy
  Ni  Ni0  1  1.00078399  0.00095221  0.99992031  1
  Ni  Ni1  1  0.16853102  0.16789720  0.16794529  1
  Ni  Ni2  1  1.00074034  1.00086572  0.33531150  1
  Ni  Ni3  1  1.00088135  0.33441362  0.00126118  1
  Ni  Ni4  1  0.16696691  0.50033474  0.16758376  1
  Ni  Ni5  1  1.00079272  0.33450100  0.33383577  1
  Ni  Ni6  1  1.00045620  0.66737228  1.00019479  1
  Ni  Ni7  1  0.16706272  0.83453308  0.16767701  1
  Ni  Ni8  1  1.00047101  0.66739754  0.33469799  1
  Ni  Ni9  1  0.33343939  0.00207309  0.00176389  1
  Ni  Ni10  1  0.50037988  0.16788495  0.16732191  1
  Ni  Ni11  1  0.33465578  0.00095429  0.33429287  1
  Ni  Ni12  1  0.33435247  0.33444315  1.00033384  1
  Ni  Ni13  1  0.50142116  0.50002397  0.16805100  1
  Ni  Ni14  1  0.33426027  0.33416594  0.33462785  1
  Ni  Ni15  1  0.33373750  0.66620221  0.00172050  1
  Ni  Ni16  1  0.50132190  0.83484359  0.16774653  1
  Ni  Ni17  1  0.33450838  0.66766148  0.33430535  1
  Ni  Ni18  1  0.66862339  0.00167061  0.00177141  1
  Fe  Fe19  1  0.83441233  0.16761713  0.16769528  1
  Ni  Ni20  1  0.66741563  1.00062264  0.33424209  1
  Ni  Ni21  1  0.66747750  0.33470011  0.99990905  1
  Ni  Ni22  1  0.83437637  0.50131408  0.16759264  1
  Ni  Ni23  1  0.66764140  0.33439266  0.33500597  1
  Ni  Ni24  1  0.66846834  0.66648384  0.00184804  1
  Ni  Ni25  1  0.83434894  0.83332490  0.16766872  1
  Ni  Ni26  1  0.66774339  0.66779309  0.33412461  1
  Ni  Ni27  1  0.16796663  0.16830719  0.49906940  1
  Ni  Ni28  1  0.99841627  0.99995380  0.66745318  1
  Ni  Ni29  1  0.16768275  0.16800242  0.83589675  1
  Ni  Ni30  1  0.16730044  0.50148942  0.49981010  1
  Cr  Cr31  1  0.00193621  0.33365387  0.66795389  1
  Ni  Ni32  1  0.16809343  0.50157502  0.83544864  1
  Ni  Ni33  1  0.16669888  0.83287080  0.50031133  1
  Ni  Ni34  1  1.00032368  0.66827330  0.66781982  1
  Ni  Ni35  1  0.16481289  0.83310903  0.83478041  1
  Ni  Ni36  1  0.50178748  0.16800808  0.50054097  1
  Cr  Cr37  1  0.33292316  0.00233214  0.66700070  1
  Ni  Ni38  1  0.50186266  0.17013000  0.83491759  1
  Fe  Fe39  1  0.50079179  0.50125698  0.50038369  1
  Ni  Ni40  1  0.33539049  0.33603864  0.66763531  1
  Ni  Ni41  1  0.50110327  0.49906516  0.83349879  1
  Ni  Ni42  1  0.50215404  0.83439870  0.49935435  1
  Ni  Ni43  1  0.33386184  0.66469499  0.66665859  1
  Cr  Cr44  1  0.50202072  0.83368589  0.83637438  1
  Ni  Ni45  1  0.83298937  0.16710254  0.49942060  1
  Ni  Ni46  1  0.66993923  0.00115752  0.66681371  1
  Ni  Ni47  1  0.83319470  0.16674207  0.83545394  1
  Ni  Ni48  1  0.83430433  0.50195473  0.49996462  1
  Fe  Fe49  1  0.66736969  0.33426666  0.66758934  1
  Ni  Ni50  1  0.83355300  0.50201917  0.83525217  1
  Ni  Ni51  1  0.83382846  0.83370924  0.50137154  1
  Ni  Ni52  1  0.66841238  0.66733746  0.66669375  1
  Ni  Ni53  1  0.83558362  0.83399780  0.83365498  1
" 