7114,Ni89Fe9Cr1_18,-239.878405345296, 186.411786267978,Ni89Fe9Cr1,"# generated using pymatgen
 data_Cr(FeNi12)2
_symmetry_space_group_name_H-M   'P 1'
_cell_length_a   7.44800674
_cell_length_b   7.44800674
_cell_length_c   10.53307215
_cell_angle_alpha   90.00000000
_cell_angle_beta   90.00000000
_cell_angle_gamma   90.00000000
_symmetry_Int_Tables_number   1
_chemical_formula_structural   Cr(FeNi12)2
_chemical_formula_sum   'Cr2 Fe4 Ni48'
_cell_volume   584.29905145
_cell_formula_units_Z   2
loop_
 _symmetry_equiv_pos_site_id
 _symmetry_equiv_pos_as_xyz
  1  'x, y, z'
loop_
 _atom_site_type_symbol
 _atom_site_label
 _atom_site_symmetry_multiplicity
 _atom_site_fract_x
 _atom_site_fract_y
 _atom_site_fract_z
 _atom_site_occupancy
  Ni  Ni0  1  0.00209018  1.00036226  1.00038655  1
  Ni  Ni1  1  0.16911811  0.16785426  0.16829404  1
  Ni  Ni2  1  0.00198788  0.99966950  0.33537963  1
  Ni  Ni3  1  0.00183457  0.33527393  1.00060609  1
  Ni  Ni4  1  0.16860563  0.50111307  0.16781804  1
  Fe  Fe5  1  0.00192020  0.33569690  0.33517645  1
  Ni  Ni6  1  1.00057906  0.66820000  1.00103662  1
  Ni  Ni7  1  0.16853898  0.83486972  0.16787722  1
  Ni  Ni8  1  1.00055337  0.66879671  0.33478634  1
  Ni  Ni9  1  0.33430168  0.00160872  0.00163746  1
  Fe  Fe10  1  0.49949516  0.16799110  0.16804447  1
  Ni  Ni11  1  0.33418548  0.00172021  0.33438429  1
  Ni  Ni12  1  0.33481043  0.33428119  1.00112847  1
  Ni  Ni13  1  0.50092620  0.50185087  0.16813206  1
  Ni  Ni14  1  0.33550740  0.33438434  0.33464013  1
  Ni  Ni15  1  0.33482151  0.66794503  1.00099793  1
  Ni  Ni16  1  0.50093712  0.83407893  0.16818135  1
  Ni  Ni17  1  0.33463227  0.66773002  0.33507856  1
  Ni  Ni18  1  0.66743948  1.00034524  0.99991161  1
  Cr  Cr19  1  0.83488203  0.16776317  0.16755267  1
  Ni  Ni20  1  0.66766250  1.00053732  0.33616289  1
  Ni  Ni21  1  0.66718757  0.33580074  1.00013416  1
  Ni  Ni22  1  0.83430244  0.50242721  0.16807357  1
  Ni  Ni23  1  0.66659801  0.33582564  0.33568824  1
  Ni  Ni24  1  0.66843396  0.66769165  0.00187078  1
  Ni  Ni25  1  0.83435613  0.83356779  0.16813247  1
  Ni  Ni26  1  0.66864905  0.66747597  0.33425560  1
  Fe  Fe27  1  0.16819818  0.16763644  0.50147030  1
  Ni  Ni28  1  0.00193800  1.00127113  0.66807154  1
  Ni  Ni29  1  0.16766602  0.16798356  0.83441705  1
  Ni  Ni30  1  0.16821179  0.50197718  0.50135222  1
  Ni  Ni31  1  1.00087763  0.33414783  0.66759583  1
  Ni  Ni32  1  0.16811371  0.50128216  0.83465828  1
  Ni  Ni33  1  0.16815196  0.83397074  0.50125032  1
  Ni  Ni34  1  0.00251211  0.66841705  0.66801391  1
  Ni  Ni35  1  0.16812621  0.83456961  0.83470761  1
  Ni  Ni36  1  0.50230060  0.16800618  0.50078111  1
  Ni  Ni37  1  0.33373536  0.00154344  0.66781856  1
  Ni  Ni38  1  0.50169479  0.16803431  0.83517876  1
  Ni  Ni39  1  0.50004517  0.50005986  0.50045567  1
  Ni  Ni40  1  0.33505825  0.33413135  0.66807321  1
  Ni  Ni41  1  0.50025604  0.50024705  0.83524917  1
  Ni  Ni42  1  0.49997807  0.83577357  0.50034823  1
  Ni  Ni43  1  0.33314507  0.66816147  0.66775809  1
  Ni  Ni44  1  0.50019061  0.83555790  0.83530745  1
  Ni  Ni45  1  0.83377861  0.16794667  0.50168327  1
  Fe  Fe46  1  0.66793415  0.00306808  0.66789649  1
  Ni  Ni47  1  0.83447117  0.16804509  0.83432854  1
  Ni  Ni48  1  0.83558159  0.49966896  0.50005450  1
  Ni  Ni49  1  0.66790190  0.33355068  0.66801346  1
  Ni  Ni50  1  0.83546428  0.49978567  0.83570119  1
  Ni  Ni51  1  0.83570184  0.83622292  0.49994817  1
  Cr  Cr52  1  0.66812001  0.66709629  0.66776643  1
  Ni  Ni53  1  0.83551609  0.83600899  0.83575856  1
" 