6689,Ni89Fe9Cr1_11,-239.920242819099, 186.197587169461,Ni89Fe9Cr1,"# generated using pymatgen
 data_Cr(FeNi12)2
_symmetry_space_group_name_H-M   'P 1'
_cell_length_a   7.44668620
_cell_length_b   7.44668620
_cell_length_c   10.53120462
_cell_angle_alpha   90.00000000
_cell_angle_beta   90.00000000
_cell_angle_gamma   90.00000000
_symmetry_Int_Tables_number   1
_chemical_formula_structural   Cr(FeNi12)2
_chemical_formula_sum   'Cr2 Fe4 Ni48'
_cell_volume   583.98831516
_cell_formula_units_Z   2
loop_
 _symmetry_equiv_pos_site_id
 _symmetry_equiv_pos_as_xyz
  1  'x, y, z'
loop_
 _atom_site_type_symbol
 _atom_site_label
 _atom_site_symmetry_multiplicity
 _atom_site_fract_x
 _atom_site_fract_y
 _atom_site_fract_z
 _atom_site_occupancy
  Ni  Ni0  1  1.00132277  0.00195209  1.00118707  1
  Ni  Ni1  1  0.16779892  0.16728697  0.16854170  1
  Ni  Ni2  1  1.00104669  1.00094914  0.33499434  1
  Ni  Ni3  1  1.00007349  0.33338930  0.00272502  1
  Fe  Fe4  1  0.16832891  0.50104667  0.16883068  1
  Ni  Ni5  1  1.00098186  0.33508595  0.33473131  1
  Fe  Fe6  1  1.00019823  0.66888666  0.00217313  1
  Ni  Ni7  1  0.16783040  0.83554826  0.16803260  1
  Ni  Ni8  1  0.00237470  0.66811218  0.33396563  1
  Ni  Ni9  1  0.33434812  1.00056277  1.00118271  1
  Ni  Ni10  1  0.50125564  0.16862644  0.16800470  1
  Ni  Ni11  1  0.33477508  1.00057950  0.33499012  1
  Ni  Ni12  1  0.33527309  0.33449614  0.00276350  1
  Ni  Ni13  1  0.50212672  0.50117405  0.16775593  1
  Ni  Ni14  1  0.33495224  0.33554519  0.33432666  1
  Ni  Ni15  1  0.33633108  0.66909691  0.00232615  1
  Ni  Ni16  1  0.50109443  0.83425332  0.16844596  1
  Ni  Ni17  1  0.33392150  0.66800560  0.33471761  1
  Ni  Ni18  1  0.66840321  1.00093822  0.00188490  1
  Ni  Ni19  1  0.83504366  0.16833319  0.16804357  1
  Ni  Ni20  1  0.66828798  0.00185800  0.33372333  1
  Ni  Ni21  1  0.66873271  0.33539614  1.00079919  1
  Ni  Ni22  1  0.83373741  0.50114561  0.16847068  1
  Ni  Ni23  1  0.66818618  0.33416847  0.33463873  1
  Ni  Ni24  1  0.66730924  0.66781917  0.00157818  1
  Ni  Ni25  1  0.83511573  0.83463127  0.16798198  1
  Fe  Fe26  1  0.66773546  0.66794926  0.33416349  1
  Ni  Ni27  1  0.16763778  0.16842465  0.50153458  1
  Ni  Ni28  1  0.00250797  1.00119868  0.66791265  1
  Ni  Ni29  1  0.16777319  0.16671137  0.83406812  1
  Ni  Ni30  1  0.16874299  0.50149821  0.50046468  1
  Ni  Ni31  1  1.00034737  0.33412213  0.66672143  1
  Cr  Cr32  1  0.16864645  0.50105764  0.83549849  1
  Ni  Ni33  1  0.16732627  0.83415843  0.50192504  1
  Ni  Ni34  1  1.00071575  0.66880917  0.66787632  1
  Ni  Ni35  1  0.16786247  0.83634889  0.83413153  1
  Ni  Ni36  1  0.50073710  0.16969493  0.50016428  1
  Ni  Ni37  1  0.33314595  1.00083238  0.66791451  1
  Ni  Ni38  1  0.50016222  0.16960414  0.83603703  1
  Ni  Ni39  1  0.50074500  0.50117820  0.50180338  1
  Ni  Ni40  1  0.33550545  0.33436646  0.66715457  1
  Ni  Ni41  1  0.50304923  0.50151295  0.83449397  1
  Ni  Ni42  1  0.50084963  0.83313371  0.50000060  1
  Ni  Ni43  1  0.33540766  0.66888083  0.66724875  1
  Ni  Ni44  1  0.50050659  0.83304344  0.83557555  1
  Ni  Ni45  1  0.83569480  0.16830509  0.50020696  1
  Cr  Cr46  1  0.66791359  0.00159089  0.66909406  1
  Ni  Ni47  1  0.83608988  0.16921696  0.83596951  1
  Fe  Fe48  1  0.83518899  0.50120530  0.50133468  1
  Ni  Ni49  1  0.66828947  0.33642896  0.66855537  1
  Ni  Ni50  1  0.83284039  0.50140253  0.83375048  1
  Ni  Ni51  1  0.83590617  0.83416273  0.50003960  1
  Ni  Ni52  1  0.66796017  0.66662201  0.66733942  1
  Ni  Ni53  1  0.83568786  0.83347868  0.83603141  1
" 