343,Ni8Cr92_7,-237.080646114252, 169.184017346759,Ni8Cr92,"# generated using pymatgen
 data_Cr2Ni25
_symmetry_space_group_name_H-M   'P 1'
_cell_length_a   7.46848810
_cell_length_b   7.46848810
_cell_length_c   10.56203717
_cell_angle_alpha   90.00000000
_cell_angle_beta   90.00000000
_cell_angle_gamma   90.00000000
_symmetry_Int_Tables_number   1
_chemical_formula_structural   Cr2Ni25
_chemical_formula_sum   'Cr4 Ni50'
_cell_volume   589.13263145
_cell_formula_units_Z   2
loop_
 _symmetry_equiv_pos_site_id
 _symmetry_equiv_pos_as_xyz
  1  'x, y, z'
loop_
 _atom_site_type_symbol
 _atom_site_label
 _atom_site_symmetry_multiplicity
 _atom_site_fract_x
 _atom_site_fract_y
 _atom_site_fract_z
 _atom_site_occupancy
  Ni  Ni0  1  0.00251913  0.00083899  0.99916828  1
  Ni  Ni1  1  0.16681927  0.16662366  0.16638006  1
  Ni  Ni2  1  0.00084267  0.00086874  0.33394364  1
  Ni  Ni3  1  0.00108053  0.33233914  0.99912664  1
  Ni  Ni4  1  0.16836160  0.49957713  0.16661444  1
  Ni  Ni5  1  0.00096441  0.33233736  0.33390612  1
  Ni  Ni6  1  0.00231064  0.66652885  0.99794024  1
  Ni  Ni7  1  0.16855060  0.83351697  0.16660908  1
  Ni  Ni8  1  0.00220479  0.66654036  0.33530794  1
  Ni  Ni9  1  0.33148759  0.99983313  0.00002459  1
  Ni  Ni10  1  0.49848365  0.16758301  0.16770836  1
  Ni  Ni11  1  0.33220347  0.00085566  0.33197767  1
  Ni  Ni12  1  0.33318332  0.33350224  0.00002833  1
  Ni  Ni13  1  0.49819438  0.49972686  0.16660038  1
  Ni  Ni14  1  0.33318966  0.33344998  0.33330683  1
  Ni  Ni15  1  0.33301532  0.66636582  0.00025769  1
  Ni  Ni16  1  0.49698093  0.83238358  0.16728450  1
  Ni  Ni17  1  0.33203157  0.66542733  0.33199116  1
  Cr  Cr18  1  0.66552259  0.00096223  0.99907513  1
  Ni  Ni19  1  0.83442256  0.16765338  0.16748735  1
  Ni  Ni20  1  0.66664078  0.00198752  0.33328884  1
  Ni  Ni21  1  0.66547351  0.33391123  0.99915623  1
  Cr  Cr22  1  0.83362432  0.49809565  0.16596981  1
  Ni  Ni23  1  0.66558270  0.33217362  0.33390474  1
  Ni  Ni24  1  0.66439441  0.66484373  0.99795944  1
  Cr  Cr25  1  0.83442650  0.83339129  0.16786592  1
  Ni  Ni26  1  0.66545187  0.66554613  0.33403973  1
  Ni  Ni27  1  0.16666777  0.16662110  0.49993808  1
  Ni  Ni28  1  0.99975130  0.99983127  0.66659804  1
  Ni  Ni29  1  0.16672057  0.16660495  0.83340021  1
  Ni  Ni30  1  0.16650023  0.49957351  0.49971776  1
  Ni  Ni31  1  -0.00007976  0.33336042  0.66661276  1
  Ni  Ni32  1  0.16653372  0.49963558  0.83339482  1
  Ni  Ni33  1  0.16491401  0.83350872  0.49968266  1
  Ni  Ni34  1  0.00007045  0.66652574  0.66637944  1
  Ni  Ni35  1  0.16671891  0.83346183  0.83339892  1
  Ni  Ni36  1  0.49961745  0.16830929  0.49993491  1
  Ni  Ni37  1  0.33217709  0.00087108  0.66777791  1
  Ni  Ni38  1  0.49860983  0.16756118  0.83209003  1
  Ni  Ni39  1  0.49993000  0.49816032  0.49971172  1
  Ni  Ni40  1  0.33318566  0.33350205  0.66637253  1
  Ni  Ni41  1  0.49989951  0.49978503  0.83342028  1
  Cr  Cr42  1  0.49939850  0.83377361  0.50006822  1
  Ni  Ni43  1  0.33202394  0.66535824  0.66751269  1
  Ni  Ni44  1  0.49873568  0.83232341  0.83270921  1
  Ni  Ni45  1  0.83343221  0.16675821  0.49947687  1
  Ni  Ni46  1  0.66775995  0.00098697  0.66730842  1
  Ni  Ni47  1  0.83441327  0.16777301  0.83273294  1
  Ni  Ni48  1  0.83328578  0.49975878  0.49991678  1
  Ni  Ni49  1  0.66660352  0.33317054  0.66661004  1
  Ni  Ni50  1  0.83328507  0.49978277  0.83341179  1
  Ni  Ni51  1  0.83484594  0.83320373  0.49992467  1
  Ni  Ni52  1  0.66758238  0.66556334  0.66770676  1
  Ni  Ni53  1  0.83424657  0.83216409  0.83206072  1
" 