1093,Ni8Cr92_10,-237.09557249518, 169.041443634485,Ni8Cr92,"# generated using pymatgen
 data_Cr2Ni25
_symmetry_space_group_name_H-M   'P 1'
_cell_length_a   7.46763993
_cell_length_b   7.46763993
_cell_length_c   10.56083767
_cell_angle_alpha   90.00000000
_cell_angle_beta   90.00000000
_cell_angle_gamma   90.00000000
_symmetry_Int_Tables_number   1
_chemical_formula_structural   Cr2Ni25
_chemical_formula_sum   'Cr4 Ni50'
_cell_volume   588.93193616
_cell_formula_units_Z   2
loop_
 _symmetry_equiv_pos_site_id
 _symmetry_equiv_pos_as_xyz
  1  'x, y, z'
loop_
 _atom_site_type_symbol
 _atom_site_label
 _atom_site_symmetry_multiplicity
 _atom_site_fract_x
 _atom_site_fract_y
 _atom_site_fract_z
 _atom_site_occupancy
  Ni  Ni0  1  -0.00003584  0.00018116  0.99974664  1
  Ni  Ni1  1  0.16721317  0.16664655  0.16684269  1
  Ni  Ni2  1  0.99980205  0.00034328  0.33355420  1
  Ni  Ni3  1  0.99979690  0.33310019  0.99957175  1
  Ni  Ni4  1  0.16587453  0.49908023  0.16584181  1
  Ni  Ni5  1  0.99963485  0.33293733  0.33372837  1
  Ni  Ni6  1  0.00012629  0.66660140  0.00014312  1
  Ni  Ni7  1  0.16586876  0.83415542  0.16583731  1
  Ni  Ni8  1  0.99829351  0.66660184  0.33332962  1
  Ni  Ni9  1  0.33252357  0.99899620  0.00091247  1
  Ni  Ni10  1  0.49975848  0.16662362  0.16684248  1
  Ni  Ni11  1  0.33252224  0.00083248  0.33256223  1
  Ni  Ni12  1  0.33268183  0.33428820  0.00074472  1
  Ni  Ni13  1  0.50075803  0.49877684  0.16584321  1
  Ni  Ni14  1  0.33268064  0.33247193  0.33272919  1
  Ni  Ni15  1  0.33354218  0.66660297  0.99955848  1
  Ni  Ni16  1  0.50078584  0.83448555  0.16583876  1
  Cr  Cr17  1  0.33328356  0.66683686  0.33329963  1
  Ni  Ni18  1  0.66740192  0.99932245  0.00056879  1
  Ni  Ni19  1  0.83291247  0.16662468  0.16661861  1
  Ni  Ni20  1  0.66756336  0.99948306  0.33273028  1
  Ni  Ni21  1  0.66740185  0.33412146  0.00092735  1
  Ni  Ni22  1  0.83324111  0.50010761  0.16684068  1
  Ni  Ni23  1  0.66756359  0.33395968  0.33237144  1
  Ni  Ni24  1  0.66621507  0.66643636  0.99974433  1
  Ni  Ni25  1  0.83321918  0.83314674  0.16684098  1
  Ni  Ni26  1  0.66802643  0.66643690  0.33372740  1
  Ni  Ni27  1  0.16536931  0.16682660  0.50017874  1
  Ni  Ni28  1  0.00012850  0.00019746  0.66658086  1
  Ni  Ni29  1  0.16519044  0.16682794  0.83286123  1
  Ni  Ni30  1  0.16571426  0.49907176  0.50099796  1
  Ni  Ni31  1  0.00165557  0.33292056  0.66658093  1
  Ni  Ni32  1  0.16651158  0.49986478  0.83303196  1
  Ni  Ni33  1  0.16571936  0.83398635  0.50077854  1
  Ni  Ni34  1  0.00028513  0.66676025  0.66640806  1
  Ni  Ni35  1  0.16651838  0.83318913  0.83325565  1
  Cr  Cr36  1  0.49895311  0.16581175  0.49897652  1
  Ni  Ni37  1  0.33154478  0.99801741  0.66640660  1
  Cr  Cr38  1  0.49911113  0.16579662  0.83408724  1
  Ni  Ni39  1  0.49995545  0.50141086  0.50017412  1
  Ni  Ni40  1  0.33005258  0.33510175  0.66640692  1
  Ni  Ni41  1  0.49915694  0.50220974  0.83386397  1
  Ni  Ni42  1  0.50095709  0.83263663  0.50117213  1
  Ni  Ni43  1  0.33355676  0.66676783  0.66676855  1
  Ni  Ni44  1  0.50016310  0.83184063  0.83286161  1
  Ni  Ni45  1  0.83554612  0.16582166  0.49939874  1
  Ni  Ni46  1  0.66821630  0.99667227  0.66658215  1
  Ni  Ni47  1  0.83555400  0.16581274  0.83387332  1
  Ni  Ni48  1  0.83420180  0.50106506  0.49901527  1
  Cr  Cr49  1  0.66849831  0.33473391  0.66682074  1
  Ni  Ni50  1  0.83420668  0.50089495  0.83403311  1
  Ni  Ni51  1  0.83320100  0.83298248  0.50000783  1
  Ni  Ni52  1  0.66603540  0.66827423  0.66640757  1
  Ni  Ni53  1  0.83319976  0.83316207  0.83303151  1
" 