3234,Ni8Cr92_4,-237.094148371335, 169.267767571777,Ni8Cr92,"# generated using pymatgen
 data_Cr2Ni25
_symmetry_space_group_name_H-M   'P 1'
_cell_length_a   7.46764621
_cell_length_b   7.46764621
_cell_length_c   10.56084655
_cell_angle_alpha   90.00000000
_cell_angle_beta   90.00000000
_cell_angle_gamma   90.00000000
_symmetry_Int_Tables_number   1
_chemical_formula_structural   Cr2Ni25
_chemical_formula_sum   'Cr4 Ni50'
_cell_volume   588.93342230
_cell_formula_units_Z   2
loop_
 _symmetry_equiv_pos_site_id
 _symmetry_equiv_pos_as_xyz
  1  'x, y, z'
loop_
 _atom_site_type_symbol
 _atom_site_label
 _atom_site_symmetry_multiplicity
 _atom_site_fract_x
 _atom_site_fract_y
 _atom_site_fract_z
 _atom_site_occupancy
  Ni  Ni0  1  0.99965489  0.99970360  0.99953216  1
  Ni  Ni1  1  0.16578503  0.16555519  0.16565936  1
  Ni  Ni2  1  0.99853593  0.99863665  0.33237229  1
  Ni  Ni3  1  0.00063790  0.33259956  0.00123570  1
  Ni  Ni4  1  0.16574522  0.50097578  0.16565026  1
  Ni  Ni5  1  0.99752386  0.33434289  0.33219219  1
  Ni  Ni6  1  0.00065832  0.66767577  0.00095628  1
  Ni  Ni7  1  0.16674513  0.83334684  0.16705956  1
  Ni  Ni8  1  0.99964397  0.66672108  0.33325827  1
  Ni  Ni9  1  0.33337795  0.99984922  0.00035916  1
  Ni  Ni10  1  0.50087941  0.16550937  0.16597000  1
  Ni  Ni11  1  0.33436148  0.99747942  0.33203143  1
  Ni  Ni12  1  0.33337652  0.33341324  0.99948374  1
  Ni  Ni13  1  0.50100969  0.50112230  0.16534918  1
  Cr  Cr14  1  0.33464833  0.33469110  0.33236874  1
  Ni  Ni15  1  0.33321245  0.66661003  0.99982383  1
  Ni  Ni16  1  0.50001966  0.83317125  0.16675640  1
  Ni  Ni17  1  0.33327127  0.66806533  0.33357099  1
  Ni  Ni18  1  0.66684391  0.99986458  0.99950047  1
  Ni  Ni19  1  0.83325627  0.16651881  0.16676223  1
  Ni  Ni20  1  0.66700820  0.99973227  0.33355265  1
  Ni  Ni21  1  0.66578246  0.33240456  0.00131229  1
  Ni  Ni22  1  0.83306767  0.50012932  0.16678697  1
  Ni  Ni23  1  0.66835863  0.33336712  0.33326767  1
  Ni  Ni24  1  0.66594402  0.66771360  0.00099792  1
  Ni  Ni25  1  0.83307576  0.83319300  0.16622791  1
  Ni  Ni26  1  0.66693467  0.66671748  0.33306206  1
  Cr  Cr27  1  0.16486574  0.16585612  0.49929512  1
  Ni  Ni28  1  0.99748309  0.99883794  0.66779312  1
  Ni  Ni29  1  0.16580684  0.16728897  0.83444425  1
  Ni  Ni30  1  0.16569611  0.50230919  0.50120732  1
  Ni  Ni31  1  0.99966285  0.33356136  0.66651309  1
  Ni  Ni32  1  0.16784695  0.50010721  0.83304137  1
  Ni  Ni33  1  0.16586526  0.83078571  0.49870328  1
  Ni  Ni34  1  0.00046249  0.66760180  0.66577837  1
  Ni  Ni35  1  0.16593802  0.83249141  0.83410795  1
  Ni  Ni36  1  0.50320158  0.16642000  0.49977847  1
  Cr  Cr37  1  0.33457700  0.99869826  0.66744515  1
  Ni  Ni38  1  0.50088812  0.16732638  0.83413848  1
  Ni  Ni39  1  0.50116347  0.50121962  0.50121252  1
  Ni  Ni40  1  0.33424843  0.33560440  0.66787294  1
  Ni  Ni41  1  0.49858634  0.50026072  0.83333044  1
  Ni  Ni42  1  0.50097465  0.83222767  0.49871652  1
  Ni  Ni43  1  0.33327737  0.66506992  0.66648740  1
  Ni  Ni44  1  0.50082026  0.83233507  0.83439545  1
  Ni  Ni45  1  0.83169800  0.16659014  0.50009407  1
  Ni  Ni46  1  0.66845663  0.99980549  0.66678127  1
  Ni  Ni47  1  0.83325693  0.16542344  0.83302393  1
  Ni  Ni48  1  0.83305027  0.50017707  0.49957864  1
  Ni  Ni49  1  0.66592476  0.33260797  0.66545857  1
  Cr  Cr50  1  0.83255483  0.50061938  0.83399431  1
  Ni  Ni51  1  0.83306088  0.83311490  0.50028436  1
  Ni  Ni52  1  0.66604266  0.66762225  0.66592424  1
  Ni  Ni53  1  0.83306753  0.83476394  0.83333535  1
" 