8803,Ni8Cr92_5,-237.130735180493, 170.174712464825,Ni8Cr92,"# generated using pymatgen
 data_Cr2Ni25
_symmetry_space_group_name_H-M   'P 1'
_cell_length_a   7.46704137
_cell_length_b   7.46704137
_cell_length_c   10.55999118
_cell_angle_alpha   90.00000000
_cell_angle_beta   90.00000000
_cell_angle_gamma   90.00000000
_symmetry_Int_Tables_number   1
_chemical_formula_structural   Cr2Ni25
_chemical_formula_sum   'Cr4 Ni50'
_cell_volume   588.79033303
_cell_formula_units_Z   2
loop_
 _symmetry_equiv_pos_site_id
 _symmetry_equiv_pos_as_xyz
  1  'x, y, z'
loop_
 _atom_site_type_symbol
 _atom_site_label
 _atom_site_symmetry_multiplicity
 _atom_site_fract_x
 _atom_site_fract_y
 _atom_site_fract_z
 _atom_site_occupancy
  Ni  Ni0  1  0.00085129  0.00104089  0.99891760  1
  Ni  Ni1  1  0.16685983  0.16663780  0.16689254  1
  Ni  Ni2  1  0.00000050  0.00189210  0.33359510  1
  Ni  Ni3  1  0.99985523  0.33333111  0.00033902  1
  Ni  Ni4  1  0.16681271  0.50002164  0.16688940  1
  Ni  Ni5  1  0.99999994  0.33332774  0.33321282  1
  Ni  Ni6  1  0.00102762  0.66562931  0.99872054  1
  Ni  Ni7  1  0.16828796  0.83333947  0.16650944  1
  Ni  Ni8  1  0.00016308  0.66477070  0.33377867  1
  Ni  Ni9  1  0.33333962  0.99965479  0.99995575  1
  Ni  Ni10  1  0.49981481  0.16685881  0.16670016  1
  Ni  Ni11  1  0.33420454  0.00051935  0.33254446  1
  Ni  Ni12  1  0.33312581  0.33350481  0.99953411  1
  Ni  Ni13  1  0.49986051  0.49980445  0.16670111  1
  Ni  Ni14  1  0.33297965  0.33349647  0.33401077  1
  Ni  Ni15  1  0.33333921  0.66684595  0.00033520  1
  Ni  Ni16  1  0.49816459  0.83334007  0.16689175  1
  Ni  Ni17  1  0.33420405  0.66598799  0.33216744  1
  Ni  Ni18  1  0.66580691  0.00082290  0.99910912  1
  Ni  Ni19  1  0.83332404  0.16833487  0.16669981  1
  Ni  Ni20  1  0.66580788  0.00067372  0.33443857  1
  Ni  Ni21  1  0.66701914  0.33333005  0.99995974  1
  Ni  Ni22  1  0.83332524  0.49837549  0.16670076  1
  Ni  Ni23  1  0.66701957  0.33333198  0.33336067  1
  Ni  Ni24  1  0.66562757  0.66584954  0.99891165  1
  Cr  Cr25  1  0.83350921  0.83329903  0.16687722  1
  Ni  Ni26  1  0.66563349  0.66599645  0.33462859  1
  Ni  Ni27  1  0.16771365  0.16750276  0.49935431  1
  Ni  Ni28  1  0.99899662  0.99935399  0.66749521  1
  Ni  Ni29  1  0.16771381  0.16564300  0.83375978  1
  Ni  Ni30  1  0.16666818  0.49831632  0.49829919  1
  Cr  Cr31  1  0.00017706  0.33337765  0.66646234  1
  Ni  Ni32  1  0.16666769  0.50015335  0.83481849  1
  Cr  Cr33  1  0.16544758  0.83422210  0.49913538  1
  Ni  Ni34  1  0.99745391  0.66748990  0.66749622  1
  Ni  Ni35  1  0.16545123  0.83420138  0.83433490  1
  Ni  Ni36  1  0.49996287  0.16700782  0.50038973  1
  Ni  Ni37  1  0.33434489  0.00233786  0.66749594  1
  Ni  Ni38  1  0.49981208  0.16685996  0.83290877  1
  Ni  Ni39  1  0.50101553  0.49880101  0.49935275  1
  Ni  Ni40  1  0.33483812  0.33162230  0.66645610  1
  Ni  Ni41  1  0.50085963  0.49895690  0.83394084  1
  Ni  Ni42  1  0.50270889  0.83419256  0.49893202  1
  Cr  Cr43  1  0.33420119  0.66576574  0.66752832  1
  Ni  Ni44  1  0.50086759  0.83419151  0.83418090  1
  Ni  Ni45  1  0.83233445  0.16578605  0.49893954  1
  Ni  Ni46  1  0.66666767  0.99982393  0.66645483  1
  Ni  Ni47  1  0.83247617  0.16564218  0.83436040  1
  Ni  Ni48  1  0.83231635  0.50106674  0.49916213  1
  Ni  Ni49  1  0.66519130  0.33319131  0.66668455  1
  Ni  Ni50  1  0.83246142  0.50121648  0.83413518  1
  Ni  Ni51  1  0.83182783  0.83314671  0.50058449  1
  Ni  Ni52  1  0.66819881  0.66698938  0.66645426  1
  Ni  Ni53  1  0.83368408  0.83314617  0.83252395  1
" 