5681,Ni8Cr92_3,-237.096213138805, 169.004949122193,Ni8Cr92,"# generated using pymatgen
 data_Cr2Ni25
_symmetry_space_group_name_H-M   'P 1'
_cell_length_a   7.46834946
_cell_length_b   7.46834946
_cell_length_c   10.56184110
_cell_angle_alpha   90.00000000
_cell_angle_beta   90.00000000
_cell_angle_gamma   90.00000000
_symmetry_Int_Tables_number   1
_chemical_formula_structural   Cr2Ni25
_chemical_formula_sum   'Cr4 Ni50'
_cell_volume   589.09982310
_cell_formula_units_Z   2
loop_
 _symmetry_equiv_pos_site_id
 _symmetry_equiv_pos_as_xyz
  1  'x, y, z'
loop_
 _atom_site_type_symbol
 _atom_site_label
 _atom_site_symmetry_multiplicity
 _atom_site_fract_x
 _atom_site_fract_y
 _atom_site_fract_z
 _atom_site_occupancy
  Ni  Ni0  1  -0.00002924  0.99962605  0.99962331  1
  Ni  Ni1  1  0.16635055  0.16635037  0.16704077  1
  Ni  Ni2  1  -0.00003245  0.99962903  0.33194968  1
  Ni  Ni3  1  -0.00002816  0.33353277  0.99962325  1
  Ni  Ni4  1  0.16652163  0.50008427  0.16686900  1
  Ni  Ni5  1  0.00099256  0.33432505  0.33297516  1
  Ni  Ni6  1  0.00014071  0.66657972  0.99981462  1
  Ni  Ni7  1  0.16652155  0.83330372  0.16650635  1
  Ni  Ni8  1  0.99911666  0.66578404  0.33278053  1
  Ni  Ni9  1  0.33318803  0.99962713  0.99962328  1
  Ni  Ni10  1  0.50008261  0.16652180  0.16686877  1
  Ni  Ni11  1  0.33398341  0.00065082  0.33297184  1
  Ni  Ni12  1  0.33318696  0.33353169  0.99962323  1
  Ni  Ni13  1  0.49991271  0.49991431  0.16669751  1
  Ni  Ni14  1  0.33295840  0.33330329  0.33399635  1
  Ni  Ni15  1  0.33301701  0.66657971  0.99981463  1
  Ni  Ni16  1  0.49974155  0.83330255  0.16686909  1
  Ni  Ni17  1  0.33381257  0.66578417  0.33255038  1
  Ni  Ni18  1  0.66657972  0.99979614  0.99979498  1
  Ni  Ni19  1  0.83330532  0.16652171  0.16650641  1
  Ni  Ni20  1  0.66578744  0.99877506  0.33280366  1
  Ni  Ni21  1  0.66657972  0.33336144  0.99979507  1
  Ni  Ni22  1  0.83330421  0.49974336  0.16686889  1
  Ni  Ni23  1  0.66578754  0.33415403  0.33257347  1
  Ni  Ni24  1  0.66658082  0.66658082  0.99945168  1
  Ni  Ni25  1  0.83347547  0.83347360  0.16704069  1
  Ni  Ni26  1  0.66680930  0.66680924  0.33416795  1
  Ni  Ni27  1  0.16827890  0.16828693  0.50037351  1
  Ni  Ni28  1  0.99977740  0.00175420  0.66816615  1
  Ni  Ni29  1  0.16635029  0.16635068  0.83232445  1
  Ni  Ni30  1  0.16671104  0.49674667  0.49832290  1
  Ni  Ni31  1  0.00080260  0.33220010  0.66714033  1
  Ni  Ni32  1  0.16652161  0.49849167  0.83454638  1
  Cr  Cr33  1  0.16655202  0.83487534  0.49831351  1
  Cr  Cr34  1  0.99763669  0.66577931  0.66716487  1
  Ni  Ni35  1  0.16652153  0.83489615  0.83490882  1
  Ni  Ni36  1  0.49811711  0.16671153  0.50014321  1
  Ni  Ni37  1  0.33417386  0.00277536  0.66714374  1
  Ni  Ni38  1  0.49985443  0.16652171  0.83272628  1
  Ni  Ni39  1  0.50070852  0.49934691  0.49934926  1
  Ni  Ni40  1  0.33314856  0.33117889  0.66611888  1
  Ni  Ni41  1  0.50070794  0.49934758  0.83369140  1
  Ni  Ni42  1  0.50228254  0.83368033  0.49934909  1
  Cr  Cr43  1  0.33530889  0.66577884  0.66738253  1
  Ni  Ni44  1  0.50053732  0.83386969  0.83352043  1
  Cr  Cr45  1  0.83348648  0.16655201  0.50012311  1
  Ni  Ni46  1  0.66578751  0.99915539  0.66714010  1
  Ni  Ni47  1  0.83353369  0.16652163  0.83308846  1
  Ni  Ni48  1  0.83231873  0.50091399  0.49934907  1
  Ni  Ni49  1  0.66578764  0.33377406  0.66737013  1
  Ni  Ni50  1  0.83250909  0.49917646  0.83351994  1
  Ni  Ni51  1  0.83074356  0.83211199  0.49934887  1
  Ni  Ni52  1  0.66680910  0.66680923  0.66611872  1
  Ni  Ni53  1  0.83267982  0.83404092  0.83334876  1
" 