3278,Ni8Cr92_18,-237.063729847139, 168.215442203453,Ni8Cr92,"# generated using pymatgen
 data_Cr2Ni25
_symmetry_space_group_name_H-M   'P 1'
_cell_length_a   7.46754561
_cell_length_b   7.46754561
_cell_length_c   10.56070428
_cell_angle_alpha   90.00000000
_cell_angle_beta   90.00000000
_cell_angle_gamma   90.00000000
_symmetry_Int_Tables_number   1
_chemical_formula_structural   Cr2Ni25
_chemical_formula_sum   'Cr4 Ni50'
_cell_volume   588.90962037
_cell_formula_units_Z   2
loop_
 _symmetry_equiv_pos_site_id
 _symmetry_equiv_pos_as_xyz
  1  'x, y, z'
loop_
 _atom_site_type_symbol
 _atom_site_label
 _atom_site_symmetry_multiplicity
 _atom_site_fract_x
 _atom_site_fract_y
 _atom_site_fract_z
 _atom_site_occupancy
  Ni  Ni0  1  0.00178974  0.99852140  0.99954078  1
  Ni  Ni1  1  0.16807537  0.16682046  0.16619337  1
  Ni  Ni2  1  0.00080225  0.99934705  0.33431288  1
  Ni  Ni3  1  0.00078386  0.33411719  0.00091154  1
  Ni  Ni4  1  0.16674865  0.50008198  0.16673166  1
  Ni  Ni5  1  0.00077161  0.33410494  0.33394475  1
  Ni  Ni6  1  0.99876209  0.66726189  0.00053570  1
  Ni  Ni7  1  0.16672342  0.83299568  0.16636789  1
  Ni  Ni8  1  0.99974229  0.66644497  0.33330737  1
  Ni  Ni9  1  0.33307705  0.00038847  0.99970470  1
  Ni  Ni10  1  0.49848301  0.16667923  0.16636907  1
  Ni  Ni11  1  0.33325556  0.00021165  0.33312813  1
  Ni  Ni12  1  0.33392856  0.33209543  0.00053570  1
  Ni  Ni13  1  0.49966235  0.50005675  0.16636789  1
  Ni  Ni14  1  0.33311164  0.33307563  0.33330737  1
  Ni  Ni15  1  0.33407946  0.66741280  0.00070486  1
  Ni  Ni16  1  0.49983112  0.83316446  0.16654661  1
  Ni  Ni17  1  0.33327985  0.66661318  0.33335221  1
  Ni  Ni18  1  0.66503628  0.99836962  0.99992554  1
  Cr  Cr19  1  0.83307565  0.16640898  0.16681102  1
  Ni  Ni20  1  0.66583847  0.99917180  0.33413796  1
  Ni  Ni21  1  0.66518807  0.33512308  0.99954078  1
  Ni  Ni22  1  0.83348713  0.50140870  0.16619337  1
  Ni  Ni23  1  0.66601372  0.33413558  0.33431288  1
  Ni  Ni24  1  0.66705514  0.66641039  0.99970470  1
  Ni  Ni25  1  0.83334590  0.83181634  0.16636907  1
  Ni  Ni26  1  0.66687831  0.66658889  0.33312813  1
  Ni  Ni27  1  0.16707038  0.16600709  0.49938868  1
  Ni  Ni28  1  0.00097670  0.99749651  0.66606085  1
  Ni  Ni29  1  0.16891086  0.16417886  0.83431276  1
  Ni  Ni30  1  0.16739312  0.50072645  0.49903519  1
  Cr  Cr31  1  0.99996382  0.33329715  0.66500637  1
  Cr  Cr32  1  0.16766694  0.50100028  0.83391257  1
  Ni  Ni33  1  0.16638363  0.83315895  0.50040281  1
  Ni  Ni34  1  0.99892837  0.66910746  0.66605230  1
  Ni  Ni35  1  0.16654571  0.83484470  0.83312985  1
  Ni  Ni36  1  0.50032155  0.16685796  0.50022627  1
  Ni  Ni37  1  0.33323915  0.00004814  0.66706276  1
  Ni  Ni38  1  0.49864579  0.16669632  0.83330365  1
  Ni  Ni39  1  0.49982561  0.49971697  0.50040281  1
  Ni  Ni40  1  0.33577413  0.33226171  0.66605230  1
  Ni  Ni41  1  0.50151137  0.49987904  0.83312985  1
  Ni  Ni42  1  0.49999139  0.83332472  0.50000243  1
  Ni  Ni43  1  0.33425430  0.66758764  0.66582718  1
  Ni  Ni44  1  0.49999046  0.83332379  0.83335371  1
  Ni  Ni45  1  0.83251556  0.16584889  0.49922013  1
  Ni  Ni46  1  0.66568964  0.99902297  0.66584050  1
  Cr  Cr47  1  0.83248951  0.16582285  0.83413555  1
  Ni  Ni48  1  0.83267375  0.50040371  0.49938868  1
  Ni  Ni49  1  0.66416318  0.33431003  0.66606085  1
  Ni  Ni50  1  0.83084553  0.50224420  0.83431276  1
  Ni  Ni51  1  0.83352463  0.83365488  0.50022627  1
  Ni  Ni52  1  0.66671480  0.66657249  0.66706276  1
  Ni  Ni53  1  0.83336298  0.83197913  0.83330365  1
" 