8713,Ni8Cr92_17,-237.026112981793, 168.84053473478,Ni8Cr92,"# generated using pymatgen
 data_Cr2Ni25
_symmetry_space_group_name_H-M   'P 1'
_cell_length_a   7.46788433
_cell_length_b   7.46788433
_cell_length_c   10.56118331
_cell_angle_alpha   90.00000000
_cell_angle_beta   90.00000000
_cell_angle_gamma   90.00000000
_symmetry_Int_Tables_number   1
_chemical_formula_structural   Cr2Ni25
_chemical_formula_sum   'Cr4 Ni50'
_cell_volume   588.98976258
_cell_formula_units_Z   2
loop_
 _symmetry_equiv_pos_site_id
 _symmetry_equiv_pos_as_xyz
  1  'x, y, z'
loop_
 _atom_site_type_symbol
 _atom_site_label
 _atom_site_symmetry_multiplicity
 _atom_site_fract_x
 _atom_site_fract_y
 _atom_site_fract_z
 _atom_site_occupancy
  Ni  Ni0  1  0.99992541  0.99827063  0.99974941  1
  Ni  Ni1  1  0.16644010  0.16463213  0.16844198  1
  Ni  Ni2  1  -0.00004733  0.99979076  0.33312495  1
  Cr  Cr3  1  0.99913197  0.33271390  0.99957546  1
  Ni  Ni4  1  0.16644126  0.50191227  0.16860268  1
  Ni  Ni5  1  0.00010681  0.33308792  0.33333050  1
  Ni  Ni6  1  0.99976832  0.66830761  -0.00003350  1
  Ni  Ni7  1  0.16660309  0.83324481  0.16626794  1
  Ni  Ni8  1  0.00129606  0.66695012  0.33312937  1
  Ni  Ni9  1  0.33226718  0.99932761  0.00078865  1
  Ni  Ni10  1  0.50096541  0.16567345  0.16725319  1
  Ni  Ni11  1  0.33324927  -0.00004251  0.33312916  1
  Cr  Cr12  1  0.33413723  0.33272117  0.99936391  1
  Ni  Ni13  1  0.49994526  0.49989457  0.16627635  1
  Ni  Ni14  1  0.33325971  0.33308794  0.33332926  1
  Ni  Ni15  1  0.33242829  0.66725507  0.00101185  1
  Ni  Ni16  1  0.49892460  0.83429132  0.16587892  1
  Ni  Ni17  1  0.33190697  0.66678584  0.33313429  1
  Ni  Ni18  1  0.66763555  0.00060958  0.00101026  1
  Ni  Ni19  1  0.83241037  0.16582570  0.16747234  1
  Ni  Ni20  1  0.66663002  0.00129506  0.33335831  1
  Ni  Ni21  1  0.66656990  0.33325266  -0.00003220  1
  Ni  Ni22  1  0.83343649  0.49973922  0.16650103  1
  Ni  Ni23  1  0.66646325  0.33190248  0.33290280  1
  Ni  Ni24  1  0.66763412  0.66596835  0.00059532  1
  Ni  Ni25  1  0.83431442  0.83429267  0.16547356  1
  Cr  Cr26  1  0.66660908  0.66772773  0.33410130  1
  Ni  Ni27  1  0.16644410  0.16673228  0.49997567  1
  Ni  Ni28  1  0.99994345  0.99988542  0.66695438  1
  Ni  Ni29  1  0.16643735  0.16453030  0.83129498  1
  Ni  Ni30  1  0.16644571  0.49987330  0.49975788  1
  Ni  Ni31  1  0.00009860  0.33310826  0.66654924  1
  Ni  Ni32  1  0.16643719  0.50210889  0.83135943  1
  Ni  Ni33  1  0.16659618  0.83322547  0.49996903  1
  Ni  Ni34  1  0.99978621  0.66684135  0.66672469  1
  Ni  Ni35  1  0.16508249  0.83314806  0.83358625  1
  Ni  Ni36  1  0.50001498  0.16673397  0.49997102  1
  Ni  Ni37  1  0.33226858  0.00095124  0.66591472  1
  Ni  Ni38  1  0.50113771  0.16718184  0.83254077  1
  Ni  Ni39  1  0.49891690  0.49875475  0.50105054  1
  Ni  Ni40  1  0.33316707  0.33310991  0.66677015  1
  Ni  Ni41  1  0.50093355  0.49931942  0.83257421  1
  Ni  Ni42  1  0.49868186  0.83438896  0.50070930  1
  Ni  Ni43  1  0.33243026  0.66577919  0.66567744  1
  Cr  Cr44  1  0.49987800  0.83327718  0.83339062  1
  Ni  Ni45  1  0.83336877  0.16688217  0.49975641  1
  Ni  Ni46  1  0.66762783  0.00062953  0.66544757  1
  Ni  Ni47  1  0.83226261  0.16581107  0.83254660  1
  Ni  Ni48  1  0.83447037  0.49860195  0.50082786  1
  Ni  Ni49  1  0.66656021  0.33326169  0.66696960  1
  Ni  Ni50  1  0.83246777  0.50069057  0.83257933  1
  Ni  Ni51  1  0.83455559  0.83439062  0.50111624  1
  Ni  Ni52  1  0.66762683  0.66593157  0.66585578  1
  Ni  Ni53  1  0.83488187  0.83330782  0.83336799  1
" 