481,Ni8Cr92_12,-237.064186083151, 169.016327161179,Ni8Cr92,"# generated using pymatgen
 data_Cr2Ni25
_symmetry_space_group_name_H-M   'P 1'
_cell_length_a   7.46707297
_cell_length_b   7.46707297
_cell_length_c   10.56003587
_cell_angle_alpha   90.00000000
_cell_angle_beta   90.00000000
_cell_angle_gamma   90.00000000
_symmetry_Int_Tables_number   1
_chemical_formula_structural   Cr2Ni25
_chemical_formula_sum   'Cr4 Ni50'
_cell_volume   588.79780750
_cell_formula_units_Z   2
loop_
 _symmetry_equiv_pos_site_id
 _symmetry_equiv_pos_as_xyz
  1  'x, y, z'
loop_
 _atom_site_type_symbol
 _atom_site_label
 _atom_site_symmetry_multiplicity
 _atom_site_fract_x
 _atom_site_fract_y
 _atom_site_fract_z
 _atom_site_occupancy
  Ni  Ni0  1  0.00076978  0.00073752  0.00111536  1
  Ni  Ni1  1  0.16570170  0.16574048  0.16799202  1
  Ni  Ni2  1  0.00153647  0.99989061  0.33350727  1
  Ni  Ni3  1  0.99840563  0.33353984  0.99955937  1
  Ni  Ni4  1  0.16578043  0.50082604  0.16762612  1
  Ni  Ni5  1  0.00012699  0.33364338  0.33316666  1
  Ni  Ni6  1  0.00095632  0.66569349  0.00066406  1
  Ni  Ni7  1  0.16651776  0.83356902  0.16666562  1
  Ni  Ni8  1  0.00009626  0.66647077  0.33351018  1
  Ni  Ni9  1  0.33329947  0.99854543  0.99986874  1
  Ni  Ni10  1  0.49984091  0.16678181  0.16670208  1
  Ni  Ni11  1  0.33212352  0.99988607  0.33317414  1
  Cr  Cr12  1  0.33139863  0.33291324  0.00044081  1
  Ni  Ni13  1  0.50072457  0.50076860  0.16807332  1
  Ni  Ni14  1  0.33300411  0.33347622  0.33351839  1
  Ni  Ni15  1  0.33211602  0.66902767  0.00063758  1
  Ni  Ni16  1  0.49904204  0.83240202  0.16530313  1
  Ni  Ni17  1  0.33301691  0.66666053  0.33318193  1
  Ni  Ni18  1  0.66591280  0.00074385  0.00064236  1
  Ni  Ni19  1  0.83455659  0.16742336  0.16563621  1
  Cr  Cr20  1  0.66724291  0.99933288  0.33398283  1
  Ni  Ni21  1  0.66892145  0.33235809  0.00098342  1
  Ni  Ni22  1  0.83339270  0.49996241  0.16636937  1
  Ni  Ni23  1  0.66689555  0.33455184  0.33319076  1
  Ni  Ni24  1  0.66690217  0.66688281  0.00216861  1
  Ni  Ni25  1  0.83455017  0.83255995  0.16611133  1
  Ni  Ni26  1  0.66686153  0.66523442  0.33350811  1
  Ni  Ni27  1  0.16657736  0.16656216  0.49955948  1
  Ni  Ni28  1  0.00075707  0.00072821  0.66536576  1
  Ni  Ni29  1  0.16557566  0.16552087  0.83231003  1
  Ni  Ni30  1  0.16673145  0.49989972  0.50004234  1
  Ni  Ni31  1  0.00013039  0.33353727  0.66724868  1
  Ni  Ni32  1  0.16445129  0.50088619  0.83227324  1
  Ni  Ni33  1  0.16659279  0.83355174  0.49983816  1
  Ni  Ni34  1  0.00094587  0.66566992  0.66585030  1
  Ni  Ni35  1  0.16781325  0.83366375  0.83346409  1
  Ni  Ni36  1  0.49892150  0.16772300  0.50097248  1
  Ni  Ni37  1  0.33329116  0.99992781  0.66692704  1
  Ni  Ni38  1  0.50068755  0.16466713  0.83236563  1
  Ni  Ni39  1  0.49989563  0.49988685  0.49951480  1
  Ni  Ni40  1  0.33217238  0.33257919  0.66568437  1
  Cr  Cr41  1  0.50144228  0.50137665  0.83215683  1
  Ni  Ni42  1  0.49886542  0.83228813  0.50136002  1
  Ni  Ni43  1  0.33207250  0.66754011  0.66613651  1
  Ni  Ni44  1  0.49831124  0.83493500  0.83347014  1
  Ni  Ni45  1  0.83460449  0.16759207  0.50098516  1
  Ni  Ni46  1  0.66586061  0.00076210  0.66585789  1
  Ni  Ni47  1  0.83366404  0.16791539  0.83345860  1
  Ni  Ni48  1  0.83333605  0.49987734  0.50018152  1
  Ni  Ni49  1  0.66775603  0.33231856  0.66577863  1
  Ni  Ni50  1  0.83492388  0.49840935  0.83347322  1
  Ni  Ni51  1  0.83464727  0.83246376  0.50070603  1
  Ni  Ni52  1  0.66687166  0.66685670  0.66432934  1
  Cr  Cr53  1  0.83331612  0.83314698  0.83329822  1
" 