8884,Ni8Cr92_9,-237.159307148659, 170.858260482222,Ni8Cr92,"# generated using pymatgen
 data_Cr2Ni25
_symmetry_space_group_name_H-M   'P 1'
_cell_length_a   7.46708990
_cell_length_b   7.46708990
_cell_length_c   10.56005981
_cell_angle_alpha   90.00000000
_cell_angle_beta   90.00000000
_cell_angle_gamma   90.00000000
_symmetry_Int_Tables_number   1
_chemical_formula_structural   Cr2Ni25
_chemical_formula_sum   'Cr4 Ni50'
_cell_volume   588.80181247
_cell_formula_units_Z   2
loop_
 _symmetry_equiv_pos_site_id
 _symmetry_equiv_pos_as_xyz
  1  'x, y, z'
loop_
 _atom_site_type_symbol
 _atom_site_label
 _atom_site_symmetry_multiplicity
 _atom_site_fract_x
 _atom_site_fract_y
 _atom_site_fract_z
 _atom_site_occupancy
  Ni  Ni0  1  0.00081666  0.00080451  0.99908101  1
  Ni  Ni1  1  0.16895501  0.16749707  0.16563609  1
  Cr  Cr2  1  0.00082602  0.99894004  0.33395095  1
  Ni  Ni3  1  0.00081735  0.33234299  0.99945075  1
  Ni  Ni4  1  0.16744415  0.49950498  0.16789486  1
  Ni  Ni5  1  0.00096888  0.33585488  0.33391385  1
  Cr  Cr6  1  0.99965899  0.66682936  0.00061900  1
  Ni  Ni7  1  0.16847665  0.83299167  0.16687531  1
  Ni  Ni8  1  0.00146942  0.66498099  0.33326586  1
  Ni  Ni9  1  0.33330885  0.00031824  0.00047156  1
  Ni  Ni10  1  0.49851956  0.16646830  0.16710375  1
  Ni  Ni11  1  0.33483793  0.00031569  0.33307600  1
  Ni  Ni12  1  0.33347671  0.33299439  0.00029320  1
  Ni  Ni13  1  0.49902739  0.49950562  0.16563893  1
  Ni  Ni14  1  0.33332001  0.33315165  0.33307711  1
  Ni  Ni15  1  0.33515597  0.66667723  0.00024832  1
  Ni  Ni16  1  0.49901423  0.83401695  0.16586012  1
  Ni  Ni17  1  0.33163766  0.66652710  0.33311963  1
  Ni  Ni18  1  0.66586828  0.99912259  0.99963071  1
  Cr  Cr19  1  0.83246509  0.16751168  0.16583422  1
  Ni  Ni20  1  0.66417742  0.00081692  0.33409591  1
  Ni  Ni21  1  0.66570928  0.33418437  0.99945736  1
  Ni  Ni22  1  0.83352455  0.50000810  0.16687809  1
  Ni  Ni23  1  0.66570386  0.33267209  0.33409611  1
  Ni  Ni24  1  0.66521977  0.66667414  0.00010425  1
  Ni  Ni25  1  0.83249645  0.83249812  0.16584672  1
  Cr  Cr26  1  0.66703744  0.66670388  0.33291878  1
  Ni  Ni27  1  0.16728640  0.16749385  0.50059470  1
  Ni  Ni28  1  0.99998734  0.99980048  0.66699214  1
  Ni  Ni29  1  0.16629413  0.16666719  0.83376601  1
  Ni  Ni30  1  0.16645613  0.50017879  0.49952782  1
  Ni  Ni31  1  0.99998767  0.33334628  0.66662196  1
  Ni  Ni32  1  0.16745356  0.49918081  0.83256386  1
  Ni  Ni33  1  0.16748352  0.83232830  0.50054405  1
  Ni  Ni34  1  0.99978665  0.66684713  0.66606637  1
  Ni  Ni35  1  0.16748662  0.83414273  0.83256505  1
  Ni  Ni36  1  0.50036914  0.16646851  0.49934861  1
  Ni  Ni37  1  0.33314802  -0.00000110  0.66644135  1
  Ni  Ni38  1  0.50021055  0.16663351  0.83354161  1
  Ni  Ni39  1  0.49918257  0.49918576  0.50076928  1
  Ni  Ni40  1  0.33331745  0.33331592  0.66662409  1
  Ni  Ni41  1  0.50000668  0.50017369  0.83358225  1
  Ni  Ni42  1  0.49917185  0.83434060  0.50054624  1
  Ni  Ni43  1  0.33331940  0.66667549  0.66662484  1
  Ni  Ni44  1  0.50000758  0.83318529  0.83358327  1
  Ni  Ni45  1  0.83233573  0.16750109  0.50074057  1
  Ni  Ni46  1  0.66685493  0.99979919  0.66626266  1
  Ni  Ni47  1  0.83348766  0.16666676  0.83339643  1
  Ni  Ni48  1  0.83434941  0.49898403  0.50036779  1
  Ni  Ni49  1  0.66668774  0.33351399  0.66644509  1
  Ni  Ni50  1  0.83253397  0.49897903  0.83274778  1
  Ni  Ni51  1  0.83332294  0.83350812  0.50140383  1
  Ni  Ni52  1  0.66688602  0.66667631  0.66699501  1
  Ni  Ni53  1  0.83249985  0.83434176  0.83274596  1
" 