952,Ni8Cr92_19,-237.060297824982, 168.841993693079,Ni8Cr92,"# generated using pymatgen
 data_Cr2Ni25
_symmetry_space_group_name_H-M   'P 1'
_cell_length_a   7.46905448
_cell_length_b   7.46905448
_cell_length_c   10.56283814
_cell_angle_alpha   90.00000000
_cell_angle_beta   90.00000000
_cell_angle_gamma   90.00000000
_symmetry_Int_Tables_number   1
_chemical_formula_structural   Cr2Ni25
_chemical_formula_sum   'Cr4 Ni50'
_cell_volume   589.26667290
_cell_formula_units_Z   2
loop_
 _symmetry_equiv_pos_site_id
 _symmetry_equiv_pos_as_xyz
  1  'x, y, z'
loop_
 _atom_site_type_symbol
 _atom_site_label
 _atom_site_symmetry_multiplicity
 _atom_site_fract_x
 _atom_site_fract_y
 _atom_site_fract_z
 _atom_site_occupancy
  Ni  Ni0  1  0.99885944  0.99919563  0.99885870  1
  Cr  Cr1  1  0.16574413  0.16574400  0.16574609  1
  Ni  Ni2  1  0.99867269  0.99900874  0.33426413  1
  Ni  Ni3  1  0.99902680  0.33392555  0.99902682  1
  Ni  Ni4  1  0.16574845  0.50232229  0.16575031  1
  Ni  Ni5  1  0.99712651  0.33392592  0.33426463  1
  Ni  Ni6  1  0.00003447  0.66647641  0.00003396  1
  Ni  Ni7  1  0.16675704  0.83152539  0.16675839  1
  Ni  Ni8  1  0.99984796  0.66666272  0.33308861  1
  Ni  Ni9  1  0.33426159  0.99936273  0.99902669  1
  Ni  Ni10  1  0.50232359  0.16574940  0.16575134  1
  Ni  Ni11  1  0.33426207  0.99746505  0.33426459  1
  Ni  Ni12  1  0.33426152  0.33392553  0.99866974  1
  Ni  Ni13  1  0.50078122  0.50077889  0.16575116  1
  Cr  Cr14  1  0.33402512  0.33415644  0.33402825  1
  Ni  Ni15  1  0.33308626  0.66630860  0.00020243  1
  Ni  Ni16  1  0.49977359  0.83306851  0.16675832  1
  Ni  Ni17  1  0.33308636  0.66820877  0.33308869  1
  Ni  Ni18  1  0.66647648  0.00037024  0.00005393  1
  Ni  Ni19  1  0.83152335  0.16675702  0.16675837  1
  Ni  Ni20  1  0.66666262  0.00018391  0.33306877  1
  Ni  Ni21  1  0.66630868  0.33275044  0.00022246  1
  Ni  Ni22  1  0.83306644  0.49977127  0.16675836  1
  Ni  Ni23  1  0.66820658  0.33275043  0.33306877  1
  Ni  Ni24  1  0.66647633  0.66647644  0.99947026  1
  Ni  Ni25  1  0.83306649  0.83306880  0.16653204  1
  Ni  Ni26  1  0.66666250  0.66666248  0.33365228  1
  Ni  Ni27  1  0.16574984  0.16575028  0.50122864  1
  Ni  Ni28  1  0.00172761  0.99979128  0.66647455  1
  Ni  Ni29  1  0.16653236  0.16653239  0.83261634  1
  Ni  Ni30  1  0.16574969  0.50019991  0.50064580  1
  Ni  Ni31  1  0.00189485  0.33332931  0.66630572  1
  Ni  Ni32  1  0.16653248  0.49941716  0.83319975  1
  Ni  Ni33  1  0.16675700  0.83364712  0.49963892  1
  Ni  Ni34  1  0.00018426  0.66647650  0.66647459  1
  Ni  Ni35  1  0.16653426  0.83364754  0.83319985  1
  Ni  Ni36  1  0.49885782  0.16574938  0.49885692  1
  Ni  Ni37  1  0.33139526  -0.00004063  0.66630578  1
  Ni  Ni38  1  0.49807460  0.16653237  0.83498880  1
  Ni  Ni39  1  0.50003399  0.50137421  0.50003349  1
  Ni  Ni40  1  0.33139422  0.33332926  0.66666289  1
  Ni  Ni41  1  0.49925223  0.50059207  0.83381095  1
  Ni  Ni42  1  0.49902799  0.83247269  0.49902799  1
  Ni  Ni43  1  0.33293640  0.66630820  0.66630567  1
  Ni  Ni44  1  0.49924982  0.83247212  0.83381135  1
  Ni  Ni45  1  0.83498960  0.16675673  0.49785021  1
  Cr  Cr46  1  0.66670173  0.99846053  0.66669981  1
  Ni  Ni47  1  0.83499053  0.16653475  0.83498948  1
  Ni  Ni48  1  0.83381233  0.50036721  0.49902753  1
  Cr  Cr49  1  0.66632424  0.33443348  0.66632103  1
  Ni  Ni50  1  0.83381227  0.50059019  0.83381094  1
  Ni  Ni51  1  0.83381222  0.83247266  0.49925395  1
  Ni  Ni52  1  0.66647638  0.66647542  0.66647453  1
  Ni  Ni53  1  0.83381311  0.83247157  0.83381178  1
" 