7692,Ni8Cr92_14,-237.117411287333, 169.714574427194,Ni8Cr92,"# generated using pymatgen
 data_Cr2Ni25
_symmetry_space_group_name_H-M   'P 1'
_cell_length_a   7.46973894
_cell_length_b   7.46973894
_cell_length_c   10.56380611
_cell_angle_alpha   90.00000000
_cell_angle_beta   90.00000000
_cell_angle_gamma   90.00000000
_symmetry_Int_Tables_number   1
_chemical_formula_structural   Cr2Ni25
_chemical_formula_sum   'Cr4 Ni50'
_cell_volume   589.42868741
_cell_formula_units_Z   2
loop_
 _symmetry_equiv_pos_site_id
 _symmetry_equiv_pos_as_xyz
  1  'x, y, z'
loop_
 _atom_site_type_symbol
 _atom_site_label
 _atom_site_symmetry_multiplicity
 _atom_site_fract_x
 _atom_site_fract_y
 _atom_site_fract_z
 _atom_site_occupancy
  Ni  Ni0  1  0.99905809  0.99905297  0.99894619  1
  Cr  Cr1  1  0.16648516  0.16648473  0.16692606  1
  Ni  Ni2  1  0.99846355  -0.00012586  0.33344570  1
  Ni  Ni3  1  0.99923361  0.33397319  0.99876859  1
  Ni  Ni4  1  0.16648637  0.50178933  0.16658420  1
  Ni  Ni5  1  0.99863636  0.33315001  0.33362067  1
  Ni  Ni6  1  0.00010335  0.66643302  -0.00000419  1
  Ni  Ni7  1  0.16649202  0.83118336  0.16658457  1
  Ni  Ni8  1  0.99845665  0.66643307  0.33133937  1
  Ni  Ni9  1  0.33396815  0.99922873  0.99876820  1
  Ni  Ni10  1  0.50145372  0.16648628  0.16660334  1
  Ni  Ni11  1  0.33456284  0.00004915  0.33362273  1
  Ni  Ni12  1  0.33396805  0.33397319  0.99914248  1
  Ni  Ni13  1  0.49967465  0.50001019  0.16678077  1
  Ni  Ni14  1  0.33456479  0.33315029  0.33324722  1
  Ni  Ni15  1  0.33292320  0.66625787  0.99981861  1
  Ni  Ni16  1  0.49966928  0.83296337  0.16678046  1
  Ni  Ni17  1  0.33457079  0.66626009  0.33151480  1
  Ni  Ni18  1  0.66643335  0.00009796  -0.00000400  1
  Ni  Ni19  1  0.83151937  0.16649182  0.16660328  1
  Ni  Ni20  1  0.66643292  -0.00012663  0.33320981  1
  Ni  Ni21  1  0.66625765  0.33292823  0.99981822  1
  Ni  Ni22  1  0.83329891  0.50000441  0.16678121  1
  Ni  Ni23  1  0.66625834  0.33315319  0.33338711  1
  Ni  Ni24  1  0.66643326  0.66643324  0.99975985  1
  Ni  Ni25  1  0.83329793  0.83296354  0.16678019  1
  Ni  Ni26  1  0.66643340  0.66643282  0.33368210  1
  Ni  Ni27  1  0.16566425  0.16566305  0.49914045  1
  Ni  Ni28  1  0.99909270  0.00050381  0.66706767  1
  Ni  Ni29  1  0.16566493  0.16566415  0.83336068  1
  Cr  Cr30  1  0.16565470  0.49914491  0.49877350  1
  Ni  Ni31  1  0.99748343  0.33232918  0.66706994  1
  Ni  Ni32  1  0.16566495  0.50064151  0.83410939  1
  Cr  Cr33  1  0.16670307  0.83465780  0.49981955  1
  Ni  Ni34  1  0.99803886  0.66662560  0.66812593  1
  Ni  Ni35  1  0.16671728  0.83315382  0.83305714  1
  Ni  Ni36  1  0.50068668  0.16566445  0.49876712  1
  Ni  Ni37  1  0.33374338  0.99889400  0.66706785  1
  Ni  Ni38  1  0.50030547  0.16566538  0.83408800  1
  Ni  Ni39  1  0.50247365  0.50045123  0.49894388  1
  Cr  Cr40  1  0.33377023  0.33232739  0.66709355  1
  Ni  Ni41  1  0.50030690  0.50064204  0.83373508  1
  Ni  Ni42  1  0.50141682  0.83334486  0.49999568  1
  Ni  Ni43  1  0.33479774  0.66823455  0.66812684  1
  Ni  Ni44  1  0.49925300  0.83315381  0.83268259  1
  Ni  Ni45  1  0.83310775  0.16671698  0.49981847  1
  Ni  Ni46  1  0.66662326  0.99945804  0.66625387  1
  Ni  Ni47  1  0.83348788  0.16671750  0.83303742  1
  Ni  Ni48  1  0.83131979  0.49939805  0.49999579  1
  Ni  Ni49  1  0.66823332  0.33337824  0.66625380  1
  Ni  Ni50  1  0.83348842  0.49958891  0.83268334  1
  Ni  Ni51  1  0.83132518  0.83334412  0.49975955  1
  Ni  Ni52  1  0.66662396  0.66662369  0.66601804  1
  Ni  Ni53  1  0.83348862  0.83315333  0.83291931  1
" 