1091,Ni8Cr92_16,-237.084052263816, 169.597508133916,Ni8Cr92,"# generated using pymatgen
 data_Cr2Ni25
_symmetry_space_group_name_H-M   'P 1'
_cell_length_a   7.46847127
_cell_length_b   7.46847127
_cell_length_c   10.56201336
_cell_angle_alpha   90.00000000
_cell_angle_beta   90.00000000
_cell_angle_gamma   90.00000000
_symmetry_Int_Tables_number   1
_chemical_formula_structural   Cr2Ni25
_chemical_formula_sum   'Cr4 Ni50'
_cell_volume   589.12864843
_cell_formula_units_Z   2
loop_
 _symmetry_equiv_pos_site_id
 _symmetry_equiv_pos_as_xyz
  1  'x, y, z'
loop_
 _atom_site_type_symbol
 _atom_site_label
 _atom_site_symmetry_multiplicity
 _atom_site_fract_x
 _atom_site_fract_y
 _atom_site_fract_z
 _atom_site_occupancy
  Ni  Ni0  1  0.99852941  0.99988451  0.00042880  1
  Ni  Ni1  1  0.16561495  0.16767727  0.16559988  1
  Ni  Ni2  1  0.99833077  0.99847973  0.33288451  1
  Ni  Ni3  1  0.99950757  0.33364898  0.99942556  1
  Ni  Ni4  1  0.16746472  0.50089732  0.16569995  1
  Cr  Cr5  1  0.99927561  0.33393923  0.33399473  1
  Ni  Ni6  1  0.99951606  0.66618468  0.99978973  1
  Ni  Ni7  1  0.16465361  0.83115074  0.16667161  1
  Ni  Ni8  1  0.99953414  0.66774208  0.33353303  1
  Cr  Cr9  1  0.33396596  0.99924255  0.99917969  1
  Ni  Ni10  1  0.50193655  0.16846578  0.16667071  1
  Cr  Cr11  1  0.33328543  -0.00007257  0.33340286  1
  Ni  Ni12  1  0.33342584  0.33479034  0.00032572  1
  Ni  Ni13  1  0.49983761  0.49987599  0.16671385  1
  Ni  Ni14  1  0.33483177  0.33498602  0.33298878  1
  Ni  Ni15  1  0.33357845  0.66495390  0.00004956  1
  Ni  Ni16  1  0.50190937  0.83134901  0.16655297  1
  Ni  Ni17  1  0.33360550  0.66516839  0.33297462  1
  Ni  Ni18  1  0.66803199  0.99973221  0.99977670  1
  Ni  Ni19  1  0.83218599  0.16565370  0.16570120  1
  Ni  Ni20  1  0.66782172  0.99970634  0.33325623  1
  Ni  Ni21  1  0.66677487  0.33379983  0.00005990  1
  Ni  Ni22  1  0.83239137  0.50085905  0.16569023  1
  Ni  Ni23  1  0.66524833  0.33378245  0.33325196  1
  Ni  Ni24  1  0.66660648  0.66619331  0.99980044  1
  Ni  Ni25  1  0.83319919  0.83323473  0.16671551  1
  Ni  Ni26  1  0.66658501  0.66621218  0.33324145  1
  Ni  Ni27  1  0.16750376  0.16759359  0.50085732  1
  Cr  Cr28  1  0.99976167  0.99982388  0.66638071  1
  Ni  Ni29  1  0.16658998  0.16849019  0.83326050  1
  Ni  Ni30  1  0.16767903  0.50097512  0.50087266  1
  Ni  Ni31  1  0.99957406  0.33503144  0.66675579  1
  Ni  Ni32  1  0.16674011  0.49997674  0.83323466  1
  Ni  Ni33  1  0.16648679  0.83120679  0.49973057  1
  Ni  Ni34  1  0.99957018  0.66474655  0.66638713  1
  Ni  Ni35  1  0.16638161  0.83118740  0.83321711  1
  Ni  Ni36  1  0.50096870  0.16759013  0.50079328  1
  Ni  Ni37  1  0.33486415  0.99973070  0.66668838  1
  Ni  Ni38  1  0.50099203  0.16769180  0.83215509  1
  Ni  Ni39  1  0.49977433  0.49986422  0.49956967  1
  Ni  Ni40  1  0.33346090  0.33346877  0.66639897  1
  Ni  Ni41  1  0.49976721  0.49980684  0.83342828  1
  Ni  Ni42  1  0.50091666  0.83228150  0.50095535  1
  Ni  Ni43  1  0.33362948  0.66652627  0.66669395  1
  Ni  Ni44  1  0.50103131  0.83216609  0.83211781  1
  Ni  Ni45  1  0.83119524  0.16639961  0.49980922  1
  Ni  Ni46  1  0.66488780  0.99972698  0.66668884  1
  Ni  Ni47  1  0.83216692  0.16733499  0.83429847  1
  Ni  Ni48  1  0.83223858  0.50096295  0.50106891  1
  Ni  Ni49  1  0.66669264  0.33379114  0.66639399  1
  Ni  Ni50  1  0.83320121  0.49997551  0.83304406  1
  Ni  Ni51  1  0.83227617  0.83237139  0.49869574  1
  Ni  Ni52  1  0.66651804  0.66619781  0.66667230  1
  Ni  Ni53  1  0.83233639  0.83239705  0.83430426  1
" 