3554,Ni8Cr92_2,-237.086564983576, 169.026662268754,Ni8Cr92,"# generated using pymatgen
 data_Cr2Ni25
_symmetry_space_group_name_H-M   'P 1'
_cell_length_a   7.46936367
_cell_length_b   7.46936367
_cell_length_c   10.56327540
_cell_angle_alpha   90.00000000
_cell_angle_beta   90.00000000
_cell_angle_gamma   90.00000000
_symmetry_Int_Tables_number   1
_chemical_formula_structural   Cr2Ni25
_chemical_formula_sum   'Cr4 Ni50'
_cell_volume   589.33985558
_cell_formula_units_Z   2
loop_
 _symmetry_equiv_pos_site_id
 _symmetry_equiv_pos_as_xyz
  1  'x, y, z'
loop_
 _atom_site_type_symbol
 _atom_site_label
 _atom_site_symmetry_multiplicity
 _atom_site_fract_x
 _atom_site_fract_y
 _atom_site_fract_z
 _atom_site_occupancy
  Ni  Ni0  1  0.99978346  0.00014170  0.00028330  1
  Ni  Ni1  1  0.16727888  0.16598238  0.16598684  1
  Ni  Ni2  1  0.99974490  0.99793444  0.33327986  1
  Ni  Ni3  1  0.99960778  0.33294160  0.99970704  1
  Ni  Ni4  1  0.16710062  0.50043432  0.16616398  1
  Cr  Cr5  1  0.00198697  0.33212440  0.33257090  1
  Ni  Ni6  1  0.99978502  0.66645166  -0.00009369  1
  Ni  Ni7  1  0.16621407  0.83311888  0.16681171  1
  Ni  Ni8  1  0.00081034  0.66948685  0.33259146  1
  Ni  Ni9  1  0.33294140  -0.00003590  0.99972816  1
  Ni  Ni10  1  0.49907733  0.16598029  0.16598644  1
  Ni  Ni11  1  0.33294119  0.99956987  0.33341741  1
  Ni  Ni12  1  0.33311861  0.33312030  0.00026224  1
  Ni  Ni13  1  0.49925349  0.50043514  0.16616312  1
  Ni  Ni14  1  0.33311753  0.33335621  0.33347861  1
  Ni  Ni15  1  0.33311848  0.66645033  -0.00009398  1
  Ni  Ni16  1  0.50014245  0.83312034  0.16681176  1
  Ni  Ni17  1  0.33311854  0.66660908  0.33347840  1
  Ni  Ni18  1  0.66681000  0.00014173  -0.00009350  1
  Ni  Ni19  1  0.83317842  0.16509192  0.16509744  1
  Ni  Ni20  1  0.66684888  0.99793535  0.33365666  1
  Ni  Ni21  1  0.66680853  0.33311870  -0.00011511  1
  Ni  Ni22  1  0.83318041  0.50150159  0.16472012  1
  Cr  Cr23  1  0.66419054  0.33252338  0.33217098  1
  Ni  Ni24  1  0.66663136  0.66627442  0.00008421  1
  Ni  Ni25  1  0.83317841  0.83294174  0.16722823  1
  Ni  Ni26  1  0.66560587  0.66931031  0.33241348  1
  Ni  Ni27  1  0.16830050  0.16660820  0.49960961  1
  Cr  Cr28  1  0.99980157  -0.00011166  0.66624200  1
  Ni  Ni29  1  0.16727617  0.16739792  0.83393983  1
  Ni  Ni30  1  0.16887473  0.50043469  0.50067065  1
  Ni  Ni31  1  0.00043571  0.33411555  0.66723641  1
  Ni  Ni32  1  0.16603653  0.49984310  0.83270000  1
  Ni  Ni33  1  0.16723544  0.83249195  0.49878395  1
  Ni  Ni34  1  0.00061269  0.66527513  0.66703691  1
  Ni  Ni35  1  0.16727508  0.83229365  0.83394042  1
  Ni  Ni36  1  0.49888031  0.16554734  0.50066990  1
  Ni  Ni37  1  0.33494452  -0.00003559  0.66638911  1
  Ni  Ni38  1  0.49990474  0.16633565  0.83287835  1
  Ni  Ni39  1  0.49724397  0.50043452  0.50043162  1
  Ni  Ni40  1  0.33331540  0.33355339  0.66579437  1
  Ni  Ni41  1  0.50008222  0.49984303  0.83293914  1
  Ni  Ni42  1  0.49994493  0.83355359  0.49984505  1
  Ni  Ni43  1  0.33331551  0.66601694  0.66615007  1
  Ni  Ni44  1  0.49990627  0.83335638  0.83287845  1
  Ni  Ni45  1  0.83235379  0.16390588  0.50067572  1
  Ni  Ni46  1  0.66504515  0.00014160  0.66597190  1
  Ni  Ni47  1  0.83235437  0.16757305  0.83376150  1
  Cr  Cr48  1  0.83339936  0.50150955  0.50172999  1
  Ni  Ni49  1  0.66578403  0.33248804  0.66723617  1
  Ni  Ni50  1  0.83341602  0.49984472  0.83307720  1
  Ni  Ni51  1  0.83235455  0.83412905  0.49854511  1
  Ni  Ni52  1  0.66560702  0.66690478  0.66703669  1
  Ni  Ni53  1  0.83235393  0.83211655  0.83376176  1
" 