2528,Ni8Cr92_0,-237.098363924175, 169.868066100415,Ni8Cr92,"# generated using pymatgen
 data_Cr2Ni25
_symmetry_space_group_name_H-M   'P 1'
_cell_length_a   7.46936909
_cell_length_b   7.46936909
_cell_length_c   10.56328307
_cell_angle_alpha   90.00000000
_cell_angle_beta   90.00000000
_cell_angle_gamma   90.00000000
_symmetry_Int_Tables_number   1
_chemical_formula_structural   Cr2Ni25
_chemical_formula_sum   'Cr4 Ni50'
_cell_volume   589.34113919
_cell_formula_units_Z   2
loop_
 _symmetry_equiv_pos_site_id
 _symmetry_equiv_pos_as_xyz
  1  'x, y, z'
loop_
 _atom_site_type_symbol
 _atom_site_label
 _atom_site_symmetry_multiplicity
 _atom_site_fract_x
 _atom_site_fract_y
 _atom_site_fract_z
 _atom_site_occupancy
  Ni  Ni0  1  0.99907071  0.99927882  0.99942653  1
  Cr  Cr1  1  0.16711927  0.16590575  0.16556542  1
  Ni  Ni2  1  0.99907143  0.99721702  0.33403636  1
  Ni  Ni3  1  0.99906954  0.33373869  0.99872225  1
  Ni  Ni4  1  0.16732901  0.50230969  0.16579713  1
  Cr  Cr5  1  0.99906351  0.33376095  0.33415580  1
  Ni  Ni6  1  0.00006130  0.66651691  0.00006499  1
  Ni  Ni7  1  0.16650900  0.83153941  0.16695282  1
  Ni  Ni8  1  0.00006091  0.66858443  0.33340020  1
  Ni  Ni9  1  0.33368535  0.99912290  0.99891113  1
  Ni  Ni10  1  0.50148311  0.16650820  0.16695286  1
  Ni  Ni11  1  0.33309347  0.99971444  0.33340123  1
  Ni  Ni12  1  0.33369402  0.33390205  0.99924145  1
  Ni  Ni13  1  0.49997398  0.49997126  0.16695264  1
  Ni  Ni14  1  0.33575623  0.33390102  0.33422062  1
  Ni  Ni15  1  0.33286108  0.66651121  0.00006501  1
  Ni  Ni16  1  0.49997335  0.83305472  0.16637914  1
  Ni  Ni17  1  0.33226969  0.66591889  0.33224732  1
  Ni  Ni18  1  0.66677539  0.00011147  -0.00010137  1
  Ni  Ni19  1  0.83071289  0.16568841  0.16579732  1
  Ni  Ni20  1  0.66736815  0.00070271  0.33241400  1
  Ni  Ni21  1  0.66676979  0.33291129  0.00023136  1
  Ni  Ni22  1  0.83223169  0.50079640  0.16579780  1
  Ni  Ni23  1  0.66470360  0.33291136  0.33323280  1
  Ni  Ni24  1  0.66661114  0.66651110  0.99984281  1
  Ni  Ni25  1  0.83305100  0.83304850  0.16695277  1
  Ni  Ni26  1  0.66720428  0.66591811  0.33246817  1
  Ni  Ni27  1  0.16792680  0.16663781  0.49997655  1
  Cr  Cr28  1  0.99984315  0.99983917  0.66609878  1
  Ni  Ni29  1  0.16733280  0.16723250  0.83376001  1
  Ni  Ni30  1  0.16693904  0.50027587  0.50061188  1
  Ni  Ni31  1  0.99984441  0.33481364  0.66664309  1
  Ni  Ni32  1  0.16634491  0.49967989  0.83312478  1
  Ni  Ni33  1  0.16543143  0.83262000  0.49863623  1
  Ni  Ni34  1  -0.00015031  0.66487710  0.66606858  1
  Ni  Ni35  1  0.16749146  0.83262155  0.83394519  1
  Ni  Ni36  1  0.49963079  0.16814419  0.49962323  1
  Ni  Ni37  1  0.33399372  0.00066589  0.66722291  1
  Ni  Ni38  1  0.49962981  0.16608571  0.83295784  1
  Ni  Ni39  1  0.49979546  0.49793953  0.49956763  1
  Ni  Ni40  1  0.33330884  0.33330700  0.66606944  1
  Ni  Ni41  1  0.49979504  0.50000407  0.83301257  1
  Cr  Cr42  1  0.50001910  0.83320537  0.50022465  1
  Ni  Ni43  1  0.33247927  0.66556075  0.66722406  1
  Ni  Ni44  1  0.49979522  0.83344370  0.83314191  1
  Ni  Ni45  1  0.83197599  0.16663756  0.49962541  1
  Ni  Ni46  1  0.66569664  0.00067265  0.66722426  1
  Ni  Ni47  1  0.83257105  0.16723240  0.83411143  1
  Ni  Ni48  1  0.83280083  0.50043900  0.50077689  1
  Ni  Ni49  1  0.66638080  0.33330123  0.66606895  1
  Ni  Ni50  1  0.83339417  0.49984484  0.83295784  1
  Ni  Ni51  1  0.83431271  0.83245524  0.49880283  1
  Ni  Ni52  1  0.66720536  0.66555975  0.66722541  1
  Ni  Ni53  1  0.83224706  0.83245624  0.83377747  1
" 