1789,Ni8Cr92_13,-237.077676638927, 169.227738446951,Ni8Cr92,"# generated using pymatgen
 data_Cr2Ni25
_symmetry_space_group_name_H-M   'P 1'
_cell_length_a   7.46739461
_cell_length_b   7.46739461
_cell_length_c   10.56049073
_cell_angle_alpha   90.00000000
_cell_angle_beta   90.00000000
_cell_angle_gamma   90.00000000
_symmetry_Int_Tables_number   1
_chemical_formula_structural   Cr2Ni25
_chemical_formula_sum   'Cr4 Ni50'
_cell_volume   588.87389719
_cell_formula_units_Z   2
loop_
 _symmetry_equiv_pos_site_id
 _symmetry_equiv_pos_as_xyz
  1  'x, y, z'
loop_
 _atom_site_type_symbol
 _atom_site_label
 _atom_site_symmetry_multiplicity
 _atom_site_fract_x
 _atom_site_fract_y
 _atom_site_fract_z
 _atom_site_occupancy
  Cr  Cr0  1  0.00078083  0.00076008  0.00075861  1
  Ni  Ni1  1  0.16741958  0.16754460  0.16762933  1
  Ni  Ni2  1  0.00018673  0.99976931  0.33387629  1
  Ni  Ni3  1  0.99976745  0.33493763  0.99976056  1
  Ni  Ni4  1  0.16643487  0.50005655  0.16629352  1
  Ni  Ni5  1  0.99918711  0.33232670  0.33231755  1
  Ni  Ni6  1  0.00075540  0.66425369  0.00074542  1
  Ni  Ni7  1  0.16742500  0.83232650  0.16763471  1
  Ni  Ni8  1  0.99919937  0.66783236  0.33253988  1
  Ni  Ni9  1  0.33492780  0.99976925  0.99976029  1
  Ni  Ni10  1  0.49997533  0.16623165  0.16664519  1
  Ni  Ni11  1  0.33211887  0.00074406  0.33253884  1
  Ni  Ni12  1  0.33345267  0.33343889  -0.00001878  1
  Ni  Ni13  1  0.49981276  0.50022048  0.16703544  1
  Ni  Ni14  1  0.33426081  0.33248762  0.33270491  1
  Ni  Ni15  1  0.33344294  0.66672115  0.99976059  1
  Ni  Ni16  1  0.50013867  0.83347821  0.16612509  1
  Ni  Ni17  1  0.33327300  0.66669675  0.33172018  1
  Ni  Ni18  1  0.66423726  0.00076196  0.00075028  1
  Ni  Ni19  1  0.83253117  0.16721976  0.16729500  1
  Ni  Ni20  1  0.66762282  0.00075317  0.33232060  1
  Ni  Ni21  1  0.66670948  0.33345277  0.99976045  1
  Ni  Ni22  1  0.83368128  0.50021917  0.16647850  1
  Ni  Ni23  1  0.66648566  0.33347928  0.33369185  1
  Ni  Ni24  1  0.66573264  0.66571858  0.00074765  1
  Ni  Ni25  1  0.83236663  0.83249178  0.16781590  1
  Ni  Ni26  1  0.66745989  0.66569716  0.33270930  1
  Ni  Ni27  1  0.16647475  0.16511073  0.50002728  1
  Ni  Ni28  1  0.00096377  0.00054541  0.66531062  1
  Ni  Ni29  1  0.16759251  0.16771746  0.83227184  1
  Cr  Cr30  1  0.16685058  0.49981521  0.49979902  1
  Ni  Ni31  1  0.99899500  0.33233173  0.66784643  1
  Ni  Ni32  1  0.16660663  0.49988531  0.83360918  1
  Ni  Ni33  1  0.16481382  0.83492942  0.50019642  1
  Ni  Ni34  1  -0.00002100  0.66705330  0.66664389  1
  Ni  Ni35  1  0.16924630  0.83232651  0.83210059  1
  Ni  Ni36  1  0.50014601  0.16808030  0.50002732  1
  Ni  Ni37  1  0.33212121  0.00054613  0.66762971  1
  Ni  Ni38  1  0.49980520  0.16640227  0.83325646  1
  Ni  Ni39  1  0.50164750  0.49839041  0.50002696  1
  Ni  Ni40  1  0.33425543  0.33249207  0.66723986  1
  Ni  Ni41  1  0.49964347  0.50005112  0.83286733  1
  Cr  Cr42  1  0.50013383  0.83329239  0.50018078  1
  Ni  Ni43  1  0.33327032  0.66689021  0.66844551  1
  Ni  Ni44  1  0.49830183  0.83347810  0.83360900  1
  Ni  Ni45  1  0.83330875  0.16644023  0.50019579  1
  Ni  Ni46  1  0.66684323  0.00153146  0.66686285  1
  Ni  Ni47  1  0.83253072  0.16905053  0.83244077  1
  Ni  Ni48  1  0.83183869  0.50005177  0.50019651  1
  Ni  Ni49  1  0.66668332  0.33347937  0.66647909  1
  Ni  Ni50  1  0.83368067  0.49839352  0.83325666  1
  Ni  Ni51  1  0.83479692  0.83343898  0.49984324  1
  Ni  Ni52  1  0.66668521  0.66492336  0.66648033  1
  Cr  Cr53  1  0.83214468  0.83270896  0.83250479  1
" 