5754,Ni8Cr92_8,-237.137794306019, 170.948533990721,Ni8Cr92,"# generated using pymatgen
 data_Cr2Ni25
_symmetry_space_group_name_H-M   'P 1'
_cell_length_a   7.46697264
_cell_length_b   7.46697264
_cell_length_c   10.55989397
_cell_angle_alpha   90.00000000
_cell_angle_beta   90.00000000
_cell_angle_gamma   90.00000000
_symmetry_Int_Tables_number   1
_chemical_formula_structural   Cr2Ni25
_chemical_formula_sum   'Cr4 Ni50'
_cell_volume   588.77407327
_cell_formula_units_Z   2
loop_
 _symmetry_equiv_pos_site_id
 _symmetry_equiv_pos_as_xyz
  1  'x, y, z'
loop_
 _atom_site_type_symbol
 _atom_site_label
 _atom_site_symmetry_multiplicity
 _atom_site_fract_x
 _atom_site_fract_y
 _atom_site_fract_z
 _atom_site_occupancy
  Ni  Ni0  1  0.00094198  0.00081865  0.99901339  1
  Ni  Ni1  1  0.16682446  0.16697651  0.16650467  1
  Ni  Ni2  1  0.00079542  0.00081022  0.33449602  1
  Ni  Ni3  1  0.00141228  0.33333835  0.00035481  1
  Ni  Ni4  1  0.16682446  0.49970019  0.16650467  1
  Ni  Ni5  1  0.99964354  0.33333835  0.33275998  1
  Ni  Ni6  1  0.00094198  0.66585806  0.99901339  1
  Ni  Ni7  1  0.16841464  0.83333835  0.16689941  1
  Ni  Ni8  1  0.00079542  0.66586649  0.33449602  1
  Ni  Ni9  1  0.33318558  0.99970019  0.00017204  1
  Ni  Ni10  1  0.49906806  0.16585806  0.16766331  1
  Ni  Ni11  1  0.33253348  0.00064497  0.33235926  1
  Ni  Ni12  1  0.33159540  0.33333835  0.99977730  1
  Ni  Ni13  1  0.49906806  0.50081865  0.16766331  1
  Ni  Ni14  1  0.33352437  0.33333835  0.33355702  1
  Ni  Ni15  1  0.33318558  0.66697651  0.00017204  1
  Ni  Ni16  1  0.49859776  0.83333835  0.16632189  1
  Ni  Ni17  1  0.33253348  0.66603174  0.33235926  1
  Ni  Ni18  1  0.66588723  0.99922471  0.99919097  1
  Ni  Ni19  1  0.83412281  0.16745200  0.16748573  1
  Ni  Ni20  1  0.66668405  0.00179531  0.33316207  1
  Cr  Cr21  1  0.66697871  0.33333835  0.99999621  1
  Ni  Ni22  1  0.83412281  0.49922471  0.16748573  1
  Ni  Ni23  1  0.66684422  0.33333835  0.33369647  1
  Ni  Ni24  1  0.66588723  0.66745200  0.99919097  1
  Cr  Cr25  1  0.83303133  0.83333835  0.16668050  1
  Ni  Ni26  1  0.66668405  0.66488139  0.33316207  1
  Ni  Ni27  1  0.16732665  0.16602188  0.49919130  1
  Ni  Ni28  1  0.99999359  0.99824332  0.66650465  1
  Ni  Ni29  1  0.16747656  0.16603174  0.83431745  1
  Ni  Ni30  1  0.16732665  0.50065482  0.49919130  1
  Cr  Cr31  1  0.99982438  0.33333835  0.66688905  1
  Ni  Ni32  1  0.16747656  0.50064497  0.83431745  1
  Ni  Ni33  1  0.16471614  0.83333835  0.49999751  1
  Ni  Ni34  1  0.99999359  0.66843339  0.66650465  1
  Ni  Ni35  1  0.16648567  0.83333835  0.83311969  1
  Ni  Ni36  1  0.50001645  0.16843339  0.50017205  1
  Ni  Ni37  1  0.33268339  0.00065482  0.66748541  1
  Ni  Ni38  1  0.49921462  0.16586649  0.83218069  1
  Ni  Ni39  1  0.50001645  0.49824332  0.50017205  1
  Ni  Ni40  1  0.33529390  0.33333835  0.66667920  1
  Ni  Ni41  1  0.49921462  0.50081022  0.83218069  1
  Cr  Cr42  1  0.50018566  0.83333835  0.49978766  1
  Ni  Ni43  1  0.33268339  0.66602188  0.66748541  1
  Ni  Ni44  1  0.50036650  0.83333835  0.83391673  1
  Ni  Ni45  1  0.83267524  0.16582410  0.49901405  1
  Ni  Ni46  1  0.66733480  0.00085261  0.66766265  1
  Ni  Ni47  1  0.83332599  0.16488139  0.83351464  1
  Ni  Ni48  1  0.83267524  0.50085261  0.49901405  1
  Ni  Ni49  1  0.66492248  0.33333835  0.66631929  1
  Ni  Ni50  1  0.83332599  0.50179531  0.83351464  1
  Ni  Ni51  1  0.83508756  0.83333835  0.50035742  1
  Ni  Ni52  1  0.66733480  0.66582410  0.66766265  1
  Ni  Ni53  1  0.83316582  0.83333835  0.83298024  1
" 