2539,Ni8Cr92_15,-237.10871740386, 169.610464446721,Ni8Cr92,"# generated using pymatgen
 data_Cr2Ni25
_symmetry_space_group_name_H-M   'P 1'
_cell_length_a   7.46927350
_cell_length_b   7.46927350
_cell_length_c   10.56314789
_cell_angle_alpha   90.00000000
_cell_angle_beta   90.00000000
_cell_angle_gamma   90.00000000
_symmetry_Int_Tables_number   1
_chemical_formula_structural   Cr2Ni25
_chemical_formula_sum   'Cr4 Ni50'
_cell_volume   589.31851349
_cell_formula_units_Z   2
loop_
 _symmetry_equiv_pos_site_id
 _symmetry_equiv_pos_as_xyz
  1  'x, y, z'
loop_
 _atom_site_type_symbol
 _atom_site_label
 _atom_site_symmetry_multiplicity
 _atom_site_fract_x
 _atom_site_fract_y
 _atom_site_fract_z
 _atom_site_occupancy
  Ni  Ni0  1  0.00064413  0.99919853  0.00040567  1
  Ni  Ni1  1  0.16646677  0.16634829  0.16637176  1
  Ni  Ni2  1  0.99957686  0.99980031  0.33290390  1
  Ni  Ni3  1  0.00011430  0.33318250  0.00141202  1
  Ni  Ni4  1  0.16629990  0.49985294  0.16584498  1
  Ni  Ni5  1  0.99974981  0.33318426  0.33307341  1
  Ni  Ni6  1  0.00265683  0.66717269  0.00040768  1
  Ni  Ni7  1  0.16646725  0.83335168  0.16578897  1
  Ni  Ni8  1  0.99958775  0.66656871  0.33290345  1
  Ni  Ni9  1  0.33216989  0.99919887  0.00063057  1
  Ni  Ni10  1  0.49912021  0.16735282  0.16679198  1
  Ni  Ni11  1  0.33345272  0.99980045  0.33290416  1
  Ni  Ni12  1  0.33370633  0.33418808  0.00040543  1
  Ni  Ni13  1  0.49945257  0.49901342  0.16679425  1
  Ni  Ni14  1  0.33328559  0.33318979  0.33307350  1
  Ni  Ni15  1  0.33116174  0.66616581  0.99940304  1
  Ni  Ni16  1  0.49827629  0.83318424  0.16797070  1
  Ni  Ni17  1  0.33344813  0.66656300  0.33290301  1
  Cr  Cr18  1  0.66672386  0.00129119  0.99943302  1
  Ni  Ni19  1  0.83396599  0.16752000  0.16662249  1
  Ni  Ni20  1  0.66652312  0.99963810  0.33309135  1
  Ni  Ni21  1  0.66573160  0.33217730  0.00040752  1
  Ni  Ni22  1  0.83380047  0.49901348  0.16715107  1
  Ni  Ni23  1  0.66651740  0.33317890  0.33273399  1
  Cr  Cr24  1  0.66572328  0.66607397  0.00064489  1
  Ni  Ni25  1  0.83481065  0.83301904  0.16780308  1
  Ni  Ni26  1  0.66651743  0.66673558  0.33309181  1
  Ni  Ni27  1  0.16646720  0.16656262  0.49977415  1
  Ni  Ni28  1  0.99857762  0.99901710  0.66624426  1
  Cr  Cr29  1  0.16649038  0.16634005  0.83338772  1
  Ni  Ni30  1  0.16629924  0.49963846  0.50030161  1
  Ni  Ni31  1  0.99974980  0.33318315  0.66506833  1
  Ni  Ni32  1  0.16818850  0.50173648  0.83340666  1
  Ni  Ni33  1  0.16646710  0.83335167  0.50013141  1
  Ni  Ni34  1  0.00058834  0.66735456  0.66624142  1
  Ni  Ni35  1  0.16664837  0.83165443  0.83363196  1
  Ni  Ni36  1  0.49968888  0.16656840  0.50013135  1
  Ni  Ni37  1  0.33423604  0.99901774  0.66601888  1
  Ni  Ni38  1  0.50081859  0.16717186  0.83262917  1
  Ni  Ni39  1  0.50002353  0.49979996  0.50013164  1
  Ni  Ni40  1  0.33406950  0.33418853  0.66607408  1
  Ni  Ni41  1  0.49775145  0.49919365  0.83262734  1
  Ni  Ni42  1  0.49985044  0.83318432  0.49996226  1
  Ni  Ni43  1  0.33323208  0.66634768  0.66724599  1
  Ni  Ni44  1  0.49827531  0.83318696  0.83161933  1
  Ni  Ni45  1  0.83339717  0.16673634  0.50030176  1
  Ni  Ni46  1  0.66673850  -0.00014576  0.66705879  1
  Ni  Ni47  1  0.83208254  0.16563144  0.83262885  1
  Ni  Ni48  1  0.83322991  0.49979996  0.49977453  1
  Ni  Ni49  1  0.66573220  0.33217789  0.66641150  1
  Cr  Cr50  1  0.83380092  0.49903301  0.83260418  1
  Ni  Ni51  1  0.83323562  0.83301701  0.50013158  1
  Ni  Ni52  1  0.66573338  0.66752019  0.66582885  1
  Ni  Ni53  1  0.83463033  0.83472214  0.83161854  1
" 