6296,Ni8Cr92_6,-236.98500492334, 166.588733933852,Ni8Cr92,"# generated using pymatgen
 data_Cr2Ni25
_symmetry_space_group_name_H-M   'P 1'
_cell_length_a   7.46955458
_cell_length_b   7.46955458
_cell_length_c   10.56354540
_cell_angle_alpha   90.00000000
_cell_angle_beta   90.00000000
_cell_angle_gamma   90.00000000
_symmetry_Int_Tables_number   1
_chemical_formula_structural   Cr2Ni25
_chemical_formula_sum   'Cr4 Ni50'
_cell_volume   589.38504702
_cell_formula_units_Z   2
loop_
 _symmetry_equiv_pos_site_id
 _symmetry_equiv_pos_as_xyz
  1  'x, y, z'
loop_
 _atom_site_type_symbol
 _atom_site_label
 _atom_site_symmetry_multiplicity
 _atom_site_fract_x
 _atom_site_fract_y
 _atom_site_fract_z
 _atom_site_occupancy
  Ni  Ni0  1  0.00091491  0.99879757  0.00046674  1
  Ni  Ni1  1  0.16612842  0.16649885  0.16616081  1
  Ni  Ni2  1  -0.00015047  0.99981346  0.33316552  1
  Ni  Ni3  1  0.00091491  0.33420014  0.00046674  1
  Ni  Ni4  1  0.16628833  0.50002139  0.16640470  1
  Ni  Ni5  1  -0.00015047  0.33318425  0.33316552  1
  Ni  Ni6  1  0.99976489  0.66649885  0.99942643  1
  Ni  Ni7  1  0.16628833  0.83297632  0.16640470  1
  Ni  Ni8  1  0.99966448  0.66649885  0.33316552  1
  Ni  Ni9  1  0.33100108  -0.00008063  0.00138842  1
  Ni  Ni10  1  0.49980943  0.16649885  0.16612882  1
  Ni  Ni11  1  0.33329605  -0.00000082  0.33316552  1
  Ni  Ni12  1  0.33100108  0.33307834  0.00138842  1
  Ni  Ni13  1  0.49964563  0.50001477  0.16637095  1
  Ni  Ni14  1  0.33329605  0.33299853  0.33316552  1
  Ni  Ni15  1  0.33103786  0.66649885  0.00159720  1
  Ni  Ni16  1  0.49964563  0.83298294  0.16637095  1
  Ni  Ni17  1  0.33329492  0.66649885  0.33316552  1
  Ni  Ni18  1  0.66756886  0.99862962  0.00268475  1
  Ni  Ni19  1  0.83356554  0.16649885  0.16661269  1
  Ni  Ni20  1  0.66635121  0.99981341  0.33316552  1
  Ni  Ni21  1  0.66756886  0.33436808  0.00268475  1
  Ni  Ni22  1  0.83355896  0.49985124  0.16616001  1
  Ni  Ni23  1  0.66635121  0.33318430  0.33316552  1
  Ni  Ni24  1  0.66871281  0.66649885  0.00142113  1
  Ni  Ni25  1  0.83355896  0.83314647  0.16616001  1
  Ni  Ni26  1  0.66653671  0.66649885  0.33316552  1
  Ni  Ni27  1  0.16612842  0.16649885  0.50017024  1
  Ni  Ni28  1  0.00091491  0.99879757  0.66586430  1
  Ni  Ni29  1  0.16601288  0.16649885  0.83316552  1
  Ni  Ni30  1  0.16628833  0.50002139  0.49992634  1
  Ni  Ni31  1  0.00091491  0.33420014  0.66586430  1
  Ni  Ni32  1  0.16468966  0.50000524  0.83316552  1
  Ni  Ni33  1  0.16628833  0.83297632  0.49992634  1
  Ni  Ni34  1  0.99976489  0.66649885  0.66690461  1
  Ni  Ni35  1  0.16468966  0.83299247  0.83316552  1
  Ni  Ni36  1  0.49980943  0.16649885  0.50020223  1
  Ni  Ni37  1  0.33100108  -0.00008063  0.66494262  1
  Cr  Cr38  1  0.49830346  0.16649885  0.83316552  1
  Ni  Ni39  1  0.49964563  0.50001477  0.49996009  1
  Ni  Ni40  1  0.33100108  0.33307834  0.66494262  1
  Cr  Cr41  1  0.49988436  0.49985183  0.83316552  1
  Ni  Ni42  1  0.49964563  0.83298294  0.49996009  1
  Ni  Ni43  1  0.33103786  0.66649885  0.66473384  1
  Cr  Cr44  1  0.49988436  0.83314588  0.83316552  1
  Ni  Ni45  1  0.83356554  0.16649885  0.49971835  1
  Ni  Ni46  1  0.66756886  0.99862962  0.66364629  1
  Cr  Cr47  1  0.83448706  0.16649885  0.83316552  1
  Ni  Ni48  1  0.83355896  0.49985124  0.50017103  1
  Ni  Ni49  1  0.66756886  0.33436808  0.66364629  1
  Ni  Ni50  1  0.83527400  0.50150500  0.83316552  1
  Ni  Ni51  1  0.83355896  0.83314647  0.50017103  1
  Ni  Ni52  1  0.66871281  0.66649885  0.66490991  1
  Ni  Ni53  1  0.83527400  0.83149271  0.83316552  1
" 