1125,Ni8Cr92_1,-237.159260204512, 170.738107423029,Ni8Cr92,"# generated using pymatgen
 data_Cr2Ni25
_symmetry_space_group_name_H-M   'P 1'
_cell_length_a   7.46702800
_cell_length_b   7.46702800
_cell_length_c   10.55997227
_cell_angle_alpha   90.00000000
_cell_angle_beta   90.00000000
_cell_angle_gamma   90.00000000
_symmetry_Int_Tables_number   1
_chemical_formula_structural   Cr2Ni25
_chemical_formula_sum   'Cr4 Ni50'
_cell_volume   588.78716977
_cell_formula_units_Z   2
loop_
 _symmetry_equiv_pos_site_id
 _symmetry_equiv_pos_as_xyz
  1  'x, y, z'
loop_
 _atom_site_type_symbol
 _atom_site_label
 _atom_site_symmetry_multiplicity
 _atom_site_fract_x
 _atom_site_fract_y
 _atom_site_fract_z
 _atom_site_occupancy
  Ni  Ni0  1  0.99916006  0.00062682  0.00059425  1
  Ni  Ni1  1  0.16665258  0.16646997  0.16633436  1
  Ni  Ni2  1  0.99916147  0.99879490  0.33296529  1
  Ni  Ni3  1  0.00019126  0.33351436  0.99956615  1
  Ni  Ni4  1  0.16668649  0.50001254  0.16670862  1
  Ni  Ni5  1  0.99920202  0.33434925  0.33274327  1
  Ni  Ni6  1  0.99919401  0.66586068  0.00096423  1
  Ni  Ni7  1  0.16685326  0.83351992  0.16726328  1
  Ni  Ni8  1  0.00019357  0.66686024  0.33361763  1
  Ni  Ni9  1  0.33415091  0.00081758  0.00076457  1
  Ni  Ni10  1  0.49980803  0.16647470  0.16707122  1
  Ni  Ni11  1  0.33332368  0.99999035  0.33174793  1
  Ni  Ni12  1  0.33315957  0.33334863  0.99974363  1
  Ni  Ni13  1  0.49997311  0.50021100  0.16688997  1
  Ni  Ni14  1  0.33431961  0.33418807  0.33278061  1
  Ni  Ni15  1  0.33396016  0.66582673  0.00059425  1
  Ni  Ni16  1  0.49980330  0.83331924  0.16633436  1
  Ni  Ni17  1  0.33212823  0.66582814  0.33296529  1
  Ni  Ni18  1  0.66668196  0.99982623  0.99974363  1
  Ni  Ni19  1  0.83354433  0.16663977  0.16688997  1
  Ni  Ni20  1  0.66752140  0.00098627  0.33278061  1
  Ni  Ni21  1  0.66665187  0.33331853  0.99997218  1
  Ni  Ni22  1  0.83334534  0.50001201  0.16671005  1
  Ni  Ni23  1  0.66648510  0.33315177  0.33380182  1
  Ni  Ni24  1  0.66684770  0.66685792  0.99956615  1
  Ni  Ni25  1  0.83334587  0.83335315  0.16670862  1
  Ni  Ni26  1  0.66768258  0.66586868  0.33274327  1
  Cr  Cr27  1  0.16651819  0.16647167  0.50041549  1
  Ni  Ni28  1  0.99832428  0.00147321  0.66645196  1
  Ni  Ni29  1  0.16648895  0.16832928  0.83322750  1
  Ni  Ni30  1  0.16736607  0.50086224  0.49941306  1
  Ni  Ni31  1  0.99936772  0.33248345  0.66769803  1
  Ni  Ni32  1  0.16752091  0.49733207  0.83388042  1
  Ni  Ni33  1  0.16582841  0.83249508  0.49904028  1
  Cr  Cr34  1  0.99932348  0.66599015  0.66543009  1
  Cr  Cr35  1  0.16769578  0.83436245  0.83374354  1
  Ni  Ni36  1  0.50166132  0.16832798  0.50003020  1
  Ni  Ni37  1  0.33431393  0.00098059  0.66748302  1
  Ni  Ni38  1  0.49995765  0.16662431  0.83290094  1
  Ni  Ni39  1  0.50013012  0.49870042  0.50025818  1
  Ni  Ni40  1  0.33430973  0.33402886  0.66747375  1
  Ni  Ni41  1  0.50013144  0.50022226  0.83285671  1
  Cr  Cr42  1  0.49980500  0.83318486  0.50041549  1
  Ni  Ni43  1  0.33480654  0.66499094  0.66645196  1
  Ni  Ni44  1  0.50166261  0.83315562  0.83322750  1
  Ni  Ni45  1  0.83203375  0.16679678  0.50025818  1
  Ni  Ni46  1  0.66736219  0.00097640  0.66747375  1
  Ni  Ni47  1  0.83355559  0.16679810  0.83285671  1
  Ni  Ni48  1  0.83251805  0.49918472  0.49923917  1
  Ni  Ni49  1  0.66633051  0.33299717  0.66622542  1
  Ni  Ni50  1  0.83235346  0.49902012  0.83406286  1
  Ni  Ni51  1  0.83419557  0.83403274  0.49941306  1
  Ni  Ni52  1  0.66581678  0.66603439  0.66769803  1
  Ni  Ni53  1  0.83066540  0.83418758  0.83388042  1
" 