4959,Ni8Cr92_11,-237.115223402622, 169.253045040853,Ni8Cr92,"# generated using pymatgen
 data_Cr2Ni25
_symmetry_space_group_name_H-M   'P 1'
_cell_length_a   7.46809652
_cell_length_b   7.46809652
_cell_length_c   10.56148339
_cell_angle_alpha   90.00000000
_cell_angle_beta   90.00000000
_cell_angle_gamma   90.00000000
_symmetry_Int_Tables_number   1
_chemical_formula_structural   Cr2Ni25
_chemical_formula_sum   'Cr4 Ni50'
_cell_volume   589.03996961
_cell_formula_units_Z   2
loop_
 _symmetry_equiv_pos_site_id
 _symmetry_equiv_pos_as_xyz
  1  'x, y, z'
loop_
 _atom_site_type_symbol
 _atom_site_label
 _atom_site_symmetry_multiplicity
 _atom_site_fract_x
 _atom_site_fract_y
 _atom_site_fract_z
 _atom_site_occupancy
  Ni  Ni0  1  0.99903147  0.00080971  0.99907242  1
  Ni  Ni1  1  0.16662128  0.16816184  0.16681300  1
  Ni  Ni2  1  0.99887680  0.00096304  0.33415967  1
  Ni  Ni3  1  0.00027007  0.33343871  0.00017380  1
  Ni  Ni4  1  0.16394932  0.49729867  0.16573426  1
  Ni  Ni5  1  0.00012165  0.33328909  0.33305750  1
  Ni  Ni6  1  0.99917246  0.66552477  0.99948003  1
  Cr  Cr7  1  0.16571830  0.83417952  0.16569770  1
  Ni  Ni8  1  0.99727699  0.66552391  0.33393354  1
  Ni  Ni9  1  0.33434274  0.00084814  0.99927922  1
  Ni  Ni10  1  0.49990451  0.16501796  0.16681303  1
  Ni  Ni11  1  0.33434337  0.00275160  0.33413849  1
  Ni  Ni12  1  0.33218275  0.33251615  0.99967578  1
  Cr  Cr13  1  0.50084894  0.49901522  0.16569771  1
  Ni  Ni14  1  0.33218261  0.33062250  0.33373943  1
  Ni  Ni15  1  0.33326328  0.66642452  0.99779583  1
  Ni  Ni16  1  0.50252427  0.83590439  0.16573292  1
  Cr  Cr17  1  0.33326240  0.66646332  0.33528368  1
  Ni  Ni18  1  0.66642636  0.99974723  0.00036673  1
  Ni  Ni19  1  0.83326294  0.16664195  0.16657771  1
  Ni  Ni20  1  0.66657798  0.99989756  0.33286276  1
  Ni  Ni21  1  0.66731916  0.33237464  0.99887452  1
  Ni  Ni22  1  0.83483500  0.49991701  0.16681298  1
  Ni  Ni23  1  0.66747085  0.33222190  0.33435938  1
  Ni  Ni24  1  0.66735107  0.66768389  0.99947777  1
  Ni  Ni25  1  0.83169103  0.83323060  0.16681252  1
  Ni  Ni26  1  0.66924628  0.66768369  0.33393586  1
  Ni  Ni27  1  0.16588518  0.16552033  0.49859494  1
  Ni  Ni28  1  0.99975731  0.99979490  0.66656878  1
  Ni  Ni29  1  0.16573836  0.16551839  0.83438322  1
  Ni  Ni30  1  0.16496534  0.50008444  0.49948598  1
  Ni  Ni31  1  0.99824879  0.33329799  0.66656797  1
  Ni  Ni32  1  0.16586529  0.50098534  0.83458121  1
  Ni  Ni33  1  0.16588390  0.83416688  0.50113333  1
  Ni  Ni34  1  -0.00005918  0.66669591  0.66636431  1
  Ni  Ni35  1  0.16676462  0.83327716  0.83291323  1
  Ni  Ni36  1  0.50064268  0.16587592  0.49860008  1
  Ni  Ni37  1  0.33331617  0.99804456  0.66636118  1
  Ni  Ni38  1  0.50078959  0.16588502  0.83437820  1
  Ni  Ni39  1  0.50172213  0.49992073  0.50006249  1
  Cr  Cr40  1  0.33322242  0.33339483  0.66638341  1
  Ni  Ni41  1  0.50083940  0.50080380  0.83398587  1
  Ni  Ni42  1  0.50048586  0.83400878  0.50056237  1
  Ni  Ni43  1  0.33326350  0.66830989  0.66675791  1
  Ni  Ni44  1  0.49958797  0.83310181  0.83350356  1
  Ni  Ni45  1  0.83326388  0.16678048  0.50010107  1
  Ni  Ni46  1  0.66671656  0.99974238  0.66656910  1
  Ni  Ni47  1  0.83326390  0.16677956  0.83310600  1
  Ni  Ni48  1  0.83308991  0.49992575  0.49966959  1
  Ni  Ni49  1  0.66833077  0.33324562  0.66656772  1
  Ni  Ni50  1  0.83308424  0.49978221  0.83330715  1
  Ni  Ni51  1  0.83343707  0.83308381  0.49943424  1
  Ni  Ni52  1  0.66658558  0.66680176  0.66636432  1
  Ni  Ni53  1  0.83344269  0.83322803  0.83354233  1
" 