6160,Ni8Fe77Cr13_6,-224.600561817837, 150.970666634833,Ni8Fe77Cr13,"# generated using pymatgen
 data_Cr9Fe41Ni4
_symmetry_space_group_name_H-M   'P 1'
_cell_length_a   7.45767286
_cell_length_b   7.45767286
_cell_length_c   10.54674210
_cell_angle_alpha   90.00000000
_cell_angle_beta   90.00000000
_cell_angle_gamma   90.00000000
_symmetry_Int_Tables_number   1
_chemical_formula_structural   Cr9Fe41Ni4
_chemical_formula_sum   'Cr9 Fe41 Ni4'
_cell_volume   586.57693663
_cell_formula_units_Z   1
loop_
 _symmetry_equiv_pos_site_id
 _symmetry_equiv_pos_as_xyz
  1  'x, y, z'
loop_
 _atom_site_type_symbol
 _atom_site_label
 _atom_site_symmetry_multiplicity
 _atom_site_fract_x
 _atom_site_fract_y
 _atom_site_fract_z
 _atom_site_occupancy
  Fe  Fe0  1  0.00347075  0.00131409  0.00207239  1
  Fe  Fe1  1  0.16607425  0.16778840  0.16656835  1
  Fe  Fe2  1  1.00060776  0.00197324  0.33397249  1
  Ni  Ni3  1  0.00231789  0.33443803  0.00230316  1
  Fe  Fe4  1  0.16836350  0.49918250  0.16567132  1
  Fe  Fe5  1  1.00057035  0.33248379  0.33337960  1
  Fe  Fe6  1  1.00029219  0.66621233  0.00221504  1
  Fe  Fe7  1  0.16676610  0.83491526  0.16670764  1
  Cr  Cr8  1  1.00058277  0.66711630  0.33377422  1
  Fe  Fe9  1  0.33113796  0.00132775  0.99914389  1
  Cr  Cr10  1  0.50040207  0.17004379  0.16709684  1
  Fe  Fe11  1  0.33162565  0.99967731  0.33465324  1
  Ni  Ni12  1  0.33161621  0.33276886  0.00126923  1
  Fe  Fe13  1  0.50062562  0.50067979  0.16701896  1
  Fe  Fe14  1  0.33279855  0.33592062  0.33378789  1
  Fe  Fe15  1  0.33358019  0.66693404  0.00134084  1
  Cr  Cr16  1  0.50032169  0.83146440  0.16864013  1
  Fe  Fe17  1  0.33498137  0.66628980  0.33512988  1
  Cr  Cr18  1  0.66639608  0.99959453  0.99973131  1
  Fe  Fe19  1  0.83627671  0.16807515  0.16757192  1
  Fe  Fe20  1  0.66965292  0.99978959  0.33446756  1
  Fe  Fe21  1  0.66800054  0.33679994  0.00130822  1
  Fe  Fe22  1  0.83289656  0.49998645  0.16580017  1
  Fe  Fe23  1  0.66851692  0.33584574  0.33445517  1
  Ni  Ni24  1  0.66845672  0.66588336  0.00146629  1
  Fe  Fe25  1  0.83477878  0.83382300  0.16679228  1
  Fe  Fe26  1  0.66621983  0.66625149  0.33442199  1
  Fe  Fe27  1  0.16647618  0.16789430  0.50063062  1
  Fe  Fe28  1  0.00203285  1.00057226  0.66584095  1
  Fe  Fe29  1  0.16873882  0.16658814  0.83468881  1
  Fe  Fe30  1  0.16893059  0.49972831  0.50154908  1
  Fe  Fe31  1  1.00055796  0.33393433  0.66647870  1
  Cr  Cr32  1  0.16615400  0.50084181  0.83399185  1
  Fe  Fe33  1  0.16877399  0.83426331  0.50134012  1
  Fe  Fe34  1  0.00066800  0.66737956  0.66567910  1
  Fe  Fe35  1  0.16872161  0.83542923  0.83383717  1
  Cr  Cr36  1  0.50113834  0.16810718  0.50063579  1
  Fe  Fe37  1  0.33323963  0.99988445  0.66809072  1
  Fe  Fe38  1  0.49810408  0.16682881  0.83356660  1
  Ni  Ni39  1  0.49993365  0.50222727  0.49892449  1
  Fe  Fe40  1  0.33368859  0.33359730  0.66677885  1
  Cr  Cr41  1  0.50135097  0.49986607  0.83596496  1
  Fe  Fe42  1  0.50064982  0.83184940  0.50042238  1
  Fe  Fe43  1  0.33426739  0.66840446  0.66541800  1
  Fe  Fe44  1  0.49891747  0.83439244  0.83380632  1
  Fe  Fe45  1  0.83476238  0.16785448  0.50081717  1
  Fe  Fe46  1  0.66661387  0.99999265  0.66681321  1
  Cr  Cr47  1  0.83425681  0.16896143  0.83368975  1
  Fe  Fe48  1  0.83234273  0.49972903  0.50140254  1
  Fe  Fe49  1  0.66763893  0.33496395  0.66612347  1
  Fe  Fe50  1  0.83400804  0.50067956  0.83468525  1
  Fe  Fe51  1  0.83246181  0.83430227  0.50152718  1
  Fe  Fe52  1  0.66695038  0.66692960  0.66614069  1
  Cr  Cr53  1  0.83523185  0.83215949  0.83433688  1
" 