238,Ni8Fe18Cr72_0,-209.299856093078, 189.435464874443,Ni8Fe18Cr72,"# generated using pymatgen
 data_Cr41Fe9Ni4
_symmetry_space_group_name_H-M   'P 1'
_cell_length_a   7.57116509
_cell_length_b   7.57116509
_cell_length_c   10.70724435
_cell_angle_alpha   90.00000000
_cell_angle_beta   90.00000000
_cell_angle_gamma   90.00000000
_symmetry_Int_Tables_number   1
_chemical_formula_structural   Cr41Fe9Ni4
_chemical_formula_sum   'Cr41 Fe9 Ni4'
_cell_volume   613.76645099
_cell_formula_units_Z   1
loop_
 _symmetry_equiv_pos_site_id
 _symmetry_equiv_pos_as_xyz
  1  'x, y, z'
loop_
 _atom_site_type_symbol
 _atom_site_label
 _atom_site_symmetry_multiplicity
 _atom_site_fract_x
 _atom_site_fract_y
 _atom_site_fract_z
 _atom_site_occupancy
  Cr  Cr0  1  0.99174315  0.99141680  -0.00528064  1
  Cr  Cr1  1  0.15808346  0.15924347  0.16273529  1
  Fe  Fe2  1  0.99162742  -0.00528702  0.32765787  1
  Cr  Cr3  1  -0.00510923  0.32702241  0.99123750  1
  Cr  Cr4  1  0.15849349  0.49329950  0.15970234  1
  Fe  Fe5  1  0.99090467  0.32632427  0.32730492  1
  Cr  Cr6  1  -0.00465813  0.66097802  0.99024845  1
  Cr  Cr7  1  0.15835216  0.82771537  0.16291231  1
  Cr  Cr8  1  0.99166539  0.66087232  0.32676976  1
  Cr  Cr9  1  0.32382141  0.99145497  0.98839256  1
  Cr  Cr10  1  0.49288219  0.15817648  0.15657167  1
  Cr  Cr11  1  0.32635033  -0.00589420  0.32993194  1
  Cr  Cr12  1  0.32460238  0.32768912  -0.00636569  1
  Cr  Cr13  1  0.49379202  0.49326539  0.16030441  1
  Cr  Cr14  1  0.32628627  0.32597010  0.32395303  1
  Cr  Cr15  1  0.32519910  0.65975499  0.99072167  1
  Cr  Cr16  1  0.49381133  0.82723360  0.15976837  1
  Cr  Cr17  1  0.32656044  0.65913819  0.32657500  1
  Fe  Fe18  1  0.65803534  0.99149804  0.99172949  1
  Cr  Cr19  1  0.82690847  0.15814061  0.15874389  1
  Cr  Cr20  1  0.66251358  -0.00605482  0.32624821  1
  Cr  Cr21  1  0.66035925  0.32595318  0.99239611  1
  Cr  Cr22  1  0.82730884  0.49345184  0.15979809  1
  Cr  Cr23  1  0.66091754  0.32503235  0.32942999  1
  Cr  Cr24  1  0.66068613  0.66194887  -0.00492881  1
  Fe  Fe25  1  0.82671358  0.82682148  0.16000443  1
  Cr  Cr26  1  0.66100594  0.65943086  0.32699298  1
  Cr  Cr27  1  0.15761475  0.16042697  0.49210007  1
  Cr  Cr28  1  -0.00567700  0.99222172  0.65953166  1
  Cr  Cr29  1  0.15865281  0.16028044  0.82545164  1
  Cr  Cr30  1  0.15699475  0.49283719  0.49323193  1
  Fe  Fe31  1  0.99281099  0.32722314  0.65957490  1
  Ni  Ni32  1  0.15780920  0.49591082  0.82378454  1
  Cr  Cr33  1  0.15991820  0.82689398  0.49476616  1
  Fe  Fe34  1  0.99290644  0.65877757  0.66050630  1
  Ni  Ni35  1  0.15964176  0.82467586  0.82219310  1
  Cr  Cr36  1  0.49312493  0.15996794  0.49675469  1
  Fe  Fe37  1  0.32716145  0.99294039  0.66207730  1
  Cr  Cr38  1  0.49478733  0.15898700  0.82627215  1
  Cr  Cr39  1  0.49418961  0.49251843  0.49226682  1
  Cr  Cr40  1  0.32713742  0.32740560  0.66192335  1
  Cr  Cr41  1  0.49494874  0.49347919  0.82712323  1
  Cr  Cr42  1  0.49282531  0.82707634  0.49492519  1
  Cr  Cr43  1  0.32514971  0.66086819  0.66196999  1
  Ni  Ni44  1  0.49126327  0.82696265  0.82524828  1
  Fe  Fe45  1  0.82726325  0.16079384  0.49483578  1
  Cr  Cr46  1  0.66123131  -0.00643517  0.66130286  1
  Cr  Cr47  1  0.82580825  0.16064835  0.82611851  1
  Fe  Fe48  1  0.82780349  0.49091406  0.49481410  1
  Ni  Ni49  1  0.66457345  0.32596735  0.65705209  1
  Cr  Cr50  1  0.82779781  0.49261426  0.82272226  1
  Cr  Cr51  1  0.82792411  0.82566867  0.49184652  1
  Cr  Cr52  1  0.66075821  0.65855323  0.65782388  1
  Cr  Cr53  1  0.82542411  0.82592599  0.82892777  1
" 