6428,Ni8Fe18Cr72_1,-209.389547051859, 195.28908405495,Ni8Fe18Cr72,"# generated using pymatgen
 data_Cr41Fe9Ni4
_symmetry_space_group_name_H-M   'P 1'
_cell_length_a   7.56629536
_cell_length_b   7.56629536
_cell_length_c   10.70035752
_cell_angle_alpha   90.00000000
_cell_angle_beta   90.00000000
_cell_angle_gamma   90.00000000
_symmetry_Int_Tables_number   1
_chemical_formula_structural   Cr41Fe9Ni4
_chemical_formula_sum   'Cr41 Fe9 Ni4'
_cell_volume   612.58290049
_cell_formula_units_Z   1
loop_
 _symmetry_equiv_pos_site_id
 _symmetry_equiv_pos_as_xyz
  1  'x, y, z'
loop_
 _atom_site_type_symbol
 _atom_site_label
 _atom_site_symmetry_multiplicity
 _atom_site_fract_x
 _atom_site_fract_y
 _atom_site_fract_z
 _atom_site_occupancy
  Cr  Cr0  1  -0.00548336  -0.00583964  -0.00459586  1
  Cr  Cr1  1  0.16306996  0.16163804  0.15960706  1
  Cr  Cr2  1  -0.00538613  -0.00577964  0.32322345  1
  Cr  Cr3  1  0.99310738  0.32781721  -0.00498540  1
  Cr  Cr4  1  0.16390068  0.49517328  0.16045424  1
  Cr  Cr5  1  0.99200330  0.32930538  0.32583090  1
  Cr  Cr6  1  0.99220152  0.65883075  0.99328019  1
  Cr  Cr7  1  0.16043855  0.82317782  0.16367624  1
  Ni  Ni8  1  0.99210667  0.65658956  0.32704517  1
  Cr  Cr9  1  0.32627617  0.99085009  0.99119843  1
  Cr  Cr10  1  0.49444596  0.16201645  0.16024266  1
  Cr  Cr11  1  0.32813648  0.99185886  0.33104349  1
  Fe  Fe12  1  0.32752979  0.32801865  -0.00516133  1
  Fe  Fe13  1  0.49240763  0.49475273  0.16094818  1
  Cr  Cr14  1  0.32810194  0.32756794  0.32895928  1
  Fe  Fe15  1  0.32662196  0.65950924  -0.00589216  1
  Cr  Cr16  1  0.49248912  0.82487365  0.16031925  1
  Fe  Fe17  1  0.32752681  0.65806823  0.32831456  1
  Cr  Cr18  1  0.65956380  0.99182815  0.99308798  1
  Fe  Fe19  1  0.82625899  0.16073263  0.16069325  1
  Cr  Cr20  1  0.65811216  0.99284683  0.32761620  1
  Cr  Cr21  1  0.66222094  0.32999504  -0.00220097  1
  Fe  Fe22  1  0.82786833  0.49565228  0.16199432  1
  Cr  Cr23  1  0.66087344  0.32966827  0.32665292  1
  Cr  Cr24  1  0.65831232  0.65917009  0.99324417  1
  Cr  Cr25  1  0.82653534  0.82614049  0.16178305  1
  Cr  Cr26  1  0.65937071  0.65802332  0.32720950  1
  Cr  Cr27  1  0.16042377  0.16085683  0.49389965  1
  Cr  Cr28  1  -0.00412383  0.99295138  0.66204060  1
  Cr  Cr29  1  0.16202944  0.16292519  0.82711519  1
  Cr  Cr30  1  0.15945811  0.49585569  0.49389319  1
  Cr  Cr31  1  0.99251011  0.32972803  0.65908801  1
  Cr  Cr32  1  0.16177659  0.49416328  0.82634600  1
  Cr  Cr33  1  0.15780649  0.82378380  0.48993682  1
  Ni  Ni34  1  0.99318518  0.65879330  0.65801083  1
  Cr  Cr35  1  0.15889043  0.82351499  0.82661719  1
  Fe  Fe36  1  0.49470749  0.16263691  0.49303028  1
  Cr  Cr37  1  0.32792511  0.99172230  0.65785575  1
  Cr  Cr38  1  0.49436259  0.16220735  0.82655408  1
  Ni  Ni39  1  0.49425871  0.49469711  0.49084145  1
  Cr  Cr40  1  0.32828089  0.32731104  0.65808087  1
  Cr  Cr41  1  0.49164337  0.49204341  0.83080370  1
  Fe  Fe42  1  0.49408364  0.82242585  0.49243523  1
  Cr  Cr43  1  0.32904708  0.66111464  0.65961577  1
  Fe  Fe44  1  0.49243289  0.82536877  0.82719580  1
  Cr  Cr45  1  0.82521034  0.15951579  0.49332419  1
  Cr  Cr46  1  0.65600635  0.99091731  0.65954345  1
  Cr  Cr47  1  0.82435001  0.15995012  0.82702082  1
  Ni  Ni48  1  0.82438062  0.49683613  0.49240043  1
  Cr  Cr49  1  0.65924536  0.32988662  0.65573725  1
  Cr  Cr50  1  0.82653388  0.49454916  0.82307444  1
  Cr  Cr51  1  0.82807319  0.82505257  0.49377226  1
  Cr  Cr52  1  0.65877678  0.65862281  0.65957114  1
  Cr  Cr53  1  0.82595359  0.82592257  0.82444551  1
" 