2295,Ni8Fe78Cr13_17,-224.785217829928, 158.4783164894,Ni8Fe78Cr13,"# generated using pymatgen
 data_Cr4Fe21Ni2
_symmetry_space_group_name_H-M   'P 1'
_cell_length_a   7.44457372
_cell_length_b   7.44457372
_cell_length_c   10.52821712
_cell_angle_alpha   90.00000000
_cell_angle_beta   90.00000000
_cell_angle_gamma   90.00000000
_symmetry_Int_Tables_number   1
_chemical_formula_structural   Cr4Fe21Ni2
_chemical_formula_sum   'Cr8 Fe42 Ni4'
_cell_volume   583.49145783
_cell_formula_units_Z   2
loop_
 _symmetry_equiv_pos_site_id
 _symmetry_equiv_pos_as_xyz
  1  'x, y, z'
loop_
 _atom_site_type_symbol
 _atom_site_label
 _atom_site_symmetry_multiplicity
 _atom_site_fract_x
 _atom_site_fract_y
 _atom_site_fract_z
 _atom_site_occupancy
  Cr  Cr0  1  0.00153837  0.00153614  1.00053016  1
  Fe  Fe1  1  0.16782983  0.16804011  0.16679268  1
  Fe  Fe2  1  0.00157423  0.00322251  0.33564439  1
  Fe  Fe3  1  0.00311714  0.33525786  0.00253460  1
  Fe  Fe4  1  0.16743518  0.50322580  0.16782303  1
  Ni  Ni5  1  1.00093520  0.33429313  0.33252835  1
  Fe  Fe6  1  0.00334394  0.66693749  0.00170946  1
  Fe  Fe7  1  0.16962990  0.83325345  0.16836488  1
  Fe  Fe8  1  0.00405918  0.66825316  0.33473753  1
  Fe  Fe9  1  0.33579864  0.00170497  0.00152545  1
  Fe  Fe10  1  0.50324986  0.16693652  0.16664598  1
  Cr  Cr11  1  0.33502682  1.00101790  0.33479027  1
  Fe  Fe12  1  0.33389289  0.33419269  1.00140464  1
  Fe  Fe13  1  0.50265329  0.50352409  0.16698858  1
  Cr  Cr14  1  0.33448889  0.33576211  0.33456902  1
  Fe  Fe15  1  0.33463567  0.66872337  0.00190894  1
  Ni  Ni16  1  0.50112293  0.83521870  0.16767631  1
  Fe  Fe17  1  0.33478109  0.66833815  0.33414986  1
  Fe  Fe18  1  0.66578270  0.00172225  1.00072469  1
  Fe  Fe19  1  0.83325655  0.16910690  0.16877225  1
  Fe  Fe20  1  0.66844776  0.00321431  0.33583558  1
  Fe  Fe21  1  0.66772626  0.33386122  0.00216166  1
  Fe  Fe22  1  0.83408103  0.50044748  0.16825842  1
  Fe  Fe23  1  0.66837868  0.33346763  0.33384134  1
  Fe  Fe24  1  0.66641852  0.66880379  0.00165832  1
  Cr  Cr25  1  0.83371454  0.83446785  0.16960289  1
  Fe  Fe26  1  0.66527210  0.66746529  0.33446622  1
  Fe  Fe27  1  0.16581306  0.16745610  0.50294264  1
  Fe  Fe28  1  0.00376438  1.00124840  0.66878017  1
  Ni  Ni29  1  0.16995889  0.16814591  0.83357488  1
  Cr  Cr30  1  0.16750077  0.50166102  0.50344100  1
  Fe  Fe31  1  0.00158987  0.33176020  0.66870270  1
  Fe  Fe32  1  0.17001801  0.50053528  0.83437812  1
  Ni  Ni33  1  0.16854632  0.83613728  0.50160033  1
  Fe  Fe34  1  0.00182354  0.67172654  0.66860154  1
  Fe  Fe35  1  0.16910311  0.83441076  0.83319834  1
  Fe  Fe36  1  0.50149689  0.16883654  0.50245877  1
  Fe  Fe37  1  0.33348745  1.00121067  0.66771725  1
  Fe  Fe38  1  0.50041678  0.16927111  0.83566331  1
  Fe  Fe39  1  0.50094209  0.50314314  0.50268169  1
  Fe  Fe40  1  0.33620478  0.33342695  0.66902956  1
  Fe  Fe41  1  0.49894201  0.50071635  0.83491400  1
  Fe  Fe42  1  0.50117158  0.83244684  0.50088549  1
  Fe  Fe43  1  0.33596461  0.67023544  0.66871881  1
  Fe  Fe44  1  0.50000398  0.83453409  0.83666706  1
  Fe  Fe45  1  0.83717969  0.16713801  0.50022916  1
  Cr  Cr46  1  0.66935277  1.00055349  0.66884291  1
  Fe  Fe47  1  0.83577498  0.16881455  0.83488098  1
  Cr  Cr48  1  0.83405414  0.50075035  0.50052567  1
  Fe  Fe49  1  0.66645023  0.33485815  0.66826424  1
  Cr  Cr50  1  0.83481590  0.50193531  0.83512559  1
  Fe  Fe51  1  0.83703430  0.83519594  0.50020991  1
  Fe  Fe52  1  0.66640788  0.66803588  0.66847111  1
  Fe  Fe53  1  0.83549914  0.83532922  0.83535761  1
" 