49,Ni8Fe18Cr72_14,-209.399527686943, 195.361913148385,Ni8Fe18Cr72,"# generated using pymatgen
 data_Cr41Fe9Ni4
_symmetry_space_group_name_H-M   'P 1'
_cell_length_a   7.56697001
_cell_length_b   7.56697001
_cell_length_c   10.70131161
_cell_angle_alpha   90.00000000
_cell_angle_beta   90.00000000
_cell_angle_gamma   90.00000000
_symmetry_Int_Tables_number   1
_chemical_formula_structural   Cr41Fe9Ni4
_chemical_formula_sum   'Cr41 Fe9 Ni4'
_cell_volume   612.74677755
_cell_formula_units_Z   1
loop_
 _symmetry_equiv_pos_site_id
 _symmetry_equiv_pos_as_xyz
  1  'x, y, z'
loop_
 _atom_site_type_symbol
 _atom_site_label
 _atom_site_symmetry_multiplicity
 _atom_site_fract_x
 _atom_site_fract_y
 _atom_site_fract_z
 _atom_site_occupancy
  Cr  Cr0  1  -0.00330751  -0.00657087  0.99269756  1
  Cr  Cr1  1  0.16316924  0.16349823  0.16185285  1
  Cr  Cr2  1  -0.00352209  0.99328675  0.32742034  1
  Cr  Cr3  1  0.99260711  0.32561374  -0.00497580  1
  Cr  Cr4  1  0.16220617  0.49243107  0.15894018  1
  Cr  Cr5  1  -0.00566916  0.32506766  0.32663390  1
  Cr  Cr6  1  0.99281862  0.66192691  -0.00618437  1
  Cr  Cr7  1  0.16265143  0.82416180  0.15771136  1
  Cr  Cr8  1  0.99256759  0.66127695  0.32527108  1
  Cr  Cr9  1  0.32644909  0.99223159  0.99202453  1
  Cr  Cr10  1  0.49398699  0.15803678  0.15929558  1
  Cr  Cr11  1  0.32496202  0.99305252  0.32781872  1
  Fe  Fe12  1  0.32800108  0.32667278  0.99232027  1
  Cr  Cr13  1  0.48915430  0.49191038  0.15932697  1
  Ni  Ni14  1  0.32872431  0.32602540  0.32813712  1
  Fe  Fe15  1  0.32821995  0.66022141  0.99247562  1
  Ni  Ni16  1  0.49348581  0.82810636  0.15918245  1
  Cr  Cr17  1  0.32942805  0.66121075  0.32483797  1
  Fe  Fe18  1  0.65836652  0.99238252  0.99234093  1
  Cr  Cr19  1  0.82327436  0.15858162  0.15927167  1
  Fe  Fe20  1  0.65771496  -0.00633904  0.32606388  1
  Cr  Cr21  1  0.65804316  0.32887253  0.98894810  1
  Cr  Cr22  1  0.82828570  0.49270765  0.16020906  1
  Cr  Cr23  1  0.65875159  0.33066849  0.32870046  1
  Cr  Cr24  1  0.65756814  0.65870546  -0.00483640  1
  Cr  Cr25  1  0.82281787  0.82953722  0.16110387  1
  Cr  Cr26  1  0.65824165  0.65967804  0.32586548  1
  Fe  Fe27  1  0.16105630  0.16054173  0.49264995  1
  Cr  Cr28  1  -0.00307563  -0.00648774  0.66080039  1
  Cr  Cr29  1  0.16223357  0.16387868  0.82673288  1
  Cr  Cr30  1  0.16322045  0.49280199  0.49231876  1
  Cr  Cr31  1  -0.00658168  0.32446178  0.65866013  1
  Cr  Cr32  1  0.16248453  0.49596565  0.82860203  1
  Cr  Cr33  1  0.16106273  0.82201611  0.49817214  1
  Fe  Fe34  1  -0.00333207  0.65933378  0.66104442  1
  Fe  Fe35  1  0.16150177  0.82599115  0.82573780  1
  Cr  Cr36  1  0.49261415  0.16017624  0.49210001  1
  Cr  Cr37  1  0.32525011  0.99287103  0.66036766  1
  Ni  Ni38  1  0.49067123  0.16076974  0.82894843  1
  Fe  Fe39  1  0.49100503  0.49446613  0.49338596  1
  Cr  Cr40  1  0.32932954  0.32657779  0.65939785  1
  Fe  Fe41  1  0.49136014  0.49341993  0.82703852  1
  Cr  Cr42  1  0.49327821  0.82723512  0.49233117  1
  Ni  Ni43  1  0.32735948  0.65890094  0.66323022  1
  Cr  Cr44  1  0.49278769  0.82734040  0.82725830  1
  Cr  Cr45  1  0.82421803  0.15859146  0.49285583  1
  Cr  Cr46  1  0.65775072  -0.00519932  0.66191124  1
  Cr  Cr47  1  0.82348050  0.15857679  0.82804982  1
  Cr  Cr48  1  0.82971735  0.49466647  0.49498175  1
  Cr  Cr49  1  0.65800477  0.32884119  0.66224344  1
  Cr  Cr50  1  0.83032110  0.49467672  0.82478153  1
  Cr  Cr51  1  0.82553043  0.82735297  0.49442762  1
  Cr  Cr52  1  0.65655591  0.65670908  0.65846620  1
  Cr  Cr53  1  0.82666169  0.82603250  0.82451556  1
" 