276,Ni8Fe66Cr24_8,-223.51016639783, 162.652039172183,Ni8Fe66Cr24,"# generated using pymatgen
 data_Cr7(Fe9Ni)2
_symmetry_space_group_name_H-M   'P 1'
_cell_length_a   7.47744850
_cell_length_b   7.47744850
_cell_length_c   10.57470908
_cell_angle_alpha   90.00000000
_cell_angle_beta   90.00000000
_cell_angle_gamma   90.00000000
_symmetry_Int_Tables_number   1
_chemical_formula_structural   Cr7(Fe9Ni)2
_chemical_formula_sum   'Cr14 Fe36 Ni4'
_cell_volume   591.25562975
_cell_formula_units_Z   2
loop_
 _symmetry_equiv_pos_site_id
 _symmetry_equiv_pos_as_xyz
  1  'x, y, z'
loop_
 _atom_site_type_symbol
 _atom_site_label
 _atom_site_symmetry_multiplicity
 _atom_site_fract_x
 _atom_site_fract_y
 _atom_site_fract_z
 _atom_site_occupancy
  Fe  Fe0  1  -0.00007000  0.99718572  0.99836315  1
  Cr  Cr1  1  0.16460642  0.16470498  0.16612223  1
  Cr  Cr2  1  0.99745343  0.99834919  0.33204760  1
  Fe  Fe3  1  0.99804930  0.33286395  -0.00063228  1
  Fe  Fe4  1  0.16190652  0.50040386  0.16548940  1
  Fe  Fe5  1  0.99602438  0.33430610  0.33170781  1
  Ni  Ni6  1  0.99858926  0.66639138  0.99924346  1
  Fe  Fe7  1  0.16326136  0.83046895  0.16431701  1
  Fe  Fe8  1  0.99604790  0.66566546  0.33093286  1
  Cr  Cr9  1  0.33366397  0.99898251  0.00043355  1
  Fe  Fe10  1  0.50259537  0.16547688  0.16727780  1
  Fe  Fe11  1  0.33523634  0.99845445  0.33301340  1
  Cr  Cr12  1  0.33323209  0.33416138  0.99696412  1
  Fe  Fe13  1  0.50260599  0.49888922  0.16604951  1
  Cr  Cr14  1  0.33214221  0.33225517  0.33268823  1
  Cr  Cr15  1  0.33208407  0.66487281  0.99827675  1
  Fe  Fe16  1  0.50186672  0.83372611  0.16651971  1
  Cr  Cr17  1  0.33136044  0.66660634  0.33056544  1
  Cr  Cr18  1  0.66958680  0.00004844  0.99776750  1
  Fe  Fe19  1  0.83015877  0.16703855  0.16669340  1
  Ni  Ni20  1  0.66599638  0.99899132  0.33342633  1
  Fe  Fe21  1  0.66713775  0.33419738  0.00008653  1
  Fe  Fe22  1  0.83338856  0.49968274  0.16485720  1
  Fe  Fe23  1  0.66777668  0.33181126  0.33087872  1
  Fe  Fe24  1  0.66626399  0.66599986  0.99903804  1
  Fe  Fe25  1  0.83246294  0.83129268  0.16577063  1
  Fe  Fe26  1  0.66834835  0.66785287  0.33219147  1
  Fe  Fe27  1  0.16752633  0.16423372  0.50062421  1
  Fe  Fe28  1  0.00009968  0.99756361  0.66663447  1
  Fe  Fe29  1  0.16472904  0.16450966  0.83134933  1
  Cr  Cr30  1  0.16281564  0.49964680  0.50024739  1
  Fe  Fe31  1  -0.00012132  0.33186773  0.66705906  1
  Fe  Fe32  1  0.16391053  0.50071576  0.83201867  1
  Fe  Fe33  1  0.16547112  0.83466403  0.50099820  1
  Fe  Fe34  1  -0.00068850  0.66856519  0.66763809  1
  Ni  Ni35  1  0.16488896  0.83437378  0.83340522  1
  Fe  Fe36  1  0.49857354  0.16333167  0.49970098  1
  Fe  Fe37  1  0.33282337  -0.00056978  0.66746196  1
  Fe  Fe38  1  0.49972120  0.16500207  0.83044393  1
  Cr  Cr39  1  0.50196466  0.49921230  0.50017581  1
  Fe  Fe40  1  0.33279101  0.32982833  0.66745560  1
  Fe  Fe41  1  0.49983166  0.49962653  0.83178261  1
  Fe  Fe42  1  0.49986814  0.83624724  0.49920980  1
  Cr  Cr43  1  0.33176454  0.66564831  0.66942094  1
  Ni  Ni44  1  0.49887707  0.83393374  0.83273492  1
  Cr  Cr45  1  0.83188473  0.16722487  0.49991027  1
  Fe  Fe46  1  0.66473502  -0.00022630  0.66667209  1
  Fe  Fe47  1  0.83386434  0.16349217  0.83095848  1
  Fe  Fe48  1  0.83321453  0.50052620  0.49900384  1
  Fe  Fe49  1  0.66504120  0.33063759  0.66729571  1
  Cr  Cr50  1  0.83234490  0.49829176  0.83233797  1
  Fe  Fe51  1  0.83239610  0.83134736  0.49855022  1
  Cr  Cr52  1  0.66745862  0.66888533  0.66623344  1
  Fe  Fe53  1  0.83488175  0.83318461  0.83303113  1
" 