8422,Ni8Fe78Cr13_4,-225.031060738928, 152.300372676001,Ni8Fe78Cr13,"# generated using pymatgen
 data_Cr4Fe21Ni2
_symmetry_space_group_name_H-M   'P 1'
_cell_length_a   7.45709696
_cell_length_b   7.45709696
_cell_length_c   10.54592765
_cell_angle_alpha   90.00000000
_cell_angle_beta   90.00000000
_cell_angle_gamma   90.00000000
_symmetry_Int_Tables_number   1
_chemical_formula_structural   Cr4Fe21Ni2
_chemical_formula_sum   'Cr8 Fe42 Ni4'
_cell_volume   586.44105659
_cell_formula_units_Z   2
loop_
 _symmetry_equiv_pos_site_id
 _symmetry_equiv_pos_as_xyz
  1  'x, y, z'
loop_
 _atom_site_type_symbol
 _atom_site_label
 _atom_site_symmetry_multiplicity
 _atom_site_fract_x
 _atom_site_fract_y
 _atom_site_fract_z
 _atom_site_occupancy
  Fe  Fe0  1  0.99992284  0.99835675  0.00174564  1
  Cr  Cr1  1  0.16673081  0.16722092  0.16656402  1
  Fe  Fe2  1  0.99992132  0.99874280  0.33442931  1
  Fe  Fe3  1  0.00190932  0.33565086  0.99999701  1
  Fe  Fe4  1  0.16768701  0.50188917  0.16674992  1
  Fe  Fe5  1  0.00141550  0.33462825  0.33619349  1
  Fe  Fe6  1  0.00096600  0.66825607  0.00146174  1
  Ni  Ni7  1  0.16580876  0.83431811  0.16780455  1
  Fe  Fe8  1  1.00020784  0.66847544  0.33461209  1
  Fe  Fe9  1  0.33468276  0.99907353  1.00038840  1
  Cr  Cr10  1  0.50142816  0.16842938  0.16825878  1
  Fe  Fe11  1  0.33256976  0.00082356  0.33452412  1
  Fe  Fe12  1  0.33471997  0.33648348  0.99965398  1
  Ni  Ni13  1  0.50151922  0.50014142  0.16724848  1
  Fe  Fe14  1  0.33379252  0.33465853  0.33564574  1
  Fe  Fe15  1  0.33469156  0.66657432  0.00286173  1
  Fe  Fe16  1  0.50180194  0.83282130  0.16656303  1
  Cr  Cr17  1  0.33377382  0.66574035  0.33099781  1
  Fe  Fe18  1  0.66735656  0.99820953  0.00135298  1
  Fe  Fe19  1  0.83407378  0.16520716  0.16700372  1
  Fe  Fe20  1  0.66955896  0.99980414  0.33379605  1
  Fe  Fe21  1  0.66537518  0.33589433  1.00048279  1
  Cr  Cr22  1  0.83353738  0.50002982  0.16767032  1
  Fe  Fe23  1  0.66661947  0.33492844  0.33552613  1
  Fe  Fe24  1  0.66625865  0.66811779  0.00084368  1
  Ni  Ni25  1  0.83500879  0.83411964  0.16704241  1
  Fe  Fe26  1  0.66863105  0.66771637  0.33335623  1
  Fe  Fe27  1  0.16876637  0.16860955  0.49938834  1
  Cr  Cr28  1  0.99995596  0.00122519  0.66577358  1
  Fe  Fe29  1  0.16939829  0.16944843  0.83508927  1
  Ni  Ni30  1  0.16587140  0.49993248  0.50132657  1
  Fe  Fe31  1  0.00127584  0.33612337  0.66652411  1
  Fe  Fe32  1  0.16687481  0.49874366  0.83300055  1
  Fe  Fe33  1  0.16640608  0.83217566  0.49975652  1
  Fe  Fe34  1  0.99998344  0.66460052  0.66609680  1
  Cr  Cr35  1  0.16833339  0.83300143  0.83280802  1
  Fe  Fe36  1  0.49990435  0.16996271  0.50029876  1
  Fe  Fe37  1  0.33551216  0.00296781  0.66744536  1
  Fe  Fe38  1  0.49849246  0.16695497  0.83428279  1
  Fe  Fe39  1  0.50018277  0.49898773  0.50046138  1
  Fe  Fe40  1  0.33334684  0.33413076  0.66689492  1
  Fe  Fe41  1  0.50072310  0.50090179  0.83481418  1
  Cr  Cr42  1  0.50059147  0.83486208  0.50113366  1
  Fe  Fe43  1  0.33336531  0.66488660  0.66636044  1
  Fe  Fe44  1  0.50273210  0.83416982  0.83330609  1
  Fe  Fe45  1  0.83325578  0.16899923  0.49985290  1
  Fe  Fe46  1  0.66639580  0.00140159  0.66779177  1
  Cr  Cr47  1  0.83345085  0.16879027  0.83686463  1
  Fe  Fe48  1  0.83409755  0.50110413  0.50038997  1
  Fe  Fe49  1  0.66691081  0.33436990  0.66680014  1
  Fe  Fe50  1  0.83441084  0.50303315  0.83430912  1
  Fe  Fe51  1  0.83522577  0.83185360  0.49887762  1
  Fe  Fe52  1  0.66858529  0.66665442  0.66822505  1
  Fe  Fe53  1  0.83201068  0.83182610  0.83538173  1
" 