133,Ni8Fe20Cr71_4,-209.981496232208, 189.453890443888,Ni8Fe20Cr71,"# generated using pymatgen
 data_Cr20Fe5Ni2
_symmetry_space_group_name_H-M   'P 1'
_cell_length_a   7.56783659
_cell_length_b   7.56783659
_cell_length_c   10.70253714
_cell_angle_alpha   90.00000000
_cell_angle_beta   90.00000000
_cell_angle_gamma   90.00000000
_symmetry_Int_Tables_number   1
_chemical_formula_structural   Cr20Fe5Ni2
_chemical_formula_sum   'Cr40 Fe10 Ni4'
_cell_volume   612.95731846
_cell_formula_units_Z   2
loop_
 _symmetry_equiv_pos_site_id
 _symmetry_equiv_pos_as_xyz
  1  'x, y, z'
loop_
 _atom_site_type_symbol
 _atom_site_label
 _atom_site_symmetry_multiplicity
 _atom_site_fract_x
 _atom_site_fract_y
 _atom_site_fract_z
 _atom_site_occupancy
  Fe  Fe0  1  -0.00437818  -0.00637786  -0.00651885  1
  Ni  Ni1  1  0.16225196  0.15897678  0.15993904  1
  Cr  Cr2  1  0.99300180  0.99322825  0.32606255  1
  Cr  Cr3  1  0.99169046  0.32543099  0.99228866  1
  Cr  Cr4  1  0.15940952  0.49205202  0.16076933  1
  Cr  Cr5  1  -0.00656536  0.32627707  0.32738326  1
  Cr  Cr6  1  -0.00418288  0.66177889  0.99239499  1
  Fe  Fe7  1  0.15887255  0.82855564  0.15933660  1
  Cr  Cr8  1  0.99332515  0.66079432  0.32727546  1
  Cr  Cr9  1  0.32602846  0.99204594  -0.00424538  1
  Fe  Fe10  1  0.49329072  0.16046549  0.15943399  1
  Cr  Cr11  1  0.32763882  0.99319092  0.32415745  1
  Cr  Cr12  1  0.32819301  0.32674845  -0.00425748  1
  Fe  Fe13  1  0.49310651  0.49265122  0.15948832  1
  Cr  Cr14  1  0.32787052  0.32698097  0.32577572  1
  Cr  Cr15  1  0.32479753  0.66144307  -0.00647735  1
  Cr  Cr16  1  0.49478563  0.82666755  0.16121496  1
  Cr  Cr17  1  0.32845662  0.65986706  0.32518053  1
  Cr  Cr18  1  0.66068023  -0.00308589  0.99153175  1
  Cr  Cr19  1  0.82766673  0.15972600  0.15765538  1
  Cr  Cr20  1  0.65934094  0.99288907  0.33051809  1
  Fe  Fe21  1  0.65918370  0.32691378  -0.00587469  1
  Cr  Cr22  1  0.82465182  0.49488466  0.16015689  1
  Cr  Cr23  1  0.65872683  0.32717703  0.32330314  1
  Cr  Cr24  1  0.65852134  0.65890537  -0.00594630  1
  Cr  Cr25  1  0.82603793  0.82632016  0.16140091  1
  Fe  Fe26  1  0.65892594  0.66033606  0.32859368  1
  Cr  Cr27  1  0.16203978  0.16124399  0.49393267  1
  Cr  Cr28  1  0.99200084  0.99229584  0.66125285  1
  Cr  Cr29  1  0.16108844  0.15959830  0.82407748  1
  Cr  Cr30  1  0.16246541  0.49164291  0.49585820  1
  Cr  Cr31  1  0.99235817  0.32670285  0.65940871  1
  Cr  Cr32  1  0.16081088  0.49347539  0.82376387  1
  Cr  Cr33  1  0.15909034  0.82725856  0.49229004  1
  Cr  Cr34  1  0.99247670  0.66118289  0.66114347  1
  Ni  Ni35  1  0.15891193  0.82956535  0.82955096  1
  Cr  Cr36  1  0.49124147  0.16022963  0.49434216  1
  Cr  Cr37  1  0.32764251  0.99131152  0.65976116  1
  Cr  Cr38  1  0.49336463  0.16034633  0.82741558  1
  Fe  Fe39  1  0.49506918  0.49480684  0.49402725  1
  Fe  Fe40  1  0.32922709  0.32748574  0.65971598  1
  Cr  Cr41  1  0.49415531  0.49335694  0.82664297  1
  Fe  Fe42  1  0.49436945  0.82367930  0.49343475  1
  Cr  Cr43  1  0.32751145  0.66067688  0.66161099  1
  Cr  Cr44  1  0.49365898  0.82637864  0.82452468  1
  Cr  Cr45  1  0.82698480  0.15827164  0.49375545  1
  Cr  Cr46  1  0.66046540  0.99184631  0.65838855  1
  Fe  Fe47  1  0.82768725  0.15918792  0.82747124  1
  Cr  Cr48  1  0.82554826  0.49603750  0.49159034  1
  Cr  Cr49  1  0.66064408  0.32666323  0.66251133  1
  Cr  Cr50  1  0.82517216  0.49398290  0.82790449  1
  Ni  Ni51  1  0.82107811  0.82289957  0.49300421  1
  Ni  Ni52  1  0.65818247  0.65905876  0.65559603  1
  Cr  Cr53  1  0.82583874  0.82638337  0.82689606  1
" 