3273,Ni8Fe78Cr12_16,-224.786270104683, 152.209565196789,Ni8Fe78Cr12,"# generated using pymatgen
 data_Cr4Fe21Ni2
_symmetry_space_group_name_H-M   'P 1'
_cell_length_a   7.45137298
_cell_length_b   7.45137298
_cell_length_c   10.53783272
_cell_angle_alpha   90.00000000
_cell_angle_beta   90.00000000
_cell_angle_gamma   90.00000000
_symmetry_Int_Tables_number   1
_chemical_formula_structural   Cr4Fe21Ni2
_chemical_formula_sum   'Cr8 Fe42 Ni4'
_cell_volume   585.09165680
_cell_formula_units_Z   2
loop_
 _symmetry_equiv_pos_site_id
 _symmetry_equiv_pos_as_xyz
  1  'x, y, z'
loop_
 _atom_site_type_symbol
 _atom_site_label
 _atom_site_symmetry_multiplicity
 _atom_site_fract_x
 _atom_site_fract_y
 _atom_site_fract_z
 _atom_site_occupancy
  Cr  Cr0  1  0.00126629  0.99983024  1.00095586  1
  Fe  Fe1  1  0.16880453  0.16531568  0.17006365  1
  Ni  Ni2  1  0.00209589  0.00182026  0.33422378  1
  Cr  Cr3  1  0.00181295  0.33387129  0.99953648  1
  Cr  Cr4  1  0.16771731  0.50286568  0.16872312  1
  Fe  Fe5  1  0.99971188  0.33206955  0.33452826  1
  Fe  Fe6  1  1.00065320  0.66873355  1.00005272  1
  Ni  Ni7  1  0.16809039  0.83434036  0.16903373  1
  Fe  Fe8  1  0.00131204  0.67017336  0.33453829  1
  Fe  Fe9  1  0.33529648  1.00094811  0.00128257  1
  Fe  Fe10  1  0.50036007  0.16742183  0.16758288  1
  Fe  Fe11  1  0.33319340  1.00085898  0.33442788  1
  Fe  Fe12  1  0.33637353  0.33346651  1.00007485  1
  Fe  Fe13  1  0.50118198  0.50088299  0.16701366  1
  Fe  Fe14  1  0.33515928  0.33228125  0.33495909  1
  Fe  Fe15  1  0.33442270  0.66874265  1.00072946  1
  Fe  Fe16  1  0.49947244  0.83484909  0.16693396  1
  Fe  Fe17  1  0.33361265  0.67001617  0.33396451  1
  Fe  Fe18  1  0.66647135  0.00129486  1.00072795  1
  Fe  Fe19  1  0.83399209  0.16702239  0.16944487  1
  Fe  Fe20  1  0.66843969  0.00246335  0.33459660  1
  Fe  Fe21  1  0.66647771  0.33419890  0.00105231  1
  Fe  Fe22  1  0.83350724  0.50162087  0.16766997  1
  Fe  Fe23  1  0.66828376  0.33248763  0.33435051  1
  Fe  Fe24  1  0.66807994  0.66766190  0.00126044  1
  Fe  Fe25  1  0.83561730  0.83451004  0.16804173  1
  Cr  Cr26  1  0.66689226  0.66714847  0.33489441  1
  Ni  Ni27  1  0.16756211  0.16628581  0.49927083  1
  Cr  Cr28  1  0.00263925  0.00109025  0.66794830  1
  Fe  Fe29  1  0.16920530  0.16778845  0.83379406  1
  Cr  Cr30  1  0.16600244  0.50197918  0.50026254  1
  Fe  Fe31  1  0.99904736  0.33525448  0.66838519  1
  Fe  Fe32  1  0.16734887  0.50281264  0.83404469  1
  Fe  Fe33  1  0.16777944  0.83573825  0.49977425  1
  Ni  Ni34  1  0.99992657  0.66730395  0.66881459  1
  Fe  Fe35  1  0.16880784  0.83255229  0.83465141  1
  Fe  Fe36  1  0.50020541  0.16796386  0.49969102  1
  Fe  Fe37  1  0.33350789  0.99940013  0.66744486  1
  Fe  Fe38  1  0.50110972  0.16769419  0.83588141  1
  Fe  Fe39  1  0.50190950  0.50043111  0.50099355  1
  Cr  Cr40  1  0.33493586  0.33380721  0.66895944  1
  Fe  Fe41  1  0.50174018  0.50168268  0.83515166  1
  Fe  Fe42  1  0.49889510  0.83475689  0.50114822  1
  Fe  Fe43  1  0.33450662  0.67026413  0.66846317  1
  Fe  Fe44  1  0.50037529  0.83377820  0.83507221  1
  Fe  Fe45  1  0.83551262  0.16903232  0.49923684  1
  Cr  Cr46  1  0.66728407  1.00047878  0.66683948  1
  Fe  Fe47  1  0.83284199  0.16915372  0.83446929  1
  Fe  Fe48  1  0.83452573  0.50009112  0.50219067  1
  Fe  Fe49  1  0.66993003  0.33625839  0.66775253  1
  Fe  Fe50  1  0.83406752  0.50207666  0.83329407  1
  Fe  Fe51  1  0.83647987  0.83403007  0.50038795  1
  Fe  Fe52  1  0.66838027  0.66627338  0.66748460  1
  Fe  Fe53  1  0.83397170  0.83192283  0.83472651  1
" 