26,Ni8Fe18Cr72_9,-209.421048559867, 193.138477564998,Ni8Fe18Cr72,"# generated using pymatgen
 data_Cr41Fe9Ni4
_symmetry_space_group_name_H-M   'P 1'
_cell_length_a   7.57234948
_cell_length_b   7.57234948
_cell_length_c   10.70891933
_cell_angle_alpha   90.00000000
_cell_angle_beta   90.00000000
_cell_angle_gamma   90.00000000
_symmetry_Int_Tables_number   1
_chemical_formula_structural   Cr41Fe9Ni4
_chemical_formula_sum   'Cr41 Fe9 Ni4'
_cell_volume   614.05453911
_cell_formula_units_Z   1
loop_
 _symmetry_equiv_pos_site_id
 _symmetry_equiv_pos_as_xyz
  1  'x, y, z'
loop_
 _atom_site_type_symbol
 _atom_site_label
 _atom_site_symmetry_multiplicity
 _atom_site_fract_x
 _atom_site_fract_y
 _atom_site_fract_z
 _atom_site_occupancy
  Ni  Ni0  1  -0.00593812  -0.00480624  -0.00554597  1
  Fe  Fe1  1  0.15775166  0.15890250  0.15891604  1
  Fe  Fe2  1  -0.00569118  -0.00526594  0.32467469  1
  Fe  Fe3  1  -0.00616932  0.32479332  -0.00628965  1
  Cr  Cr4  1  0.15857317  0.49185017  0.15852339  1
  Fe  Fe5  1  0.99288168  0.32493516  0.32544453  1
  Cr  Cr6  1  -0.00689096  0.66064857  0.99153884  1
  Cr  Cr7  1  0.15931506  0.82809797  0.15897541  1
  Cr  Cr8  1  0.99087779  0.65811291  0.32636640  1
  Cr  Cr9  1  0.32647276  -0.00674168  -0.00575772  1
  Cr  Cr10  1  0.49539157  0.16005951  0.15867301  1
  Cr  Cr11  1  0.32666238  -0.00490252  0.32347895  1
  Cr  Cr12  1  0.32576910  0.32532818  -0.00473419  1
  Cr  Cr13  1  0.49399940  0.49420509  0.16039969  1
  Cr  Cr14  1  0.32485257  0.32500758  0.32528866  1
  Cr  Cr15  1  0.32621519  0.66062672  0.99201328  1
  Ni  Ni16  1  0.49326128  0.82701943  0.16063234  1
  Cr  Cr17  1  0.32481883  0.65930858  0.32501005  1
  Cr  Cr18  1  0.65883676  0.99150173  0.99041460  1
  Cr  Cr19  1  0.82836073  0.15936449  0.15782118  1
  Cr  Cr20  1  0.65962285  -0.00679147  0.32739677  1
  Fe  Fe21  1  0.66041728  0.32568038  -0.00670877  1
  Cr  Cr22  1  0.82549990  0.49079696  0.15920380  1
  Fe  Fe23  1  0.66039782  0.32613179  0.32599791  1
  Cr  Cr24  1  0.66001388  0.66098828  -0.00520575  1
  Cr  Cr25  1  0.82656062  0.82802556  0.16142096  1
  Fe  Fe26  1  0.65795445  0.66006416  0.32473535  1
  Cr  Cr27  1  0.15771150  0.15904038  0.49101320  1
  Cr  Cr28  1  0.99303789  0.99157007  0.65946586  1
  Cr  Cr29  1  0.15746155  0.15853252  0.82854408  1
  Cr  Cr30  1  0.15998758  0.49361092  0.49607913  1
  Fe  Fe31  1  0.99244824  0.32523118  0.65989955  1
  Cr  Cr32  1  0.16023556  0.49362011  0.82445815  1
  Cr  Cr33  1  0.16053761  0.82647797  0.49387416  1
  Cr  Cr34  1  -0.00681919  0.65876837  0.66130199  1
  Ni  Ni35  1  0.16167478  0.82769808  0.82680405  1
  Cr  Cr36  1  0.49370105  0.16006299  0.49370049  1
  Cr  Cr37  1  0.32658204  -0.00580898  0.66150691  1
  Cr  Cr38  1  0.49381587  0.16019485  0.82677216  1
  Cr  Cr39  1  0.49286019  0.49428334  0.49186065  1
  Cr  Cr40  1  0.32517350  0.32602626  0.65846637  1
  Cr  Cr41  1  0.49299362  0.49383982  0.82681590  1
  Cr  Cr42  1  0.49170795  0.82521940  0.49320068  1
  Fe  Fe43  1  0.32740035  0.66229193  0.66211302  1
  Ni  Ni44  1  0.48930139  0.82519242  0.82589807  1
  Cr  Cr45  1  0.82749342  0.15981517  0.49305147  1
  Cr  Cr46  1  0.65933499  0.99219428  0.66130932  1
  Cr  Cr47  1  0.82763013  0.16020954  0.82816278  1
  Cr  Cr48  1  0.82594978  0.49157433  0.49102782  1
  Cr  Cr49  1  0.66029923  0.32616385  0.65980428  1
  Cr  Cr50  1  0.82656256  0.48973005  0.82912633  1
  Cr  Cr51  1  0.82698230  0.82716833  0.48958766  1
  Cr  Cr52  1  0.66225599  0.66073268  0.65999893  1
  Cr  Cr53  1  0.82839818  0.82815418  0.82800842  1
" 