7077,Ni8Fe77Cr13_19,-224.531346068292, 160.007921000872,Ni8Fe77Cr13,"# generated using pymatgen
 data_Cr9Fe41Ni4
_symmetry_space_group_name_H-M   'P 1'
_cell_length_a   7.45226102
_cell_length_b   7.45226102
_cell_length_c   10.53908860
_cell_angle_alpha   90.00000000
_cell_angle_beta   90.00000000
_cell_angle_gamma   90.00000000
_symmetry_Int_Tables_number   1
_chemical_formula_structural   Cr9Fe41Ni4
_chemical_formula_sum   'Cr9 Fe41 Ni4'
_cell_volume   585.30087220
_cell_formula_units_Z   1
loop_
 _symmetry_equiv_pos_site_id
 _symmetry_equiv_pos_as_xyz
  1  'x, y, z'
loop_
 _atom_site_type_symbol
 _atom_site_label
 _atom_site_symmetry_multiplicity
 _atom_site_fract_x
 _atom_site_fract_y
 _atom_site_fract_z
 _atom_site_occupancy
  Ni  Ni0  1  0.00179020  0.00179899  1.00086161  1
  Fe  Fe1  1  0.16531338  0.16809112  0.16668061  1
  Fe  Fe2  1  0.99939311  0.00121375  0.33418979  1
  Fe  Fe3  1  1.00072527  0.33452895  1.00083894  1
  Fe  Fe4  1  0.16689393  0.50037253  0.16672044  1
  Fe  Fe5  1  0.00179712  0.33325422  0.33424222  1
  Ni  Ni6  1  0.00240211  0.66753158  1.00020643  1
  Fe  Fe7  1  0.16575788  0.83451279  0.16496242  1
  Fe  Fe8  1  1.00050815  0.66850737  0.33306214  1
  Fe  Fe9  1  0.33227540  0.99913978  1.00012407  1
  Cr  Cr10  1  0.50181066  0.16848493  0.16619374  1
  Cr  Cr11  1  0.33362702  0.00180991  0.33539520  1
  Fe  Fe12  1  0.33200120  0.33453105  0.00107558  1
  Fe  Fe13  1  0.50099265  0.50093203  0.16754888  1
  Fe  Fe14  1  0.33359106  0.33512128  0.33502414  1
  Fe  Fe15  1  0.33064269  0.66930363  0.00159790  1
  Fe  Fe16  1  0.50176504  0.83359430  0.16709513  1
  Cr  Cr17  1  0.33578116  0.66620608  0.33350050  1
  Fe  Fe18  1  0.66958383  0.00117680  1.00010167  1
  Fe  Fe19  1  0.83601640  0.16731408  0.16796297  1
  Fe  Fe20  1  0.66988784  1.00035678  0.33565543  1
  Fe  Fe21  1  0.67025098  0.33289427  1.00092759  1
  Fe  Fe22  1  0.83509150  0.50048954  0.16824286  1
  Fe  Fe23  1  0.66758681  0.33401160  0.33469503  1
  Cr  Cr24  1  0.66790204  0.66886797  0.00227282  1
  Fe  Fe25  1  0.83545798  0.83517414  0.16775493  1
  Fe  Fe26  1  0.66802721  0.66860779  0.33360505  1
  Fe  Fe27  1  0.16682225  0.16790743  0.50091966  1
  Fe  Fe28  1  0.00221792  0.99940847  0.66813088  1
  Fe  Fe29  1  0.16838046  0.16610608  0.83538240  1
  Fe  Fe30  1  0.16856924  0.50039134  0.50095884  1
  Cr  Cr31  1  0.00193312  0.33347438  0.66985721  1
  Fe  Fe32  1  0.16663760  0.50277370  0.83529870  1
  Fe  Fe33  1  0.16543144  0.83467561  0.50305241  1
  Fe  Fe34  1  0.00334279  0.67026858  0.66930260  1
  Ni  Ni35  1  0.16665997  0.83441169  0.83418430  1
  Fe  Fe36  1  0.50186559  0.16934484  0.50082917  1
  Fe  Fe37  1  0.33263033  1.00057550  0.66778947  1
  Fe  Fe38  1  0.49969491  0.16644325  0.83523184  1
  Fe  Fe39  1  0.50010884  0.49894305  0.50119033  1
  Fe  Fe40  1  0.33550645  0.33368127  0.66687174  1
  Cr  Cr41  1  0.50059916  0.49857077  0.83376702  1
  Fe  Fe42  1  0.50181352  0.83468804  0.50092406  1
  Fe  Fe43  1  0.33189519  0.66871644  0.66699218  1
  Fe  Fe44  1  0.49815713  0.83650071  0.83495958  1
  Ni  Ni45  1  0.83360042  0.16610838  0.49854384  1
  Cr  Cr46  1  0.66755155  0.00153513  0.66814617  1
  Fe  Fe47  1  0.83490180  0.16697682  0.83547511  1
  Cr  Cr48  1  0.83352364  0.50088346  0.50016716  1
  Fe  Fe49  1  0.66657125  0.33255796  0.66734446  1
  Fe  Fe50  1  0.83730860  0.50123775  0.83515989  1
  Fe  Fe51  1  0.83573210  0.83643106  0.49947386  1
  Cr  Cr52  1  0.66759247  0.66836894  0.66733561  1
  Fe  Fe53  1  0.83765236  0.83476482  0.83574613  1
" 