2845,Ni8Fe18Cr72_12,-209.224874892107, 188.770019433337,Ni8Fe18Cr72,"# generated using pymatgen
 data_Cr41Fe9Ni4
_symmetry_space_group_name_H-M   'P 1'
_cell_length_a   7.56859042
_cell_length_b   7.56859042
_cell_length_c   10.70360321
_cell_angle_alpha   90.00000000
_cell_angle_beta   90.00000000
_cell_angle_gamma   90.00000000
_symmetry_Int_Tables_number   1
_chemical_formula_structural   Cr41Fe9Ni4
_chemical_formula_sum   'Cr41 Fe9 Ni4'
_cell_volume   613.14050651
_cell_formula_units_Z   1
loop_
 _symmetry_equiv_pos_site_id
 _symmetry_equiv_pos_as_xyz
  1  'x, y, z'
loop_
 _atom_site_type_symbol
 _atom_site_label
 _atom_site_symmetry_multiplicity
 _atom_site_fract_x
 _atom_site_fract_y
 _atom_site_fract_z
 _atom_site_occupancy
  Cr  Cr0  1  0.99231803  0.99237967  -0.00649396  1
  Cr  Cr1  1  0.16175012  0.15957746  0.16114965  1
  Cr  Cr2  1  -0.00582288  0.99287218  0.32680384  1
  Cr  Cr3  1  -0.00549518  0.32680142  0.99270977  1
  Cr  Cr4  1  0.15990057  0.49306714  0.15990412  1
  Fe  Fe5  1  0.99321336  0.32667393  0.32664250  1
  Cr  Cr6  1  -0.00482675  0.66069638  -0.00609747  1
  Fe  Fe7  1  0.16022548  0.82694643  0.16032500  1
  Cr  Cr8  1  -0.00611772  0.66067349  0.32563368  1
  Cr  Cr9  1  0.32749268  -0.00655093  -0.00548734  1
  Fe  Fe10  1  0.49253132  0.16012169  0.15913500  1
  Fe  Fe11  1  0.32750159  0.99237403  0.32674625  1
  Ni  Ni12  1  0.32804202  0.32732345  0.99183560  1
  Cr  Cr13  1  0.49287191  0.49222782  0.15946850  1
  Cr  Cr14  1  0.32704907  0.32575455  0.32638449  1
  Cr  Cr15  1  0.32617875  0.65809060  0.99207576  1
  Cr  Cr16  1  0.49239366  0.82854353  0.15972266  1
  Cr  Cr17  1  0.32642172  0.66190323  0.32596594  1
  Fe  Fe18  1  0.65885055  -0.00631628  -0.00668734  1
  Cr  Cr19  1  0.82578702  0.16005598  0.15893118  1
  Cr  Cr20  1  0.65899254  -0.00650411  0.32721656  1
  Cr  Cr21  1  0.65745035  0.32547899  -0.00614314  1
  Cr  Cr22  1  0.82710388  0.49312876  0.16143936  1
  Cr  Cr23  1  0.66022186  0.32604448  0.32592727  1
  Cr  Cr24  1  0.65852309  0.66027070  0.99217771  1
  Cr  Cr25  1  0.82662803  0.82668897  0.15845857  1
  Cr  Cr26  1  0.65956998  0.66033899  0.32888595  1
  Cr  Cr27  1  0.16024557  0.15963410  0.49267401  1
  Cr  Cr28  1  0.99229690  0.99232931  0.65955881  1
  Cr  Cr29  1  0.16094848  0.16184972  0.82605258  1
  Cr  Cr30  1  0.15840600  0.49280382  0.49340207  1
  Cr  Cr31  1  -0.00613204  0.32730466  0.66022250  1
  Ni  Ni32  1  0.16259641  0.49347614  0.82691339  1
  Cr  Cr33  1  0.16103395  0.82743786  0.49218150  1
  Fe  Fe34  1  0.99308038  0.65950646  0.66042312  1
  Cr  Cr35  1  0.16005346  0.82519049  0.82701954  1
  Cr  Cr36  1  0.49201282  0.15752876  0.49156737  1
  Cr  Cr37  1  0.32729312  0.99173426  0.65823775  1
  Cr  Cr38  1  0.49270067  0.16033232  0.82902572  1
  Cr  Cr39  1  0.49456670  0.49562375  0.49370110  1
  Cr  Cr40  1  0.32664396  0.32882221  0.66258637  1
  Ni  Ni41  1  0.49111891  0.49425611  0.82689270  1
  Ni  Ni42  1  0.49458232  0.82688021  0.49378711  1
  Cr  Cr43  1  0.32799549  0.65931643  0.66183425  1
  Fe  Fe44  1  0.49359872  0.82459711  0.82620889  1
  Cr  Cr45  1  0.82761789  0.16015975  0.49310071  1
  Cr  Cr46  1  0.66028408  0.99097919  0.65944682  1
  Cr  Cr47  1  0.82622310  0.15866899  0.82784388  1
  Cr  Cr48  1  0.82690268  0.49484177  0.49292911  1
  Cr  Cr49  1  0.65936229  0.32800895  0.66009255  1
  Cr  Cr50  1  0.82653215  0.49493426  0.82551277  1
  Fe  Fe51  1  0.82500833  0.82592320  0.49399264  1
  Fe  Fe52  1  0.65901810  0.66068685  0.65994205  1
  Cr  Cr53  1  0.82501327  0.82626952  0.82597930  1
" 