283,Ni8Fe78Cr13_13,-224.87032440817, 155.664250886721,Ni8Fe78Cr13,"# generated using pymatgen
 data_Cr4Fe21Ni2
_symmetry_space_group_name_H-M   'P 1'
_cell_length_a   7.44839298
_cell_length_b   7.44839298
_cell_length_c   10.53361837
_cell_angle_alpha   90.00000000
_cell_angle_beta   90.00000000
_cell_angle_gamma   90.00000000
_symmetry_Int_Tables_number   1
_chemical_formula_structural   Cr4Fe21Ni2
_chemical_formula_sum   'Cr8 Fe42 Ni4'
_cell_volume   584.38995831
_cell_formula_units_Z   2
loop_
 _symmetry_equiv_pos_site_id
 _symmetry_equiv_pos_as_xyz
  1  'x, y, z'
loop_
 _atom_site_type_symbol
 _atom_site_label
 _atom_site_symmetry_multiplicity
 _atom_site_fract_x
 _atom_site_fract_y
 _atom_site_fract_z
 _atom_site_occupancy
  Cr  Cr0  1  0.99976488  0.00247336  0.00228351  1
  Fe  Fe1  1  0.16636262  0.16839538  0.16977176  1
  Fe  Fe2  1  1.00066818  0.00263124  0.33430268  1
  Fe  Fe3  1  0.99947431  0.33574944  0.00145921  1
  Fe  Fe4  1  0.16550229  0.50153024  0.16891109  1
  Ni  Ni5  1  1.00061410  0.33368887  0.33334001  1
  Fe  Fe6  1  1.00079011  0.66549852  0.00199208  1
  Fe  Fe7  1  0.16915415  0.83383125  0.16828593  1
  Fe  Fe8  1  1.00069343  0.66658458  0.33449978  1
  Fe  Fe9  1  0.33534712  1.00041769  0.00207993  1
  Cr  Cr10  1  0.50292915  0.16589267  0.16827905  1
  Fe  Fe11  1  0.33341766  1.00057684  0.33488629  1
  Cr  Cr12  1  0.33325476  0.33511617  0.99835123  1
  Cr  Cr13  1  0.50246650  0.50242947  0.17006313  1
  Fe  Fe14  1  0.33225198  0.33535382  0.33509875  1
  Fe  Fe15  1  0.33363652  0.66888478  0.00182924  1
  Fe  Fe16  1  0.50114744  0.83462523  0.16817948  1
  Fe  Fe17  1  0.33421092  0.66782356  0.33587626  1
  Fe  Fe18  1  0.66804088  0.00173209  1.00085099  1
  Fe  Fe19  1  0.83511645  0.16959577  0.16876685  1
  Fe  Fe20  1  0.66967291  1.00066579  0.33488698  1
  Fe  Fe21  1  0.67142109  0.33403067  0.99990165  1
  Fe  Fe22  1  0.83591401  0.50039108  0.16861120  1
  Ni  Ni23  1  0.67094093  0.33544597  0.33515975  1
  Fe  Fe24  1  0.66933260  0.66799913  1.00123659  1
  Fe  Fe25  1  0.83345341  0.83377023  0.16850027  1
  Fe  Fe26  1  0.66885358  0.66776153  0.33570514  1
  Fe  Fe27  1  0.16677143  0.16759856  0.50092924  1
  Fe  Fe28  1  1.00036287  0.00213895  0.66784280  1
  Fe  Fe29  1  0.16750661  0.16920811  0.83304714  1
  Fe  Fe30  1  0.16764350  0.50059294  0.50020968  1
  Fe  Fe31  1  1.00123930  0.33441535  0.66778292  1
  Fe  Fe32  1  0.16603048  0.49937250  0.83462123  1
  Fe  Fe33  1  0.16814251  0.83556299  0.50079925  1
  Fe  Fe34  1  0.99904275  0.66720568  0.66726397  1
  Cr  Cr35  1  0.16703213  0.83386168  0.83445123  1
  Cr  Cr36  1  0.50160783  0.16796075  0.50143009  1
  Fe  Fe37  1  0.33416022  0.00314834  0.66679680  1
  Fe  Fe38  1  0.50245857  0.16852159  0.83390341  1
  Fe  Fe39  1  0.50234745  0.50238633  0.49999803  1
  Fe  Fe40  1  0.33377891  0.33387950  0.66905474  1
  Fe  Fe41  1  0.50314057  0.49927329  0.83485531  1
  Ni  Ni42  1  0.50154271  0.83386441  0.49903239  1
  Cr  Cr43  1  0.33573749  0.66602253  0.66610915  1
  Cr  Cr44  1  0.50200190  0.83609833  0.83727879  1
  Fe  Fe45  1  0.83548454  0.16801661  0.50113189  1
  Fe  Fe46  1  0.66923034  1.00095721  0.66802129  1
  Ni  Ni47  1  0.83349724  0.17058324  0.83413645  1
  Fe  Fe48  1  0.83376952  0.50101791  0.50050922  1
  Fe  Fe49  1  0.66873759  0.33521325  0.66859382  1
  Fe  Fe50  1  0.83458625  0.50101139  0.83463309  1
  Fe  Fe51  1  0.83368819  0.83472222  0.50138653  1
  Fe  Fe52  1  0.66975867  0.66759232  0.66682328  1
  Fe  Fe53  1  0.83389041  0.83450062  0.83387141  1
" 