5193,Ni8Fe78Cr13_5,-224.766623721999, 150.976624560667,Ni8Fe78Cr13,"# generated using pymatgen
 data_Cr4Fe21Ni2
_symmetry_space_group_name_H-M   'P 1'
_cell_length_a   7.45347047
_cell_length_b   7.45347047
_cell_length_c   10.54079902
_cell_angle_alpha   90.00000000
_cell_angle_beta   90.00000000
_cell_angle_gamma   90.00000000
_symmetry_Int_Tables_number   1
_chemical_formula_structural   Cr4Fe21Ni2
_chemical_formula_sum   'Cr8 Fe42 Ni4'
_cell_volume   585.58588872
_cell_formula_units_Z   2
loop_
 _symmetry_equiv_pos_site_id
 _symmetry_equiv_pos_as_xyz
  1  'x, y, z'
loop_
 _atom_site_type_symbol
 _atom_site_label
 _atom_site_symmetry_multiplicity
 _atom_site_fract_x
 _atom_site_fract_y
 _atom_site_fract_z
 _atom_site_occupancy
  Fe  Fe0  1  0.00147708  0.00216418  0.00132431  1
  Fe  Fe1  1  0.16686180  0.16688433  0.16833637  1
  Fe  Fe2  1  0.00256867  0.00210186  0.33268047  1
  Fe  Fe3  1  0.99916606  0.33389719  1.00060976  1
  Fe  Fe4  1  0.16696029  0.50021041  0.16680211  1
  Fe  Fe5  1  0.00148034  0.33408544  0.33376811  1
  Fe  Fe6  1  0.00188526  0.66667535  0.00128451  1
  Fe  Fe7  1  0.16758009  0.83563647  0.16614411  1
  Cr  Cr8  1  0.99984887  0.66700089  0.33426682  1
  Fe  Fe9  1  0.33356355  1.00012428  0.00164805  1
  Fe  Fe10  1  0.50154932  0.16688294  0.16889228  1
  Fe  Fe11  1  0.33437514  0.00245126  0.33460559  1
  Cr  Cr12  1  0.33456173  0.33317786  0.00122354  1
  Fe  Fe13  1  0.50224715  0.50100747  0.16725817  1
  Fe  Fe14  1  0.33437434  0.33264464  0.33434124  1
  Fe  Fe15  1  0.33287526  0.66898228  0.00257539  1
  Fe  Fe16  1  0.50162624  0.83484113  0.16659887  1
  Cr  Cr17  1  0.33497865  0.66733271  0.33497946  1
  Fe  Fe18  1  0.66769268  0.00285256  0.00194246  1
  Fe  Fe19  1  0.83432235  0.16750309  0.16711368  1
  Fe  Fe20  1  0.66578376  1.00084134  0.33313647  1
  Fe  Fe21  1  0.67000392  0.33320937  0.00122776  1
  Fe  Fe22  1  0.83352418  0.50028684  0.16749652  1
  Fe  Fe23  1  0.66687415  0.33534905  0.33422465  1
  Fe  Fe24  1  0.66797024  0.66667617  0.00315501  1
  Fe  Fe25  1  0.83352453  0.83494192  0.16689796  1
  Fe  Fe26  1  0.66722445  0.66654316  0.33378567  1
  Fe  Fe27  1  0.16898312  0.16793359  0.50075869  1
  Fe  Fe28  1  0.00272065  0.00118717  0.66872315  1
  Fe  Fe29  1  0.16639783  0.16667587  0.83363725  1
  Fe  Fe30  1  0.16674883  0.49928387  0.50266208  1
  Fe  Fe31  1  0.00091158  0.33569397  0.66835450  1
  Fe  Fe32  1  0.16464823  0.50178653  0.83327563  1
  Fe  Fe33  1  0.16843660  0.83551259  0.50268464  1
  Ni  Ni34  1  0.00221797  0.66600717  0.66797012  1
  Fe  Fe35  1  0.16687770  0.83426490  0.83390839  1
  Ni  Ni36  1  0.49799088  0.16790704  0.50107377  1
  Fe  Fe37  1  0.33333924  0.00131253  0.66648066  1
  Fe  Fe38  1  0.50251255  0.16668158  0.83296077  1
  Fe  Fe39  1  0.50268434  0.49952070  0.50176162  1
  Fe  Fe40  1  0.33333987  0.33376362  0.66672468  1
  Cr  Cr41  1  0.50057622  0.50096362  0.83351835  1
  Fe  Fe42  1  0.50099305  0.83527982  0.50178281  1
  Fe  Fe43  1  0.33209943  0.66765500  0.66607738  1
  Cr  Cr44  1  0.49930241  0.83448322  0.83431691  1
  Cr  Cr45  1  0.83494809  0.16860447  0.50009201  1
  Fe  Fe46  1  0.66667252  0.00243655  0.66765172  1
  Ni  Ni47  1  0.83557515  0.16886869  0.83481943  1
  Ni  Ni48  1  0.83393767  0.50114372  0.50201617  1
  Fe  Fe49  1  0.66847750  0.33444771  0.66727983  1
  Fe  Fe50  1  0.83576699  0.49937090  0.83332658  1
  Cr  Cr51  1  0.83389818  0.83309027  0.50147805  1
  Fe  Fe52  1  0.66860105  0.66585094  0.66579505  1
  Cr  Cr53  1  0.83562507  0.83515263  0.83373326  1
" 