7651,Ni8Fe66Cr24_14,-223.279826288231, 158.669965410806,Ni8Fe66Cr24,"# generated using pymatgen
 data_Cr7(Fe9Ni)2
_symmetry_space_group_name_H-M   'P 1'
_cell_length_a   7.47337615
_cell_length_b   7.47337615
_cell_length_c   10.56894991
_cell_angle_alpha   90.00000000
_cell_angle_beta   90.00000000
_cell_angle_gamma   90.00000000
_symmetry_Int_Tables_number   1
_chemical_formula_structural   Cr7(Fe9Ni)2
_chemical_formula_sum   'Cr14 Fe36 Ni4'
_cell_volume   590.29013274
_cell_formula_units_Z   2
loop_
 _symmetry_equiv_pos_site_id
 _symmetry_equiv_pos_as_xyz
  1  'x, y, z'
loop_
 _atom_site_type_symbol
 _atom_site_label
 _atom_site_symmetry_multiplicity
 _atom_site_fract_x
 _atom_site_fract_y
 _atom_site_fract_z
 _atom_site_occupancy
  Ni  Ni0  1  0.00181657  0.00093560  0.00247962  1
  Ni  Ni1  1  0.16680810  0.16654216  0.16637428  1
  Fe  Fe2  1  0.00132862  0.00149636  0.32987142  1
  Fe  Fe3  1  -0.00041534  0.32956978  0.00136116  1
  Cr  Cr4  1  0.16739508  0.49931016  0.16451768  1
  Ni  Ni5  1  0.99856653  0.33234089  0.33139104  1
  Fe  Fe6  1  0.99738556  0.66662598  0.00036799  1
  Fe  Fe7  1  0.16827096  0.83595387  0.16475375  1
  Cr  Cr8  1  0.99874164  0.66738842  0.33355297  1
  Fe  Fe9  1  0.33220500  0.00213851  0.00058527  1
  Fe  Fe10  1  0.49872266  0.16625497  0.16687895  1
  Fe  Fe11  1  0.33075710  0.99902347  0.33073861  1
  Fe  Fe12  1  0.33312870  0.32890169  0.99936622  1
  Fe  Fe13  1  0.50110970  0.49908850  0.16589850  1
  Fe  Fe14  1  0.33183967  0.33356400  0.33133057  1
  Fe  Fe15  1  0.33548802  0.66775928  0.00083744  1
  Fe  Fe16  1  0.49622770  0.83337936  0.16635859  1
  Fe  Fe17  1  0.33429856  0.66613157  0.33338411  1
  Fe  Fe18  1  0.66528952  -0.00003822  -0.00029711  1
  Fe  Fe19  1  0.83510299  0.16848181  0.16636309  1
  Fe  Fe20  1  0.66645066  0.99841859  0.33097137  1
  Fe  Fe21  1  0.66617843  0.33275181  0.00023158  1
  Fe  Fe22  1  0.83201640  0.49601497  0.16597856  1
  Fe  Fe23  1  0.66742538  0.33565569  0.33072669  1
  Fe  Fe24  1  0.66606091  0.66599318  0.99844739  1
  Cr  Cr25  1  0.83085511  0.83398627  0.16466561  1
  Fe  Fe26  1  0.66457163  0.66446630  0.33356550  1
  Cr  Cr27  1  0.16520007  0.16946718  0.49836637  1
  Cr  Cr28  1  0.00048916  0.99730434  0.66512587  1
  Ni  Ni29  1  0.16521769  0.16746918  0.83604179  1
  Fe  Fe30  1  0.16612506  0.50037422  0.49891078  1
  Fe  Fe31  1  0.99895163  0.33540904  0.66550536  1
  Cr  Cr32  1  0.16592397  0.49927996  0.83223525  1
  Fe  Fe33  1  0.16830323  0.83155551  0.49905125  1
  Fe  Fe34  1  0.00004562  0.66415569  0.66356564  1
  Cr  Cr35  1  0.16600775  0.83086001  0.83646859  1
  Cr  Cr36  1  0.50182811  0.16503320  0.49806888  1
  Cr  Cr37  1  0.33283417  -0.00029565  0.66949835  1
  Fe  Fe38  1  0.49759382  0.16546486  0.83627385  1
  Fe  Fe39  1  0.49832155  0.50111366  0.49683028  1
  Cr  Cr40  1  0.33352401  0.33257269  0.66774500  1
  Fe  Fe41  1  0.49946179  0.50014860  0.83661368  1
  Fe  Fe42  1  0.49935355  0.83189239  0.49747733  1
  Fe  Fe43  1  0.33338514  0.66652555  0.66404116  1
  Fe  Fe44  1  0.50100574  0.83349505  0.83543161  1
  Cr  Cr45  1  0.83170315  0.16518050  0.49709562  1
  Fe  Fe46  1  0.66518220  0.99725158  0.66715893  1
  Cr  Cr47  1  0.83283213  0.16431547  0.83259949  1
  Fe  Fe48  1  0.83403851  0.49838381  0.49815517  1
  Cr  Cr49  1  0.66534299  0.33543246  0.66768966  1
  Fe  Fe50  1  0.83449952  0.50078879  0.83550631  1
  Fe  Fe51  1  0.83115418  0.83289947  0.49806713  1
  Cr  Cr52  1  0.66769050  0.66662068  0.66648603  1
  Fe  Fe53  1  0.83349497  0.83230286  0.83642582  1
" 