8519,Ni8Fe18Cr72_6,-209.378135183465, 192.607892690015,Ni8Fe18Cr72,"# generated using pymatgen
 data_Cr41Fe9Ni4
_symmetry_space_group_name_H-M   'P 1'
_cell_length_a   7.56658219
_cell_length_b   7.56658219
_cell_length_c   10.70076315
_cell_angle_alpha   90.00000000
_cell_angle_beta   90.00000000
_cell_angle_gamma   90.00000000
_symmetry_Int_Tables_number   1
_chemical_formula_structural   Cr41Fe9Ni4
_chemical_formula_sum   'Cr41 Fe9 Ni4'
_cell_volume   612.65256854
_cell_formula_units_Z   1
loop_
 _symmetry_equiv_pos_site_id
 _symmetry_equiv_pos_as_xyz
  1  'x, y, z'
loop_
 _atom_site_type_symbol
 _atom_site_label
 _atom_site_symmetry_multiplicity
 _atom_site_fract_x
 _atom_site_fract_y
 _atom_site_fract_z
 _atom_site_occupancy
  Cr  Cr0  1  0.98991662  -0.00514531  0.99287278  1
  Cr  Cr1  1  0.15811505  0.15897930  0.16273795  1
  Ni  Ni2  1  0.98861034  -0.00587090  0.32703534  1
  Cr  Cr3  1  0.99069504  0.32589693  -0.00606142  1
  Cr  Cr4  1  0.16049693  0.49243392  0.15612232  1
  Cr  Cr5  1  0.99069044  0.32555219  0.32678088  1
  Cr  Cr6  1  0.99286583  0.65949025  0.98947499  1
  Cr  Cr7  1  0.15733428  0.82790077  0.16286428  1
  Cr  Cr8  1  0.99178859  0.65760275  0.32733901  1
  Cr  Cr9  1  0.32808982  0.99281419  -0.00498222  1
  Cr  Cr10  1  0.49495314  0.16269939  0.15599092  1
  Cr  Cr11  1  0.32820035  -0.00599607  0.32754033  1
  Fe  Fe12  1  0.32709448  0.32588354  0.99212660  1
  Cr  Cr13  1  0.49585648  0.49187759  0.15838658  1
  Cr  Cr14  1  0.32750077  0.32621692  0.32693396  1
  Cr  Cr15  1  0.32584643  0.66082343  0.99088703  1
  Cr  Cr16  1  0.49573033  0.82603862  0.16042869  1
  Cr  Cr17  1  0.32887106  0.66008702  0.32738022  1
  Fe  Fe18  1  0.66244881  -0.00420762  0.99211788  1
  Fe  Fe19  1  0.82558236  0.16018317  0.15948049  1
  Cr  Cr20  1  0.66028313  -0.00478131  0.32403725  1
  Ni  Ni21  1  0.66278487  0.32302037  0.99220350  1
  Cr  Cr22  1  0.82455555  0.49331983  0.16185860  1
  Cr  Cr23  1  0.66220021  0.32620961  0.32907095  1
  Cr  Cr24  1  0.66138006  0.66170949  -0.00579548  1
  Cr  Cr25  1  0.82783406  0.82754948  0.16013607  1
  Fe  Fe26  1  0.66217020  0.66025976  0.32799278  1
  Cr  Cr27  1  0.15772019  0.15775214  0.49212727  1
  Fe  Fe28  1  0.99070732  0.99322267  0.66103076  1
  Cr  Cr29  1  0.15902231  0.15984515  0.82543863  1
  Cr  Cr30  1  0.15843559  0.49313256  0.49441478  1
  Cr  Cr31  1  0.99051575  0.32689241  0.65970004  1
  Fe  Fe32  1  0.16037101  0.49114676  0.82732941  1
  Cr  Cr33  1  0.15645443  0.82891245  0.49250543  1
  Cr  Cr34  1  0.99229978  0.65815322  0.66319308  1
  Cr  Cr35  1  0.15678316  0.82897970  0.82483547  1
  Cr  Cr36  1  0.49552844  0.16059752  0.49742294  1
  Cr  Cr37  1  0.32997038  0.99268247  0.65753885  1
  Cr  Cr38  1  0.49539935  0.16123846  0.82686419  1
  Cr  Cr39  1  0.49743062  0.49254694  0.49348986  1
  Cr  Cr40  1  0.32587706  0.32715662  0.66019758  1
  Cr  Cr41  1  0.49518705  0.49096529  0.82850591  1
  Cr  Cr42  1  0.49643119  0.82750040  0.49270526  1
  Cr  Cr43  1  0.32680173  0.66028646  0.66130935  1
  Cr  Cr44  1  0.49624639  0.82839796  0.82671994  1
  Cr  Cr45  1  0.82679240  0.15912658  0.49616170  1
  Ni  Ni46  1  0.66508263  -0.00420267  0.66428057  1
  Fe  Fe47  1  0.82516877  0.15941053  0.82607277  1
  Ni  Ni48  1  0.82517886  0.49333155  0.49377239  1
  Fe  Fe49  1  0.66145723  0.32641432  0.66078726  1
  Cr  Cr50  1  0.82426701  0.49244158  0.82615070  1
  Cr  Cr51  1  0.82760250  0.82677607  0.49396334  1
  Cr  Cr52  1  0.66115457  0.66168524  0.65773211  1
  Fe  Fe53  1  0.82504767  0.82988891  0.82561873  1
" 