7390,Ni8Fe78Cr12_8,-224.83345631625, 151.900947366061,Ni8Fe78Cr12,"# generated using pymatgen
 data_Cr4Fe21Ni2
_symmetry_space_group_name_H-M   'P 1'
_cell_length_a   7.44960117
_cell_length_b   7.44960117
_cell_length_c   10.53532701
_cell_angle_alpha   90.00000000
_cell_angle_beta   90.00000000
_cell_angle_gamma   90.00000000
_symmetry_Int_Tables_number   1
_chemical_formula_structural   Cr4Fe21Ni2
_chemical_formula_sum   'Cr8 Fe42 Ni4'
_cell_volume   584.67438200
_cell_formula_units_Z   2
loop_
 _symmetry_equiv_pos_site_id
 _symmetry_equiv_pos_as_xyz
  1  'x, y, z'
loop_
 _atom_site_type_symbol
 _atom_site_label
 _atom_site_symmetry_multiplicity
 _atom_site_fract_x
 _atom_site_fract_y
 _atom_site_fract_z
 _atom_site_occupancy
  Fe  Fe0  1  1.00057142  1.00099792  0.00149829  1
  Fe  Fe1  1  0.16772328  0.16588997  0.16650283  1
  Fe  Fe2  1  1.00102449  0.99781717  0.33264037  1
  Fe  Fe3  1  0.00358805  0.33372242  1.00057905  1
  Fe  Fe4  1  0.16934559  0.50270818  0.16631566  1
  Cr  Cr5  1  1.00011878  0.33474739  0.33247312  1
  Fe  Fe6  1  0.00142095  0.66879542  1.00090650  1
  Fe  Fe7  1  0.16749331  0.83491386  0.16791237  1
  Fe  Fe8  1  0.00187738  0.67035036  0.33490718  1
  Fe  Fe9  1  0.33503524  0.00185051  0.00132911  1
  Ni  Ni10  1  0.49987927  0.16625018  0.16813673  1
  Fe  Fe11  1  0.33464608  0.99867875  0.33287006  1
  Fe  Fe12  1  0.33365933  0.33451070  0.00141885  1
  Fe  Fe13  1  0.50023577  0.50258254  0.16725636  1
  Cr  Cr14  1  0.33593770  0.33521277  0.33237436  1
  Fe  Fe15  1  0.33497748  0.66715146  1.00076470  1
  Fe  Fe16  1  0.50213795  0.83508537  0.16792784  1
  Fe  Fe17  1  0.33415459  0.66912607  0.33461828  1
  Fe  Fe18  1  0.66790494  0.99968082  0.00202821  1
  Fe  Fe19  1  0.83375536  0.16399694  0.16811647  1
  Fe  Fe20  1  0.66784233  1.00014346  0.33212797  1
  Cr  Cr21  1  0.66723501  0.33437240  0.00185813  1
  Cr  Cr22  1  0.83455395  0.50380403  0.16781241  1
  Fe  Fe23  1  0.66662010  0.33485835  0.33313216  1
  Fe  Fe24  1  0.66711690  0.67017005  0.99971023  1
  Ni  Ni25  1  0.83536117  0.83556327  0.16806698  1
  Fe  Fe26  1  0.66748276  0.66851352  0.33562461  1
  Cr  Cr27  1  0.16768969  0.16656901  0.50216810  1
  Fe  Fe28  1  0.99898124  0.99901642  0.66937681  1
  Fe  Fe29  1  0.16760645  0.16926373  0.83497141  1
  Fe  Fe30  1  0.16778159  0.50382835  0.50262304  1
  Fe  Fe31  1  1.00077370  0.33639208  0.66911061  1
  Fe  Fe32  1  0.16857181  0.50105771  0.83456736  1
  Fe  Fe33  1  0.16711931  0.83263956  0.50033852  1
  Fe  Fe34  1  1.00065810  0.66810423  0.66769912  1
  Fe  Fe35  1  0.16773478  0.83319185  0.83526254  1
  Cr  Cr36  1  0.50250482  0.16844466  0.50214184  1
  Cr  Cr37  1  0.33444029  1.00008929  0.66870151  1
  Fe  Fe38  1  0.50111791  0.16858057  0.83491363  1
  Fe  Fe39  1  0.50232877  0.50350656  0.50298269  1
  Fe  Fe40  1  0.33548889  0.33861431  0.66954283  1
  Ni  Ni41  1  0.50012445  0.50195364  0.83326845  1
  Fe  Fe42  1  0.50223881  0.83221481  0.50079690  1
  Fe  Fe43  1  0.33561554  0.66588217  0.66812871  1
  Fe  Fe44  1  0.50228768  0.83257756  0.83478811  1
  Cr  Cr45  1  0.83331666  0.16705846  0.50098447  1
  Fe  Fe46  1  0.66946776  0.99889263  0.66936015  1
  Fe  Fe47  1  0.83478720  0.16774296  0.83339032  1
  Fe  Fe48  1  0.83340233  0.50337664  0.50208295  1
  Fe  Fe49  1  0.66724879  0.33694273  0.66994570  1
  Fe  Fe50  1  0.83417209  0.50222593  0.83349959  1
  Fe  Fe51  1  0.83415539  0.83300192  0.50089883  1
  Ni  Ni52  1  0.66842823  0.66702667  0.66802961  1
  Fe  Fe53  1  0.83349062  0.83354376  0.83474948  1
" 