5814,Ni8Fe78Cr12_9,-224.83318901584, 145.799652031216,Ni8Fe78Cr12,"# generated using pymatgen
 data_Cr4Fe21Ni2
_symmetry_space_group_name_H-M   'P 1'
_cell_length_a   7.45340195
_cell_length_b   7.45340195
_cell_length_c   10.54070212
_cell_angle_alpha   90.00000000
_cell_angle_beta   90.00000000
_cell_angle_gamma   90.00000000
_symmetry_Int_Tables_number   1
_chemical_formula_structural   Cr4Fe21Ni2
_chemical_formula_sum   'Cr8 Fe42 Ni4'
_cell_volume   585.56973969
_cell_formula_units_Z   2
loop_
 _symmetry_equiv_pos_site_id
 _symmetry_equiv_pos_as_xyz
  1  'x, y, z'
loop_
 _atom_site_type_symbol
 _atom_site_label
 _atom_site_symmetry_multiplicity
 _atom_site_fract_x
 _atom_site_fract_y
 _atom_site_fract_z
 _atom_site_occupancy
  Ni  Ni0  1  1.00051833  0.00254458  1.00039115  1
  Fe  Fe1  1  0.16890433  0.16606875  0.16784299  1
  Fe  Fe2  1  1.00063870  1.00029807  0.33378683  1
  Cr  Cr3  1  0.99924587  0.33293313  0.00175321  1
  Cr  Cr4  1  0.16830622  0.50090018  0.16915666  1
  Fe  Fe5  1  0.00114533  0.33343352  0.33377793  1
  Cr  Cr6  1  0.99775987  0.66866597  0.99926219  1
  Cr  Cr7  1  0.16797625  0.83522690  0.16627499  1
  Ni  Ni8  1  0.99985615  0.66820628  0.33590785  1
  Ni  Ni9  1  0.33578293  0.00293744  1.00010715  1
  Fe  Fe10  1  0.49996533  0.16696840  0.16753078  1
  Fe  Fe11  1  0.33467527  0.00095225  0.33462630  1
  Fe  Fe12  1  0.33575429  0.33131433  1.00081996  1
  Fe  Fe13  1  0.50308114  0.50051038  0.16833851  1
  Fe  Fe14  1  0.33482606  0.33376148  0.33559481  1
  Cr  Cr15  1  0.33753857  0.66859661  0.99983168  1
  Fe  Fe16  1  0.50266769  0.83561852  0.16796670  1
  Fe  Fe17  1  0.33514010  0.66811833  0.33586329  1
  Fe  Fe18  1  0.66820631  1.00065421  0.00092426  1
  Fe  Fe19  1  0.83386517  0.16579294  0.16877454  1
  Fe  Fe20  1  0.66723858  0.99940563  0.33363942  1
  Fe  Fe21  1  0.66584864  0.33325793  0.00103660  1
  Fe  Fe22  1  0.83189107  0.50200384  0.16995804  1
  Fe  Fe23  1  0.66664771  0.33463069  0.33284682  1
  Fe  Fe24  1  0.66785070  0.66893040  0.99995247  1
  Fe  Fe25  1  0.83310721  0.83490858  0.16855033  1
  Fe  Fe26  1  0.66718110  0.66862548  0.33458326  1
  Fe  Fe27  1  0.16850657  0.16768641  0.50119620  1
  Fe  Fe28  1  1.00084489  0.99941396  0.66899750  1
  Fe  Fe29  1  0.16847657  0.16506459  0.83384589  1
  Fe  Fe30  1  0.16868174  0.50092459  0.50058272  1
  Fe  Fe31  1  1.00086320  0.33354965  0.66855376  1
  Cr  Cr32  1  0.16855586  0.50140809  0.83286072  1
  Fe  Fe33  1  0.16663125  0.83420364  0.50026176  1
  Fe  Fe34  1  1.00018604  0.66982171  0.66703703  1
  Fe  Fe35  1  0.16791172  0.83828443  0.83404332  1
  Fe  Fe36  1  0.49952233  0.16769892  0.50079940  1
  Fe  Fe37  1  0.33526016  1.00009683  0.66801735  1
  Fe  Fe38  1  0.50048765  0.16748572  0.83429975  1
  Fe  Fe39  1  0.50048846  0.50096502  0.50152498  1
  Fe  Fe40  1  0.33606293  0.33391806  0.66645047  1
  Fe  Fe41  1  0.50364325  0.50031212  0.83297866  1
  Fe  Fe42  1  0.50217647  0.83410524  0.50147902  1
  Fe  Fe43  1  0.33610436  0.66886899  0.66672614  1
  Fe  Fe44  1  0.50170403  0.83534144  0.83313298  1
  Cr  Cr45  1  0.83256599  0.16633983  0.50153496  1
  Fe  Fe46  1  0.66645319  0.99916797  0.66827421  1
  Fe  Fe47  1  0.83373306  0.16650569  0.83318797  1
  Cr  Cr48  1  0.83425800  0.50044142  0.50165739  1
  Fe  Fe49  1  0.66573772  0.33455514  0.66900362  1
  Fe  Fe50  1  0.83104852  0.50078476  0.83194384  1
  Fe  Fe51  1  0.83381835  0.83373086  0.50122807  1
  Ni  Ni52  1  0.66685831  0.66805343  0.66781158  1
  Fe  Fe53  1  0.83323196  0.83543819  0.83290347  1
" 