6597,Ni8Fe20Cr71_1,-209.938707539511, 190.295447404999,Ni8Fe20Cr71,"# generated using pymatgen
 data_Cr20Fe5Ni2
_symmetry_space_group_name_H-M   'P 1'
_cell_length_a   7.56616493
_cell_length_b   7.56616493
_cell_length_c   10.70017306
_cell_angle_alpha   90.00000000
_cell_angle_beta   90.00000000
_cell_angle_gamma   90.00000000
_symmetry_Int_Tables_number   1
_chemical_formula_structural   Cr20Fe5Ni2
_chemical_formula_sum   'Cr40 Fe10 Ni4'
_cell_volume   612.55122092
_cell_formula_units_Z   2
loop_
 _symmetry_equiv_pos_site_id
 _symmetry_equiv_pos_as_xyz
  1  'x, y, z'
loop_
 _atom_site_type_symbol
 _atom_site_label
 _atom_site_symmetry_multiplicity
 _atom_site_fract_x
 _atom_site_fract_y
 _atom_site_fract_z
 _atom_site_occupancy
  Cr  Cr0  1  -0.00568118  -0.00615099  0.99127932  1
  Cr  Cr1  1  0.16293030  0.16041103  0.15915737  1
  Cr  Cr2  1  -0.00518193  -0.00368256  0.32804826  1
  Cr  Cr3  1  -0.00585190  0.32818531  -0.00603365  1
  Ni  Ni4  1  0.16232510  0.49249741  0.15891045  1
  Cr  Cr5  1  -0.00418670  0.32788874  0.32522031  1
  Cr  Cr6  1  0.99237302  0.65814728  -0.00474470  1
  Cr  Cr7  1  0.16155611  0.82434101  0.16027664  1
  Fe  Fe8  1  -0.00501738  0.65622780  0.32375258  1
  Fe  Fe9  1  0.32778799  -0.00506710  -0.00554865  1
  Fe  Fe10  1  0.49296850  0.16443764  0.15851009  1
  Cr  Cr11  1  0.32650232  -0.00401245  0.32839361  1
  Fe  Fe12  1  0.32828037  0.32989503  -0.00400255  1
  Fe  Fe13  1  0.49238354  0.49215621  0.15890822  1
  Cr  Cr14  1  0.32588198  0.32840103  0.32715568  1
  Fe  Fe15  1  0.32727780  0.65598536  -0.00421287  1
  Cr  Cr16  1  0.49119271  0.82956383  0.15922797  1
  Cr  Cr17  1  0.32976798  0.65712038  0.32651542  1
  Cr  Cr18  1  0.66017169  0.99216840  -0.00627842  1
  Cr  Cr19  1  0.82395118  0.16224891  0.15927705  1
  Cr  Cr20  1  0.65884681  0.99281524  0.32602371  1
  Ni  Ni21  1  0.65517941  0.33016837  -0.00430589  1
  Ni  Ni22  1  0.82741218  0.49081176  0.16020460  1
  Cr  Cr23  1  0.65822018  0.33037916  0.32591091  1
  Cr  Cr24  1  0.65886957  0.65812151  -0.00433780  1
  Cr  Cr25  1  0.82836838  0.82552095  0.16383279  1
  Cr  Cr26  1  0.65929272  0.65772448  0.32442208  1
  Fe  Fe27  1  0.16016189  0.16162214  0.49320945  1
  Cr  Cr28  1  -0.00541063  -0.00548246  0.66135247  1
  Cr  Cr29  1  0.16348003  0.16154565  0.82898767  1
  Cr  Cr30  1  0.15956646  0.49593456  0.49354495  1
  Cr  Cr31  1  -0.00366433  0.32630988  0.66070363  1
  Cr  Cr32  1  0.16202544  0.49553158  0.82695724  1
  Cr  Cr33  1  0.15974905  0.82494221  0.49234809  1
  Fe  Fe34  1  -0.00620816  0.66055709  0.66020573  1
  Cr  Cr35  1  0.16275870  0.82415295  0.82836754  1
  Cr  Cr36  1  0.49512727  0.16178535  0.49255899  1
  Cr  Cr37  1  0.32600879  -0.00504044  0.65887637  1
  Cr  Cr38  1  0.49418066  0.16162468  0.82998618  1
  Ni  Ni39  1  0.49233493  0.49239170  0.49495827  1
  Cr  Cr40  1  0.32657229  0.32813255  0.65670864  1
  Cr  Cr41  1  0.49210929  0.49206819  0.82571912  1
  Cr  Cr42  1  0.49223015  0.82500897  0.49334802  1
  Fe  Fe43  1  0.32619281  0.65996356  0.65894309  1
  Cr  Cr44  1  0.48992669  0.82548637  0.82803749  1
  Cr  Cr45  1  0.82592882  0.16153483  0.49408992  1
  Cr  Cr46  1  0.65993936  0.99039524  0.66059509  1
  Cr  Cr47  1  0.82364723  0.16327998  0.82726682  1
  Cr  Cr48  1  0.82637119  0.49259597  0.49417994  1
  Fe  Fe49  1  0.65830660  0.32616004  0.65954025  1
  Cr  Cr50  1  0.82567620  0.49128374  0.82496311  1
  Cr  Cr51  1  0.82858043  0.82501332  0.49015503  1
  Cr  Cr52  1  0.65761399  0.65844421  0.65930696  1
  Cr  Cr53  1  0.82747210  0.82475239  0.82582545  1
" 