5404,Ni8Fe77Cr13_11,-224.497195168373, 150.082134914055,Ni8Fe77Cr13,"# generated using pymatgen
 data_Cr9Fe41Ni4
_symmetry_space_group_name_H-M   'P 1'
_cell_length_a   7.45910873
_cell_length_b   7.45910873
_cell_length_c   10.54877273
_cell_angle_alpha   90.00000000
_cell_angle_beta   90.00000000
_cell_angle_gamma   90.00000000
_symmetry_Int_Tables_number   1
_chemical_formula_structural   Cr9Fe41Ni4
_chemical_formula_sum   'Cr9 Fe41 Ni4'
_cell_volume   586.91581359
_cell_formula_units_Z   1
loop_
 _symmetry_equiv_pos_site_id
 _symmetry_equiv_pos_as_xyz
  1  'x, y, z'
loop_
 _atom_site_type_symbol
 _atom_site_label
 _atom_site_symmetry_multiplicity
 _atom_site_fract_x
 _atom_site_fract_y
 _atom_site_fract_z
 _atom_site_occupancy
  Fe  Fe0  1  0.00146312  0.99831763  0.00089503  1
  Fe  Fe1  1  0.16694648  0.16745148  0.16672959  1
  Fe  Fe2  1  0.99933109  1.00053174  0.33386552  1
  Cr  Cr3  1  0.00114637  0.33312971  0.00149897  1
  Fe  Fe4  1  0.16951813  0.50159152  0.16737691  1
  Fe  Fe5  1  0.00136527  0.33301137  0.33434319  1
  Fe  Fe6  1  0.00126079  0.67106548  0.00123574  1
  Fe  Fe7  1  0.16668541  0.83255184  0.16628798  1
  Fe  Fe8  1  0.00132946  0.66805324  0.33457092  1
  Fe  Fe9  1  0.33394755  1.00039714  1.00021292  1
  Fe  Fe10  1  0.50184610  0.16771195  0.16628927  1
  Cr  Cr11  1  0.33360403  1.00028920  0.33266379  1
  Fe  Fe12  1  0.33609417  0.33299181  0.00081902  1
  Fe  Fe13  1  0.49880996  0.50087001  0.16688798  1
  Fe  Fe14  1  0.33388638  0.33511674  0.33393692  1
  Ni  Ni15  1  0.33435314  0.66805916  0.00172671  1
  Fe  Fe16  1  0.50138428  0.83301392  0.16605856  1
  Fe  Fe17  1  0.33321009  0.66523431  0.33266073  1
  Ni  Ni18  1  0.66626297  0.99991415  0.00151848  1
  Fe  Fe19  1  0.83280486  0.16487948  0.16737825  1
  Fe  Fe20  1  0.66916358  0.00120896  0.33322697  1
  Fe  Fe21  1  0.66332830  0.33319400  0.00109679  1
  Cr  Cr22  1  0.83357632  0.50082328  0.16655530  1
  Fe  Fe23  1  0.66634520  0.33311972  0.33471472  1
  Fe  Fe24  1  0.66540407  0.66892182  0.00053974  1
  Fe  Fe25  1  0.83352662  0.83558847  0.16688839  1
  Fe  Fe26  1  0.66705869  0.66726699  0.33393280  1
  Fe  Fe27  1  0.16607163  0.16839652  0.50108526  1
  Fe  Fe28  1  0.99942857  1.00039241  0.66683506  1
  Ni  Ni29  1  0.16912686  0.16555910  0.83357646  1
  Fe  Fe30  1  0.16739976  0.50076192  0.50070034  1
  Fe  Fe31  1  0.00250837  0.33212135  0.66573667  1
  Cr  Cr32  1  0.16875661  0.50012695  0.83322005  1
  Fe  Fe33  1  0.16458214  0.83243866  0.50044891  1
  Fe  Fe34  1  0.99987264  0.66908063  0.66578730  1
  Fe  Fe35  1  0.16648880  0.83474222  0.83486411  1
  Fe  Fe36  1  0.50157816  0.16882274  0.50017032  1
  Cr  Cr37  1  0.33355547  0.00108047  0.66942627  1
  Fe  Fe38  1  0.49926925  0.16691197  0.83513852  1
  Fe  Fe39  1  0.49979700  0.49987777  0.49984076  1
  Fe  Fe40  1  0.33342169  0.33356635  0.66683786  1
  Fe  Fe41  1  0.49905208  0.50079129  0.83486935  1
  Cr  Cr42  1  0.50208481  0.83318383  0.50029834  1
  Fe  Fe43  1  0.33466603  0.66624144  0.66769354  1
  Fe  Fe44  1  0.50119235  0.83389233  0.83465718  1
  Fe  Fe45  1  0.83394637  0.16600441  0.50034877  1
  Ni  Ni46  1  0.66849048  0.99937963  0.66627795  1
  Cr  Cr47  1  0.83431774  0.16471542  0.83423919  1
  Fe  Fe48  1  0.83439962  0.50137212  0.49985821  1
  Cr  Cr49  1  0.66652319  0.33358082  0.66687462  1
  Cr  Cr50  1  0.83274605  0.50288992  0.83420965  1
  Fe  Fe51  1  0.83483150  0.83421966  0.50090552  1
  Fe  Fe52  1  0.66706147  0.66932308  0.66712296  1
  Fe  Fe53  1  0.83391555  0.83495852  0.83380226  1
" 