8925,Ni8Fe66Cr24_19,-223.102703274751, 162.087007891767,Ni8Fe66Cr24,"# generated using pymatgen
 data_Cr7(Fe9Ni)2
_symmetry_space_group_name_H-M   'P 1'
_cell_length_a   7.47229104
_cell_length_b   7.47229104
_cell_length_c   10.56741533
_cell_angle_alpha   90.00000000
_cell_angle_beta   90.00000000
_cell_angle_gamma   90.00000000
_symmetry_Int_Tables_number   1
_chemical_formula_structural   Cr7(Fe9Ni)2
_chemical_formula_sum   'Cr14 Fe36 Ni4'
_cell_volume   590.03304427
_cell_formula_units_Z   2
loop_
 _symmetry_equiv_pos_site_id
 _symmetry_equiv_pos_as_xyz
  1  'x, y, z'
loop_
 _atom_site_type_symbol
 _atom_site_label
 _atom_site_symmetry_multiplicity
 _atom_site_fract_x
 _atom_site_fract_y
 _atom_site_fract_z
 _atom_site_occupancy
  Fe  Fe0  1  0.00003416  0.00033553  0.99703576  1
  Cr  Cr1  1  0.16612082  0.16674701  0.16420333  1
  Fe  Fe2  1  0.99670342  0.99681170  0.33406435  1
  Fe  Fe3  1  0.99941569  0.33334205  0.99780245  1
  Fe  Fe4  1  0.16585978  0.49980920  0.16496870  1
  Cr  Cr5  1  -0.00012159  0.33583981  0.33347193  1
  Fe  Fe6  1  0.99922312  0.66517507  0.99871510  1
  Cr  Cr7  1  0.16545645  0.83190630  0.16584049  1
  Fe  Fe8  1  0.99845410  0.66734018  0.33394492  1
  Fe  Fe9  1  0.33267826  0.00052942  0.99780323  1
  Fe  Fe10  1  0.49918290  0.16710593  0.16596675  1
  Cr  Cr11  1  0.33488313  0.00035469  0.33096802  1
  Ni  Ni12  1  0.33185538  0.33267389  0.99933230  1
  Cr  Cr13  1  0.50053951  0.50037717  0.16745322  1
  Fe  Fe14  1  0.33430170  0.33598467  0.33259474  1
  Fe  Fe15  1  0.33341947  0.66573433  0.99804791  1
  Fe  Fe16  1  0.50132226  0.83257271  0.16697700  1
  Fe  Fe17  1  0.33269172  0.66421981  0.33387465  1
  Cr  Cr18  1  0.66526808  0.99903967  0.00104579  1
  Cr  Cr19  1  0.83307580  0.16680810  0.16733093  1
  Fe  Fe20  1  0.66863804  0.99826774  0.33210148  1
  Fe  Fe21  1  0.66607429  0.33353906  0.99799088  1
  Fe  Fe22  1  0.83388624  0.50215079  0.16590598  1
  Fe  Fe23  1  0.66608292  0.33453482  0.33345291  1
  Fe  Fe24  1  0.66639424  0.66490859  0.99961182  1
  Fe  Fe25  1  0.83209819  0.83048812  0.16715404  1
  Ni  Ni26  1  0.66874781  0.66700266  0.33279117  1
  Cr  Cr27  1  0.16321166  0.16527690  0.50019582  1
  Fe  Fe28  1  0.99824545  0.00056026  0.66780817  1
  Ni  Ni29  1  0.16402204  0.16623155  0.83470241  1
  Fe  Fe30  1  0.16691572  0.50095675  0.49827881  1
  Fe  Fe31  1  0.99818152  0.33198212  0.66740413  1
  Fe  Fe32  1  0.16526579  0.49743041  0.83509990  1
  Fe  Fe33  1  0.16445539  0.83235271  0.49810606  1
  Cr  Cr34  1  0.99851907  0.66545632  0.66510935  1
  Fe  Fe35  1  0.16457800  0.83431777  0.83516591  1
  Cr  Cr36  1  0.50223910  0.16816389  0.49834628  1
  Cr  Cr37  1  0.33325789  -0.00016160  0.67032893  1
  Fe  Fe38  1  0.50022372  0.16781159  0.83415147  1
  Fe  Fe39  1  0.50141995  0.49967766  0.49766847  1
  Cr  Cr40  1  0.33239073  0.33347964  0.66612301  1
  Fe  Fe41  1  0.50050728  0.49800234  0.83482797  1
  Cr  Cr42  1  0.50114066  0.82993333  0.49936991  1
  Cr  Cr43  1  0.33250795  0.66563728  0.66628219  1
  Fe  Fe44  1  0.50074937  0.83306819  0.83359944  1
  Fe  Fe45  1  0.83205478  0.16547271  0.50080812  1
  Fe  Fe46  1  0.66877082  -0.00035014  0.66802828  1
  Ni  Ni47  1  0.83479495  0.16713891  0.83060607  1
  Fe  Fe48  1  0.83056954  0.49979065  0.49927461  1
  Fe  Fe49  1  0.66838916  0.33379571  0.66735292  1
  Fe  Fe50  1  0.83297389  0.49787871  0.83357731  1
  Fe  Fe51  1  0.83327308  0.83386974  0.49865187  1
  Fe  Fe52  1  0.66652102  0.66537333  0.66663340  1
  Fe  Fe53  1  0.83358927  0.83430792  0.83310300  1
" 