4259,Ni8Fe77Cr13_4,-224.971879602732, 158.486289825315,Ni8Fe77Cr13,"# generated using pymatgen
 data_Cr9Fe41Ni4
_symmetry_space_group_name_H-M   'P 1'
_cell_length_a   7.45538968
_cell_length_b   7.45538968
_cell_length_c   10.54351319
_cell_angle_alpha   90.00000000
_cell_angle_beta   90.00000000
_cell_angle_gamma   90.00000000
_symmetry_Int_Tables_number   1
_chemical_formula_structural   Cr9Fe41Ni4
_chemical_formula_sum   'Cr9 Fe41 Ni4'
_cell_volume   586.03835651
_cell_formula_units_Z   1
loop_
 _symmetry_equiv_pos_site_id
 _symmetry_equiv_pos_as_xyz
  1  'x, y, z'
loop_
 _atom_site_type_symbol
 _atom_site_label
 _atom_site_symmetry_multiplicity
 _atom_site_fract_x
 _atom_site_fract_y
 _atom_site_fract_z
 _atom_site_occupancy
  Fe  Fe0  1  0.99917434  0.00205290  0.99907254  1
  Fe  Fe1  1  0.16717618  0.16726943  0.16471705  1
  Fe  Fe2  1  0.99909141  0.99844261  0.33476150  1
  Fe  Fe3  1  0.00258807  0.33506475  1.00033970  1
  Fe  Fe4  1  0.16918976  0.50020189  0.16588523  1
  Cr  Cr5  1  1.00020656  0.33289520  0.33181377  1
  Fe  Fe6  1  0.99786434  0.66564205  0.99914076  1
  Cr  Cr7  1  0.16704421  0.83416462  0.16558127  1
  Fe  Fe8  1  0.99988565  0.66933538  0.33423683  1
  Fe  Fe9  1  0.33522257  0.00244915  0.99810426  1
  Cr  Cr10  1  0.49975834  0.16700983  0.16739057  1
  Cr  Cr11  1  0.33349091  0.99961998  0.33583673  1
  Fe  Fe12  1  0.33263206  0.33358099  0.99940159  1
  Fe  Fe13  1  0.50168964  0.50281831  0.16769071  1
  Fe  Fe14  1  0.33457848  0.33487474  0.33561635  1
  Cr  Cr15  1  0.33634646  0.66834186  0.99827055  1
  Ni  Ni16  1  0.50186249  0.83417995  0.16603470  1
  Cr  Cr17  1  0.33557427  0.66821710  0.33678811  1
  Fe  Fe18  1  0.66785305  0.99833474  0.99975868  1
  Fe  Fe19  1  0.83448351  0.16334224  0.16689546  1
  Fe  Fe20  1  0.66880382  0.99803906  0.33387709  1
  Cr  Cr21  1  0.67016537  0.33510065  0.99934347  1
  Fe  Fe22  1  0.83300424  0.50447484  0.16660324  1
  Fe  Fe23  1  0.66490787  0.33552024  0.33358259  1
  Fe  Fe24  1  0.67008267  0.66893730  0.99882466  1
  Fe  Fe25  1  0.83172348  0.83436130  0.16716997  1
  Fe  Fe26  1  0.66840804  0.66912710  0.33392568  1
  Fe  Fe27  1  0.16793739  0.16813062  0.50340841  1
  Fe  Fe28  1  0.00129587  0.99889677  0.66863841  1
  Fe  Fe29  1  0.16700087  0.16776179  0.83336181  1
  Fe  Fe30  1  0.16783545  0.49968565  0.50275606  1
  Fe  Fe31  1  0.00189890  0.33434352  0.66938989  1
  Fe  Fe32  1  0.16615794  0.50016423  0.83319700  1
  Fe  Fe33  1  0.16488638  0.83442790  0.50347710  1
  Fe  Fe34  1  0.00134508  0.66914911  0.66919359  1
  Fe  Fe35  1  0.16599302  0.83462685  0.83325371  1
  Fe  Fe36  1  0.49951553  0.16843190  0.50253312  1
  Ni  Ni37  1  0.33359200  1.00029597  0.66831545  1
  Fe  Fe38  1  0.50027692  0.16705206  0.83312815  1
  Fe  Fe39  1  0.50142443  0.49953143  0.50331802  1
  Fe  Fe40  1  0.33507140  0.33403099  0.66777088  1
  Fe  Fe41  1  0.50203837  0.50102476  0.83180774  1
  Fe  Fe42  1  0.50414960  0.83435938  0.50357297  1
  Fe  Fe43  1  0.33513232  0.66887331  0.66749891  1
  Fe  Fe44  1  0.50257940  0.83459397  0.83279258  1
  Cr  Cr45  1  0.83194107  0.16743166  0.50271356  1
  Fe  Fe46  1  0.66510970  0.99846487  0.66892940  1
  Fe  Fe47  1  0.83535945  0.16708309  0.83241638  1
  Cr  Cr48  1  0.83370503  0.50152604  0.50238033  1
  Fe  Fe49  1  0.66539014  0.33432065  0.67059064  1
  Ni  Ni50  1  0.83522271  0.50103986  0.83265317  1
  Fe  Fe51  1  0.83333211  0.83362045  0.50199009  1
  Ni  Ni52  1  0.66737623  0.66709217  0.66906759  1
  Fe  Fe53  1  0.83384460  0.83286247  0.83340165  1
" 