3574,Ni8Fe78Cr13_16,-225.02332650176, 155.866766428194,Ni8Fe78Cr13,"# generated using pymatgen
 data_Cr4Fe21Ni2
_symmetry_space_group_name_H-M   'P 1'
_cell_length_a   7.44751832
_cell_length_b   7.44751832
_cell_length_c   10.53238141
_cell_angle_alpha   90.00000000
_cell_angle_beta   90.00000000
_cell_angle_gamma   90.00000000
_symmetry_Int_Tables_number   1
_chemical_formula_structural   Cr4Fe21Ni2
_chemical_formula_sum   'Cr8 Fe42 Ni4'
_cell_volume   584.18410738
_cell_formula_units_Z   2
loop_
 _symmetry_equiv_pos_site_id
 _symmetry_equiv_pos_as_xyz
  1  'x, y, z'
loop_
 _atom_site_type_symbol
 _atom_site_label
 _atom_site_symmetry_multiplicity
 _atom_site_fract_x
 _atom_site_fract_y
 _atom_site_fract_z
 _atom_site_occupancy
  Fe  Fe0  1  0.00170131  0.00280124  0.99966720  1
  Fe  Fe1  1  0.16789846  0.17034453  0.16790637  1
  Fe  Fe2  1  1.00010940  1.00061399  0.33350490  1
  Fe  Fe3  1  0.00228099  0.33567949  1.00084842  1
  Ni  Ni4  1  0.16720209  0.50102702  0.16878883  1
  Fe  Fe5  1  0.00135139  0.33504200  0.33289602  1
  Fe  Fe6  1  1.00121481  0.66578765  1.00087674  1
  Cr  Cr7  1  0.16727177  0.83627739  0.16628189  1
  Ni  Ni8  1  1.00129620  0.66653428  0.33491322  1
  Fe  Fe9  1  0.33455868  0.00312498  0.99935203  1
  Fe  Fe10  1  0.49890800  0.16977209  0.16683521  1
  Fe  Fe11  1  0.33514101  0.00203039  0.33329984  1
  Fe  Fe12  1  0.33389975  0.33534300  1.00024628  1
  Fe  Fe13  1  0.50092956  0.50073318  0.16712131  1
  Fe  Fe14  1  0.33457784  0.33341738  0.33276336  1
  Fe  Fe15  1  0.33428935  0.66573017  1.00067985  1
  Fe  Fe16  1  0.50122228  0.83290426  0.16713093  1
  Cr  Cr17  1  0.33351985  0.66617347  0.33557327  1
  Cr  Cr18  1  0.66844337  0.00182621  1.00040211  1
  Fe  Fe19  1  0.83711871  0.16968111  0.16769423  1
  Cr  Cr20  1  0.66760214  0.00214237  0.33563489  1
  Fe  Fe21  1  0.66755746  0.33577734  1.00060593  1
  Fe  Fe22  1  0.83578203  0.50181023  0.16819444  1
  Fe  Fe23  1  0.66819959  0.33540854  0.33242838  1
  Fe  Fe24  1  0.66806909  0.66626189  1.00101104  1
  Fe  Fe25  1  0.83509868  0.83207546  0.16811255  1
  Fe  Fe26  1  0.66937637  0.66819638  0.33273715  1
  Cr  Cr27  1  0.16835728  0.16798808  0.50013284  1
  Fe  Fe28  1  0.99969348  0.00170827  0.66980808  1
  Fe  Fe29  1  0.16891173  0.16904593  0.83445957  1
  Fe  Fe30  1  0.16694864  0.50005371  0.50255964  1
  Fe  Fe31  1  0.00174075  0.33478451  0.66956646  1
  Ni  Ni32  1  0.16714395  0.50245935  0.83357970  1
  Cr  Cr33  1  0.16691528  0.83509097  0.50213797  1
  Fe  Fe34  1  1.00129842  0.66759758  0.66918994  1
  Fe  Fe35  1  0.16867763  0.83498561  0.83490254  1
  Fe  Fe36  1  0.50193609  0.16756452  0.50360150  1
  Fe  Fe37  1  0.33616760  0.00167530  0.66982551  1
  Ni  Ni38  1  0.50183549  0.16831066  0.83392841  1
  Cr  Cr39  1  0.50262329  0.49961578  0.50260903  1
  Fe  Fe40  1  0.33402773  0.33456956  0.67012231  1
  Fe  Fe41  1  0.50053202  0.50040447  0.83437239  1
  Fe  Fe42  1  0.50213716  0.83531084  0.50352017  1
  Fe  Fe43  1  0.33425433  0.66762655  0.66945978  1
  Fe  Fe44  1  0.49972852  0.83374913  0.83410915  1
  Fe  Fe45  1  0.83440664  0.16788963  0.50279295  1
  Fe  Fe46  1  0.66800645  0.00157087  0.66887636  1
  Fe  Fe47  1  0.83554186  0.16980465  0.83404843  1
  Cr  Cr48  1  0.83449480  0.50116036  0.50107836  1
  Fe  Fe49  1  0.66834806  0.33280214  0.66997509  1
  Fe  Fe50  1  0.83421967  0.50051945  0.83439057  1
  Fe  Fe51  1  0.83443305  0.83471408  0.50229953  1
  Fe  Fe52  1  0.66823311  0.66964729  0.66987943  1
  Fe  Fe53  1  0.83556765  0.83363551  0.83406879  1
" 