3169,Ni8Fe66Cr24_11,-223.225334282541, 165.363887857401,Ni8Fe66Cr24,"# generated using pymatgen
 data_Cr7(Fe9Ni)2
_symmetry_space_group_name_H-M   'P 1'
_cell_length_a   7.47580510
_cell_length_b   7.47580510
_cell_length_c   10.57238496
_cell_angle_alpha   90.00000000
_cell_angle_beta   90.00000000
_cell_angle_gamma   90.00000000
_symmetry_Int_Tables_number   1
_chemical_formula_structural   Cr7(Fe9Ni)2
_chemical_formula_sum   'Cr14 Fe36 Ni4'
_cell_volume   590.86587558
_cell_formula_units_Z   2
loop_
 _symmetry_equiv_pos_site_id
 _symmetry_equiv_pos_as_xyz
  1  'x, y, z'
loop_
 _atom_site_type_symbol
 _atom_site_label
 _atom_site_symmetry_multiplicity
 _atom_site_fract_x
 _atom_site_fract_y
 _atom_site_fract_z
 _atom_site_occupancy
  Fe  Fe0  1  0.99869870  0.99718797  0.00008159  1
  Cr  Cr1  1  0.16586399  0.16537806  0.16919172  1
  Fe  Fe2  1  -0.00027225  -0.00008656  0.33220572  1
  Cr  Cr3  1  0.99792973  0.33510297  0.99919689  1
  Ni  Ni4  1  0.16654443  0.50174408  0.16657315  1
  Fe  Fe5  1  0.99940692  0.33182664  0.33103740  1
  Ni  Ni6  1  0.00075839  0.66730602  -0.00028486  1
  Fe  Fe7  1  0.16632333  0.83109882  0.16527812  1
  Cr  Cr8  1  0.00014672  0.66643359  0.33129272  1
  Fe  Fe9  1  0.33382336  0.99715024  0.99845843  1
  Fe  Fe10  1  0.49949382  0.16602787  0.16614795  1
  Fe  Fe11  1  0.33279184  0.99907063  0.33336330  1
  Cr  Cr12  1  0.33408323  0.33374363  0.99765742  1
  Fe  Fe13  1  0.49794532  0.49983312  0.16682143  1
  Fe  Fe14  1  0.33378397  0.33333629  0.33219300  1
  Fe  Fe15  1  0.33160610  0.66655059  -0.00030832  1
  Fe  Fe16  1  0.49748491  0.83237957  0.16495365  1
  Fe  Fe17  1  0.33382895  0.66583961  0.33134847  1
  Fe  Fe18  1  0.66572224  0.99898963  -0.00010448  1
  Fe  Fe19  1  0.83269332  0.16602662  0.16696618  1
  Cr  Cr20  1  0.66558541  -0.00006670  0.33277827  1
  Cr  Cr21  1  0.66622919  0.33098306  0.00006754  1
  Fe  Fe22  1  0.83397489  0.49957214  0.16591466  1
  Fe  Fe23  1  0.66505161  0.33286273  0.33137032  1
  Fe  Fe24  1  0.66625187  0.66638509  0.00020374  1
  Fe  Fe25  1  0.83443458  0.83264897  0.16374345  1
  Cr  Cr26  1  0.66505563  0.66598824  0.33358503  1
  Fe  Fe27  1  0.16741301  0.16584171  0.49975245  1
  Fe  Fe28  1  0.00027854  0.99922610  0.66595495  1
  Cr  Cr29  1  0.16737626  0.16505210  0.83026421  1
  Cr  Cr30  1  0.16743732  0.49691313  0.49893232  1
  Fe  Fe31  1  0.00013388  0.33239423  0.66740107  1
  Fe  Fe32  1  0.16541491  0.50121615  0.83289648  1
  Cr  Cr33  1  0.16615264  0.83559566  0.49877170  1
  Fe  Fe34  1  0.99873340  0.66662121  0.66766833  1
  Fe  Fe35  1  0.16719990  0.83273354  0.83315634  1
  Fe  Fe36  1  0.49704418  0.16651357  0.50090631  1
  Ni  Ni37  1  0.33464222  0.00125044  0.66570143  1
  Ni  Ni38  1  0.49998111  0.16493352  0.83134295  1
  Fe  Fe39  1  0.49951399  0.49826376  0.49934513  1
  Fe  Fe40  1  0.33430107  0.33048633  0.66660626  1
  Fe  Fe41  1  0.50012561  0.49925025  0.83207858  1
  Fe  Fe42  1  0.49986180  0.83346687  0.50033017  1
  Cr  Cr43  1  0.33332077  0.66668084  0.66754534  1
  Fe  Fe44  1  0.49828096  0.83464253  0.83296627  1
  Cr  Cr45  1  0.83350458  0.16524655  0.50022380  1
  Fe  Fe46  1  0.66365909  -0.00042327  0.66624695  1
  Fe  Fe47  1  0.83080327  0.16613164  0.83136827  1
  Cr  Cr48  1  0.83098823  0.50024529  0.50092652  1
  Fe  Fe49  1  0.66380930  0.33202959  0.66784416  1
  Fe  Fe50  1  0.83270434  0.49905735  0.83163421  1
  Fe  Fe51  1  0.83231574  0.83313444  0.50138632  1
  Fe  Fe52  1  0.66556745  0.66663731  0.66576303  1
  Cr  Cr53  1  0.83256727  0.83191729  0.83162491  1
" 