4770,Ni8Fe66Cr24_5,-223.089751950489, 167.079344667834,Ni8Fe66Cr24,"# generated using pymatgen
 data_Cr7(Fe9Ni)2
_symmetry_space_group_name_H-M   'P 1'
_cell_length_a   7.47004757
_cell_length_b   7.47004757
_cell_length_c   10.56424259
_cell_angle_alpha   90.00000000
_cell_angle_beta   90.00000000
_cell_angle_gamma   90.00000000
_symmetry_Int_Tables_number   1
_chemical_formula_structural   Cr7(Fe9Ni)2
_chemical_formula_sum   'Cr14 Fe36 Ni4'
_cell_volume   589.50175287
_cell_formula_units_Z   2
loop_
 _symmetry_equiv_pos_site_id
 _symmetry_equiv_pos_as_xyz
  1  'x, y, z'
loop_
 _atom_site_type_symbol
 _atom_site_label
 _atom_site_symmetry_multiplicity
 _atom_site_fract_x
 _atom_site_fract_y
 _atom_site_fract_z
 _atom_site_occupancy
  Cr  Cr0  1  0.99937876  0.99600027  0.00137630  1
  Cr  Cr1  1  0.16541871  0.16870875  0.16778764  1
  Fe  Fe2  1  0.99862862  0.99809110  0.33468692  1
  Fe  Fe3  1  0.99614147  0.33354297  0.00083314  1
  Fe  Fe4  1  0.16701021  0.50219357  0.16755779  1
  Fe  Fe5  1  0.99850279  0.33345605  0.33393118  1
  Cr  Cr6  1  0.99959228  0.66589659  -0.00006819  1
  Fe  Fe7  1  0.16488739  0.83052609  0.16904186  1
  Fe  Fe8  1  0.99795155  0.66768589  0.33300544  1
  Fe  Fe9  1  0.33320604  0.99850508  0.99888702  1
  Fe  Fe10  1  0.50044246  0.16864093  0.16494687  1
  Cr  Cr11  1  0.33187166  0.00001456  0.33552089  1
  Fe  Fe12  1  0.33471900  0.33305968  0.00117511  1
  Fe  Fe13  1  0.49926322  0.49929210  0.16495893  1
  Fe  Fe14  1  0.33358192  0.33486781  0.33360094  1
  Fe  Fe15  1  0.33348732  0.66793380  0.00034656  1
  Cr  Cr16  1  0.50211868  0.83038185  0.16529554  1
  Fe  Fe17  1  0.33336237  0.66510547  0.33382609  1
  Cr  Cr18  1  0.66621029  0.00221057  0.99877833  1
  Fe  Fe19  1  0.83274952  0.16664119  0.16662650  1
  Cr  Cr20  1  0.66896437  0.00029952  0.33528680  1
  Fe  Fe21  1  0.66845478  0.33479694  0.00109159  1
  Fe  Fe22  1  0.83317581  0.50090442  0.16764452  1
  Cr  Cr23  1  0.66538457  0.33493848  0.33300977  1
  Fe  Fe24  1  0.66843327  0.66569370  0.00035508  1
  Ni  Ni25  1  0.83266060  0.83105690  0.17005409  1
  Fe  Fe26  1  0.66824506  0.66568191  0.33443305  1
  Fe  Fe27  1  0.16143819  0.16468318  0.49948962  1
  Ni  Ni28  1  0.99715399  0.99659554  0.66445936  1
  Cr  Cr29  1  0.16368077  0.16625726  0.83284711  1
  Cr  Cr30  1  0.16498042  0.49948947  0.49949985  1
  Fe  Fe31  1  0.99531741  0.33113662  0.66499214  1
  Cr  Cr32  1  0.16503614  0.49901825  0.83163438  1
  Ni  Ni33  1  0.16545010  0.83408297  0.49949451  1
  Fe  Fe34  1  0.99857000  0.66914133  0.66550325  1
  Fe  Fe35  1  0.16678405  0.83209308  0.83064422  1
  Fe  Fe36  1  0.50109856  0.16727819  0.50039462  1
  Cr  Cr37  1  0.33296782  0.99848511  0.66670445  1
  Fe  Fe38  1  0.50167502  0.16693363  0.83359518  1
  Fe  Fe39  1  0.50213918  0.50344899  0.49991487  1
  Cr  Cr40  1  0.33622755  0.33348312  0.66128350  1
  Cr  Cr41  1  0.50210141  0.50254304  0.83322749  1
  Fe  Fe42  1  0.50043677  0.82883303  0.50045094  1
  Fe  Fe43  1  0.33253420  0.67008600  0.66496682  1
  Fe  Fe44  1  0.49947547  0.83320361  0.83359643  1
  Fe  Fe45  1  0.83668955  0.16672678  0.50204101  1
  Fe  Fe46  1  0.66866906  0.00009916  0.66641475  1
  Fe  Fe47  1  0.83188669  0.16819511  0.83060272  1
  Ni  Ni48  1  0.83134614  0.50002310  0.50176485  1
  Fe  Fe49  1  0.67019519  0.33151452  0.66465342  1
  Fe  Fe50  1  0.83255291  0.49845962  0.83091150  1
  Fe  Fe51  1  0.83594687  0.83081750  0.50021010  1
  Fe  Fe52  1  0.66823476  0.66799760  0.66503775  1
  Fe  Fe53  1  0.83272589  0.83240482  0.83083221  1
" 