8944,Ni8Fe78Cr12_15,-224.855532068702, 153.233148237593,Ni8Fe78Cr12,"# generated using pymatgen
 data_Cr4Fe21Ni2
_symmetry_space_group_name_H-M   'P 1'
_cell_length_a   7.44853176
_cell_length_b   7.44853176
_cell_length_c   10.53381463
_cell_angle_alpha   90.00000000
_cell_angle_beta   90.00000000
_cell_angle_gamma   90.00000000
_symmetry_Int_Tables_number   1
_chemical_formula_structural   Cr4Fe21Ni2
_chemical_formula_sum   'Cr8 Fe42 Ni4'
_cell_volume   584.42262252
_cell_formula_units_Z   2
loop_
 _symmetry_equiv_pos_site_id
 _symmetry_equiv_pos_as_xyz
  1  'x, y, z'
loop_
 _atom_site_type_symbol
 _atom_site_label
 _atom_site_symmetry_multiplicity
 _atom_site_fract_x
 _atom_site_fract_y
 _atom_site_fract_z
 _atom_site_occupancy
  Fe  Fe0  1  1.00029527  0.00138760  1.00101895  1
  Fe  Fe1  1  0.16696602  0.16749406  0.16874555  1
  Fe  Fe2  1  1.00043910  0.00224245  0.33381299  1
  Fe  Fe3  1  0.00145296  0.33323957  1.00062553  1
  Fe  Fe4  1  0.16866051  0.50195185  0.16885314  1
  Fe  Fe5  1  0.00271464  0.33306156  0.33449706  1
  Fe  Fe6  1  1.00107031  0.66910205  0.99957919  1
  Fe  Fe7  1  0.16777930  0.83428350  0.16823973  1
  Fe  Fe8  1  1.00030370  0.66842488  0.33442342  1
  Fe  Fe9  1  0.33542122  1.00005237  1.00112279  1
  Fe  Fe10  1  0.50106036  0.16561460  0.16829159  1
  Fe  Fe11  1  0.33537693  0.00220637  0.33406059  1
  Cr  Cr12  1  0.33321470  0.33412082  0.00290757  1
  Fe  Fe13  1  0.49897823  0.50343160  0.16851803  1
  Fe  Fe14  1  0.33385020  0.33385015  0.33363750  1
  Fe  Fe15  1  0.33468244  0.67039808  0.00208810  1
  Fe  Fe16  1  0.50173211  0.83467819  0.16761178  1
  Fe  Fe17  1  0.33630078  0.66767248  0.33304618  1
  Ni  Ni18  1  0.66811201  0.99972662  0.00190821  1
  Fe  Fe19  1  0.83570013  0.16473985  0.16762391  1
  Fe  Fe20  1  0.66791240  0.99978969  0.33457815  1
  Cr  Cr21  1  0.66912721  0.33214664  1.00104956  1
  Cr  Cr22  1  0.83547614  0.50214394  0.16651364  1
  Cr  Cr23  1  0.66682592  0.33399841  0.33502409  1
  Fe  Fe24  1  0.66797696  0.67154801  1.00104018  1
  Fe  Fe25  1  0.83421833  0.83637118  0.16703004  1
  Fe  Fe26  1  0.66712365  0.66994671  0.33526998  1
  Fe  Fe27  1  0.16724291  0.16871846  0.50038013  1
  Fe  Fe28  1  0.99814023  1.00096387  0.66889673  1
  Fe  Fe29  1  0.16615175  0.16769218  0.83461106  1
  Cr  Cr30  1  0.16839937  0.49999018  0.50126483  1
  Fe  Fe31  1  1.00021866  0.33375582  0.66860032  1
  Fe  Fe32  1  0.16482062  0.50286631  0.83330642  1
  Cr  Cr33  1  0.16667468  0.83538272  0.50120841  1
  Ni  Ni34  1  0.99974506  0.66681444  0.66959593  1
  Fe  Fe35  1  0.16640891  0.83316550  0.83475748  1
  Fe  Fe36  1  0.50115329  0.16759923  0.50160105  1
  Cr  Cr37  1  0.33596045  0.00181169  0.66969974  1
  Fe  Fe38  1  0.50320623  0.16447803  0.83384711  1
  Fe  Fe39  1  0.50170084  0.50212313  0.50206411  1
  Fe  Fe40  1  0.33458819  0.33456852  0.66809207  1
  Cr  Cr41  1  0.50130456  0.50234439  0.83265169  1
  Fe  Fe42  1  0.50350827  0.83400977  0.50073657  1
  Fe  Fe43  1  0.33519472  0.66768062  0.66859088  1
  Fe  Fe44  1  0.50330168  0.83604318  0.83538514  1
  Fe  Fe45  1  0.83533364  0.16690871  0.50218466  1
  Ni  Ni46  1  0.66866302  0.00178403  0.66731184  1
  Fe  Fe47  1  0.83436970  0.16606028  0.83392075  1
  Fe  Fe48  1  0.83443040  0.50245331  0.50199640  1
  Fe  Fe49  1  0.66892194  0.33361316  0.66705657  1
  Fe  Fe50  1  0.83724063  0.50296071  0.83372313  1
  Fe  Fe51  1  0.83330560  0.83436550  0.50245994  1
  Fe  Fe52  1  0.66943778  0.66976543  0.66741292  1
  Ni  Ni53  1  0.83492299  0.83557525  0.83464435  1
" 