4201,Ni8Fe77Cr13_15,-224.738661007543, 157.015178624978,Ni8Fe77Cr13,"# generated using pymatgen
 data_Cr9Fe41Ni4
_symmetry_space_group_name_H-M   'P 1'
_cell_length_a   7.45509132
_cell_length_b   7.45509132
_cell_length_c   10.54309126
_cell_angle_alpha   90.00000000
_cell_angle_beta   90.00000000
_cell_angle_gamma   90.00000000
_symmetry_Int_Tables_number   1
_chemical_formula_structural   Cr9Fe41Ni4
_chemical_formula_sum   'Cr9 Fe41 Ni4'
_cell_volume   585.96800203
_cell_formula_units_Z   1
loop_
 _symmetry_equiv_pos_site_id
 _symmetry_equiv_pos_as_xyz
  1  'x, y, z'
loop_
 _atom_site_type_symbol
 _atom_site_label
 _atom_site_symmetry_multiplicity
 _atom_site_fract_x
 _atom_site_fract_y
 _atom_site_fract_z
 _atom_site_occupancy
  Ni  Ni0  1  0.00218437  0.00098296  1.00055749  1
  Ni  Ni1  1  0.16702079  0.16768548  0.16652132  1
  Cr  Cr2  1  1.00049960  0.00247886  0.33507719  1
  Fe  Fe3  1  1.00038344  0.33271827  0.00183906  1
  Cr  Cr4  1  0.16654832  0.50138019  0.16839058  1
  Fe  Fe5  1  1.00041554  0.33593305  0.33553165  1
  Fe  Fe6  1  0.99910362  0.66985592  0.00138939  1
  Fe  Fe7  1  0.16797327  0.83598726  0.16741046  1
  Fe  Fe8  1  0.00127428  0.66710494  0.33558920  1
  Fe  Fe9  1  0.33387169  0.00103241  0.00162817  1
  Fe  Fe10  1  0.49973073  0.16783548  0.16756150  1
  Fe  Fe11  1  0.33472242  1.00073014  0.33237585  1
  Fe  Fe12  1  0.33433396  0.33096147  0.00179788  1
  Fe  Fe13  1  0.49945944  0.49862430  0.16573044  1
  Fe  Fe14  1  0.33501212  0.33311778  0.33385403  1
  Fe  Fe15  1  0.33467876  0.67083272  0.00249497  1
  Fe  Fe16  1  0.49802530  0.83534324  0.16756248  1
  Ni  Ni17  1  0.33532429  0.66617620  0.33343967  1
  Fe  Fe18  1  0.66676276  0.99930529  0.00249665  1
  Fe  Fe19  1  0.83527284  0.16785106  0.16579538  1
  Fe  Fe20  1  0.66562575  0.00175977  0.33225547  1
  Fe  Fe21  1  0.66737556  0.33390687  0.00248284  1
  Fe  Fe22  1  0.83420888  0.49830886  0.16737160  1
  Fe  Fe23  1  0.66759893  0.33297494  0.33430408  1
  Fe  Fe24  1  0.66833202  0.66891409  0.00283633  1
  Fe  Fe25  1  0.83642557  0.83559712  0.16589386  1
  Cr  Cr26  1  0.66636365  0.66531779  0.33128934  1
  Fe  Fe27  1  0.17052532  0.16866322  0.49868264  1
  Cr  Cr28  1  0.00244031  0.99961506  0.66683362  1
  Fe  Fe29  1  0.17017426  0.16605947  0.83721971  1
  Fe  Fe30  1  0.16901537  0.50194929  0.49934728  1
  Cr  Cr31  1  0.00194022  0.33264359  0.66716839  1
  Cr  Cr32  1  0.16624979  0.50101171  0.83572653  1
  Fe  Fe33  1  0.16733300  0.83115057  0.49965415  1
  Fe  Fe34  1  1.00004663  0.66711764  0.66636361  1
  Fe  Fe35  1  0.16846580  0.83492420  0.83561812  1
  Fe  Fe36  1  0.50170599  0.17006286  0.50039792  1
  Fe  Fe37  1  0.33446947  0.00276640  0.66828872  1
  Fe  Fe38  1  0.49918060  0.16667885  0.83439082  1
  Fe  Fe39  1  0.50097356  0.49999367  0.50136532  1
  Fe  Fe40  1  0.33491802  0.33185080  0.66613068  1
  Cr  Cr41  1  0.50021311  0.50191838  0.83328268  1
  Cr  Cr42  1  0.50038526  0.83669770  0.50120145  1
  Fe  Fe43  1  0.33173922  0.66842387  0.66605049  1
  Fe  Fe44  1  0.50107927  0.83594227  0.83344969  1
  Fe  Fe45  1  0.83058557  0.16774535  0.50034603  1
  Fe  Fe46  1  0.66682135  0.00159803  0.66799574  1
  Cr  Cr47  1  0.83273344  0.16675355  0.83627854  1
  Ni  Ni48  1  0.83560909  0.49943784  0.50118554  1
  Fe  Fe49  1  0.66693036  0.33392262  0.66576565  1
  Fe  Fe50  1  0.83283463  0.50242560  0.83424814  1
  Fe  Fe51  1  0.83406623  0.83217718  0.50070637  1
  Fe  Fe52  1  0.67045403  0.66729797  0.66643828  1
  Fe  Fe53  1  0.83388411  0.83175775  0.83568894  1
" 