4713,Ni8Fe20Cr71_14,-209.853597453254, 187.6157579161,Ni8Fe20Cr71,"# generated using pymatgen
 data_Cr20Fe5Ni2
_symmetry_space_group_name_H-M   'P 1'
_cell_length_a   7.56096567
_cell_length_b   7.56096567
_cell_length_c   10.69282020
_cell_angle_alpha   90.00000000
_cell_angle_beta   90.00000000
_cell_angle_gamma   90.00000000
_symmetry_Int_Tables_number   1
_chemical_formula_structural   Cr20Fe5Ni2
_chemical_formula_sum   'Cr40 Fe10 Ni4'
_cell_volume   611.28930378
_cell_formula_units_Z   2
loop_
 _symmetry_equiv_pos_site_id
 _symmetry_equiv_pos_as_xyz
  1  'x, y, z'
loop_
 _atom_site_type_symbol
 _atom_site_label
 _atom_site_symmetry_multiplicity
 _atom_site_fract_x
 _atom_site_fract_y
 _atom_site_fract_z
 _atom_site_occupancy
  Cr  Cr0  1  0.99299754  0.99332768  -0.00614625  1
  Cr  Cr1  1  0.16176476  0.15896655  0.16005527  1
  Cr  Cr2  1  0.99272353  0.99208598  0.32606790  1
  Cr  Cr3  1  -0.00611818  0.32685715  0.99243674  1
  Cr  Cr4  1  0.16023608  0.49662447  0.16106689  1
  Cr  Cr5  1  0.99369150  0.32821178  0.32642800  1
  Cr  Cr6  1  0.99374663  0.66108524  -0.00585243  1
  Fe  Fe7  1  0.16049845  0.82494503  0.16187700  1
  Ni  Ni8  1  -0.00518518  0.66316502  0.32612941  1
  Cr  Cr9  1  0.32787586  0.99057882  0.99369207  1
  Cr  Cr10  1  0.49428501  0.15944763  0.16119697  1
  Cr  Cr11  1  0.32751598  0.99128745  0.32593426  1
  Cr  Cr12  1  0.32583823  0.32872946  -0.00609988  1
  Cr  Cr13  1  0.49414203  0.49460407  0.16071618  1
  Cr  Cr14  1  0.32749585  0.33008330  0.32800814  1
  Cr  Cr15  1  0.32927955  0.66183160  0.99313000  1
  Fe  Fe16  1  0.49364767  0.82601197  0.16129273  1
  Ni  Ni17  1  0.32684977  0.66240291  0.32683629  1
  Cr  Cr18  1  0.66059844  0.98977005  -0.00607033  1
  Cr  Cr19  1  0.82523537  0.15976207  0.16091106  1
  Fe  Fe20  1  0.66015553  0.99114965  0.32641670  1
  Cr  Cr21  1  0.66160350  0.32782150  0.99220816  1
  Cr  Cr22  1  0.82698562  0.49651394  0.15978194  1
  Cr  Cr23  1  0.66013074  0.32861854  0.33038169  1
  Fe  Fe24  1  0.65993707  0.66198160  -0.00578758  1
  Fe  Fe25  1  0.82727202  0.82636433  0.16126071  1
  Cr  Cr26  1  0.65948484  0.66176097  0.32544694  1
  Cr  Cr27  1  0.16147285  0.15887476  0.49281816  1
  Cr  Cr28  1  0.99258512  -0.00523665  0.66105658  1
  Cr  Cr29  1  0.16103198  0.15966487  0.82847911  1
  Cr  Cr30  1  0.16050140  0.49794112  0.49368287  1
  Cr  Cr31  1  0.99272916  0.32706403  0.66245625  1
  Fe  Fe32  1  0.16038505  0.49501434  0.82575278  1
  Cr  Cr33  1  0.16037700  0.82451607  0.49449197  1
  Fe  Fe34  1  -0.00453823  0.65966092  0.66056501  1
  Cr  Cr35  1  0.16135724  0.82413973  0.82406632  1
  Cr  Cr36  1  0.49445191  0.16090395  0.49341793  1
  Cr  Cr37  1  0.32787147  0.99175620  0.66162357  1
  Cr  Cr38  1  0.49485637  0.16030656  0.82728094  1
  Fe  Fe39  1  0.49241592  0.49682546  0.49414762  1
  Cr  Cr40  1  0.32716097  0.32972212  0.65937099  1
  Cr  Cr41  1  0.49362084  0.49511214  0.82704533  1
  Cr  Cr42  1  0.49224499  0.82641932  0.49435728  1
  Ni  Ni43  1  0.32813426  0.65835425  0.66112887  1
  Fe  Fe44  1  0.49441423  0.82622813  0.82638385  1
  Cr  Cr45  1  0.82525303  0.15994008  0.49435204  1
  Cr  Cr46  1  0.66131306  0.99328620  0.66076421  1
  Ni  Ni47  1  0.82546533  0.16078437  0.82646049  1
  Cr  Cr48  1  0.82722501  0.49589148  0.49444783  1
  Fe  Fe49  1  0.66003765  0.32756177  0.66108005  1
  Cr  Cr50  1  0.82706174  0.49483909  0.82747686  1
  Cr  Cr51  1  0.82874769  0.82531709  0.49273830  1
  Cr  Cr52  1  0.65837445  0.65990236  0.66107931  1
  Cr  Cr53  1  0.82738248  0.82584266  0.82677805  1
" 