1213,Ni8Fe20Cr71_10,-209.957818877061, 192.669741744451,Ni8Fe20Cr71,"# generated using pymatgen
 data_Cr20Fe5Ni2
_symmetry_space_group_name_H-M   'P 1'
_cell_length_a   7.55909029
_cell_length_b   7.55909029
_cell_length_c   10.69016801
_cell_angle_alpha   90.00000000
_cell_angle_beta   90.00000000
_cell_angle_gamma   90.00000000
_symmetry_Int_Tables_number   1
_chemical_formula_structural   Cr20Fe5Ni2
_chemical_formula_sum   'Cr40 Fe10 Ni4'
_cell_volume   610.83455356
_cell_formula_units_Z   2
loop_
 _symmetry_equiv_pos_site_id
 _symmetry_equiv_pos_as_xyz
  1  'x, y, z'
loop_
 _atom_site_type_symbol
 _atom_site_label
 _atom_site_symmetry_multiplicity
 _atom_site_fract_x
 _atom_site_fract_y
 _atom_site_fract_z
 _atom_site_occupancy
  Cr  Cr0  1  0.99315851  0.99255821  -0.00454532  1
  Cr  Cr1  1  0.16214915  0.16188464  0.16091567  1
  Cr  Cr2  1  -0.00557527  0.99300608  0.32747961  1
  Cr  Cr3  1  0.99157763  0.32807927  -0.00587504  1
  Cr  Cr4  1  0.16199245  0.49408050  0.15954210  1
  Cr  Cr5  1  0.99324170  0.32702871  0.32823284  1
  Fe  Fe6  1  0.99357921  0.65836117  0.99124220  1
  Cr  Cr7  1  0.16134103  0.82516931  0.15638609  1
  Cr  Cr8  1  -0.00422266  0.66168336  0.32648414  1
  Cr  Cr9  1  0.32744657  0.99268600  0.99252084  1
  Cr  Cr10  1  0.49314999  0.16090572  0.15962612  1
  Cr  Cr11  1  0.32527781  0.99073064  0.32995044  1
  Cr  Cr12  1  0.32975593  0.33080335  -0.00588065  1
  Ni  Ni13  1  0.49308430  0.49616386  0.16104639  1
  Fe  Fe14  1  0.32778509  0.32783986  0.32655675  1
  Ni  Ni15  1  0.32863826  0.65827804  0.99368134  1
  Cr  Cr16  1  0.49522778  0.82588229  0.16184987  1
  Cr  Cr17  1  0.32810765  0.65951298  0.32879144  1
  Cr  Cr18  1  0.66199201  -0.00533981  0.99079386  1
  Cr  Cr19  1  0.82635735  0.15973537  0.16256716  1
  Cr  Cr20  1  0.66135952  0.99368083  0.32925474  1
  Cr  Cr21  1  0.66052128  0.32931326  0.99176014  1
  Cr  Cr22  1  0.82642494  0.49627302  0.16129405  1
  Cr  Cr23  1  0.65982546  0.32970100  0.32538028  1
  Cr  Cr24  1  0.65986196  0.65783195  0.99288657  1
  Cr  Cr25  1  0.82572040  0.82541204  0.15759155  1
  Fe  Fe26  1  0.66068955  0.66073937  0.32691086  1
  Cr  Cr27  1  0.16062163  0.16332004  0.49474064  1
  Cr  Cr28  1  -0.00573576  0.99203675  0.65789267  1
  Cr  Cr29  1  0.16174557  0.16164188  0.82708104  1
  Cr  Cr30  1  0.15876931  0.49319357  0.49688802  1
  Fe  Fe31  1  0.99275751  0.32954592  0.66183311  1
  Cr  Cr32  1  0.15824942  0.49488289  0.82638572  1
  Fe  Fe33  1  0.15854643  0.82469214  0.49521305  1
  Ni  Ni34  1  0.99242415  0.66018551  0.66282863  1
  Cr  Cr35  1  0.16046517  0.82514935  0.82860213  1
  Cr  Cr36  1  0.49420525  0.16016835  0.49486907  1
  Cr  Cr37  1  0.32665760  0.99223835  0.65942569  1
  Fe  Fe38  1  0.49389027  0.16198828  0.82730494  1
  Cr  Cr39  1  0.49492739  0.49422077  0.49155178  1
  Cr  Cr40  1  0.32974101  0.32907209  0.66317999  1
  Fe  Fe41  1  0.49336921  0.49619093  0.82845074  1
  Fe  Fe42  1  0.49397295  0.82610107  0.49407168  1
  Cr  Cr43  1  0.32607338  0.66105810  0.65892623  1
  Cr  Cr44  1  0.49505702  0.82772478  0.82670212  1
  Fe  Fe45  1  0.82671284  0.16245440  0.49502749  1
  Cr  Cr46  1  0.66082917  -0.00570285  0.66141911  1
  Cr  Cr47  1  0.82826561  0.16097913  0.82490645  1
  Cr  Cr48  1  0.82833746  0.49458546  0.49546757  1
  Cr  Cr49  1  0.66125986  0.32893176  0.66453593  1
  Ni  Ni50  1  0.82746532  0.49682605  0.82530500  1
  Cr  Cr51  1  0.82475779  0.82491615  0.49450971  1
  Cr  Cr52  1  0.65994193  0.65892983  0.66113469  1
  Fe  Fe53  1  0.82946151  0.82390487  0.82653934  1
" 