7731,Ni8Fe18Cr72_2,-209.229248597601, 190.242006752795,Ni8Fe18Cr72,"# generated using pymatgen
 data_Cr41Fe9Ni4
_symmetry_space_group_name_H-M   'P 1'
_cell_length_a   7.57400643
_cell_length_b   7.57400643
_cell_length_c   10.71126261
_cell_angle_alpha   90.00000000
_cell_angle_beta   90.00000000
_cell_angle_gamma   90.00000000
_symmetry_Int_Tables_number   1
_chemical_formula_structural   Cr41Fe9Ni4
_chemical_formula_sum   'Cr41 Fe9 Ni4'
_cell_volume   614.45772162
_cell_formula_units_Z   1
loop_
 _symmetry_equiv_pos_site_id
 _symmetry_equiv_pos_as_xyz
  1  'x, y, z'
loop_
 _atom_site_type_symbol
 _atom_site_label
 _atom_site_symmetry_multiplicity
 _atom_site_fract_x
 _atom_site_fract_y
 _atom_site_fract_z
 _atom_site_occupancy
  Cr  Cr0  1  0.99100220  -0.00697738  -0.00653099  1
  Cr  Cr1  1  0.16004815  0.15952707  0.16033092  1
  Cr  Cr2  1  0.99258531  -0.00620314  0.32690952  1
  Cr  Cr3  1  0.99121419  0.32520220  -0.00674244  1
  Cr  Cr4  1  0.15862775  0.49254622  0.15823350  1
  Cr  Cr5  1  0.99238750  0.32491471  0.32693139  1
  Cr  Cr6  1  -0.00637962  0.66059113  -0.00634343  1
  Cr  Cr7  1  0.16035658  0.82674564  0.15807937  1
  Cr  Cr8  1  0.99089337  0.66010591  0.32544344  1
  Ni  Ni9  1  0.32869197  0.99283049  0.99272676  1
  Cr  Cr10  1  0.49358790  0.15684184  0.15801699  1
  Cr  Cr11  1  0.32571363  0.99273199  0.32768141  1
  Cr  Cr12  1  0.32802553  0.32623517  0.99112105  1
  Cr  Cr13  1  0.49396734  0.49418762  0.16081051  1
  Cr  Cr14  1  0.32658178  0.32665210  0.32866851  1
  Cr  Cr15  1  0.32669101  0.66064353  -0.00699059  1
  Fe  Fe16  1  0.49395003  0.82658633  0.15922801  1
  Cr  Cr17  1  0.32914231  0.65943310  0.32567878  1
  Fe  Fe18  1  0.65826430  -0.00668596  -0.00672994  1
  Fe  Fe19  1  0.82595916  0.15863698  0.15928867  1
  Cr  Cr20  1  0.66051735  0.99123175  0.32284880  1
  Cr  Cr21  1  0.65958004  0.32360822  0.99088128  1
  Cr  Cr22  1  0.82621988  0.49388453  0.16153342  1
  Cr  Cr23  1  0.65984440  0.32833983  0.32735576  1
  Cr  Cr24  1  0.65850492  0.66084489  -0.00626551  1
  Fe  Fe25  1  0.82434422  0.82646649  0.16012530  1
  Ni  Ni26  1  0.65940347  0.65919644  0.32747757  1
  Ni  Ni27  1  0.15929145  0.16037207  0.49273521  1
  Cr  Cr28  1  -0.00692901  -0.00654089  0.65844144  1
  Cr  Cr29  1  0.16102234  0.15940140  0.82630629  1
  Cr  Cr30  1  0.15939324  0.49067845  0.49209454  1
  Cr  Cr31  1  0.99182341  0.32507121  0.65862897  1
  Cr  Cr32  1  0.15961337  0.49259580  0.82848850  1
  Cr  Cr33  1  0.15934708  0.82853642  0.49438223  1
  Cr  Cr34  1  0.99199997  0.66028548  0.65971503  1
  Cr  Cr35  1  0.16027172  0.82682209  0.82635487  1
  Cr  Cr36  1  0.49082015  0.16071947  0.49281724  1
  Cr  Cr37  1  0.32545543  -0.00655431  0.65830540  1
  Fe  Fe38  1  0.49318487  0.15909232  0.82751736  1
  Ni  Ni39  1  0.49586276  0.49424384  0.49332472  1
  Cr  Cr40  1  0.32842850  0.32681448  0.65903284  1
  Fe  Fe41  1  0.49328695  0.49265946  0.82547383  1
  Cr  Cr42  1  0.49492683  0.82408281  0.49204940  1
  Cr  Cr43  1  0.32826850  0.65855838  0.66012890  1
  Cr  Cr44  1  0.49372619  0.82793387  0.82706064  1
  Cr  Cr45  1  0.82788118  0.16066830  0.49285729  1
  Cr  Cr46  1  0.66028959  -0.00636926  0.66187922  1
  Fe  Fe47  1  0.82524509  0.15921707  0.82656528  1
  Fe  Fe48  1  0.82376389  0.49371708  0.49244586  1
  Cr  Cr49  1  0.65856032  0.32788308  0.66057838  1
  Cr  Cr50  1  0.82535880  0.49278371  0.82451209  1
  Cr  Cr51  1  0.82454514  0.82336232  0.49357557  1
  Fe  Fe52  1  0.65873393  0.65803190  0.65833658  1
  Cr  Cr53  1  0.82481429  0.82652637  0.82533492  1
" 