4363,Ni8Fe18Cr72_19,-209.280987093396, 195.870340609996,Ni8Fe18Cr72,"# generated using pymatgen
 data_Cr41Fe9Ni4
_symmetry_space_group_name_H-M   'P 1'
_cell_length_a   7.56486931
_cell_length_b   7.56486931
_cell_length_c   10.69834077
_cell_angle_alpha   90.00000000
_cell_angle_beta   90.00000000
_cell_angle_gamma   90.00000000
_symmetry_Int_Tables_number   1
_chemical_formula_structural   Cr41Fe9Ni4
_chemical_formula_sum   'Cr41 Fe9 Ni4'
_cell_volume   612.23659687
_cell_formula_units_Z   1
loop_
 _symmetry_equiv_pos_site_id
 _symmetry_equiv_pos_as_xyz
  1  'x, y, z'
loop_
 _atom_site_type_symbol
 _atom_site_label
 _atom_site_symmetry_multiplicity
 _atom_site_fract_x
 _atom_site_fract_y
 _atom_site_fract_z
 _atom_site_occupancy
  Cr  Cr0  1  0.99269466  0.99316764  0.99120364  1
  Cr  Cr1  1  0.15880564  0.15998855  0.16120903  1
  Ni  Ni2  1  -0.00555376  -0.00376115  0.32836753  1
  Ni  Ni3  1  0.99161261  0.32887504  -0.00628434  1
  Cr  Cr4  1  0.15853519  0.49157553  0.16083070  1
  Fe  Fe5  1  -0.00606029  0.32525395  0.32738287  1
  Cr  Cr6  1  -0.00558293  0.65885725  0.98937917  1
  Cr  Cr7  1  0.16043269  0.82827841  0.16090323  1
  Cr  Cr8  1  -0.00610533  0.65825303  0.32936353  1
  Cr  Cr9  1  0.32879763  -0.00621608  -0.00603819  1
  Fe  Fe10  1  0.49480539  0.16276305  0.15912787  1
  Cr  Cr11  1  0.32900034  -0.00397889  0.32526561  1
  Cr  Cr12  1  0.32740990  0.32734248  -0.00496820  1
  Fe  Fe13  1  0.49439543  0.49245090  0.15831755  1
  Cr  Cr14  1  0.32659616  0.32719814  0.32764212  1
  Cr  Cr15  1  0.32629021  0.65917347  -0.00639983  1
  Fe  Fe16  1  0.49356092  0.82575387  0.15950476  1
  Cr  Cr17  1  0.32724636  0.65732949  0.32630677  1
  Cr  Cr18  1  0.65954232  -0.00523247  -0.00440857  1
  Cr  Cr19  1  0.83004722  0.16229406  0.15950661  1
  Cr  Cr20  1  0.66117818  -0.00523857  0.32558331  1
  Ni  Ni21  1  0.65973697  0.32783497  -0.00555377  1
  Cr  Cr22  1  0.82575716  0.49199948  0.15758174  1
  Cr  Cr23  1  0.65863034  0.32590738  0.32646513  1
  Fe  Fe24  1  0.65912196  0.65854628  -0.00522067  1
  Cr  Cr25  1  0.82853084  0.82577945  0.16120473  1
  Cr  Cr26  1  0.65938089  0.65978315  0.32377606  1
  Ni  Ni27  1  0.15852459  0.16193809  0.49046751  1
  Cr  Cr28  1  0.99331985  0.99352241  0.66152413  1
  Cr  Cr29  1  0.15980631  0.16070812  0.82965492  1
  Fe  Fe30  1  0.15941054  0.49136529  0.49246483  1
  Cr  Cr31  1  -0.00459334  0.32796932  0.65916995  1
  Fe  Fe32  1  0.15995097  0.49097213  0.82845461  1
  Cr  Cr33  1  0.16082315  0.82989589  0.49268184  1
  Cr  Cr34  1  -0.00504096  0.65826450  0.66207630  1
  Fe  Fe35  1  0.16096389  0.82621177  0.82701807  1
  Cr  Cr36  1  0.49172858  0.16113284  0.49735467  1
  Cr  Cr37  1  0.32528089  -0.00508746  0.66157859  1
  Cr  Cr38  1  0.49433679  0.16246398  0.82529853  1
  Cr  Cr39  1  0.49414857  0.49392931  0.49570131  1
  Cr  Cr40  1  0.32449437  0.32760841  0.65889213  1
  Cr  Cr41  1  0.49502411  0.49291038  0.82646641  1
  Cr  Cr42  1  0.49214772  0.82579795  0.49385526  1
  Cr  Cr43  1  0.32297178  0.65742046  0.66082991  1
  Cr  Cr44  1  0.49208786  0.82542023  0.82584900  1
  Cr  Cr45  1  0.82951860  0.16139336  0.49321872  1
  Cr  Cr46  1  0.66186296  -0.00461284  0.65927705  1
  Cr  Cr47  1  0.82663626  0.16369082  0.82814311  1
  Cr  Cr48  1  0.82609568  0.49199796  0.49297653  1
  Fe  Fe49  1  0.66163382  0.32763864  0.66072979  1
  Cr  Cr50  1  0.82511562  0.49131934  0.82920757  1
  Cr  Cr51  1  0.82777851  0.82688734  0.49170970  1
  Cr  Cr52  1  0.66223953  0.66055122  0.65917103  1
  Cr  Cr53  1  0.82578831  0.82557378  0.82704179  1
" 