2844,Ni8Fe18Cr72_7,-209.197153675665, 191.174543583871,Ni8Fe18Cr72,"# generated using pymatgen
 data_Cr41Fe9Ni4
_symmetry_space_group_name_H-M   'P 1'
_cell_length_a   7.56998776
_cell_length_b   7.56998776
_cell_length_c   10.70557936
_cell_angle_alpha   90.00000000
_cell_angle_beta   90.00000000
_cell_angle_gamma   90.00000000
_symmetry_Int_Tables_number   1
_chemical_formula_structural   Cr41Fe9Ni4
_chemical_formula_sum   'Cr41 Fe9 Ni4'
_cell_volume   613.48017146
_cell_formula_units_Z   1
loop_
 _symmetry_equiv_pos_site_id
 _symmetry_equiv_pos_as_xyz
  1  'x, y, z'
loop_
 _atom_site_type_symbol
 _atom_site_label
 _atom_site_symmetry_multiplicity
 _atom_site_fract_x
 _atom_site_fract_y
 _atom_site_fract_z
 _atom_site_occupancy
  Fe  Fe0  1  0.99262063  -0.00633919  -0.00632290  1
  Cr  Cr1  1  0.16017964  0.15805858  0.15986602  1
  Cr  Cr2  1  0.99265011  -0.00512019  0.32977723  1
  Cr  Cr3  1  0.99112183  0.32710159  -0.00487402  1
  Fe  Fe4  1  0.16098124  0.49220601  0.15960010  1
  Cr  Cr5  1  -0.00567586  0.32707140  0.32328166  1
  Cr  Cr6  1  -0.00664253  0.65722369  -0.00354503  1
  Cr  Cr7  1  0.15867953  0.82772895  0.15761151  1
  Cr  Cr8  1  0.99307773  0.65713080  0.32477401  1
  Fe  Fe9  1  0.32871520  -0.00450011  0.99304028  1
  Cr  Cr10  1  0.49452743  0.16018880  0.16173138  1
  Cr  Cr11  1  0.32769362  -0.00632577  0.32632657  1
  Cr  Cr12  1  0.32661536  0.32731007  -0.00516014  1
  Cr  Cr13  1  0.49390826  0.49176256  0.16176099  1
  Fe  Fe14  1  0.32490076  0.32531064  0.32722550  1
  Cr  Cr15  1  0.32876448  0.66252226  0.99225422  1
  Cr  Cr16  1  0.49488235  0.82785924  0.15753569  1
  Cr  Cr17  1  0.32557609  0.65902235  0.32343826  1
  Fe  Fe18  1  0.65833664  0.99295264  -0.00628326  1
  Cr  Cr19  1  0.82471064  0.15757292  0.15663397  1
  Ni  Ni20  1  0.66037900  -0.00676280  0.32614939  1
  Ni  Ni21  1  0.65922901  0.32531195  -0.00492269  1
  Fe  Fe22  1  0.82369928  0.49267475  0.15815578  1
  Cr  Cr23  1  0.66219694  0.32538098  0.32491822  1
  Fe  Fe24  1  0.65999055  0.65676264  -0.00631293  1
  Cr  Cr25  1  0.82652795  0.82783800  0.16154004  1
  Cr  Cr26  1  0.66041014  0.66111983  0.32699826  1
  Ni  Ni27  1  0.16146429  0.16174964  0.49361948  1
  Cr  Cr28  1  0.99284916  -0.00552577  0.65719303  1
  Cr  Cr29  1  0.15983184  0.15906231  0.82635072  1
  Cr  Cr30  1  0.16242081  0.49137630  0.49424223  1
  Cr  Cr31  1  -0.00667752  0.32430480  0.66058557  1
  Cr  Cr32  1  0.16100413  0.49292972  0.82269524  1
  Cr  Cr33  1  0.15858368  0.82678633  0.49301491  1
  Cr  Cr34  1  0.99180437  0.66096853  0.65816079  1
  Cr  Cr35  1  0.15840767  0.82845115  0.82969883  1
  Cr  Cr36  1  0.49192450  0.16179342  0.48963775  1
  Cr  Cr37  1  0.32804892  -0.00566821  0.66153378  1
  Cr  Cr38  1  0.49382247  0.16145211  0.82888224  1
  Cr  Cr39  1  0.49174020  0.49151813  0.49462651  1
  Ni  Ni40  1  0.32610971  0.32296480  0.65701325  1
  Cr  Cr41  1  0.49359246  0.49190053  0.82397758  1
  Cr  Cr42  1  0.49424763  0.82631995  0.49066625  1
  Cr  Cr43  1  0.32845571  0.66276388  0.66255820  1
  Fe  Fe44  1  0.49537161  0.82868456  0.82960665  1
  Cr  Cr45  1  0.82606079  0.15889302  0.49229079  1
  Cr  Cr46  1  0.65845886  0.99261072  0.65749462  1
  Cr  Cr47  1  0.82546393  0.15827215  0.83057714  1
  Cr  Cr48  1  0.82568131  0.49438443  0.49454130  1
  Cr  Cr49  1  0.65956663  0.32438515  0.66142161  1
  Cr  Cr50  1  0.82447080  0.49314944  0.82830026  1
  Fe  Fe51  1  0.82561858  0.82770343  0.49098557  1
  Cr  Cr52  1  0.65935570  0.66294604  0.66031567  1
  Cr  Cr53  1  0.82710739  0.82760250  0.82765354  1
" 