1941,Ni8Fe66Cr24_7,-223.115425926797, 165.119716735796,Ni8Fe66Cr24,"# generated using pymatgen
 data_Cr7(Fe9Ni)2
_symmetry_space_group_name_H-M   'P 1'
_cell_length_a   7.47596339
_cell_length_b   7.47596339
_cell_length_c   10.57260881
_cell_angle_alpha   90.00000000
_cell_angle_beta   90.00000000
_cell_angle_gamma   90.00000000
_symmetry_Int_Tables_number   1
_chemical_formula_structural   Cr7(Fe9Ni)2
_chemical_formula_sum   'Cr14 Fe36 Ni4'
_cell_volume   590.90340836
_cell_formula_units_Z   2
loop_
 _symmetry_equiv_pos_site_id
 _symmetry_equiv_pos_as_xyz
  1  'x, y, z'
loop_
 _atom_site_type_symbol
 _atom_site_label
 _atom_site_symmetry_multiplicity
 _atom_site_fract_x
 _atom_site_fract_y
 _atom_site_fract_z
 _atom_site_occupancy
  Fe  Fe0  1  0.99851944  0.99919383  0.99638266  1
  Cr  Cr1  1  0.16710863  0.16191240  0.16936125  1
  Fe  Fe2  1  0.99834539  0.99521214  0.33471847  1
  Fe  Fe3  1  0.00103194  0.32944140  0.99711364  1
  Fe  Fe4  1  0.16678114  0.49515873  0.16527402  1
  Fe  Fe5  1  0.99861175  0.33369356  0.33543727  1
  Cr  Cr6  1  0.00330907  0.66540690  -0.00054780  1
  Fe  Fe7  1  0.16496648  0.83237021  0.16547429  1
  Cr  Cr8  1  -0.00048538  0.66498321  0.33325090  1
  Fe  Fe9  1  0.33218132  0.00006491  0.99723798  1
  Fe  Fe10  1  0.50129293  0.16698361  0.16586703  1
  Fe  Fe11  1  0.33294580  0.99688437  0.33474369  1
  Fe  Fe12  1  0.33226194  0.32992095  0.99782615  1
  Cr  Cr13  1  0.50172688  0.50101805  0.16374230  1
  Fe  Fe14  1  0.33527350  0.33060821  0.33362765  1
  Fe  Fe15  1  0.33308716  0.66744396  0.99856671  1
  Cr  Cr16  1  0.49924305  0.83275033  0.16497425  1
  Cr  Cr17  1  0.32878568  0.66365552  0.33395630  1
  Ni  Ni18  1  0.66503633  0.00301351  0.99701566  1
  Cr  Cr19  1  0.83760657  0.16693899  0.16651636  1
  Cr  Cr20  1  0.66543227  0.00346414  0.33590300  1
  Fe  Fe21  1  0.66588490  0.32990713  0.99808351  1
  Cr  Cr22  1  0.83041357  0.49992908  0.16582449  1
  Fe  Fe23  1  0.66642210  0.33522709  0.33589568  1
  Fe  Fe24  1  0.66839511  0.67119504  0.99804382  1
  Fe  Fe25  1  0.83280311  0.83553296  0.16370825  1
  Fe  Fe26  1  0.66710872  0.66898644  0.33528733  1
  Cr  Cr27  1  0.16309680  0.16199374  0.49730502  1
  Fe  Fe28  1  0.99755725  0.99893190  0.66768427  1
  Fe  Fe29  1  0.16519887  0.16510301  0.83105424  1
  Fe  Fe30  1  0.16528984  0.49623636  0.50254294  1
  Fe  Fe31  1  0.99848391  0.33232779  0.66588037  1
  Fe  Fe32  1  0.16636072  0.49963405  0.83031106  1
  Fe  Fe33  1  0.16558802  0.83053127  0.50264193  1
  Fe  Fe34  1  0.99865817  0.66689575  0.66609160  1
  Fe  Fe35  1  0.16472915  0.83288318  0.83021784  1
  Ni  Ni36  1  0.49598017  0.16609335  0.49987409  1
  Fe  Fe37  1  0.33225452  0.00061920  0.66553630  1
  Fe  Fe38  1  0.50080520  0.16563259  0.83035521  1
  Cr  Cr39  1  0.50276319  0.50202204  0.50147374  1
  Fe  Fe40  1  0.33234736  0.33057416  0.66640842  1
  Cr  Cr41  1  0.50015843  0.50042367  0.83263671  1
  Fe  Fe42  1  0.49884728  0.83533405  0.50250786  1
  Fe  Fe43  1  0.33001515  0.66615382  0.66511065  1
  Cr  Cr44  1  0.49950480  0.83234128  0.83009299  1
  Fe  Fe45  1  0.82967613  0.16947832  0.50106249  1
  Fe  Fe46  1  0.66703771  0.00136365  0.66569231  1
  Fe  Fe47  1  0.83199106  0.16390420  0.83210290  1
  Ni  Ni48  1  0.83338121  0.50151696  0.50061139  1
  Fe  Fe49  1  0.66655012  0.33073254  0.66434030  1
  Cr  Cr50  1  0.83141929  0.49832467  0.83220461  1
  Fe  Fe51  1  0.83242250  0.83450956  0.50266793  1
  Fe  Fe52  1  0.66988235  0.66859064  0.66513565  1
  Ni  Ni53  1  0.83371143  0.83475163  0.83297232  1
" 