1773,Ni8Fe20Cr71_11,-209.952432604926, 189.269966680544,Ni8Fe20Cr71,"# generated using pymatgen
 data_Cr20Fe5Ni2
_symmetry_space_group_name_H-M   'P 1'
_cell_length_a   7.56858754
_cell_length_b   7.56858754
_cell_length_c   10.70359915
_cell_angle_alpha   90.00000000
_cell_angle_beta   90.00000000
_cell_angle_gamma   90.00000000
_symmetry_Int_Tables_number   1
_chemical_formula_structural   Cr20Fe5Ni2
_chemical_formula_sum   'Cr40 Fe10 Ni4'
_cell_volume   613.13980748
_cell_formula_units_Z   2
loop_
 _symmetry_equiv_pos_site_id
 _symmetry_equiv_pos_as_xyz
  1  'x, y, z'
loop_
 _atom_site_type_symbol
 _atom_site_label
 _atom_site_symmetry_multiplicity
 _atom_site_fract_x
 _atom_site_fract_y
 _atom_site_fract_z
 _atom_site_occupancy
  Cr  Cr0  1  0.99266453  -0.00622742  0.99036661  1
  Cr  Cr1  1  0.15924248  0.15948789  0.16033286  1
  Fe  Fe2  1  0.99241620  0.99243589  0.32749993  1
  Fe  Fe3  1  -0.00574715  0.32575137  0.99244548  1
  Cr  Cr4  1  0.15912743  0.49277768  0.15905842  1
  Cr  Cr5  1  -0.00604402  0.32614189  0.32587179  1
  Cr  Cr6  1  0.99180955  0.66037439  0.99270463  1
  Cr  Cr7  1  0.16195328  0.82760781  0.16104046  1
  Cr  Cr8  1  0.99277137  0.66144008  0.32890618  1
  Cr  Cr9  1  0.32743978  -0.00398832  0.99267663  1
  Fe  Fe10  1  0.49368880  0.15879515  0.16043888  1
  Fe  Fe11  1  0.32700076  -0.00628373  0.32623267  1
  Cr  Cr12  1  0.32717359  0.32474017  0.99203090  1
  Cr  Cr13  1  0.49353455  0.49376564  0.15968523  1
  Cr  Cr14  1  0.32696904  0.32504551  0.32659144  1
  Cr  Cr15  1  0.32729480  0.65912729  -0.00651102  1
  Cr  Cr16  1  0.49268768  0.82861216  0.16107203  1
  Cr  Cr17  1  0.32587678  0.66025117  0.32660904  1
  Fe  Fe18  1  0.66003989  0.99310023  0.99239428  1
  Cr  Cr19  1  0.82621330  0.16033477  0.16039529  1
  Fe  Fe20  1  0.66045989  0.99280961  0.32719349  1
  Cr  Cr21  1  0.65853414  0.32558255  -0.00645629  1
  Cr  Cr22  1  0.82721503  0.49105041  0.15817877  1
  Cr  Cr23  1  0.65894855  0.32473823  0.32592525  1
  Cr  Cr24  1  0.66077187  0.66063146  0.99196931  1
  Cr  Cr25  1  0.82523540  0.82848845  0.16014229  1
  Cr  Cr26  1  0.66122640  0.66174372  0.32746108  1
  Cr  Cr27  1  0.15970724  0.15989213  0.49313460  1
  Cr  Cr28  1  0.99245651  0.99220192  0.66048940  1
  Ni  Ni29  1  0.16109977  0.16137014  0.82673584  1
  Fe  Fe30  1  0.15987789  0.49335693  0.49362761  1
  Cr  Cr31  1  -0.00488491  0.32593230  0.65973835  1
  Cr  Cr32  1  0.16150708  0.49083469  0.82688001  1
  Cr  Cr33  1  0.15962104  0.82701040  0.49152540  1
  Cr  Cr34  1  0.99159699  0.66174183  0.65826196  1
  Cr  Cr35  1  0.15979377  0.82843484  0.82730988  1
  Cr  Cr36  1  0.49360792  0.16006949  0.49328094  1
  Cr  Cr37  1  0.32606001  -0.00327008  0.66201419  1
  Fe  Fe38  1  0.49237960  0.16165130  0.82618358  1
  Cr  Cr39  1  0.49269539  0.49287646  0.49598561  1
  Fe  Fe40  1  0.32736877  0.32661162  0.66170158  1
  Ni  Ni41  1  0.49320885  0.49081757  0.82509412  1
  Cr  Cr42  1  0.49360230  0.82693074  0.49109659  1
  Cr  Cr43  1  0.32700186  0.65713162  0.65978006  1
  Cr  Cr44  1  0.49441980  0.82595396  0.82771570  1
  Cr  Cr45  1  0.82656161  0.15898554  0.49218713  1
  Cr  Cr46  1  0.66135904  0.99321331  0.66113890  1
  Cr  Cr47  1  0.82730227  0.15973389  0.82728701  1
  Cr  Cr48  1  0.82647817  0.49296540  0.49393984  1
  Fe  Fe49  1  0.65794143  0.32712698  0.66119219  1
  Cr  Cr50  1  0.82482417  0.49255326  0.82775314  1
  Ni  Ni51  1  0.82720224  0.82747449  0.49185883  1
  Cr  Cr52  1  0.66127308  0.65978924  0.66044690  1
  Ni  Ni53  1  0.82520302  0.82804482  0.82715388  1
" 