174,Ni8Fe77Cr13_0,-224.859301703104, 155.101140949561,Ni8Fe77Cr13,"# generated using pymatgen
 data_Cr9Fe41Ni4
_symmetry_space_group_name_H-M   'P 1'
_cell_length_a   7.45835140
_cell_length_b   7.45835140
_cell_length_c   10.54770170
_cell_angle_alpha   90.00000000
_cell_angle_beta   90.00000000
_cell_angle_gamma   90.00000000
_symmetry_Int_Tables_number   1
_chemical_formula_structural   Cr9Fe41Ni4
_chemical_formula_sum   'Cr9 Fe41 Ni4'
_cell_volume   586.73706188
_cell_formula_units_Z   1
loop_
 _symmetry_equiv_pos_site_id
 _symmetry_equiv_pos_as_xyz
  1  'x, y, z'
loop_
 _atom_site_type_symbol
 _atom_site_label
 _atom_site_symmetry_multiplicity
 _atom_site_fract_x
 _atom_site_fract_y
 _atom_site_fract_z
 _atom_site_occupancy
  Fe  Fe0  1  0.99979369  0.00076279  1.00043252  1
  Fe  Fe1  1  0.16678068  0.16612617  0.16738683  1
  Fe  Fe2  1  0.00187379  0.99938696  0.33302733  1
  Fe  Fe3  1  0.00172707  0.33271259  0.99952074  1
  Cr  Cr4  1  0.16628042  0.49989237  0.16530851  1
  Fe  Fe5  1  0.00070398  0.33411015  0.33395793  1
  Fe  Fe6  1  1.00014056  0.66827649  1.00033225  1
  Ni  Ni7  1  0.16548082  0.83565584  0.16673955  1
  Fe  Fe8  1  0.99882360  0.66825283  0.33423507  1
  Cr  Cr9  1  0.33190696  0.00071219  0.00218944  1
  Fe  Fe10  1  0.49988854  0.16553263  0.16865420  1
  Fe  Fe11  1  0.33350781  0.00165867  0.33327540  1
  Fe  Fe12  1  0.33231933  0.33353412  0.99890049  1
  Cr  Cr13  1  0.50092994  0.50131455  0.16607861  1
  Fe  Fe14  1  0.33398466  0.33114975  0.33523686  1
  Fe  Fe15  1  0.33317524  0.66672982  0.99992362  1
  Fe  Fe16  1  0.50106758  0.83506797  0.16703062  1
  Cr  Cr17  1  0.33401836  0.66922344  0.33469294  1
  Fe  Fe18  1  0.66924842  0.99990030  0.00068170  1
  Fe  Fe19  1  0.83507913  0.16640963  0.16814738  1
  Fe  Fe20  1  0.66636490  0.99977294  0.33383944  1
  Cr  Cr21  1  0.66792499  0.33376325  0.99906811  1
  Fe  Fe22  1  0.83513878  0.50180113  0.16795405  1
  Fe  Fe23  1  0.66706041  0.33419854  0.33367576  1
  Fe  Fe24  1  0.66843283  0.66865904  1.00047106  1
  Fe  Fe25  1  0.83454593  0.83353826  0.16722885  1
  Fe  Fe26  1  0.66933062  0.66777652  0.33471681  1
  Fe  Fe27  1  0.16920585  0.16803638  0.50037873  1
  Cr  Cr28  1  0.00119707  1.00012396  0.66915325  1
  Ni  Ni29  1  0.16613085  0.16988591  0.83401973  1
  Fe  Fe30  1  0.16671965  0.50007583  0.50140979  1
  Fe  Fe31  1  0.00136221  0.33577254  0.66826920  1
  Fe  Fe32  1  0.16780325  0.50039675  0.83374455  1
  Fe  Fe33  1  0.16740364  0.83363656  0.50029117  1
  Fe  Fe34  1  0.00198182  0.66649361  0.66717723  1
  Fe  Fe35  1  0.16624729  0.83282934  0.83418183  1
  Fe  Fe36  1  0.49969315  0.16689598  0.50082805  1
  Fe  Fe37  1  0.33509925  0.00071217  0.66707751  1
  Fe  Fe38  1  0.50032799  0.16825400  0.83226862  1
  Fe  Fe39  1  0.50037307  0.49940821  0.50067237  1
  Fe  Fe40  1  0.33417088  0.33368345  0.66760647  1
  Fe  Fe41  1  0.49827146  0.49903450  0.83386465  1
  Fe  Fe42  1  0.50083042  0.83544422  0.50151025  1
  Ni  Ni43  1  0.33181887  0.66576516  0.66725179  1
  Cr  Cr44  1  0.50114030  0.83360556  0.83423623  1
  Cr  Cr45  1  0.83293396  0.16758406  0.50133465  1
  Ni  Ni46  1  0.66641084  0.00284373  0.66806043  1
  Fe  Fe47  1  0.83403986  0.16669846  0.83338398  1
  Fe  Fe48  1  0.83465531  0.50121268  0.49977040  1
  Fe  Fe49  1  0.66621273  0.33299437  0.66808039  1
  Fe  Fe50  1  0.83567385  0.50016519  0.83401945  1
  Fe  Fe51  1  0.83351275  0.83295834  0.49958996  1
  Cr  Cr52  1  0.66733635  0.66616400  0.66566294  1
  Fe  Fe53  1  0.83539946  0.83488729  0.83493149  1
" 