3781,Ni8Fe78Cr12_6,-224.817649923511, 149.737223828327,Ni8Fe78Cr12,"# generated using pymatgen
 data_Cr4Fe21Ni2
_symmetry_space_group_name_H-M   'P 1'
_cell_length_a   7.45421624
_cell_length_b   7.45421624
_cell_length_c   10.54185370
_cell_angle_alpha   90.00000000
_cell_angle_beta   90.00000000
_cell_angle_gamma   90.00000000
_symmetry_Int_Tables_number   1
_chemical_formula_structural   Cr4Fe21Ni2
_chemical_formula_sum   'Cr8 Fe42 Ni4'
_cell_volume   585.76168194
_cell_formula_units_Z   2
loop_
 _symmetry_equiv_pos_site_id
 _symmetry_equiv_pos_as_xyz
  1  'x, y, z'
loop_
 _atom_site_type_symbol
 _atom_site_label
 _atom_site_symmetry_multiplicity
 _atom_site_fract_x
 _atom_site_fract_y
 _atom_site_fract_z
 _atom_site_occupancy
  Fe  Fe0  1  0.00146056  0.00204965  0.00199497  1
  Fe  Fe1  1  0.16681316  0.16758998  0.16743577  1
  Cr  Cr2  1  1.00075428  0.99974665  0.33385759  1
  Fe  Fe3  1  0.99917961  0.33385356  0.00116170  1
  Fe  Fe4  1  0.16638398  0.50098037  0.16817868  1
  Fe  Fe5  1  1.00035477  0.33571414  0.33347537  1
  Fe  Fe6  1  0.00175744  0.66668107  0.00147319  1
  Fe  Fe7  1  0.16767865  0.83401071  0.16678776  1
  Fe  Fe8  1  1.00002750  0.66641758  0.33464030  1
  Fe  Fe9  1  0.33412211  0.99946880  1.00075403  1
  Fe  Fe10  1  0.50250369  0.16653350  0.16912449  1
  Fe  Fe11  1  0.33581364  0.00183642  0.33390458  1
  Cr  Cr12  1  0.33449606  0.33412949  1.00044133  1
  Fe  Fe13  1  0.50195260  0.50105519  0.16824868  1
  Fe  Fe14  1  0.33420580  0.33244252  0.33368891  1
  Fe  Fe15  1  0.33421544  0.66886852  1.00082242  1
  Fe  Fe16  1  0.50171575  0.83499499  0.16799171  1
  Fe  Fe17  1  0.33314759  0.66830338  0.33273578  1
  Fe  Fe18  1  0.66699876  0.00205079  0.00236481  1
  Ni  Ni19  1  0.83362866  0.16822212  0.16530738  1
  Ni  Ni20  1  0.66624032  0.00091751  0.33373599  1
  Fe  Fe21  1  0.66918793  0.33394666  0.00088885  1
  Fe  Fe22  1  0.83424617  0.50019250  0.16803426  1
  Fe  Fe23  1  0.66801973  0.33304656  0.33336851  1
  Fe  Fe24  1  0.66660875  0.66658625  0.00120178  1
  Fe  Fe25  1  0.83318513  0.83456760  0.16696738  1
  Fe  Fe26  1  0.66941160  0.66802995  0.33339883  1
  Fe  Fe27  1  0.17006937  0.16880487  0.50165443  1
  Fe  Fe28  1  0.00192337  1.00078297  0.66747288  1
  Fe  Fe29  1  0.16664631  0.16668893  0.83348892  1
  Fe  Fe30  1  0.16607102  0.50032121  0.50087759  1
  Fe  Fe31  1  0.00237559  0.33543215  0.66793897  1
  Fe  Fe32  1  0.16674060  0.50171775  0.83352467  1
  Fe  Fe33  1  0.16682800  0.83345223  0.50162497  1
  Fe  Fe34  1  0.00236488  0.66637134  0.66646407  1
  Fe  Fe35  1  0.16890149  0.83417488  0.83417004  1
  Ni  Ni36  1  0.49861202  0.16599184  0.49974554  1
  Fe  Fe37  1  0.33416874  0.00187232  0.66792073  1
  Fe  Fe38  1  0.50102468  0.16598324  0.83354182  1
  Cr  Cr39  1  0.49960165  0.49945496  0.49898444  1
  Fe  Fe40  1  0.33269354  0.33332381  0.66809958  1
  Fe  Fe41  1  0.50030426  0.50179429  0.83478302  1
  Cr  Cr42  1  0.50055431  0.83693395  0.50059148  1
  Fe  Fe43  1  0.33163220  0.66738608  0.66901885  1
  Fe  Fe44  1  0.49884740  0.83480253  0.83470921  1
  Cr  Cr45  1  0.83327591  0.16758941  0.50191178  1
  Fe  Fe46  1  0.66648777  0.00185155  0.66737039  1
  Fe  Fe47  1  0.83490823  0.16815426  0.83532014  1
  Ni  Ni48  1  0.83842736  0.50221397  0.49921099  1
  Cr  Cr49  1  0.66668633  0.33358798  0.66919097  1
  Fe  Fe50  1  0.83553815  0.49954078  0.83494165  1
  Fe  Fe51  1  0.83448624  0.83284487  0.50079659  1
  Cr  Cr52  1  0.66869318  0.66758102  0.66711343  1
  Cr  Cr53  1  0.83450437  0.83558703  0.83402446  1
" 