6451,Ni8Fe78Cr13_8,-224.729653073, 150.017643513683,Ni8Fe78Cr13,"# generated using pymatgen
 data_Cr4Fe21Ni2
_symmetry_space_group_name_H-M   'P 1'
_cell_length_a   7.45064548
_cell_length_b   7.45064548
_cell_length_c   10.53680389
_cell_angle_alpha   90.00000000
_cell_angle_beta   90.00000000
_cell_angle_gamma   90.00000000
_symmetry_Int_Tables_number   1
_chemical_formula_structural   Cr4Fe21Ni2
_chemical_formula_sum   'Cr8 Fe42 Ni4'
_cell_volume   584.92030239
_cell_formula_units_Z   2
loop_
 _symmetry_equiv_pos_site_id
 _symmetry_equiv_pos_as_xyz
  1  'x, y, z'
loop_
 _atom_site_type_symbol
 _atom_site_label
 _atom_site_symmetry_multiplicity
 _atom_site_fract_x
 _atom_site_fract_y
 _atom_site_fract_z
 _atom_site_occupancy
  Ni  Ni0  1  0.00167109  1.00101761  0.99973448  1
  Fe  Fe1  1  0.16544182  0.16747807  0.16830439  1
  Ni  Ni2  1  1.00100087  1.00076526  0.33483533  1
  Fe  Fe3  1  1.00033390  0.33314296  0.00215477  1
  Fe  Fe4  1  0.16776073  0.50053320  0.16792765  1
  Ni  Ni5  1  0.00137637  0.33433847  0.33311063  1
  Fe  Fe6  1  1.00041066  0.66908883  0.00145672  1
  Fe  Fe7  1  0.16737370  0.83529052  0.16770868  1
  Fe  Fe8  1  1.00092102  0.66749318  0.33473747  1
  Fe  Fe9  1  0.33312792  1.00036000  1.00018846  1
  Cr  Cr10  1  0.50024880  0.16642760  0.16788420  1
  Fe  Fe11  1  0.33281510  0.99970567  0.33393125  1
  Fe  Fe12  1  0.33394983  0.33386157  1.00048519  1
  Fe  Fe13  1  0.50038849  0.50319513  0.16702236  1
  Fe  Fe14  1  0.33116843  0.33595286  0.33431182  1
  Fe  Fe15  1  0.33458165  0.66907959  0.00182462  1
  Fe  Fe16  1  0.50112176  0.83296827  0.16781313  1
  Fe  Fe17  1  0.33355032  0.66764295  0.33444547  1
  Fe  Fe18  1  0.66903146  1.00043806  1.00035607  1
  Fe  Fe19  1  0.83746862  0.16674518  0.16743692  1
  Fe  Fe20  1  0.67026410  0.99890306  0.33452417  1
  Fe  Fe21  1  0.66901959  0.33459579  1.00057242  1
  Fe  Fe22  1  0.83515466  0.50126796  0.16737410  1
  Cr  Cr23  1  0.66976635  0.33590555  0.33508683  1
  Fe  Fe24  1  0.66830989  0.66826753  1.00109968  1
  Fe  Fe25  1  0.83480783  0.83529116  0.16772994  1
  Fe  Fe26  1  0.66883059  0.66915207  0.33445895  1
  Cr  Cr27  1  0.16681288  0.16892647  0.49941200  1
  Fe  Fe28  1  0.99958479  1.00090592  0.66851812  1
  Fe  Fe29  1  0.16777810  0.16637467  0.83561304  1
  Fe  Fe30  1  0.16942609  0.50164503  0.49996325  1
  Cr  Cr31  1  0.99964677  0.33298315  0.66710279  1
  Cr  Cr32  1  0.16894446  0.50115991  0.83497875  1
  Fe  Fe33  1  0.16762848  0.83354683  0.49943795  1
  Cr  Cr34  1  1.00067015  0.66991688  0.66667406  1
  Fe  Fe35  1  0.16736244  0.83615862  0.83615637  1
  Cr  Cr36  1  0.50202304  0.16807660  0.50117529  1
  Cr  Cr37  1  0.33376932  0.99981673  0.67028744  1
  Fe  Fe38  1  0.50126126  0.16905231  0.83471730  1
  Fe  Fe39  1  0.49985517  0.50271051  0.50222183  1
  Ni  Ni40  1  0.33792673  0.33635205  0.66823779  1
  Fe  Fe41  1  0.50215145  0.50074643  0.83405871  1
  Fe  Fe42  1  0.50166738  0.83249394  0.50038884  1
  Fe  Fe43  1  0.33630757  0.66625038  0.66703166  1
  Fe  Fe44  1  0.50164822  0.83350346  0.83510467  1
  Fe  Fe45  1  0.83507206  0.16629717  0.50041593  1
  Fe  Fe46  1  0.66959568  1.00098851  0.66842198  1
  Fe  Fe47  1  0.83426476  0.16686988  0.83544810  1
  Fe  Fe48  1  0.83402404  0.50113348  0.50010640  1
  Fe  Fe49  1  0.66639430  0.33513229  0.66831947  1
  Fe  Fe50  1  0.83161310  0.50115905  0.83581812  1
  Fe  Fe51  1  0.83400632  0.83587323  0.50016352  1
  Fe  Fe52  1  0.66581799  0.66718338  0.66774357  1
  Fe  Fe53  1  0.83429070  0.83527382  0.83540615  1
" 