3822,Ni8Fe77Cr13_5,-224.754273094494, 153.275432301649,Ni8Fe77Cr13,"# generated using pymatgen
 data_Cr9Fe41Ni4
_symmetry_space_group_name_H-M   'P 1'
_cell_length_a   7.45380487
_cell_length_b   7.45380487
_cell_length_c   10.54127194
_cell_angle_alpha   90.00000000
_cell_angle_beta   90.00000000
_cell_angle_gamma   90.00000000
_symmetry_Int_Tables_number   1
_chemical_formula_structural   Cr9Fe41Ni4
_chemical_formula_sum   'Cr9 Fe41 Ni4'
_cell_volume   585.66471023
_cell_formula_units_Z   1
loop_
 _symmetry_equiv_pos_site_id
 _symmetry_equiv_pos_as_xyz
  1  'x, y, z'
loop_
 _atom_site_type_symbol
 _atom_site_label
 _atom_site_symmetry_multiplicity
 _atom_site_fract_x
 _atom_site_fract_y
 _atom_site_fract_z
 _atom_site_occupancy
  Fe  Fe0  1  1.00071703  0.99968875  0.00110247  1
  Fe  Fe1  1  0.16654478  0.16690096  0.16598520  1
  Fe  Fe2  1  1.00061769  0.00216898  0.33197710  1
  Fe  Fe3  1  1.00068217  0.33311291  0.00119198  1
  Cr  Cr4  1  0.16765190  0.50128175  0.16770088  1
  Fe  Fe5  1  0.00184179  0.33285450  0.33494471  1
  Fe  Fe6  1  0.00089441  0.66993391  0.00135966  1
  Ni  Ni7  1  0.16686951  0.83442575  0.16620210  1
  Fe  Fe8  1  1.00005713  0.66744602  0.33312932  1
  Fe  Fe9  1  0.33439908  0.99976754  0.00145195  1
  Fe  Fe10  1  0.49928162  0.16817957  0.16615036  1
  Cr  Cr11  1  0.33249469  1.00081044  0.33279752  1
  Fe  Fe12  1  0.33546799  0.33410822  1.00011432  1
  Fe  Fe13  1  0.50090124  0.50248646  0.16613798  1
  Fe  Fe14  1  0.33441947  0.33408426  0.33541315  1
  Fe  Fe15  1  0.33480540  0.66895257  1.00043294  1
  Fe  Fe16  1  0.49991247  0.83221345  0.16578318  1
  Fe  Fe17  1  0.33597195  0.66678021  0.33351054  1
  Fe  Fe18  1  0.66746630  1.00005546  0.00128888  1
  Fe  Fe19  1  0.83658376  0.16720012  0.16592753  1
  Cr  Cr20  1  0.66685634  1.00082467  0.33465996  1
  Fe  Fe21  1  0.66660712  0.33390707  0.00200608  1
  Fe  Fe22  1  0.83406487  0.50268518  0.16662114  1
  Cr  Cr23  1  0.66814619  0.33553656  0.33394943  1
  Ni  Ni24  1  0.66736495  0.66771841  0.00272392  1
  Fe  Fe25  1  0.83550859  0.83296370  0.16670951  1
  Fe  Fe26  1  0.66678015  0.66716041  0.33314098  1
  Fe  Fe27  1  0.16655989  0.16972858  0.50175604  1
  Fe  Fe28  1  1.00053728  0.00231303  0.66942954  1
  Fe  Fe29  1  0.16727832  0.16798315  0.83448448  1
  Fe  Fe30  1  0.16749823  0.49889438  0.50046421  1
  Fe  Fe31  1  0.00234300  0.33478091  0.66683816  1
  Fe  Fe32  1  0.16944244  0.50058814  0.83474218  1
  Cr  Cr33  1  0.16776855  0.83378632  0.50093768  1
  Fe  Fe34  1  0.00230832  0.66539333  0.66819267  1
  Fe  Fe35  1  0.16733374  0.83409937  0.83466384  1
  Ni  Ni36  1  0.49910605  0.16799851  0.50240074  1
  Fe  Fe37  1  0.33569201  0.00178655  0.66806545  1
  Fe  Fe38  1  0.50032702  0.16705091  0.83440592  1
  Fe  Fe39  1  0.49889781  0.50158602  0.49993738  1
  Fe  Fe40  1  0.33318521  0.33452434  0.66763100  1
  Fe  Fe41  1  0.49917683  0.50146611  0.83627016  1
  Fe  Fe42  1  0.49995466  0.83415849  0.50129738  1
  Fe  Fe43  1  0.33330573  0.66629747  0.66883898  1
  Fe  Fe44  1  0.50126342  0.83406682  0.83561206  1
  Fe  Fe45  1  0.83627576  0.16810457  0.50149151  1
  Fe  Fe46  1  0.66635509  0.00174263  0.66786803  1
  Fe  Fe47  1  0.83493322  0.16538847  0.83530392  1
  Ni  Ni48  1  0.83641949  0.50064243  0.49893231  1
  Cr  Cr49  1  0.66841997  0.33448216  0.66701185  1
  Cr  Cr50  1  0.83472264  0.50131019  0.83657113  1
  Cr  Cr51  1  0.83520994  0.83388420  0.50104354  1
  Cr  Cr52  1  0.66691138  0.66690728  0.66623524  1
  Fe  Fe53  1  0.83383476  0.83575715  0.83513115  1
" 