2320,Ni8Fe77Cr13_3,-224.649553386029, 154.279592336345,Ni8Fe77Cr13,"# generated using pymatgen
 data_Cr9Fe41Ni4
_symmetry_space_group_name_H-M   'P 1'
_cell_length_a   7.45908848
_cell_length_b   7.45908848
_cell_length_c   10.54874409
_cell_angle_alpha   90.00000000
_cell_angle_beta   90.00000000
_cell_angle_gamma   90.00000000
_symmetry_Int_Tables_number   1
_chemical_formula_structural   Cr9Fe41Ni4
_chemical_formula_sum   'Cr9 Fe41 Ni4'
_cell_volume   586.91103396
_cell_formula_units_Z   1
loop_
 _symmetry_equiv_pos_site_id
 _symmetry_equiv_pos_as_xyz
  1  'x, y, z'
loop_
 _atom_site_type_symbol
 _atom_site_label
 _atom_site_symmetry_multiplicity
 _atom_site_fract_x
 _atom_site_fract_y
 _atom_site_fract_z
 _atom_site_occupancy
  Fe  Fe0  1  0.00327988  0.00189957  0.00082854  1
  Fe  Fe1  1  0.16728726  0.16526077  0.16883695  1
  Fe  Fe2  1  0.00145025  0.99964830  0.33520431  1
  Ni  Ni3  1  0.00106143  0.33284192  1.00050418  1
  Cr  Cr4  1  0.16708165  0.49955512  0.16927868  1
  Fe  Fe5  1  1.00035883  0.33327930  0.33510560  1
  Fe  Fe6  1  0.00134291  0.66747715  0.00215957  1
  Fe  Fe7  1  0.16671329  0.83613111  0.16773009  1
  Fe  Fe8  1  0.99934465  0.66848367  0.33532004  1
  Fe  Fe9  1  0.33233041  1.00024335  0.00138170  1
  Fe  Fe10  1  0.49980419  0.16610316  0.16956657  1
  Fe  Fe11  1  0.33381189  0.00103404  0.33461983  1
  Cr  Cr12  1  0.33403641  0.33190203  0.00080759  1
  Fe  Fe13  1  0.50277228  0.50071412  0.16844733  1
  Fe  Fe14  1  0.33433091  0.33130958  0.33477321  1
  Fe  Fe15  1  0.33287012  0.66895788  0.00205391  1
  Fe  Fe16  1  0.50056717  0.83453979  0.16710972  1
  Fe  Fe17  1  0.33420312  0.66932798  0.33409691  1
  Fe  Fe18  1  0.66591100  0.00275994  0.00069035  1
  Cr  Cr19  1  0.83495625  0.16586191  0.16806682  1
  Fe  Fe20  1  0.66632152  0.99994522  0.33567495  1
  Fe  Fe21  1  0.66768581  0.33264838  0.00175779  1
  Fe  Fe22  1  0.83329744  0.50096568  0.16678608  1
  Fe  Fe23  1  0.66670968  0.33344559  0.33455898  1
  Fe  Fe24  1  0.66723343  0.66661317  0.00332743  1
  Fe  Fe25  1  0.83431378  0.83260250  0.16720426  1
  Fe  Fe26  1  0.66808105  0.66803763  0.33344862  1
  Ni  Ni27  1  0.16642749  0.16692078  0.49894944  1
  Fe  Fe28  1  0.00078889  0.00181552  0.66545967  1
  Fe  Fe29  1  0.16565268  0.16507687  0.83259728  1
  Fe  Fe30  1  0.16641097  0.49864823  0.50049842  1
  Fe  Fe31  1  0.99991362  0.33052969  0.66573005  1
  Cr  Cr32  1  0.16725437  0.50073119  0.83112178  1
  Fe  Fe33  1  0.16847363  0.83530073  0.50020203  1
  Fe  Fe34  1  0.99969461  0.66923076  0.66459408  1
  Fe  Fe35  1  0.16717952  0.83497550  0.83368094  1
  Ni  Ni36  1  0.49994480  0.16660374  0.49984754  1
  Fe  Fe37  1  0.33313322  0.00254191  0.66513908  1
  Fe  Fe38  1  0.50227441  0.16640224  0.83155882  1
  Cr  Cr39  1  0.49978545  0.50090886  0.50139062  1
  Fe  Fe40  1  0.33352746  0.32905333  0.66561130  1
  Cr  Cr41  1  0.50065723  0.50067096  0.83288521  1
  Fe  Fe42  1  0.49985432  0.83685986  0.50097737  1
  Fe  Fe43  1  0.33257705  0.67019789  0.66516454  1
  Cr  Cr44  1  0.50035930  0.83476559  0.83246429  1
  Fe  Fe45  1  0.83324227  0.16702751  0.50004187  1
  Ni  Ni46  1  0.66746707  0.00174029  0.66546180  1
  Fe  Fe47  1  0.83327425  0.16705684  0.83387826  1
  Fe  Fe48  1  0.83531700  0.49865209  0.50060580  1
  Fe  Fe49  1  0.66789540  0.33041549  0.66591151  1
  Cr  Cr50  1  0.83390920  0.49985889  0.83454839  1
  Fe  Fe51  1  0.83324090  0.83593264  0.50089508  1
  Fe  Fe52  1  0.66922120  0.66912727  0.66535347  1
  Cr  Cr53  1  0.83417709  0.83617650  0.83490137  1
" 