1234,Ni8Fe66Cr24_18,-223.218548571081, 166.52486165252,Ni8Fe66Cr24,"# generated using pymatgen
 data_Cr7(Fe9Ni)2
_symmetry_space_group_name_H-M   'P 1'
_cell_length_a   7.47571089
_cell_length_b   7.47571089
_cell_length_c   10.57225172
_cell_angle_alpha   90.00000000
_cell_angle_beta   90.00000000
_cell_angle_gamma   90.00000000
_symmetry_Int_Tables_number   1
_chemical_formula_structural   Cr7(Fe9Ni)2
_chemical_formula_sum   'Cr14 Fe36 Ni4'
_cell_volume   590.84353720
_cell_formula_units_Z   2
loop_
 _symmetry_equiv_pos_site_id
 _symmetry_equiv_pos_as_xyz
  1  'x, y, z'
loop_
 _atom_site_type_symbol
 _atom_site_label
 _atom_site_symmetry_multiplicity
 _atom_site_fract_x
 _atom_site_fract_y
 _atom_site_fract_z
 _atom_site_occupancy
  Cr  Cr0  1  0.00200742  0.00071377  0.99858796  1
  Ni  Ni1  1  0.16676990  0.16661344  0.16629712  1
  Fe  Fe2  1  0.00018745  0.00129093  0.33157443  1
  Fe  Fe3  1  0.00001823  0.33310409  0.99786335  1
  Cr  Cr4  1  0.16582451  0.49922082  0.16312041  1
  Fe  Fe5  1  -0.00057822  0.33019354  0.33236700  1
  Fe  Fe6  1  0.99907459  0.66576906  0.99828981  1
  Fe  Fe7  1  0.16860633  0.83531754  0.16569855  1
  Cr  Cr8  1  0.00005974  0.66758623  0.33161353  1
  Fe  Fe9  1  0.33249479  0.99886557  0.99832961  1
  Cr  Cr10  1  0.49832636  0.16441576  0.16509301  1
  Fe  Fe11  1  0.33117523  0.99747167  0.33315975  1
  Fe  Fe12  1  0.33178715  0.33222402  0.99726627  1
  Fe  Fe13  1  0.49621260  0.49792695  0.16554627  1
  Fe  Fe14  1  0.33233424  0.33311230  0.33207900  1
  Fe  Fe15  1  0.33290033  0.66667694  0.99738884  1
  Fe  Fe16  1  0.49501397  0.83272917  0.16705539  1
  Fe  Fe17  1  0.33308502  0.66755001  0.33298685  1
  Cr  Cr18  1  0.66531730  0.99810030  0.99790452  1
  Fe  Fe19  1  0.83527768  0.16688536  0.16733308  1
  Fe  Fe20  1  0.66693658  0.99864185  0.33217148  1
  Cr  Cr21  1  0.66682775  0.33457730  0.99856659  1
  Fe  Fe22  1  0.83371392  0.49630806  0.16662943  1
  Fe  Fe23  1  0.66702422  0.33200572  0.33163614  1
  Cr  Cr24  1  0.66517283  0.66516294  0.00151085  1
  Fe  Fe25  1  0.83440323  0.83515004  0.16627496  1
  Cr  Cr26  1  0.66351323  0.66465925  0.33049351  1
  Fe  Fe27  1  0.16512398  0.16372794  0.49721110  1
  Fe  Fe28  1  0.99934544  0.99917396  0.66825107  1
  Fe  Fe29  1  0.16812132  0.16871813  0.83448007  1
  Cr  Cr30  1  0.16795412  0.49954974  0.50009409  1
  Cr  Cr31  1  0.00099807  0.33080785  0.66695877  1
  Ni  Ni32  1  0.16607279  0.50004874  0.83433878  1
  Fe  Fe33  1  0.16802810  0.83391396  0.49941701  1
  Fe  Fe34  1  0.00196127  0.66737471  0.66871176  1
  Fe  Fe35  1  0.16675730  0.82936857  0.83313134  1
  Cr  Cr36  1  0.50035353  0.16648492  0.49979406  1
  Cr  Cr37  1  0.33061130  0.99927737  0.66753700  1
  Fe  Fe38  1  0.49788398  0.16824486  0.83228792  1
  Fe  Fe39  1  0.49971662  0.50142954  0.50124966  1
  Fe  Fe40  1  0.33338528  0.33413510  0.66810872  1
  Ni  Ni41  1  0.49717354  0.49914153  0.83118346  1
  Ni  Ni42  1  0.49952544  0.83379575  0.49958386  1
  Fe  Fe43  1  0.33337308  0.66500647  0.66707451  1
  Fe  Fe44  1  0.49811528  0.82972210  0.83146349  1
  Fe  Fe45  1  0.83307447  0.16543935  0.49885374  1
  Fe  Fe46  1  0.66608763  -0.00008262  0.66841932  1
  Fe  Fe47  1  0.83232915  0.16705995  0.83182557  1
  Cr  Cr48  1  0.83313728  0.49954489  0.50113338  1
  Fe  Fe49  1  0.66410429  0.33275150  0.66847346  1
  Fe  Fe50  1  0.83305158  0.50088331  0.83147174  1
  Cr  Cr51  1  0.83248070  0.83442698  0.50234748  1
  Fe  Fe52  1  0.66305252  0.66618114  0.66759210  1
  Fe  Fe53  1  0.83340643  0.83031252  0.83087968  1
" 