6516,Ni8Fe78Cr12_10,-224.856023008064, 149.48250132715,Ni8Fe78Cr12,"# generated using pymatgen
 data_Cr4Fe21Ni2
_symmetry_space_group_name_H-M   'P 1'
_cell_length_a   7.45434470
_cell_length_b   7.45434470
_cell_length_c   10.54203538
_cell_angle_alpha   90.00000000
_cell_angle_beta   90.00000000
_cell_angle_gamma   90.00000000
_symmetry_Int_Tables_number   1
_chemical_formula_structural   Cr4Fe21Ni2
_chemical_formula_sum   'Cr8 Fe42 Ni4'
_cell_volume   585.79196724
_cell_formula_units_Z   2
loop_
 _symmetry_equiv_pos_site_id
 _symmetry_equiv_pos_as_xyz
  1  'x, y, z'
loop_
 _atom_site_type_symbol
 _atom_site_label
 _atom_site_symmetry_multiplicity
 _atom_site_fract_x
 _atom_site_fract_y
 _atom_site_fract_z
 _atom_site_occupancy
  Fe  Fe0  1  0.00226849  0.00236818  1.00076569  1
  Cr  Cr1  1  0.16781194  0.16954226  0.16914111  1
  Fe  Fe2  1  0.00086229  0.00147002  0.33401832  1
  Fe  Fe3  1  1.00028540  0.33297419  0.00153706  1
  Fe  Fe4  1  0.16723122  0.50158844  0.16726963  1
  Ni  Ni5  1  1.00015121  0.33505616  0.33477676  1
  Fe  Fe6  1  0.00127709  0.66704304  0.00215669  1
  Fe  Fe7  1  0.16720926  0.83312246  0.16776187  1
  Fe  Fe8  1  0.00177723  0.66589118  0.33413910  1
  Fe  Fe9  1  0.33380486  0.00177965  1.00059275  1
  Fe  Fe10  1  0.50202388  0.16804084  0.16781726  1
  Fe  Fe11  1  0.33356792  0.99949135  0.33430671  1
  Ni  Ni12  1  0.33525322  0.33280115  0.00154932  1
  Fe  Fe13  1  0.49986084  0.49972402  0.16687467  1
  Fe  Fe14  1  0.33359000  0.33671790  0.33370728  1
  Fe  Fe15  1  0.33434928  0.66762693  0.00315832  1
  Fe  Fe16  1  0.50044221  0.83471528  0.16756168  1
  Fe  Fe17  1  0.33358578  0.66672625  0.33396435  1
  Fe  Fe18  1  0.66683914  0.00288621  0.00241696  1
  Fe  Fe19  1  0.83355765  0.16810276  0.16832348  1
  Fe  Fe20  1  0.66796222  0.00161238  0.33255261  1
  Fe  Fe21  1  0.66764762  0.33347698  0.00186743  1
  Fe  Fe22  1  0.83545319  0.49991949  0.16807784  1
  Fe  Fe23  1  0.66868661  0.33521424  0.33334794  1
  Fe  Fe24  1  0.66726874  0.66592906  0.00324809  1
  Fe  Fe25  1  0.83487326  0.83456798  0.16744560  1
  Fe  Fe26  1  0.66720977  0.66583382  0.33285663  1
  Fe  Fe27  1  0.16562507  0.16696285  0.49966610  1
  Fe  Fe28  1  0.00303267  1.00066968  0.66780490  1
  Ni  Ni29  1  0.16782537  0.16723877  0.83429193  1
  Fe  Fe30  1  0.16734316  0.50132512  0.50009355  1
  Cr  Cr31  1  1.00003874  0.33424043  0.66764397  1
  Cr  Cr32  1  0.16826952  0.50004012  0.83673843  1
  Fe  Fe33  1  0.16886870  0.83423892  0.50085556  1
  Ni  Ni34  1  0.00178659  0.66719013  0.66722468  1
  Fe  Fe35  1  0.16799516  0.83494246  0.83390601  1
  Cr  Cr36  1  0.49953298  0.16886125  0.50063391  1
  Fe  Fe37  1  0.33077290  0.00109103  0.66744435  1
  Fe  Fe38  1  0.49966505  0.16747080  0.83413058  1
  Fe  Fe39  1  0.50110826  0.50284733  0.50100611  1
  Fe  Fe40  1  0.33273451  0.33367812  0.66782393  1
  Cr  Cr41  1  0.50111412  0.50048183  0.83316521  1
  Fe  Fe42  1  0.49952228  0.83323630  0.50093651  1
  Fe  Fe43  1  0.33177939  0.66746347  0.66524290  1
  Cr  Cr44  1  0.50202907  0.83342333  0.83261162  1
  Fe  Fe45  1  0.83465943  0.16826364  0.49910127  1
  Fe  Fe46  1  0.66906473  0.00294527  0.66703326  1
  Fe  Fe47  1  0.83360156  0.16826316  0.83543436  1
  Fe  Fe48  1  0.83381547  0.49995735  0.49985828  1
  Fe  Fe49  1  0.66829203  0.33460195  0.66699323  1
  Fe  Fe50  1  0.83436642  0.50029226  0.83491076  1
  Cr  Cr51  1  0.83447464  0.83416111  0.50022800  1
  Fe  Fe52  1  0.66906662  0.66499994  0.66557636  1
  Cr  Cr53  1  0.83477578  0.83290171  0.83441968  1
" 