8040,Ni8Fe78Cr13_14,-224.740926164788, 153.426525647594,Ni8Fe78Cr13,"# generated using pymatgen
 data_Cr4Fe21Ni2
_symmetry_space_group_name_H-M   'P 1'
_cell_length_a   7.44692544
_cell_length_b   7.44692544
_cell_length_c   10.53154296
_cell_angle_alpha   90.00000000
_cell_angle_beta   90.00000000
_cell_angle_gamma   90.00000000
_symmetry_Int_Tables_number   1
_chemical_formula_structural   Cr4Fe21Ni2
_chemical_formula_sum   'Cr8 Fe42 Ni4'
_cell_volume   584.04460344
_cell_formula_units_Z   2
loop_
 _symmetry_equiv_pos_site_id
 _symmetry_equiv_pos_as_xyz
  1  'x, y, z'
loop_
 _atom_site_type_symbol
 _atom_site_label
 _atom_site_symmetry_multiplicity
 _atom_site_fract_x
 _atom_site_fract_y
 _atom_site_fract_z
 _atom_site_occupancy
  Ni  Ni0  1  0.99966206  1.00092442  0.00159777  1
  Cr  Cr1  1  0.16738246  0.16865845  0.16777437  1
  Fe  Fe2  1  0.99938532  1.00129966  0.33439171  1
  Fe  Fe3  1  0.99879196  0.33478549  0.00184395  1
  Fe  Fe4  1  0.16975724  0.50319851  0.16964127  1
  Fe  Fe5  1  0.99810257  0.33443831  0.33419158  1
  Cr  Cr6  1  1.00132124  0.66897077  0.00234389  1
  Fe  Fe7  1  0.16961004  0.83490393  0.16817146  1
  Fe  Fe8  1  0.99928593  0.66828756  0.33320407  1
  Fe  Fe9  1  0.33385451  0.99745057  0.00214586  1
  Fe  Fe10  1  0.50311787  0.16736891  0.16796709  1
  Fe  Fe11  1  0.33692617  1.00084843  0.33503961  1
  Fe  Fe12  1  0.33428149  0.33725977  0.00203352  1
  Fe  Fe13  1  0.50154733  0.50131940  0.16840100  1
  Fe  Fe14  1  0.33718427  0.33432348  0.33489023  1
  Fe  Fe15  1  0.33583943  0.66938963  1.00122407  1
  Ni  Ni16  1  0.50280975  0.83412411  0.16752458  1
  Fe  Fe17  1  0.33680435  0.66871829  0.33363864  1
  Fe  Fe18  1  0.67006041  0.99939524  0.00310296  1
  Fe  Fe19  1  0.83220452  0.16709347  0.16809282  1
  Fe  Fe20  1  0.66769955  0.00169817  0.33418289  1
  Fe  Fe21  1  0.67061117  0.33556493  0.00340919  1
  Fe  Fe22  1  0.83298121  0.50087405  0.16933154  1
  Ni  Ni23  1  0.66795870  0.33449701  0.33454768  1
  Fe  Fe24  1  0.66770123  0.66891111  0.00192451  1
  Fe  Fe25  1  0.83397084  0.83625531  0.16869372  1
  Fe  Fe26  1  0.66795756  0.66784238  0.33383731  1
  Fe  Fe27  1  0.16579368  0.16628116  0.49910339  1
  Fe  Fe28  1  0.99948027  0.99992694  0.66816623  1
  Cr  Cr29  1  0.16674360  0.16761228  0.83510121  1
  Cr  Cr30  1  0.16636598  0.50146495  0.50003100  1
  Fe  Fe31  1  0.99871516  0.33473665  0.66774376  1
  Fe  Fe32  1  0.16731148  0.50168758  0.83536630  1
  Fe  Fe33  1  0.16577269  0.83514689  0.50000519  1
  Fe  Fe34  1  0.99970111  0.66902925  0.66928170  1
  Ni  Ni35  1  0.16678465  0.83460352  0.83544963  1
  Fe  Fe36  1  0.50359332  0.16840050  0.49938615  1
  Cr  Cr37  1  0.33470357  1.00042396  0.66635668  1
  Cr  Cr38  1  0.50333439  0.16707411  0.83741123  1
  Fe  Fe39  1  0.50434916  0.50208519  0.49958339  1
  Cr  Cr40  1  0.33664460  0.33482595  0.66649745  1
  Fe  Fe41  1  0.50269206  0.50273395  0.83678419  1
  Fe  Fe42  1  0.50302950  0.83359212  0.49883367  1
  Cr  Cr43  1  0.33501388  0.66874962  0.66977879  1
  Fe  Fe44  1  0.50226556  0.83391023  0.83727288  1
  Fe  Fe45  1  0.83462212  0.16855644  0.50074843  1
  Fe  Fe46  1  0.66927253  1.00061468  0.66699982  1
  Fe  Fe47  1  0.83489059  0.16686262  0.83508668  1
  Fe  Fe48  1  0.83246093  0.50148905  0.50073214  1
  Fe  Fe49  1  0.66988166  0.33513388  0.66667398  1
  Fe  Fe50  1  0.83430988  0.50077847  0.83404877  1
  Fe  Fe51  1  0.83504411  0.83407060  0.50115598  1
  Fe  Fe52  1  0.66896187  0.66821742  0.66802605  1
  Fe  Fe53  1  0.83440862  0.83654667  0.83418411  1
" 