8269,Ni8Fe66Cr24_6,-223.519254833703, 162.779352449533,Ni8Fe66Cr24,"# generated using pymatgen
 data_Cr7(Fe9Ni)2
_symmetry_space_group_name_H-M   'P 1'
_cell_length_a   7.47956357
_cell_length_b   7.47956357
_cell_length_c   10.57770024
_cell_angle_alpha   90.00000000
_cell_angle_beta   90.00000000
_cell_angle_gamma   90.00000000
_symmetry_Int_Tables_number   1
_chemical_formula_structural   Cr7(Fe9Ni)2
_chemical_formula_sum   'Cr14 Fe36 Ni4'
_cell_volume   591.75750012
_cell_formula_units_Z   2
loop_
 _symmetry_equiv_pos_site_id
 _symmetry_equiv_pos_as_xyz
  1  'x, y, z'
loop_
 _atom_site_type_symbol
 _atom_site_label
 _atom_site_symmetry_multiplicity
 _atom_site_fract_x
 _atom_site_fract_y
 _atom_site_fract_z
 _atom_site_occupancy
  Cr  Cr0  1  0.00036506  0.00037325  0.99887821  1
  Ni  Ni1  1  0.16649525  0.16829775  0.16942168  1
  Fe  Fe2  1  0.00180075  -0.00081557  0.33103460  1
  Cr  Cr3  1  0.99685880  0.32981283  0.00074477  1
  Cr  Cr4  1  0.16482858  0.50137721  0.16585518  1
  Fe  Fe5  1  -0.00079360  0.33347185  0.33227668  1
  Fe  Fe6  1  0.99810487  0.66727116  0.99885132  1
  Fe  Fe7  1  0.16821964  0.83439852  0.16819003  1
  Fe  Fe8  1  0.00042757  0.66583086  0.33440855  1
  Cr  Cr9  1  0.33109569  0.99859482  0.00052340  1
  Cr  Cr10  1  0.50069715  0.16475333  0.16663712  1
  Fe  Fe11  1  0.33200986  0.99766101  0.33228588  1
  Fe  Fe12  1  0.33330595  0.33166173  0.00022123  1
  Fe  Fe13  1  0.49808683  0.49939425  0.16604154  1
  Ni  Ni14  1  0.33149788  0.33240866  0.33298860  1
  Fe  Fe15  1  0.33460002  0.66667434  0.00057133  1
  Ni  Ni16  1  0.49975977  0.83163111  0.16699315  1
  Fe  Fe17  1  0.33212291  0.66621982  0.33395802  1
  Fe  Fe18  1  0.66669958  0.00040710  0.99905212  1
  Fe  Fe19  1  0.83319727  0.16633069  0.16937183  1
  Fe  Fe20  1  0.66422910  0.99824459  0.33177607  1
  Fe  Fe21  1  0.66466189  0.33218580  0.99823615  1
  Fe  Fe22  1  0.82950003  0.49779549  0.16646866  1
  Fe  Fe23  1  0.66436911  0.33387505  0.33187626  1
  Fe  Fe24  1  0.66499576  0.66501687  0.00051820  1
  Cr  Cr25  1  0.83242733  0.83284863  0.16528905  1
  Cr  Cr26  1  0.66447070  0.66591966  0.33411485  1
  Fe  Fe27  1  0.16620753  0.16389071  0.49645082  1
  Fe  Fe28  1  0.00090749  0.99747838  0.66620222  1
  Fe  Fe29  1  0.16705221  0.16355497  0.83211147  1
  Fe  Fe30  1  0.16549487  0.49813513  0.49646431  1
  Cr  Cr31  1  0.99791618  0.33100164  0.66457890  1
  Cr  Cr32  1  0.16525869  0.50139862  0.83462881  1
  Fe  Fe33  1  0.16474684  0.83537482  0.49825179  1
  Fe  Fe34  1  -0.00052899  0.66781954  0.66435107  1
  Fe  Fe35  1  0.16560302  0.83304968  0.83010990  1
  Cr  Cr36  1  0.49866876  0.16429604  0.49985666  1
  Ni  Ni37  1  0.33142519  0.99827934  0.66492746  1
  Fe  Fe38  1  0.49983094  0.16669649  0.83236527  1
  Fe  Fe39  1  0.49949181  0.49645293  0.49774618  1
  Cr  Cr40  1  0.33158524  0.33083488  0.66742268  1
  Fe  Fe41  1  0.50142051  0.49928160  0.83401849  1
  Fe  Fe42  1  0.49985424  0.83456014  0.49838132  1
  Cr  Cr43  1  0.33589829  0.66614674  0.66148874  1
  Cr  Cr44  1  0.50102742  0.83428854  0.83217936  1
  Cr  Cr45  1  0.83120251  0.16420610  0.49579893  1
  Fe  Fe46  1  0.66606646  0.99866848  0.66601137  1
  Fe  Fe47  1  0.82920510  0.16452987  0.83095427  1
  Fe  Fe48  1  0.83234181  0.49983123  0.49923923  1
  Fe  Fe49  1  0.66470005  0.33364072  0.66688768  1
  Fe  Fe50  1  0.82955251  0.50113482  0.83262658  1
  Fe  Fe51  1  0.83341822  0.83245760  0.49951770  1
  Fe  Fe52  1  0.66815463  0.66539423  0.66376952  1
  Fe  Fe53  1  0.83428415  0.83077539  0.83189417  1
" 