7548,Ni8Fe18Cr72_3,-209.213628331101, 189.741487378345,Ni8Fe18Cr72,"# generated using pymatgen
 data_Cr41Fe9Ni4
_symmetry_space_group_name_H-M   'P 1'
_cell_length_a   7.56899740
_cell_length_b   7.56899740
_cell_length_c   10.70417878
_cell_angle_alpha   90.00000000
_cell_angle_beta   90.00000000
_cell_angle_gamma   90.00000000
_symmetry_Int_Tables_number   1
_chemical_formula_structural   Cr41Fe9Ni4
_chemical_formula_sum   'Cr41 Fe9 Ni4'
_cell_volume   613.23942283
_cell_formula_units_Z   1
loop_
 _symmetry_equiv_pos_site_id
 _symmetry_equiv_pos_as_xyz
  1  'x, y, z'
loop_
 _atom_site_type_symbol
 _atom_site_label
 _atom_site_symmetry_multiplicity
 _atom_site_fract_x
 _atom_site_fract_y
 _atom_site_fract_z
 _atom_site_occupancy
  Fe  Fe0  1  0.99062673  0.99140317  -0.00575770  1
  Cr  Cr1  1  0.15854060  0.16077252  0.15840974  1
  Ni  Ni2  1  0.99324648  0.99201386  0.32398151  1
  Cr  Cr3  1  0.99208792  0.32905385  0.99272972  1
  Cr  Cr4  1  0.16118609  0.49348227  0.16007700  1
  Cr  Cr5  1  0.99239812  0.32615927  0.32801380  1
  Fe  Fe6  1  0.99183887  0.66030355  0.99325864  1
  Cr  Cr7  1  0.15659869  0.82597206  0.15952793  1
  Cr  Cr8  1  0.99116519  0.66010274  0.32516452  1
  Cr  Cr9  1  0.32536284  -0.00614222  0.99233733  1
  Cr  Cr10  1  0.49348909  0.16183892  0.15881981  1
  Cr  Cr11  1  0.32629020  0.99304140  0.32680656  1
  Fe  Fe12  1  0.32590238  0.32829060  0.99220155  1
  Cr  Cr13  1  0.49117225  0.49284993  0.16068780  1
  Fe  Fe14  1  0.32595464  0.32550718  0.32652502  1
  Cr  Cr15  1  0.32637240  0.66187268  0.99304995  1
  Cr  Cr16  1  0.49455128  0.82564881  0.16169826  1
  Fe  Fe17  1  0.32562481  0.66034858  0.32611817  1
  Cr  Cr18  1  0.65937502  0.99156848  -0.00545105  1
  Cr  Cr19  1  0.82763003  0.15679962  0.16179372  1
  Fe  Fe20  1  0.66262119  0.99210778  0.32584221  1
  Cr  Cr21  1  0.66250991  0.32848768  -0.00576877  1
  Fe  Fe22  1  0.82823802  0.49494011  0.15956959  1
  Cr  Cr23  1  0.66120455  0.32753633  0.32528099  1
  Cr  Cr24  1  0.66381872  0.65944555  -0.00589017  1
  Ni  Ni25  1  0.82861268  0.82683087  0.15892096  1
  Cr  Cr26  1  0.66100462  0.66004942  0.32431539  1
  Cr  Cr27  1  0.15779300  0.15973869  0.49180608  1
  Cr  Cr28  1  -0.00501497  0.99300690  0.65991439  1
  Cr  Cr29  1  0.15795032  0.16134130  0.82922062  1
  Cr  Cr30  1  0.16137669  0.49450628  0.49207926  1
  Cr  Cr31  1  -0.00656233  0.32825959  0.65948344  1
  Ni  Ni32  1  0.15728850  0.49443987  0.82844777  1
  Cr  Cr33  1  0.15808591  0.82534793  0.49131199  1
  Cr  Cr34  1  0.99283844  0.65809067  0.66253560  1
  Cr  Cr35  1  0.15655808  0.82477967  0.82833266  1
  Cr  Cr36  1  0.49629436  0.16003472  0.49405609  1
  Cr  Cr37  1  0.32727837  0.99308367  0.66063256  1
  Cr  Cr38  1  0.49548652  0.16053929  0.82717729  1
  Cr  Cr39  1  0.49193791  0.49394786  0.49145065  1
  Cr  Cr40  1  0.32451592  0.32570253  0.66115767  1
  Cr  Cr41  1  0.49142361  0.49339418  0.82712158  1
  Cr  Cr42  1  0.49515736  0.82569496  0.49337757  1
  Cr  Cr43  1  0.32530054  0.66106855  0.65879244  1
  Cr  Cr44  1  0.49555602  0.82644039  0.82450278  1
  Cr  Cr45  1  0.82625847  0.15711169  0.49302104  1
  Ni  Ni46  1  0.66106059  0.99212125  0.65989872  1
  Cr  Cr47  1  0.82618582  0.15705570  0.82476462  1
  Cr  Cr48  1  0.82622406  0.49362723  0.49421729  1
  Cr  Cr49  1  0.66182035  0.32726279  0.66046767  1
  Fe  Fe50  1  0.82844745  0.49396797  0.82748528  1
  Cr  Cr51  1  0.82679440  0.82891768  0.49368272  1
  Cr  Cr52  1  0.66177284  0.66002855  0.66162548  1
  Fe  Fe53  1  0.82707492  0.82653152  0.82750069  1
" 