2544,Ni8Fe18Cr72_10,-209.07513496327, 189.537271988352,Ni8Fe18Cr72,"# generated using pymatgen
 data_Cr41Fe9Ni4
_symmetry_space_group_name_H-M   'P 1'
_cell_length_a   7.56875111
_cell_length_b   7.56875111
_cell_length_c   10.70383047
_cell_angle_alpha   90.00000000
_cell_angle_beta   90.00000000
_cell_angle_gamma   90.00000000
_symmetry_Int_Tables_number   1
_chemical_formula_structural   Cr41Fe9Ni4
_chemical_formula_sum   'Cr41 Fe9 Ni4'
_cell_volume   613.17956044
_cell_formula_units_Z   1
loop_
 _symmetry_equiv_pos_site_id
 _symmetry_equiv_pos_as_xyz
  1  'x, y, z'
loop_
 _atom_site_type_symbol
 _atom_site_label
 _atom_site_symmetry_multiplicity
 _atom_site_fract_x
 _atom_site_fract_y
 _atom_site_fract_z
 _atom_site_occupancy
  Cr  Cr0  1  -0.00503711  -0.00536071  -0.00668625  1
  Ni  Ni1  1  0.16478035  0.16103499  0.16097761  1
  Cr  Cr2  1  -0.00561700  -0.00452360  0.32582618  1
  Cr  Cr3  1  -0.00623748  0.32434553  -0.00630599  1
  Cr  Cr4  1  0.15893094  0.49312581  0.16126995  1
  Cr  Cr5  1  -0.00499689  0.32576575  0.32662773  1
  Fe  Fe6  1  -0.00556641  0.66101373  0.99260316  1
  Cr  Cr7  1  0.15827745  0.82509837  0.15906689  1
  Fe  Fe8  1  -0.00582172  0.65921341  0.32746463  1
  Cr  Cr9  1  0.32512930  0.99188268  -0.00593948  1
  Ni  Ni10  1  0.49133278  0.16112522  0.16067690  1
  Cr  Cr11  1  0.32565782  0.99219052  0.32356115  1
  Cr  Cr12  1  0.32611977  0.32710645  -0.00363565  1
  Fe  Fe13  1  0.49149123  0.49100756  0.16050309  1
  Fe  Fe14  1  0.32806455  0.32596090  0.32472795  1
  Cr  Cr15  1  0.32726935  0.66084788  0.99259426  1
  Fe  Fe16  1  0.49168333  0.82807023  0.16009123  1
  Cr  Cr17  1  0.32785145  0.65726341  0.32759326  1
  Cr  Cr18  1  0.65976800  0.99302961  -0.00406865  1
  Fe  Fe19  1  0.82744000  0.16042604  0.16011296  1
  Cr  Cr20  1  0.65975829  0.99310330  0.32479055  1
  Cr  Cr21  1  0.66005593  0.32719457  -0.00592792  1
  Cr  Cr22  1  0.82832909  0.49548138  0.15799280  1
  Cr  Cr23  1  0.65949379  0.32840407  0.32563462  1
  Cr  Cr24  1  0.65673257  0.65962216  -0.00449528  1
  Cr  Cr25  1  0.82726071  0.82416452  0.16168272  1
  Cr  Cr26  1  0.65651015  0.65858363  0.32567706  1
  Cr  Cr27  1  0.16338140  0.16166812  0.49151820  1
  Cr  Cr28  1  -0.00564632  0.99323746  0.66040751  1
  Cr  Cr29  1  0.16279184  0.16064278  0.82699723  1
  Fe  Fe30  1  0.16079451  0.49519693  0.49381265  1
  Cr  Cr31  1  -0.00647709  0.32688519  0.65981576  1
  Cr  Cr32  1  0.15901798  0.49591715  0.82640969  1
  Cr  Cr33  1  0.15926125  0.82390658  0.49441523  1
  Ni  Ni34  1  -0.00247656  0.65950913  0.65993033  1
  Fe  Fe35  1  0.15925316  0.82383335  0.82541323  1
  Cr  Cr36  1  0.49161768  0.16091386  0.49433928  1
  Cr  Cr37  1  0.32417296  0.98986921  0.66198567  1
  Cr  Cr38  1  0.49225608  0.16008443  0.82536966  1
  Fe  Fe39  1  0.49108266  0.49386346  0.49355782  1
  Cr  Cr40  1  0.32546927  0.33059792  0.65757577  1
  Cr  Cr41  1  0.49181882  0.49252799  0.82605894  1
  Cr  Cr42  1  0.49217439  0.82784325  0.49386531  1
  Ni  Ni43  1  0.32316509  0.65876023  0.65919561  1
  Cr  Cr44  1  0.49201563  0.82709128  0.82589030  1
  Cr  Cr45  1  0.82509428  0.15978618  0.49360408  1
  Cr  Cr46  1  0.66132870  0.99235121  0.65926517  1
  Cr  Cr47  1  0.82478120  0.16020509  0.82618490  1
  Cr  Cr48  1  0.82961284  0.49576508  0.49369818  1
  Cr  Cr49  1  0.66100213  0.32898025  0.66025658  1
  Cr  Cr50  1  0.82878139  0.49582866  0.82823031  1
  Cr  Cr51  1  0.82816535  0.82433790  0.49199276  1
  Cr  Cr52  1  0.65742995  0.65865506  0.65881920  1
  Cr  Cr53  1  0.82866434  0.82375805  0.82616834  1
" 