6825,Ni8Fe77Cr13_16,-224.600409855353, 150.542550757468,Ni8Fe77Cr13,"# generated using pymatgen
 data_Cr9Fe41Ni4
_symmetry_space_group_name_H-M   'P 1'
_cell_length_a   7.46125806
_cell_length_b   7.46125806
_cell_length_c   10.55181234
_cell_angle_alpha   90.00000000
_cell_angle_beta   90.00000000
_cell_angle_gamma   90.00000000
_symmetry_Int_Tables_number   1
_chemical_formula_structural   Cr9Fe41Ni4
_chemical_formula_sum   'Cr9 Fe41 Ni4'
_cell_volume   587.42331590
_cell_formula_units_Z   1
loop_
 _symmetry_equiv_pos_site_id
 _symmetry_equiv_pos_as_xyz
  1  'x, y, z'
loop_
 _atom_site_type_symbol
 _atom_site_label
 _atom_site_symmetry_multiplicity
 _atom_site_fract_x
 _atom_site_fract_y
 _atom_site_fract_z
 _atom_site_occupancy
  Fe  Fe0  1  0.99799118  0.00121435  0.00112158  1
  Fe  Fe1  1  0.16686585  0.16928924  0.16683767  1
  Fe  Fe2  1  0.99963477  0.00098710  0.33439839  1
  Fe  Fe3  1  0.00252485  0.33438302  0.99985166  1
  Ni  Ni4  1  0.16780462  0.49861078  0.16681201  1
  Fe  Fe5  1  0.00143627  0.33340198  0.33458189  1
  Fe  Fe6  1  1.00022043  0.66556628  0.99976845  1
  Cr  Cr7  1  0.16776895  0.83325358  0.16713982  1
  Fe  Fe8  1  0.00073787  0.66677336  0.33470440  1
  Fe  Fe9  1  0.33465009  0.00127520  0.00252933  1
  Fe  Fe10  1  0.49909697  0.16685059  0.16757028  1
  Fe  Fe11  1  0.33377029  0.00175038  0.33376948  1
  Fe  Fe12  1  0.33200080  0.33620923  0.00146641  1
  Fe  Fe13  1  0.49745683  0.50130842  0.16719464  1
  Fe  Fe14  1  0.33343568  0.33410707  0.33326327  1
  Fe  Fe15  1  0.33424874  0.66367913  0.00069874  1
  Fe  Fe16  1  0.50137620  0.83300447  0.16704684  1
  Fe  Fe17  1  0.33337435  0.66530680  0.33335365  1
  Fe  Fe18  1  0.66852352  0.99896659  0.00181149  1
  Fe  Fe19  1  0.83520023  0.16537102  0.16769856  1
  Fe  Fe20  1  0.66775858  0.00104924  0.33299592  1
  Cr  Cr21  1  0.66659301  0.33442325  0.99841562  1
  Cr  Cr22  1  0.83540621  0.50049825  0.16849387  1
  Fe  Fe23  1  0.66629320  0.33300551  0.33423791  1
  Fe  Fe24  1  0.66669659  0.66821751  0.99982096  1
  Fe  Fe25  1  0.83290504  0.83450428  0.16700953  1
  Fe  Fe26  1  0.66705355  0.66710934  0.33394165  1
  Fe  Fe27  1  0.16691693  0.16706394  0.50098499  1
  Fe  Fe28  1  0.99874415  0.00089354  0.66564349  1
  Cr  Cr29  1  0.16549276  0.16901040  0.83477733  1
  Fe  Fe30  1  0.16682234  0.50027175  0.50072448  1
  Ni  Ni31  1  1.00037351  0.33370524  0.66732184  1
  Ni  Ni32  1  0.16581299  0.50037697  0.83386018  1
  Fe  Fe33  1  0.16575684  0.83382726  0.50039455  1
  Fe  Fe34  1  0.00145560  0.66536214  0.66668975  1
  Cr  Cr35  1  0.16636410  0.83186112  0.83203985  1
  Fe  Fe36  1  0.50038896  0.16829896  0.50054819  1
  Fe  Fe37  1  0.33264886  0.00144864  0.66486200  1
  Cr  Cr38  1  0.50165256  0.16732846  0.83072547  1
  Fe  Fe39  1  0.49982807  0.49838801  0.50024824  1
  Fe  Fe40  1  0.33322156  0.33603530  0.66643016  1
  Ni  Ni41  1  0.49977496  0.50049897  0.83353455  1
  Cr  Cr42  1  0.49897301  0.83512126  0.50011675  1
  Fe  Fe43  1  0.33107201  0.66368377  0.66710955  1
  Cr  Cr44  1  0.50075791  0.83356482  0.83520549  1
  Fe  Fe45  1  0.83385848  0.16723305  0.50079890  1
  Fe  Fe46  1  0.66976909  0.00304350  0.66635320  1
  Fe  Fe47  1  0.83477305  0.16749443  0.83266386  1
  Fe  Fe48  1  0.83451379  0.49954197  0.49980846  1
  Fe  Fe49  1  0.66808895  0.33332026  0.66688528  1
  Fe  Fe50  1  0.83543213  0.50002414  0.83350690  1
  Fe  Fe51  1  0.83574165  0.83438711  0.49964877  1
  Cr  Cr52  1  0.66754360  0.66540493  0.66902496  1
  Fe  Fe53  1  0.83434812  0.83364469  0.83450940  1
" 