2329,Ni8Fe78Cr12_17,-225.093968127757, 157.165086822805,Ni8Fe78Cr12,"# generated using pymatgen
 data_Cr4Fe21Ni2
_symmetry_space_group_name_H-M   'P 1'
_cell_length_a   7.45291902
_cell_length_b   7.45291902
_cell_length_c   10.54001915
_cell_angle_alpha   90.00000000
_cell_angle_beta   90.00000000
_cell_angle_gamma   90.00000000
_symmetry_Int_Tables_number   1
_chemical_formula_structural   Cr4Fe21Ni2
_chemical_formula_sum   'Cr8 Fe42 Ni4'
_cell_volume   585.45592345
_cell_formula_units_Z   2
loop_
 _symmetry_equiv_pos_site_id
 _symmetry_equiv_pos_as_xyz
  1  'x, y, z'
loop_
 _atom_site_type_symbol
 _atom_site_label
 _atom_site_symmetry_multiplicity
 _atom_site_fract_x
 _atom_site_fract_y
 _atom_site_fract_z
 _atom_site_occupancy
  Fe  Fe0  1  0.00182471  0.00166743  1.00023114  1
  Fe  Fe1  1  0.16634350  0.16824748  0.16696602  1
  Fe  Fe2  1  0.99989684  0.00352122  0.33399756  1
  Fe  Fe3  1  0.99912575  0.33393909  0.00129868  1
  Fe  Fe4  1  0.16610998  0.50113076  0.16678791  1
  Fe  Fe5  1  1.00078410  0.33298393  0.33402158  1
  Fe  Fe6  1  1.00065452  0.66723702  0.00157633  1
  Ni  Ni7  1  0.16911961  0.83536877  0.16522706  1
  Cr  Cr8  1  1.00028709  0.66515950  0.33345721  1
  Fe  Fe9  1  0.33394475  1.00055298  0.00155809  1
  Fe  Fe10  1  0.50183700  0.16670544  0.16696421  1
  Cr  Cr11  1  0.33614328  0.00177517  0.33328999  1
  Fe  Fe12  1  0.33433988  0.33275167  1.00076000  1
  Cr  Cr13  1  0.50123881  0.50068123  0.16741049  1
  Fe  Fe14  1  0.33264715  0.33444184  0.33462591  1
  Fe  Fe15  1  0.33392536  0.66954162  0.00133489  1
  Fe  Fe16  1  0.50010969  0.83437376  0.16694851  1
  Fe  Fe17  1  0.33467350  0.66728687  0.33326091  1
  Fe  Fe18  1  0.66707643  0.00208158  0.99985896  1
  Fe  Fe19  1  0.83466673  0.16930167  0.16713669  1
  Fe  Fe20  1  0.66845995  0.00149863  0.33514835  1
  Fe  Fe21  1  0.66937338  0.33391621  0.99984778  1
  Ni  Ni22  1  0.83399129  0.49802328  0.16707175  1
  Fe  Fe23  1  0.66940936  0.33316436  0.33393727  1
  Fe  Fe24  1  0.66826507  0.66684265  0.99949680  1
  Cr  Cr25  1  0.83509390  0.83580658  0.16735779  1
  Fe  Fe26  1  0.66700667  0.66818037  0.33473839  1
  Fe  Fe27  1  0.16640005  0.16936659  0.50093885  1
  Fe  Fe28  1  1.00018009  0.00222591  0.66861728  1
  Fe  Fe29  1  0.16559932  0.16605114  0.83493413  1
  Fe  Fe30  1  0.16631417  0.49942465  0.50117682  1
  Fe  Fe31  1  0.99808477  0.33359813  0.66752016  1
  Cr  Cr32  1  0.16749994  0.50242796  0.83466494  1
  Cr  Cr33  1  0.16754410  0.83461811  0.50353266  1
  Fe  Fe34  1  0.99940678  0.66702167  0.66767375  1
  Fe  Fe35  1  0.16645567  0.83573754  0.83464672  1
  Fe  Fe36  1  0.50214112  0.16596245  0.50086146  1
  Fe  Fe37  1  0.33501642  1.00015484  0.66807926  1
  Fe  Fe38  1  0.50274123  0.16771900  0.83501695  1
  Cr  Cr39  1  0.50107881  0.50158745  0.50030914  1
  Cr  Cr40  1  0.33415178  0.33181992  0.66748771  1
  Fe  Fe41  1  0.50433408  0.50109952  0.83495624  1
  Fe  Fe42  1  0.50319931  0.83496935  0.50168998  1
  Fe  Fe43  1  0.33499478  0.66987514  0.66825013  1
  Fe  Fe44  1  0.50192651  0.83402157  0.83420238  1
  Fe  Fe45  1  0.83430432  0.16747608  0.50148198  1
  Fe  Fe46  1  0.66764732  0.00148913  0.66783788  1
  Ni  Ni47  1  0.83352795  0.16782073  0.83424475  1
  Fe  Fe48  1  0.83522007  0.50048557  0.50162236  1
  Fe  Fe49  1  0.67049806  0.33357331  0.66905433  1
  Ni  Ni50  1  0.83185186  0.49968812  0.83367082  1
  Fe  Fe51  1  0.83181530  0.83487749  0.50144066  1
  Fe  Fe52  1  0.66844095  0.66778231  0.66860535  1
  Fe  Fe53  1  0.83446115  0.83412946  0.83435725  1
" 