5200,Ni8Fe77Cr13_10,-224.70916040229, 153.075320333161,Ni8Fe77Cr13,"# generated using pymatgen
 data_Cr9Fe41Ni4
_symmetry_space_group_name_H-M   'P 1'
_cell_length_a   7.45969865
_cell_length_b   7.45969865
_cell_length_c   10.54960700
_cell_angle_alpha   90.00000000
_cell_angle_beta   90.00000000
_cell_angle_gamma   90.00000000
_symmetry_Int_Tables_number   1
_chemical_formula_structural   Cr9Fe41Ni4
_chemical_formula_sum   'Cr9 Fe41 Ni4'
_cell_volume   587.05507727
_cell_formula_units_Z   1
loop_
 _symmetry_equiv_pos_site_id
 _symmetry_equiv_pos_as_xyz
  1  'x, y, z'
loop_
 _atom_site_type_symbol
 _atom_site_label
 _atom_site_symmetry_multiplicity
 _atom_site_fract_x
 _atom_site_fract_y
 _atom_site_fract_z
 _atom_site_occupancy
  Fe  Fe0  1  0.99875008  1.00035333  0.00167027  1
  Fe  Fe1  1  0.16498253  0.16570737  0.16778742  1
  Fe  Fe2  1  0.99956422  0.00064188  0.33353790  1
  Ni  Ni3  1  1.00047621  0.33256649  0.00134389  1
  Fe  Fe4  1  0.16498159  0.50063041  0.16756357  1
  Fe  Fe5  1  0.99977111  0.33375933  0.33224940  1
  Fe  Fe6  1  0.99922516  0.66671600  0.00133540  1
  Fe  Fe7  1  0.16477850  0.83473651  0.16739743  1
  Fe  Fe8  1  0.00220930  0.66724011  0.33441295  1
  Fe  Fe9  1  0.33367669  0.99910089  0.00051186  1
  Fe  Fe10  1  0.50284371  0.16721371  0.16959310  1
  Fe  Fe11  1  0.33363831  0.00161839  0.33471586  1
  Cr  Cr12  1  0.33476613  0.33148684  0.00368396  1
  Fe  Fe13  1  0.50284500  0.49976344  0.16731824  1
  Fe  Fe14  1  0.33473809  0.33351367  0.33408632  1
  Fe  Fe15  1  0.33390130  0.66717073  0.00081518  1
  Cr  Cr16  1  0.50049619  0.83411266  0.16756629  1
  Fe  Fe17  1  0.33193004  0.66622666  0.33419872  1
  Fe  Fe18  1  0.66866359  0.00237035  0.00058167  1
  Ni  Ni19  1  0.83410223  0.16793440  0.16720301  1
  Fe  Fe20  1  0.66828502  0.00326958  0.33394090  1
  Fe  Fe21  1  0.66947200  0.33420210  0.00127586  1
  Fe  Fe22  1  0.83393262  0.49977328  0.16566833  1
  Fe  Fe23  1  0.66714577  0.33168508  0.33365705  1
  Ni  Ni24  1  0.66824519  0.66787395  1.00032948  1
  Fe  Fe25  1  0.83502156  0.83506878  0.16614903  1
  Cr  Cr26  1  0.66871210  0.66717990  0.33452906  1
  Fe  Fe27  1  0.16793571  0.16714484  0.49878936  1
  Cr  Cr28  1  0.99994735  0.00117516  0.66651634  1
  Cr  Cr29  1  0.16576979  0.16726702  0.83394584  1
  Fe  Fe30  1  0.16755293  0.49949782  0.49907320  1
  Fe  Fe31  1  0.99701936  0.33430584  0.66629503  1
  Cr  Cr32  1  0.16573683  0.50142926  0.83358785  1
  Fe  Fe33  1  0.16935838  0.83480382  0.49870540  1
  Cr  Cr34  1  0.99839239  0.66873378  0.66592976  1
  Fe  Fe35  1  0.16855387  0.83432339  0.83534663  1
  Ni  Ni36  1  0.50187540  0.16566558  0.49949797  1
  Fe  Fe37  1  0.33642354  0.99793979  0.66604558  1
  Fe  Fe38  1  0.50256842  0.16609396  0.83319016  1
  Fe  Fe39  1  0.49998976  0.49857516  0.49928995  1
  Cr  Cr40  1  0.33500161  0.33242084  0.66583098  1
  Fe  Fe41  1  0.50193118  0.50064712  0.83535158  1
  Fe  Fe42  1  0.49916708  0.83593705  0.49961564  1
  Fe  Fe43  1  0.33380075  0.66952376  0.66615963  1
  Fe  Fe44  1  0.49975754  0.83425147  0.83569814  1
  Fe  Fe45  1  0.83268489  0.16800775  0.49861190  1
  Fe  Fe46  1  0.66572877  0.00230599  0.66677954  1
  Fe  Fe47  1  0.83196090  0.16851489  0.83576893  1
  Fe  Fe48  1  0.83395965  0.49680617  0.49959867  1
  Fe  Fe49  1  0.66906138  0.33169833  0.66640830  1
  Fe  Fe50  1  0.83226473  0.49862533  0.83593145  1
  Fe  Fe51  1  0.83307409  0.83682338  0.49896270  1
  Cr  Cr52  1  0.66658896  0.66763947  0.66640315  1
  Fe  Fe53  1  0.83333969  0.83452638  0.83614335  1
" 