232,Ni8Fe20Cr71_17,-210.079521651966, 190.215108467774,Ni8Fe20Cr71,"# generated using pymatgen
 data_Cr20Fe5Ni2
_symmetry_space_group_name_H-M   'P 1'
_cell_length_a   7.56813027
_cell_length_b   7.56813027
_cell_length_c   10.70295248
_cell_angle_alpha   90.00000000
_cell_angle_beta   90.00000000
_cell_angle_gamma   90.00000000
_symmetry_Int_Tables_number   1
_chemical_formula_structural   Cr20Fe5Ni2
_chemical_formula_sum   'Cr40 Fe10 Ni4'
_cell_volume   613.02868341
_cell_formula_units_Z   2
loop_
 _symmetry_equiv_pos_site_id
 _symmetry_equiv_pos_as_xyz
  1  'x, y, z'
loop_
 _atom_site_type_symbol
 _atom_site_label
 _atom_site_symmetry_multiplicity
 _atom_site_fract_x
 _atom_site_fract_y
 _atom_site_fract_z
 _atom_site_occupancy
  Cr  Cr0  1  0.99270814  0.99165637  -0.00602722  1
  Cr  Cr1  1  0.16235218  0.16006114  0.15729839  1
  Cr  Cr2  1  -0.00553073  0.99175690  0.32686355  1
  Cr  Cr3  1  0.99258949  0.32718788  0.99300011  1
  Cr  Cr4  1  0.16256857  0.49051512  0.15900828  1
  Cr  Cr5  1  0.99257562  0.32660521  0.32682122  1
  Cr  Cr6  1  -0.00445514  0.66098788  -0.00624694  1
  Fe  Fe7  1  0.16169260  0.82723378  0.15797558  1
  Cr  Cr8  1  -0.00390695  0.66165349  0.32518319  1
  Fe  Fe9  1  0.32830632  0.99275791  0.99224892  1
  Cr  Cr10  1  0.49074214  0.15896006  0.15952256  1
  Cr  Cr11  1  0.32565199  0.99106041  0.32864316  1
  Ni  Ni12  1  0.33036891  0.32725093  0.99204083  1
  Fe  Fe13  1  0.49139844  0.49156256  0.15790056  1
  Cr  Cr14  1  0.32801902  0.32735605  0.32914444  1
  Ni  Ni15  1  0.32705575  0.66021338  -0.00454786  1
  Cr  Cr16  1  0.49210294  0.82679348  0.15817334  1
  Cr  Cr17  1  0.32487241  0.66101791  0.32552692  1
  Fe  Fe18  1  0.65726971  -0.00575537  0.99215402  1
  Cr  Cr19  1  0.82703551  0.15914491  0.16130984  1
  Cr  Cr20  1  0.65969301  -0.00509679  0.32817644  1
  Cr  Cr21  1  0.65911112  0.32485358  0.99218946  1
  Cr  Cr22  1  0.82592923  0.49339891  0.16042850  1
  Cr  Cr23  1  0.65928837  0.32553121  0.32773713  1
  Cr  Cr24  1  0.65938934  0.65955045  -0.00631361  1
  Cr  Cr25  1  0.82424009  0.82751607  0.15952152  1
  Cr  Cr26  1  0.65845734  0.65915792  0.32362031  1
  Cr  Cr27  1  0.15948270  0.16058067  0.49331947  1
  Fe  Fe28  1  -0.00611645  0.99277215  0.65964953  1
  Cr  Cr29  1  0.16306041  0.16072859  0.82998320  1
  Fe  Fe30  1  0.15911803  0.49485148  0.49397621  1
  Cr  Cr31  1  -0.00643497  0.32600247  0.66054760  1
  Cr  Cr32  1  0.16094431  0.49254917  0.82630379  1
  Fe  Fe33  1  0.15861335  0.82569875  0.49489277  1
  Fe  Fe34  1  -0.00617878  0.66104936  0.65921980  1
  Cr  Cr35  1  0.16050763  0.82715113  0.82624397  1
  Fe  Fe36  1  0.49396635  0.15978582  0.49435972  1
  Cr  Cr37  1  0.32641784  -0.00632442  0.65959616  1
  Ni  Ni38  1  0.49162234  0.15867823  0.82857567  1
  Cr  Cr39  1  0.49380361  0.49529505  0.49260393  1
  Cr  Cr40  1  0.32822397  0.32587983  0.65988843  1
  Cr  Cr41  1  0.49204488  0.49470869  0.82755937  1
  Cr  Cr42  1  0.49482772  0.82616946  0.49373582  1
  Cr  Cr43  1  0.32555225  0.66075181  0.65835403  1
  Cr  Cr44  1  0.49363345  0.82667030  0.82751748  1
  Fe  Fe45  1  0.82664728  0.15965162  0.49436534  1
  Cr  Cr46  1  0.65872447  -0.00436081  0.66115608  1
  Cr  Cr47  1  0.82769684  0.15820122  0.82695002  1
  Cr  Cr48  1  0.82696810  0.49511180  0.49447732  1
  Cr  Cr49  1  0.65868388  0.32606434  0.66075328  1
  Cr  Cr50  1  0.82646747  0.49586955  0.82403665  1
  Cr  Cr51  1  0.82601240  0.82620731  0.49570506  1
  Ni  Ni52  1  0.66037612  0.66104443  0.66017949  1
  Cr  Cr53  1  0.82518772  0.82565898  0.82407546  1
" 