7186,Ni8Fe77Cr13_13,-224.558892947795, 153.381013918223,Ni8Fe77Cr13,"# generated using pymatgen
 data_Cr9Fe41Ni4
_symmetry_space_group_name_H-M   'P 1'
_cell_length_a   7.45262534
_cell_length_b   7.45262534
_cell_length_c   10.53960384
_cell_angle_alpha   90.00000000
_cell_angle_beta   90.00000000
_cell_angle_gamma   90.00000000
_symmetry_Int_Tables_number   1
_chemical_formula_structural   Cr9Fe41Ni4
_chemical_formula_sum   'Cr9 Fe41 Ni4'
_cell_volume   585.38671867
_cell_formula_units_Z   1
loop_
 _symmetry_equiv_pos_site_id
 _symmetry_equiv_pos_as_xyz
  1  'x, y, z'
loop_
 _atom_site_type_symbol
 _atom_site_label
 _atom_site_symmetry_multiplicity
 _atom_site_fract_x
 _atom_site_fract_y
 _atom_site_fract_z
 _atom_site_occupancy
  Cr  Cr0  1  0.00338137  0.00121491  0.00193613  1
  Ni  Ni1  1  0.16713495  0.16996618  0.16846397  1
  Fe  Fe2  1  0.00285203  0.99968972  0.33184234  1
  Fe  Fe3  1  0.00383101  0.33802966  0.00187865  1
  Fe  Fe4  1  0.16865888  0.50022540  0.16650265  1
  Fe  Fe5  1  0.00278721  0.33568110  0.33321560  1
  Fe  Fe6  1  0.00303354  0.66577463  0.00139687  1
  Fe  Fe7  1  0.16983258  0.83416876  0.16830295  1
  Fe  Fe8  1  0.00119863  0.66768726  0.33400069  1
  Fe  Fe9  1  0.33400867  0.00119532  0.00180253  1
  Cr  Cr10  1  0.50006925  0.16711302  0.16813812  1
  Fe  Fe11  1  0.33175776  1.00094695  0.33385849  1
  Fe  Fe12  1  0.33272349  0.33458869  1.00011699  1
  Fe  Fe13  1  0.49946401  0.50154004  0.16757428  1
  Fe  Fe14  1  0.33287626  0.33503021  0.33464264  1
  Ni  Ni15  1  0.33464389  0.66698458  0.00251098  1
  Fe  Fe16  1  0.49929140  0.83228424  0.16748111  1
  Fe  Fe17  1  0.33332900  0.66676619  0.33248919  1
  Fe  Fe18  1  0.66548003  0.99977335  0.00240156  1
  Fe  Fe19  1  0.83579741  0.16928341  0.16870568  1
  Fe  Fe20  1  0.66826022  0.99899937  0.33286159  1
  Fe  Fe21  1  0.66554769  0.33657559  1.00078407  1
  Fe  Fe22  1  0.83492550  0.49936908  0.16787383  1
  Fe  Fe23  1  0.66699911  0.33677509  0.33430674  1
  Fe  Fe24  1  0.66768047  0.66646978  0.00327595  1
  Fe  Fe25  1  0.83404862  0.83451258  0.16824964  1
  Fe  Fe26  1  0.66849479  0.66682171  0.33292707  1
  Fe  Fe27  1  0.17028167  0.16668574  0.49881874  1
  Fe  Fe28  1  0.00373231  0.99974992  0.66673377  1
  Fe  Fe29  1  0.17151769  0.16797582  0.83554578  1
  Fe  Fe30  1  0.16875350  0.50206088  0.50088678  1
  Cr  Cr31  1  0.00182341  0.33407795  0.66911519  1
  Ni  Ni32  1  0.16823881  0.50199750  0.83572682  1
  Fe  Fe33  1  0.16592823  0.83438574  0.50078444  1
  Fe  Fe34  1  0.00300971  0.66672345  0.66669525  1
  Fe  Fe35  1  0.16935955  0.83277738  0.83412542  1
  Fe  Fe36  1  0.49805528  0.16865723  0.50025928  1
  Fe  Fe37  1  0.33281021  0.00390083  0.66767898  1
  Ni  Ni38  1  0.49875605  0.16787425  0.83412328  1
  Fe  Fe39  1  0.49954627  0.50021110  0.49913363  1
  Fe  Fe40  1  0.33335374  0.33473408  0.66848765  1
  Fe  Fe41  1  0.49867299  0.50050242  0.83647890  1
  Cr  Cr42  1  0.50071867  0.83388928  0.50081833  1
  Fe  Fe43  1  0.33237425  0.66451810  0.66898084  1
  Cr  Cr44  1  0.50050853  0.83459964  0.83572248  1
  Cr  Cr45  1  0.83506245  0.16668487  0.49811794  1
  Fe  Fe46  1  0.66634762  0.00230243  0.66685955  1
  Cr  Cr47  1  0.83297726  0.16743461  0.83763960  1
  Fe  Fe48  1  0.83438407  0.50406895  0.49920637  1
  Cr  Cr49  1  0.66503578  0.33623806  0.66765620  1
  Fe  Fe50  1  0.83399082  0.50183795  0.83650779  1
  Fe  Fe51  1  0.83656506  0.83221078  0.50127298  1
  Fe  Fe52  1  0.66800195  0.66615565  0.66607507  1
  Cr  Cr53  1  0.83433654  0.83252876  0.83125885  1
" 