753,Ni8Fe18Cr72_13,-209.19943987451, 189.29703502276,Ni8Fe18Cr72,"# generated using pymatgen
 data_Cr41Fe9Ni4
_symmetry_space_group_name_H-M   'P 1'
_cell_length_a   7.57257286
_cell_length_b   7.57257286
_cell_length_c   10.70923524
_cell_angle_alpha   90.00000000
_cell_angle_beta   90.00000000
_cell_angle_gamma   90.00000000
_symmetry_Int_Tables_number   1
_chemical_formula_structural   Cr41Fe9Ni4
_chemical_formula_sum   'Cr41 Fe9 Ni4'
_cell_volume   614.10888258
_cell_formula_units_Z   1
loop_
 _symmetry_equiv_pos_site_id
 _symmetry_equiv_pos_as_xyz
  1  'x, y, z'
loop_
 _atom_site_type_symbol
 _atom_site_label
 _atom_site_symmetry_multiplicity
 _atom_site_fract_x
 _atom_site_fract_y
 _atom_site_fract_z
 _atom_site_occupancy
  Cr  Cr0  1  -0.00537347  -0.00629778  0.99260044  1
  Cr  Cr1  1  0.16157476  0.15830145  0.16364504  1
  Cr  Cr2  1  0.99000912  0.99135727  0.32714311  1
  Cr  Cr3  1  -0.00600347  0.32590991  -0.00540929  1
  Cr  Cr4  1  0.16201844  0.49443102  0.16357484  1
  Cr  Cr5  1  0.99263870  0.32812150  0.32566379  1
  Cr  Cr6  1  0.99199320  0.65951254  -0.00516043  1
  Cr  Cr7  1  0.16123211  0.82647431  0.16071789  1
  Ni  Ni8  1  -0.00534580  0.66241272  0.32698191  1
  Cr  Cr9  1  0.32904510  -0.00497246  -0.00693901  1
  Fe  Fe10  1  0.49365267  0.15818355  0.16152323  1
  Fe  Fe11  1  0.32807616  0.99158011  0.32669077  1
  Cr  Cr12  1  0.32761632  0.32338352  0.99272196  1
  Cr  Cr13  1  0.49343710  0.49356511  0.15953187  1
  Fe  Fe14  1  0.32799556  0.32535274  0.32591005  1
  Cr  Cr15  1  0.32696477  0.66048082  0.99201903  1
  Cr  Cr16  1  0.49390440  0.82654402  0.16093536  1
  Fe  Fe17  1  0.32733617  0.66228099  0.32697064  1
  Fe  Fe18  1  0.65828140  0.99290660  -0.00608069  1
  Cr  Cr19  1  0.82298699  0.15750963  0.15875476  1
  Ni  Ni20  1  0.65439064  0.99129320  0.32653815  1
  Fe  Fe21  1  0.65809371  0.32552304  -0.00658858  1
  Cr  Cr22  1  0.82401640  0.49431391  0.15821254  1
  Cr  Cr23  1  0.65914802  0.32429416  0.32577212  1
  Ni  Ni24  1  0.65824690  0.66051772  -0.00684322  1
  Cr  Cr25  1  0.82434760  0.82709224  0.15861746  1
  Cr  Cr26  1  0.66189749  0.66254568  0.33026779  1
  Cr  Cr27  1  0.16031551  0.15856443  0.49358117  1
  Fe  Fe28  1  0.99106964  0.99040825  0.65807961  1
  Cr  Cr29  1  0.15801702  0.15779788  0.82235655  1
  Cr  Cr30  1  0.16211479  0.49342845  0.49037085  1
  Cr  Cr31  1  0.99248706  0.32647745  0.65892587  1
  Cr  Cr32  1  0.16058805  0.49334634  0.82563674  1
  Cr  Cr33  1  0.16066887  0.82706153  0.49261406  1
  Cr  Cr34  1  0.99113221  0.66095911  0.65888247  1
  Cr  Cr35  1  0.15920506  0.82774726  0.82618063  1
  Cr  Cr36  1  0.49241086  0.15936662  0.49032322  1
  Cr  Cr37  1  0.32866685  0.99262598  0.66079916  1
  Fe  Fe38  1  0.49534587  0.15866259  0.82721063  1
  Cr  Cr39  1  0.49098983  0.49414758  0.49271233  1
  Cr  Cr40  1  0.32771896  0.32517428  0.66102961  1
  Cr  Cr41  1  0.49525539  0.49329946  0.82690328  1
  Fe  Fe42  1  0.49353767  0.82857627  0.49057401  1
  Cr  Cr43  1  0.32814171  0.66150741  0.65993518  1
  Cr  Cr44  1  0.49511289  0.82572538  0.82753880  1
  Cr  Cr45  1  0.82603716  0.15626112  0.49374901  1
  Cr  Cr46  1  0.65863935  0.99111380  0.65676436  1
  Cr  Cr47  1  0.82463884  0.15822365  0.82588730  1
  Cr  Cr48  1  0.82633875  0.49344901  0.49257599  1
  Cr  Cr49  1  0.65879921  0.32584247  0.65996810  1
  Cr  Cr50  1  0.82323176  0.49285983  0.82897203  1
  Ni  Ni51  1  0.82604745  0.82866780  0.49077758  1
  Cr  Cr52  1  0.66025694  0.66220783  0.65573167  1
  Cr  Cr53  1  0.82480115  0.82763048  0.82789811  1
" 