6628,Ni8Fe66Cr24_0,-223.266101602084, 159.157521003211,Ni8Fe66Cr24,"# generated using pymatgen
 data_Cr7(Fe9Ni)2
_symmetry_space_group_name_H-M   'P 1'
_cell_length_a   7.47492040
_cell_length_b   7.47492040
_cell_length_c   10.57113381
_cell_angle_alpha   90.00000000
_cell_angle_beta   90.00000000
_cell_angle_gamma   90.00000000
_symmetry_Int_Tables_number   1
_chemical_formula_structural   Cr7(Fe9Ni)2
_chemical_formula_sum   'Cr14 Fe36 Ni4'
_cell_volume   590.65612952
_cell_formula_units_Z   2
loop_
 _symmetry_equiv_pos_site_id
 _symmetry_equiv_pos_as_xyz
  1  'x, y, z'
loop_
 _atom_site_type_symbol
 _atom_site_label
 _atom_site_symmetry_multiplicity
 _atom_site_fract_x
 _atom_site_fract_y
 _atom_site_fract_z
 _atom_site_occupancy
  Fe  Fe0  1  0.00090024  0.99876727  0.99815319  1
  Fe  Fe1  1  0.16577430  0.16428682  0.16573187  1
  Fe  Fe2  1  0.00152168  0.00143368  0.33252906  1
  Fe  Fe3  1  -0.00020897  0.33612009  0.99795317  1
  Fe  Fe4  1  0.16248660  0.50024128  0.16436525  1
  Fe  Fe5  1  0.99907649  0.33401444  0.33083429  1
  Ni  Ni6  1  0.99926698  0.66762114  0.00053713  1
  Fe  Fe7  1  0.16299903  0.83263641  0.16506079  1
  Fe  Fe8  1  0.99779847  0.66372854  0.33136115  1
  Fe  Fe9  1  0.32880939  0.99741680  0.99877422  1
  Fe  Fe10  1  0.50113554  0.16578284  0.16419677  1
  Fe  Fe11  1  0.33354699  0.00013740  0.33206151  1
  Cr  Cr12  1  0.33318512  0.33241678  0.00116420  1
  Cr  Cr13  1  0.50412375  0.50039347  0.16430641  1
  Cr  Cr14  1  0.33302378  0.33023977  0.33318579  1
  Fe  Fe15  1  0.32934712  0.66675154  0.99771690  1
  Cr  Cr16  1  0.49534965  0.83353482  0.16298980  1
  Cr  Cr17  1  0.33029118  0.66454997  0.33137318  1
  Fe  Fe18  1  0.66804503  0.99771957  0.99839408  1
  Cr  Cr19  1  0.83373061  0.16990984  0.16336043  1
  Cr  Cr20  1  0.66535501  0.00066715  0.33530633  1
  Fe  Fe21  1  0.67014448  0.33538182  0.99803274  1
  Ni  Ni22  1  0.83478134  0.49877904  0.16618574  1
  Ni  Ni23  1  0.66525998  0.33269318  0.33046090  1
  Fe  Fe24  1  0.66919247  0.66544808  0.99845940  1
  Cr  Cr25  1  0.83293178  0.83059922  0.16928989  1
  Ni  Ni26  1  0.66717927  0.66539647  0.33480745  1
  Fe  Fe27  1  0.16672731  0.16726631  0.50130571  1
  Fe  Fe28  1  -0.00024779  0.00087514  0.66823239  1
  Fe  Fe29  1  0.16471780  0.16597783  0.83237518  1
  Fe  Fe30  1  0.16600767  0.49701470  0.50091953  1
  Fe  Fe31  1  0.00076098  0.33318641  0.66858316  1
  Fe  Fe32  1  0.16596282  0.50041964  0.83351265  1
  Cr  Cr33  1  0.16741305  0.83408095  0.49742620  1
  Cr  Cr34  1  0.99857361  0.66751725  0.66634879  1
  Fe  Fe35  1  0.16652124  0.83303036  0.83332381  1
  Fe  Fe36  1  0.49791084  0.16589488  0.50137050  1
  Fe  Fe37  1  0.33310016  0.99892383  0.66678910  1
  Cr  Cr38  1  0.49980551  0.16457339  0.83516728  1
  Fe  Fe39  1  0.49899379  0.49957796  0.49892541  1
  Fe  Fe40  1  0.33015123  0.33389568  0.66685325  1
  Fe  Fe41  1  0.49894282  0.50228965  0.83391822  1
  Fe  Fe42  1  0.50126738  0.83115146  0.50050904  1
  Fe  Fe43  1  0.33469124  0.66523193  0.66659241  1
  Fe  Fe44  1  0.49939199  0.83080954  0.83385762  1
  Cr  Cr45  1  0.83484707  0.16698948  0.50085728  1
  Fe  Fe46  1  0.66697028  0.99582570  0.66689303  1
  Fe  Fe47  1  0.83512021  0.16536060  0.83378792  1
  Cr  Cr48  1  0.83153386  0.49872302  0.49493985  1
  Cr  Cr49  1  0.66410142  0.33267840  0.66797791  1
  Fe  Fe50  1  0.83337007  0.50056677  0.83512083  1
  Fe  Fe51  1  0.83260605  0.83264254  0.49881747  1
  Fe  Fe52  1  0.66482453  0.66714436  0.66593245  1
  Fe  Fe53  1  0.83245041  0.83324763  0.83463422  1
" 