8143,Ni8Fe78Cr13_10,-224.872948693134, 155.62418516244,Ni8Fe78Cr13,"# generated using pymatgen
 data_Cr4Fe21Ni2
_symmetry_space_group_name_H-M   'P 1'
_cell_length_a   7.44612282
_cell_length_b   7.44612282
_cell_length_c   10.53040788
_cell_angle_alpha   90.00000000
_cell_angle_beta   90.00000000
_cell_angle_gamma   90.00000000
_symmetry_Int_Tables_number   1
_chemical_formula_structural   Cr4Fe21Ni2
_chemical_formula_sum   'Cr8 Fe42 Ni4'
_cell_volume   583.85578065
_cell_formula_units_Z   2
loop_
 _symmetry_equiv_pos_site_id
 _symmetry_equiv_pos_as_xyz
  1  'x, y, z'
loop_
 _atom_site_type_symbol
 _atom_site_label
 _atom_site_symmetry_multiplicity
 _atom_site_fract_x
 _atom_site_fract_y
 _atom_site_fract_z
 _atom_site_occupancy
  Fe  Fe0  1  1.00022660  0.99791110  0.00172061  1
  Fe  Fe1  1  0.16694241  0.17140000  0.16771820  1
  Fe  Fe2  1  0.99964954  0.99874300  0.33520924  1
  Fe  Fe3  1  0.00191928  0.33819769  0.00285015  1
  Ni  Ni4  1  0.17010142  0.50310771  0.16739604  1
  Fe  Fe5  1  0.00233544  0.33695539  0.33360349  1
  Fe  Fe6  1  0.00241078  0.66789513  0.00193534  1
  Fe  Fe7  1  0.16707006  0.83103099  0.16808425  1
  Fe  Fe8  1  0.00249265  0.66821503  0.33328889  1
  Cr  Cr9  1  0.33397460  0.00155952  0.00362829  1
  Fe  Fe10  1  0.50106749  0.17107037  0.16817463  1
  Cr  Cr11  1  0.33254435  0.00300059  0.33345065  1
  Fe  Fe12  1  0.33553251  0.33795329  0.00218948  1
  Fe  Fe13  1  0.50098654  0.50283342  0.16812084  1
  Fe  Fe14  1  0.33560181  0.33796215  0.33375812  1
  Ni  Ni15  1  0.33525992  0.66859037  1.00027380  1
  Fe  Fe16  1  0.50225959  0.83095364  0.16845126  1
  Ni  Ni17  1  0.33587038  0.66914063  0.33501697  1
  Fe  Fe18  1  0.66786803  0.99893012  1.00069131  1
  Cr  Cr19  1  0.83319169  0.16603803  0.16746876  1
  Fe  Fe20  1  0.66761688  0.99830240  0.33532509  1
  Fe  Fe21  1  0.66652526  0.33646502  1.00089848  1
  Fe  Fe22  1  0.83569873  0.50220210  0.16802539  1
  Fe  Fe23  1  0.66684022  0.33591814  0.33487648  1
  Fe  Fe24  1  0.66762175  0.66820435  0.00186159  1
  Fe  Fe25  1  0.83503263  0.83138705  0.16820478  1
  Ni  Ni26  1  0.67025718  0.66657354  0.33331771  1
  Fe  Fe27  1  0.16463045  0.16821155  0.50093012  1
  Fe  Fe28  1  0.99849641  1.00047279  0.66737146  1
  Cr  Cr29  1  0.16600445  0.16945350  0.83639014  1
  Cr  Cr30  1  0.16911158  0.50315899  0.50235226  1
  Fe  Fe31  1  0.99780485  0.33539684  0.66797375  1
  Fe  Fe32  1  0.16743118  0.50399799  0.83593952  1
  Fe  Fe33  1  0.16634931  0.83430115  0.50065850  1
  Fe  Fe34  1  0.00242263  0.66900474  0.66926663  1
  Fe  Fe35  1  0.16689417  0.83258340  0.83512783  1
  Fe  Fe36  1  0.50388874  0.16915641  0.50015493  1
  Cr  Cr37  1  0.33431965  1.00026236  0.66739330  1
  Fe  Fe38  1  0.50421867  0.16814904  0.83584127  1
  Fe  Fe39  1  0.50351925  0.50210150  0.49928467  1
  Cr  Cr40  1  0.33576464  0.33434805  0.66880314  1
  Fe  Fe41  1  0.50123446  0.50149657  0.83640839  1
  Fe  Fe42  1  0.50252826  0.83215800  0.49945576  1
  Fe  Fe43  1  0.33498551  0.66831367  0.66947355  1
  Fe  Fe44  1  0.50181615  0.83391260  0.83573095  1
  Fe  Fe45  1  0.83509851  0.16851654  0.50033145  1
  Fe  Fe46  1  0.66926096  0.00256716  0.66787482  1
  Fe  Fe47  1  0.83277566  0.16807418  0.83591269  1
  Fe  Fe48  1  0.83424623  0.50082406  0.49968706  1
  Fe  Fe49  1  0.66968272  0.33274461  0.66808006  1
  Fe  Fe50  1  0.83605907  0.50007769  0.83600098  1
  Fe  Fe51  1  0.83527186  0.83404365  0.49994210  1
  Cr  Cr52  1  0.66937038  0.66630703  0.66833362  1
  Fe  Fe53  1  0.83579077  0.83569944  0.83561550  1
" 