1654,Ni8Fe78Cr13_6,-225.077306396818, 152.52950768155,Ni8Fe78Cr13,"# generated using pymatgen
 data_Cr4Fe21Ni2
_symmetry_space_group_name_H-M   'P 1'
_cell_length_a   7.45411325
_cell_length_b   7.45411325
_cell_length_c   10.54170805
_cell_angle_alpha   90.00000000
_cell_angle_beta   90.00000000
_cell_angle_gamma   90.00000000
_symmetry_Int_Tables_number   1
_chemical_formula_structural   Cr4Fe21Ni2
_chemical_formula_sum   'Cr8 Fe42 Ni4'
_cell_volume   585.73740260
_cell_formula_units_Z   2
loop_
 _symmetry_equiv_pos_site_id
 _symmetry_equiv_pos_as_xyz
  1  'x, y, z'
loop_
 _atom_site_type_symbol
 _atom_site_label
 _atom_site_symmetry_multiplicity
 _atom_site_fract_x
 _atom_site_fract_y
 _atom_site_fract_z
 _atom_site_occupancy
  Ni  Ni0  1  0.00279727  0.00140906  0.00201470  1
  Fe  Fe1  1  0.16708440  0.16592001  0.16761435  1
  Fe  Fe2  1  0.99989202  0.00137503  0.33292086  1
  Cr  Cr3  1  0.00173472  0.33265762  1.00028066  1
  Fe  Fe4  1  0.16858122  0.50164498  0.16828081  1
  Fe  Fe5  1  1.00068441  0.33438569  0.33398860  1
  Fe  Fe6  1  0.00196269  0.66965430  0.00167010  1
  Fe  Fe7  1  0.16628171  0.83503690  0.16683966  1
  Fe  Fe8  1  0.00155166  0.66683984  0.33343791  1
  Ni  Ni9  1  0.33115344  0.00191737  0.99981061  1
  Cr  Cr10  1  0.50191249  0.17010565  0.16734250  1
  Fe  Fe11  1  0.33369931  0.00136902  0.33434680  1
  Fe  Fe12  1  0.33473486  0.33376069  1.00021307  1
  Fe  Fe13  1  0.49954283  0.49944319  0.16811283  1
  Fe  Fe14  1  0.33401297  0.33550453  0.33527371  1
  Fe  Fe15  1  0.33225917  0.66732244  0.00089469  1
  Cr  Cr16  1  0.49722404  0.83420975  0.16828454  1
  Fe  Fe17  1  0.33315662  0.66572891  0.33457174  1
  Cr  Cr18  1  0.66901380  1.00057497  0.99914727  1
  Fe  Fe19  1  0.83571113  0.16707254  0.16810284  1
  Fe  Fe20  1  0.66900850  0.00222953  0.33546751  1
  Fe  Fe21  1  0.66716955  0.33348791  0.99986557  1
  Fe  Fe22  1  0.83448030  0.50020984  0.16826603  1
  Fe  Fe23  1  0.66790983  0.33384646  0.33515848  1
  Cr  Cr24  1  0.66778745  0.66613681  0.99960635  1
  Fe  Fe25  1  0.83790659  0.83531253  0.16801045  1
  Cr  Cr26  1  0.66720467  0.66756716  0.33567783  1
  Fe  Fe27  1  0.16816979  0.16944950  0.50081066  1
  Fe  Fe28  1  0.99908095  0.00259920  0.66841109  1
  Fe  Fe29  1  0.16758093  0.16753238  0.83417677  1
  Fe  Fe30  1  0.16820608  0.49952598  0.50086914  1
  Fe  Fe31  1  1.00058298  0.33386846  0.66807851  1
  Fe  Fe32  1  0.16761463  0.49965597  0.83344936  1
  Cr  Cr33  1  0.16752558  0.83345426  0.49980835  1
  Fe  Fe34  1  0.99950164  0.66613336  0.66750105  1
  Cr  Cr35  1  0.16727603  0.83410038  0.83665910  1
  Fe  Fe36  1  0.50062359  0.16797237  0.50056141  1
  Fe  Fe37  1  0.33560130  0.00219031  0.66805833  1
  Fe  Fe38  1  0.50030481  0.16771092  0.83408883  1
  Ni  Ni39  1  0.50064271  0.49946039  0.50059528  1
  Fe  Fe40  1  0.33447209  0.33464858  0.66710917  1
  Fe  Fe41  1  0.50058622  0.49978617  0.83296515  1
  Fe  Fe42  1  0.50152611  0.83424952  0.50136683  1
  Fe  Fe43  1  0.33596152  0.66576106  0.66714246  1
  Fe  Fe44  1  0.50104979  0.83510408  0.83331401  1
  Fe  Fe45  1  0.83380888  0.16788363  0.50138388  1
  Fe  Fe46  1  0.66791925  0.00111157  0.66801900  1
  Ni  Ni47  1  0.83328712  0.16817934  0.83361630  1
  Fe  Fe48  1  0.83443819  0.50043350  0.50151153  1
  Fe  Fe49  1  0.66754597  0.33422689  0.66757465  1
  Fe  Fe50  1  0.83440440  0.50040241  0.83282377  1
  Fe  Fe51  1  0.83296167  0.83428790  0.50151507  1
  Fe  Fe52  1  0.66713821  0.66726377  0.66716211  1
  Fe  Fe53  1  0.83458225  0.83513573  0.83307804  1
" 