7263,Ni8Fe77Cr13_1,-224.728183355258, 151.701231906305,Ni8Fe77Cr13,"# generated using pymatgen
 data_Cr9Fe41Ni4
_symmetry_space_group_name_H-M   'P 1'
_cell_length_a   7.45903160
_cell_length_b   7.45903160
_cell_length_c   10.54866365
_cell_angle_alpha   90.00000000
_cell_angle_beta   90.00000000
_cell_angle_gamma   90.00000000
_symmetry_Int_Tables_number   1
_chemical_formula_structural   Cr9Fe41Ni4
_chemical_formula_sum   'Cr9 Fe41 Ni4'
_cell_volume   586.89760668
_cell_formula_units_Z   1
loop_
 _symmetry_equiv_pos_site_id
 _symmetry_equiv_pos_as_xyz
  1  'x, y, z'
loop_
 _atom_site_type_symbol
 _atom_site_label
 _atom_site_symmetry_multiplicity
 _atom_site_fract_x
 _atom_site_fract_y
 _atom_site_fract_z
 _atom_site_occupancy
  Fe  Fe0  1  0.99878164  1.00024358  0.99944278  1
  Fe  Fe1  1  0.16506819  0.16655976  0.16783984  1
  Fe  Fe2  1  1.00016228  0.00054114  0.33373694  1
  Fe  Fe3  1  1.00006768  0.33290230  0.99991905  1
  Cr  Cr4  1  0.16744341  0.50002309  0.16734724  1
  Fe  Fe5  1  1.00044473  0.33353068  0.33453714  1
  Fe  Fe6  1  0.99963740  0.66846618  1.00012870  1
  Fe  Fe7  1  0.16638440  0.83436140  0.16836855  1
  Ni  Ni8  1  0.00301597  0.66711070  0.33401773  1
  Cr  Cr9  1  0.33245210  0.99967730  0.99875122  1
  Cr  Cr10  1  0.50094781  0.16678155  0.16827177  1
  Fe  Fe11  1  0.33299391  0.99992512  0.33381984  1
  Fe  Fe12  1  0.33388577  0.33531169  0.99908308  1
  Fe  Fe13  1  0.50043049  0.50195746  0.16561308  1
  Fe  Fe14  1  0.33262831  0.33405296  0.33535035  1
  Fe  Fe15  1  0.33469719  0.66643432  0.99983743  1
  Fe  Fe16  1  0.50064780  0.83261998  0.16781126  1
  Fe  Fe17  1  0.33248003  0.66763414  0.33384816  1
  Fe  Fe18  1  0.66968588  0.99943100  0.99990004  1
  Fe  Fe19  1  0.83585005  0.16634167  0.16685392  1
  Ni  Ni20  1  0.66688272  0.00200651  0.33227574  1
  Fe  Fe21  1  0.66766068  0.33446174  1.00004670  1
  Fe  Fe22  1  0.83411082  0.50064257  0.16612003  1
  Cr  Cr23  1  0.66828891  0.33372863  0.33554726  1
  Fe  Fe24  1  0.66727886  0.66772110  1.00030785  1
  Fe  Fe25  1  0.83457953  0.83462865  0.16682969  1
  Cr  Cr26  1  0.66812963  0.66618605  0.33151652  1
  Fe  Fe27  1  0.16617714  0.16721227  0.50024089  1
  Ni  Ni28  1  0.00199012  0.00091892  0.66857178  1
  Fe  Fe29  1  0.16478654  0.16769448  0.83353117  1
  Fe  Fe30  1  0.16691611  0.50133868  0.49986826  1
  Fe  Fe31  1  0.00055067  0.33263833  0.66715583  1
  Fe  Fe32  1  0.16670249  0.50114500  0.83414815  1
  Fe  Fe33  1  0.16578369  0.83306188  0.49978099  1
  Fe  Fe34  1  0.00088049  0.66803785  0.66766826  1
  Fe  Fe35  1  0.16462104  0.83277272  0.83346431  1
  Fe  Fe36  1  0.50039483  0.16890661  0.49914481  1
  Cr  Cr37  1  0.33106407  0.00074973  0.66821347  1
  Fe  Fe38  1  0.50186896  0.16883695  0.83486841  1
  Fe  Fe39  1  0.49920209  0.49918405  0.50212866  1
  Fe  Fe40  1  0.33352906  0.33449585  0.66718024  1
  Fe  Fe41  1  0.50110007  0.50114362  0.83386865  1
  Cr  Cr42  1  0.50033206  0.83421966  0.49911169  1
  Fe  Fe43  1  0.33281966  0.66580038  0.66792463  1
  Fe  Fe44  1  0.50203456  0.83163204  0.83445439  1
  Fe  Fe45  1  0.83503656  0.16776987  0.50052081  1
  Cr  Cr46  1  0.66833366  0.00212788  0.66904697  1
  Fe  Fe47  1  0.83495629  0.16675677  0.83424321  1
  Fe  Fe48  1  0.83549814  0.49958672  0.50158408  1
  Fe  Fe49  1  0.66753266  0.33460678  0.66691752  1
  Fe  Fe50  1  0.83380965  0.50130980  0.83390688  1
  Cr  Cr51  1  0.83599261  0.83462389  0.50080443  1
  Fe  Fe52  1  0.66791466  0.66536781  0.66893779  1
  Ni  Ni53  1  0.83455205  0.83379634  0.83460797  1
" 