6831,Ni8Fe18Cr72_18,-209.561810082817, 194.850315425549,Ni8Fe18Cr72,"# generated using pymatgen
 data_Cr41Fe9Ni4
_symmetry_space_group_name_H-M   'P 1'
_cell_length_a   7.56642027
_cell_length_b   7.56642027
_cell_length_c   10.70053416
_cell_angle_alpha   90.00000000
_cell_angle_beta   90.00000000
_cell_angle_gamma   90.00000000
_symmetry_Int_Tables_number   1
_chemical_formula_structural   Cr41Fe9Ni4
_chemical_formula_sum   'Cr41 Fe9 Ni4'
_cell_volume   612.61323940
_cell_formula_units_Z   1
loop_
 _symmetry_equiv_pos_site_id
 _symmetry_equiv_pos_as_xyz
  1  'x, y, z'
loop_
 _atom_site_type_symbol
 _atom_site_label
 _atom_site_symmetry_multiplicity
 _atom_site_fract_x
 _atom_site_fract_y
 _atom_site_fract_z
 _atom_site_occupancy
  Ni  Ni0  1  -0.00550739  0.99267531  0.99199750  1
  Cr  Cr1  1  0.15703283  0.15982737  0.16382467  1
  Cr  Cr2  1  -0.00534250  0.98983869  0.32905502  1
  Cr  Cr3  1  -0.00647035  0.32799490  0.99194597  1
  Cr  Cr4  1  0.15786020  0.49430724  0.15769498  1
  Fe  Fe5  1  0.99144953  0.32895403  0.32681353  1
  Fe  Fe6  1  0.99316550  0.65920079  0.99175654  1
  Cr  Cr7  1  0.15797540  0.82592853  0.15758864  1
  Cr  Cr8  1  0.99184894  0.65894922  0.32819057  1
  Cr  Cr9  1  0.32561442  -0.00534956  -0.00371178  1
  Cr  Cr10  1  0.49413807  0.16005798  0.16249622  1
  Fe  Fe11  1  0.32604788  0.99028496  0.32792235  1
  Cr  Cr12  1  0.32593032  0.32751795  0.99220811  1
  Cr  Cr13  1  0.49294019  0.49467002  0.15962314  1
  Cr  Cr14  1  0.32558802  0.32613647  0.32528375  1
  Fe  Fe15  1  0.32495450  0.65980692  0.99289186  1
  Cr  Cr16  1  0.49337117  0.82529381  0.15946429  1
  Cr  Cr17  1  0.32475634  0.66132334  0.32746948  1
  Cr  Cr18  1  0.66078896  -0.00603969  0.99155887  1
  Cr  Cr19  1  0.82911940  0.15994545  0.15843054  1
  Cr  Cr20  1  0.66072866  0.99132314  0.32733719  1
  Cr  Cr21  1  0.66032849  0.32807600  0.99203817  1
  Fe  Fe22  1  0.82882520  0.49340010  0.15904698  1
  Cr  Cr23  1  0.66238101  0.32995793  0.32536790  1
  Cr  Cr24  1  0.66179705  0.65846230  -0.00447907  1
  Cr  Cr25  1  0.82894191  0.82675658  0.15694894  1
  Cr  Cr26  1  0.66389632  0.65977421  0.32743908  1
  Cr  Cr27  1  0.15842333  0.16083308  0.48985579  1
  Cr  Cr28  1  -0.00609089  0.99145832  0.65974591  1
  Cr  Cr29  1  0.15698950  0.15910043  0.82716336  1
  Cr  Cr30  1  0.15997212  0.49315726  0.49503295  1
  Cr  Cr31  1  0.99314236  0.32890103  0.66174920  1
  Fe  Fe32  1  0.15777001  0.49595894  0.82728910  1
  Ni  Ni33  1  0.15759890  0.82501709  0.49323913  1
  Cr  Cr34  1  -0.00634285  0.66076966  0.65883873  1
  Cr  Cr35  1  0.15979670  0.82451958  0.82880640  1
  Cr  Cr36  1  0.49423087  0.16153391  0.49258853  1
  Cr  Cr37  1  0.32445815  0.99267091  0.65646397  1
  Cr  Cr38  1  0.49430923  0.15979789  0.82542197  1
  Cr  Cr39  1  0.49350343  0.49320583  0.49553073  1
  Cr  Cr40  1  0.32473263  0.32723531  0.66288759  1
  Cr  Cr41  1  0.49200279  0.49672812  0.82511401  1
  Cr  Cr42  1  0.49375780  0.82520244  0.49432753  1
  Fe  Fe43  1  0.32441082  0.66150807  0.65940746  1
  Cr  Cr44  1  0.49242882  0.82422357  0.82651382  1
  Cr  Cr45  1  0.82752385  0.16104252  0.49470615  1
  Cr  Cr46  1  0.66196467  0.99238015  0.66158535  1
  Fe  Fe47  1  0.82847420  0.16096484  0.82783798  1
  Fe  Fe48  1  0.82811640  0.49410220  0.49397348  1
  Cr  Cr49  1  0.66194859  0.32830991  0.66328853  1
  Ni  Ni50  1  0.82850358  0.49448287  0.82787582  1
  Ni  Ni51  1  0.82931671  0.82587087  0.49377582  1
  Cr  Cr52  1  0.66403818  0.66044272  0.65726948  1
  Cr  Cr53  1  0.82825879  0.82690727  0.82890656  1
" 