1496,Ni8Fe20Cr71_5,-209.905096544796, 189.658941027223,Ni8Fe20Cr71,"# generated using pymatgen
 data_Cr20Fe5Ni2
_symmetry_space_group_name_H-M   'P 1'
_cell_length_a   7.56576803
_cell_length_b   7.56576803
_cell_length_c   10.69961176
_cell_angle_alpha   90.00000000
_cell_angle_beta   90.00000000
_cell_angle_gamma   90.00000000
_symmetry_Int_Tables_number   1
_chemical_formula_structural   Cr20Fe5Ni2
_chemical_formula_sum   'Cr40 Fe10 Ni4'
_cell_volume   612.45482817
_cell_formula_units_Z   2
loop_
 _symmetry_equiv_pos_site_id
 _symmetry_equiv_pos_as_xyz
  1  'x, y, z'
loop_
 _atom_site_type_symbol
 _atom_site_label
 _atom_site_symmetry_multiplicity
 _atom_site_fract_x
 _atom_site_fract_y
 _atom_site_fract_z
 _atom_site_occupancy
  Fe  Fe0  1  -0.00611652  -0.00608335  -0.00616348  1
  Fe  Fe1  1  0.16190126  0.15756183  0.16067986  1
  Cr  Cr2  1  -0.00318757  0.99168684  0.32643742  1
  Cr  Cr3  1  -0.00531770  0.32452557  0.99261230  1
  Cr  Cr4  1  0.16039267  0.49303982  0.16071905  1
  Cr  Cr5  1  0.99272085  0.32663568  0.32671799  1
  Cr  Cr6  1  -0.00646969  0.66228049  -0.00534961  1
  Fe  Fe7  1  0.16245215  0.82888362  0.16111048  1
  Cr  Cr8  1  -0.00604524  0.66210405  0.32743691  1
  Cr  Cr9  1  0.32546305  -0.00564459  -0.00414056  1
  Fe  Fe10  1  0.49262452  0.15662284  0.16150596  1
  Ni  Ni11  1  0.32813660  0.99338335  0.32590463  1
  Cr  Cr12  1  0.32703525  0.32547328  0.99240212  1
  Cr  Cr13  1  0.49212212  0.49433927  0.15943392  1
  Cr  Cr14  1  0.32891488  0.32222029  0.32556565  1
  Cr  Cr15  1  0.32745167  0.66059199  0.99282336  1
  Ni  Ni16  1  0.49196157  0.83106543  0.16069421  1
  Cr  Cr17  1  0.32570793  0.66454297  0.32630442  1
  Fe  Fe18  1  0.65960817  0.99296955  -0.00529131  1
  Cr  Cr19  1  0.82655057  0.15853898  0.15869317  1
  Fe  Fe20  1  0.65605835  -0.00609884  0.32644191  1
  Cr  Cr21  1  0.65871415  0.32650605  -0.00618974  1
  Cr  Cr22  1  0.82791266  0.49282408  0.16163501  1
  Cr  Cr23  1  0.65879283  0.32507375  0.32743922  1
  Cr  Cr24  1  0.65944803  0.66070579  0.99261444  1
  Cr  Cr25  1  0.82525651  0.82906479  0.15786573  1
  Cr  Cr26  1  0.66076416  0.66045231  0.32657801  1
  Cr  Cr27  1  0.16173685  0.15928330  0.49433647  1
  Cr  Cr28  1  -0.00482683  -0.00638842  0.66054531  1
  Fe  Fe29  1  0.15925591  0.16088779  0.82679584  1
  Cr  Cr30  1  0.15929219  0.49433194  0.49423886  1
  Fe  Fe31  1  -0.00572427  0.32681468  0.66101130  1
  Fe  Fe32  1  0.16055173  0.49223374  0.82644675  1
  Ni  Ni33  1  0.16146794  0.82773228  0.49183940  1
  Cr  Cr34  1  -0.00587846  0.66064147  0.65834311  1
  Cr  Cr35  1  0.16048521  0.82689225  0.82710046  1
  Ni  Ni36  1  0.49305463  0.15820193  0.49097410  1
  Cr  Cr37  1  0.32532991  -0.00550380  0.65766909  1
  Cr  Cr38  1  0.49303505  0.16016714  0.82710169  1
  Cr  Cr39  1  0.49267807  0.49243290  0.49414285  1
  Cr  Cr40  1  0.32705011  0.32588089  0.66246660  1
  Fe  Fe41  1  0.49273169  0.49352937  0.82682937  1
  Cr  Cr42  1  0.49137333  0.83001581  0.49269029  1
  Cr  Cr43  1  0.32607362  0.66004903  0.66130411  1
  Cr  Cr44  1  0.49397194  0.82594231  0.82726587  1
  Cr  Cr45  1  0.82525967  0.16058216  0.49441748  1
  Cr  Cr46  1  0.65992282  -0.00541184  0.65861040  1
  Cr  Cr47  1  0.82889621  0.15923150  0.82731700  1
  Cr  Cr48  1  0.82845838  0.49227702  0.49274153  1
  Cr  Cr49  1  0.65934299  0.32692666  0.65917614  1
  Cr  Cr50  1  0.82795140  0.49232721  0.82605013  1
  Cr  Cr51  1  0.82715468  0.82756725  0.49385888  1
  Cr  Cr52  1  0.66023087  0.65891201  0.66123763  1
  Cr  Cr53  1  0.82596695  0.82887343  0.82870409  1
" 