1705,Ni8Fe18Cr72_5,-209.492983290172, 193.569234000035,Ni8Fe18Cr72,"# generated using pymatgen
 data_Cr41Fe9Ni4
_symmetry_space_group_name_H-M   'P 1'
_cell_length_a   7.56814509
_cell_length_b   7.56814509
_cell_length_c   10.70297343
_cell_angle_alpha   90.00000000
_cell_angle_beta   90.00000000
_cell_angle_gamma   90.00000000
_symmetry_Int_Tables_number   1
_chemical_formula_structural   Cr41Fe9Ni4
_chemical_formula_sum   'Cr41 Fe9 Ni4'
_cell_volume   613.03228428
_cell_formula_units_Z   1
loop_
 _symmetry_equiv_pos_site_id
 _symmetry_equiv_pos_as_xyz
  1  'x, y, z'
loop_
 _atom_site_type_symbol
 _atom_site_label
 _atom_site_symmetry_multiplicity
 _atom_site_fract_x
 _atom_site_fract_y
 _atom_site_fract_z
 _atom_site_occupancy
  Ni  Ni0  1  0.99112896  0.98981860  0.99210195  1
  Cr  Cr1  1  0.15852121  0.15758213  0.15707799  1
  Cr  Cr2  1  0.99248343  0.99330231  0.32956332  1
  Cr  Cr3  1  0.99327081  0.32852517  0.99288994  1
  Cr  Cr4  1  0.15881654  0.49533330  0.15763349  1
  Cr  Cr5  1  0.99148172  0.32764948  0.32674539  1
  Fe  Fe6  1  0.99292877  0.66200945  0.99172684  1
  Cr  Cr7  1  0.15812068  0.82732853  0.16147055  1
  Cr  Cr8  1  0.99316208  0.65895379  0.32673630  1
  Cr  Cr9  1  0.32803309  0.99086690  -0.00451029  1
  Cr  Cr10  1  0.49417493  0.16001973  0.16098069  1
  Cr  Cr11  1  0.32764148  0.99030263  0.32499361  1
  Cr  Cr12  1  0.32546588  0.32878431  0.99162614  1
  Cr  Cr13  1  0.49574819  0.49365389  0.16176860  1
  Cr  Cr14  1  0.32443093  0.32774792  0.32507788  1
  Cr  Cr15  1  0.32857532  0.66052127  0.99296634  1
  Ni  Ni16  1  0.49531929  0.82400194  0.15748951  1
  Cr  Cr17  1  0.32649386  0.66198070  0.32780095  1
  Cr  Cr18  1  0.65964083  0.98922916  0.99027539  1
  Cr  Cr19  1  0.82707212  0.15897587  0.16076089  1
  Cr  Cr20  1  0.66024113  0.99155992  0.32804846  1
  Cr  Cr21  1  0.66110318  0.32847283  -0.00522299  1
  Fe  Fe22  1  0.82659696  0.49437399  0.15894354  1
  Fe  Fe23  1  0.66171415  0.32592436  0.32722741  1
  Fe  Fe24  1  0.66042800  0.66081539  0.99324369  1
  Cr  Cr25  1  0.82819814  0.82520750  0.15543964  1
  Cr  Cr26  1  0.66016829  0.66095049  0.32255360  1
  Cr  Cr27  1  0.16018971  0.15847940  0.49258015  1
  Cr  Cr28  1  0.99190846  0.99329761  0.65766303  1
  Cr  Cr29  1  0.15899550  0.15739386  0.83018309  1
  Cr  Cr30  1  0.16071870  0.49759981  0.49760461  1
  Cr  Cr31  1  0.99313520  0.32832417  0.66033268  1
  Fe  Fe32  1  0.15838232  0.49600981  0.82592711  1
  Fe  Fe33  1  0.15902594  0.82534479  0.49519282  1
  Ni  Ni34  1  -0.00463205  0.66061364  0.66207784  1
  Cr  Cr35  1  0.15674919  0.82557694  0.82535210  1
  Cr  Cr36  1  0.49495547  0.16185180  0.49241233  1
  Cr  Cr37  1  0.32780662  0.99138409  0.65965323  1
  Cr  Cr38  1  0.49344352  0.16060348  0.82654013  1
  Cr  Cr39  1  0.49339352  0.49345560  0.49349549  1
  Cr  Cr40  1  0.32427137  0.32796251  0.66359659  1
  Cr  Cr41  1  0.49307211  0.49505059  0.82456213  1
  Cr  Cr42  1  0.49163809  0.82450508  0.49444857  1
  Fe  Fe43  1  0.32427468  0.66122319  0.66120432  1
  Fe  Fe44  1  0.49316037  0.82575842  0.82747175  1
  Ni  Ni45  1  0.82651136  0.16003892  0.49266599  1
  Cr  Cr46  1  0.66043148  0.99203268  0.66141741  1
  Cr  Cr47  1  0.82772987  0.15773121  0.82613663  1
  Cr  Cr48  1  0.82529671  0.49413483  0.49161406  1
  Cr  Cr49  1  0.66250176  0.32562884  0.65732447  1
  Cr  Cr50  1  0.82715714  0.49780845  0.82836278  1
  Cr  Cr51  1  0.82914650  0.82546362  0.49585896  1
  Cr  Cr52  1  0.66054159  0.66252549  0.66277441  1
  Fe  Fe53  1  0.82856106  0.82563576  0.82746464  1
" 