7452,Ni8Fe66Cr24_4,-222.883812541352, 164.089464206689,Ni8Fe66Cr24,"# generated using pymatgen
 data_Cr7(Fe9Ni)2
_symmetry_space_group_name_H-M   'P 1'
_cell_length_a   7.46877559
_cell_length_b   7.46877559
_cell_length_c   10.56244373
_cell_angle_alpha   90.00000000
_cell_angle_beta   90.00000000
_cell_angle_gamma   90.00000000
_symmetry_Int_Tables_number   1
_chemical_formula_structural   Cr7(Fe9Ni)2
_chemical_formula_sum   'Cr14 Fe36 Ni4'
_cell_volume   589.20066707
_cell_formula_units_Z   2
loop_
 _symmetry_equiv_pos_site_id
 _symmetry_equiv_pos_as_xyz
  1  'x, y, z'
loop_
 _atom_site_type_symbol
 _atom_site_label
 _atom_site_symmetry_multiplicity
 _atom_site_fract_x
 _atom_site_fract_y
 _atom_site_fract_z
 _atom_site_occupancy
  Cr  Cr0  1  0.00048813  0.00048969  0.00113007  1
  Fe  Fe1  1  0.16606579  0.16746410  0.16757307  1
  Fe  Fe2  1  0.00086749  0.00044588  0.33215373  1
  Cr  Cr3  1  0.99871621  0.33149345  0.99529870  1
  Cr  Cr4  1  0.16696707  0.50130326  0.16695312  1
  Ni  Ni5  1  0.99943318  0.33388223  0.33676639  1
  Cr  Cr6  1  0.99933725  0.66872565  0.99580444  1
  Fe  Fe7  1  0.16637792  0.83587031  0.16833018  1
  Fe  Fe8  1  0.00093386  0.66858877  0.33538651  1
  Fe  Fe9  1  0.33569691  0.00265139  0.00080113  1
  Ni  Ni10  1  0.50233216  0.16399517  0.16539966  1
  Cr  Cr11  1  0.33461621  0.99911813  0.33407005  1
  Fe  Fe12  1  0.33457695  0.32933732  0.00112126  1
  Fe  Fe13  1  0.50137723  0.49757302  0.16733811  1
  Cr  Cr14  1  0.33387291  0.33054886  0.33410627  1
  Cr  Cr15  1  0.33373029  0.67026712  0.00208474  1
  Fe  Fe16  1  0.50215372  0.83351207  0.16870518  1
  Fe  Fe17  1  0.33237813  0.66748642  0.33337222  1
  Fe  Fe18  1  0.66503798  0.00161840  0.99966116  1
  Fe  Fe19  1  0.83308412  0.16643147  0.16966569  1
  Fe  Fe20  1  0.66642327  -0.00007133  0.33346327  1
  Fe  Fe21  1  0.66516641  0.32909233  0.99974619  1
  Cr  Cr22  1  0.83341830  0.49928139  0.16885613  1
  Fe  Fe23  1  0.66684912  0.33022874  0.33306006  1
  Cr  Cr24  1  0.66705840  0.66793364  0.99805629  1
  Fe  Fe25  1  0.83187991  0.83531592  0.16878177  1
  Fe  Fe26  1  0.66585023  0.66889820  0.33349359  1
  Fe  Fe27  1  0.16780961  0.16528291  0.50166239  1
  Fe  Fe28  1  0.00039738  0.00054009  0.66764136  1
  Fe  Fe29  1  0.17015412  0.16544374  0.83101714  1
  Fe  Fe30  1  0.16483259  0.50066275  0.49985085  1
  Fe  Fe31  1  0.00155221  0.33179596  0.66611847  1
  Fe  Fe32  1  0.16853726  0.49764216  0.83205199  1
  Fe  Fe33  1  0.16655615  0.83352290  0.50122934  1
  Cr  Cr34  1  0.99773834  0.66611429  0.66926542  1
  Fe  Fe35  1  0.17039749  0.83676736  0.83165599  1
  Fe  Fe36  1  0.50014035  0.16285090  0.50155184  1
  Fe  Fe37  1  0.33433617  0.00028443  0.66512403  1
  Ni  Ni38  1  0.49980892  0.16476502  0.83230248  1
  Cr  Cr39  1  0.49805266  0.50164675  0.49760710  1
  Fe  Fe40  1  0.33152629  0.33195066  0.66571753  1
  Cr  Cr41  1  0.49779166  0.49889309  0.83527717  1
  Ni  Ni42  1  0.49957645  0.83248984  0.50172286  1
  Fe  Fe43  1  0.33330018  0.66766660  0.66622818  1
  Fe  Fe44  1  0.49903448  0.83668168  0.83052059  1
  Cr  Cr45  1  0.83550828  0.16435876  0.49804610  1
  Fe  Fe46  1  0.66569648  0.99781705  0.66602952  1
  Fe  Fe47  1  0.83053719  0.16447183  0.83079437  1
  Fe  Fe48  1  0.83299859  0.50212791  0.49741684  1
  Cr  Cr49  1  0.66613449  0.33314909  0.66445399  1
  Fe  Fe50  1  0.83096933  0.49702361  0.83155728  1
  Fe  Fe51  1  0.83095674  0.83190317  0.49942753  1
  Fe  Fe52  1  0.66467752  0.66870253  0.66686263  1
  Fe  Fe53  1  0.83004321  0.83771656  0.83144129  1
" 