671,Ni8Fe78Cr13_19,-224.957564213971, 149.680432131794,Ni8Fe78Cr13,"# generated using pymatgen
 data_Cr4Fe21Ni2
_symmetry_space_group_name_H-M   'P 1'
_cell_length_a   7.45086217
_cell_length_b   7.45086217
_cell_length_c   10.53711033
_cell_angle_alpha   90.00000000
_cell_angle_beta   90.00000000
_cell_angle_gamma   90.00000000
_symmetry_Int_Tables_number   1
_chemical_formula_structural   Cr4Fe21Ni2
_chemical_formula_sum   'Cr8 Fe42 Ni4'
_cell_volume   584.97133709
_cell_formula_units_Z   2
loop_
 _symmetry_equiv_pos_site_id
 _symmetry_equiv_pos_as_xyz
  1  'x, y, z'
loop_
 _atom_site_type_symbol
 _atom_site_label
 _atom_site_symmetry_multiplicity
 _atom_site_fract_x
 _atom_site_fract_y
 _atom_site_fract_z
 _atom_site_occupancy
  Fe  Fe0  1  0.00110932  0.00149578  1.00103874  1
  Fe  Fe1  1  0.16706455  0.16545677  0.16827635  1
  Fe  Fe2  1  1.00046583  1.00089422  0.33430253  1
  Fe  Fe3  1  1.00038648  0.33213637  0.00110234  1
  Cr  Cr4  1  0.16673704  0.50131300  0.16844893  1
  Fe  Fe5  1  0.99997114  0.33477679  0.33611175  1
  Fe  Fe6  1  1.00035209  0.66962486  0.00227824  1
  Fe  Fe7  1  0.16742739  0.83558409  0.16799737  1
  Ni  Ni8  1  0.00109804  0.66924853  0.33528703  1
  Fe  Fe9  1  0.33458848  0.99980240  1.00108479  1
  Fe  Fe10  1  0.50121781  0.16684738  0.16961796  1
  Fe  Fe11  1  0.33447675  0.00110946  0.33433773  1
  Cr  Cr12  1  0.33632634  0.33276325  1.00025051  1
  Fe  Fe13  1  0.50297275  0.50217366  0.16964589  1
  Fe  Fe14  1  0.33428552  0.33387251  0.33448874  1
  Fe  Fe15  1  0.33615961  0.67049397  1.00099248  1
  Fe  Fe16  1  0.50080830  0.83423520  0.16761046  1
  Fe  Fe17  1  0.33393497  0.66827604  0.33476446  1
  Fe  Fe18  1  0.66756025  0.99977507  1.00097892  1
  Fe  Fe19  1  0.83497687  0.16762365  0.16874004  1
  Fe  Fe20  1  0.66831587  0.00124013  0.33444518  1
  Cr  Cr21  1  0.66742210  0.33407120  0.00177176  1
  Fe  Fe22  1  0.83362631  0.50181000  0.16890124  1
  Ni  Ni23  1  0.66756205  0.33319323  0.33274250  1
  Fe  Fe24  1  0.66674598  0.66977013  0.00167616  1
  Fe  Fe25  1  0.83502317  0.83382564  0.16799555  1
  Fe  Fe26  1  0.66921641  0.66777917  0.33362233  1
  Fe  Fe27  1  0.16766872  0.16900777  0.50158945  1
  Fe  Fe28  1  1.00080950  0.00352406  0.66791724  1
  Fe  Fe29  1  0.16642614  0.16606307  0.83338941  1
  Ni  Ni30  1  0.16669522  0.49985626  0.50085635  1
  Ni  Ni31  1  0.00252278  0.33183545  0.66615053  1
  Cr  Cr32  1  0.16886941  0.49983600  0.83373359  1
  Fe  Fe33  1  0.16842717  0.83386024  0.49993185  1
  Cr  Cr34  1  0.00177196  0.66905101  0.66514225  1
  Fe  Fe35  1  0.16835989  0.83647984  0.83532567  1
  Fe  Fe36  1  0.50010531  0.16640770  0.49993342  1
  Fe  Fe37  1  0.33389289  0.00169266  0.66783596  1
  Fe  Fe38  1  0.50034424  0.16590034  0.83370520  1
  Cr  Cr39  1  0.49916250  0.50218269  0.50112180  1
  Fe  Fe40  1  0.33166422  0.33350991  0.66771589  1
  Fe  Fe41  1  0.50037844  0.50341112  0.83357274  1
  Fe  Fe42  1  0.50046469  0.83535200  0.50125341  1
  Fe  Fe43  1  0.33525689  0.66805376  0.66750339  1
  Fe  Fe44  1  0.50110809  0.83394472  0.83439469  1
  Fe  Fe45  1  0.83548472  0.16852356  0.50043738  1
  Fe  Fe46  1  0.66855661  0.99992374  0.66783391  1
  Fe  Fe47  1  0.83648839  0.16533221  0.83408055  1
  Fe  Fe48  1  0.83696660  0.50074338  0.49945185  1
  Cr  Cr49  1  0.66756787  0.33315143  0.66878082  1
  Cr  Cr50  1  0.83488643  0.50115094  0.83526272  1
  Fe  Fe51  1  0.83436785  0.83398854  0.50003852  1
  Fe  Fe52  1  0.66678322  0.67022426  0.66796293  1
  Fe  Fe53  1  0.83379068  0.83645266  0.83522036  1
" 