7992,Ni8Fe18Cr72_17,-209.36179715609, 188.082838079476,Ni8Fe18Cr72,"# generated using pymatgen
 data_Cr41Fe9Ni4
_symmetry_space_group_name_H-M   'P 1'
_cell_length_a   7.57239840
_cell_length_b   7.57239840
_cell_length_c   10.70898852
_cell_angle_alpha   90.00000000
_cell_angle_beta   90.00000000
_cell_angle_gamma   90.00000000
_symmetry_Int_Tables_number   1
_chemical_formula_structural   Cr41Fe9Ni4
_chemical_formula_sum   'Cr41 Fe9 Ni4'
_cell_volume   614.06643977
_cell_formula_units_Z   1
loop_
 _symmetry_equiv_pos_site_id
 _symmetry_equiv_pos_as_xyz
  1  'x, y, z'
loop_
 _atom_site_type_symbol
 _atom_site_label
 _atom_site_symmetry_multiplicity
 _atom_site_fract_x
 _atom_site_fract_y
 _atom_site_fract_z
 _atom_site_occupancy
  Cr  Cr0  1  0.99203642  -0.00654126  0.99224715  1
  Cr  Cr1  1  0.16165944  0.15723575  0.15751288  1
  Cr  Cr2  1  -0.00689545  -0.00502073  0.32662032  1
  Cr  Cr3  1  0.99208928  0.32725687  0.99179497  1
  Cr  Cr4  1  0.15762151  0.49481840  0.16000223  1
  Cr  Cr5  1  -0.00688664  0.32691111  0.32627868  1
  Cr  Cr6  1  0.99019998  0.65858866  -0.00577930  1
  Cr  Cr7  1  0.16071517  0.82718343  0.16069465  1
  Fe  Fe8  1  0.99255991  0.65830947  0.32469435  1
  Ni  Ni9  1  0.32964364  -0.00591411  -0.00617558  1
  Fe  Fe10  1  0.49474621  0.15998208  0.15959045  1
  Ni  Ni11  1  0.32795575  -0.00566719  0.32484838  1
  Cr  Cr12  1  0.32709297  0.32638775  -0.00483081  1
  Fe  Fe13  1  0.49536729  0.49202244  0.15934024  1
  Cr  Cr14  1  0.32709338  0.32565651  0.32581832  1
  Cr  Cr15  1  0.32912449  0.65969565  0.99246491  1
  Cr  Cr16  1  0.49164002  0.82850720  0.15847647  1
  Cr  Cr17  1  0.32863098  0.65877806  0.32642728  1
  Cr  Cr18  1  0.65988906  0.99149243  0.99207409  1
  Fe  Fe19  1  0.82488960  0.16134159  0.15938749  1
  Cr  Cr20  1  0.65859874  -0.00673707  0.32684801  1
  Fe  Fe21  1  0.65953977  0.32632017  -0.00486283  1
  Ni  Ni22  1  0.82137978  0.48846439  0.15932010  1
  Fe  Fe23  1  0.65919649  0.32589439  0.32345309  1
  Cr  Cr24  1  0.66032311  0.65931829  0.99131878  1
  Cr  Cr25  1  0.82720607  0.82460719  0.16155411  1
  Cr  Cr26  1  0.65986513  0.65846960  0.32511327  1
  Cr  Cr27  1  0.16030980  0.15848718  0.49409812  1
  Cr  Cr28  1  0.99157491  0.99257949  0.66031017  1
  Cr  Cr29  1  0.16110728  0.15903791  0.82739395  1
  Cr  Cr30  1  0.15948819  0.49548510  0.49430271  1
  Cr  Cr31  1  -0.00609170  0.32630734  0.66089327  1
  Cr  Cr32  1  0.16042314  0.49406032  0.82499083  1
  Cr  Cr33  1  0.16015182  0.82572363  0.48921663  1
  Cr  Cr34  1  0.99108711  0.66031748  0.66048605  1
  Cr  Cr35  1  0.16028220  0.82638712  0.82909583  1
  Cr  Cr36  1  0.49415821  0.15987510  0.49150028  1
  Cr  Cr37  1  0.32747965  0.99259842  0.66003898  1
  Cr  Cr38  1  0.49344082  0.16016731  0.82795498  1
  Cr  Cr39  1  0.49419521  0.49287029  0.49344980  1
  Cr  Cr40  1  0.32550143  0.32741314  0.65811752  1
  Cr  Cr41  1  0.49395367  0.49256119  0.82587410  1
  Cr  Cr42  1  0.49207911  0.82617512  0.49453608  1
  Fe  Fe43  1  0.32621585  0.66128128  0.66049495  1
  Fe  Fe44  1  0.49260110  0.82769746  0.82750101  1
  Cr  Cr45  1  0.82438720  0.16077366  0.49300742  1
  Cr  Cr46  1  0.66020712  0.99019453  0.66064357  1
  Cr  Cr47  1  0.82434163  0.16051642  0.82655294  1
  Cr  Cr48  1  0.82559597  0.49305886  0.49210231  1
  Cr  Cr49  1  0.65999584  0.32729439  0.65931705  1
  Fe  Fe50  1  0.82598480  0.49383224  0.82727762  1
  Cr  Cr51  1  0.82698496  0.82531902  0.49129771  1
  Cr  Cr52  1  0.65866011  0.66198759  0.66286298  1
  Ni  Ni53  1  0.82496568  0.82500058  0.82681468  1
" 