610,Ni8Fe20Cr71_3,-209.980806637844, 192.418882530581,Ni8Fe20Cr71,"# generated using pymatgen
 data_Cr20Fe5Ni2
_symmetry_space_group_name_H-M   'P 1'
_cell_length_a   7.56780348
_cell_length_b   7.56780348
_cell_length_c   10.70249032
_cell_angle_alpha   90.00000000
_cell_angle_beta   90.00000000
_cell_angle_gamma   90.00000000
_symmetry_Int_Tables_number   1
_chemical_formula_structural   Cr20Fe5Ni2
_chemical_formula_sum   'Cr40 Fe10 Ni4'
_cell_volume   612.94927385
_cell_formula_units_Z   2
loop_
 _symmetry_equiv_pos_site_id
 _symmetry_equiv_pos_as_xyz
  1  'x, y, z'
loop_
 _atom_site_type_symbol
 _atom_site_label
 _atom_site_symmetry_multiplicity
 _atom_site_fract_x
 _atom_site_fract_y
 _atom_site_fract_z
 _atom_site_occupancy
  Cr  Cr0  1  -0.00635141  -0.00621972  -0.00642262  1
  Cr  Cr1  1  0.16105646  0.16104268  0.15938934  1
  Fe  Fe2  1  0.99259558  0.99332798  0.32666049  1
  Fe  Fe3  1  -0.00629122  0.32618152  0.99250249  1
  Cr  Cr4  1  0.16171023  0.49240167  0.15756753  1
  Cr  Cr5  1  0.99049404  0.32597472  0.32884363  1
  Cr  Cr6  1  -0.00509500  0.66053502  -0.00602347  1
  Fe  Fe7  1  0.16089684  0.82668688  0.15949198  1
  Cr  Cr8  1  -0.00624367  0.66175913  0.32758899  1
  Cr  Cr9  1  0.32569343  0.99256848  0.99318225  1
  Ni  Ni10  1  0.49230260  0.16037908  0.16027522  1
  Cr  Cr11  1  0.32568232  0.99297697  0.32592535  1
  Fe  Fe12  1  0.32711795  0.32789944  -0.00534196  1
  Fe  Fe13  1  0.49251490  0.49237289  0.15830270  1
  Cr  Cr14  1  0.32953402  0.32633456  0.32482397  1
  Ni  Ni15  1  0.32697178  0.65819774  -0.00515013  1
  Cr  Cr16  1  0.49449547  0.82632993  0.15950296  1
  Cr  Cr17  1  0.32559864  0.66071792  0.32571657  1
  Cr  Cr18  1  0.66068860  -0.00455174  0.99160699  1
  Cr  Cr19  1  0.82657660  0.15854419  0.16150072  1
  Fe  Fe20  1  0.66024467  -0.00537405  0.32611863  1
  Cr  Cr21  1  0.65959229  0.32677093  -0.00597857  1
  Cr  Cr22  1  0.82632337  0.49450158  0.15849348  1
  Cr  Cr23  1  0.66000399  0.32587275  0.32767525  1
  Fe  Fe24  1  0.65784489  0.65976376  -0.00625873  1
  Cr  Cr25  1  0.82584971  0.82698594  0.16103748  1
  Cr  Cr26  1  0.66067495  0.65790066  0.32643768  1
  Cr  Cr27  1  0.15877428  0.16128990  0.49342040  1
  Cr  Cr28  1  0.99284457  -0.00583242  0.66118803  1
  Cr  Cr29  1  0.15839402  0.16309749  0.82722500  1
  Cr  Cr30  1  0.15710238  0.49210241  0.49602955  1
  Fe  Fe31  1  0.99114177  0.32706507  0.65956632  1
  Cr  Cr32  1  0.15924406  0.49132412  0.82643123  1
  Cr  Cr33  1  0.15908491  0.82663850  0.49267352  1
  Fe  Fe34  1  0.99241826  0.65834613  0.65907443  1
  Cr  Cr35  1  0.16057606  0.82560824  0.82627748  1
  Cr  Cr36  1  0.49398924  0.15856016  0.49235226  1
  Cr  Cr37  1  0.32604104  0.99246182  0.66091395  1
  Cr  Cr38  1  0.49324496  0.15925599  0.82671409  1
  Cr  Cr39  1  0.49432443  0.49349949  0.49281222  1
  Cr  Cr40  1  0.32654446  0.32672223  0.65961797  1
  Cr  Cr41  1  0.49218524  0.49495450  0.82965732  1
  Cr  Cr42  1  0.49507132  0.82796723  0.49414042  1
  Cr  Cr43  1  0.32490082  0.66084565  0.65915583  1
  Cr  Cr44  1  0.49469729  0.82582122  0.82638187  1
  Fe  Fe45  1  0.82709463  0.16140569  0.49341570  1
  Cr  Cr46  1  0.66114390  -0.00419620  0.66119032  1
  Ni  Ni47  1  0.82832251  0.16118635  0.82608988  1
  Ni  Ni48  1  0.82847113  0.49254668  0.49493022  1
  Cr  Cr49  1  0.66346303  0.32620286  0.65833572  1
  Cr  Cr50  1  0.82859831  0.49277329  0.82645761  1
  Cr  Cr51  1  0.82586808  0.82630095  0.49171053  1
  Cr  Cr52  1  0.66175383  0.65802590  0.66001268  1
  Cr  Cr53  1  0.82475210  0.82667451  0.82728589  1
" 