3929,Ni8Fe78Cr12_12,-224.64951313214, 153.839419398021,Ni8Fe78Cr12,"# generated using pymatgen
 data_Cr4Fe21Ni2
_symmetry_space_group_name_H-M   'P 1'
_cell_length_a   7.44807427
_cell_length_b   7.44807427
_cell_length_c   10.53316765
_cell_angle_alpha   90.00000000
_cell_angle_beta   90.00000000
_cell_angle_gamma   90.00000000
_symmetry_Int_Tables_number   1
_chemical_formula_structural   Cr4Fe21Ni2
_chemical_formula_sum   'Cr8 Fe42 Ni4'
_cell_volume   584.31494437
_cell_formula_units_Z   2
loop_
 _symmetry_equiv_pos_site_id
 _symmetry_equiv_pos_as_xyz
  1  'x, y, z'
loop_
 _atom_site_type_symbol
 _atom_site_label
 _atom_site_symmetry_multiplicity
 _atom_site_fract_x
 _atom_site_fract_y
 _atom_site_fract_z
 _atom_site_occupancy
  Fe  Fe0  1  1.00111454  1.00033117  0.00230302  1
  Fe  Fe1  1  0.16798879  0.16714227  0.16854671  1
  Fe  Fe2  1  1.00066652  0.00141108  0.33419285  1
  Cr  Cr3  1  0.00235121  0.33310834  0.00170460  1
  Fe  Fe4  1  0.16886081  0.50067799  0.17003152  1
  Fe  Fe5  1  1.00105391  0.33484395  0.33458174  1
  Cr  Cr6  1  0.99943497  0.66769251  0.99974669  1
  Fe  Fe7  1  0.16807794  0.83599772  0.16866849  1
  Fe  Fe8  1  0.00324930  0.66756621  0.33480499  1
  Fe  Fe9  1  0.33403395  0.99990700  0.00188331  1
  Fe  Fe10  1  0.50192260  0.16798746  0.16773826  1
  Fe  Fe11  1  0.33488280  1.00097630  0.33463083  1
  Fe  Fe12  1  0.33493698  0.33544695  0.00262583  1
  Fe  Fe13  1  0.50150464  0.50028836  0.16654461  1
  Fe  Fe14  1  0.33445052  0.33523442  0.33501920  1
  Fe  Fe15  1  0.33575743  0.66846904  0.00186099  1
  Fe  Fe16  1  0.50144258  0.83554786  0.16681524  1
  Fe  Fe17  1  0.33268781  0.66761210  0.33512392  1
  Fe  Fe18  1  0.66867053  0.99950633  0.00314616  1
  Ni  Ni19  1  0.83331886  0.16663172  0.16901764  1
  Fe  Fe20  1  0.66827034  0.00317437  0.33427892  1
  Fe  Fe21  1  0.66777479  0.33585104  0.00388518  1
  Fe  Fe22  1  0.83345104  0.50019474  0.16824663  1
  Fe  Fe23  1  0.66831610  0.33265120  0.33421701  1
  Ni  Ni24  1  0.66631500  0.66966547  1.00120084  1
  Fe  Fe25  1  0.83429538  0.83641744  0.16757101  1
  Cr  Cr26  1  0.66742814  0.66845628  0.33460750  1
  Fe  Fe27  1  0.16875471  0.16786932  0.50067318  1
  Fe  Fe28  1  0.00160235  0.99830917  0.66732818  1
  Fe  Fe29  1  0.16968482  0.16661600  0.83460369  1
  Ni  Ni30  1  0.16853955  0.50230539  0.49950173  1
  Cr  Cr31  1  0.00290948  0.33495132  0.66840916  1
  Fe  Fe32  1  0.16794236  0.50074178  0.83403126  1
  Fe  Fe33  1  0.16718384  0.83471450  0.50048531  1
  Fe  Fe34  1  0.99950710  0.66902862  0.66780752  1
  Fe  Fe35  1  0.16810852  0.83646347  0.83466265  1
  Fe  Fe36  1  0.50061132  0.16855388  0.50155681  1
  Fe  Fe37  1  0.33430457  0.00166688  0.66730620  1
  Cr  Cr38  1  0.50093897  0.16798373  0.83454399  1
  Fe  Fe39  1  0.50095430  0.50010091  0.50185519  1
  Fe  Fe40  1  0.33481397  0.33402559  0.66617595  1
  Cr  Cr41  1  0.50175473  0.50165449  0.83543638  1
  Fe  Fe42  1  0.50104315  0.83517070  0.50164308  1
  Cr  Cr43  1  0.33584013  0.66914832  0.66733013  1
  Fe  Fe44  1  0.50287365  0.83487212  0.83536140  1
  Fe  Fe45  1  0.83445705  0.16777773  0.50013033  1
  Fe  Fe46  1  0.66791296  0.99917456  0.66639766  1
  Cr  Cr47  1  0.83390637  0.16593446  0.83499406  1
  Fe  Fe48  1  0.83491093  0.50167148  0.50172700  1
  Fe  Fe49  1  0.66702643  0.33612542  0.66572063  1
  Fe  Fe50  1  0.83294985  0.50401025  0.83384496  1
  Fe  Fe51  1  0.83559676  0.83437419  0.50245676  1
  Ni  Ni52  1  0.66955687  0.66962657  0.66801404  1
  Fe  Fe53  1  0.83283802  0.83312007  0.83378928  1
" 