79,Ni8Fe66Cr24_10,-223.66579932871, 160.444065355834,Ni8Fe66Cr24,"# generated using pymatgen
 data_Cr7(Fe9Ni)2
_symmetry_space_group_name_H-M   'P 1'
_cell_length_a   7.48456737
_cell_length_b   7.48456737
_cell_length_c   10.58477668
_cell_angle_alpha   90.00000000
_cell_angle_beta   90.00000000
_cell_angle_gamma   90.00000000
_symmetry_Int_Tables_number   1
_chemical_formula_structural   Cr7(Fe9Ni)2
_chemical_formula_sum   'Cr14 Fe36 Ni4'
_cell_volume   592.94594516
_cell_formula_units_Z   2
loop_
 _symmetry_equiv_pos_site_id
 _symmetry_equiv_pos_as_xyz
  1  'x, y, z'
loop_
 _atom_site_type_symbol
 _atom_site_label
 _atom_site_symmetry_multiplicity
 _atom_site_fract_x
 _atom_site_fract_y
 _atom_site_fract_z
 _atom_site_occupancy
  Fe  Fe0  1  0.00205423  0.99605904  0.99703058  1
  Fe  Fe1  1  0.16711460  0.16552154  0.16672616  1
  Fe  Fe2  1  0.99608028  0.99763420  0.33566063  1
  Cr  Cr3  1  0.00116061  0.33195690  0.00059119  1
  Ni  Ni4  1  0.16883695  0.49995806  0.16687989  1
  Cr  Cr5  1  0.00105983  0.33216002  0.33133685  1
  Fe  Fe6  1  0.00281942  0.66613287  0.99786769  1
  Cr  Cr7  1  0.16644186  0.83349161  0.17060557  1
  Fe  Fe8  1  0.99689729  0.66581196  0.33536530  1
  Fe  Fe9  1  0.32972346  -0.00049857  0.99758334  1
  Fe  Fe10  1  0.49466744  0.16448128  0.16613073  1
  Fe  Fe11  1  0.33487884  0.00100406  0.33506741  1
  Fe  Fe12  1  0.33317800  0.33301493  0.00147053  1
  Fe  Fe13  1  0.49939398  0.49844711  0.16693513  1
  Fe  Fe14  1  0.33623146  0.33158500  0.33178631  1
  Cr  Cr15  1  0.33498691  0.66720320  -0.00107562  1
  Fe  Fe16  1  0.50090957  0.83376100  0.16679894  1
  Cr  Cr17  1  0.33404745  0.66565283  0.33309755  1
  Fe  Fe18  1  0.66079888  0.99624169  -0.00092738  1
  Cr  Cr19  1  0.82691778  0.16366651  0.16532655  1
  Ni  Ni20  1  0.66300366  0.99797402  0.33226971  1
  Fe  Fe21  1  0.66108464  0.33523750  0.00043416  1
  Cr  Cr22  1  0.83168158  0.50174782  0.16753924  1
  Fe  Fe23  1  0.66269200  0.33330731  0.33442361  1
  Fe  Fe24  1  0.66530968  0.66636892  -0.00052257  1
  Cr  Cr25  1  0.83464622  0.83138422  0.16481477  1
  Ni  Ni26  1  0.66327255  0.66849656  0.33228816  1
  Fe  Fe27  1  0.16736407  0.16427420  0.49793543  1
  Fe  Fe28  1  -0.00013814  0.99608437  0.66439923  1
  Fe  Fe29  1  0.16538975  0.16294530  0.83195056  1
  Fe  Fe30  1  0.16677694  0.49942194  0.49841252  1
  Cr  Cr31  1  -0.00073404  0.33137664  0.66460745  1
  Fe  Fe32  1  0.16751656  0.49884457  0.83188269  1
  Fe  Fe33  1  0.16424773  0.83149598  0.49922676  1
  Fe  Fe34  1  -0.00115935  0.66837072  0.66453640  1
  Ni  Ni35  1  0.16588394  0.83033251  0.82956705  1
  Fe  Fe36  1  0.49943155  0.16602451  0.49761435  1
  Cr  Cr37  1  0.33433952  0.99529604  0.66468259  1
  Cr  Cr38  1  0.49721240  0.17001085  0.83222304  1
  Fe  Fe39  1  0.49980271  0.49926077  0.49904713  1
  Fe  Fe40  1  0.33321799  0.33323289  0.66293672  1
  Fe  Fe41  1  0.49627380  0.50200956  0.82973559  1
  Fe  Fe42  1  0.50021339  0.83102468  0.49715578  1
  Fe  Fe43  1  0.33165243  0.66318749  0.66514097  1
  Fe  Fe44  1  0.50054009  0.83063193  0.83223286  1
  Fe  Fe45  1  0.83059074  0.16434932  0.49678054  1
  Cr  Cr46  1  0.66760590  0.99506272  0.66432701  1
  Cr  Cr47  1  0.82915130  0.16476931  0.83317044  1
  Fe  Fe48  1  0.83029654  0.50102114  0.49776879  1
  Fe  Fe49  1  0.66344656  0.33283225  0.66195046  1
  Cr  Cr50  1  0.82860318  0.50076584  0.83214905  1
  Fe  Fe51  1  0.83132923  0.83090707  0.49576971  1
  Fe  Fe52  1  0.66418434  0.66402136  0.66224660  1
  Fe  Fe53  1  0.83387051  0.83144326  0.83384465  1
" 