6601,Ni8Fe77Cr13_18,-224.863197386846, 156.844935101678,Ni8Fe77Cr13,"# generated using pymatgen
 data_Cr9Fe41Ni4
_symmetry_space_group_name_H-M   'P 1'
_cell_length_a   7.45539881
_cell_length_b   7.45539881
_cell_length_c   10.54352611
_cell_angle_alpha   90.00000000
_cell_angle_beta   90.00000000
_cell_angle_gamma   90.00000000
_symmetry_Int_Tables_number   1
_chemical_formula_structural   Cr9Fe41Ni4
_chemical_formula_sum   'Cr9 Fe41 Ni4'
_cell_volume   586.04051117
_cell_formula_units_Z   1
loop_
 _symmetry_equiv_pos_site_id
 _symmetry_equiv_pos_as_xyz
  1  'x, y, z'
loop_
 _atom_site_type_symbol
 _atom_site_label
 _atom_site_symmetry_multiplicity
 _atom_site_fract_x
 _atom_site_fract_y
 _atom_site_fract_z
 _atom_site_occupancy
  Fe  Fe0  1  1.00039764  1.00032955  0.00138964  1
  Fe  Fe1  1  0.16362629  0.16786599  0.16757202  1
  Fe  Fe2  1  0.99925052  0.99829104  0.33312462  1
  Fe  Fe3  1  0.99994350  0.33387251  0.00167981  1
  Ni  Ni4  1  0.16697358  0.50197176  0.16782600  1
  Fe  Fe5  1  0.00112090  0.33588850  0.33303065  1
  Fe  Fe6  1  0.00331789  0.66812382  0.00277457  1
  Fe  Fe7  1  0.16613164  0.83268936  0.16736165  1
  Fe  Fe8  1  0.00133815  0.66812390  0.33338507  1
  Fe  Fe9  1  0.33345270  0.99814280  0.99998209  1
  Cr  Cr10  1  0.50226703  0.16714323  0.16810433  1
  Cr  Cr11  1  0.33223863  1.00027738  0.33289291  1
  Cr  Cr12  1  0.33188979  0.33329752  1.00050870  1
  Fe  Fe13  1  0.49998834  0.50275703  0.16916248  1
  Fe  Fe14  1  0.33364912  0.33790201  0.33285969  1
  Fe  Fe15  1  0.33181656  0.66830568  0.00123752  1
  Fe  Fe16  1  0.50042256  0.83202203  0.16777190  1
  Fe  Fe17  1  0.33311841  0.66592127  0.33428089  1
  Fe  Fe18  1  0.66886327  0.00151176  1.00060494  1
  Fe  Fe19  1  0.83685886  0.16751990  0.16789647  1
  Fe  Fe20  1  0.66932979  0.99827831  0.33362733  1
  Fe  Fe21  1  0.66872952  0.33237315  0.00096310  1
  Fe  Fe22  1  0.83577305  0.50052017  0.16828961  1
  Fe  Fe23  1  0.66744840  0.33611075  0.33438171  1
  Cr  Cr24  1  0.66819498  0.66718647  0.00307722  1
  Ni  Ni25  1  0.83476389  0.83479673  0.16822126  1
  Fe  Fe26  1  0.66789111  0.66812551  0.33376700  1
  Cr  Cr27  1  0.16677127  0.16812414  0.49966468  1
  Fe  Fe28  1  0.99963584  0.99914467  0.66815796  1
  Fe  Fe29  1  0.16437448  0.16786256  0.83337561  1
  Fe  Fe30  1  0.16641861  0.50176775  0.50028861  1
  Ni  Ni31  1  0.00213141  0.33493493  0.66808465  1
  Fe  Fe32  1  0.16788018  0.50181768  0.83385228  1
  Ni  Ni33  1  0.16699772  0.83128665  0.50066008  1
  Fe  Fe34  1  0.00341523  0.66780698  0.66668371  1
  Fe  Fe35  1  0.16617912  0.83271660  0.83408911  1
  Fe  Fe36  1  0.50077046  0.16823482  0.49994133  1
  Cr  Cr37  1  0.33414943  0.00143194  0.66770720  1
  Fe  Fe38  1  0.50308685  0.16765671  0.83470386  1
  Fe  Fe39  1  0.49906170  0.50002839  0.49972310  1
  Fe  Fe40  1  0.33434015  0.33683339  0.66861240  1
  Fe  Fe41  1  0.49937384  0.50102343  0.83333146  1
  Fe  Fe42  1  0.50017978  0.83424561  0.49959588  1
  Fe  Fe43  1  0.33171042  0.66554348  0.66705760  1
  Fe  Fe44  1  0.50058510  0.83398556  0.83503478  1
  Cr  Cr45  1  0.83304615  0.16723377  0.50110416  1
  Fe  Fe46  1  0.66880975  0.00204792  0.66874117  1
  Fe  Fe47  1  0.83485856  0.16600700  0.83325031  1
  Fe  Fe48  1  0.83707959  0.50117001  0.50067991  1
  Fe  Fe49  1  0.66625797  0.33291423  0.66772384  1
  Cr  Cr50  1  0.83558481  0.50035928  0.83471320  1
  Fe  Fe51  1  0.83654250  0.83353175  0.49860422  1
  Cr  Cr52  1  0.66868005  0.66884209  0.66559113  1
  Fe  Fe53  1  0.83546947  0.83628705  0.83544115  1
" 