2457,Ni8Fe66Cr24_16,-223.215422302074, 158.388629708444,Ni8Fe66Cr24,"# generated using pymatgen
 data_Cr7(Fe9Ni)2
_symmetry_space_group_name_H-M   'P 1'
_cell_length_a   7.47706619
_cell_length_b   7.47706619
_cell_length_c   10.57416841
_cell_angle_alpha   90.00000000
_cell_angle_beta   90.00000000
_cell_angle_gamma   90.00000000
_symmetry_Int_Tables_number   1
_chemical_formula_structural   Cr7(Fe9Ni)2
_chemical_formula_sum   'Cr14 Fe36 Ni4'
_cell_volume   591.16494534
_cell_formula_units_Z   2
loop_
 _symmetry_equiv_pos_site_id
 _symmetry_equiv_pos_as_xyz
  1  'x, y, z'
loop_
 _atom_site_type_symbol
 _atom_site_label
 _atom_site_symmetry_multiplicity
 _atom_site_fract_x
 _atom_site_fract_y
 _atom_site_fract_z
 _atom_site_occupancy
  Fe  Fe0  1  0.99849410  -0.00043980  0.99886455  1
  Fe  Fe1  1  0.16370681  0.16538901  0.16357993  1
  Cr  Cr2  1  0.99859590  0.99931603  0.33469102  1
  Fe  Fe3  1  0.99774196  0.33446407  0.99890145  1
  Fe  Fe4  1  0.16392118  0.49989606  0.16576115  1
  Cr  Cr5  1  0.99694039  0.33049814  0.33290880  1
  Fe  Fe6  1  0.99879658  0.66352537  0.99843098  1
  Fe  Fe7  1  0.16355310  0.83205051  0.16450485  1
  Fe  Fe8  1  0.00074831  0.66626506  0.33096669  1
  Fe  Fe9  1  0.33342638  0.99900442  0.99903901  1
  Fe  Fe10  1  0.50081052  0.16471610  0.16524993  1
  Cr  Cr11  1  0.33027794  -0.00059361  0.33419569  1
  Cr  Cr12  1  0.33092893  0.33218889  0.99718943  1
  Fe  Fe13  1  0.50102791  0.49936133  0.16650674  1
  Cr  Cr14  1  0.33309244  0.33104682  0.33169473  1
  Cr  Cr15  1  0.33424252  0.66575375  0.99887846  1
  Fe  Fe16  1  0.50128913  0.83366473  0.16588678  1
  Fe  Fe17  1  0.33033714  0.66687069  0.32976784  1
  Fe  Fe18  1  0.66592951  -0.00005948  0.99833415  1
  Fe  Fe19  1  0.83268737  0.16492907  0.16461273  1
  Fe  Fe20  1  0.66620658  0.00286427  0.33185023  1
  Cr  Cr21  1  0.66782299  0.33452554  0.00015168  1
  Ni  Ni22  1  0.83496622  0.49935465  0.16704625  1
  Fe  Fe23  1  0.66722659  0.32914193  0.33121430  1
  Cr  Cr24  1  0.66819586  0.66651707  0.99434833  1
  Fe  Fe25  1  0.83339875  0.83226840  0.16462272  1
  Cr  Cr26  1  0.66751682  0.66454926  0.33212159  1
  Fe  Fe27  1  0.16521560  0.16557311  0.50330352  1
  Fe  Fe28  1  0.99881782  0.00182258  0.66705927  1
  Fe  Fe29  1  0.16268715  0.16573536  0.83213766  1
  Cr  Cr30  1  0.16425190  0.50102606  0.49882237  1
  Fe  Fe31  1  0.99725019  0.33072209  0.66643354  1
  Fe  Fe32  1  0.16240509  0.49771464  0.83132124  1
  Fe  Fe33  1  0.16453906  0.83383624  0.50210755  1
  Fe  Fe34  1  0.99849423  0.66590377  0.66807634  1
  Fe  Fe35  1  0.16246504  0.83448344  0.83346106  1
  Fe  Fe36  1  0.50197717  0.16624747  0.50168493  1
  Fe  Fe37  1  0.33177004  0.00180574  0.66749438  1
  Fe  Fe38  1  0.50162192  0.16569273  0.83170569  1
  Cr  Cr39  1  0.49943930  0.49774291  0.49938554  1
  Fe  Fe40  1  0.33211041  0.33035851  0.66786996  1
  Fe  Fe41  1  0.50219856  0.49644643  0.82979566  1
  Cr  Cr42  1  0.49873744  0.83420638  0.49942998  1
  Cr  Cr43  1  0.33346433  0.66721895  0.66855028  1
  Fe  Fe44  1  0.50171150  0.83653259  0.83122596  1
  Ni  Ni45  1  0.83104793  0.16637009  0.50015370  1
  Fe  Fe46  1  0.66726341  0.00204972  0.66796865  1
  Ni  Ni47  1  0.83342980  0.16611787  0.83456471  1
  Fe  Fe48  1  0.83173250  0.49721189  0.50141467  1
  Fe  Fe49  1  0.66848591  0.33088734  0.66775935  1
  Ni  Ni50  1  0.83532458  0.49830142  0.82956874  1
  Cr  Cr51  1  0.83277845  0.83294655  0.50162574  1
  Fe  Fe52  1  0.66806202  0.66532935  0.66878408  1
  Fe  Fe53  1  0.83465922  0.83447096  0.83079790  1
" 