6684,Ni8Fe66Cr24_15,-223.070036512164, 156.550345209402,Ni8Fe66Cr24,"# generated using pymatgen
 data_Cr7(Fe9Ni)2
_symmetry_space_group_name_H-M   'P 1'
_cell_length_a   7.48125524
_cell_length_b   7.48125524
_cell_length_c   10.58009263
_cell_angle_alpha   90.00000000
_cell_angle_beta   90.00000000
_cell_angle_gamma   90.00000000
_symmetry_Int_Tables_number   1
_chemical_formula_structural   Cr7(Fe9Ni)2
_chemical_formula_sum   'Cr14 Fe36 Ni4'
_cell_volume   592.15910916
_cell_formula_units_Z   2
loop_
 _symmetry_equiv_pos_site_id
 _symmetry_equiv_pos_as_xyz
  1  'x, y, z'
loop_
 _atom_site_type_symbol
 _atom_site_label
 _atom_site_symmetry_multiplicity
 _atom_site_fract_x
 _atom_site_fract_y
 _atom_site_fract_z
 _atom_site_occupancy
  Fe  Fe0  1  0.00089923  0.00040818  0.00281954  1
  Fe  Fe1  1  0.16533252  0.16636948  0.16558764  1
  Fe  Fe2  1  0.00247435  -0.00092722  0.33114295  1
  Fe  Fe3  1  0.99797683  0.33237607  0.00030421  1
  Fe  Fe4  1  0.16622895  0.49946895  0.16556677  1
  Fe  Fe5  1  0.00046716  0.33169745  0.33047856  1
  Fe  Fe6  1  0.99838106  0.66454542  0.00161550  1
  Fe  Fe7  1  0.16518602  0.83232664  0.16597212  1
  Fe  Fe8  1  -0.00056206  0.66800217  0.33145066  1
  Fe  Fe9  1  0.33415159  0.00010507  0.00203031  1
  Fe  Fe10  1  0.49845234  0.16681674  0.16614436  1
  Fe  Fe11  1  0.33187642  -0.00032164  0.32998429  1
  Fe  Fe12  1  0.33238255  0.33097483  0.00211698  1
  Fe  Fe13  1  0.49715884  0.49906112  0.16610142  1
  Ni  Ni14  1  0.33052109  0.33282596  0.32775750  1
  Fe  Fe15  1  0.33384125  0.66688057  0.00324525  1
  Fe  Fe16  1  0.49916903  0.83052557  0.16466197  1
  Fe  Fe17  1  0.33257125  0.66799094  0.32907685  1
  Fe  Fe18  1  0.66342372  -0.00062762  0.00327479  1
  Fe  Fe19  1  0.83355630  0.16403088  0.16501668  1
  Cr  Cr20  1  0.66748258  0.99490258  0.32972823  1
  Fe  Fe21  1  0.66428420  0.33199348  0.00055965  1
  Cr  Cr22  1  0.83112828  0.49752829  0.16668156  1
  Fe  Fe23  1  0.66368424  0.33103766  0.32934867  1
  Fe  Fe24  1  0.66512831  0.66467200  -0.00011053  1
  Fe  Fe25  1  0.83389044  0.83180081  0.16358853  1
  Fe  Fe26  1  0.66484700  0.66413458  0.33168614  1
  Fe  Fe27  1  0.16779885  0.16605922  0.49535743  1
  Cr  Cr28  1  0.00251348  0.00074223  0.66323239  1
  Fe  Fe29  1  0.16435459  0.16615652  0.83587813  1
  Cr  Cr30  1  0.16596798  0.50139133  0.49653657  1
  Fe  Fe31  1  0.99608411  0.33459062  0.66628107  1
  Cr  Cr32  1  0.16382718  0.50106961  0.83596743  1
  Ni  Ni33  1  0.16773808  0.83423396  0.49492331  1
  Cr  Cr34  1  0.99615946  0.66619180  0.66579881  1
  Cr  Cr35  1  0.17032581  0.83365398  0.83544012  1
  Cr  Cr36  1  0.49993323  0.16484566  0.49849100  1
  Fe  Fe37  1  0.33450967  0.99476818  0.66493035  1
  Fe  Fe38  1  0.49787426  0.16294892  0.83413719  1
  Cr  Cr39  1  0.49922703  0.49858138  0.49563449  1
  Cr  Cr40  1  0.32906903  0.32832562  0.66824145  1
  Cr  Cr41  1  0.49863740  0.49984419  0.83373408  1
  Fe  Fe42  1  0.49809190  0.83081198  0.49833668  1
  Fe  Fe43  1  0.33330548  0.66809476  0.66450083  1
  Fe  Fe44  1  0.50213827  0.83262283  0.83340978  1
  Cr  Cr45  1  0.83254550  0.16813578  0.49684937  1
  Fe  Fe46  1  0.66546834  0.99657656  0.66547000  1
  Cr  Cr47  1  0.82989928  0.16619488  0.83414330  1
  Fe  Fe48  1  0.83172882  0.50134466  0.49721982  1
  Fe  Fe49  1  0.66685260  0.33516616  0.66617180  1
  Ni  Ni50  1  0.83001726  0.49751023  0.83266720  1
  Fe  Fe51  1  0.83225760  0.83047313  0.49755206  1
  Ni  Ni52  1  0.66522599  0.66690694  0.66513601  1
  Cr  Cr53  1  0.83323970  0.83288427  0.83685310  1
" 