5530,Ni8Fe66Cr24_12,-223.113407437762, 159.313740057462,Ni8Fe66Cr24,"# generated using pymatgen
 data_Cr7(Fe9Ni)2
_symmetry_space_group_name_H-M   'P 1'
_cell_length_a   7.47619308
_cell_length_b   7.47619308
_cell_length_c   10.57293365
_cell_angle_alpha   90.00000000
_cell_angle_beta   90.00000000
_cell_angle_gamma   90.00000000
_symmetry_Int_Tables_number   1
_chemical_formula_structural   Cr7(Fe9Ni)2
_chemical_formula_sum   'Cr14 Fe36 Ni4'
_cell_volume   590.95787570
_cell_formula_units_Z   2
loop_
 _symmetry_equiv_pos_site_id
 _symmetry_equiv_pos_as_xyz
  1  'x, y, z'
loop_
 _atom_site_type_symbol
 _atom_site_label
 _atom_site_symmetry_multiplicity
 _atom_site_fract_x
 _atom_site_fract_y
 _atom_site_fract_z
 _atom_site_occupancy
  Cr  Cr0  1  -0.00050421  -0.00059170  0.00088371  1
  Fe  Fe1  1  0.16446602  0.16773672  0.16607482  1
  Fe  Fe2  1  0.99801218  0.00074489  0.33242001  1
  Fe  Fe3  1  -0.00005372  0.33215896  0.00012959  1
  Fe  Fe4  1  0.16842390  0.49848766  0.16512748  1
  Fe  Fe5  1  0.00040093  0.33054947  0.33339547  1
  Fe  Fe6  1  0.00128042  0.66685357  0.00049271  1
  Fe  Fe7  1  0.16685130  0.83202486  0.16545793  1
  Cr  Cr8  1  -0.00041242  0.66747063  0.33297285  1
  Fe  Fe9  1  0.33427176  0.99854376  0.99827961  1
  Cr  Cr10  1  0.50036346  0.16480606  0.16596178  1
  Cr  Cr11  1  0.33076348  0.00059664  0.33364499  1
  Fe  Fe12  1  0.33311892  0.33221628  0.99884169  1
  Fe  Fe13  1  0.49743660  0.50003598  0.16702570  1
  Fe  Fe14  1  0.33143522  0.33377976  0.33320962  1
  Fe  Fe15  1  0.33210405  0.66741165  0.99908516  1
  Fe  Fe16  1  0.49950284  0.83109092  0.16573841  1
  Fe  Fe17  1  0.33252398  0.66478261  0.33182708  1
  Fe  Fe18  1  0.66469697  0.00001596  0.99767650  1
  Fe  Fe19  1  0.83344924  0.16536498  0.16678766  1
  Fe  Fe20  1  0.66860850  -0.00041569  0.33329230  1
  Fe  Fe21  1  0.66524011  0.33012258  0.99801825  1
  Cr  Cr22  1  0.83445336  0.49786988  0.16557757  1
  Fe  Fe23  1  0.66642211  0.33156402  0.33394426  1
  Cr  Cr24  1  0.66445529  0.66693948  0.99837299  1
  Fe  Fe25  1  0.83168790  0.83496334  0.16680513  1
  Fe  Fe26  1  0.66534935  0.66698546  0.33179710  1
  Fe  Fe27  1  0.16575775  0.16601975  0.49933987  1
  Fe  Fe28  1  0.00125833  0.99893664  0.66619655  1
  Fe  Fe29  1  0.16717113  0.16429155  0.83286118  1
  Fe  Fe30  1  0.16587337  0.49942279  0.50002001  1
  Fe  Fe31  1  -0.00033233  0.33196358  0.66457512  1
  Cr  Cr32  1  0.16403760  0.50097318  0.83344981  1
  Fe  Fe33  1  0.16580628  0.83280137  0.50117379  1
  Fe  Fe34  1  0.00122187  0.66728264  0.66429345  1
  Fe  Fe35  1  0.16822838  0.83362122  0.83167074  1
  Ni  Ni36  1  0.49954207  0.16543228  0.49799817  1
  Fe  Fe37  1  0.33236354  0.99841970  0.66691010  1
  Ni  Ni38  1  0.49879307  0.16243705  0.83465764  1
  Cr  Cr39  1  0.49894276  0.49903615  0.49720630  1
  Cr  Cr40  1  0.33303346  0.33101963  0.66544688  1
  Fe  Fe41  1  0.49745162  0.49985896  0.83351603  1
  Cr  Cr42  1  0.49801733  0.83474650  0.49835220  1
  Ni  Ni43  1  0.32955887  0.66807742  0.66684026  1
  Ni  Ni44  1  0.49648970  0.83614335  0.83366511  1
  Fe  Fe45  1  0.83284122  0.16602658  0.49800154  1
  Cr  Cr46  1  0.66645505  0.00030108  0.66793398  1
  Fe  Fe47  1  0.83237372  0.16492109  0.83362389  1
  Fe  Fe48  1  0.83393893  0.49815449  0.49867674  1
  Cr  Cr49  1  0.66541071  0.33174552  0.66728832  1
  Cr  Cr50  1  0.83558964  0.49855113  0.83215242  1
  Fe  Fe51  1  0.83386706  0.83400441  0.49867185  1
  Cr  Cr52  1  0.66599024  0.66614911  0.66674760  1
  Fe  Fe53  1  0.83294252  0.83452555  0.83286153  1
" 