3701,Ni8Fe78Cr13_3,-224.81626175202, 151.417122725211,Ni8Fe78Cr13,"# generated using pymatgen
 data_Cr4Fe21Ni2
_symmetry_space_group_name_H-M   'P 1'
_cell_length_a   7.45285308
_cell_length_b   7.45285308
_cell_length_c   10.53992591
_cell_angle_alpha   90.00000000
_cell_angle_beta   90.00000000
_cell_angle_gamma   90.00000000
_symmetry_Int_Tables_number   1
_chemical_formula_structural   Cr4Fe21Ni2
_chemical_formula_sum   'Cr8 Fe42 Ni4'
_cell_volume   585.44038561
_cell_formula_units_Z   2
loop_
 _symmetry_equiv_pos_site_id
 _symmetry_equiv_pos_as_xyz
  1  'x, y, z'
loop_
 _atom_site_type_symbol
 _atom_site_label
 _atom_site_symmetry_multiplicity
 _atom_site_fract_x
 _atom_site_fract_y
 _atom_site_fract_z
 _atom_site_occupancy
  Fe  Fe0  1  0.00324990  1.00029933  1.00008612  1
  Fe  Fe1  1  0.16915118  0.16804210  0.16762201  1
  Fe  Fe2  1  0.00310028  1.00071692  0.33510015  1
  Fe  Fe3  1  0.00338270  0.33537983  1.00077951  1
  Fe  Fe4  1  0.16664298  0.49996432  0.16663022  1
  Ni  Ni5  1  0.00193415  0.33493699  0.33551235  1
  Ni  Ni6  1  0.00170954  0.66868565  0.00158035  1
  Fe  Fe7  1  0.16513368  0.83485126  0.16665032  1
  Fe  Fe8  1  0.99943567  0.66721590  0.33373845  1
  Fe  Fe9  1  0.33197071  0.00193920  1.00030934  1
  Fe  Fe10  1  0.49733218  0.16985618  0.16845627  1
  Fe  Fe11  1  0.33210297  0.00373761  0.33531211  1
  Ni  Ni12  1  0.33322403  0.33476981  0.00250367  1
  Fe  Fe13  1  0.50086168  0.49917966  0.16725921  1
  Fe  Fe14  1  0.33419685  0.33245218  0.33420865  1
  Fe  Fe15  1  0.33336551  0.66629960  1.00046274  1
  Cr  Cr16  1  0.50023704  0.83333034  0.16622667  1
  Cr  Cr17  1  0.33327377  0.66590700  0.33559376  1
  Cr  Cr18  1  0.66862715  1.00007648  0.99864301  1
  Cr  Cr19  1  0.83684834  0.16899830  0.16829644  1
  Cr  Cr20  1  0.66819802  0.00120751  0.33613488  1
  Cr  Cr21  1  0.66516278  0.33494316  1.00093986  1
  Fe  Fe22  1  0.83534843  0.50319482  0.16834369  1
  Fe  Fe23  1  0.66710137  0.33611619  0.33510077  1
  Fe  Fe24  1  0.66840115  0.66644046  1.00034900  1
  Fe  Fe25  1  0.83716603  0.83131800  0.16725014  1
  Fe  Fe26  1  0.67012435  0.66512140  0.33488464  1
  Fe  Fe27  1  0.16793435  0.16791642  0.49928334  1
  Cr  Cr28  1  0.99960383  1.00077036  0.66721475  1
  Fe  Fe29  1  0.16792064  0.16794049  0.83595346  1
  Fe  Fe30  1  0.16650709  0.50010059  0.50065926  1
  Fe  Fe31  1  0.99959083  0.33557538  0.66706013  1
  Fe  Fe32  1  0.16695225  0.50157598  0.83557376  1
  Fe  Fe33  1  0.16823114  0.83483973  0.50098869  1
  Fe  Fe34  1  0.00116690  0.66618337  0.66817829  1
  Fe  Fe35  1  0.16793253  0.83334213  0.83522149  1
  Ni  Ni36  1  0.50094148  0.16705586  0.50033428  1
  Fe  Fe37  1  0.33592931  0.99991007  0.66723098  1
  Fe  Fe38  1  0.49997547  0.16725866  0.83342812  1
  Fe  Fe39  1  0.50227327  0.50038428  0.50096911  1
  Cr  Cr40  1  0.33442266  0.33533226  0.66672706  1
  Fe  Fe41  1  0.50064058  0.50195435  0.83463412  1
  Fe  Fe42  1  0.50092642  0.83493109  0.50210533  1
  Fe  Fe43  1  0.33409294  0.66915897  0.66737295  1
  Fe  Fe44  1  0.50034237  0.83364459  0.83374580  1
  Fe  Fe45  1  0.83398304  0.16926294  0.50046938  1
  Fe  Fe46  1  0.66581232  0.00148291  0.66732308  1
  Fe  Fe47  1  0.83495758  0.16824327  0.83373699  1
  Fe  Fe48  1  0.83407687  0.50008748  0.50061211  1
  Fe  Fe49  1  0.66878660  0.33373459  0.66749579  1
  Fe  Fe50  1  0.83526271  0.50194060  0.83390434  1
  Fe  Fe51  1  0.83369788  0.83350576  0.50095273  1
  Fe  Fe52  1  0.66759750  0.66763787  0.66761983  1
  Fe  Fe53  1  0.83458256  0.83267338  0.83465405  1
" 