2941,Ni8Fe78Cr12_3,-224.872555461728, 153.400459010736,Ni8Fe78Cr12,"# generated using pymatgen
 data_Cr4Fe21Ni2
_symmetry_space_group_name_H-M   'P 1'
_cell_length_a   7.44724946
_cell_length_b   7.44724946
_cell_length_c   10.53200118
_cell_angle_alpha   90.00000000
_cell_angle_beta   90.00000000
_cell_angle_gamma   90.00000000
_symmetry_Int_Tables_number   1
_chemical_formula_structural   Cr4Fe21Ni2
_chemical_formula_sum   'Cr8 Fe42 Ni4'
_cell_volume   584.12084110
_cell_formula_units_Z   2
loop_
 _symmetry_equiv_pos_site_id
 _symmetry_equiv_pos_as_xyz
  1  'x, y, z'
loop_
 _atom_site_type_symbol
 _atom_site_label
 _atom_site_symmetry_multiplicity
 _atom_site_fract_x
 _atom_site_fract_y
 _atom_site_fract_z
 _atom_site_occupancy
  Cr  Cr0  1  0.00253620  0.00150525  1.00109206  1
  Fe  Fe1  1  0.16729176  0.16720716  0.16902128  1
  Fe  Fe2  1  1.00015393  0.00202445  0.33217033  1
  Fe  Fe3  1  0.99881423  0.33543756  0.00309145  1
  Cr  Cr4  1  0.17016816  0.50254575  0.16829701  1
  Fe  Fe5  1  0.99948318  0.33447773  0.33467340  1
  Fe  Fe6  1  0.99868645  0.66821669  0.00172602  1
  Fe  Fe7  1  0.16747794  0.83624448  0.16957719  1
  Fe  Fe8  1  0.99891857  0.66750589  0.33362550  1
  Fe  Fe9  1  0.33752409  1.00050169  0.00158459  1
  Fe  Fe10  1  0.50194469  0.16774382  0.16804324  1
  Fe  Fe11  1  0.33668555  0.00169119  0.33358524  1
  Fe  Fe12  1  0.33705619  0.33337786  0.00201870  1
  Fe  Fe13  1  0.50540967  0.50221913  0.16789170  1
  Fe  Fe14  1  0.33665078  0.33466030  0.33531847  1
  Fe  Fe15  1  0.33687906  0.67034228  0.00163755  1
  Fe  Fe16  1  0.50341532  0.83361622  0.16806957  1
  Fe  Fe17  1  0.33761551  0.66757642  0.33430890  1
  Fe  Fe18  1  0.66678967  0.99991567  0.00253068  1
  Ni  Ni19  1  0.83250301  0.16749229  0.16923826  1
  Fe  Fe20  1  0.66687135  0.00152998  0.33350542  1
  Fe  Fe21  1  0.66793990  0.33469280  0.00281594  1
  Fe  Fe22  1  0.83235810  0.50239740  0.16807135  1
  Fe  Fe23  1  0.66781609  0.33508368  0.33453543  1
  Ni  Ni24  1  0.66772188  0.66717533  1.00037353  1
  Ni  Ni25  1  0.83276809  0.83484479  0.16786949  1
  Ni  Ni26  1  0.66753420  0.66758186  0.33521550  1
  Fe  Fe27  1  0.16783171  0.16875460  0.50086326  1
  Fe  Fe28  1  0.00361021  0.00295686  0.66861836  1
  Fe  Fe29  1  0.17041556  0.16779126  0.83405083  1
  Fe  Fe30  1  0.16833339  0.49922112  0.50055045  1
  Fe  Fe31  1  1.00127556  0.33325089  0.66631628  1
  Cr  Cr32  1  0.16974564  0.50099382  0.83580685  1
  Cr  Cr33  1  0.16869916  0.83363907  0.50002874  1
  Cr  Cr34  1  0.99956075  0.66742590  0.66946449  1
  Fe  Fe35  1  0.17011895  0.83652745  0.83416299  1
  Fe  Fe36  1  0.50053487  0.16795645  0.50044533  1
  Fe  Fe37  1  0.33369496  0.00179246  0.66866552  1
  Fe  Fe38  1  0.49856347  0.16929116  0.83541979  1
  Fe  Fe39  1  0.50168181  0.50230004  0.50075847  1
  Fe  Fe40  1  0.33592469  0.33409059  0.66688366  1
  Fe  Fe41  1  0.50369144  0.50076658  0.83517855  1
  Fe  Fe42  1  0.50094643  0.83365400  0.49992999  1
  Fe  Fe43  1  0.33800166  0.66809675  0.66803293  1
  Fe  Fe44  1  0.50080397  0.83350917  0.83586093  1
  Fe  Fe45  1  0.83540491  0.17008075  0.50010305  1
  Cr  Cr46  1  0.66632881  1.00028276  0.66811830  1
  Cr  Cr47  1  0.83272806  0.16835485  0.83421734  1
  Fe  Fe48  1  0.83377599  0.50029651  0.50026521  1
  Fe  Fe49  1  0.66711915  0.33719650  0.66673935  1
  Fe  Fe50  1  0.83208539  0.50138086  0.83592054  1
  Cr  Cr51  1  0.83353069  0.83668972  0.50053253  1
  Fe  Fe52  1  0.66536027  0.66559821  0.66849619  1
  Fe  Fe53  1  0.83299716  0.83227219  0.83646047  1
" 