5848,Ni8Fe20Cr71_0,-210.160525375136, 192.206053163346,Ni8Fe20Cr71,"# generated using pymatgen
 data_Cr20Fe5Ni2
_symmetry_space_group_name_H-M   'P 1'
_cell_length_a   7.56715380
_cell_length_b   7.56715380
_cell_length_c   10.70157153
_cell_angle_alpha   90.00000000
_cell_angle_beta   90.00000000
_cell_angle_gamma   90.00000000
_symmetry_Int_Tables_number   1
_chemical_formula_structural   Cr20Fe5Ni2
_chemical_formula_sum   'Cr40 Fe10 Ni4'
_cell_volume   612.79142573
_cell_formula_units_Z   2
loop_
 _symmetry_equiv_pos_site_id
 _symmetry_equiv_pos_as_xyz
  1  'x, y, z'
loop_
 _atom_site_type_symbol
 _atom_site_label
 _atom_site_symmetry_multiplicity
 _atom_site_fract_x
 _atom_site_fract_y
 _atom_site_fract_z
 _atom_site_occupancy
  Fe  Fe0  1  -0.00570447  0.99122401  0.99282480  1
  Cr  Cr1  1  0.15884516  0.16038340  0.16018831  1
  Cr  Cr2  1  0.99178141  -0.00488922  0.32460951  1
  Cr  Cr3  1  0.99169308  0.32843483  -0.00507904  1
  Cr  Cr4  1  0.15932528  0.49143932  0.16011124  1
  Ni  Ni5  1  0.99052176  0.32902377  0.32506818  1
  Cr  Cr6  1  -0.00579674  0.65945738  0.98994811  1
  Cr  Cr7  1  0.15897324  0.82783320  0.16187004  1
  Cr  Cr8  1  0.99218401  0.65667079  0.32769020  1
  Cr  Cr9  1  0.32622577  0.99025293  0.99219316  1
  Cr  Cr10  1  0.49200509  0.16084800  0.15881083  1
  Cr  Cr11  1  0.32908600  0.99253541  0.33031866  1
  Fe  Fe12  1  0.32666485  0.32750721  -0.00618223  1
  Fe  Fe13  1  0.49422327  0.49261462  0.15976075  1
  Cr  Cr14  1  0.32748549  0.32729531  0.32787524  1
  Cr  Cr15  1  0.32556533  0.65947074  -0.00431237  1
  Fe  Fe16  1  0.49375720  0.82697266  0.15955179  1
  Cr  Cr17  1  0.32762330  0.66082340  0.32282344  1
  Cr  Cr18  1  0.66197910  -0.00599595  -0.00575134  1
  Fe  Fe19  1  0.82818598  0.16235497  0.16054187  1
  Cr  Cr20  1  0.65894966  -0.00563198  0.32578616  1
  Cr  Cr21  1  0.66196421  0.32777411  -0.00335937  1
  Ni  Ni22  1  0.82640002  0.49255137  0.16252549  1
  Cr  Cr23  1  0.66288082  0.32693136  0.32612173  1
  Cr  Cr24  1  0.66067478  0.65888789  -0.00346930  1
  Cr  Cr25  1  0.82738186  0.82651134  0.15788133  1
  Cr  Cr26  1  0.66019894  0.65897372  0.32325224  1
  Cr  Cr27  1  0.15989239  0.16156219  0.49030798  1
  Cr  Cr28  1  -0.00573716  0.99250325  0.66415438  1
  Cr  Cr29  1  0.16034495  0.16053672  0.83023287  1
  Cr  Cr30  1  0.15803075  0.49341954  0.49280799  1
  Cr  Cr31  1  0.99265147  0.32886686  0.65838823  1
  Fe  Fe32  1  0.15970825  0.49426042  0.82698088  1
  Cr  Cr33  1  0.15767520  0.82566719  0.49144736  1
  Fe  Fe34  1  -0.00644473  0.66090257  0.66186564  1
  Ni  Ni35  1  0.15709099  0.82496504  0.82701536  1
  Ni  Ni36  1  0.49538407  0.16218982  0.49404896  1
  Cr  Cr37  1  0.32656574  0.99299148  0.65658319  1
  Cr  Cr38  1  0.49309949  0.16182522  0.82605214  1
  Cr  Cr39  1  0.49498903  0.49422196  0.49416941  1
  Cr  Cr40  1  0.32622481  0.32679427  0.66150995  1
  Cr  Cr41  1  0.49326046  0.49268089  0.82903010  1
  Cr  Cr42  1  0.49573226  0.82546609  0.49225558  1
  Cr  Cr43  1  0.32303564  0.66096899  0.66175460  1
  Cr  Cr44  1  0.49544621  0.82508882  0.82619294  1
  Cr  Cr45  1  0.82816093  0.15975044  0.49015372  1
  Cr  Cr46  1  0.66023321  -0.00515325  0.65972966  1
  Cr  Cr47  1  0.82714334  0.15941142  0.83056582  1
  Fe  Fe48  1  0.82643476  0.49293068  0.49232915  1
  Cr  Cr49  1  0.66140899  0.32590623  0.65728486  1
  Cr  Cr50  1  0.82505036  0.49587683  0.82257274  1
  Cr  Cr51  1  0.82671506  0.82295016  0.49692307  1
  Fe  Fe52  1  0.66019729  0.65974780  0.66016954  1
  Fe  Fe53  1  0.82744773  0.82622967  0.82669032  1
" 