7401,Ni8Fe18Cr72_8,-209.177473107649, 190.334376571114,Ni8Fe18Cr72,"# generated using pymatgen
 data_Cr41Fe9Ni4
_symmetry_space_group_name_H-M   'P 1'
_cell_length_a   7.56464558
_cell_length_b   7.56464558
_cell_length_c   10.69802437
_cell_angle_alpha   90.00000000
_cell_angle_beta   90.00000000
_cell_angle_gamma   90.00000000
_symmetry_Int_Tables_number   1
_chemical_formula_structural   Cr41Fe9Ni4
_chemical_formula_sum   'Cr41 Fe9 Ni4'
_cell_volume   612.18227848
_cell_formula_units_Z   1
loop_
 _symmetry_equiv_pos_site_id
 _symmetry_equiv_pos_as_xyz
  1  'x, y, z'
loop_
 _atom_site_type_symbol
 _atom_site_label
 _atom_site_symmetry_multiplicity
 _atom_site_fract_x
 _atom_site_fract_y
 _atom_site_fract_z
 _atom_site_occupancy
  Cr  Cr0  1  -0.00557015  -0.00554382  -0.00643287  1
  Ni  Ni1  1  0.15912448  0.15805529  0.16088260  1
  Fe  Fe2  1  -0.00595650  -0.00548066  0.32587739  1
  Cr  Cr3  1  -0.00600551  0.32642542  -0.00577621  1
  Cr  Cr4  1  0.16118197  0.49464685  0.16156453  1
  Cr  Cr5  1  -0.00536057  0.32572271  0.32616892  1
  Fe  Fe6  1  -0.00614086  0.65954612  0.99312744  1
  Cr  Cr7  1  0.15973041  0.82802818  0.16047250  1
  Cr  Cr8  1  0.99122938  0.65865159  0.32596615  1
  Cr  Cr9  1  0.32480929  -0.00515613  0.99117957  1
  Cr  Cr10  1  0.49419500  0.16067040  0.15745021  1
  Cr  Cr11  1  0.32719638  -0.00454681  0.32730794  1
  Cr  Cr12  1  0.32512072  0.32546466  -0.00376597  1
  Cr  Cr13  1  0.49454409  0.49359582  0.15840629  1
  Cr  Cr14  1  0.32570511  0.32571953  0.32441138  1
  Cr  Cr15  1  0.32505686  0.66094300  0.99230701  1
  Cr  Cr16  1  0.49321726  0.82613039  0.16134909  1
  Fe  Fe17  1  0.32942352  0.66063533  0.32740224  1
  Cr  Cr18  1  0.66127162  -0.00537577  0.99285999  1
  Cr  Cr19  1  0.82712819  0.15923322  0.16043775  1
  Cr  Cr20  1  0.65925077  0.99230444  0.32868315  1
  Ni  Ni21  1  0.66332049  0.32616659  0.99125402  1
  Cr  Cr22  1  0.82535307  0.49355755  0.15864220  1
  Cr  Cr23  1  0.66021220  0.32810291  0.32666732  1
  Cr  Cr24  1  0.66202111  0.65978800  -0.00584749  1
  Cr  Cr25  1  0.82757702  0.82734651  0.16171900  1
  Ni  Ni26  1  0.65871781  0.66114204  0.32842932  1
  Cr  Cr27  1  0.15883678  0.15958708  0.49329118  1
  Cr  Cr28  1  0.99353216  -0.00563349  0.66223671  1
  Fe  Fe29  1  0.15807873  0.16144939  0.82708123  1
  Cr  Cr30  1  0.16060916  0.49375537  0.49354188  1
  Fe  Fe31  1  0.99270688  0.32501660  0.66170141  1
  Cr  Cr32  1  0.16014605  0.49434451  0.82568860  1
  Cr  Cr33  1  0.16084639  0.82708601  0.49248559  1
  Cr  Cr34  1  0.99291189  0.65955749  0.66273623  1
  Fe  Fe35  1  0.15896397  0.82824171  0.82711061  1
  Fe  Fe36  1  0.49344698  0.16062289  0.49393858  1
  Cr  Cr37  1  0.32725503  -0.00563194  0.66170755  1
  Cr  Cr38  1  0.49624537  0.16193659  0.82759217  1
  Cr  Cr39  1  0.49324255  0.49300725  0.49293112  1
  Cr  Cr40  1  0.32556761  0.32537381  0.65973409  1
  Cr  Cr41  1  0.49366657  0.49167383  0.82861848  1
  Fe  Fe42  1  0.49326240  0.82649593  0.49215742  1
  Cr  Cr43  1  0.32746064  0.66126787  0.65950256  1
  Cr  Cr44  1  0.49230053  0.82703943  0.82697425  1
  Cr  Cr45  1  0.82672036  0.16029486  0.49509894  1
  Cr  Cr46  1  0.65968511  0.99345367  0.65898324  1
  Ni  Ni47  1  0.82878111  0.16170694  0.82559153  1
  Cr  Cr48  1  0.82683804  0.49175778  0.49611661  1
  Fe  Fe49  1  0.66073379  0.32552258  0.66149593  1
  Cr  Cr50  1  0.82653473  0.49060321  0.82637666  1
  Cr  Cr51  1  0.82816954  0.82777080  0.49057311  1
  Cr  Cr52  1  0.66052061  0.66106151  0.65854743  1
  Cr  Cr53  1  0.82823376  0.82851483  0.82909331  1
" 