86,Ni8Fe77Cr13_14,-224.791322833846, 157.072721305294,Ni8Fe77Cr13,"# generated using pymatgen
 data_Cr9Fe41Ni4
_symmetry_space_group_name_H-M   'P 1'
_cell_length_a   7.45364279
_cell_length_b   7.45364279
_cell_length_c   10.54104272
_cell_angle_alpha   90.00000000
_cell_angle_beta   90.00000000
_cell_angle_gamma   90.00000000
_symmetry_Int_Tables_number   1
_chemical_formula_structural   Cr9Fe41Ni4
_chemical_formula_sum   'Cr9 Fe41 Ni4'
_cell_volume   585.62650527
_cell_formula_units_Z   1
loop_
 _symmetry_equiv_pos_site_id
 _symmetry_equiv_pos_as_xyz
  1  'x, y, z'
loop_
 _atom_site_type_symbol
 _atom_site_label
 _atom_site_symmetry_multiplicity
 _atom_site_fract_x
 _atom_site_fract_y
 _atom_site_fract_z
 _atom_site_occupancy
  Ni  Ni0  1  0.00148991  0.99980005  0.00363141  1
  Fe  Fe1  1  0.16649715  0.16726508  0.16517993  1
  Fe  Fe2  1  0.99913250  0.00262242  0.33166469  1
  Fe  Fe3  1  1.00068234  0.33138210  0.00298424  1
  Fe  Fe4  1  0.16942966  0.49946428  0.16483323  1
  Cr  Cr5  1  1.00067866  0.33372008  0.33316950  1
  Fe  Fe6  1  0.99933755  0.66806036  0.00227190  1
  Fe  Fe7  1  0.16787871  0.83493262  0.16508685  1
  Cr  Cr8  1  0.00134888  0.66925451  0.33240293  1
  Fe  Fe9  1  0.33450246  0.99990043  1.00065695  1
  Cr  Cr10  1  0.50176984  0.16962632  0.16618690  1
  Cr  Cr11  1  0.33222402  0.99988340  0.33433317  1
  Fe  Fe12  1  0.33160934  0.33322746  0.99880472  1
  Fe  Fe13  1  0.50190495  0.50173213  0.16821662  1
  Fe  Fe14  1  0.33509414  0.33612278  0.33591497  1
  Fe  Fe15  1  0.33489972  0.66923523  0.00090931  1
  Fe  Fe16  1  0.50298613  0.83355158  0.16623740  1
  Fe  Fe17  1  0.33584811  0.66487455  0.33355522  1
  Ni  Ni18  1  0.66863572  0.99970829  1.00030665  1
  Ni  Ni19  1  0.83397915  0.16644960  0.16864920  1
  Fe  Fe20  1  0.66892037  0.00221812  0.33271932  1
  Cr  Cr21  1  0.66717062  0.33622543  0.99767859  1
  Fe  Fe22  1  0.83098461  0.49950050  0.16730851  1
  Ni  Ni23  1  0.66717506  0.33557191  0.33713138  1
  Fe  Fe24  1  0.66854550  0.67078890  0.99968138  1
  Fe  Fe25  1  0.83228485  0.83615257  0.16615621  1
  Fe  Fe26  1  0.66573446  0.66690955  0.33401143  1
  Fe  Fe27  1  0.16509360  0.16542151  0.50213460  1
  Fe  Fe28  1  0.00383655  1.00036056  0.66868497  1
  Fe  Fe29  1  0.16754918  0.16560351  0.83584946  1
  Fe  Fe30  1  0.16788710  0.50260092  0.50152959  1
  Fe  Fe31  1  1.00037859  0.33596999  0.66625467  1
  Fe  Fe32  1  0.16604806  0.50100210  0.83570673  1
  Fe  Fe33  1  0.16911362  0.83345793  0.50262644  1
  Fe  Fe34  1  0.00408204  0.66695017  0.66804513  1
  Fe  Fe35  1  0.16641640  0.83498506  0.83557038  1
  Fe  Fe36  1  0.50331980  0.16614782  0.49968429  1
  Fe  Fe37  1  0.33488112  0.99785433  0.66730077  1
  Fe  Fe38  1  0.49875470  0.16444125  0.83527595  1
  Fe  Fe39  1  0.50136704  0.50213817  0.50017338  1
  Cr  Cr40  1  0.33488174  0.33161468  0.66748050  1
  Fe  Fe41  1  0.49854375  0.50183563  0.83506080  1
  Fe  Fe42  1  0.49995257  0.83345808  0.50105547  1
  Fe  Fe43  1  0.33322430  0.66850194  0.66876698  1
  Fe  Fe44  1  0.50028684  0.83602287  0.83594987  1
  Fe  Fe45  1  0.83322846  0.16889708  0.50155317  1
  Fe  Fe46  1  0.66405010  0.00194666  0.66861832  1
  Cr  Cr47  1  0.83460462  0.16634614  0.83180536  1
  Fe  Fe48  1  0.83364415  0.50050463  0.50154222  1
  Fe  Fe49  1  0.66790590  0.33348121  0.66641606  1
  Fe  Fe50  1  0.83825164  0.50213964  0.83429688  1
  Cr  Cr51  1  0.83491788  0.83727745  0.50072116  1
  Cr  Cr52  1  0.66872092  0.66720271  0.67086641  1
  Fe  Fe53  1  0.83687239  0.83421515  0.83590532  1
" 