2682,Ni8Fe66Cr24_3,-223.554124767688, 158.358013796088,Ni8Fe66Cr24,"# generated using pymatgen
 data_Cr7(Fe9Ni)2
_symmetry_space_group_name_H-M   'P 1'
_cell_length_a   7.48086111
_cell_length_b   7.48086111
_cell_length_c   10.57953524
_cell_angle_alpha   90.00000000
_cell_angle_beta   90.00000000
_cell_angle_gamma   90.00000000
_symmetry_Int_Tables_number   1
_chemical_formula_structural   Cr7(Fe9Ni)2
_chemical_formula_sum   'Cr14 Fe36 Ni4'
_cell_volume   592.06552397
_cell_formula_units_Z   2
loop_
 _symmetry_equiv_pos_site_id
 _symmetry_equiv_pos_as_xyz
  1  'x, y, z'
loop_
 _atom_site_type_symbol
 _atom_site_label
 _atom_site_symmetry_multiplicity
 _atom_site_fract_x
 _atom_site_fract_y
 _atom_site_fract_z
 _atom_site_occupancy
  Ni  Ni0  1  0.99789194  -0.00063942  0.00015371  1
  Fe  Fe1  1  0.16517490  0.16380906  0.16647005  1
  Cr  Cr2  1  -0.00091072  0.99640114  0.33266288  1
  Fe  Fe3  1  0.99783376  0.33208098  0.00114757  1
  Cr  Cr4  1  0.16435940  0.50141015  0.16756042  1
  Ni  Ni5  1  0.99801006  0.33153120  0.32985693  1
  Ni  Ni6  1  0.99577630  0.66688503  0.00121761  1
  Fe  Fe7  1  0.16634586  0.83442964  0.16382539  1
  Fe  Fe8  1  0.99839531  0.66716752  0.33051583  1
  Fe  Fe9  1  0.33174032  0.99787954  0.00257922  1
  Fe  Fe10  1  0.50100659  0.16281448  0.16544744  1
  Ni  Ni11  1  0.33453588  0.99820606  0.33164897  1
  Cr  Cr12  1  0.33590145  0.33219615  0.00031335  1
  Fe  Fe13  1  0.50200380  0.50128429  0.16576299  1
  Cr  Cr14  1  0.33673121  0.33141748  0.33159991  1
  Fe  Fe15  1  0.33265210  0.66697468  0.00124668  1
  Fe  Fe16  1  0.49865345  0.83221258  0.16616321  1
  Fe  Fe17  1  0.33366553  0.66924843  0.33187499  1
  Fe  Fe18  1  0.66662864  0.99906512  0.00180323  1
  Fe  Fe19  1  0.83290292  0.16602034  0.16548742  1
  Fe  Fe20  1  0.66335191  -0.00075030  0.33054762  1
  Fe  Fe21  1  0.66992104  0.33260899  -0.00019697  1
  Fe  Fe22  1  0.83039154  0.49971142  0.16660127  1
  Fe  Fe23  1  0.66627280  0.33079813  0.32921970  1
  Fe  Fe24  1  0.66500335  0.66508799  0.00081495  1
  Fe  Fe25  1  0.83181226  0.83173430  0.16401265  1
  Fe  Fe26  1  0.66433634  0.66731431  0.33093036  1
  Cr  Cr27  1  0.16671509  0.16779118  0.49999193  1
  Cr  Cr28  1  0.99873518  0.99848697  0.66552016  1
  Fe  Fe29  1  0.16485349  0.16462362  0.83362683  1
  Cr  Cr30  1  0.16651372  0.50093594  0.49696477  1
  Fe  Fe31  1  0.99708389  0.33275743  0.66633626  1
  Cr  Cr32  1  0.16381789  0.49944060  0.83232117  1
  Fe  Fe33  1  0.16942431  0.83308730  0.49750489  1
  Cr  Cr34  1  0.99621473  0.66817285  0.66293483  1
  Cr  Cr35  1  0.16741548  0.83149699  0.83567544  1
  Fe  Fe36  1  0.49896649  0.16456200  0.50008020  1
  Fe  Fe37  1  0.33433091  0.99607951  0.66411612  1
  Cr  Cr38  1  0.50156334  0.16116726  0.83180905  1
  Fe  Fe39  1  0.50075442  0.49903604  0.49969427  1
  Fe  Fe40  1  0.33448011  0.33329066  0.66662798  1
  Fe  Fe41  1  0.50098219  0.50134067  0.83246907  1
  Fe  Fe42  1  0.49923750  0.83291288  0.49765487  1
  Fe  Fe43  1  0.33498916  0.66706445  0.66495304  1
  Fe  Fe44  1  0.49847360  0.82955968  0.83335923  1
  Cr  Cr45  1  0.82783449  0.16540107  0.49873156  1
  Fe  Fe46  1  0.66384170  0.99605628  0.66449328  1
  Fe  Fe47  1  0.83472866  0.16750183  0.83389948  1
  Cr  Cr48  1  0.83273511  0.49833579  0.49535145  1
  Fe  Fe49  1  0.66599472  0.33438732  0.66690191  1
  Fe  Fe50  1  0.83049008  0.49874638  0.83381106  1
  Fe  Fe51  1  0.82829915  0.83184816  0.49726020  1
  Fe  Fe52  1  0.66265571  0.66593731  0.66487217  1
  Cr  Cr53  1  0.82862509  0.83322471  0.83391553  1
" 