5087,Ni8Fe78Cr12_19,-224.755349830499, 150.729113759302,Ni8Fe78Cr12,"# generated using pymatgen
 data_Cr4Fe21Ni2
_symmetry_space_group_name_H-M   'P 1'
_cell_length_a   7.44773688
_cell_length_b   7.44773688
_cell_length_c   10.53269050
_cell_angle_alpha   90.00000000
_cell_angle_beta   90.00000000
_cell_angle_gamma   90.00000000
_symmetry_Int_Tables_number   1
_chemical_formula_structural   Cr4Fe21Ni2
_chemical_formula_sum   'Cr8 Fe42 Ni4'
_cell_volume   584.23554118
_cell_formula_units_Z   2
loop_
 _symmetry_equiv_pos_site_id
 _symmetry_equiv_pos_as_xyz
  1  'x, y, z'
loop_
 _atom_site_type_symbol
 _atom_site_label
 _atom_site_symmetry_multiplicity
 _atom_site_fract_x
 _atom_site_fract_y
 _atom_site_fract_z
 _atom_site_occupancy
  Cr  Cr0  1  0.00224182  0.00157232  0.99930370  1
  Fe  Fe1  1  0.16796390  0.16792977  0.16974688  1
  Fe  Fe2  1  0.00131219  0.00131206  0.33446092  1
  Fe  Fe3  1  1.00026600  0.33565889  0.00163389  1
  Fe  Fe4  1  0.16563009  0.50217448  0.16840415  1
  Fe  Fe5  1  1.00000748  0.33463019  0.33334534  1
  Fe  Fe6  1  0.00299644  0.66578930  1.00066085  1
  Fe  Fe7  1  0.17027513  0.83378511  0.16818509  1
  Fe  Fe8  1  0.00131139  0.66794627  0.33462150  1
  Fe  Fe9  1  0.33632723  1.00010409  1.00106970  1
  Fe  Fe10  1  0.50249244  0.16596981  0.16833778  1
  Fe  Fe11  1  0.33530976  1.00059404  0.33386183  1
  Cr  Cr12  1  0.33422695  0.33483290  0.99888429  1
  Cr  Cr13  1  0.50229636  0.50177048  0.16806916  1
  Fe  Fe14  1  0.33520141  0.33393206  0.33373874  1
  Fe  Fe15  1  0.33363913  0.66972003  0.99996193  1
  Fe  Fe16  1  0.49987799  0.83604337  0.16803077  1
  Fe  Fe17  1  0.33461366  0.66936276  0.33459950  1
  Fe  Fe18  1  0.66566872  0.00283401  1.00070812  1
  Fe  Fe19  1  0.83343564  0.17061388  0.16831724  1
  Fe  Fe20  1  0.66726682  0.00190188  0.33530242  1
  Ni  Ni21  1  0.66919743  0.33368840  0.00178183  1
  Fe  Fe22  1  0.83569335  0.49956343  0.16747466  1
  Fe  Fe23  1  0.66868223  0.33393456  0.33534655  1
  Fe  Fe24  1  0.66725587  0.66808529  1.00077066  1
  Cr  Cr25  1  0.83321147  0.83383605  0.16715840  1
  Fe  Fe26  1  0.66796401  0.66805272  0.33604287  1
  Cr  Cr27  1  0.16908191  0.16634873  0.50166044  1
  Fe  Fe28  1  1.00031267  0.99940537  0.66913835  1
  Fe  Fe29  1  0.16847053  0.16735319  0.83371336  1
  Cr  Cr30  1  0.16907910  0.50240919  0.50110861  1
  Cr  Cr31  1  1.00045696  0.33360573  0.67039095  1
  Ni  Ni32  1  0.16940348  0.50310361  0.83542263  1
  Fe  Fe33  1  0.16791897  0.83468669  0.50179160  1
  Fe  Fe34  1  0.00140468  0.67024630  0.66861236  1
  Ni  Ni35  1  0.16891415  0.83392425  0.83330908  1
  Fe  Fe36  1  0.50281295  0.16853056  0.50161429  1
  Fe  Fe37  1  0.33536763  1.00104398  0.66895812  1
  Fe  Fe38  1  0.50172686  0.16812930  0.83392750  1
  Fe  Fe39  1  0.50289329  0.50075046  0.50139693  1
  Fe  Fe40  1  0.33775880  0.33497106  0.66979980  1
  Fe  Fe41  1  0.50004418  0.50188182  0.83408759  1
  Fe  Fe42  1  0.50090673  0.83460793  0.50114132  1
  Fe  Fe43  1  0.33501641  0.66787451  0.66932916  1
  Fe  Fe44  1  0.50019758  0.83387831  0.83471727  1
  Fe  Fe45  1  0.83241207  0.16778364  0.50091190  1
  Fe  Fe46  1  0.66821139  0.00216206  0.66787575  1
  Fe  Fe47  1  0.83369198  0.16719734  0.83465842  1
  Fe  Fe48  1  0.83233288  0.50149607  0.50101744  1
  Ni  Ni49  1  0.66538032  0.33404351  0.66616789  1
  Cr  Cr50  1  0.83405303  0.50169975  0.83722147  1
  Fe  Fe51  1  0.83506302  0.83460838  0.50102324  1
  Fe  Fe52  1  0.66747115  0.66784642  0.66707786  1
  Fe  Fe53  1  0.83525883  0.83478015  0.83411438  1
" 