8976,Ni8Fe18Cr72_11,-209.020792959511, 190.262189024427,Ni8Fe18Cr72,"# generated using pymatgen
 data_Cr41Fe9Ni4
_symmetry_space_group_name_H-M   'P 1'
_cell_length_a   7.56836158
_cell_length_b   7.56836158
_cell_length_c   10.70327959
_cell_angle_alpha   90.00000000
_cell_angle_beta   90.00000000
_cell_angle_gamma   90.00000000
_symmetry_Int_Tables_number   1
_chemical_formula_structural   Cr41Fe9Ni4
_chemical_formula_sum   'Cr41 Fe9 Ni4'
_cell_volume   613.08489288
_cell_formula_units_Z   1
loop_
 _symmetry_equiv_pos_site_id
 _symmetry_equiv_pos_as_xyz
  1  'x, y, z'
loop_
 _atom_site_type_symbol
 _atom_site_label
 _atom_site_symmetry_multiplicity
 _atom_site_fract_x
 _atom_site_fract_y
 _atom_site_fract_z
 _atom_site_occupancy
  Cr  Cr0  1  -0.00590487  -0.00593296  -0.00559406  1
  Cr  Cr1  1  0.16024245  0.15867847  0.16073561  1
  Ni  Ni2  1  -0.00590941  0.99274270  0.32579532  1
  Cr  Cr3  1  -0.00586010  0.32673259  0.99277234  1
  Cr  Cr4  1  0.16113964  0.49525434  0.15828941  1
  Cr  Cr5  1  0.99276818  0.32537200  0.32817433  1
  Fe  Fe6  1  -0.00627685  0.66052461  -0.00626087  1
  Fe  Fe7  1  0.15865354  0.82716382  0.16046837  1
  Cr  Cr8  1  -0.00668825  0.66039547  0.32558333  1
  Cr  Cr9  1  0.32639379  -0.00661044  0.99179980  1
  Cr  Cr10  1  0.49381035  0.16223325  0.15947262  1
  Cr  Cr11  1  0.32476289  0.99228390  0.32611379  1
  Fe  Fe12  1  0.32708981  0.32618738  0.99295553  1
  Cr  Cr13  1  0.49217953  0.49095166  0.15865051  1
  Cr  Cr14  1  0.32548096  0.32687278  0.32606404  1
  Cr  Cr15  1  0.32657603  0.66016003  -0.00605238  1
  Cr  Cr16  1  0.49264149  0.82673371  0.16065074  1
  Cr  Cr17  1  0.32680379  0.66076629  0.32607345  1
  Cr  Cr18  1  0.65943195  0.99280139  0.99279372  1
  Cr  Cr19  1  0.82586720  0.15821598  0.16068485  1
  Cr  Cr20  1  0.66130359  0.99282100  0.32580636  1
  Fe  Fe21  1  0.65911079  0.32655443  0.99283455  1
  Cr  Cr22  1  0.82660024  0.49407400  0.15823752  1
  Cr  Cr23  1  0.66167141  0.32742156  0.32776379  1
  Cr  Cr24  1  0.65978794  0.66020399  0.99233813  1
  Cr  Cr25  1  0.83016958  0.82763034  0.16022829  1
  Cr  Cr26  1  0.65980854  0.65967661  0.32838464  1
  Cr  Cr27  1  0.15890390  0.15845136  0.49520041  1
  Fe  Fe28  1  -0.00493924  -0.00478676  0.65992868  1
  Fe  Fe29  1  0.15988505  0.16003189  0.82482595  1
  Cr  Cr30  1  0.15855684  0.49385742  0.49443803  1
  Ni  Ni31  1  0.99135865  0.32654263  0.65982392  1
  Cr  Cr32  1  0.15927380  0.49317086  0.82719229  1
  Cr  Cr33  1  0.15816610  0.82761244  0.49310765  1
  Fe  Fe34  1  0.99291578  0.65849282  0.65955056  1
  Cr  Cr35  1  0.15896307  0.82708257  0.82494337  1
  Cr  Cr36  1  0.49371633  0.16083254  0.49334558  1
  Ni  Ni37  1  0.32484995  0.99281344  0.66179471  1
  Cr  Cr38  1  0.49266966  0.16080547  0.82710045  1
  Cr  Cr39  1  0.49446528  0.49187000  0.49257434  1
  Cr  Cr40  1  0.32380267  0.32437408  0.66065799  1
  Cr  Cr41  1  0.49340113  0.49119557  0.82869642  1
  Cr  Cr42  1  0.49247656  0.82721850  0.49442301  1
  Cr  Cr43  1  0.32739337  0.66294620  0.65989654  1
  Fe  Fe44  1  0.49242858  0.82747809  0.82573950  1
  Cr  Cr45  1  0.82729590  0.16042595  0.49360965  1
  Cr  Cr46  1  0.65820996  0.99267725  0.66132185  1
  Cr  Cr47  1  0.82641058  0.16049433  0.82563143  1
  Fe  Fe48  1  0.82704332  0.49186937  0.49559324  1
  Ni  Ni49  1  0.66438187  0.32753687  0.65986497  1
  Cr  Cr50  1  0.82724640  0.49307415  0.82565052  1
  Cr  Cr51  1  0.82927638  0.82686394  0.49311232  1
  Cr  Cr52  1  0.66037330  0.65937277  0.65919971  1
  Cr  Cr53  1  0.82838472  0.82635152  0.82657732  1
" 