8139,Ni8Fe78Cr12_11,-225.040596448285, 151.024524287518,Ni8Fe78Cr12,"# generated using pymatgen
 data_Cr4Fe21Ni2
_symmetry_space_group_name_H-M   'P 1'
_cell_length_a   7.45289301
_cell_length_b   7.45289301
_cell_length_c   10.53998237
_cell_angle_alpha   90.00000000
_cell_angle_beta   90.00000000
_cell_angle_gamma   90.00000000
_symmetry_Int_Tables_number   1
_chemical_formula_structural   Cr4Fe21Ni2
_chemical_formula_sum   'Cr8 Fe42 Ni4'
_cell_volume   585.44979453
_cell_formula_units_Z   2
loop_
 _symmetry_equiv_pos_site_id
 _symmetry_equiv_pos_as_xyz
  1  'x, y, z'
loop_
 _atom_site_type_symbol
 _atom_site_label
 _atom_site_symmetry_multiplicity
 _atom_site_fract_x
 _atom_site_fract_y
 _atom_site_fract_z
 _atom_site_occupancy
  Fe  Fe0  1  0.00212391  0.00113598  0.99836517  1
  Fe  Fe1  1  0.16795257  0.16487518  0.16611479  1
  Fe  Fe2  1  0.00272674  0.99928542  0.33543509  1
  Fe  Fe3  1  0.99984576  0.33414276  0.99980753  1
  Cr  Cr4  1  0.16964414  0.50100287  0.16608109  1
  Cr  Cr5  1  1.00048156  0.33271977  0.33430332  1
  Ni  Ni6  1  1.00066646  0.66762951  1.00023954  1
  Fe  Fe7  1  0.16667131  0.83463791  0.16608462  1
  Fe  Fe8  1  0.00132836  0.66929583  0.33353216  1
  Fe  Fe9  1  0.33150644  0.00165500  0.99838295  1
  Fe  Fe10  1  0.50082644  0.17095669  0.16546282  1
  Fe  Fe11  1  0.33332626  1.00050271  0.33526271  1
  Fe  Fe12  1  0.33438501  0.33442698  0.99787787  1
  Fe  Fe13  1  0.50314722  0.49941102  0.16459069  1
  Fe  Fe14  1  0.33804475  0.33316798  0.33484307  1
  Fe  Fe15  1  0.33324744  0.66735613  0.99708492  1
  Cr  Cr16  1  0.49896316  0.83521293  0.16279590  1
  Fe  Fe17  1  0.33485675  0.67014058  0.33588294  1
  Fe  Fe18  1  0.66902156  0.00244354  0.99815271  1
  Fe  Fe19  1  0.83360494  0.16901903  0.16484512  1
  Cr  Cr20  1  0.66762803  0.00146164  0.33495602  1
  Fe  Fe21  1  0.66844231  0.33594761  0.99962130  1
  Ni  Ni22  1  0.83530097  0.49957326  0.16615887  1
  Fe  Fe23  1  0.66670591  0.33434688  0.33379140  1
  Fe  Fe24  1  0.66889842  0.66482869  0.99902304  1
  Cr  Cr25  1  0.83502275  0.83491497  0.16521461  1
  Cr  Cr26  1  0.66732016  0.66668589  0.33416301  1
  Fe  Fe27  1  0.16844826  0.16372496  0.50172360  1
  Fe  Fe28  1  0.00167609  0.00135518  0.66900778  1
  Fe  Fe29  1  0.16704807  0.16756077  0.83510704  1
  Cr  Cr30  1  0.16658456  0.50102621  0.50284841  1
  Fe  Fe31  1  0.99813447  0.33319864  0.66885270  1
  Fe  Fe32  1  0.16663487  0.50194600  0.83523243  1
  Fe  Fe33  1  0.16839874  0.83524144  0.50216576  1
  Fe  Fe34  1  1.00018679  0.66825446  0.67083644  1
  Fe  Fe35  1  0.16765634  0.83300139  0.83477910  1
  Fe  Fe36  1  0.50045330  0.16791027  0.50206076  1
  Fe  Fe37  1  0.33399218  0.99912131  0.66895049  1
  Fe  Fe38  1  0.50253827  0.16771661  0.83566260  1
  Fe  Fe39  1  0.50181889  0.50194129  0.50349198  1
  Cr  Cr40  1  0.33364329  0.33305338  0.66971032  1
  Ni  Ni41  1  0.50082789  0.50162199  0.83463613  1
  Ni  Ni42  1  0.50093412  0.83563539  0.50420383  1
  Fe  Fe43  1  0.33560962  0.66942552  0.66980808  1
  Fe  Fe44  1  0.50174389  0.83419214  0.83396562  1
  Fe  Fe45  1  0.83368647  0.16723402  0.50390996  1
  Fe  Fe46  1  0.66711352  0.00134558  0.66784824  1
  Fe  Fe47  1  0.83297161  0.16833901  0.83379377  1
  Fe  Fe48  1  0.83203901  0.50136536  0.50258805  1
  Fe  Fe49  1  0.66832617  0.33533283  0.66946750  1
  Fe  Fe50  1  0.83358554  0.50123138  0.83551534  1
  Fe  Fe51  1  0.83572839  0.83348454  0.50362862  1
  Fe  Fe52  1  0.66643422  0.66698407  0.66840141  1
  Fe  Fe53  1  0.83337473  0.83325812  0.83500943  1
" 