1279,Ni8Fe20Cr71_18,-209.967009181045, 190.597750337241,Ni8Fe20Cr71,"# generated using pymatgen
 data_Cr20Fe5Ni2
_symmetry_space_group_name_H-M   'P 1'
_cell_length_a   7.56684510
_cell_length_b   7.56684510
_cell_length_c   10.70113496
_cell_angle_alpha   90.00000000
_cell_angle_beta   90.00000000
_cell_angle_gamma   90.00000000
_symmetry_Int_Tables_number   1
_chemical_formula_structural   Cr20Fe5Ni2
_chemical_formula_sum   'Cr40 Fe10 Ni4'
_cell_volume   612.71643373
_cell_formula_units_Z   2
loop_
 _symmetry_equiv_pos_site_id
 _symmetry_equiv_pos_as_xyz
  1  'x, y, z'
loop_
 _atom_site_type_symbol
 _atom_site_label
 _atom_site_symmetry_multiplicity
 _atom_site_fract_x
 _atom_site_fract_y
 _atom_site_fract_z
 _atom_site_occupancy
  Cr  Cr0  1  -0.00630046  -0.00561840  0.99291904  1
  Fe  Fe1  1  0.16024768  0.15858631  0.16233999  1
  Fe  Fe2  1  -0.00601183  -0.00611267  0.32540918  1
  Cr  Cr3  1  -0.00627195  0.32433487  -0.00403645  1
  Cr  Cr4  1  0.15984811  0.49509577  0.16218843  1
  Cr  Cr5  1  -0.00650568  0.32612021  0.32493975  1
  Cr  Cr6  1  -0.00522607  0.66135926  0.99308275  1
  Cr  Cr7  1  0.15893500  0.82786934  0.16184532  1
  Fe  Fe8  1  -0.00644229  0.66181132  0.32672434  1
  Cr  Cr9  1  0.32478720  0.99257760  -0.00609960  1
  Cr  Cr10  1  0.49063747  0.15931057  0.16112189  1
  Ni  Ni11  1  0.32386747  0.99237106  0.32694036  1
  Cr  Cr12  1  0.32460711  0.32698786  0.99286195  1
  Cr  Cr13  1  0.49441949  0.49406813  0.15651503  1
  Cr  Cr14  1  0.32574190  0.32779278  0.32816690  1
  Cr  Cr15  1  0.32675787  0.66108413  0.99017666  1
  Cr  Cr16  1  0.49263474  0.82672542  0.16085796  1
  Cr  Cr17  1  0.32672860  0.66062333  0.33106782  1
  Cr  Cr18  1  0.66176587  0.99270599  -0.00510114  1
  Fe  Fe19  1  0.82746646  0.15812395  0.16129142  1
  Cr  Cr20  1  0.65996105  0.99282210  0.32712968  1
  Cr  Cr21  1  0.66142269  0.32570290  -0.00637126  1
  Cr  Cr22  1  0.82643944  0.49689536  0.15922454  1
  Cr  Cr23  1  0.66107274  0.32641476  0.32739816  1
  Ni  Ni24  1  0.66064927  0.66088380  0.99286719  1
  Fe  Fe25  1  0.82627034  0.82629099  0.16032864  1
  Cr  Cr26  1  0.65845783  0.66072497  0.32891135  1
  Cr  Cr27  1  0.16123086  0.15836764  0.49399236  1
  Fe  Fe28  1  -0.00498440  0.99115236  0.66095379  1
  Cr  Cr29  1  0.16137553  0.15829967  0.82450950  1
  Fe  Fe30  1  0.16087466  0.49234734  0.49344517  1
  Cr  Cr31  1  -0.00488529  0.32674045  0.65969998  1
  Cr  Cr32  1  0.16027986  0.49341852  0.82575599  1
  Cr  Cr33  1  0.15901673  0.82760404  0.49234697  1
  Cr  Cr34  1  -0.00392608  0.65979915  0.65982152  1
  Ni  Ni35  1  0.15982515  0.82720616  0.82561385  1
  Cr  Cr36  1  0.49124222  0.15982290  0.49343882  1
  Cr  Cr37  1  0.32697796  0.98994827  0.66097522  1
  Cr  Cr38  1  0.49254131  0.16253196  0.82572845  1
  Ni  Ni39  1  0.49119485  0.49325555  0.49535555  1
  Fe  Fe40  1  0.32761795  0.32860001  0.65872327  1
  Fe  Fe41  1  0.49359750  0.49469218  0.82654712  1
  Fe  Fe42  1  0.49224144  0.82726588  0.49233809  1
  Cr  Cr43  1  0.32669056  0.65979163  0.65913634  1
  Cr  Cr44  1  0.49392809  0.82702042  0.82880738  1
  Cr  Cr45  1  0.82842109  0.15883482  0.49551159  1
  Cr  Cr46  1  0.66007057  0.99208545  0.65843939  1
  Cr  Cr47  1  0.82681034  0.15973697  0.82315203  1
  Cr  Cr48  1  0.82780189  0.49483590  0.49233529  1
  Cr  Cr49  1  0.65966109  0.32794117  0.65851855  1
  Cr  Cr50  1  0.82488141  0.49458430  0.82845311  1
  Cr  Cr51  1  0.82949507  0.82645160  0.49280578  1
  Cr  Cr52  1  0.65750233  0.66074343  0.65851875  1
  Cr  Cr53  1  0.82846008  0.82527335  0.82627907  1
" 