1092,Ni8Fe78Cr12_2,-224.956817547934, 155.847551139428,Ni8Fe78Cr12,"# generated using pymatgen
 data_Cr4Fe21Ni2
_symmetry_space_group_name_H-M   'P 1'
_cell_length_a   7.45017886
_cell_length_b   7.45017886
_cell_length_c   10.53614399
_cell_angle_alpha   90.00000000
_cell_angle_beta   90.00000000
_cell_angle_gamma   90.00000000
_symmetry_Int_Tables_number   1
_chemical_formula_structural   Cr4Fe21Ni2
_chemical_formula_sum   'Cr8 Fe42 Ni4'
_cell_volume   584.81041114
_cell_formula_units_Z   2
loop_
 _symmetry_equiv_pos_site_id
 _symmetry_equiv_pos_as_xyz
  1  'x, y, z'
loop_
 _atom_site_type_symbol
 _atom_site_label
 _atom_site_symmetry_multiplicity
 _atom_site_fract_x
 _atom_site_fract_y
 _atom_site_fract_z
 _atom_site_occupancy
  Fe  Fe0  1  0.00271193  0.99986550  0.99986663  1
  Fe  Fe1  1  0.16969794  0.16754309  0.16749509  1
  Fe  Fe2  1  1.00091940  1.00008795  0.33536638  1
  Fe  Fe3  1  0.00253771  0.33355296  0.00154109  1
  Fe  Fe4  1  0.16784565  0.50131436  0.16747745  1
  Fe  Fe5  1  1.00028875  0.33410154  0.33448349  1
  Fe  Fe6  1  0.00402761  0.66997411  0.00258051  1
  Fe  Fe7  1  0.16832003  0.83454117  0.16703298  1
  Fe  Fe8  1  0.00119044  0.66920797  0.33395507  1
  Ni  Ni9  1  0.33341886  0.00183522  1.00113162  1
  Fe  Fe10  1  0.49963174  0.16705239  0.16793827  1
  Fe  Fe11  1  0.33461066  0.00176404  0.33314366  1
  Fe  Fe12  1  0.33547467  0.33396457  0.00197660  1
  Fe  Fe13  1  0.49942812  0.49974032  0.16743871  1
  Fe  Fe14  1  0.33610136  0.33328590  0.33381633  1
  Ni  Ni15  1  0.33370660  0.66890992  0.00140356  1
  Fe  Fe16  1  0.49944442  0.83660420  0.16765690  1
  Fe  Fe17  1  0.33353282  0.66834870  0.33237176  1
  Fe  Fe18  1  0.66607105  0.00164037  1.00061110  1
  Cr  Cr19  1  0.83272815  0.16743300  0.16712764  1
  Ni  Ni20  1  0.66784017  0.00265126  0.33414503  1
  Fe  Fe21  1  0.66538352  0.33264706  1.00072226  1
  Fe  Fe22  1  0.83612569  0.50112023  0.16763445  1
  Fe  Fe23  1  0.66700407  0.33302105  0.33525643  1
  Cr  Cr24  1  0.66780924  0.66801022  0.00113673  1
  Fe  Fe25  1  0.83563419  0.83474759  0.16834423  1
  Cr  Cr26  1  0.66964273  0.66709309  0.33440880  1
  Fe  Fe27  1  0.16804226  0.16611033  0.50115683  1
  Fe  Fe28  1  1.00079625  0.00304214  0.66816163  1
  Fe  Fe29  1  0.16710144  0.16612642  0.83474457  1
  Cr  Cr30  1  0.16842893  0.50119400  0.50022532  1
  Fe  Fe31  1  1.00000779  0.33020557  0.66737391  1
  Cr  Cr32  1  0.17031405  0.50141857  0.83662617  1
  Fe  Fe33  1  0.16703982  0.83668736  0.50040922  1
  Cr  Cr34  1  0.99922188  0.67041550  0.66695869  1
  Fe  Fe35  1  0.16849550  0.83715106  0.83595122  1
  Fe  Fe36  1  0.50124739  0.16921281  0.50066491  1
  Fe  Fe37  1  0.33335411  0.00168034  0.66912098  1
  Fe  Fe38  1  0.50159826  0.16786113  0.83479267  1
  Fe  Fe39  1  0.50184354  0.49884202  0.50204191  1
  Fe  Fe40  1  0.33581549  0.33322611  0.66760634  1
  Fe  Fe41  1  0.50064212  0.50015436  0.83391563  1
  Cr  Cr42  1  0.50019020  0.83544955  0.50165262  1
  Fe  Fe43  1  0.33685810  0.66848929  0.66913843  1
  Fe  Fe44  1  0.50023871  0.83538239  0.83416721  1
  Fe  Fe45  1  0.83410685  0.16746391  0.50118269  1
  Fe  Fe46  1  0.66924509  0.00199107  0.66828265  1
  Ni  Ni47  1  0.83374204  0.16562819  0.83419191  1
  Fe  Fe48  1  0.83276795  0.49983655  0.50134852  1
  Fe  Fe49  1  0.66757647  0.33370427  0.66741695  1
  Cr  Cr50  1  0.83459540  0.49790347  0.83516263  1
  Fe  Fe51  1  0.83586326  0.83609669  0.50069841  1
  Fe  Fe52  1  0.66621588  0.66769567  0.66772741  1
  Fe  Fe53  1  0.83465728  0.83810704  0.83435140  1
" 