2714,Ni8Fe77Cr13_2,-224.923850185453, 154.364839617149,Ni8Fe77Cr13,"# generated using pymatgen
 data_Cr9Fe41Ni4
_symmetry_space_group_name_H-M   'P 1'
_cell_length_a   7.45872266
_cell_length_b   7.45872266
_cell_length_c   10.54822674
_cell_angle_alpha   90.00000000
_cell_angle_beta   90.00000000
_cell_angle_gamma   90.00000000
_symmetry_Int_Tables_number   1
_chemical_formula_structural   Cr9Fe41Ni4
_chemical_formula_sum   'Cr9 Fe41 Ni4'
_cell_volume   586.82468460
_cell_formula_units_Z   1
loop_
 _symmetry_equiv_pos_site_id
 _symmetry_equiv_pos_as_xyz
  1  'x, y, z'
loop_
 _atom_site_type_symbol
 _atom_site_label
 _atom_site_symmetry_multiplicity
 _atom_site_fract_x
 _atom_site_fract_y
 _atom_site_fract_z
 _atom_site_occupancy
  Fe  Fe0  1  0.99948946  1.00020642  1.00042955  1
  Fe  Fe1  1  0.16825585  0.16770289  0.16595753  1
  Cr  Cr2  1  0.00221621  0.99985194  0.33307648  1
  Fe  Fe3  1  0.00111856  0.33400696  1.00041414  1
  Fe  Fe4  1  0.16775853  0.50181582  0.16617915  1
  Cr  Cr5  1  1.00042871  0.33541300  0.33435801  1
  Ni  Ni6  1  1.00024786  0.66649166  0.00151391  1
  Fe  Fe7  1  0.16546434  0.83215684  0.16693389  1
  Fe  Fe8  1  1.00041394  0.66674349  0.33255394  1
  Cr  Cr9  1  0.33318309  0.00088936  1.00028226  1
  Fe  Fe10  1  0.50049267  0.16998806  0.16701161  1
  Fe  Fe11  1  0.33288329  0.00150839  0.33366608  1
  Fe  Fe12  1  0.33227169  0.33618435  0.00093658  1
  Fe  Fe13  1  0.50090628  0.49943828  0.16765029  1
  Fe  Fe14  1  0.33588372  0.33408873  0.33381604  1
  Fe  Fe15  1  0.33249410  0.66515137  0.99984720  1
  Cr  Cr16  1  0.50125657  0.83256009  0.16741494  1
  Fe  Fe17  1  0.33304060  0.66607480  0.33394218  1
  Fe  Fe18  1  0.67059042  0.99998686  0.00057650  1
  Fe  Fe19  1  0.83292575  0.16769293  0.16574669  1
  Cr  Cr20  1  0.66646274  0.00220490  0.33272769  1
  Fe  Fe21  1  0.66828274  0.33490862  0.00129306  1
  Fe  Fe22  1  0.83300863  0.50223669  0.16653382  1
  Fe  Fe23  1  0.66638129  0.33542025  0.33427871  1
  Fe  Fe24  1  0.66841517  0.66677822  1.00041916  1
  Fe  Fe25  1  0.83529620  0.83174452  0.16598261  1
  Ni  Ni26  1  0.66691736  0.66351658  0.33354461  1
  Fe  Fe27  1  0.16794292  0.16678241  0.50253907  1
  Fe  Fe28  1  0.00266636  0.00203343  0.66765266  1
  Ni  Ni29  1  0.16487036  0.16829242  0.83292795  1
  Fe  Fe30  1  0.16731905  0.50108648  0.50122499  1
  Fe  Fe31  1  1.00034152  0.33288807  0.66694949  1
  Fe  Fe32  1  0.16709203  0.50000590  0.83427312  1
  Fe  Fe33  1  0.16735745  0.83380732  0.50121878  1
  Fe  Fe34  1  0.00110973  0.66675413  0.66849445  1
  Fe  Fe35  1  0.16639449  0.83378060  0.83352151  1
  Fe  Fe36  1  0.50005576  0.16979506  0.50070789  1
  Fe  Fe37  1  0.33074771  0.00084413  0.66778600  1
  Cr  Cr38  1  0.49960940  0.16811915  0.83404399  1
  Fe  Fe39  1  0.50172801  0.49911640  0.50018944  1
  Fe  Fe40  1  0.33305333  0.33405438  0.66691993  1
  Fe  Fe41  1  0.49998445  0.50135268  0.83383469  1
  Cr  Cr42  1  0.49832307  0.83266712  0.50044130  1
  Fe  Fe43  1  0.33347449  0.66677477  0.66788560  1
  Fe  Fe44  1  0.49999515  0.83174817  0.83382295  1
  Ni  Ni45  1  0.83445764  0.17110397  0.50273360  1
  Cr  Cr46  1  0.66761118  0.00133931  0.66826624  1
  Fe  Fe47  1  0.83662435  0.16787866  0.83396023  1
  Fe  Fe48  1  0.83262641  0.49970424  0.50087636  1
  Fe  Fe49  1  0.66827711  0.33561542  0.66610618  1
  Fe  Fe50  1  0.83459692  0.50021552  0.83426729  1
  Cr  Cr51  1  0.83541848  0.83158466  0.49953424  1
  Fe  Fe52  1  0.66708890  0.66444974  0.66804719  1
  Fe  Fe53  1  0.83528363  0.83357950  0.83482388  1
" 