5467,Ni8Fe18Cr72_16,-209.48870320706, 194.621317863331,Ni8Fe18Cr72,"# generated using pymatgen
 data_Cr41Fe9Ni4
_symmetry_space_group_name_H-M   'P 1'
_cell_length_a   7.56620525
_cell_length_b   7.56620525
_cell_length_c   10.70023008
_cell_angle_alpha   90.00000000
_cell_angle_beta   90.00000000
_cell_angle_gamma   90.00000000
_symmetry_Int_Tables_number   1
_chemical_formula_structural   Cr41Fe9Ni4
_chemical_formula_sum   'Cr41 Fe9 Ni4'
_cell_volume   612.56101417
_cell_formula_units_Z   1
loop_
 _symmetry_equiv_pos_site_id
 _symmetry_equiv_pos_as_xyz
  1  'x, y, z'
loop_
 _atom_site_type_symbol
 _atom_site_label
 _atom_site_symmetry_multiplicity
 _atom_site_fract_x
 _atom_site_fract_y
 _atom_site_fract_z
 _atom_site_occupancy
  Fe  Fe0  1  -0.00602866  -0.00592170  -0.00306157  1
  Ni  Ni1  1  0.15614399  0.15622521  0.16104834  1
  Ni  Ni2  1  -0.00456011  -0.00597808  0.32443844  1
  Cr  Cr3  1  -0.00571443  0.32579383  -0.00220226  1
  Fe  Fe4  1  0.15979894  0.49517404  0.15970848  1
  Cr  Cr5  1  -0.00494123  0.32549275  0.32199120  1
  Cr  Cr6  1  0.99281968  0.65909599  -0.00627828  1
  Ni  Ni7  1  0.15625462  0.82927712  0.15873059  1
  Cr  Cr8  1  0.99219932  0.66070252  0.32714134  1
  Cr  Cr9  1  0.32500647  -0.00610543  0.99327231  1
  Cr  Cr10  1  0.49451254  0.15982922  0.16072113  1
  Cr  Cr11  1  0.32336685  -0.00508212  0.32873942  1
  Cr  Cr12  1  0.32402509  0.32524669  -0.00559249  1
  Cr  Cr13  1  0.49307498  0.49297973  0.16082917  1
  Cr  Cr14  1  0.32316965  0.32429897  0.32678020  1
  Fe  Fe15  1  0.32426687  0.65911562  -0.00377335  1
  Cr  Cr16  1  0.49103370  0.82732623  0.15857111  1
  Cr  Cr17  1  0.32535094  0.66161431  0.32255626  1
  Fe  Fe18  1  0.66215919  -0.00580082  -0.00487210  1
  Fe  Fe19  1  0.82908133  0.15739484  0.16025111  1
  Cr  Cr20  1  0.66241103  0.99200746  0.32694523  1
  Cr  Cr21  1  0.66318146  0.32763501  -0.00560173  1
  Fe  Fe22  1  0.82894353  0.49437362  0.16024603  1
  Cr  Cr23  1  0.66349310  0.32812833  0.32518541  1
  Cr  Cr24  1  0.66171218  0.66090756  -0.00556428  1
  Cr  Cr25  1  0.82892094  0.82928101  0.16108975  1
  Cr  Cr26  1  0.66251381  0.66057125  0.32736098  1
  Ni  Ni27  1  0.15534553  0.15857890  0.49125902  1
  Cr  Cr28  1  -0.00637686  -0.00620682  0.65877153  1
  Cr  Cr29  1  0.15805018  0.15871617  0.82665364  1
  Cr  Cr30  1  0.15964330  0.49373561  0.49418334  1
  Cr  Cr31  1  -0.00596335  0.32600182  0.66070277  1
  Cr  Cr32  1  0.15977234  0.49529553  0.82665228  1
  Cr  Cr33  1  0.15677803  0.82717356  0.49250379  1
  Fe  Fe34  1  -0.00579832  0.66185906  0.65940137  1
  Cr  Cr35  1  0.15849196  0.82631421  0.82875747  1
  Cr  Cr36  1  0.49394884  0.16151823  0.49352202  1
  Cr  Cr37  1  0.32612264  -0.00583994  0.65820428  1
  Cr  Cr38  1  0.49582192  0.16064028  0.82623713  1
  Cr  Cr39  1  0.49320096  0.49241872  0.49283545  1
  Cr  Cr40  1  0.32439384  0.32415827  0.65889000  1
  Cr  Cr41  1  0.49315748  0.49242687  0.82629552  1
  Cr  Cr42  1  0.49261242  0.82615322  0.49037537  1
  Cr  Cr43  1  0.32816905  0.66233996  0.66216672  1
  Cr  Cr44  1  0.49293393  0.82691126  0.83203950  1
  Cr  Cr45  1  0.82854608  0.15956344  0.49123260  1
  Cr  Cr46  1  0.65999671  0.99111149  0.66050460  1
  Cr  Cr47  1  0.82708265  0.15894048  0.83051289  1
  Cr  Cr48  1  0.82809008  0.49327000  0.49535696  1
  Fe  Fe49  1  0.66081568  0.32521148  0.65977390  1
  Cr  Cr50  1  0.82767088  0.49261729  0.82344903  1
  Fe  Fe51  1  0.82924214  0.82909374  0.49220923  1
  Cr  Cr52  1  0.66264971  0.66211080  0.65812539  1
  Cr  Cr53  1  0.82956239  0.82845922  0.82687976  1
" 