4029,Ni8Fe77Cr13_7,-224.677903644702, 158.537032834362,Ni8Fe77Cr13,"# generated using pymatgen
 data_Cr9Fe41Ni4
_symmetry_space_group_name_H-M   'P 1'
_cell_length_a   7.45453362
_cell_length_b   7.45453362
_cell_length_c   10.54230255
_cell_angle_alpha   90.00000000
_cell_angle_beta   90.00000000
_cell_angle_gamma   90.00000000
_symmetry_Int_Tables_number   1
_chemical_formula_structural   Cr9Fe41Ni4
_chemical_formula_sum   'Cr9 Fe41 Ni4'
_cell_volume   585.83650701
_cell_formula_units_Z   1
loop_
 _symmetry_equiv_pos_site_id
 _symmetry_equiv_pos_as_xyz
  1  'x, y, z'
loop_
 _atom_site_type_symbol
 _atom_site_label
 _atom_site_symmetry_multiplicity
 _atom_site_fract_x
 _atom_site_fract_y
 _atom_site_fract_z
 _atom_site_occupancy
  Fe  Fe0  1  0.99961324  0.00177688  1.00001364  1
  Fe  Fe1  1  0.16667254  0.16718252  0.16900267  1
  Fe  Fe2  1  0.00134184  0.00099615  0.33596798  1
  Fe  Fe3  1  0.99956459  0.33253002  0.00091951  1
  Cr  Cr4  1  0.16771536  0.50160786  0.16847587  1
  Fe  Fe5  1  0.99929386  0.33232572  0.33450297  1
  Fe  Fe6  1  1.00033318  0.66857021  0.99990968  1
  Fe  Fe7  1  0.16868376  0.83406072  0.16900179  1
  Fe  Fe8  1  1.00043394  0.66929256  0.33531148  1
  Cr  Cr9  1  0.33392907  1.00010502  0.00229661  1
  Fe  Fe10  1  0.50107131  0.16943200  0.16744816  1
  Fe  Fe11  1  0.33307136  1.00008635  0.33433282  1
  Fe  Fe12  1  0.33461461  0.33398547  0.00259662  1
  Ni  Ni13  1  0.50048245  0.49982467  0.16762517  1
  Fe  Fe14  1  0.33668233  0.33400429  0.33495862  1
  Fe  Fe15  1  0.33540922  0.66764000  0.00187406  1
  Fe  Fe16  1  0.50009205  0.83059930  0.16850055  1
  Fe  Fe17  1  0.33660105  0.66814217  0.33495688  1
  Fe  Fe18  1  0.66942759  0.00092264  0.00118357  1
  Fe  Fe19  1  0.83449895  0.17061411  0.16804113  1
  Cr  Cr20  1  0.66636937  0.00087805  0.33513851  1
  Fe  Fe21  1  0.66853149  0.33447385  0.00266338  1
  Fe  Fe22  1  0.83213390  0.50014510  0.16832752  1
  Fe  Fe23  1  0.66683698  0.33472786  0.33359806  1
  Fe  Fe24  1  0.66680882  0.66718006  0.00233504  1
  Cr  Cr25  1  0.83554387  0.83560291  0.16906100  1
  Ni  Ni26  1  0.66699674  0.66662954  0.33384375  1
  Fe  Fe27  1  0.16486437  0.16795493  0.49963507  1
  Fe  Fe28  1  0.99913508  1.00078623  0.66730552  1
  Fe  Fe29  1  0.16543140  0.16730577  0.83425730  1
  Fe  Fe30  1  0.16742907  0.50083481  0.50070990  1
  Fe  Fe31  1  1.00048018  0.33204103  0.66667037  1
  Cr  Cr32  1  0.16807019  0.50045743  0.83351634  1
  Fe  Fe33  1  0.16495443  0.83368462  0.49977228  1
  Fe  Fe34  1  0.00087470  0.66979315  0.66723851  1
  Fe  Fe35  1  0.16655623  0.83445951  0.83421695  1
  Fe  Fe36  1  0.50261943  0.16901471  0.50152053  1
  Cr  Cr37  1  0.33356525  1.00031603  0.66604074  1
  Cr  Cr38  1  0.50196905  0.16773440  0.83384331  1
  Fe  Fe39  1  0.50113848  0.50115707  0.49997517  1
  Fe  Fe40  1  0.33336083  0.33471549  0.66427905  1
  Cr  Cr41  1  0.49999261  0.50042720  0.83345544  1
  Fe  Fe42  1  0.50320799  0.83212317  0.50061619  1
  Fe  Fe43  1  0.33400823  0.66762037  0.66510479  1
  Fe  Fe44  1  0.50217552  0.83303698  0.83414868  1
  Ni  Ni45  1  0.83434499  0.16632251  0.50128626  1
  Fe  Fe46  1  0.66993937  1.00007019  0.66617643  1
  Fe  Fe47  1  0.83585722  0.16819412  0.83324162  1
  Cr  Cr48  1  0.83419049  0.50189379  0.49947020  1
  Fe  Fe49  1  0.66885197  0.33306256  0.66590143  1
  Fe  Fe50  1  0.83349329  0.50048768  0.83374259  1
  Ni  Ni51  1  0.83494173  0.83501804  0.50147431  1
  Fe  Fe52  1  0.66755814  0.66965770  0.66618117  1
  Fe  Fe53  1  0.83356140  0.83381960  0.83365791  1
" 