3130,Ni8Fe78Cr13_1,-225.060839324737, 153.778286401793,Ni8Fe78Cr13,"# generated using pymatgen
 data_Cr4Fe21Ni2
_symmetry_space_group_name_H-M   'P 1'
_cell_length_a   7.45506106
_cell_length_b   7.45506106
_cell_length_c   10.54304846
_cell_angle_alpha   90.00000000
_cell_angle_beta   90.00000000
_cell_angle_gamma   90.00000000
_symmetry_Int_Tables_number   1
_chemical_formula_structural   Cr4Fe21Ni2
_chemical_formula_sum   'Cr8 Fe42 Ni4'
_cell_volume   585.96086586
_cell_formula_units_Z   2
loop_
 _symmetry_equiv_pos_site_id
 _symmetry_equiv_pos_as_xyz
  1  'x, y, z'
loop_
 _atom_site_type_symbol
 _atom_site_label
 _atom_site_symmetry_multiplicity
 _atom_site_fract_x
 _atom_site_fract_y
 _atom_site_fract_z
 _atom_site_occupancy
  Fe  Fe0  1  1.00028994  0.99901962  1.00016860  1
  Cr  Cr1  1  0.16845916  0.16570533  0.16782765  1
  Fe  Fe2  1  0.00201563  0.99934694  0.33360294  1
  Cr  Cr3  1  0.99945017  0.33647112  0.99976886  1
  Fe  Fe4  1  0.16840763  0.50379621  0.16796793  1
  Cr  Cr5  1  0.00118423  0.33674773  0.33484700  1
  Fe  Fe6  1  0.00133647  0.66933701  1.00033044  1
  Fe  Fe7  1  0.16769814  0.83311838  0.16720351  1
  Fe  Fe8  1  0.00199993  0.66759475  0.33364938  1
  Ni  Ni9  1  0.33660400  0.99822059  1.00064900  1
  Fe  Fe10  1  0.50250298  0.16652898  0.16782573  1
  Fe  Fe11  1  0.33456158  0.00098455  0.33454236  1
  Cr  Cr12  1  0.33495270  0.33375889  0.99996192  1
  Fe  Fe13  1  0.50100063  0.50090492  0.16860925  1
  Ni  Ni14  1  0.33575372  0.33434883  0.33589215  1
  Fe  Fe15  1  0.33411777  0.66951412  1.00041457  1
  Fe  Fe16  1  0.50066536  0.83497167  0.16677875  1
  Fe  Fe17  1  0.33390095  0.66660641  0.33421080  1
  Ni  Ni18  1  0.66634394  0.99961001  1.00055840  1
  Fe  Fe19  1  0.83116461  0.16582834  0.16733739  1
  Fe  Fe20  1  0.66583864  0.00155126  0.33233197  1
  Fe  Fe21  1  0.66700927  0.33287560  0.00084439  1
  Fe  Fe22  1  0.83300188  0.50196919  0.16754179  1
  Fe  Fe23  1  0.66487213  0.33482947  0.33348497  1
  Fe  Fe24  1  0.66695964  0.66830478  0.00083757  1
  Fe  Fe25  1  0.83405080  0.83462404  0.16741453  1
  Fe  Fe26  1  0.66651150  0.66602764  0.33356518  1
  Fe  Fe27  1  0.16890899  0.16753350  0.50026565  1
  Fe  Fe28  1  1.00077314  0.00214804  0.66864362  1
  Fe  Fe29  1  0.16709661  0.16716144  0.83389309  1
  Fe  Fe30  1  0.16874800  0.50047409  0.50102761  1
  Fe  Fe31  1  0.00192957  0.33359674  0.66850883  1
  Ni  Ni32  1  0.16893174  0.50129184  0.83373241  1
  Fe  Fe33  1  0.16852818  0.83440395  0.49945045  1
  Cr  Cr34  1  1.00045850  0.66556530  0.66736691  1
  Fe  Fe35  1  0.16777235  0.83379456  0.83575123  1
  Fe  Fe36  1  0.49999648  0.16826910  0.49979080  1
  Cr  Cr37  1  0.33509978  0.00103058  0.66693705  1
  Fe  Fe38  1  0.50160008  0.16737151  0.83479341  1
  Fe  Fe39  1  0.50091112  0.50048753  0.50045621  1
  Fe  Fe40  1  0.33358778  0.33599216  0.66737685  1
  Fe  Fe41  1  0.50081878  0.50146392  0.83334859  1
  Fe  Fe42  1  0.50038132  0.83365412  0.50021698  1
  Fe  Fe43  1  0.33513682  0.66584872  0.66778662  1
  Fe  Fe44  1  0.50093285  0.83356869  0.83541215  1
  Cr  Cr45  1  0.83419030  0.16704639  0.50157889  1
  Fe  Fe46  1  0.66770726  1.00060554  0.66928320  1
  Fe  Fe47  1  0.83371841  0.16704657  0.83353542  1
  Fe  Fe48  1  0.83275298  0.50086309  0.50081089  1
  Fe  Fe49  1  0.66689735  0.33480141  0.66808563  1
  Fe  Fe50  1  0.83349439  0.50078901  0.83405712  1
  Cr  Cr51  1  0.83336547  0.83442736  0.50027623  1
  Fe  Fe52  1  0.66531116  0.66700598  0.66800824  1
  Fe  Fe53  1  0.83370887  0.83457418  0.83485061  1
" 