896,Ni8Fe20Cr71_7,-209.951568094387, 191.433497275555,Ni8Fe20Cr71,"# generated using pymatgen
 data_Cr20Fe5Ni2
_symmetry_space_group_name_H-M   'P 1'
_cell_length_a   7.56528176
_cell_length_b   7.56528176
_cell_length_c   10.69892407
_cell_angle_alpha   90.00000000
_cell_angle_beta   90.00000000
_cell_angle_gamma   90.00000000
_symmetry_Int_Tables_number   1
_chemical_formula_structural   Cr20Fe5Ni2
_chemical_formula_sum   'Cr40 Fe10 Ni4'
_cell_volume   612.33674409
_cell_formula_units_Z   2
loop_
 _symmetry_equiv_pos_site_id
 _symmetry_equiv_pos_as_xyz
  1  'x, y, z'
loop_
 _atom_site_type_symbol
 _atom_site_label
 _atom_site_symmetry_multiplicity
 _atom_site_fract_x
 _atom_site_fract_y
 _atom_site_fract_z
 _atom_site_occupancy
  Cr  Cr0  1  0.99102392  -0.00412870  -0.00502582  1
  Cr  Cr1  1  0.16129680  0.15941910  0.16172479  1
  Cr  Cr2  1  -0.00645040  0.99328063  0.33125010  1
  Cr  Cr3  1  0.99300477  0.32854010  0.99222673  1
  Cr  Cr4  1  0.16187591  0.49460520  0.16109968  1
  Cr  Cr5  1  -0.00433052  0.32717718  0.32505204  1
  Cr  Cr6  1  0.99195829  0.65605080  0.99234092  1
  Cr  Cr7  1  0.15980512  0.82706795  0.15690351  1
  Cr  Cr8  1  0.99209749  0.66018600  0.32636677  1
  Fe  Fe9  1  0.32665080  -0.00508501  -0.00630604  1
  Cr  Cr10  1  0.49303921  0.16189676  0.15967838  1
  Cr  Cr11  1  0.32773084  -0.00554848  0.32864165  1
  Cr  Cr12  1  0.32614126  0.32794839  0.99288821  1
  Cr  Cr13  1  0.49447189  0.49273964  0.16646201  1
  Ni  Ni14  1  0.32862217  0.32845293  0.32818338  1
  Cr  Cr15  1  0.32787857  0.65746630  0.99180538  1
  Cr  Cr16  1  0.49191437  0.82562937  0.15846860  1
  Fe  Fe17  1  0.32572982  0.66191413  0.32860373  1
  Cr  Cr18  1  0.65903594  -0.00600072  0.99262293  1
  Cr  Cr19  1  0.82585912  0.16104776  0.16074441  1
  Cr  Cr20  1  0.65943499  0.99046242  0.32842875  1
  Cr  Cr21  1  0.66140720  0.32812289  0.99323727  1
  Fe  Fe22  1  0.82595071  0.49315144  0.16128983  1
  Fe  Fe23  1  0.66068291  0.32554599  0.32725217  1
  Cr  Cr24  1  0.66092650  0.65862363  -0.00552764  1
  Cr  Cr25  1  0.82766980  0.82568594  0.16133362  1
  Fe  Fe26  1  0.65877649  0.65990219  0.32748190  1
  Fe  Fe27  1  0.16156410  0.16236148  0.49221657  1
  Cr  Cr28  1  -0.00570555  0.99323232  0.65420448  1
  Cr  Cr29  1  0.15957033  0.15753428  0.82686190  1
  Cr  Cr30  1  0.16080555  0.49471546  0.49358859  1
  Cr  Cr31  1  0.99337191  0.32789872  0.66360083  1
  Fe  Fe32  1  0.15948078  0.49362655  0.82647127  1
  Ni  Ni33  1  0.16059556  0.82649665  0.49202655  1
  Cr  Cr34  1  -0.00600880  0.65912327  0.66146501  1
  Cr  Cr35  1  0.15942760  0.82741184  0.82970890  1
  Cr  Cr36  1  0.49482897  0.16423682  0.49408371  1
  Cr  Cr37  1  0.32740240  0.99262812  0.65683579  1
  Cr  Cr38  1  0.49443170  0.16094501  0.82678409  1
  Cr  Cr39  1  0.49432963  0.49294857  0.49154558  1
  Cr  Cr40  1  0.32596091  0.32720564  0.66020116  1
  Cr  Cr41  1  0.49580065  0.49237657  0.82314492  1
  Fe  Fe42  1  0.49244503  0.82499948  0.49223298  1
  Cr  Cr43  1  0.32630530  0.66108459  0.65942769  1
  Cr  Cr44  1  0.49214987  0.82749983  0.82850584  1
  Cr  Cr45  1  0.82613099  0.16212949  0.49594801  1
  Cr  Cr46  1  0.65944780  0.99317950  0.65948988  1
  Fe  Fe47  1  0.82609423  0.16129928  0.82515357  1
  Cr  Cr48  1  0.82476641  0.49260244  0.49246033  1
  Ni  Ni49  1  0.66200925  0.32727505  0.66176688  1
  Ni  Ni50  1  0.82626132  0.49050730  0.82626454  1
  Fe  Fe51  1  0.82705981  0.82431069  0.49321074  1
  Cr  Cr52  1  0.66021405  0.66083210  0.65921404  1
  Cr  Cr53  1  0.82846488  0.82679379  0.82576758  1
" 