8200,Ni8Fe78Cr12_0,-224.964959080593, 151.501460611822,Ni8Fe78Cr12,"# generated using pymatgen
 data_Cr4Fe21Ni2
_symmetry_space_group_name_H-M   'P 1'
_cell_length_a   7.45055057
_cell_length_b   7.45055057
_cell_length_c   10.53666966
_cell_angle_alpha   90.00000000
_cell_angle_beta   90.00000000
_cell_angle_gamma   90.00000000
_symmetry_Int_Tables_number   1
_chemical_formula_structural   Cr4Fe21Ni2
_chemical_formula_sum   'Cr8 Fe42 Ni4'
_cell_volume   584.89794846
_cell_formula_units_Z   2
loop_
 _symmetry_equiv_pos_site_id
 _symmetry_equiv_pos_as_xyz
  1  'x, y, z'
loop_
 _atom_site_type_symbol
 _atom_site_label
 _atom_site_symmetry_multiplicity
 _atom_site_fract_x
 _atom_site_fract_y
 _atom_site_fract_z
 _atom_site_occupancy
  Fe  Fe0  1  0.00175010  1.00027439  0.99978222  1
  Cr  Cr1  1  0.16822347  0.16774138  0.16634370  1
  Fe  Fe2  1  1.00012761  1.00004799  0.33576723  1
  Fe  Fe3  1  1.00095794  0.33514350  0.99892713  1
  Cr  Cr4  1  0.16804641  0.50257118  0.16937943  1
  Fe  Fe5  1  1.00095588  0.33510572  0.33654615  1
  Fe  Fe6  1  1.00093428  0.66790309  1.00049427  1
  Fe  Fe7  1  0.16696118  0.83371638  0.16709429  1
  Fe  Fe8  1  0.00255431  0.66816829  0.33502507  1
  Fe  Fe9  1  0.33439454  1.00030409  0.00136786  1
  Fe  Fe10  1  0.50099667  0.16785735  0.16683233  1
  Cr  Cr11  1  0.33505422  0.00174085  0.33358016  1
  Ni  Ni12  1  0.33432869  0.33386215  0.99933985  1
  Cr  Cr13  1  0.50021778  0.49997508  0.16672841  1
  Ni  Ni14  1  0.33479879  0.33428015  0.33727407  1
  Fe  Fe15  1  0.33446284  0.66861864  0.99969254  1
  Fe  Fe16  1  0.50102266  0.83611859  0.16629800  1
  Fe  Fe17  1  0.33335748  0.66687777  0.33620480  1
  Fe  Fe18  1  0.66717651  1.00028071  1.00062004  1
  Cr  Cr19  1  0.83288689  0.16708180  0.16808093  1
  Fe  Fe20  1  0.66795700  0.00239414  0.33561576  1
  Fe  Fe21  1  0.66789396  0.33521331  1.00026151  1
  Fe  Fe22  1  0.83539463  0.50171507  0.16701985  1
  Fe  Fe23  1  0.66666328  0.33322215  0.33632884  1
  Fe  Fe24  1  0.66792427  0.66782603  1.00066688  1
  Fe  Fe25  1  0.83534192  0.83355512  0.16709675  1
  Cr  Cr26  1  0.66954700  0.66781347  0.33533195  1
  Fe  Fe27  1  0.16794140  0.16943933  0.50122823  1
  Fe  Fe28  1  1.00027664  0.00133990  0.66776985  1
  Fe  Fe29  1  0.16668079  0.16819112  0.83504143  1
  Fe  Fe30  1  0.16877731  0.50076704  0.50051971  1
  Fe  Fe31  1  0.00183293  0.33381075  0.66785036  1
  Fe  Fe32  1  0.16826265  0.50053851  0.83504091  1
  Fe  Fe33  1  0.16757092  0.83311511  0.50173706  1
  Fe  Fe34  1  1.00033009  0.66816990  0.66780609  1
  Fe  Fe35  1  0.16792733  0.83459131  0.83448720  1
  Fe  Fe36  1  0.50114214  0.16843732  0.50123712  1
  Fe  Fe37  1  0.33454861  1.00050782  0.66692986  1
  Cr  Cr38  1  0.50075629  0.16739741  0.83602971  1
  Ni  Ni39  1  0.49876499  0.50104573  0.50172931  1
  Fe  Fe40  1  0.33323175  0.33488208  0.66673557  1
  Fe  Fe41  1  0.50001978  0.50287200  0.83518533  1
  Fe  Fe42  1  0.50150918  0.83411745  0.50290076  1
  Fe  Fe43  1  0.33556426  0.66793014  0.66742811  1
  Fe  Fe44  1  0.50151061  0.83341087  0.83411729  1
  Fe  Fe45  1  0.83423694  0.16722744  0.50054314  1
  Ni  Ni46  1  0.66873318  0.99823015  0.66628750  1
  Fe  Fe47  1  0.83621575  0.16670029  0.83497854  1
  Fe  Fe48  1  0.83524169  0.50113597  0.50104195  1
  Cr  Cr49  1  0.66818621  0.33545909  0.66671169  1
  Fe  Fe50  1  0.83503913  0.50162807  0.83525889  1
  Fe  Fe51  1  0.83424313  0.83495569  0.50210230  1
  Fe  Fe52  1  0.66742517  0.66948293  0.66726516  1
  Fe  Fe53  1  0.83388433  0.83499172  0.83412045  1
" 