73,Ni8Fe78Cr13_18,-224.777019801547, 154.717561803533,Ni8Fe78Cr13,"# generated using pymatgen
 data_Cr4Fe21Ni2
_symmetry_space_group_name_H-M   'P 1'
_cell_length_a   7.44751819
_cell_length_b   7.44751819
_cell_length_c   10.53238123
_cell_angle_alpha   90.00000000
_cell_angle_beta   90.00000000
_cell_angle_gamma   90.00000000
_symmetry_Int_Tables_number   1
_chemical_formula_structural   Cr4Fe21Ni2
_chemical_formula_sum   'Cr8 Fe42 Ni4'
_cell_volume   584.18407698
_cell_formula_units_Z   2
loop_
 _symmetry_equiv_pos_site_id
 _symmetry_equiv_pos_as_xyz
  1  'x, y, z'
loop_
 _atom_site_type_symbol
 _atom_site_label
 _atom_site_symmetry_multiplicity
 _atom_site_fract_x
 _atom_site_fract_y
 _atom_site_fract_z
 _atom_site_occupancy
  Fe  Fe0  1  0.99931977  1.00096161  0.00300279  1
  Fe  Fe1  1  0.16616189  0.16841591  0.16588886  1
  Cr  Cr2  1  0.99978101  0.00274166  0.33342062  1
  Fe  Fe3  1  1.00003350  0.33572521  0.00350309  1
  Fe  Fe4  1  0.16661874  0.50249158  0.16719611  1
  Ni  Ni5  1  1.00029041  0.33489196  0.33297278  1
  Fe  Fe6  1  0.99988731  0.66708330  0.00215825  1
  Fe  Fe7  1  0.16887578  0.83425146  0.16687182  1
  Fe  Fe8  1  1.00089090  0.66553738  0.33437198  1
  Fe  Fe9  1  0.33500997  1.00000263  0.00189050  1
  Cr  Cr10  1  0.50138721  0.16751908  0.16666084  1
  Fe  Fe11  1  0.33383033  1.00113119  0.33535782  1
  Fe  Fe12  1  0.33392833  0.33600560  0.00300157  1
  Fe  Fe13  1  0.50295127  0.50366505  0.16626862  1
  Cr  Cr14  1  0.33276479  0.33718722  0.33465173  1
  Fe  Fe15  1  0.33437102  0.66761280  0.00210966  1
  Fe  Fe16  1  0.50177014  0.83284467  0.16851439  1
  Fe  Fe17  1  0.33307492  0.66956124  0.33471023  1
  Fe  Fe18  1  0.66967225  1.00075962  1.00015155  1
  Fe  Fe19  1  0.83468840  0.16946292  0.16648894  1
  Fe  Fe20  1  0.66774573  0.00154232  0.33591884  1
  Ni  Ni21  1  0.66919637  0.33479648  1.00091406  1
  Fe  Fe22  1  0.83372017  0.50049969  0.16876682  1
  Fe  Fe23  1  0.67118758  0.33519203  0.33408105  1
  Fe  Fe24  1  0.67005143  0.66806182  0.00147102  1
  Fe  Fe25  1  0.83273126  0.83382055  0.16846919  1
  Fe  Fe26  1  0.66981725  0.66679379  0.33541961  1
  Fe  Fe27  1  0.16500467  0.16878474  0.50256282  1
  Fe  Fe28  1  0.00246088  0.99890049  0.66673931  1
  Cr  Cr29  1  0.16869673  0.16762769  0.83475583  1
  Fe  Fe30  1  0.16348082  0.50175734  0.50064363  1
  Fe  Fe31  1  1.00003453  0.33587500  0.66626590  1
  Fe  Fe32  1  0.16570754  0.50179711  0.83556297  1
  Fe  Fe33  1  0.16608166  0.83376616  0.50054644  1
  Fe  Fe34  1  0.99985824  0.66836381  0.66742804  1
  Fe  Fe35  1  0.16710465  0.83303102  0.83618532  1
  Fe  Fe36  1  0.50363867  0.16814565  0.50029101  1
  Fe  Fe37  1  0.33502759  1.00122966  0.66637787  1
  Fe  Fe38  1  0.50245830  0.16717284  0.83712408  1
  Fe  Fe39  1  0.50433077  0.50152462  0.50034921  1
  Fe  Fe40  1  0.33607687  0.33266311  0.66542190  1
  Cr  Cr41  1  0.50218176  0.49881718  0.83662358  1
  Fe  Fe42  1  0.50302527  0.83426836  0.49883534  1
  Cr  Cr43  1  0.33262271  0.66715434  0.66679150  1
  Fe  Fe44  1  0.49919856  0.83655067  0.83741961  1
  Fe  Fe45  1  0.83505443  0.17000202  0.50082347  1
  Cr  Cr46  1  0.66988244  0.00233045  0.66959059  1
  Fe  Fe47  1  0.83468343  0.17018185  0.83626271  1
  Ni  Ni48  1  0.83474037  0.50170577  0.50061612  1
  Fe  Fe49  1  0.66920070  0.33490870  0.66786623  1
  Fe  Fe50  1  0.83806236  0.49935111  0.83519600  1
  Ni  Ni51  1  0.83545068  0.83289001  0.50038013  1
  Cr  Cr52  1  0.66907126  0.66877718  0.66974194  1
  Fe  Fe53  1  0.83790770  0.83466569  0.83616710  1
" 