537,Ni8Fe78Cr13_11,-224.863305496049, 152.599803045799,Ni8Fe78Cr13,"# generated using pymatgen
 data_Cr4Fe21Ni2
_symmetry_space_group_name_H-M   'P 1'
_cell_length_a   7.45364508
_cell_length_b   7.45364508
_cell_length_c   10.54104596
_cell_angle_alpha   90.00000000
_cell_angle_beta   90.00000000
_cell_angle_gamma   90.00000000
_symmetry_Int_Tables_number   1
_chemical_formula_structural   Cr4Fe21Ni2
_chemical_formula_sum   'Cr8 Fe42 Ni4'
_cell_volume   585.62704594
_cell_formula_units_Z   2
loop_
 _symmetry_equiv_pos_site_id
 _symmetry_equiv_pos_as_xyz
  1  'x, y, z'
loop_
 _atom_site_type_symbol
 _atom_site_label
 _atom_site_symmetry_multiplicity
 _atom_site_fract_x
 _atom_site_fract_y
 _atom_site_fract_z
 _atom_site_occupancy
  Fe  Fe0  1  0.00214182  0.99959240  0.00165535  1
  Fe  Fe1  1  0.16781585  0.16793616  0.16748041  1
  Fe  Fe2  1  1.00071206  0.00381393  0.33419350  1
  Fe  Fe3  1  0.00146402  0.33611891  0.00177687  1
  Fe  Fe4  1  0.16907616  0.50071762  0.16677544  1
  Fe  Fe5  1  0.00163298  0.33210728  0.33410787  1
  Fe  Fe6  1  0.00225382  0.66698825  1.00037361  1
  Fe  Fe7  1  0.17051495  0.83404400  0.16673941  1
  Cr  Cr8  1  1.00082416  0.66629318  0.33354885  1
  Fe  Fe9  1  0.33486143  0.99954816  0.00152661  1
  Fe  Fe10  1  0.50047226  0.16736174  0.16691453  1
  Fe  Fe11  1  0.33487031  0.00162798  0.33367506  1
  Fe  Fe12  1  0.33526574  0.33589990  0.00202398  1
  Ni  Ni13  1  0.49918370  0.50167906  0.16679807  1
  Fe  Fe14  1  0.33298237  0.33332248  0.33247882  1
  Ni  Ni15  1  0.33353661  0.66844795  0.00165844  1
  Fe  Fe16  1  0.49919372  0.83319216  0.16731387  1
  Fe  Fe17  1  0.33684677  0.66775015  0.33126063  1
  Fe  Fe18  1  0.66569344  1.00033794  1.00089593  1
  Fe  Fe19  1  0.83441070  0.16880765  0.16667018  1
  Fe  Fe20  1  0.66711295  0.99993657  0.33496323  1
  Fe  Fe21  1  0.66596457  0.33577847  0.00162185  1
  Fe  Fe22  1  0.83355582  0.49944671  0.16625698  1
  Cr  Cr23  1  0.66875817  0.33376178  0.33340488  1
  Fe  Fe24  1  0.66591607  0.66658077  1.00062286  1
  Cr  Cr25  1  0.83342161  0.83590423  0.16669956  1
  Fe  Fe26  1  0.66590312  0.66866329  0.33393412  1
  Fe  Fe27  1  0.16740378  0.16804376  0.50135161  1
  Fe  Fe28  1  0.99967046  0.00140421  0.66684657  1
  Cr  Cr29  1  0.16813490  0.16782969  0.83286098  1
  Cr  Cr30  1  0.16836630  0.49799856  0.50184499  1
  Ni  Ni31  1  0.99907944  0.33540141  0.66525831  1
  Fe  Fe32  1  0.16733434  0.50215060  0.83399665  1
  Cr  Cr33  1  0.16751850  0.83627121  0.50170378  1
  Fe  Fe34  1  0.99890812  0.66635248  0.66871392  1
  Fe  Fe35  1  0.16773038  0.83270868  0.83441855  1
  Fe  Fe36  1  0.50014002  0.16572339  0.50195464  1
  Fe  Fe37  1  0.33561316  0.00208142  0.66749208  1
  Fe  Fe38  1  0.50128699  0.16780519  0.83382710  1
  Cr  Cr39  1  0.50100158  0.50179660  0.50152093  1
  Fe  Fe40  1  0.33493449  0.33345286  0.66819086  1
  Fe  Fe41  1  0.50086962  0.50055407  0.83462429  1
  Fe  Fe42  1  0.50206299  0.83544801  0.50083858  1
  Fe  Fe43  1  0.33488389  0.66716277  0.67019251  1
  Fe  Fe44  1  0.50050871  0.83433879  0.83454635  1
  Fe  Fe45  1  0.83515402  0.16771243  0.50241883  1
  Fe  Fe46  1  0.66741248  0.00144376  0.66684028  1
  Cr  Cr47  1  0.83332403  0.16692394  0.83525594  1
  Fe  Fe48  1  0.83446082  0.50044042  0.50298550  1
  Ni  Ni49  1  0.66837952  0.33378305  0.66815964  1
  Fe  Fe50  1  0.83449076  0.50136881  0.83344498  1
  Fe  Fe51  1  0.83213252  0.83454420  0.50128088  1
  Fe  Fe52  1  0.66890564  0.66702891  0.66813951  1
  Fe  Fe53  1  0.83445655  0.83312127  0.83447000  1
" 