8856,Ni8Fe20Cr71_2,-210.17096677234, 191.317835901693,Ni8Fe20Cr71,"# generated using pymatgen
 data_Cr20Fe5Ni2
_symmetry_space_group_name_H-M   'P 1'
_cell_length_a   7.56659179
_cell_length_b   7.56659179
_cell_length_c   10.70077674
_cell_angle_alpha   90.00000000
_cell_angle_beta   90.00000000
_cell_angle_gamma   90.00000000
_symmetry_Int_Tables_number   1
_chemical_formula_structural   Cr20Fe5Ni2
_chemical_formula_sum   'Cr40 Fe10 Ni4'
_cell_volume   612.65490260
_cell_formula_units_Z   2
loop_
 _symmetry_equiv_pos_site_id
 _symmetry_equiv_pos_as_xyz
  1  'x, y, z'
loop_
 _atom_site_type_symbol
 _atom_site_label
 _atom_site_symmetry_multiplicity
 _atom_site_fract_x
 _atom_site_fract_y
 _atom_site_fract_z
 _atom_site_occupancy
  Cr  Cr0  1  0.99182125  -0.00411045  -0.00633061  1
  Cr  Cr1  1  0.16294764  0.16090295  0.16120588  1
  Cr  Cr2  1  0.99253982  0.99281758  0.32754303  1
  Cr  Cr3  1  -0.00548603  0.32815095  0.99205557  1
  Fe  Fe4  1  0.16008175  0.49301246  0.16063188  1
  Cr  Cr5  1  0.99338225  0.32781759  0.32770568  1
  Fe  Fe6  1  0.99228712  0.65945220  -0.00528952  1
  Cr  Cr7  1  0.15763281  0.82492612  0.15892663  1
  Ni  Ni8  1  -0.00460086  0.65687401  0.32641104  1
  Cr  Cr9  1  0.32811192  0.99180674  0.99253434  1
  Cr  Cr10  1  0.49378866  0.16300604  0.16091738  1
  Cr  Cr11  1  0.32752090  0.99118844  0.32840772  1
  Fe  Fe12  1  0.32778412  0.32689121  -0.00574428  1
  Fe  Fe13  1  0.49235301  0.49273874  0.16156042  1
  Fe  Fe14  1  0.32763284  0.32907521  0.32650123  1
  Cr  Cr15  1  0.32649102  0.65717535  -0.00513423  1
  Cr  Cr16  1  0.49360880  0.82818870  0.15954399  1
  Cr  Cr17  1  0.32658348  0.65848478  0.32676370  1
  Ni  Ni18  1  0.66033607  -0.00598107  -0.00517287  1
  Fe  Fe19  1  0.82613989  0.16024672  0.16058449  1
  Cr  Cr20  1  0.66042290  -0.00636967  0.32697885  1
  Cr  Cr21  1  0.66106018  0.32710819  -0.00533658  1
  Cr  Cr22  1  0.82679600  0.49438854  0.16108310  1
  Ni  Ni23  1  0.65928017  0.32825988  0.32428334  1
  Cr  Cr24  1  0.65738155  0.66028538  -0.00613314  1
  Cr  Cr25  1  0.82821310  0.82471434  0.15970060  1
  Cr  Cr26  1  0.65918173  0.65987367  0.32774524  1
  Cr  Cr27  1  0.16210808  0.16046262  0.49328864  1
  Cr  Cr28  1  0.99274782  -0.00551953  0.65927060  1
  Cr  Cr29  1  0.16220397  0.15950160  0.82596490  1
  Fe  Fe30  1  0.16026936  0.49360241  0.49254057  1
  Cr  Cr31  1  -0.00614390  0.32669871  0.66049790  1
  Cr  Cr32  1  0.16026620  0.49491840  0.82702192  1
  Cr  Cr33  1  0.15883837  0.82455142  0.49288984  1
  Cr  Cr34  1  -0.00649486  0.65936204  0.65932611  1
  Cr  Cr35  1  0.15916214  0.82576034  0.82847386  1
  Cr  Cr36  1  0.49321152  0.16176910  0.49153593  1
  Cr  Cr37  1  0.32733058  0.99082395  0.65913325  1
  Cr  Cr38  1  0.49316034  0.16011559  0.82815934  1
  Cr  Cr39  1  0.49459281  0.49261612  0.49355391  1
  Cr  Cr40  1  0.32519951  0.32874843  0.66075837  1
  Cr  Cr41  1  0.49426450  0.49343677  0.82558171  1
  Fe  Fe42  1  0.49450130  0.82516208  0.49426821  1
  Fe  Fe43  1  0.32818068  0.65986080  0.65869572  1
  Cr  Cr44  1  0.49401040  0.82598255  0.82498145  1
  Cr  Cr45  1  0.82511770  0.16256003  0.49133166  1
  Cr  Cr46  1  0.66022121  0.99118457  0.65866131  1
  Cr  Cr47  1  0.82521884  0.15965108  0.82783444  1
  Cr  Cr48  1  0.82597054  0.49600212  0.49406779  1
  Cr  Cr49  1  0.66122404  0.32814369  0.66136623  1
  Cr  Cr50  1  0.82566721  0.49636429  0.82489951  1
  Fe  Fe51  1  0.82624643  0.82519858  0.49270713  1
  Ni  Ni52  1  0.65799798  0.66211061  0.65778635  1
  Cr  Cr53  1  0.82642992  0.82480180  0.82825524  1
" 