596,Ni8Fe78Cr13_12,-225.112224939061, 154.339064072724,Ni8Fe78Cr13,"# generated using pymatgen
 data_Cr4Fe21Ni2
_symmetry_space_group_name_H-M   'P 1'
_cell_length_a   7.45580648
_cell_length_b   7.45580648
_cell_length_c   10.54410265
_cell_angle_alpha   90.00000000
_cell_angle_beta   90.00000000
_cell_angle_gamma   90.00000000
_symmetry_Int_Tables_number   1
_chemical_formula_structural   Cr4Fe21Ni2
_chemical_formula_sum   'Cr8 Fe42 Ni4'
_cell_volume   586.13665291
_cell_formula_units_Z   2
loop_
 _symmetry_equiv_pos_site_id
 _symmetry_equiv_pos_as_xyz
  1  'x, y, z'
loop_
 _atom_site_type_symbol
 _atom_site_label
 _atom_site_symmetry_multiplicity
 _atom_site_fract_x
 _atom_site_fract_y
 _atom_site_fract_z
 _atom_site_occupancy
  Cr  Cr0  1  0.99976534  0.99976749  0.99923488  1
  Cr  Cr1  1  0.16672655  0.16742870  0.16870198  1
  Fe  Fe2  1  0.99803174  0.99891622  0.33212318  1
  Ni  Ni3  1  0.99963202  0.33602500  0.00099212  1
  Fe  Fe4  1  0.16689599  0.50218624  0.16663685  1
  Fe  Fe5  1  0.99903432  0.33741457  0.33337473  1
  Fe  Fe6  1  1.00019101  0.66522458  1.00028417  1
  Fe  Fe7  1  0.16693917  0.83099916  0.16872594  1
  Fe  Fe8  1  0.99877363  0.66572983  0.33454381  1
  Fe  Fe9  1  0.33418374  0.00198166  0.99805340  1
  Fe  Fe10  1  0.50213072  0.16737714  0.16708148  1
  Fe  Fe11  1  0.33649066  0.00119533  0.33460108  1
  Fe  Fe12  1  0.33256008  0.33355757  0.99861465  1
  Cr  Cr13  1  0.50268812  0.50036846  0.16363070  1
  Fe  Fe14  1  0.33579732  0.33607595  0.33563801  1
  Fe  Fe15  1  0.33062485  0.66694742  0.99805673  1
  Cr  Cr16  1  0.50059100  0.83331346  0.16510406  1
  Fe  Fe17  1  0.33466030  0.66515249  0.33532459  1
  Fe  Fe18  1  0.66758828  0.00257829  0.99852176  1
  Fe  Fe19  1  0.83070054  0.16896459  0.16774777  1
  Fe  Fe20  1  0.66750818  1.00070653  0.33492834  1
  Fe  Fe21  1  0.67019665  0.33309251  0.99909194  1
  Fe  Fe22  1  0.83606838  0.50063949  0.16767617  1
  Fe  Fe23  1  0.66709270  0.33602066  0.33551032  1
  Fe  Fe24  1  0.67190206  0.66677549  0.99833519  1
  Fe  Fe25  1  0.83414322  0.83282035  0.16782140  1
  Fe  Fe26  1  0.66860886  0.66586938  0.33575475  1
  Cr  Cr27  1  0.16601993  0.16820802  0.50235898  1
  Fe  Fe28  1  0.99866631  0.99906954  0.67160016  1
  Fe  Fe29  1  0.16672062  0.17050865  0.83390610  1
  Fe  Fe30  1  0.16607621  0.50067165  0.50164436  1
  Fe  Fe31  1  0.99950340  0.33610018  0.67025198  1
  Fe  Fe32  1  0.16651246  0.50040793  0.83423698  1
  Cr  Cr33  1  0.16670555  0.83472173  0.50011989  1
  Fe  Fe34  1  0.99876199  0.66721682  0.66760712  1
  Fe  Fe35  1  0.16742194  0.83145452  0.83302338  1
  Fe  Fe36  1  0.50270701  0.16986408  0.50080875  1
  Cr  Cr37  1  0.33719830  0.00113421  0.66902803  1
  Fe  Fe38  1  0.50298696  0.16841263  0.83432130  1
  Ni  Ni39  1  0.50182108  0.50278826  0.50249678  1
  Fe  Fe40  1  0.33639496  0.33624343  0.66814821  1
  Fe  Fe41  1  0.50122905  0.50102904  0.83425872  1
  Fe  Fe42  1  0.50412073  0.83317349  0.50012615  1
  Fe  Fe43  1  0.33600392  0.66608859  0.66796038  1
  Fe  Fe44  1  0.50278353  0.83300364  0.83554659  1
  Cr  Cr45  1  0.83586889  0.16678892  0.50275032  1
  Ni  Ni46  1  0.66776427  0.99987764  0.66747068  1
  Fe  Fe47  1  0.83312792  0.16892511  0.83240997  1
  Ni  Ni48  1  0.83166010  0.50092761  0.50211627  1
  Fe  Fe49  1  0.66574120  0.33453534  0.66761991  1
  Fe  Fe50  1  0.83436274  0.50037083  0.83332440  1
  Fe  Fe51  1  0.83198709  0.83144955  0.50169125  1
  Fe  Fe52  1  0.66677840  0.66758099  0.66728081  1
  Fe  Fe53  1  0.83225790  0.83302695  0.83249047  1
" 