2001,Ni8Fe78Cr12_7,-224.962316024239, 153.977002409889,Ni8Fe78Cr12,"# generated using pymatgen
 data_Cr4Fe21Ni2
_symmetry_space_group_name_H-M   'P 1'
_cell_length_a   7.44894795
_cell_length_b   7.44894795
_cell_length_c   10.53440322
_cell_angle_alpha   90.00000000
_cell_angle_beta   90.00000000
_cell_angle_gamma   90.00000000
_symmetry_Int_Tables_number   1
_chemical_formula_structural   Cr4Fe21Ni2
_chemical_formula_sum   'Cr8 Fe42 Ni4'
_cell_volume   584.52059401
_cell_formula_units_Z   2
loop_
 _symmetry_equiv_pos_site_id
 _symmetry_equiv_pos_as_xyz
  1  'x, y, z'
loop_
 _atom_site_type_symbol
 _atom_site_label
 _atom_site_symmetry_multiplicity
 _atom_site_fract_x
 _atom_site_fract_y
 _atom_site_fract_z
 _atom_site_occupancy
  Fe  Fe0  1  0.00272424  1.00108455  1.00042282  1
  Fe  Fe1  1  0.16894621  0.16906217  0.16729471  1
  Fe  Fe2  1  0.00215192  0.00204928  0.33566971  1
  Fe  Fe3  1  0.00271139  0.33535110  1.00044633  1
  Fe  Fe4  1  0.16882308  0.49988790  0.16673973  1
  Fe  Fe5  1  0.00207254  0.33319022  0.33568530  1
  Fe  Fe6  1  0.00181909  0.66720316  0.00144352  1
  Fe  Fe7  1  0.16754007  0.83472263  0.16631672  1
  Cr  Cr8  1  1.00085220  0.66715598  0.33543074  1
  Fe  Fe9  1  0.33374967  1.00115713  0.00234661  1
  Fe  Fe10  1  0.49938262  0.16989301  0.16628551  1
  Cr  Cr11  1  0.33381769  0.00385241  0.33452260  1
  Ni  Ni12  1  0.33318513  0.33423021  0.00294288  1
  Fe  Fe13  1  0.50025207  0.49982466  0.16691039  1
  Fe  Fe14  1  0.33390065  0.33485932  0.33442894  1
  Fe  Fe15  1  0.33457073  0.66717824  0.00129082  1
  Fe  Fe16  1  0.50068081  0.83394507  0.16545743  1
  Fe  Fe17  1  0.33396747  0.66753203  0.33358695  1
  Fe  Fe18  1  0.66718240  1.00022039  0.00145378  1
  Cr  Cr19  1  0.83527081  0.16798406  0.16800915  1
  Cr  Cr20  1  0.66719389  1.00100626  0.33698118  1
  Fe  Fe21  1  0.66717648  0.33620320  0.00128349  1
  Fe  Fe22  1  0.83455850  0.50123723  0.16631638  1
  Fe  Fe23  1  0.66765156  0.33425502  0.33484625  1
  Fe  Fe24  1  0.66725177  0.66722317  0.00123039  1
  Fe  Fe25  1  0.83540599  0.83380761  0.16542258  1
  Cr  Cr26  1  0.66887402  0.66803777  0.33318232  1
  Ni  Ni27  1  0.16681525  0.16781345  0.50151304  1
  Fe  Fe28  1  0.00198837  0.00193876  0.66755677  1
  Fe  Fe29  1  0.16696216  0.16862104  0.83401095  1
  Fe  Fe30  1  0.16805566  0.49868298  0.50237515  1
  Fe  Fe31  1  0.00198135  0.33449791  0.66752341  1
  Fe  Fe32  1  0.16893054  0.50028205  0.83458561  1
  Fe  Fe33  1  0.16871183  0.83562477  0.50275242  1
  Fe  Fe34  1  0.00344269  0.66719038  0.66767598  1
  Fe  Fe35  1  0.16800981  0.83471901  0.83459128  1
  Ni  Ni36  1  0.50126369  0.16853997  0.50210425  1
  Fe  Fe37  1  0.33402043  0.00159890  0.66601189  1
  Cr  Cr38  1  0.50151962  0.16890160  0.83408004  1
  Cr  Cr39  1  0.49925906  0.49931723  0.50081992  1
  Ni  Ni40  1  0.33176578  0.33291162  0.66734120  1
  Fe  Fe41  1  0.49958514  0.50131547  0.83515605  1
  Fe  Fe42  1  0.49894771  0.83740389  0.50282849  1
  Fe  Fe43  1  0.33217147  0.66798272  0.66874295  1
  Fe  Fe44  1  0.50049009  0.83370565  0.83541035  1
  Fe  Fe45  1  0.83511382  0.16889735  0.50174029  1
  Fe  Fe46  1  0.66764743  0.00301044  0.66647467  1
  Fe  Fe47  1  0.83615149  0.16774159  0.83491800  1
  Fe  Fe48  1  0.83689870  0.49750644  0.50195298  1
  Fe  Fe49  1  0.66844067  0.33268602  0.66749020  1
  Fe  Fe50  1  0.83510113  0.50024160  0.83536263  1
  Fe  Fe51  1  0.83602146  0.83725865  0.50285698  1
  Cr  Cr52  1  0.66944366  0.66938525  0.66837170  1
  Fe  Fe53  1  0.83515330  0.83567681  0.83541093  1
" 