6654,Ni8Fe78Cr12_13,-224.940603564856, 155.077815699216,Ni8Fe78Cr12,"# generated using pymatgen
 data_Cr4Fe21Ni2
_symmetry_space_group_name_H-M   'P 1'
_cell_length_a   7.44935391
_cell_length_b   7.44935391
_cell_length_c   10.53497733
_cell_angle_alpha   90.00000000
_cell_angle_beta   90.00000000
_cell_angle_gamma   90.00000000
_symmetry_Int_Tables_number   1
_chemical_formula_structural   Cr4Fe21Ni2
_chemical_formula_sum   'Cr8 Fe42 Ni4'
_cell_volume   584.61616607
_cell_formula_units_Z   2
loop_
 _symmetry_equiv_pos_site_id
 _symmetry_equiv_pos_as_xyz
  1  'x, y, z'
loop_
 _atom_site_type_symbol
 _atom_site_label
 _atom_site_symmetry_multiplicity
 _atom_site_fract_x
 _atom_site_fract_y
 _atom_site_fract_z
 _atom_site_occupancy
  Fe  Fe0  1  0.00218266  0.00290625  0.99643711  1
  Fe  Fe1  1  0.16715739  0.16847313  0.16581867  1
  Fe  Fe2  1  1.00075566  0.00133918  0.33833430  1
  Ni  Ni3  1  0.00171508  0.33426752  0.99953950  1
  Cr  Cr4  1  0.17084151  0.50147468  0.16966964  1
  Fe  Fe5  1  1.00058596  0.33406026  0.33568664  1
  Fe  Fe6  1  1.00064053  0.66563556  0.99732345  1
  Cr  Cr7  1  0.16634991  0.83457464  0.16574039  1
  Fe  Fe8  1  0.00173353  0.66851269  0.33745679  1
  Fe  Fe9  1  0.33429112  0.00325539  0.99928420  1
  Fe  Fe10  1  0.49929724  0.16904004  0.16544002  1
  Cr  Cr11  1  0.33356859  0.00174763  0.33465120  1
  Fe  Fe12  1  0.33431067  0.33434869  0.99842395  1
  Fe  Fe13  1  0.50324804  0.50047211  0.16612097  1
  Fe  Fe14  1  0.33581568  0.33390418  0.33517152  1
  Fe  Fe15  1  0.33512695  0.66612665  0.99755239  1
  Fe  Fe16  1  0.50029068  0.83349704  0.16385965  1
  Fe  Fe17  1  0.33441702  0.66854464  0.33672762  1
  Fe  Fe18  1  0.66698415  0.00202716  0.99796426  1
  Cr  Cr19  1  0.83391928  0.16712990  0.16668936  1
  Cr  Cr20  1  0.66550585  1.00002041  0.33718947  1
  Fe  Fe21  1  0.66787578  0.33562756  0.99886036  1
  Fe  Fe22  1  0.83598627  0.50057930  0.16568575  1
  Fe  Fe23  1  0.66727913  0.33334904  0.33482681  1
  Fe  Fe24  1  0.66887488  0.66651991  0.99812231  1
  Cr  Cr25  1  0.83610836  0.83531035  0.16498167  1
  Cr  Cr26  1  0.66887521  0.66689292  0.33288081  1
  Fe  Fe27  1  0.16754643  0.16992103  0.50383581  1
  Fe  Fe28  1  0.00119728  0.99935788  0.66866498  1
  Fe  Fe29  1  0.16670515  0.16750415  0.83380353  1
  Fe  Fe30  1  0.16605398  0.50123013  0.50254609  1
  Fe  Fe31  1  0.00129395  0.33661596  0.67004294  1
  Fe  Fe32  1  0.16720340  0.50194204  0.83430834  1
  Fe  Fe33  1  0.16820708  0.83307710  0.50337991  1
  Fe  Fe34  1  1.00101876  0.66815574  0.66947830  1
  Fe  Fe35  1  0.16813870  0.83431560  0.83414796  1
  Fe  Fe36  1  0.50077510  0.16760371  0.50507106  1
  Fe  Fe37  1  0.33466352  0.99996726  0.66830683  1
  Fe  Fe38  1  0.50212042  0.16704393  0.83352615  1
  Cr  Cr39  1  0.49938380  0.50012639  0.50326530  1
  Fe  Fe40  1  0.33368181  0.33549173  0.67055807  1
  Fe  Fe41  1  0.50192344  0.50267739  0.83232708  1
  Fe  Fe42  1  0.50039583  0.83381190  0.50549709  1
  Ni  Ni43  1  0.33420778  0.66859567  0.66874163  1
  Fe  Fe44  1  0.50201724  0.83402882  0.83329889  1
  Fe  Fe45  1  0.83480748  0.16987174  0.50353750  1
  Fe  Fe46  1  0.66801751  0.99961040  0.66861648  1
  Fe  Fe47  1  0.83476277  0.16821509  0.83449554  1
  Fe  Fe48  1  0.83542057  0.50079714  0.50351285  1
  Fe  Fe49  1  0.66824668  0.33533316  0.66981687  1
  Fe  Fe50  1  0.83456259  0.50191744  0.83405564  1
  Fe  Fe51  1  0.83495252  0.83312770  0.50512023  1
  Ni  Ni52  1  0.66804261  0.66882451  0.66956513  1
  Ni  Ni53  1  0.83504687  0.83532992  0.83417136  1
" 