4605,Ni8Fe78Cr12_5,-224.80213847482, 153.785305492611,Ni8Fe78Cr12,"# generated using pymatgen
 data_Cr4Fe21Ni2
_symmetry_space_group_name_H-M   'P 1'
_cell_length_a   7.44682239
_cell_length_b   7.44682239
_cell_length_c   10.53139722
_cell_angle_alpha   90.00000000
_cell_angle_beta   90.00000000
_cell_angle_gamma   90.00000000
_symmetry_Int_Tables_number   1
_chemical_formula_structural   Cr4Fe21Ni2
_chemical_formula_sum   'Cr8 Fe42 Ni4'
_cell_volume   584.02035666
_cell_formula_units_Z   2
loop_
 _symmetry_equiv_pos_site_id
 _symmetry_equiv_pos_as_xyz
  1  'x, y, z'
loop_
 _atom_site_type_symbol
 _atom_site_label
 _atom_site_symmetry_multiplicity
 _atom_site_fract_x
 _atom_site_fract_y
 _atom_site_fract_z
 _atom_site_occupancy
  Ni  Ni0  1  1.00008676  0.00182705  0.00187851  1
  Fe  Fe1  1  0.16589450  0.16726367  0.16692084  1
  Fe  Fe2  1  0.00363375  0.00264320  0.33307656  1
  Fe  Fe3  1  1.00091880  0.33422450  0.00207165  1
  Fe  Fe4  1  0.16544836  0.50099030  0.16802897  1
  Fe  Fe5  1  0.99890985  0.33447223  0.33402996  1
  Fe  Fe6  1  0.99957492  0.66840128  0.00164284  1
  Fe  Fe7  1  0.16422828  0.83581971  0.16853247  1
  Fe  Fe8  1  0.00189166  0.66695770  0.33363926  1
  Fe  Fe9  1  0.33325220  0.00357879  1.00033411  1
  Fe  Fe10  1  0.50259987  0.17013868  0.16649102  1
  Fe  Fe11  1  0.33160370  1.00125386  0.33498792  1
  Fe  Fe12  1  0.33412885  0.33257738  0.00143209  1
  Fe  Fe13  1  0.50418277  0.49925958  0.16865813  1
  Cr  Cr14  1  0.33590248  0.33590871  0.33509894  1
  Cr  Cr15  1  0.33381660  0.66621477  1.00069353  1
  Cr  Cr16  1  0.50068408  0.83467814  0.16880142  1
  Fe  Fe17  1  0.33369550  0.66799007  0.33512567  1
  Fe  Fe18  1  0.66952095  0.00224618  1.00107403  1
  Ni  Ni19  1  0.83688271  0.17021047  0.16723610  1
  Cr  Cr20  1  0.66987655  0.00455395  0.33390869  1
  Fe  Fe21  1  0.66902965  0.33430354  0.00212171  1
  Ni  Ni22  1  0.83524197  0.50000759  0.16852713  1
  Fe  Fe23  1  0.66987727  0.33657638  0.33436163  1
  Fe  Fe24  1  0.67115981  0.66752656  1.00087803  1
  Fe  Fe25  1  0.83731836  0.83424000  0.16712883  1
  Fe  Fe26  1  0.66848246  0.66327322  0.33396957  1
  Fe  Fe27  1  0.16716300  0.16816011  0.50140843  1
  Fe  Fe28  1  1.00078615  0.00188178  0.66933374  1
  Fe  Fe29  1  0.16702365  0.16844561  0.83574505  1
  Fe  Fe30  1  0.16724932  0.50178914  0.50143264  1
  Fe  Fe31  1  0.00179974  0.33469348  0.66797382  1
  Fe  Fe32  1  0.16658296  0.49982862  0.83460944  1
  Fe  Fe33  1  0.16710623  0.83412454  0.49974858  1
  Fe  Fe34  1  1.00083620  0.66749918  0.66879519  1
  Fe  Fe35  1  0.16540750  0.83579559  0.83578634  1
  Fe  Fe36  1  0.50225240  0.17078161  0.50218313  1
  Cr  Cr37  1  0.33440417  0.00244921  0.66778048  1
  Fe  Fe38  1  0.50201250  0.16874602  0.83539849  1
  Ni  Ni39  1  0.50218066  0.49990191  0.50123548  1
  Fe  Fe40  1  0.33505082  0.33505167  0.66746703  1
  Fe  Fe41  1  0.50279842  0.49987598  0.83402356  1
  Cr  Cr42  1  0.50042157  0.83303848  0.50069820  1
  Cr  Cr43  1  0.33389156  0.66557706  0.66749416  1
  Fe  Fe44  1  0.50367434  0.83544816  0.83544043  1
  Fe  Fe45  1  0.83466246  0.17064098  0.50160376  1
  Fe  Fe46  1  0.66934761  0.00267992  0.66934759  1
  Fe  Fe47  1  0.83503672  0.16756660  0.83551648  1
  Fe  Fe48  1  0.83377597  0.50010348  0.50080507  1
  Fe  Fe49  1  0.66722341  0.33500486  0.66759154  1
  Fe  Fe50  1  0.83469188  0.50149582  0.83519365  1
  Cr  Cr51  1  0.83613443  0.83421383  0.50216701  1
  Fe  Fe52  1  0.66898312  0.66638697  0.66923170  1
  Fe  Fe53  1  0.83499130  0.83501263  0.83467011  1
" 