1574,Ni8Fe20Cr71_12,-209.972398614327, 192.020320637218,Ni8Fe20Cr71,"# generated using pymatgen
 data_Cr20Fe5Ni2
_symmetry_space_group_name_H-M   'P 1'
_cell_length_a   7.55936150
_cell_length_b   7.55936150
_cell_length_c   10.69055156
_cell_angle_alpha   90.00000000
_cell_angle_beta   90.00000000
_cell_angle_gamma   90.00000000
_symmetry_Int_Tables_number   1
_chemical_formula_structural   Cr20Fe5Ni2
_chemical_formula_sum   'Cr40 Fe10 Ni4'
_cell_volume   610.90030440
_cell_formula_units_Z   2
loop_
 _symmetry_equiv_pos_site_id
 _symmetry_equiv_pos_as_xyz
  1  'x, y, z'
loop_
 _atom_site_type_symbol
 _atom_site_label
 _atom_site_symmetry_multiplicity
 _atom_site_fract_x
 _atom_site_fract_y
 _atom_site_fract_z
 _atom_site_occupancy
  Cr  Cr0  1  -0.00554883  -0.00503360  0.99307835  1
  Ni  Ni1  1  0.16101075  0.16150476  0.16294023  1
  Cr  Cr2  1  -0.00413043  -0.00475708  0.32818350  1
  Cr  Cr3  1  -0.00597543  0.32664973  -0.00464147  1
  Cr  Cr4  1  0.16128756  0.49459318  0.16137094  1
  Fe  Fe5  1  -0.00399991  0.32611554  0.32693906  1
  Cr  Cr6  1  0.99187492  0.66008422  0.99289132  1
  Cr  Cr7  1  0.16148372  0.82713988  0.15856186  1
  Cr  Cr8  1  0.99369988  0.66078185  0.32710523  1
  Cr  Cr9  1  0.32749239  -0.00329036  -0.00392502  1
  Fe  Fe10  1  0.49473202  0.16137107  0.16065650  1
  Cr  Cr11  1  0.32692811  -0.00493453  0.32812794  1
  Cr  Cr12  1  0.32998866  0.32622456  -0.00161196  1
  Fe  Fe13  1  0.49401653  0.49383826  0.16165807  1
  Cr  Cr14  1  0.32733287  0.32660113  0.32465423  1
  Cr  Cr15  1  0.32937603  0.65887164  0.99350395  1
  Cr  Cr16  1  0.49351525  0.82748913  0.16382464  1
  Ni  Ni17  1  0.32955344  0.66137490  0.33004137  1
  Cr  Cr18  1  0.65961540  -0.00490576  -0.00556475  1
  Cr  Cr19  1  0.82649077  0.16047015  0.16080321  1
  Fe  Fe20  1  0.65867710  0.99383574  0.32748037  1
  Ni  Ni21  1  0.65964662  0.32666806  0.99364375  1
  Cr  Cr22  1  0.82632852  0.49298299  0.16258961  1
  Cr  Cr23  1  0.65847672  0.32829284  0.32635834  1
  Cr  Cr24  1  0.66015426  0.65780429  -0.00399920  1
  Cr  Cr25  1  0.82578712  0.82834552  0.16212654  1
  Fe  Fe26  1  0.65667635  0.66079338  0.32769870  1
  Fe  Fe27  1  0.16041447  0.16005754  0.49242562  1
  Cr  Cr28  1  -0.00566521  0.99318919  0.66058927  1
  Cr  Cr29  1  0.16143797  0.16118130  0.82730955  1
  Cr  Cr30  1  0.16133838  0.49477006  0.49323163  1
  Cr  Cr31  1  0.99378003  0.32631859  0.65842366  1
  Cr  Cr32  1  0.16214161  0.49420442  0.82645456  1
  Ni  Ni33  1  0.16374121  0.82626584  0.49395060  1
  Cr  Cr34  1  0.99274330  0.66208698  0.66108670  1
  Cr  Cr35  1  0.16280990  0.82655567  0.82798101  1
  Cr  Cr36  1  0.49541929  0.15965945  0.49401038  1
  Cr  Cr37  1  0.32641168  0.99343655  0.65744731  1
  Cr  Cr38  1  0.49633781  0.16156670  0.82771648  1
  Cr  Cr39  1  0.49296009  0.49426378  0.49473524  1
  Cr  Cr40  1  0.32779959  0.32651125  0.65945795  1
  Cr  Cr41  1  0.49347373  0.49226950  0.82612133  1
  Fe  Fe42  1  0.49198731  0.82575904  0.49207189  1
  Fe  Fe43  1  0.32651467  0.66237920  0.65818153  1
  Cr  Cr44  1  0.49186005  0.82773158  0.82523846  1
  Cr  Cr45  1  0.82642702  0.16138211  0.49381294  1
  Cr  Cr46  1  0.66088487  0.99312007  0.66031359  1
  Fe  Fe47  1  0.82638883  0.16225111  0.82736338  1
  Cr  Cr48  1  0.82702891  0.49212336  0.49186513  1
  Fe  Fe49  1  0.66116884  0.32645484  0.66100421  1
  Cr  Cr50  1  0.82616906  0.49024375  0.82659034  1
  Cr  Cr51  1  0.82564720  0.82814430  0.48989793  1
  Cr  Cr52  1  0.66019701  0.66039874  0.65875240  1
  Cr  Cr53  1  0.82637164  0.82904325  0.82975128  1
" 