8512,Ni8Fe20Cr71_9,-210.106505002146, 193.551418733882,Ni8Fe20Cr71,"# generated using pymatgen
 data_Cr20Fe5Ni2
_symmetry_space_group_name_H-M   'P 1'
_cell_length_a   7.56272344
_cell_length_b   7.56272344
_cell_length_c   10.69530606
_cell_angle_alpha   90.00000000
_cell_angle_beta   90.00000000
_cell_angle_gamma   90.00000000
_symmetry_Int_Tables_number   1
_chemical_formula_structural   Cr20Fe5Ni2
_chemical_formula_sum   'Cr40 Fe10 Ni4'
_cell_volume   611.71573947
_cell_formula_units_Z   2
loop_
 _symmetry_equiv_pos_site_id
 _symmetry_equiv_pos_as_xyz
  1  'x, y, z'
loop_
 _atom_site_type_symbol
 _atom_site_label
 _atom_site_symmetry_multiplicity
 _atom_site_fract_x
 _atom_site_fract_y
 _atom_site_fract_z
 _atom_site_occupancy
  Cr  Cr0  1  -0.00627307  -0.00578330  -0.00616004  1
  Cr  Cr1  1  0.16158560  0.16205809  0.16120012  1
  Cr  Cr2  1  0.99340553  0.99256425  0.32889335  1
  Cr  Cr3  1  0.99190741  0.32609633  0.99045249  1
  Cr  Cr4  1  0.16005966  0.49245425  0.16105971  1
  Cr  Cr5  1  0.99220075  0.32545113  0.32711174  1
  Cr  Cr6  1  0.99233596  0.66070121  -0.00538803  1
  Cr  Cr7  1  0.15918074  0.82652855  0.16063158  1
  Cr  Cr8  1  0.99310715  0.66316008  0.32669233  1
  Cr  Cr9  1  0.32666706  -0.00542535  -0.00621359  1
  Fe  Fe10  1  0.49422371  0.15987591  0.16033916  1
  Cr  Cr11  1  0.32580881  -0.00571619  0.32621740  1
  Cr  Cr12  1  0.32806752  0.32548108  -0.00554768  1
  Cr  Cr13  1  0.49254790  0.49256102  0.16234405  1
  Fe  Fe14  1  0.32762971  0.32684924  0.32716288  1
  Cr  Cr15  1  0.32719975  0.66095079  0.99298227  1
  Cr  Cr16  1  0.49630458  0.82916006  0.15743355  1
  Cr  Cr17  1  0.32721552  0.66025668  0.32855577  1
  Fe  Fe18  1  0.66143685  -0.00612571  -0.00601610  1
  Cr  Cr19  1  0.82573416  0.15849251  0.15998802  1
  Cr  Cr20  1  0.66183199  -0.00514731  0.32675859  1
  Cr  Cr21  1  0.66101762  0.32662974  -0.00631736  1
  Cr  Cr22  1  0.82826250  0.49502083  0.15963455  1
  Cr  Cr23  1  0.65882054  0.32681692  0.32699858  1
  Cr  Cr24  1  0.66146420  0.65895132  0.99352571  1
  Ni  Ni25  1  0.82536044  0.82854402  0.16040590  1
  Cr  Cr26  1  0.66080138  0.65934708  0.32810290  1
  Cr  Cr27  1  0.15953241  0.16217655  0.49424148  1
  Cr  Cr28  1  0.99321917  -0.00442693  0.65865039  1
  Fe  Fe29  1  0.15922084  0.16130472  0.82612556  1
  Cr  Cr30  1  0.16113944  0.49256743  0.49325696  1
  Fe  Fe31  1  0.99227957  0.32592520  0.66104672  1
  Cr  Cr32  1  0.15822779  0.49124891  0.82652930  1
  Fe  Fe33  1  0.15936762  0.82755118  0.49380367  1
  Cr  Cr34  1  0.99339114  0.66068860  0.65979796  1
  Cr  Cr35  1  0.16082870  0.82719790  0.82720634  1
  Cr  Cr36  1  0.49459115  0.16019622  0.49294629  1
  Cr  Cr37  1  0.32572385  -0.00606084  0.66106509  1
  Cr  Cr38  1  0.49454925  0.15800136  0.82720417  1
  Fe  Fe39  1  0.49339690  0.49208622  0.49374483  1
  Fe  Fe40  1  0.32692270  0.32632205  0.66042733  1
  Cr  Cr41  1  0.49383285  0.49378853  0.82525148  1
  Cr  Cr42  1  0.49534165  0.82766744  0.49619265  1
  Cr  Cr43  1  0.32727159  0.66015162  0.65956136  1
  Cr  Cr44  1  0.49564471  0.82913243  0.82740137  1
  Ni  Ni45  1  0.82670903  0.15896272  0.49589508  1
  Ni  Ni46  1  0.66234827  -0.00384283  0.66005317  1
  Fe  Fe47  1  0.82687995  0.16089482  0.82549309  1
  Cr  Cr48  1  0.82798856  0.49283446  0.49380837  1
  Cr  Cr49  1  0.66173183  0.32669037  0.66028800  1
  Ni  Ni50  1  0.82861453  0.49127774  0.82644696  1
  Fe  Fe51  1  0.82676103  0.82951838  0.49421871  1
  Cr  Cr52  1  0.66039078  0.65894762  0.65943128  1
  Cr  Cr53  1  0.82461435  0.82786853  0.82748816  1
" 