2521,Ni8Fe78Cr12_4,-225.037800367906, 154.813082280135,Ni8Fe78Cr12,"# generated using pymatgen
 data_Cr4Fe21Ni2
_symmetry_space_group_name_H-M   'P 1'
_cell_length_a   7.45329599
_cell_length_b   7.45329599
_cell_length_c   10.54055228
_cell_angle_alpha   90.00000000
_cell_angle_beta   90.00000000
_cell_angle_gamma   90.00000000
_symmetry_Int_Tables_number   1
_chemical_formula_structural   Cr4Fe21Ni2
_chemical_formula_sum   'Cr8 Fe42 Ni4'
_cell_volume   585.54476710
_cell_formula_units_Z   2
loop_
 _symmetry_equiv_pos_site_id
 _symmetry_equiv_pos_as_xyz
  1  'x, y, z'
loop_
 _atom_site_type_symbol
 _atom_site_label
 _atom_site_symmetry_multiplicity
 _atom_site_fract_x
 _atom_site_fract_y
 _atom_site_fract_z
 _atom_site_occupancy
  Fe  Fe0  1  0.00197455  0.99879340  0.99926130  1
  Cr  Cr1  1  0.16779637  0.16546593  0.16806355  1
  Fe  Fe2  1  0.00146811  0.99933838  0.33662130  1
  Cr  Cr3  1  0.00117000  0.33606761  0.99835258  1
  Fe  Fe4  1  0.16661164  0.50419780  0.16824668  1
  Fe  Fe5  1  0.99943544  0.33573235  0.33530714  1
  Fe  Fe6  1  0.00197878  0.66820219  0.00119134  1
  Fe  Fe7  1  0.16737971  0.83300310  0.16754533  1
  Fe  Fe8  1  0.00147777  0.66770144  0.33463104  1
  Fe  Fe9  1  0.33470937  0.99884691  0.99993635  1
  Fe  Fe10  1  0.50164188  0.16538012  0.16824574  1
  Fe  Fe11  1  0.33464466  0.99846498  0.33516766  1
  Cr  Cr12  1  0.33537162  0.33432973  1.00071952  1
  Fe  Fe13  1  0.50163950  0.50265628  0.16887234  1
  Cr  Cr14  1  0.33557511  0.33454525  0.33365948  1
  Fe  Fe15  1  0.33387714  0.66895780  1.00058632  1
  Fe  Fe16  1  0.50103659  0.83473108  0.16748644  1
  Fe  Fe17  1  0.33421428  0.66899589  0.33492380  1
  Fe  Fe18  1  0.66608532  0.99995963  0.00104958  1
  Cr  Cr19  1  0.83328165  0.16673570  0.16844182  1
  Fe  Fe20  1  0.66665133  1.00050771  0.33476613  1
  Cr  Cr21  1  0.66622623  0.33432728  0.00122963  1
  Fe  Fe22  1  0.83451957  0.50359292  0.16896170  1
  Fe  Fe23  1  0.66795479  0.33530325  0.33505281  1
  Fe  Fe24  1  0.66691421  0.66784796  0.00169623  1
  Fe  Fe25  1  0.83435154  0.83301364  0.16733329  1
  Fe  Fe26  1  0.66707781  0.66695618  0.33452081  1
  Fe  Fe27  1  0.16706444  0.16648611  0.50170802  1
  Ni  Ni28  1  0.00181941  0.00253537  0.66689288  1
  Fe  Fe29  1  0.16700519  0.16498754  0.83274745  1
  Fe  Fe30  1  0.16833791  0.50153251  0.50078631  1
  Fe  Fe31  1  1.00081001  0.33209972  0.66790122  1
  Fe  Fe32  1  0.16810353  0.50245990  0.83372404  1
  Ni  Ni33  1  0.16795827  0.83588475  0.49954352  1
  Cr  Cr34  1  0.00173145  0.66847484  0.66669907  1
  Ni  Ni35  1  0.16951224  0.83561317  0.83655456  1
  Fe  Fe36  1  0.50106472  0.16704849  0.50153580  1
  Fe  Fe37  1  0.33261944  1.00004424  0.66766629  1
  Fe  Fe38  1  0.50056314  0.16537642  0.83298631  1
  Ni  Ni39  1  0.50235693  0.50148170  0.50201545  1
  Fe  Fe40  1  0.33392874  0.33424174  0.66728954  1
  Fe  Fe41  1  0.50056186  0.50315513  0.83223461  1
  Fe  Fe42  1  0.50029202  0.83348783  0.50083058  1
  Fe  Fe43  1  0.33476516  0.66848587  0.66726244  1
  Fe  Fe44  1  0.49887929  0.83423340  0.83445055  1
  Fe  Fe45  1  0.83464132  0.16725084  0.50105311  1
  Fe  Fe46  1  0.66782791  0.00155764  0.66695708  1
  Fe  Fe47  1  0.83520046  0.16667777  0.83268944  1
  Fe  Fe48  1  0.83337562  0.50075878  0.50013137  1
  Fe  Fe49  1  0.66803133  0.33423833  0.66750105  1
  Fe  Fe50  1  0.83410359  0.50077158  0.83366609  1
  Fe  Fe51  1  0.83394068  0.83476198  0.50068240  1
  Fe  Fe52  1  0.66568575  0.66697551  0.66655910  1
  Cr  Cr53  1  0.83457068  0.83554037  0.83587786  1
" 