4291,Ni8Fe77Cr13_9,-224.920639612313, 151.497174751462,Ni8Fe77Cr13,"# generated using pymatgen
 data_Cr9Fe41Ni4
_symmetry_space_group_name_H-M   'P 1'
_cell_length_a   7.45802846
_cell_length_b   7.45802846
_cell_length_c   10.54724500
_cell_angle_alpha   90.00000000
_cell_angle_beta   90.00000000
_cell_angle_gamma   90.00000000
_symmetry_Int_Tables_number   1
_chemical_formula_structural   Cr9Fe41Ni4
_chemical_formula_sum   'Cr9 Fe41 Ni4'
_cell_volume   586.66085030
_cell_formula_units_Z   1
loop_
 _symmetry_equiv_pos_site_id
 _symmetry_equiv_pos_as_xyz
  1  'x, y, z'
loop_
 _atom_site_type_symbol
 _atom_site_label
 _atom_site_symmetry_multiplicity
 _atom_site_fract_x
 _atom_site_fract_y
 _atom_site_fract_z
 _atom_site_occupancy
  Fe  Fe0  1  0.00078761  0.00069935  0.00108602  1
  Fe  Fe1  1  0.16894704  0.16759019  0.16682506  1
  Fe  Fe2  1  0.00237842  0.00127219  0.33212368  1
  Fe  Fe3  1  1.00043895  0.33454749  0.00064236  1
  Fe  Fe4  1  0.16850156  0.50108439  0.16734305  1
  Fe  Fe5  1  0.99908833  0.33339921  0.33240714  1
  Fe  Fe6  1  1.00018163  0.66641336  0.99940769  1
  Fe  Fe7  1  0.16842943  0.83312892  0.16673653  1
  Fe  Fe8  1  0.00195296  0.66743177  0.33254556  1
  Fe  Fe9  1  0.33361644  1.00046373  1.00027172  1
  Fe  Fe10  1  0.49940372  0.16853200  0.16556080  1
  Fe  Fe11  1  0.33203096  1.00060459  0.33230805  1
  Fe  Fe12  1  0.33378253  0.33462128  0.00073247  1
  Ni  Ni13  1  0.49992599  0.50009313  0.16671578  1
  Fe  Fe14  1  0.33531163  0.33364189  0.33280387  1
  Fe  Fe15  1  0.33407638  0.66672935  0.00148663  1
  Ni  Ni16  1  0.49961217  0.83410311  0.16506565  1
  Fe  Fe17  1  0.33345536  0.66756310  0.33081969  1
  Fe  Fe18  1  0.66728690  1.00022954  0.00110127  1
  Fe  Fe19  1  0.83337247  0.16849459  0.16572762  1
  Cr  Cr20  1  0.66654723  1.00054794  0.33199470  1
  Fe  Fe21  1  0.66762279  0.33531155  0.00076707  1
  Fe  Fe22  1  0.83359660  0.50003525  0.16466132  1
  Fe  Fe23  1  0.66727943  0.33418518  0.33279865  1
  Fe  Fe24  1  0.66743908  0.66614642  0.00105579  1
  Fe  Fe25  1  0.83422106  0.83319666  0.16524912  1
  Cr  Cr26  1  0.66875091  0.66618641  0.33211843  1
  Fe  Fe27  1  0.16541938  0.16602178  0.49864225  1
  Fe  Fe28  1  0.00162779  0.00108976  0.66896615  1
  Fe  Fe29  1  0.16470277  0.16804275  0.83632471  1
  Cr  Cr30  1  0.16705037  0.50103923  0.50076584  1
  Fe  Fe31  1  0.99838035  0.33349140  0.66850052  1
  Fe  Fe32  1  0.16543953  0.50162748  0.83463236  1
  Fe  Fe33  1  0.16583216  0.83402740  0.50008378  1
  Ni  Ni34  1  0.00129613  0.66644769  0.66855590  1
  Fe  Fe35  1  0.16533172  0.83209373  0.83475250  1
  Fe  Fe36  1  0.50079841  0.17022969  0.49929682  1
  Cr  Cr37  1  0.33261815  0.00222316  0.66808979  1
  Fe  Fe38  1  0.50210954  0.16891560  0.83691680  1
  Fe  Fe39  1  0.50139698  0.49824401  0.49896820  1
  Cr  Cr40  1  0.33367308  0.33390257  0.66934329  1
  Fe  Fe41  1  0.50165857  0.50036462  0.83711743  1
  Cr  Cr42  1  0.49824383  0.83257067  0.50039562  1
  Fe  Fe43  1  0.33231063  0.66745333  0.66976324  1
  Fe  Fe44  1  0.50051446  0.83256875  0.83683664  1
  Fe  Fe45  1  0.83543086  0.17029611  0.50012871  1
  Cr  Cr46  1  0.66734102  0.00220305  0.66924881  1
  Fe  Fe47  1  0.83492159  0.16886386  0.83585306  1
  Fe  Fe48  1  0.83439558  0.49834154  0.50161759  1
  Fe  Fe49  1  0.66927833  0.33431433  0.66802097  1
  Ni  Ni50  1  0.83483855  0.49923959  0.83430420  1
  Cr  Cr51  1  0.83589325  0.83466962  0.50133877  1
  Cr  Cr52  1  0.66791041  0.66564956  0.66845202  1
  Fe  Fe53  1  0.83620062  0.83246777  0.83537997  1
" 