5493,Ni8Fe77Cr13_12,-224.59083172332, 151.068694874116,Ni8Fe77Cr13,"# generated using pymatgen
 data_Cr9Fe41Ni4
_symmetry_space_group_name_H-M   'P 1'
_cell_length_a   7.46096035
_cell_length_b   7.46096035
_cell_length_c   10.55139132
_cell_angle_alpha   90.00000000
_cell_angle_beta   90.00000000
_cell_angle_gamma   90.00000000
_symmetry_Int_Tables_number   1
_chemical_formula_structural   Cr9Fe41Ni4
_chemical_formula_sum   'Cr9 Fe41 Ni4'
_cell_volume   587.35300416
_cell_formula_units_Z   1
loop_
 _symmetry_equiv_pos_site_id
 _symmetry_equiv_pos_as_xyz
  1  'x, y, z'
loop_
 _atom_site_type_symbol
 _atom_site_label
 _atom_site_symmetry_multiplicity
 _atom_site_fract_x
 _atom_site_fract_y
 _atom_site_fract_z
 _atom_site_occupancy
  Cr  Cr0  1  1.00006848  0.99913722  0.00321770  1
  Cr  Cr1  1  0.16733320  0.16706068  0.16660161  1
  Fe  Fe2  1  1.00009396  0.99870273  0.33385617  1
  Fe  Fe3  1  0.00047886  0.33765552  0.00098420  1
  Fe  Fe4  1  0.16672361  0.50269232  0.16741883  1
  Fe  Fe5  1  0.99969836  0.33510570  0.33445005  1
  Fe  Fe6  1  0.99988905  0.66453062  0.00262295  1
  Ni  Ni7  1  0.16720523  0.83158812  0.16830193  1
  Ni  Ni8  1  0.00081742  0.66755548  0.33328825  1
  Fe  Fe9  1  0.33783969  0.99939552  0.00104103  1
  Fe  Fe10  1  0.50046145  0.16585991  0.16719244  1
  Fe  Fe11  1  0.33350267  0.99886907  0.33407236  1
  Fe  Fe12  1  0.33448159  0.33508194  0.99979717  1
  Fe  Fe13  1  0.49933649  0.50176515  0.16758572  1
  Fe  Fe14  1  0.33325655  0.33429676  0.33397214  1
  Fe  Fe15  1  0.33471256  0.66674788  0.00138277  1
  Fe  Fe16  1  0.49988140  0.83359761  0.16667016  1
  Fe  Fe17  1  0.33196392  0.66805535  0.33279194  1
  Fe  Fe18  1  0.66404292  0.99880807  0.00133842  1
  Fe  Fe19  1  0.83302421  0.16652275  0.16822750  1
  Fe  Fe20  1  0.66762719  0.99999764  0.33380492  1
  Cr  Cr21  1  0.66570570  0.33414267  0.99980281  1
  Fe  Fe22  1  0.83516133  0.50211673  0.16769930  1
  Fe  Fe23  1  0.66826962  0.33356388  0.33293331  1
  Ni  Ni24  1  0.66608778  0.66734601  0.00080660  1
  Fe  Fe25  1  0.83395542  0.83258160  0.16750386  1
  Fe  Fe26  1  0.66843732  0.66766245  0.33255851  1
  Fe  Fe27  1  0.16659295  0.16664796  0.49983767  1
  Fe  Fe28  1  0.00060609  0.00059605  0.66459359  1
  Cr  Cr29  1  0.16846261  0.16796042  0.83456854  1
  Fe  Fe30  1  0.16475338  0.50134646  0.49947018  1
  Fe  Fe31  1  0.99906752  0.33509116  0.66578757  1
  Fe  Fe32  1  0.16656873  0.50038661  0.83433875  1
  Fe  Fe33  1  0.16692510  0.83322695  0.49973997  1
  Fe  Fe34  1  0.00065772  0.66553598  0.66517358  1
  Cr  Cr35  1  0.16861962  0.83231890  0.83329576  1
  Fe  Fe36  1  0.50105008  0.16510141  0.50032080  1
  Fe  Fe37  1  0.33542416  0.99941375  0.66611172  1
  Ni  Ni38  1  0.50037885  0.16703964  0.83381745  1
  Cr  Cr39  1  0.50168397  0.50133262  0.49874793  1
  Cr  Cr40  1  0.33432745  0.33309581  0.66834530  1
  Fe  Fe41  1  0.50075279  0.50141017  0.83388931  1
  Fe  Fe42  1  0.50044085  0.83505512  0.50052274  1
  Fe  Fe43  1  0.33368724  0.66840260  0.66704668  1
  Fe  Fe44  1  0.50080450  0.83446725  0.83403160  1
  Fe  Fe45  1  0.83358028  0.16727697  0.50064649  1
  Fe  Fe46  1  0.66519342  0.00100681  0.66608002  1
  Cr  Cr47  1  0.83243115  0.16836888  0.83269352  1
  Fe  Fe48  1  0.83540925  0.50073986  0.50011643  1
  Fe  Fe49  1  0.66806308  0.33335586  0.66757638  1
  Fe  Fe50  1  0.83390014  0.50085230  0.83340453  1
  Fe  Fe51  1  0.83385798  0.83320680  0.50034865  1
  Fe  Fe52  1  0.66687987  0.66686292  0.66767777  1
  Cr  Cr53  1  0.83185405  0.83149010  0.83392320  1
" 