5306,Ni8Fe78Cr12_18,-224.971567211896, 151.253965294577,Ni8Fe78Cr12,"# generated using pymatgen
 data_Cr4Fe21Ni2
_symmetry_space_group_name_H-M   'P 1'
_cell_length_a   7.45404358
_cell_length_b   7.45404358
_cell_length_c   10.54160952
_cell_angle_alpha   90.00000000
_cell_angle_beta   90.00000000
_cell_angle_gamma   90.00000000
_symmetry_Int_Tables_number   1
_chemical_formula_structural   Cr4Fe21Ni2
_chemical_formula_sum   'Cr8 Fe42 Ni4'
_cell_volume   585.72097931
_cell_formula_units_Z   2
loop_
 _symmetry_equiv_pos_site_id
 _symmetry_equiv_pos_as_xyz
  1  'x, y, z'
loop_
 _atom_site_type_symbol
 _atom_site_label
 _atom_site_symmetry_multiplicity
 _atom_site_fract_x
 _atom_site_fract_y
 _atom_site_fract_z
 _atom_site_occupancy
  Fe  Fe0  1  1.00081215  1.00042370  1.00065015  1
  Fe  Fe1  1  0.16718472  0.16785972  0.16724537  1
  Fe  Fe2  1  1.00082947  1.00079605  0.33443986  1
  Ni  Ni3  1  0.00309110  0.33100426  1.00028696  1
  Fe  Fe4  1  0.16905178  0.50102314  0.16691286  1
  Fe  Fe5  1  0.00161228  0.33352188  0.33431327  1
  Fe  Fe6  1  0.00219645  0.66825350  1.00085641  1
  Fe  Fe7  1  0.16639030  0.83372388  0.16731481  1
  Fe  Fe8  1  0.00151773  0.66829786  0.33505374  1
  Fe  Fe9  1  0.33285265  1.00021870  1.00082650  1
  Fe  Fe10  1  0.50107717  0.16901882  0.16749955  1
  Fe  Fe11  1  0.33354274  0.00161222  0.33498485  1
  Fe  Fe12  1  0.33338995  0.33612119  0.00142516  1
  Fe  Fe13  1  0.49956486  0.50023138  0.16690097  1
  Fe  Fe14  1  0.33422880  0.33417483  0.33441914  1
  Ni  Ni15  1  0.33501907  0.66622129  0.99977437  1
  Cr  Cr16  1  0.50024888  0.83490450  0.16702145  1
  Fe  Fe17  1  0.33350887  0.66683133  0.33439830  1
  Fe  Fe18  1  0.66894965  1.00014198  1.00070539  1
  Fe  Fe19  1  0.83435876  0.16635516  0.16722169  1
  Fe  Fe20  1  0.66824308  0.00151600  0.33508824  1
  Fe  Fe21  1  0.66695574  0.33474403  0.00097792  1
  Cr  Cr22  1  0.83482217  0.50122340  0.16751049  1
  Fe  Fe23  1  0.66677913  0.33348965  0.33555958  1
  Ni  Ni24  1  0.66520586  0.66911853  1.00046074  1
  Fe  Fe25  1  0.83515217  0.83524485  0.16730158  1
  Fe  Fe26  1  0.66758924  0.66761504  0.33520769  1
  Fe  Fe27  1  0.16755806  0.16746739  0.49951824  1
  Cr  Cr28  1  0.00142625  0.00164878  0.66838400  1
  Fe  Fe29  1  0.16561176  0.16798893  0.83585380  1
  Fe  Fe30  1  0.16680430  0.50162061  0.50018638  1
  Fe  Fe31  1  0.99917951  0.33485377  0.66742153  1
  Fe  Fe32  1  0.16837431  0.50137060  0.83551388  1
  Fe  Fe33  1  0.16825295  0.83353218  0.50024390  1
  Fe  Fe34  1  0.00236041  0.66638319  0.66670043  1
  Fe  Fe35  1  0.16863488  0.83325464  0.83505741  1
  Fe  Fe36  1  0.50119843  0.16782457  0.50005703  1
  Fe  Fe37  1  0.33425592  0.99924738  0.66680623  1
  Cr  Cr38  1  0.50092189  0.16639576  0.83532731  1
  Fe  Fe39  1  0.50124059  0.50055289  0.49985617  1
  Cr  Cr40  1  0.33354963  0.33572472  0.66759298  1
  Fe  Fe41  1  0.49988190  0.50261873  0.83584726  1
  Fe  Fe42  1  0.49943800  0.83424162  0.49931792  1
  Fe  Fe43  1  0.33335139  0.66872499  0.66807126  1
  Fe  Fe44  1  0.49963359  0.83202065  0.83642109  1
  Fe  Fe45  1  0.83386246  0.16927132  0.49989624  1
  Cr  Cr46  1  0.66829212  0.00112075  0.66716885  1
  Fe  Fe47  1  0.83560475  0.16822508  0.83549425  1
  Fe  Fe48  1  0.83456919  0.49985930  0.50056901  1
  Ni  Ni49  1  0.66838580  0.33463415  0.66575278  1
  Cr  Cr50  1  0.83535503  0.49959266  0.83331760  1
  Fe  Fe51  1  0.83492646  0.83348792  0.49877131  1
  Cr  Cr52  1  0.66591069  0.66697491  0.66705444  1
  Fe  Fe53  1  0.83434810  0.83477873  0.83654482  1
" 