777,Ni8Fe77Cr13_8,-224.566648210448, 153.689727924134,Ni8Fe77Cr13,"# generated using pymatgen
 data_Cr9Fe41Ni4
_symmetry_space_group_name_H-M   'P 1'
_cell_length_a   7.45436038
_cell_length_b   7.45436038
_cell_length_c   10.54205755
_cell_angle_alpha   90.00000000
_cell_angle_beta   90.00000000
_cell_angle_gamma   90.00000000
_symmetry_Int_Tables_number   1
_chemical_formula_structural   Cr9Fe41Ni4
_chemical_formula_sum   'Cr9 Fe41 Ni4'
_cell_volume   585.79566441
_cell_formula_units_Z   1
loop_
 _symmetry_equiv_pos_site_id
 _symmetry_equiv_pos_as_xyz
  1  'x, y, z'
loop_
 _atom_site_type_symbol
 _atom_site_label
 _atom_site_symmetry_multiplicity
 _atom_site_fract_x
 _atom_site_fract_y
 _atom_site_fract_z
 _atom_site_occupancy
  Fe  Fe0  1  0.00159266  0.99944760  0.00164039  1
  Fe  Fe1  1  0.16771749  0.16598967  0.16762553  1
  Fe  Fe2  1  1.00072672  1.00070344  0.33416636  1
  Fe  Fe3  1  0.00087427  0.33489157  0.00088330  1
  Cr  Cr4  1  0.16700474  0.50184202  0.16882142  1
  Fe  Fe5  1  1.00000113  0.33365942  0.33496856  1
  Ni  Ni6  1  0.99923643  0.66885097  1.00016057  1
  Fe  Fe7  1  0.16586640  0.83517156  0.16718855  1
  Fe  Fe8  1  0.00146433  0.66819340  0.33428234  1
  Fe  Fe9  1  0.33254123  0.00206840  1.00061812  1
  Fe  Fe10  1  0.50069092  0.16906426  0.16717052  1
  Fe  Fe11  1  0.33297033  1.00072351  0.33409265  1
  Fe  Fe12  1  0.33466351  0.33366980  0.99970281  1
  Fe  Fe13  1  0.50150020  0.49883124  0.16714279  1
  Fe  Fe14  1  0.33370722  0.33364005  0.33361276  1
  Fe  Fe15  1  0.33283990  0.66681984  0.99967695  1
  Cr  Cr16  1  0.50000075  0.83478947  0.16789203  1
  Fe  Fe17  1  0.33222734  0.66819174  0.33549269  1
  Fe  Fe18  1  0.66841578  0.00126242  1.00065765  1
  Fe  Fe19  1  0.83414505  0.16751792  0.16746424  1
  Fe  Fe20  1  0.66885877  0.00217645  0.33475282  1
  Fe  Fe21  1  0.66701088  0.33518931  0.00125033  1
  Fe  Fe22  1  0.83363679  0.50067496  0.16650810  1
  Fe  Fe23  1  0.66884421  0.33291492  0.33276428  1
  Fe  Fe24  1  0.66962674  0.66610416  0.00100968  1
  Fe  Fe25  1  0.83670885  0.83436056  0.16647140  1
  Cr  Cr26  1  0.66886662  0.66765464  0.33379161  1
  Fe  Fe27  1  0.16556229  0.16711485  0.50001538  1
  Fe  Fe28  1  0.00143654  0.99963994  0.66673813  1
  Fe  Fe29  1  0.16902178  0.16670248  0.83492342  1
  Fe  Fe30  1  0.16597306  0.50168340  0.50029350  1
  Fe  Fe31  1  0.99996682  0.33505676  0.66669801  1
  Fe  Fe32  1  0.16738091  0.50165832  0.83503561  1
  Fe  Fe33  1  0.16828753  0.83375588  0.50111254  1
  Fe  Fe34  1  0.00245699  0.66785954  0.66806247  1
  Fe  Fe35  1  0.16653705  0.83419082  0.83424754  1
  Cr  Cr36  1  0.50333537  0.16453826  0.50110932  1
  Fe  Fe37  1  0.33399864  0.99900909  0.66783980  1
  Ni  Ni38  1  0.50101831  0.16763594  0.83499079  1
  Cr  Cr39  1  0.49932021  0.50212278  0.49994932  1
  Cr  Cr40  1  0.33266756  0.33374038  0.67032228  1
  Fe  Fe41  1  0.50066207  0.49894259  0.83505040  1
  Fe  Fe42  1  0.49947246  0.83549005  0.50145070  1
  Ni  Ni43  1  0.33147071  0.66824585  0.66696942  1
  Cr  Cr44  1  0.49976308  0.83554843  0.83269996  1
  Fe  Fe45  1  0.83505940  0.16742163  0.50133605  1
  Ni  Ni46  1  0.66880011  0.00120124  0.66598682  1
  Cr  Cr47  1  0.83313239  0.16768073  0.83241318  1
  Fe  Fe48  1  0.83678545  0.49920348  0.50076431  1
  Fe  Fe49  1  0.66867194  0.33311370  0.66852617  1
  Fe  Fe50  1  0.83450538  0.50141900  0.83528018  1
  Fe  Fe51  1  0.83479571  0.83593375  0.50113215  1
  Cr  Cr52  1  0.66847969  0.66851872  0.66825331  1
  Fe  Fe53  1  0.83565295  0.83412276  0.83494448  1
" 