3604,Ni8Fe66Cr24_2,-223.700013974653, 161.968753678186,Ni8Fe66Cr24,"# generated using pymatgen
 data_Cr7(Fe9Ni)2
_symmetry_space_group_name_H-M   'P 1'
_cell_length_a   7.48322793
_cell_length_b   7.48322793
_cell_length_c   10.58288243
_cell_angle_alpha   90.00000000
_cell_angle_beta   90.00000000
_cell_angle_gamma   90.00000000
_symmetry_Int_Tables_number   1
_chemical_formula_structural   Cr7(Fe9Ni)2
_chemical_formula_sum   'Cr14 Fe36 Ni4'
_cell_volume   592.62766043
_cell_formula_units_Z   2
loop_
 _symmetry_equiv_pos_site_id
 _symmetry_equiv_pos_as_xyz
  1  'x, y, z'
loop_
 _atom_site_type_symbol
 _atom_site_label
 _atom_site_symmetry_multiplicity
 _atom_site_fract_x
 _atom_site_fract_y
 _atom_site_fract_z
 _atom_site_occupancy
  Fe  Fe0  1  0.99618901  0.99802244  -0.00058697  1
  Ni  Ni1  1  0.16607922  0.16644470  0.16610130  1
  Fe  Fe2  1  -0.00015880  0.99833699  0.33153826  1
  Cr  Cr3  1  0.00083179  0.32993887  -0.00092170  1
  Fe  Fe4  1  0.16623593  0.49960720  0.16502661  1
  Fe  Fe5  1  0.00251022  0.33288651  0.33017416  1
  Fe  Fe6  1  0.00125399  0.66644758  -0.00003110  1
  Fe  Fe7  1  0.16345648  0.83373060  0.16669101  1
  Fe  Fe8  1  0.00225067  0.66693655  0.33092624  1
  Cr  Cr9  1  0.32586259  0.00016768  -0.00093530  1
  Fe  Fe10  1  0.49635331  0.16737674  0.16581106  1
  Ni  Ni11  1  0.32863952  -0.00008439  0.33100704  1
  Fe  Fe12  1  0.33251821  0.33418176  -0.00051743  1
  Fe  Fe13  1  0.49783923  0.49635462  0.16459504  1
  Fe  Fe14  1  0.33122130  0.33287597  0.32974910  1
  Fe  Fe15  1  0.33014603  0.66174346  0.99838078  1
  Cr  Cr16  1  0.49799738  0.83327786  0.16422880  1
  Fe  Fe17  1  0.32997409  0.66563646  0.33180417  1
  Fe  Fe18  1  0.66786666  0.00166941  -0.00021543  1
  Cr  Cr19  1  0.83215476  0.16699558  0.16789082  1
  Fe  Fe20  1  0.66554231  0.99863526  0.33123091  1
  Ni  Ni21  1  0.66518415  0.33437197  0.00019162  1
  Fe  Fe22  1  0.83372162  0.50013133  0.16489411  1
  Fe  Fe23  1  0.66401026  0.33101270  0.33064794  1
  Fe  Fe24  1  0.66689039  0.66464658  0.00086864  1
  Fe  Fe25  1  0.83518613  0.83215434  0.16494343  1
  Cr  Cr26  1  0.66678375  0.66378419  0.33230851  1
  Cr  Cr27  1  0.16430612  0.16721056  0.49986587  1
  Fe  Fe28  1  0.99823377  0.99749419  0.66670157  1
  Fe  Fe29  1  0.16345063  0.16644329  0.83049305  1
  Fe  Fe30  1  0.16848438  0.49977859  0.49854814  1
  Fe  Fe31  1  0.00008754  0.33242027  0.66774581  1
  Ni  Ni32  1  0.16449142  0.49875213  0.83168365  1
  Fe  Fe33  1  0.16272347  0.83261063  0.49714462  1
  Fe  Fe34  1  0.00045921  0.66682318  0.66580293  1
  Fe  Fe35  1  0.16270384  0.83018212  0.83241592  1
  Cr  Cr36  1  0.49835444  0.16360926  0.49719169  1
  Fe  Fe37  1  0.32943412  -0.00097152  0.66637223  1
  Cr  Cr38  1  0.49859637  0.16482665  0.83325007  1
  Fe  Fe39  1  0.49800058  0.49581885  0.49743552  1
  Fe  Fe40  1  0.33222367  0.33325473  0.66709911  1
  Fe  Fe41  1  0.49708286  0.49748119  0.83466263  1
  Cr  Cr42  1  0.49696758  0.83431740  0.49803982  1
  Cr  Cr43  1  0.33208092  0.66493741  0.66424191  1
  Cr  Cr44  1  0.50010002  0.83242443  0.83433845  1
  Fe  Fe45  1  0.83219175  0.16369032  0.49790494  1
  Fe  Fe46  1  0.66872677  -0.00049623  0.66571245  1
  Fe  Fe47  1  0.83279118  0.16501667  0.83278821  1
  Cr  Cr48  1  0.83792723  0.49633759  0.49802230  1
  Fe  Fe49  1  0.66592999  0.33060716  0.66635912  1
  Cr  Cr50  1  0.83398703  0.49959582  0.83469174  1
  Fe  Fe51  1  0.83457857  0.83467107  0.49854160  1
  Cr  Cr52  1  0.66615614  0.66404120  0.66509641  1
  Fe  Fe53  1  0.83501052  0.83346036  0.83366892  1
" 