4943,Ni8Fe78Cr13_15,-225.332835010015, 152.254388374978,Ni8Fe78Cr13,"# generated using pymatgen
 data_Cr4Fe21Ni2
_symmetry_space_group_name_H-M   'P 1'
_cell_length_a   7.45498431
_cell_length_b   7.45498431
_cell_length_c   10.54293992
_cell_angle_alpha   90.00000000
_cell_angle_beta   90.00000000
_cell_angle_gamma   90.00000000
_symmetry_Int_Tables_number   1
_chemical_formula_structural   Cr4Fe21Ni2
_chemical_formula_sum   'Cr8 Fe42 Ni4'
_cell_volume   585.94276921
_cell_formula_units_Z   2
loop_
 _symmetry_equiv_pos_site_id
 _symmetry_equiv_pos_as_xyz
  1  'x, y, z'
loop_
 _atom_site_type_symbol
 _atom_site_label
 _atom_site_symmetry_multiplicity
 _atom_site_fract_x
 _atom_site_fract_y
 _atom_site_fract_z
 _atom_site_occupancy
  Fe  Fe0  1  0.99853271  0.00142540  1.00069190  1
  Fe  Fe1  1  0.16548264  0.16925227  0.16952161  1
  Fe  Fe2  1  1.00071563  1.00009809  0.33210670  1
  Fe  Fe3  1  0.00198833  0.33146506  0.00103824  1
  Fe  Fe4  1  0.16837774  0.49905628  0.17054582  1
  Ni  Ni5  1  0.00102856  0.33512338  0.33458762  1
  Cr  Cr6  1  1.00060559  0.66657660  0.99906585  1
  Fe  Fe7  1  0.16576180  0.83448231  0.17000678  1
  Fe  Fe8  1  0.00137291  0.66603177  0.33569291  1
  Cr  Cr9  1  0.33377726  0.00309025  0.00116690  1
  Fe  Fe10  1  0.50262630  0.16922403  0.16877894  1
  Fe  Fe11  1  0.33455286  0.00091345  0.33233169  1
  Fe  Fe12  1  0.33294799  0.33457701  0.00236597  1
  Fe  Fe13  1  0.50037140  0.50033523  0.16754378  1
  Fe  Fe14  1  0.33385360  0.33573693  0.33391680  1
  Cr  Cr15  1  0.33396928  0.66887187  0.00194667  1
  Fe  Fe16  1  0.50398525  0.83318907  0.16946068  1
  Fe  Fe17  1  0.33291224  0.66606897  0.33433824  1
  Fe  Fe18  1  0.66938106  0.99947155  0.00102861  1
  Fe  Fe19  1  0.83474936  0.16618942  0.16888422  1
  Fe  Fe20  1  0.66713140  0.00096764  0.33345605  1
  Fe  Fe21  1  0.66730713  0.33233989  0.00094867  1
  Cr  Cr22  1  0.83275008  0.50071169  0.16704431  1
  Fe  Fe23  1  0.66698947  0.33508740  0.33490157  1
  Ni  Ni24  1  0.66824093  0.66890461  0.00152745  1
  Fe  Fe25  1  0.83287175  0.83611675  0.16803872  1
  Fe  Fe26  1  0.66797024  0.66681632  0.33557513  1
  Cr  Cr27  1  0.16799565  0.16607030  0.50086325  1
  Fe  Fe28  1  0.99971401  0.99858976  0.66933379  1
  Fe  Fe29  1  0.16659842  0.16925471  0.83214558  1
  Ni  Ni30  1  0.16741432  0.50171418  0.50089546  1
  Fe  Fe31  1  1.00000398  0.33762718  0.66647187  1
  Fe  Fe32  1  0.16617315  0.49865211  0.83111655  1
  Fe  Fe33  1  0.16622484  0.83172993  0.50071596  1
  Fe  Fe34  1  0.00270072  0.66666135  0.66699131  1
  Fe  Fe35  1  0.16736739  0.83482907  0.83134414  1
  Fe  Fe36  1  0.50045690  0.16924249  0.50077453  1
  Fe  Fe37  1  0.33590625  0.99943120  0.66863754  1
  Fe  Fe38  1  0.50199148  0.16708181  0.83275668  1
  Fe  Fe39  1  0.49973477  0.49898019  0.50007061  1
  Fe  Fe40  1  0.33462838  0.33554448  0.66708364  1
  Cr  Cr41  1  0.50123808  0.50195172  0.83657836  1
  Fe  Fe42  1  0.49936417  0.83431133  0.49922378  1
  Fe  Fe43  1  0.33209562  0.66782497  0.66655190  1
  Fe  Fe44  1  0.50290308  0.83624875  0.83357312  1
  Cr  Cr45  1  0.83419835  0.16739133  0.49978696  1
  Fe  Fe46  1  0.66660667  0.00195537  0.66776203  1
  Fe  Fe47  1  0.83390262  0.16812789  0.83357763  1
  Ni  Ni48  1  0.83478236  0.50116020  0.50065298  1
  Fe  Fe49  1  0.66758660  0.33309016  0.66716684  1
  Fe  Fe50  1  0.83484170  0.49870142  0.83389093  1
  Fe  Fe51  1  0.83716196  0.83278682  0.49922172  1
  Cr  Cr52  1  0.66929717  0.66712071  0.66567704  1
  Fe  Fe53  1  0.83254799  0.83548742  0.83431410  1
" 