5088,Ni8Fe20Cr71_15,-209.876072141409, 190.520554052223,Ni8Fe20Cr71,"# generated using pymatgen
 data_Cr20Fe5Ni2
_symmetry_space_group_name_H-M   'P 1'
_cell_length_a   7.56072168
_cell_length_b   7.56072168
_cell_length_c   10.69247514
_cell_angle_alpha   90.00000000
_cell_angle_beta   90.00000000
_cell_angle_gamma   90.00000000
_symmetry_Int_Tables_number   1
_chemical_formula_structural   Cr20Fe5Ni2
_chemical_formula_sum   'Cr40 Fe10 Ni4'
_cell_volume   611.23012616
_cell_formula_units_Z   2
loop_
 _symmetry_equiv_pos_site_id
 _symmetry_equiv_pos_as_xyz
  1  'x, y, z'
loop_
 _atom_site_type_symbol
 _atom_site_label
 _atom_site_symmetry_multiplicity
 _atom_site_fract_x
 _atom_site_fract_y
 _atom_site_fract_z
 _atom_site_occupancy
  Cr  Cr0  1  -0.00464474  -0.00608408  -0.00483490  1
  Cr  Cr1  1  0.16349167  0.16149916  0.16274792  1
  Cr  Cr2  1  -0.00361647  0.99328823  0.32989798  1
  Cr  Cr3  1  0.99232849  0.32579881  0.99302555  1
  Cr  Cr4  1  0.16077096  0.49289745  0.15971089  1
  Cr  Cr5  1  0.98959231  0.32541448  0.32750408  1
  Cr  Cr6  1  -0.00441255  0.66160867  -0.00557769  1
  Ni  Ni7  1  0.16301299  0.82753698  0.16393063  1
  Cr  Cr8  1  -0.00300794  0.66217137  0.32791052  1
  Cr  Cr9  1  0.32692875  0.99237333  -0.00369934  1
  Cr  Cr10  1  0.49289473  0.16110804  0.16225387  1
  Fe  Fe11  1  0.32831962  0.99351904  0.32742597  1
  Cr  Cr12  1  0.33038658  0.32854213  -0.00561676  1
  Fe  Fe13  1  0.49347101  0.49333062  0.16478117  1
  Fe  Fe14  1  0.32880264  0.32949005  0.32766259  1
  Cr  Cr15  1  0.32847678  0.66097290  0.99371049  1
  Cr  Cr16  1  0.49565172  0.82856338  0.16134425  1
  Cr  Cr17  1  0.32976029  0.66120305  0.32766155  1
  Fe  Fe18  1  0.65976977  -0.00528152  -0.00528354  1
  Cr  Cr19  1  0.82539103  0.16061016  0.16127775  1
  Cr  Cr20  1  0.66112985  -0.00327971  0.32873439  1
  Cr  Cr21  1  0.65911821  0.32757518  -0.00577126  1
  Cr  Cr22  1  0.82606966  0.49470203  0.16313196  1
  Ni  Ni23  1  0.65423883  0.32924912  0.32917465  1
  Cr  Cr24  1  0.65672180  0.65743561  -0.00334614  1
  Cr  Cr25  1  0.82657153  0.82579382  0.15993942  1
  Fe  Fe26  1  0.65947471  0.65847739  0.32792861  1
  Cr  Cr27  1  0.16333762  0.16237625  0.49090995  1
  Cr  Cr28  1  0.99307510  -0.00478815  0.65628288  1
  Cr  Cr29  1  0.16273973  0.16285327  0.82744137  1
  Cr  Cr30  1  0.16226734  0.49267422  0.49655323  1
  Cr  Cr31  1  0.98944489  0.32474040  0.66045685  1
  Cr  Cr32  1  0.16127663  0.49279573  0.82420424  1
  Fe  Fe33  1  0.16390830  0.82538291  0.49366243  1
  Cr  Cr34  1  -0.00437587  0.66209770  0.65971210  1
  Cr  Cr35  1  0.16153179  0.82589123  0.82486861  1
  Cr  Cr36  1  0.49245849  0.16116452  0.49423794  1
  Cr  Cr37  1  0.32629865  0.99152242  0.65878207  1
  Cr  Cr38  1  0.49365519  0.15854373  0.82536891  1
  Ni  Ni39  1  0.49340611  0.49210220  0.49194129  1
  Fe  Fe40  1  0.32893635  0.32852216  0.65882962  1
  Cr  Cr41  1  0.49211143  0.49337027  0.82375136  1
  Cr  Cr42  1  0.49472059  0.82677828  0.49377170  1
  Ni  Ni43  1  0.33147986  0.65860854  0.65817034  1
  Cr  Cr44  1  0.49608395  0.82900693  0.82652208  1
  Fe  Fe45  1  0.82342936  0.16279269  0.49320631  1
  Fe  Fe46  1  0.66050408  -0.00608927  0.65843834  1
  Cr  Cr47  1  0.82393374  0.15834172  0.82599467  1
  Cr  Cr48  1  0.82617671  0.49444452  0.49160415  1
  Fe  Fe49  1  0.65754289  0.32731192  0.65763662  1
  Cr  Cr50  1  0.82772819  0.49530216  0.82739810  1
  Cr  Cr51  1  0.82562083  0.82645103  0.49321699  1
  Cr  Cr52  1  0.65782599  0.65735718  0.65821798  1
  Cr  Cr53  1  0.82367155  0.82741148  0.82867693  1
" 