3197,Ni8Fe18Cr72_15,-209.620485146493, 193.361893037223,Ni8Fe18Cr72,"# generated using pymatgen
 data_Cr41Fe9Ni4
_symmetry_space_group_name_H-M   'P 1'
_cell_length_a   7.56867971
_cell_length_b   7.56867971
_cell_length_c   10.70372950
_cell_angle_alpha   90.00000000
_cell_angle_beta   90.00000000
_cell_angle_gamma   90.00000000
_symmetry_Int_Tables_number   1
_chemical_formula_structural   Cr41Fe9Ni4
_chemical_formula_sum   'Cr41 Fe9 Ni4'
_cell_volume   613.16220878
_cell_formula_units_Z   1
loop_
 _symmetry_equiv_pos_site_id
 _symmetry_equiv_pos_as_xyz
  1  'x, y, z'
loop_
 _atom_site_type_symbol
 _atom_site_label
 _atom_site_symmetry_multiplicity
 _atom_site_fract_x
 _atom_site_fract_y
 _atom_site_fract_z
 _atom_site_occupancy
  Fe  Fe0  1  -0.00621660  0.99215447  0.99317092  1
  Fe  Fe1  1  0.15961669  0.16038719  0.15958335  1
  Cr  Cr2  1  0.99172969  0.99272870  0.32571293  1
  Cr  Cr3  1  0.99296251  0.32680174  -0.00639925  1
  Fe  Fe4  1  0.15962442  0.49286489  0.15958836  1
  Cr  Cr5  1  -0.00631693  0.32642844  0.32627719  1
  Fe  Fe6  1  0.99297789  0.66116538  0.99319722  1
  Cr  Cr7  1  0.15877210  0.82670209  0.15893141  1
  Cr  Cr8  1  0.99231248  0.66070263  0.32627185  1
  Cr  Cr9  1  0.32498743  0.99297471  0.99267401  1
  Cr  Cr10  1  0.49403214  0.16105073  0.16050400  1
  Cr  Cr11  1  0.32645942  -0.00583811  0.32521712  1
  Cr  Cr12  1  0.32677882  0.32681726  -0.00595487  1
  Cr  Cr13  1  0.49514482  0.49242527  0.16014078  1
  Cr  Cr14  1  0.32705877  0.32754154  0.32581147  1
  Cr  Cr15  1  0.32552931  0.66006751  0.99246591  1
  Cr  Cr16  1  0.49319087  0.82637707  0.15962398  1
  Cr  Cr17  1  0.32699475  0.65815405  0.32734678  1
  Cr  Cr18  1  0.66157191  0.99278755  -0.00644247  1
  Cr  Cr19  1  0.82642859  0.16121934  0.15984067  1
  Cr  Cr20  1  0.66166576  0.99278995  0.32745508  1
  Ni  Ni21  1  0.66128831  0.32774936  -0.00657050  1
  Cr  Cr22  1  0.82611504  0.49305630  0.15793318  1
  Ni  Ni23  1  0.65925943  0.32717317  0.32696051  1
  Fe  Fe24  1  0.66102399  0.65849594  0.99322622  1
  Fe  Fe25  1  0.82687752  0.82622612  0.15875205  1
  Cr  Cr26  1  0.66055005  0.66010837  0.32745954  1
  Cr  Cr27  1  0.15960067  0.15958203  0.49261340  1
  Cr  Cr28  1  0.99191977  0.99227942  0.66035150  1
  Cr  Cr29  1  0.15935592  0.15735921  0.82646642  1
  Cr  Cr30  1  0.15992903  0.49404984  0.49270998  1
  Cr  Cr31  1  -0.00663424  0.32627315  0.65996859  1
  Cr  Cr32  1  0.15856207  0.49589207  0.82671633  1
  Cr  Cr33  1  0.16005314  0.82622587  0.49385120  1
  Cr  Cr34  1  0.99187914  0.66130566  0.66000015  1
  Ni  Ni35  1  0.15885078  0.82667900  0.82790387  1
  Cr  Cr36  1  0.49497779  0.16021436  0.49273339  1
  Cr  Cr37  1  0.32693822  0.99260561  0.66196388  1
  Cr  Cr38  1  0.49480218  0.15972679  0.82662660  1
  Fe  Fe39  1  0.49502412  0.49322379  0.49327711  1
  Cr  Cr40  1  0.32694635  0.32738702  0.65999241  1
  Cr  Cr41  1  0.49598829  0.49391776  0.82690973  1
  Cr  Cr42  1  0.49430931  0.82580160  0.49454192  1
  Cr  Cr43  1  0.32810271  0.65986404  0.66004735  1
  Cr  Cr44  1  0.49233583  0.82621023  0.82569377  1
  Cr  Cr45  1  0.82527926  0.16034077  0.49353090  1
  Fe  Fe46  1  0.66035270  0.99107338  0.65955989  1
  Cr  Cr47  1  0.82569952  0.16100708  0.82649127  1
  Cr  Cr48  1  0.82486036  0.49338071  0.49360559  1
  Cr  Cr49  1  0.65954729  0.32743476  0.65999120  1
  Cr  Cr50  1  0.82530613  0.49342761  0.82832143  1
  Fe  Fe51  1  0.82540306  0.82617823  0.49462950  1
  Ni  Ni52  1  0.65997172  0.66147457  0.65905322  1
  Cr  Cr53  1  0.82766415  0.82541827  0.82711641  1
" 