4693,Ni8Fe78Cr12_1,-225.025878157108, 152.9982506725,Ni8Fe78Cr12,"# generated using pymatgen
 data_Cr4Fe21Ni2
_symmetry_space_group_name_H-M   'P 1'
_cell_length_a   7.45213207
_cell_length_b   7.45213207
_cell_length_c   10.53890624
_cell_angle_alpha   90.00000000
_cell_angle_beta   90.00000000
_cell_angle_gamma   90.00000000
_symmetry_Int_Tables_number   1
_chemical_formula_structural   Cr4Fe21Ni2
_chemical_formula_sum   'Cr8 Fe42 Ni4'
_cell_volume   585.27048980
_cell_formula_units_Z   2
loop_
 _symmetry_equiv_pos_site_id
 _symmetry_equiv_pos_as_xyz
  1  'x, y, z'
loop_
 _atom_site_type_symbol
 _atom_site_label
 _atom_site_symmetry_multiplicity
 _atom_site_fract_x
 _atom_site_fract_y
 _atom_site_fract_z
 _atom_site_occupancy
  Cr  Cr0  1  0.00162305  0.00114607  1.00075599  1
  Fe  Fe1  1  0.16936689  0.17032924  0.16979754  1
  Fe  Fe2  1  0.99900899  1.00056310  0.33460492  1
  Cr  Cr3  1  0.99942969  0.33445078  0.00166505  1
  Fe  Fe4  1  0.16743419  0.50129936  0.16895297  1
  Fe  Fe5  1  0.00119633  0.33580622  0.33280906  1
  Fe  Fe6  1  0.99998077  0.66487732  1.00092408  1
  Cr  Cr7  1  0.16801302  0.83488283  0.16765013  1
  Fe  Fe8  1  0.99982846  0.66664799  0.33550240  1
  Fe  Fe9  1  0.33603311  0.00402055  0.99878656  1
  Fe  Fe10  1  0.50116507  0.16813273  0.16648894  1
  Fe  Fe11  1  0.33566788  0.00123389  0.33546499  1
  Fe  Fe12  1  0.33437877  0.33261701  0.99938826  1
  Cr  Cr13  1  0.50214934  0.50067986  0.16590441  1
  Fe  Fe14  1  0.33346224  0.33490896  0.33436883  1
  Fe  Fe15  1  0.33322105  0.66632522  0.99838317  1
  Cr  Cr16  1  0.50173776  0.83456512  0.16656741  1
  Fe  Fe17  1  0.33407334  0.66712690  0.33663437  1
  Fe  Fe18  1  0.66682693  0.00442583  1.00045384  1
  Fe  Fe19  1  0.83208525  0.16743043  0.16804669  1
  Fe  Fe20  1  0.66854650  0.99998985  0.33572397  1
  Ni  Ni21  1  0.66729549  0.33427167  0.99934171  1
  Ni  Ni22  1  0.83397285  0.50111091  0.16749837  1
  Cr  Cr23  1  0.66771290  0.33426447  0.33594146  1
  Fe  Fe24  1  0.67006502  0.66500043  1.00013112  1
  Fe  Fe25  1  0.83344492  0.83204190  0.16816261  1
  Fe  Fe26  1  0.66965242  0.66824696  0.33563303  1
  Cr  Cr27  1  0.16701183  0.16798982  0.50096712  1
  Fe  Fe28  1  0.00121193  1.00014031  0.66803653  1
  Fe  Fe29  1  0.16771637  0.16861049  0.83222162  1
  Fe  Fe30  1  0.16750525  0.50275641  0.50129476  1
  Fe  Fe31  1  1.00007234  0.33559492  0.66887998  1
  Fe  Fe32  1  0.16690845  0.50197379  0.83322171  1
  Ni  Ni33  1  0.16751081  0.83467071  0.50208323  1
  Fe  Fe34  1  0.00156195  0.66672692  0.66709827  1
  Fe  Fe35  1  0.16912733  0.83254543  0.83281660  1
  Fe  Fe36  1  0.50106932  0.16615831  0.50233471  1
  Fe  Fe37  1  0.33511709  0.99962669  0.66835805  1
  Fe  Fe38  1  0.50255850  0.16850617  0.83407685  1
  Fe  Fe39  1  0.49894300  0.50199426  0.50179361  1
  Fe  Fe40  1  0.33532435  0.33526459  0.66835500  1
  Fe  Fe41  1  0.50221349  0.50119559  0.83466285  1
  Fe  Fe42  1  0.50001235  0.83468206  0.50084896  1
  Fe  Fe43  1  0.33433986  0.66803830  0.66723746  1
  Fe  Fe44  1  0.50047429  0.83330500  0.83469456  1
  Fe  Fe45  1  0.83455670  0.16597227  0.50243794  1
  Fe  Fe46  1  0.66673229  0.00123810  0.66697087  1
  Fe  Fe47  1  0.83249189  0.16941303  0.83274675  1
  Fe  Fe48  1  0.83653240  0.50198556  0.50221731  1
  Fe  Fe49  1  0.66759553  0.33497540  0.66796006  1
  Ni  Ni50  1  0.83324635  0.50032660  0.83324246  1
  Fe  Fe51  1  0.83585850  0.83486623  0.50171322  1
  Fe  Fe52  1  0.66699884  0.66645480  0.66694379  1
  Cr  Cr53  1  0.83397765  0.83263350  0.83524473  1
" 