4456,Ni8Fe66Cr24_17,-223.441484619246, 158.416278352997,Ni8Fe66Cr24,"# generated using pymatgen
 data_Cr7(Fe9Ni)2
_symmetry_space_group_name_H-M   'P 1'
_cell_length_a   7.48341027
_cell_length_b   7.48341027
_cell_length_c   10.58314030
_cell_angle_alpha   90.00000000
_cell_angle_beta   90.00000000
_cell_angle_gamma   90.00000000
_symmetry_Int_Tables_number   1
_chemical_formula_structural   Cr7(Fe9Ni)2
_chemical_formula_sum   'Cr14 Fe36 Ni4'
_cell_volume   592.67098306
_cell_formula_units_Z   2
loop_
 _symmetry_equiv_pos_site_id
 _symmetry_equiv_pos_as_xyz
  1  'x, y, z'
loop_
 _atom_site_type_symbol
 _atom_site_label
 _atom_site_symmetry_multiplicity
 _atom_site_fract_x
 _atom_site_fract_y
 _atom_site_fract_z
 _atom_site_occupancy
  Ni  Ni0  1  0.99661800  0.99743926  0.00006573  1
  Fe  Fe1  1  0.16658099  0.16606763  0.16452376  1
  Fe  Fe2  1  0.00062382  -0.00072063  0.33043315  1
  Fe  Fe3  1  -0.00054697  0.33159907  0.00022257  1
  Fe  Fe4  1  0.16621511  0.49886621  0.16477913  1
  Cr  Cr5  1  0.00028980  0.33290995  0.33121987  1
  Fe  Fe6  1  -0.00000355  0.66564854  0.99876586  1
  Fe  Fe7  1  0.16334132  0.83188105  0.16556984  1
  Fe  Fe8  1  0.00277632  0.66586513  0.33092600  1
  Cr  Cr9  1  0.33228179  0.00112531  0.99872834  1
  Fe  Fe10  1  0.49855328  0.16681398  0.16624154  1
  Fe  Fe11  1  0.33136278  0.00054675  0.33294397  1
  Ni  Ni12  1  0.33273754  0.33381914  -0.00088307  1
  Cr  Cr13  1  0.49779901  0.49679501  0.16546225  1
  Ni  Ni14  1  0.33141949  0.32963923  0.33204621  1
  Fe  Fe15  1  0.33063502  0.66394354  0.99720421  1
  Cr  Cr16  1  0.49885110  0.83225916  0.16602227  1
  Fe  Fe17  1  0.32859189  0.66466366  0.33265576  1
  Fe  Fe18  1  0.66737904  0.00041819  0.99806638  1
  Fe  Fe19  1  0.83145840  0.16433925  0.16433756  1
  Fe  Fe20  1  0.66478567  0.00326456  0.33216403  1
  Fe  Fe21  1  0.66535501  0.33104796  0.99773514  1
  Fe  Fe22  1  0.83332650  0.49926836  0.16423956  1
  Fe  Fe23  1  0.66416636  0.32880711  0.33142420  1
  Fe  Fe24  1  0.66611589  0.66514406  0.99713383  1
  Fe  Fe25  1  0.83442112  0.83311440  0.16469010  1
  Cr  Cr26  1  0.66752971  0.66581901  0.33191793  1
  Fe  Fe27  1  0.16660139  0.16713912  0.49805022  1
  Cr  Cr28  1  -0.00079313  -0.00005896  0.66519448  1
  Cr  Cr29  1  0.16320265  0.16632566  0.83299664  1
  Fe  Fe30  1  0.16703324  0.49849264  0.49836930  1
  Fe  Fe31  1  0.99867593  0.33179284  0.66534626  1
  Fe  Fe32  1  0.16787604  0.49883600  0.83359988  1
  Fe  Fe33  1  0.16774809  0.83094054  0.49685708  1
  Cr  Cr34  1  0.00012988  0.66334519  0.66607365  1
  Fe  Fe35  1  0.16566474  0.82964708  0.83413094  1
  Fe  Fe36  1  0.49904102  0.16598310  0.49691204  1
  Cr  Cr37  1  0.33346292  -0.00103206  0.66503220  1
  Fe  Fe38  1  0.49992140  0.16958833  0.83355279  1
  Cr  Cr39  1  0.49676253  0.49788648  0.49865114  1
  Fe  Fe40  1  0.33255735  0.33403455  0.66640696  1
  Ni  Ni41  1  0.49843924  0.49888478  0.83309168  1
  Fe  Fe42  1  0.49676712  0.83312882  0.49703586  1
  Fe  Fe43  1  0.33196774  0.66505301  0.66700642  1
  Fe  Fe44  1  0.49828952  0.83035615  0.83434515  1
  Fe  Fe45  1  0.83113652  0.16652992  0.49817888  1
  Cr  Cr46  1  0.66400268  -0.00042856  0.66697114  1
  Fe  Fe47  1  0.83059582  0.16723239  0.83433349  1
  Cr  Cr48  1  0.83169687  0.49661104  0.49940514  1
  Fe  Fe49  1  0.66520889  0.33109482  0.66772669  1
  Fe  Fe50  1  0.83179030  0.49678968  0.83368938  1
  Cr  Cr51  1  0.83360734  0.83465208  0.49599469  1
  Cr  Cr52  1  0.66433304  0.66542661  0.66805633  1
  Fe  Fe53  1  0.83258027  0.83232767  0.83531929  1
" 