7071,Ni8Fe78Cr12_14,-224.954394525552, 154.17734683345,Ni8Fe78Cr12,"# generated using pymatgen
 data_Cr4Fe21Ni2
_symmetry_space_group_name_H-M   'P 1'
_cell_length_a   7.44696308
_cell_length_b   7.44696308
_cell_length_c   10.53159619
_cell_angle_alpha   90.00000000
_cell_angle_beta   90.00000000
_cell_angle_gamma   90.00000000
_symmetry_Int_Tables_number   1
_chemical_formula_structural   Cr4Fe21Ni2
_chemical_formula_sum   'Cr8 Fe42 Ni4'
_cell_volume   584.05345917
_cell_formula_units_Z   2
loop_
 _symmetry_equiv_pos_site_id
 _symmetry_equiv_pos_as_xyz
  1  'x, y, z'
loop_
 _atom_site_type_symbol
 _atom_site_label
 _atom_site_symmetry_multiplicity
 _atom_site_fract_x
 _atom_site_fract_y
 _atom_site_fract_z
 _atom_site_occupancy
  Fe  Fe0  1  0.00241738  1.00021116  1.00047323  1
  Fe  Fe1  1  0.16795558  0.16753975  0.16678731  1
  Fe  Fe2  1  0.00373572  0.00179740  0.33512076  1
  Fe  Fe3  1  0.00294308  0.33531292  1.00011435  1
  Fe  Fe4  1  0.16672438  0.50188668  0.16671414  1
  Ni  Ni5  1  0.00274319  0.33473870  0.33509923  1
  Fe  Fe6  1  0.00164546  0.66830338  0.99995102  1
  Fe  Fe7  1  0.16772000  0.83446921  0.16773547  1
  Fe  Fe8  1  0.00154222  0.67007588  0.33479237  1
  Fe  Fe9  1  0.33429175  1.00127845  1.00021983  1
  Fe  Fe10  1  0.50040062  0.16638775  0.16574871  1
  Fe  Fe11  1  0.33220403  1.00002558  0.33538372  1
  Fe  Fe12  1  0.33330171  0.33417660  1.00008074  1
  Cr  Cr13  1  0.50170721  0.50213027  0.16755411  1
  Cr  Cr14  1  0.33340099  0.33274755  0.33354095  1
  Fe  Fe15  1  0.33329234  0.66882232  1.00035635  1
  Fe  Fe16  1  0.50077293  0.83541938  0.16662704  1
  Fe  Fe17  1  0.33408374  0.67090078  0.33440933  1
  Fe  Fe18  1  0.66735112  1.00025441  1.00053918  1
  Cr  Cr19  1  0.83499087  0.16822801  0.16720805  1
  Cr  Cr20  1  0.66738524  0.99889062  0.33480993  1
  Fe  Fe21  1  0.66782011  0.33455497  0.99876591  1
  Cr  Cr22  1  0.83511645  0.50097115  0.16912921  1
  Fe  Fe23  1  0.66907576  0.33415005  0.33739908  1
  Fe  Fe24  1  0.66904570  0.66896920  0.99900796  1
  Fe  Fe25  1  0.83534385  0.83347671  0.16675044  1
  Fe  Fe26  1  0.66849101  0.66695406  0.33715400  1
  Fe  Fe27  1  0.16631913  0.16576463  0.50171282  1
  Fe  Fe28  1  0.00173414  1.00118847  0.66830367  1
  Fe  Fe29  1  0.16652801  0.16769171  0.83512893  1
  Cr  Cr30  1  0.16765395  0.50354087  0.50186373  1
  Fe  Fe31  1  0.99980788  0.33446183  0.66892043  1
  Ni  Ni32  1  0.16741618  0.50252373  0.83578258  1
  Fe  Fe33  1  0.16820581  0.83699752  0.50204859  1
  Fe  Fe34  1  0.00325752  0.66868174  0.67023880  1
  Fe  Fe35  1  0.16787361  0.83444955  0.83407437  1
  Fe  Fe36  1  0.50116717  0.16716197  0.50256857  1
  Ni  Ni37  1  0.33412281  0.00140583  0.66818026  1
  Fe  Fe38  1  0.50171894  0.16745412  0.83518190  1
  Fe  Fe39  1  0.50248744  0.50166334  0.50028847  1
  Cr  Cr40  1  0.33336831  0.33516279  0.66990420  1
  Fe  Fe41  1  0.50144543  0.50171127  0.83668362  1
  Fe  Fe42  1  0.49849173  0.83448216  0.50216885  1
  Fe  Fe43  1  0.33371812  0.67020378  0.66971046  1
  Fe  Fe44  1  0.49986190  0.83480917  0.83480418  1
  Fe  Fe45  1  0.83647583  0.16918084  0.50122776  1
  Fe  Fe46  1  0.66701885  0.00308798  0.66785757  1
  Fe  Fe47  1  0.83560159  0.16872812  0.83518292  1
  Fe  Fe48  1  0.83454947  0.50016827  0.50087288  1
  Fe  Fe49  1  0.66904565  0.33280934  0.66867058  1
  Ni  Ni50  1  0.83588514  0.50019036  0.83427709  1
  Fe  Fe51  1  0.83745554  0.83439774  0.50163014  1
  Cr  Cr52  1  0.66970967  0.66797914  0.66855888  1
  Fe  Fe53  1  0.83639699  0.83425004  0.83550459  1
" 