7776,Ni8Fe20Cr71_19,-210.035745472479, 189.576845656092,Ni8Fe20Cr71,"# generated using pymatgen
 data_Cr20Fe5Ni2
_symmetry_space_group_name_H-M   'P 1'
_cell_length_a   7.56493619
_cell_length_b   7.56493619
_cell_length_c   10.69843536
_cell_angle_alpha   90.00000000
_cell_angle_beta   90.00000000
_cell_angle_gamma   90.00000000
_symmetry_Int_Tables_number   1
_chemical_formula_structural   Cr20Fe5Ni2
_chemical_formula_sum   'Cr40 Fe10 Ni4'
_cell_volume   612.25283588
_cell_formula_units_Z   2
loop_
 _symmetry_equiv_pos_site_id
 _symmetry_equiv_pos_as_xyz
  1  'x, y, z'
loop_
 _atom_site_type_symbol
 _atom_site_label
 _atom_site_symmetry_multiplicity
 _atom_site_fract_x
 _atom_site_fract_y
 _atom_site_fract_z
 _atom_site_occupancy
  Cr  Cr0  1  0.99168085  0.99222842  0.99176951  1
  Cr  Cr1  1  0.15950884  0.15940531  0.15857397  1
  Cr  Cr2  1  0.99347362  -0.00536956  0.32759442  1
  Cr  Cr3  1  -0.00546316  0.32930684  -0.00405914  1
  Ni  Ni4  1  0.15802367  0.49639788  0.16116368  1
  Cr  Cr5  1  0.99287111  0.32897182  0.32535629  1
  Ni  Ni6  1  0.98943152  0.65912543  -0.00287897  1
  Cr  Cr7  1  0.15866790  0.82279022  0.16072447  1
  Fe  Fe8  1  0.99333002  0.65835239  0.32460162  1
  Fe  Fe9  1  0.32687120  0.99188100  -0.00570790  1
  Cr  Cr10  1  0.49725750  0.16025572  0.15808939  1
  Cr  Cr11  1  0.32712655  -0.00617360  0.32526480  1
  Cr  Cr12  1  0.32589412  0.32684220  -0.00582336  1
  Cr  Cr13  1  0.49480026  0.49259050  0.15995360  1
  Cr  Cr14  1  0.32537662  0.32737878  0.32564706  1
  Cr  Cr15  1  0.32791719  0.65856835  -0.00414034  1
  Cr  Cr16  1  0.49440157  0.82751532  0.16105925  1
  Fe  Fe17  1  0.32554745  0.65793518  0.32497226  1
  Ni  Ni18  1  0.66016019  0.99023115  -0.00544628  1
  Cr  Cr19  1  0.82383307  0.16128599  0.15989107  1
  Fe  Fe20  1  0.66095944  -0.00621185  0.32556488  1
  Fe  Fe21  1  0.66229290  0.32835476  -0.00571408  1
  Fe  Fe22  1  0.82794967  0.49550073  0.15947379  1
  Fe  Fe23  1  0.66074304  0.32827891  0.32634527  1
  Fe  Fe24  1  0.66317414  0.66152134  -0.00593013  1
  Cr  Cr25  1  0.82770960  0.82795942  0.15984575  1
  Cr  Cr26  1  0.66173045  0.65933705  0.32697581  1
  Fe  Fe27  1  0.16092042  0.15985205  0.49257869  1
  Cr  Cr28  1  0.99261720  -0.00638723  0.66061000  1
  Cr  Cr29  1  0.15991399  0.16029922  0.82608709  1
  Cr  Cr30  1  0.15897392  0.49591866  0.49360995  1
  Cr  Cr31  1  -0.00638445  0.32576039  0.65800013  1
  Cr  Cr32  1  0.15938333  0.49572480  0.82673769  1
  Cr  Cr33  1  0.15964743  0.82401940  0.49138541  1
  Cr  Cr34  1  0.98899243  0.66112540  0.66120912  1
  Cr  Cr35  1  0.15747081  0.82399731  0.82847418  1
  Cr  Cr36  1  0.49659796  0.16068032  0.49146769  1
  Cr  Cr37  1  0.32682899  -0.00587976  0.66030241  1
  Cr  Cr38  1  0.49599568  0.16043951  0.83053661  1
  Cr  Cr39  1  0.49328689  0.49327430  0.49402628  1
  Cr  Cr40  1  0.32614337  0.32540855  0.66011232  1
  Cr  Cr41  1  0.49456506  0.49256983  0.82677317  1
  Cr  Cr42  1  0.49280305  0.82645275  0.49015533  1
  Cr  Cr43  1  0.33022176  0.66095932  0.65941439  1
  Cr  Cr44  1  0.49447654  0.82723225  0.82960557  1
  Cr  Cr45  1  0.82582009  0.16170426  0.49151598  1
  Cr  Cr46  1  0.66114941  0.99017157  0.66024525  1
  Cr  Cr47  1  0.82480449  0.15946345  0.82814206  1
  Fe  Fe48  1  0.82673699  0.49485668  0.49212546  1
  Cr  Cr49  1  0.66129805  0.32948557  0.65904276  1
  Cr  Cr50  1  0.82775637  0.49421135  0.82905344  1
  Cr  Cr51  1  0.82813242  0.82730907  0.49234848  1
  Cr  Cr52  1  0.66142392  0.66209059  0.66255136  1
  Ni  Ni53  1  0.82578060  0.82562674  0.83134853  1
" 