1987,Ni8Fe20Cr71_13,-210.106776228662, 193.086146626667,Ni8Fe20Cr71,"# generated using pymatgen
 data_Cr20Fe5Ni2
_symmetry_space_group_name_H-M   'P 1'
_cell_length_a   7.56196861
_cell_length_b   7.56196861
_cell_length_c   10.69423856
_cell_angle_alpha   90.00000000
_cell_angle_beta   90.00000000
_cell_angle_gamma   90.00000000
_symmetry_Int_Tables_number   1
_chemical_formula_structural   Cr20Fe5Ni2
_chemical_formula_sum   'Cr40 Fe10 Ni4'
_cell_volume   611.53259222
_cell_formula_units_Z   2
loop_
 _symmetry_equiv_pos_site_id
 _symmetry_equiv_pos_as_xyz
  1  'x, y, z'
loop_
 _atom_site_type_symbol
 _atom_site_label
 _atom_site_symmetry_multiplicity
 _atom_site_fract_x
 _atom_site_fract_y
 _atom_site_fract_z
 _atom_site_occupancy
  Cr  Cr0  1  -0.00508728  0.99272950  -0.00568174  1
  Cr  Cr1  1  0.16295485  0.16106543  0.15752261  1
  Cr  Cr2  1  -0.00450018  0.99221994  0.32217240  1
  Cr  Cr3  1  0.99333332  0.32629577  0.99140134  1
  Cr  Cr4  1  0.16143400  0.49627868  0.16161823  1
  Cr  Cr5  1  -0.00625858  0.32816342  0.32881339  1
  Ni  Ni6  1  -0.00245723  0.65967489  -0.00350085  1
  Fe  Fe7  1  0.16145586  0.82335610  0.15841735  1
  Fe  Fe8  1  -0.00561261  0.66076721  0.32654495  1
  Cr  Cr9  1  0.32611551  0.99165066  0.99369010  1
  Cr  Cr10  1  0.49188404  0.16120676  0.16238215  1
  Cr  Cr11  1  0.32693973  0.99221359  0.32779881  1
  Fe  Fe12  1  0.32577166  0.32932311  0.99194338  1
  Cr  Cr13  1  0.49120714  0.49482262  0.15523096  1
  Cr  Cr14  1  0.32741279  0.32762365  0.32780740  1
  Ni  Ni15  1  0.32736565  0.65960012  0.99164263  1
  Cr  Cr16  1  0.49232927  0.82566966  0.15953789  1
  Cr  Cr17  1  0.32572770  0.66114303  0.32935734  1
  Cr  Cr18  1  0.66031580  0.99357744  0.99318309  1
  Cr  Cr19  1  0.82619705  0.15996189  0.16122352  1
  Cr  Cr20  1  0.65919363  0.99371163  0.32934490  1
  Cr  Cr21  1  0.65982013  0.32953027  -0.00505488  1
  Cr  Cr22  1  0.82803138  0.49678819  0.16026302  1
  Cr  Cr23  1  0.66019982  0.32768145  0.32618200  1
  Fe  Fe24  1  0.65910656  0.66202785  0.99148834  1
  Cr  Cr25  1  0.82888255  0.82440689  0.15934718  1
  Cr  Cr26  1  0.65952056  0.65974129  0.32706468  1
  Cr  Cr27  1  0.16156459  0.16140347  0.49665073  1
  Cr  Cr28  1  -0.00554315  -0.00568210  0.66427856  1
  Fe  Fe29  1  0.16179070  0.16022340  0.82715341  1
  Fe  Fe30  1  0.15970253  0.49331895  0.49389568  1
  Fe  Fe31  1  -0.00590524  0.32726462  0.66067293  1
  Cr  Cr32  1  0.16185213  0.49295074  0.82595696  1
  Cr  Cr33  1  0.15998806  0.82591345  0.49129033  1
  Cr  Cr34  1  -0.00474754  0.65870004  0.65788878  1
  Cr  Cr35  1  0.16168230  0.82492836  0.82979669  1
  Fe  Fe36  1  0.49427675  0.15855541  0.49516075  1
  Cr  Cr37  1  0.32880391  0.99138454  0.66013218  1
  Cr  Cr38  1  0.49224529  0.15994640  0.82694559  1
  Cr  Cr39  1  0.49241457  0.49304863  0.49368070  1
  Cr  Cr40  1  0.32579307  0.32867015  0.66138848  1
  Fe  Fe41  1  0.49284336  0.49692993  0.82959769  1
  Fe  Fe42  1  0.49534500  0.82903287  0.49566093  1
  Cr  Cr43  1  0.32833846  0.66106106  0.65928302  1
  Ni  Ni44  1  0.49295649  0.82580216  0.82664902  1
  Cr  Cr45  1  0.82599750  0.15903799  0.49591157  1
  Ni  Ni46  1  0.65734208  0.99352029  0.65915267  1
  Cr  Cr47  1  0.82694654  0.15988667  0.82392831  1
  Cr  Cr48  1  0.82916095  0.49457367  0.49334733  1
  Cr  Cr49  1  0.66052208  0.32810751  0.65977099  1
  Cr  Cr50  1  0.82774021  0.49561190  0.82779890  1
  Cr  Cr51  1  0.82622283  0.82776666  0.49490424  1
  Cr  Cr52  1  0.65743755  0.66173424  0.66317311  1
  Cr  Cr53  1  0.82503055  0.82616266  0.82727496  1
" 