475,Ni8Fe66Cr24_9,-223.555223447552, 165.249566077271,Ni8Fe66Cr24,"# generated using pymatgen
 data_Cr7(Fe9Ni)2
_symmetry_space_group_name_H-M   'P 1'
_cell_length_a   7.47634401
_cell_length_b   7.47634401
_cell_length_c   10.57314710
_cell_angle_alpha   90.00000000
_cell_angle_beta   90.00000000
_cell_angle_gamma   90.00000000
_symmetry_Int_Tables_number   1
_chemical_formula_structural   Cr7(Fe9Ni)2
_chemical_formula_sum   'Cr14 Fe36 Ni4'
_cell_volume   590.99366738
_cell_formula_units_Z   2
loop_
 _symmetry_equiv_pos_site_id
 _symmetry_equiv_pos_as_xyz
  1  'x, y, z'
loop_
 _atom_site_type_symbol
 _atom_site_label
 _atom_site_symmetry_multiplicity
 _atom_site_fract_x
 _atom_site_fract_y
 _atom_site_fract_z
 _atom_site_occupancy
  Cr  Cr0  1  0.00233925  0.99912536  -0.00042477  1
  Fe  Fe1  1  0.16703493  0.16645188  0.16570724  1
  Fe  Fe2  1  0.99873767  0.99778443  0.33005402  1
  Fe  Fe3  1  0.00006253  0.33262916  0.99902109  1
  Fe  Fe4  1  0.16671379  0.50005085  0.16553613  1
  Cr  Cr5  1  0.00174113  0.32894738  0.33250293  1
  Fe  Fe6  1  0.00124556  0.66629781  0.99888371  1
  Fe  Fe7  1  0.16630458  0.83127070  0.16738911  1
  Fe  Fe8  1  -0.00043058  0.66775408  0.33131354  1
  Fe  Fe9  1  0.33406459  0.00005016  0.00052096  1
  Fe  Fe10  1  0.50052110  0.16544700  0.16472932  1
  Fe  Fe11  1  0.33411627  0.00101950  0.33126244  1
  Fe  Fe12  1  0.33340867  0.33335950  -0.00048362  1
  Ni  Ni13  1  0.49417035  0.49898486  0.16538577  1
  Fe  Fe14  1  0.33378968  0.33221961  0.33108035  1
  Fe  Fe15  1  0.33072623  0.66480772  0.00006659  1
  Fe  Fe16  1  0.50057439  0.83344535  0.16581576  1
  Fe  Fe17  1  0.33319921  0.66484435  0.33013046  1
  Fe  Fe18  1  0.66587533  0.00060105  0.00093155  1
  Ni  Ni19  1  0.83237605  0.16360129  0.16438440  1
  Fe  Fe20  1  0.66578631  -0.00013868  0.33072167  1
  Fe  Fe21  1  0.66385683  0.33041461  0.99929769  1
  Cr  Cr22  1  0.83351250  0.49791923  0.16509825  1
  Cr  Cr23  1  0.66285458  0.33410959  0.33116977  1
  Cr  Cr24  1  0.66448426  0.66430490  -0.00010594  1
  Ni  Ni25  1  0.83386572  0.83547856  0.16770394  1
  Cr  Cr26  1  0.66454934  0.66626484  0.33511435  1
  Fe  Fe27  1  0.16996190  0.16547882  0.49945160  1
  Cr  Cr28  1  0.00290242  0.00066967  0.66774688  1
  Fe  Fe29  1  0.16979219  0.16860135  0.83338505  1
  Cr  Cr30  1  0.16731173  0.49899811  0.49938944  1
  Fe  Fe31  1  0.00019737  0.33306109  0.66767808  1
  Fe  Fe32  1  0.16794940  0.49862501  0.83362539  1
  Cr  Cr33  1  0.16818262  0.83220689  0.49807488  1
  Cr  Cr34  1  0.99746595  0.66715306  0.66890995  1
  Fe  Fe35  1  0.16816642  0.83098201  0.83383778  1
  Fe  Fe36  1  0.49522761  0.16430105  0.49935012  1
  Fe  Fe37  1  0.33503137  0.00134692  0.66586904  1
  Fe  Fe38  1  0.49832698  0.16784446  0.83380406  1
  Fe  Fe39  1  0.49597533  0.49880768  0.49915360  1
  Fe  Fe40  1  0.33133409  0.33225701  0.66750383  1
  Ni  Ni41  1  0.49627397  0.49857990  0.83275332  1
  Fe  Fe42  1  0.49877187  0.83582815  0.49968850  1
  Fe  Fe43  1  0.33290861  0.66436075  0.66711353  1
  Cr  Cr44  1  0.49789942  0.83392942  0.83212715  1
  Cr  Cr45  1  0.83167025  0.16489135  0.49887411  1
  Fe  Fe46  1  0.66565771  -0.00041054  0.66605603  1
  Fe  Fe47  1  0.83031821  0.16756404  0.83435571  1
  Fe  Fe48  1  0.83473853  0.49981870  0.49863103  1
  Cr  Cr49  1  0.66345555  0.33512605  0.66603172  1
  Fe  Fe50  1  0.83205422  0.49756030  0.83498628  1
  Fe  Fe51  1  0.83324545  0.83353105  0.49743395  1
  Cr  Cr52  1  0.66478462  0.66536186  0.66302952  1
  Fe  Fe53  1  0.83134299  0.83290780  0.83475982  1
" 