6460,Ni8Fe20Cr71_6,-210.164251792945, 189.815970455555,Ni8Fe20Cr71,"# generated using pymatgen
 data_Cr20Fe5Ni2
_symmetry_space_group_name_H-M   'P 1'
_cell_length_a   7.56883928
_cell_length_b   7.56883928
_cell_length_c   10.70395517
_cell_angle_alpha   90.00000000
_cell_angle_beta   90.00000000
_cell_angle_gamma   90.00000000
_symmetry_Int_Tables_number   1
_chemical_formula_structural   Cr20Fe5Ni2
_chemical_formula_sum   'Cr40 Fe10 Ni4'
_cell_volume   613.20099154
_cell_formula_units_Z   2
loop_
 _symmetry_equiv_pos_site_id
 _symmetry_equiv_pos_as_xyz
  1  'x, y, z'
loop_
 _atom_site_type_symbol
 _atom_site_label
 _atom_site_symmetry_multiplicity
 _atom_site_fract_x
 _atom_site_fract_y
 _atom_site_fract_z
 _atom_site_occupancy
  Cr  Cr0  1  -0.00645651  -0.00513744  0.99199661  1
  Ni  Ni1  1  0.16100223  0.15975693  0.16193572  1
  Cr  Cr2  1  -0.00620031  -0.00444019  0.32642873  1
  Cr  Cr3  1  -0.00449427  0.32551431  0.99259906  1
  Cr  Cr4  1  0.15946249  0.49216281  0.16033266  1
  Ni  Ni5  1  0.99231384  0.32449970  0.32568864  1
  Cr  Cr6  1  0.99227260  0.65938155  0.99317282  1
  Cr  Cr7  1  0.16209024  0.82855176  0.16017012  1
  Cr  Cr8  1  0.99079696  0.65843012  0.32540936  1
  Cr  Cr9  1  0.32793382  -0.00414809  -0.00295342  1
  Fe  Fe10  1  0.49281892  0.15759365  0.16056944  1
  Fe  Fe11  1  0.32774804  -0.00617032  0.32454524  1
  Cr  Cr12  1  0.32608452  0.32434030  0.99299892  1
  Cr  Cr13  1  0.49512587  0.49255332  0.15943534  1
  Cr  Cr14  1  0.32566433  0.32354887  0.32440112  1
  Cr  Cr15  1  0.32787642  0.65941259  0.99287134  1
  Ni  Ni16  1  0.49470986  0.82967648  0.16271066  1
  Cr  Cr17  1  0.33033138  0.66197804  0.32675558  1
  Fe  Fe18  1  0.65827756  -0.00638123  -0.00520969  1
  Cr  Cr19  1  0.82528480  0.16122205  0.16010231  1
  Fe  Fe20  1  0.65785304  0.99276344  0.32563813  1
  Fe  Fe21  1  0.65957413  0.32546183  -0.00621155  1
  Cr  Cr22  1  0.82533180  0.49117662  0.16217547  1
  Fe  Fe23  1  0.66106866  0.32611785  0.32624983  1
  Cr  Cr24  1  0.65956979  0.66156483  -0.00511318  1
  Cr  Cr25  1  0.82489367  0.82748358  0.15853062  1
  Fe  Fe26  1  0.65901268  0.66101962  0.32592292  1
  Cr  Cr27  1  0.15954546  0.15917799  0.49171694  1
  Cr  Cr28  1  -0.00670496  -0.00553490  0.66135261  1
  Ni  Ni29  1  0.16005427  0.16093012  0.82642065  1
  Cr  Cr30  1  0.16040711  0.49397321  0.49399483  1
  Cr  Cr31  1  -0.00478685  0.32602031  0.66065623  1
  Fe  Fe32  1  0.16030063  0.49185713  0.82639388  1
  Cr  Cr33  1  0.16241220  0.82670408  0.49399954  1
  Cr  Cr34  1  0.99302278  0.65927124  0.66133777  1
  Cr  Cr35  1  0.16062397  0.82617695  0.82561208  1
  Cr  Cr36  1  0.49425622  0.15916065  0.49162876  1
  Cr  Cr37  1  0.32712771  -0.00608759  0.65847842  1
  Cr  Cr38  1  0.49403778  0.16076898  0.82880758  1
  Cr  Cr39  1  0.49361403  0.49422703  0.49418656  1
  Cr  Cr40  1  0.32519716  0.32685942  0.66259030  1
  Cr  Cr41  1  0.49192407  0.49275671  0.82602933  1
  Fe  Fe42  1  0.49336034  0.82689991  0.49157376  1
  Fe  Fe43  1  0.32661417  0.65996035  0.65989785  1
  Cr  Cr44  1  0.49201822  0.82631555  0.82566526  1
  Cr  Cr45  1  0.82601875  0.16107369  0.49254345  1
  Cr  Cr46  1  0.65951640  0.99171850  0.65953388  1
  Cr  Cr47  1  0.82587716  0.15967463  0.82710218  1
  Cr  Cr48  1  0.82573769  0.49140980  0.48945588  1
  Cr  Cr49  1  0.65937515  0.32686763  0.65999409  1
  Cr  Cr50  1  0.82576810  0.49206071  0.82803075  1
  Cr  Cr51  1  0.82590997  0.82733685  0.49283570  1
  Cr  Cr52  1  0.65864350  0.66124267  0.65758581  1
  Cr  Cr53  1  0.82706528  0.82812822  0.82830600  1
" 