4031,Ni8Fe66Cr24_1,-223.41988023104, 157.105102107752,Ni8Fe66Cr24,"# generated using pymatgen
 data_Cr7(Fe9Ni)2
_symmetry_space_group_name_H-M   'P 1'
_cell_length_a   7.47848267
_cell_length_b   7.47848267
_cell_length_c   10.57617162
_cell_angle_alpha   90.00000000
_cell_angle_beta   90.00000000
_cell_angle_gamma   90.00000000
_symmetry_Int_Tables_number   1
_chemical_formula_structural   Cr7(Fe9Ni)2
_chemical_formula_sum   'Cr14 Fe36 Ni4'
_cell_volume   591.50098605
_cell_formula_units_Z   2
loop_
 _symmetry_equiv_pos_site_id
 _symmetry_equiv_pos_as_xyz
  1  'x, y, z'
loop_
 _atom_site_type_symbol
 _atom_site_label
 _atom_site_symmetry_multiplicity
 _atom_site_fract_x
 _atom_site_fract_y
 _atom_site_fract_z
 _atom_site_occupancy
  Fe  Fe0  1  0.00043643  0.99922840  0.00001203  1
  Fe  Fe1  1  0.16426453  0.16616692  0.16291247  1
  Cr  Cr2  1  0.99876572  0.00038965  0.33074828  1
  Fe  Fe3  1  0.99761121  0.33130681  0.99914481  1
  Fe  Fe4  1  0.16518965  0.50017987  0.16420577  1
  Fe  Fe5  1  0.00029937  0.33259986  0.32981451  1
  Fe  Fe6  1  0.99761143  0.66739609  0.00068961  1
  Fe  Fe7  1  0.16554545  0.83142250  0.16341883  1
  Fe  Fe8  1  0.99742641  0.66616352  0.32936935  1
  Fe  Fe9  1  0.33137555  0.99810296  0.99894922  1
  Cr  Cr10  1  0.49864174  0.16620065  0.16449841  1
  Cr  Cr11  1  0.33112268  0.99787993  0.33287307  1
  Fe  Fe12  1  0.33204302  0.33311443  0.99857448  1
  Fe  Fe13  1  0.49987407  0.50152923  0.16482646  1
  Fe  Fe14  1  0.32985806  0.33211179  0.33013800  1
  Fe  Fe15  1  0.33372878  0.66739235  0.99886542  1
  Fe  Fe16  1  0.49964324  0.82905297  0.16510268  1
  Fe  Fe17  1  0.33202588  0.66612546  0.33008599  1
  Cr  Cr18  1  0.66839426  0.99803255  0.00144835  1
  Fe  Fe19  1  0.83553083  0.16724736  0.16310762  1
  Cr  Cr20  1  0.66853294  0.99789473  0.33133144  1
  Fe  Fe21  1  0.66730950  0.33396928  0.99864137  1
  Fe  Fe22  1  0.83301737  0.50045791  0.16380794  1
  Cr  Cr23  1  0.66883672  0.33340020  0.33209638  1
  Fe  Fe24  1  0.66627907  0.66518482  0.99881095  1
  Ni  Ni25  1  0.83401357  0.83054499  0.16464921  1
  Fe  Fe26  1  0.66744322  0.66733313  0.33052970  1
  Fe  Fe27  1  0.16502025  0.16477351  0.50074670  1
  Fe  Fe28  1  0.00121212  -0.00068733  0.66717127  1
  Fe  Fe29  1  0.16453403  0.16346904  0.83455921  1
  Cr  Cr30  1  0.16148081  0.49962915  0.49667341  1
  Fe  Fe31  1  0.99548293  0.33233112  0.66752609  1
  Cr  Cr32  1  0.16233731  0.50149404  0.83441174  1
  Fe  Fe33  1  0.16619274  0.83304178  0.49992056  1
  Fe  Fe34  1  0.99754993  0.66820161  0.66649434  1
  Fe  Fe35  1  0.16487114  0.83592063  0.83447832  1
  Cr  Cr36  1  0.49998898  0.16422572  0.50131810  1
  Fe  Fe37  1  0.33309967  0.99659926  0.66728522  1
  Fe  Fe38  1  0.50060842  0.16486922  0.83463832  1
  Cr  Cr39  1  0.49758183  0.49956863  0.49714906  1
  Cr  Cr40  1  0.33112600  0.33158483  0.66868252  1
  Fe  Fe41  1  0.50052244  0.49893962  0.83601052  1
  Ni  Ni42  1  0.50008209  0.83169964  0.49620676  1
  Cr  Cr43  1  0.33221503  0.66753574  0.66726942  1
  Ni  Ni44  1  0.49890538  0.83430182  0.83563175  1
  Fe  Fe45  1  0.83594387  0.16741845  0.50136489  1
  Cr  Cr46  1  0.66814840  0.99748564  0.66514932  1
  Ni  Ni47  1  0.83304563  0.16619575  0.83356186  1
  Fe  Fe48  1  0.83144363  0.50053077  0.49951342  1
  Fe  Fe49  1  0.66759653  0.33261135  0.66857324  1
  Fe  Fe50  1  0.83066491  0.49876537  0.83471973  1
  Fe  Fe51  1  0.83409171  0.82947929  0.49789759  1
  Cr  Cr52  1  0.66559706  0.66542430  0.66792562  1
  Fe  Fe53  1  0.83455180  0.83287801  0.83518403  1
" 