8679,Ni8Fe78Cr13_2,-224.735802680214, 157.096672918016,Ni8Fe78Cr13,"# generated using pymatgen
 data_Cr4Fe21Ni2
_symmetry_space_group_name_H-M   'P 1'
_cell_length_a   7.44406527
_cell_length_b   7.44406527
_cell_length_c   10.52749806
_cell_angle_alpha   90.00000000
_cell_angle_beta   90.00000000
_cell_angle_gamma   90.00000000
_symmetry_Int_Tables_number   1
_chemical_formula_structural   Cr4Fe21Ni2
_chemical_formula_sum   'Cr8 Fe42 Ni4'
_cell_volume   583.37191171
_cell_formula_units_Z   2
loop_
 _symmetry_equiv_pos_site_id
 _symmetry_equiv_pos_as_xyz
  1  'x, y, z'
loop_
 _atom_site_type_symbol
 _atom_site_label
 _atom_site_symmetry_multiplicity
 _atom_site_fract_x
 _atom_site_fract_y
 _atom_site_fract_z
 _atom_site_occupancy
  Cr  Cr0  1  0.00185169  0.00185947  1.00123738  1
  Fe  Fe1  1  0.16783176  0.17000122  0.16855831  1
  Fe  Fe2  1  1.00083423  1.00143552  0.33399418  1
  Fe  Fe3  1  0.00386657  0.33586183  0.00293844  1
  Fe  Fe4  1  0.16709644  0.50048320  0.16913879  1
  Ni  Ni5  1  1.00102894  0.33605178  0.33346248  1
  Fe  Fe6  1  1.00062082  0.66734606  0.00221128  1
  Fe  Fe7  1  0.16756650  0.83414856  0.16888772  1
  Fe  Fe8  1  0.00175172  0.66789267  0.33481724  1
  Fe  Fe9  1  0.33684005  0.00344893  1.00129062  1
  Fe  Fe10  1  0.50154318  0.16804893  0.16754015  1
  Cr  Cr11  1  0.33381543  0.00186869  0.33425494  1
  Fe  Fe12  1  0.33359476  0.33289162  1.00059745  1
  Fe  Fe13  1  0.50153678  0.50168684  0.17022596  1
  Fe  Fe14  1  0.33460389  0.33661908  0.33576518  1
  Cr  Cr15  1  0.33532294  0.66864067  1.00034396  1
  Fe  Fe16  1  0.50301480  0.83489466  0.16836789  1
  Fe  Fe17  1  0.33391473  0.66524699  0.33421934  1
  Fe  Fe18  1  0.66622480  1.00020186  1.00120782  1
  Fe  Fe19  1  0.83525402  0.16852216  0.17023727  1
  Fe  Fe20  1  0.67027521  0.00212422  0.33334701  1
  Cr  Cr21  1  0.66799691  0.33467141  0.00208742  1
  Fe  Fe22  1  0.83599830  0.50195291  0.16895864  1
  Fe  Fe23  1  0.66763144  0.33570466  0.33422868  1
  Fe  Fe24  1  0.66919624  0.67058971  0.00232779  1
  Fe  Fe25  1  0.83405005  0.83415765  0.16887194  1
  Fe  Fe26  1  0.66896398  0.66679932  0.33444132  1
  Fe  Fe27  1  0.16889863  0.17063754  0.50148187  1
  Fe  Fe28  1  1.00136304  1.00122969  0.66911869  1
  Fe  Fe29  1  0.16893498  0.17021101  0.83458932  1
  Fe  Fe30  1  0.16885998  0.50090839  0.50156498  1
  Fe  Fe31  1  0.00380921  0.33464097  0.66770267  1
  Fe  Fe32  1  0.16974876  0.49993105  0.83392116  1
  Fe  Fe33  1  0.16564578  0.83308807  0.50154617  1
  Fe  Fe34  1  0.00302935  0.66876100  0.66760369  1
  Fe  Fe35  1  0.16778758  0.83449052  0.83419459  1
  Fe  Fe36  1  0.50123668  0.17199595  0.50246729  1
  Cr  Cr37  1  0.33389879  0.00274427  0.66948085  1
  Ni  Ni38  1  0.50077732  0.16704453  0.83472613  1
  Ni  Ni39  1  0.50044162  0.50073001  0.50199491  1
  Ni  Ni40  1  0.33593193  0.33633883  0.66797914  1
  Fe  Fe41  1  0.49975854  0.50062440  0.83252165  1
  Cr  Cr42  1  0.50217438  0.83295107  0.50167638  1
  Fe  Fe43  1  0.33440431  0.66509146  0.66877498  1
  Fe  Fe44  1  0.50328475  0.83536977  0.83483445  1
  Cr  Cr45  1  0.83539763  0.16811355  0.50233994  1
  Fe  Fe46  1  0.66888523  0.00243369  0.67007779  1
  Fe  Fe47  1  0.83425177  0.16667791  0.83325789  1
  Fe  Fe48  1  0.83435146  0.50293411  0.50137803  1
  Fe  Fe49  1  0.66521578  0.33466822  0.66845022  1
  Cr  Cr50  1  0.83656337  0.50197626  0.83449433  1
  Fe  Fe51  1  0.83572428  0.83290951  0.50162891  1
  Fe  Fe52  1  0.66719913  0.66752509  0.66786401  1
  Fe  Fe53  1  0.83355763  0.83618061  0.83412886  1
" 