4629,Ni8Fe18Cr72_4,-209.224593625488, 191.424245986083,Ni8Fe18Cr72,"# generated using pymatgen
 data_Cr41Fe9Ni4
_symmetry_space_group_name_H-M   'P 1'
_cell_length_a   7.56988656
_cell_length_b   7.56988656
_cell_length_c   10.70543624
_cell_angle_alpha   90.00000000
_cell_angle_beta   90.00000000
_cell_angle_gamma   90.00000000
_symmetry_Int_Tables_number   1
_chemical_formula_structural   Cr41Fe9Ni4
_chemical_formula_sum   'Cr41 Fe9 Ni4'
_cell_volume   613.45556696
_cell_formula_units_Z   1
loop_
 _symmetry_equiv_pos_site_id
 _symmetry_equiv_pos_as_xyz
  1  'x, y, z'
loop_
 _atom_site_type_symbol
 _atom_site_label
 _atom_site_symmetry_multiplicity
 _atom_site_fract_x
 _atom_site_fract_y
 _atom_site_fract_z
 _atom_site_occupancy
  Fe  Fe0  1  -0.00554401  0.99092159  0.99191781  1
  Cr  Cr1  1  0.16276798  0.15858293  0.15913044  1
  Cr  Cr2  1  -0.00652233  -0.00596642  0.32750955  1
  Cr  Cr3  1  -0.00657944  0.32559410  0.99269566  1
  Cr  Cr4  1  0.15875700  0.49442081  0.16005677  1
  Cr  Cr5  1  0.99120490  0.32634316  0.32790710  1
  Ni  Ni6  1  -0.00595816  0.66175062  0.99208436  1
  Cr  Cr7  1  0.15852950  0.82661649  0.16019657  1
  Fe  Fe8  1  0.99295916  0.66037043  0.32603367  1
  Cr  Cr9  1  0.32477575  0.99269320  -0.00671674  1
  Ni  Ni10  1  0.49298967  0.16105476  0.16160991  1
  Ni  Ni11  1  0.32815891  0.99319039  0.32583521  1
  Cr  Cr12  1  0.32658801  0.32683569  -0.00634363  1
  Fe  Fe13  1  0.49397649  0.49144124  0.16063583  1
  Cr  Cr14  1  0.32771388  0.32645559  0.32467030  1
  Cr  Cr15  1  0.32573112  0.66009341  0.99313355  1
  Cr  Cr16  1  0.49295110  0.82834425  0.16164136  1
  Cr  Cr17  1  0.32759118  0.66088848  0.32534917  1
  Cr  Cr18  1  0.66083144  -0.00643047  0.99283020  1
  Cr  Cr19  1  0.82449854  0.16027482  0.15950692  1
  Cr  Cr20  1  0.65905875  -0.00583777  0.32770979  1
  Cr  Cr21  1  0.65961176  0.32656246  -0.00429990  1
  Cr  Cr22  1  0.82621631  0.49500804  0.16045320  1
  Fe  Fe23  1  0.65849606  0.32590703  0.32566192  1
  Cr  Cr24  1  0.65959076  0.65949020  -0.00636333  1
  Cr  Cr25  1  0.82814593  0.82433640  0.15848367  1
  Fe  Fe26  1  0.65982234  0.65919239  0.32620447  1
  Cr  Cr27  1  0.16162996  0.15997040  0.49342707  1
  Cr  Cr28  1  -0.00670017  -0.00584708  0.66074226  1
  Fe  Fe29  1  0.15987084  0.15812444  0.82649464  1
  Cr  Cr30  1  0.15835419  0.49342952  0.49451505  1
  Cr  Cr31  1  -0.00617272  0.32561021  0.65901788  1
  Cr  Cr32  1  0.15891693  0.49401737  0.82504758  1
  Cr  Cr33  1  0.15921754  0.82622593  0.49137582  1
  Fe  Fe34  1  -0.00597300  0.66082970  0.66124930  1
  Ni  Ni35  1  0.15731216  0.82670837  0.82746812  1
  Cr  Cr36  1  0.49275818  0.15969548  0.49301235  1
  Cr  Cr37  1  0.32526697  0.99234481  0.66052056  1
  Cr  Cr38  1  0.49142037  0.16050804  0.82546807  1
  Cr  Cr39  1  0.49391927  0.49159585  0.49352319  1
  Fe  Fe40  1  0.32622846  0.32611522  0.66023948  1
  Cr  Cr41  1  0.49253992  0.49147330  0.82556680  1
  Cr  Cr42  1  0.49333003  0.82832719  0.49248088  1
  Cr  Cr43  1  0.32582854  0.65971961  0.66113892  1
  Cr  Cr44  1  0.49248164  0.82763741  0.82550033  1
  Fe  Fe45  1  0.82619483  0.16027379  0.49286917  1
  Cr  Cr46  1  0.66105718  0.99320495  0.65908141  1
  Cr  Cr47  1  0.82709251  0.15909062  0.82743428  1
  Cr  Cr48  1  0.82734619  0.49400272  0.49222455  1
  Cr  Cr49  1  0.66092312  0.32617134  0.65888757  1
  Cr  Cr50  1  0.82816563  0.49507794  0.82694820  1
  Cr  Cr51  1  0.82707525  0.82505857  0.49273992  1
  Cr  Cr52  1  0.65911329  0.66024639  0.66029039  1
  Cr  Cr53  1  0.82963801  0.82545183  0.82840010  1
" 