7098,Ni8Fe78Cr13_7,-225.011529782721, 157.203920900972,Ni8Fe78Cr13,"# generated using pymatgen
 data_Cr4Fe21Ni2
_symmetry_space_group_name_H-M   'P 1'
_cell_length_a   7.44799415
_cell_length_b   7.44799415
_cell_length_c   10.53305434
_cell_angle_alpha   90.00000000
_cell_angle_beta   90.00000000
_cell_angle_gamma   90.00000000
_symmetry_Int_Tables_number   1
_chemical_formula_structural   Cr4Fe21Ni2
_chemical_formula_sum   'Cr8 Fe42 Ni4'
_cell_volume   584.29608756
_cell_formula_units_Z   2
loop_
 _symmetry_equiv_pos_site_id
 _symmetry_equiv_pos_as_xyz
  1  'x, y, z'
loop_
 _atom_site_type_symbol
 _atom_site_label
 _atom_site_symmetry_multiplicity
 _atom_site_fract_x
 _atom_site_fract_y
 _atom_site_fract_z
 _atom_site_occupancy
  Fe  Fe0  1  1.00015981  1.00059631  0.99881700  1
  Fe  Fe1  1  0.16907660  0.16622973  0.16724017  1
  Fe  Fe2  1  0.00164087  0.00313165  0.33570486  1
  Cr  Cr3  1  0.00303952  0.33588450  0.00336110  1
  Fe  Fe4  1  0.17002351  0.50359804  0.16665999  1
  Fe  Fe5  1  1.00076808  0.33329188  0.33276922  1
  Fe  Fe6  1  0.99985986  0.66903570  1.00056888  1
  Cr  Cr7  1  0.16874000  0.83746417  0.16514949  1
  Cr  Cr8  1  0.00270973  0.66703265  0.33341659  1
  Fe  Fe9  1  0.33762735  1.00127095  1.00007630  1
  Fe  Fe10  1  0.50210466  0.16479233  0.16646840  1
  Fe  Fe11  1  0.33563904  1.00059191  0.33513311  1
  Fe  Fe12  1  0.33793852  0.33418379  0.00201080  1
  Fe  Fe13  1  0.50229343  0.50387847  0.16645618  1
  Cr  Cr14  1  0.33422894  0.33709142  0.33100061  1
  Ni  Ni15  1  0.33469606  0.66579576  0.00188835  1
  Ni  Ni16  1  0.50105412  0.83482242  0.16742537  1
  Fe  Fe17  1  0.33603359  0.66979055  0.33341073  1
  Ni  Ni18  1  0.66807283  1.00078690  1.00127480  1
  Fe  Fe19  1  0.83310100  0.16452077  0.16754521  1
  Fe  Fe20  1  0.66705589  1.00063338  0.33372184  1
  Fe  Fe21  1  0.66629196  0.33490042  0.00143444  1
  Fe  Fe22  1  0.83160926  0.50263171  0.16790043  1
  Fe  Fe23  1  0.66898835  0.33369322  0.33222042  1
  Fe  Fe24  1  0.66666418  0.66847410  0.00164556  1
  Fe  Fe25  1  0.83239394  0.83594107  0.16680440  1
  Fe  Fe26  1  0.66647627  0.66881928  0.33299691  1
  Fe  Fe27  1  0.16823049  0.17023512  0.50108220  1
  Cr  Cr28  1  0.99988874  1.00040445  0.66817772  1
  Fe  Fe29  1  0.16996425  0.16764501  0.83549045  1
  Ni  Ni30  1  0.16808371  0.50111165  0.50285957  1
  Fe  Fe31  1  0.00271258  0.33424694  0.67061137  1
  Fe  Fe32  1  0.16965160  0.50240216  0.83413785  1
  Fe  Fe33  1  0.17006675  0.83289852  0.50121633  1
  Fe  Fe34  1  0.00227773  0.66797233  0.66897908  1
  Fe  Fe35  1  0.16940798  0.83360426  0.83717915  1
  Fe  Fe36  1  0.50006451  0.16909835  0.50014185  1
  Fe  Fe37  1  0.33410234  1.00085580  0.66822001  1
  Fe  Fe38  1  0.50110090  0.16782603  0.83594773  1
  Cr  Cr39  1  0.50171860  0.50218590  0.50268587  1
  Fe  Fe40  1  0.33381621  0.33275834  0.66859251  1
  Fe  Fe41  1  0.50049754  0.50170377  0.83457939  1
  Fe  Fe42  1  0.49970334  0.83438738  0.49922506  1
  Fe  Fe43  1  0.33393867  0.67031506  0.67006681  1
  Fe  Fe44  1  0.50042883  0.83397737  0.83787197  1
  Fe  Fe45  1  0.83445413  0.16835354  0.49939984  1
  Cr  Cr46  1  0.66612767  1.00031633  0.66689088  1
  Fe  Fe47  1  0.83309732  0.16835903  0.83680813  1
  Cr  Cr48  1  0.83438128  0.49907736  0.50346503  1
  Fe  Fe49  1  0.66755210  0.33314942  0.67114385  1
  Fe  Fe50  1  0.83411095  0.50166981  0.83417924  1
  Fe  Fe51  1  0.83383797  0.83284814  0.49959743  1
  Fe  Fe52  1  0.66795184  0.66917391  0.67071850  1
  Fe  Fe53  1  0.83361601  0.83361235  0.83670241  1
" 