1029,Ni8Fe20Cr71_16,-209.909985688388, 189.413483860547,Ni8Fe20Cr71,"# generated using pymatgen
 data_Cr20Fe5Ni2
_symmetry_space_group_name_H-M   'P 1'
_cell_length_a   7.56614796
_cell_length_b   7.56614796
_cell_length_c   10.70014907
_cell_angle_alpha   90.00000000
_cell_angle_beta   90.00000000
_cell_angle_gamma   90.00000000
_symmetry_Int_Tables_number   1
_chemical_formula_structural   Cr20Fe5Ni2
_chemical_formula_sum   'Cr40 Fe10 Ni4'
_cell_volume   612.54710034
_cell_formula_units_Z   2
loop_
 _symmetry_equiv_pos_site_id
 _symmetry_equiv_pos_as_xyz
  1  'x, y, z'
loop_
 _atom_site_type_symbol
 _atom_site_label
 _atom_site_symmetry_multiplicity
 _atom_site_fract_x
 _atom_site_fract_y
 _atom_site_fract_z
 _atom_site_occupancy
  Cr  Cr0  1  0.99279352  0.99340654  -0.00613843  1
  Cr  Cr1  1  0.16095370  0.15876971  0.15914594  1
  Cr  Cr2  1  0.98999267  0.99240462  0.32810107  1
  Cr  Cr3  1  -0.00609083  0.32587021  0.99240179  1
  Cr  Cr4  1  0.15867710  0.49377973  0.16121875  1
  Cr  Cr5  1  0.99332893  0.32611563  0.32729855  1
  Cr  Cr6  1  0.99129007  0.66107775  -0.00580340  1
  Cr  Cr7  1  0.16025448  0.82780051  0.16017160  1
  Cr  Cr8  1  0.99254962  0.66183582  0.32668484  1
  Fe  Fe9  1  0.32851314  0.99249533  0.99214518  1
  Cr  Cr10  1  0.49307774  0.15845258  0.15947621  1
  Cr  Cr11  1  0.32726359  0.99342784  0.32582114  1
  Cr  Cr12  1  0.32673519  0.32555023  0.99319063  1
  Cr  Cr13  1  0.49596804  0.49470768  0.16100770  1
  Cr  Cr14  1  0.32812752  0.32929130  0.32809357  1
  Cr  Cr15  1  0.32942290  0.66146567  0.99188935  1
  Cr  Cr16  1  0.49469991  0.82718698  0.15801916  1
  Cr  Cr17  1  0.32787764  0.65763283  0.32902316  1
  Fe  Fe18  1  0.65884803  0.99038837  0.99299857  1
  Cr  Cr19  1  0.82632309  0.16003728  0.16018407  1
  Cr  Cr20  1  0.66309388  0.99264700  0.32719209  1
  Cr  Cr21  1  0.65970950  0.32705697  -0.00608119  1
  Cr  Cr22  1  0.82570882  0.49541002  0.15821784  1
  Cr  Cr23  1  0.65889835  0.32672530  0.32790388  1
  Ni  Ni24  1  0.65919260  0.66369658  -0.00653210  1
  Fe  Fe25  1  0.82512103  0.82587500  0.15915863  1
  Fe  Fe26  1  0.65998816  0.66001070  0.32715365  1
  Cr  Cr27  1  0.15852324  0.15989732  0.49277009  1
  Cr  Cr28  1  0.99033909  -0.00594768  0.65838145  1
  Fe  Fe29  1  0.16097146  0.15926385  0.82717441  1
  Fe  Fe30  1  0.16150405  0.49294938  0.49347067  1
  Cr  Cr31  1  0.99256871  0.32547827  0.66065107  1
  Cr  Cr32  1  0.15842668  0.49296547  0.82666999  1
  Cr  Cr33  1  0.15958825  0.82612737  0.49267312  1
  Cr  Cr34  1  0.99291473  0.66082082  0.65947167  1
  Cr  Cr35  1  0.16288225  0.82846521  0.82751052  1
  Cr  Cr36  1  0.49592025  0.16131421  0.49365034  1
  Cr  Cr37  1  0.32842919  0.99278510  0.66296980  1
  Cr  Cr38  1  0.49336353  0.15686887  0.82722525  1
  Ni  Ni39  1  0.49519381  0.49453289  0.49386851  1
  Cr  Cr40  1  0.32812609  0.32865306  0.65906810  1
  Cr  Cr41  1  0.49628493  0.49566587  0.82601578  1
  Cr  Cr42  1  0.49457840  0.82498876  0.49450317  1
  Cr  Cr43  1  0.32904065  0.65891399  0.65944708  1
  Ni  Ni44  1  0.49453392  0.82797997  0.82799956  1
  Ni  Ni45  1  0.82608922  0.16004018  0.49479064  1
  Fe  Fe46  1  0.66051929  0.99308629  0.65966381  1
  Cr  Cr47  1  0.82628677  0.16131958  0.82513852  1
  Cr  Cr48  1  0.82477508  0.49298152  0.49470602  1
  Fe  Fe49  1  0.66013511  0.32676046  0.65829209  1
  Cr  Cr50  1  0.82564172  0.49349152  0.82742720  1
  Fe  Fe51  1  0.82511334  0.82778781  0.49389160  1
  Fe  Fe52  1  0.65869974  0.66050722  0.66026862  1
  Cr  Cr53  1  0.82358986  0.82554224  0.82671644  1
" 