2322,Ni8Fe20Cr71_8,-209.8600107791, 192.754263115558,Ni8Fe20Cr71,"# generated using pymatgen
 data_Cr20Fe5Ni2
_symmetry_space_group_name_H-M   'P 1'
_cell_length_a   7.55636519
_cell_length_b   7.55636519
_cell_length_c   10.68631413
_cell_angle_alpha   90.00000000
_cell_angle_beta   90.00000000
_cell_angle_gamma   90.00000000
_symmetry_Int_Tables_number   1
_chemical_formula_structural   Cr20Fe5Ni2
_chemical_formula_sum   'Cr40 Fe10 Ni4'
_cell_volume   610.17416161
_cell_formula_units_Z   2
loop_
 _symmetry_equiv_pos_site_id
 _symmetry_equiv_pos_as_xyz
  1  'x, y, z'
loop_
 _atom_site_type_symbol
 _atom_site_label
 _atom_site_symmetry_multiplicity
 _atom_site_fract_x
 _atom_site_fract_y
 _atom_site_fract_z
 _atom_site_occupancy
  Cr  Cr0  1  0.99146011  -0.00485165  -0.00469241  1
  Cr  Cr1  1  0.16006151  0.15985194  0.16193543  1
  Cr  Cr2  1  0.99150882  -0.00482648  0.32861040  1
  Cr  Cr3  1  0.99348134  0.32855524  -0.00366060  1
  Fe  Fe4  1  0.15899620  0.49477230  0.16161575  1
  Cr  Cr5  1  -0.00474082  0.32772770  0.32665519  1
  Cr  Cr6  1  -0.00588407  0.65851131  0.99269641  1
  Cr  Cr7  1  0.16093836  0.82769790  0.15935711  1
  Cr  Cr8  1  0.99357694  0.65964775  0.32897799  1
  Cr  Cr9  1  0.32890271  -0.00572467  0.99402617  1
  Cr  Cr10  1  0.49419872  0.16017220  0.16150039  1
  Fe  Fe11  1  0.32849935  -0.00504589  0.32858399  1
  Cr  Cr12  1  0.32658098  0.32917736  -0.00543067  1
  Cr  Cr13  1  0.49644116  0.49460516  0.16233200  1
  Cr  Cr14  1  0.32539953  0.32776920  0.32922392  1
  Cr  Cr15  1  0.32700196  0.65878664  0.99310490  1
  Cr  Cr16  1  0.49365437  0.82754848  0.16291371  1
  Cr  Cr17  1  0.32735736  0.65921740  0.32758935  1
  Cr  Cr18  1  0.66172700  -0.00544325  -0.00540907  1
  Fe  Fe19  1  0.82618433  0.16126832  0.16217484  1
  Ni  Ni20  1  0.66094541  0.99249576  0.32834725  1
  Cr  Cr21  1  0.66215226  0.32694664  -0.00536671  1
  Ni  Ni22  1  0.82855172  0.49326824  0.16052621  1
  Cr  Cr23  1  0.66160463  0.32591376  0.32530227  1
  Cr  Cr24  1  0.66123289  0.66083477  -0.00497375  1
  Cr  Cr25  1  0.82762671  0.82586279  0.16336968  1
  Fe  Fe26  1  0.66274706  0.66170662  0.32719538  1
  Fe  Fe27  1  0.16194004  0.16142706  0.49445517  1
  Cr  Cr28  1  0.99323164  0.99397716  0.65873549  1
  Cr  Cr29  1  0.16086245  0.15967210  0.82624653  1
  Ni  Ni30  1  0.15954156  0.49377764  0.49403525  1
  Cr  Cr31  1  -0.00500677  0.32838790  0.65974514  1
  Fe  Fe32  1  0.15971366  0.49321851  0.82646665  1
  Cr  Cr33  1  0.16076403  0.82888992  0.49430968  1
  Cr  Cr34  1  0.99403371  0.65998568  0.66066150  1
  Cr  Cr35  1  0.16079553  0.82790674  0.82848579  1
  Cr  Cr36  1  0.49397466  0.15993335  0.49574068  1
  Ni  Ni37  1  0.32896048  -0.00457288  0.65894006  1
  Cr  Cr38  1  0.49451290  0.16129485  0.82465667  1
  Cr  Cr39  1  0.49544835  0.49367179  0.49328655  1
  Cr  Cr40  1  0.32655170  0.32746140  0.65867786  1
  Cr  Cr41  1  0.49631508  0.49251028  0.82634247  1
  Cr  Cr42  1  0.49477522  0.82857648  0.49220054  1
  Cr  Cr43  1  0.32680901  0.66031138  0.66157120  1
  Cr  Cr44  1  0.49281177  0.82837678  0.82700964  1
  Cr  Cr45  1  0.82662860  0.16075105  0.49466294  1
  Fe  Fe46  1  0.65938925  -0.00577769  0.65974066  1
  Cr  Cr47  1  0.82681258  0.16327528  0.82708299  1
  Cr  Cr48  1  0.82701276  0.49447386  0.49454029  1
  Fe  Fe49  1  0.66107804  0.32674566  0.66089878  1
  Fe  Fe50  1  0.82797800  0.49346685  0.82730557  1
  Fe  Fe51  1  0.82568073  0.82767333  0.49292018  1
  Cr  Cr52  1  0.66152891  0.66217768  0.65990425  1
  Cr  Cr53  1  0.82850477  0.82681756  0.82572760  1
" 