6577,Ni8Fe77Cr13_17,-224.780573709382, 150.024998919068,Ni8Fe77Cr13,"# generated using pymatgen
 data_Cr9Fe41Ni4
_symmetry_space_group_name_H-M   'P 1'
_cell_length_a   7.46252056
_cell_length_b   7.46252056
_cell_length_c   10.55359779
_cell_angle_alpha   90.00000000
_cell_angle_beta   90.00000000
_cell_angle_gamma   90.00000000
_symmetry_Int_Tables_number   1
_chemical_formula_structural   Cr9Fe41Ni4
_chemical_formula_sum   'Cr9 Fe41 Ni4'
_cell_volume   587.72155607
_cell_formula_units_Z   1
loop_
 _symmetry_equiv_pos_site_id
 _symmetry_equiv_pos_as_xyz
  1  'x, y, z'
loop_
 _atom_site_type_symbol
 _atom_site_label
 _atom_site_symmetry_multiplicity
 _atom_site_fract_x
 _atom_site_fract_y
 _atom_site_fract_z
 _atom_site_occupancy
  Fe  Fe0  1  0.00081189  0.99905076  0.00079955  1
  Cr  Cr1  1  0.16479841  0.16845789  0.16604476  1
  Fe  Fe2  1  0.99842623  0.00093083  0.33430526  1
  Fe  Fe3  1  0.99978097  0.33617037  0.00121967  1
  Fe  Fe4  1  0.16532896  0.50164912  0.16691258  1
  Ni  Ni5  1  0.99787940  0.33476981  0.33346162  1
  Fe  Fe6  1  0.00074853  0.66595290  0.00120845  1
  Fe  Fe7  1  0.16568225  0.83110112  0.16614819  1
  Fe  Fe8  1  0.00050511  0.66599859  0.33333116  1
  Fe  Fe9  1  0.33227162  0.99966100  0.99938010  1
  Cr  Cr10  1  0.50147752  0.16665233  0.16558514  1
  Cr  Cr11  1  0.33301234  0.99968753  0.33324947  1
  Fe  Fe12  1  0.33354534  0.33539468  0.99891542  1
  Fe  Fe13  1  0.50145002  0.50177361  0.16636325  1
  Cr  Cr14  1  0.33318737  0.33393610  0.33507688  1
  Fe  Fe15  1  0.33261581  0.66598316  0.00105598  1
  Fe  Fe16  1  0.50156582  0.83061598  0.16629796  1
  Fe  Fe17  1  0.33191682  0.66566004  0.33278497  1
  Fe  Fe18  1  0.66770270  0.99978046  0.00139731  1
  Fe  Fe19  1  0.83391835  0.16871768  0.16690839  1
  Fe  Fe20  1  0.66971945  0.00216012  0.33421537  1
  Fe  Fe21  1  0.66747731  0.33607197  0.00064404  1
  Ni  Ni22  1  0.83446510  0.50120936  0.16654346  1
  Fe  Fe23  1  0.66878352  0.33379548  0.33426233  1
  Fe  Fe24  1  0.66749733  0.66522895  0.00157155  1
  Fe  Fe25  1  0.83366566  0.83359987  0.16672416  1
  Fe  Fe26  1  0.66844308  0.66507422  0.33268760  1
  Fe  Fe27  1  0.16631016  0.16694509  0.50128063  1
  Fe  Fe28  1  0.00179069  1.00023563  0.66570457  1
  Fe  Fe29  1  0.16824430  0.16653622  0.83398835  1
  Fe  Fe30  1  0.16633391  0.50038456  0.50068626  1
  Fe  Fe31  1  0.00135736  0.33421873  0.66548063  1
  Fe  Fe32  1  0.16642715  0.50048809  0.83359829  1
  Fe  Fe33  1  0.16594145  0.83403138  0.50163212  1
  Fe  Fe34  1  0.00355140  0.66665109  0.66604843  1
  Fe  Fe35  1  0.16668355  0.83413650  0.83331595  1
  Ni  Ni36  1  0.50121476  0.16732070  0.50293335  1
  Ni  Ni37  1  0.33144741  0.00230959  0.66810908  1
  Fe  Fe38  1  0.49885973  0.16826216  0.83300079  1
  Fe  Fe39  1  0.50063735  0.49884726  0.50069039  1
  Fe  Fe40  1  0.33400737  0.33338063  0.66650454  1
  Fe  Fe41  1  0.50007518  0.49827108  0.83450234  1
  Cr  Cr42  1  0.49990402  0.83366468  0.50006803  1
  Fe  Fe43  1  0.33119995  0.66660738  0.66703062  1
  Cr  Cr44  1  0.49936563  0.83435023  0.83379874  1
  Fe  Fe45  1  0.83334743  0.16737065  0.50020923  1
  Fe  Fe46  1  0.66612023  0.00273341  0.66577838  1
  Cr  Cr47  1  0.83396171  0.16815860  0.83428303  1
  Fe  Fe48  1  0.83385555  0.49883810  0.49851370  1
  Fe  Fe49  1  0.66560568  0.33196389  0.66625626  1
  Fe  Fe50  1  0.83466470  0.49961628  0.83536811  1
  Fe  Fe51  1  0.83502473  0.83484423  0.50003891  1
  Cr  Cr52  1  0.66910901  0.66410176  0.66739243  1
  Cr  Cr53  1  0.83466192  0.83302739  0.83307144  1
" 