4835,Ni8Fe78Cr13_0,-225.212018787612, 156.005213212995,Ni8Fe78Cr13,"# generated using pymatgen
 data_Cr4Fe21Ni2
_symmetry_space_group_name_H-M   'P 1'
_cell_length_a   7.45414010
_cell_length_b   7.45414010
_cell_length_c   10.54174603
_cell_angle_alpha   90.00000000
_cell_angle_beta   90.00000000
_cell_angle_gamma   90.00000000
_symmetry_Int_Tables_number   1
_chemical_formula_structural   Cr4Fe21Ni2
_chemical_formula_sum   'Cr8 Fe42 Ni4'
_cell_volume   585.74373423
_cell_formula_units_Z   2
loop_
 _symmetry_equiv_pos_site_id
 _symmetry_equiv_pos_as_xyz
  1  'x, y, z'
loop_
 _atom_site_type_symbol
 _atom_site_label
 _atom_site_symmetry_multiplicity
 _atom_site_fract_x
 _atom_site_fract_y
 _atom_site_fract_z
 _atom_site_occupancy
  Fe  Fe0  1  0.00267161  0.00203787  0.00261242  1
  Fe  Fe1  1  0.16687579  0.16607914  0.16819048  1
  Fe  Fe2  1  0.00098645  0.00147706  0.33238406  1
  Fe  Fe3  1  0.99892682  0.33408440  1.00078762  1
  Fe  Fe4  1  0.16635844  0.50266918  0.16859079  1
  Fe  Fe5  1  0.00225511  0.33483452  0.33422003  1
  Fe  Fe6  1  0.00267456  0.66648119  0.00330569  1
  Ni  Ni7  1  0.16654787  0.83460303  0.16666527  1
  Ni  Ni8  1  0.00135714  0.66663390  0.33246813  1
  Fe  Fe9  1  0.33327305  0.99957464  0.00198096  1
  Fe  Fe10  1  0.49957206  0.16613202  0.16824092  1
  Fe  Fe11  1  0.33415947  1.00086113  0.33304731  1
  Cr  Cr12  1  0.33381759  0.33421933  1.00072240  1
  Fe  Fe13  1  0.49957381  0.50209190  0.16818099  1
  Fe  Fe14  1  0.33256985  0.33512953  0.33441184  1
  Fe  Fe15  1  0.33374148  0.66847294  0.00151341  1
  Fe  Fe16  1  0.49870524  0.83437126  0.16893158  1
  Fe  Fe17  1  0.33445491  0.66660583  0.33345790  1
  Cr  Cr18  1  0.66656771  0.00209455  0.00145416  1
  Fe  Fe19  1  0.83614540  0.16694788  0.16744409  1
  Fe  Fe20  1  0.66744769  0.99958828  0.33325927  1
  Fe  Fe21  1  0.66863919  0.33454634  1.00071960  1
  Fe  Fe22  1  0.83666449  0.50179524  0.16785028  1
  Cr  Cr23  1  0.66699576  0.33409240  0.33336954  1
  Cr  Cr24  1  0.66705739  0.66628441  0.00194033  1
  Fe  Fe25  1  0.83671356  0.83385411  0.16935560  1
  Fe  Fe26  1  0.66715386  0.66787226  0.33367230  1
  Fe  Fe27  1  0.16795723  0.16939833  0.50098129  1
  Fe  Fe28  1  1.00085808  0.00382703  0.66759537  1
  Fe  Fe29  1  0.16718217  0.16864924  0.83342394  1
  Fe  Fe30  1  0.16761289  0.49993613  0.50051601  1
  Fe  Fe31  1  0.00086673  0.33402717  0.66758916  1
  Fe  Fe32  1  0.16723790  0.50033859  0.83348318  1
  Cr  Cr33  1  0.16705052  0.83450030  0.50103470  1
  Fe  Fe34  1  1.00085794  0.66474953  0.66695905  1
  Cr  Cr35  1  0.16780230  0.83471203  0.83536582  1
  Fe  Fe36  1  0.50015073  0.16702371  0.50151717  1
  Fe  Fe37  1  0.33554334  0.00227911  0.66757324  1
  Fe  Fe38  1  0.50087359  0.16774547  0.83283653  1
  Ni  Ni39  1  0.50029534  0.49970860  0.50100432  1
  Fe  Fe40  1  0.33486944  0.33489796  0.66772088  1
  Ni  Ni41  1  0.50145316  0.49882314  0.83351237  1
  Fe  Fe42  1  0.50094135  0.83360442  0.50094643  1
  Fe  Fe43  1  0.33641468  0.66541796  0.66762757  1
  Fe  Fe44  1  0.49944969  0.83355213  0.83272343  1
  Fe  Fe45  1  0.83448850  0.16861003  0.50165855  1
  Fe  Fe46  1  0.66619886  0.00226718  0.66773271  1
  Fe  Fe47  1  0.83453583  0.17009021  0.83349427  1
  Fe  Fe48  1  0.83482997  0.50072434  0.50119035  1
  Fe  Fe49  1  0.66686209  0.33489698  0.66737653  1
  Fe  Fe50  1  0.83448389  0.49889904  0.83355408  1
  Cr  Cr51  1  0.83442623  0.83449910  0.49993805  1
  Fe  Fe52  1  0.66532873  0.66543105  0.66778525  1
  Cr  Cr53  1  0.83627542  0.83470978  0.83283570  1
" 