800,Ni8Fe78Cr13_9,-225.053971470867, 154.320549652128,Ni8Fe78Cr13,"# generated using pymatgen
 data_Cr4Fe21Ni2
_symmetry_space_group_name_H-M   'P 1'
_cell_length_a   7.45559872
_cell_length_b   7.45559872
_cell_length_c   10.54380882
_cell_angle_alpha   90.00000000
_cell_angle_beta   90.00000000
_cell_angle_gamma   90.00000000
_symmetry_Int_Tables_number   1
_chemical_formula_structural   Cr4Fe21Ni2
_chemical_formula_sum   'Cr8 Fe42 Ni4'
_cell_volume   586.08765302
_cell_formula_units_Z   2
loop_
 _symmetry_equiv_pos_site_id
 _symmetry_equiv_pos_as_xyz
  1  'x, y, z'
loop_
 _atom_site_type_symbol
 _atom_site_label
 _atom_site_symmetry_multiplicity
 _atom_site_fract_x
 _atom_site_fract_y
 _atom_site_fract_z
 _atom_site_occupancy
  Fe  Fe0  1  0.99974712  1.00036813  0.00153017  1
  Fe  Fe1  1  0.16707960  0.16891602  0.16812668  1
  Fe  Fe2  1  1.00026031  0.00086476  0.33404409  1
  Fe  Fe3  1  0.00202614  0.33353918  0.00077956  1
  Fe  Fe4  1  0.16950437  0.49966418  0.16764161  1
  Fe  Fe5  1  1.00021375  0.33255789  0.33409715  1
  Fe  Fe6  1  0.00173509  0.66838796  0.99997913  1
  Fe  Fe7  1  0.16709864  0.83372456  0.16816630  1
  Fe  Fe8  1  0.00225258  0.66887974  0.33418823  1
  Cr  Cr9  1  0.33387772  0.00191082  0.00090955  1
  Ni  Ni10  1  0.50251057  0.16815901  0.16805806  1
  Fe  Fe11  1  0.33455566  0.00084662  0.33391223  1
  Fe  Fe12  1  0.33476054  0.33551374  0.00134787  1
  Ni  Ni13  1  0.49735012  0.49988998  0.16680286  1
  Fe  Fe14  1  0.33566332  0.33364431  0.33278550  1
  Fe  Fe15  1  0.33434581  0.66572234  0.00112449  1
  Fe  Fe16  1  0.50153092  0.83446949  0.16742669  1
  Fe  Fe17  1  0.33363719  0.66781746  0.33304176  1
  Fe  Fe18  1  0.66818275  0.00077708  0.00215357  1
  Ni  Ni19  1  0.83335458  0.16515023  0.16791050  1
  Fe  Fe20  1  0.66748879  0.00288497  0.33342599  1
  Fe  Fe21  1  0.66551386  0.33352477  0.00185715  1
  Cr  Cr22  1  0.83486194  0.49903700  0.16668955  1
  Fe  Fe23  1  0.66642470  0.33164764  0.33375636  1
  Fe  Fe24  1  0.66621815  0.66799128  0.99992975  1
  Fe  Fe25  1  0.83367063  0.83688623  0.16669684  1
  Cr  Cr26  1  0.66648530  0.66670541  0.33357262  1
  Fe  Fe27  1  0.16812646  0.16674858  0.49879587  1
  Cr  Cr28  1  0.00246615  0.99995497  0.66706125  1
  Fe  Fe29  1  0.16884890  0.16884967  0.83537920  1
  Cr  Cr30  1  0.16831440  0.50301516  0.50000589  1
  Cr  Cr31  1  0.00082691  0.33480372  0.66742932  1
  Fe  Fe32  1  0.16787639  0.50121120  0.83460001  1
  Fe  Fe33  1  0.16742577  0.83413848  0.49931010  1
  Fe  Fe34  1  0.99954760  0.66833278  0.66813184  1
  Fe  Fe35  1  0.16652936  0.83224865  0.83482664  1
  Fe  Fe36  1  0.50118789  0.16827894  0.49960769  1
  Cr  Cr37  1  0.33393011  0.00170403  0.66755741  1
  Fe  Fe38  1  0.50063630  0.16876439  0.83457199  1
  Fe  Fe39  1  0.50181135  0.50044904  0.50131784  1
  Fe  Fe40  1  0.33655963  0.33511611  0.66817083  1
  Fe  Fe41  1  0.50127389  0.50093742  0.83424679  1
  Fe  Fe42  1  0.50090719  0.83357049  0.50124397  1
  Fe  Fe43  1  0.33509567  0.66676650  0.66813483  1
  Fe  Fe44  1  0.50270007  0.83260638  0.83363228  1
  Fe  Fe45  1  0.83299070  0.16763926  0.49898566  1
  Fe  Fe46  1  0.66690707  0.99956355  0.66673092  1
  Cr  Cr47  1  0.83190483  0.16636875  0.83599285  1
  Fe  Fe48  1  0.83243487  0.50115266  0.50104901  1
  Fe  Fe49  1  0.66533133  0.33511136  0.66669224  1
  Fe  Fe50  1  0.83315547  0.50326257  0.83451746  1
  Fe  Fe51  1  0.83397137  0.83350511  0.50119939  1
  Ni  Ni52  1  0.66727560  0.66626095  0.66791043  1
  Fe  Fe53  1  0.83307605  0.83161996  0.83440552  1
" 