2141,Ni8Fe66Cr24_13,-223.444262375939, 166.931274925972,Ni8Fe66Cr24,"# generated using pymatgen
 data_Cr7(Fe9Ni)2
_symmetry_space_group_name_H-M   'P 1'
_cell_length_a   7.47224421
_cell_length_b   7.47224421
_cell_length_c   10.56734911
_cell_angle_alpha   90.00000000
_cell_angle_beta   90.00000000
_cell_angle_gamma   90.00000000
_symmetry_Int_Tables_number   1
_chemical_formula_structural   Cr7(Fe9Ni)2
_chemical_formula_sum   'Cr14 Fe36 Ni4'
_cell_volume   590.02195152
_cell_formula_units_Z   2
loop_
 _symmetry_equiv_pos_site_id
 _symmetry_equiv_pos_as_xyz
  1  'x, y, z'
loop_
 _atom_site_type_symbol
 _atom_site_label
 _atom_site_symmetry_multiplicity
 _atom_site_fract_x
 _atom_site_fract_y
 _atom_site_fract_z
 _atom_site_occupancy
  Fe  Fe0  1  -0.00009727  0.99825773  -0.00033930  1
  Fe  Fe1  1  0.16637668  0.16541918  0.16685481  1
  Fe  Fe2  1  -0.00016938  0.99957923  0.33272942  1
  Cr  Cr3  1  0.99899953  0.33135353  0.00036251  1
  Cr  Cr4  1  0.16682609  0.49977852  0.16770950  1
  Fe  Fe5  1  0.99932659  0.33329057  0.33254515  1
  Fe  Fe6  1  0.99923876  0.66773174  -0.00007976  1
  Fe  Fe7  1  0.16584825  0.83347892  0.16668124  1
  Fe  Fe8  1  0.99951591  0.66608842  0.33294677  1
  Fe  Fe9  1  0.33266914  0.99932280  0.00012892  1
  Fe  Fe10  1  0.49900847  0.16600319  0.16614302  1
  Fe  Fe11  1  0.33361016  0.99878719  0.33305186  1
  Fe  Fe12  1  0.33359720  0.33263476  0.00006557  1
  Fe  Fe13  1  0.49969391  0.50006137  0.16685603  1
  Fe  Fe14  1  0.33252802  0.33248865  0.33248850  1
  Fe  Fe15  1  0.33300866  0.66699971  0.99945966  1
  Fe  Fe16  1  0.49953811  0.83289304  0.16716265  1
  Fe  Fe17  1  0.33312322  0.66768246  0.33370583  1
  Fe  Fe18  1  0.66638458  0.99885413  0.00057185  1
  Fe  Fe19  1  0.83357125  0.16557542  0.16665845  1
  Fe  Fe20  1  0.66551529  0.99898099  0.33277875  1
  Cr  Cr21  1  0.66607719  0.33460351  0.00090787  1
  Ni  Ni22  1  0.83324187  0.50071520  0.16712954  1
  Cr  Cr23  1  0.66769559  0.33315660  0.33207539  1
  Cr  Cr24  1  0.66578656  0.66535202  0.99903921  1
  Fe  Fe25  1  0.83356955  0.83279184  0.16682059  1
  Fe  Fe26  1  0.66631453  0.66717540  0.33202699  1
  Cr  Cr27  1  0.16643405  0.16715922  0.50099095  1
  Ni  Ni28  1  0.00141811  -0.00025789  0.66727394  1
  Fe  Fe29  1  0.16653334  0.16473293  0.83215035  1
  Fe  Fe30  1  0.16525797  0.50116786  0.49919870  1
  Fe  Fe31  1  0.00006805  0.33319201  0.66600289  1
  Cr  Cr32  1  0.16650255  0.49944532  0.83231397  1
  Ni  Ni33  1  0.16677973  0.83257016  0.49930429  1
  Fe  Fe34  1  -0.00022890  0.66692804  0.66609182  1
  Fe  Fe35  1  0.16552922  0.83489395  0.83281080  1
  Fe  Fe36  1  0.49938157  0.16342563  0.49977906  1
  Fe  Fe37  1  0.33271696  0.99912995  0.66577626  1
  Cr  Cr38  1  0.49823709  0.16544236  0.83195324  1
  Cr  Cr39  1  0.49797451  0.49987298  0.49849196  1
  Fe  Fe40  1  0.33177472  0.33177106  0.66640290  1
  Fe  Fe41  1  0.49926263  0.49994196  0.83334627  1
  Ni  Ni42  1  0.49903755  0.83510824  0.49875323  1
  Cr  Cr43  1  0.33255751  0.66882396  0.66575789  1
  Fe  Fe44  1  0.49926066  0.83339921  0.83309909  1
  Fe  Fe45  1  0.83310888  0.16532617  0.50010544  1
  Fe  Fe46  1  0.66597768  0.99883116  0.66560218  1
  Cr  Cr47  1  0.83364813  0.16387824  0.83200443  1
  Fe  Fe48  1  0.83544223  0.49987700  0.49875283  1
  Cr  Cr49  1  0.66738059  0.33337123  0.66596970  1
  Fe  Fe50  1  0.83329085  0.50094352  0.83295327  1
  Cr  Cr51  1  0.83269122  0.83377837  0.49954460  1
  Cr  Cr52  1  0.66621936  0.66615123  0.66768471  1
  Fe  Fe53  1  0.83416798  0.83326277  0.83262694  1
" 