330,Ni90Fe3Cr5_7,-237.812465000529, 175.724759235374,Ni90Fe3Cr5,"# generated using pymatgen
 data_Cr2FeNi24
_symmetry_space_group_name_H-M   'P 1'
_cell_length_a   7.45614251
_cell_length_b   7.45614251
_cell_length_c   10.54457786
_cell_angle_alpha   90.00000000
_cell_angle_beta   90.00000000
_cell_angle_gamma   90.00000000
_symmetry_Int_Tables_number   1
_chemical_formula_structural   Cr2FeNi24
_chemical_formula_sum   'Cr4 Fe2 Ni48'
_cell_volume   586.21590689
_cell_formula_units_Z   2
loop_
 _symmetry_equiv_pos_site_id
 _symmetry_equiv_pos_as_xyz
  1  'x, y, z'
loop_
 _atom_site_type_symbol
 _atom_site_label
 _atom_site_symmetry_multiplicity
 _atom_site_fract_x
 _atom_site_fract_y
 _atom_site_fract_z
 _atom_site_occupancy
  Ni  Ni0  1  1.00017556  0.00128578  0.00248327  1
  Ni  Ni1  1  0.16729301  0.16765374  0.16688966  1
  Ni  Ni2  1  0.99994495  0.00151674  0.33416686  1
  Ni  Ni3  1  0.00260874  0.33406668  1.00057947  1
  Ni  Ni4  1  0.16907483  0.50029083  0.16707657  1
  Ni  Ni5  1  0.00217363  0.33324716  0.33477045  1
  Ni  Ni6  1  1.00017241  0.66684085  1.00036947  1
  Fe  Fe7  1  0.16771528  0.83437018  0.16772428  1
  Ni  Ni8  1  0.00099584  0.66742966  0.33522147  1
  Ni  Ni9  1  0.33515227  0.00216110  0.00136898  1
  Ni  Ni10  1  0.50023666  0.16667056  0.16700081  1
  Ni  Ni11  1  0.33456113  0.00133548  0.33422223  1
  Ni  Ni12  1  0.33358559  0.33406415  1.00020132  1
  Ni  Ni13  1  0.49844788  0.50127366  0.16718666  1
  Ni  Ni14  1  0.33320152  0.33429874  0.33409076  1
  Ni  Ni15  1  0.33515055  0.66597016  0.00185042  1
  Ni  Ni16  1  0.50103925  0.83424816  0.16707682  1
  Ni  Ni17  1  0.33456170  0.66655972  0.33398079  1
  Ni  Ni18  1  0.66687011  0.99972242  0.00144319  1
  Ni  Ni19  1  0.83466265  0.16506421  0.16737663  1
  Ni  Ni20  1  0.66768850  1.00015944  0.33390440  1
  Ni  Ni21  1  0.66599664  0.33406553  0.00095014  1
  Cr  Cr22  1  0.83432528  0.50079125  0.16718637  1
  Fe  Fe23  1  0.66656290  0.33318026  0.33499832  1
  Ni  Ni24  1  0.66687195  0.66840501  0.99933469  1
  Ni  Ni25  1  0.83368176  0.83603096  0.16688938  1
  Ni  Ni26  1  0.66663654  0.66879048  0.33495980  1
  Ni  Ni27  1  0.16792713  0.16639824  0.50039203  1
  Ni  Ni28  1  1.00051322  0.99920594  0.66554199  1
  Ni  Ni29  1  0.16990656  0.16839214  0.83491450  1
  Ni  Ni30  1  0.16792616  0.50172976  0.50002024  1
  Cr  Cr31  1  0.00198671  0.33489540  0.66698679  1
  Ni  Ni32  1  0.16811444  0.49992863  0.83510053  1
  Ni  Ni33  1  0.16705566  0.83406463  0.50038051  1
  Ni  Ni34  1  0.99945949  0.66810491  0.66660256  1
  Cr  Cr35  1  0.16732863  0.83427504  0.83395047  1
  Ni  Ni36  1  0.50064779  0.16731707  0.50109033  1
  Ni  Ni37  1  0.33523289  0.00187062  0.66660091  1
  Ni  Ni38  1  0.49896192  0.16760678  0.83410042  1
  Ni  Ni39  1  0.50064803  0.50081205  0.50071863  1
  Ni  Ni40  1  0.33554273  0.33382975  0.66790337  1
  Ni  Ni41  1  0.50075291  0.50070743  0.83428652  1
  Ni  Ni42  1  0.50060236  0.83406362  0.50102073  1
  Ni  Ni43  1  0.33523078  0.66649386  0.66636137  1
  Ni  Ni44  1  0.50240858  0.83388000  0.83409776  1
  Ni  Ni45  1  0.83361660  0.16644563  0.49947180  1
  Ni  Ni46  1  0.66644822  0.99951551  0.66684575  1
  Cr  Cr47  1  0.83342190  0.16657762  0.83526702  1
  Ni  Ni48  1  0.83361651  0.50168422  0.50022267  1
  Ni  Ni49  1  0.66484148  0.33488496  0.66613276  1
  Ni  Ni50  1  0.83332653  0.50337013  0.83496883  1
  Ni  Ni51  1  0.83453587  0.83406361  0.50126196  1
  Ni  Ni52  1  0.66750327  0.66779308  0.66790238  1
  Ni  Ni53  1  0.83254577  0.83208572  0.83404324  1
" 