3231,Ni90Fe2Cr7_7,-236.505406842399, 168.733769424878,Ni90Fe2Cr7,"# generated using pymatgen
 data_Cr5FeNi48
_symmetry_space_group_name_H-M   'P 1'
_cell_length_a   7.46498565
_cell_length_b   7.46498565
_cell_length_c   10.55708395
_cell_angle_alpha   90.00000000
_cell_angle_beta   90.00000000
_cell_angle_gamma   90.00000000
_symmetry_Int_Tables_number   1
_chemical_formula_structural   Cr5FeNi48
_chemical_formula_sum   'Cr5 Fe1 Ni48'
_cell_volume   588.30417385
_cell_formula_units_Z   1
loop_
 _symmetry_equiv_pos_site_id
 _symmetry_equiv_pos_as_xyz
  1  'x, y, z'
loop_
 _atom_site_type_symbol
 _atom_site_label
 _atom_site_symmetry_multiplicity
 _atom_site_fract_x
 _atom_site_fract_y
 _atom_site_fract_z
 _atom_site_occupancy
  Ni  Ni0  1  0.99908123  0.00100501  0.99937331  1
  Ni  Ni1  1  0.16642930  0.16849164  0.16682208  1
  Ni  Ni2  1  0.99651385  0.00108321  0.33255780  1
  Ni  Ni3  1  0.00030201  0.33354864  0.00018871  1
  Ni  Ni4  1  0.16690635  0.49809395  0.16670593  1
  Ni  Ni5  1  0.99920622  0.33485480  0.33245612  1
  Ni  Ni6  1  0.99919168  0.66583156  0.99879648  1
  Cr  Cr7  1  0.16644873  0.83420841  0.16747540  1
  Ni  Ni8  1  0.99795249  0.66446961  0.33388114  1
  Ni  Ni9  1  0.33450147  0.00110171  0.99910175  1
  Ni  Ni10  1  0.50046113  0.16714136  0.16630873  1
  Ni  Ni11  1  0.33614540  0.00260889  0.33131941  1
  Ni  Ni12  1  0.33215232  0.33254568  0.00138641  1
  Ni  Ni13  1  0.50064935  0.50000613  0.16721437  1
  Ni  Ni14  1  0.33456548  0.33443067  0.33272890  1
  Ni  Ni15  1  0.33324997  0.66674687  0.00025964  1
  Ni  Ni16  1  0.50185128  0.83322159  0.16658675  1
  Ni  Ni17  1  0.33433371  0.66339143  0.33261775  1
  Ni  Ni18  1  0.66686811  0.99994098  0.00020233  1
  Ni  Ni19  1  0.83352281  0.16714936  0.16702210  1
  Ni  Ni20  1  0.66767601  0.00125561  0.33272439  1
  Ni  Ni21  1  0.66803510  0.33235788  0.00127181  1
  Ni  Ni22  1  0.83284781  0.49954020  0.16621031  1
  Ni  Ni23  1  0.66661954  0.33324646  0.33382971  1
  Ni  Ni24  1  0.66797207  0.66802941  0.00136514  1
  Ni  Ni25  1  0.83145237  0.83373131  0.16693598  1
  Ni  Ni26  1  0.66806132  0.66591497  0.33248540  1
  Cr  Cr27  1  0.16588370  0.16768301  0.49914303  1
  Ni  Ni28  1  0.99797953  0.99999822  0.66836986  1
  Ni  Ni29  1  0.16573002  0.16673887  0.83373257  1
  Ni  Ni30  1  0.16688885  0.49966193  0.50044130  1
  Ni  Ni31  1  0.99933911  0.33456398  0.66765904  1
  Ni  Ni32  1  0.16578922  0.49939651  0.83327218  1
  Cr  Cr33  1  0.16500331  0.83268197  0.49997960  1
  Ni  Ni34  1  0.99916944  0.66581432  0.66772449  1
  Ni  Ni35  1  0.16714811  0.83419498  0.83304260  1
  Ni  Ni36  1  0.50208225  0.16885050  0.50104305  1
  Ni  Ni37  1  0.33467294  0.00131718  0.66995357  1
  Fe  Fe38  1  0.50079744  0.16602764  0.83367490  1
  Ni  Ni39  1  0.50066914  0.49837465  0.49987531  1
  Ni  Ni40  1  0.33320189  0.33347308  0.66639496  1
  Cr  Cr41  1  0.50178178  0.50058495  0.83363694  1
  Cr  Cr42  1  0.50141836  0.83309150  0.49975433  1
  Ni  Ni43  1  0.33231671  0.66562891  0.66753653  1
  Ni  Ni44  1  0.50028786  0.83426699  0.83373018  1
  Ni  Ni45  1  0.83181509  0.16716203  0.50007481  1
  Ni  Ni46  1  0.66781701  0.00099159  0.66755547  1
  Ni  Ni47  1  0.83442571  0.16708980  0.83328713  1
  Ni  Ni48  1  0.83285288  0.49955051  0.50067583  1
  Ni  Ni49  1  0.66798459  0.33239303  0.66548874  1
  Ni  Ni50  1  0.83442000  0.49923654  0.83352431  1
  Ni  Ni51  1  0.83308859  0.83371509  0.50021203  1
  Ni  Ni52  1  0.66894289  0.66699213  0.66657607  1
  Ni  Ni53  1  0.83295433  0.83403063  0.83327117  1
" 