748,Ni90Fe2Cr7_2,-236.687967837491, 171.768552929682,Ni90Fe2Cr7,"# generated using pymatgen
 data_Cr5FeNi48
_symmetry_space_group_name_H-M   'P 1'
_cell_length_a   7.46291852
_cell_length_b   7.46291852
_cell_length_c   10.55416058
_cell_angle_alpha   90.00000000
_cell_angle_beta   90.00000000
_cell_angle_gamma   90.00000000
_symmetry_Int_Tables_number   1
_chemical_formula_structural   Cr5FeNi48
_chemical_formula_sum   'Cr5 Fe1 Ni48'
_cell_volume   587.81558613
_cell_formula_units_Z   1
loop_
 _symmetry_equiv_pos_site_id
 _symmetry_equiv_pos_as_xyz
  1  'x, y, z'
loop_
 _atom_site_type_symbol
 _atom_site_label
 _atom_site_symmetry_multiplicity
 _atom_site_fract_x
 _atom_site_fract_y
 _atom_site_fract_z
 _atom_site_occupancy
  Ni  Ni0  1  0.00197911  1.00009896  0.00037530  1
  Ni  Ni1  1  0.16673242  0.16674993  0.16730404  1
  Ni  Ni2  1  0.00074131  0.00034395  0.33152215  1
  Ni  Ni3  1  0.00247220  0.33370688  0.00037172  1
  Ni  Ni4  1  0.16689097  0.50074925  0.16721408  1
  Ni  Ni5  1  0.00165219  0.33456265  0.33262141  1
  Ni  Ni6  1  0.00037718  0.66703766  1.00009877  1
  Ni  Ni7  1  0.16716173  0.83334367  0.16648300  1
  Ni  Ni8  1  0.99971057  0.66585708  0.33324766  1
  Ni  Ni9  1  0.33182877  0.00058055  0.00037280  1
  Ni  Ni10  1  0.49877061  0.16691515  0.16922106  1
  Ni  Ni11  1  0.33416225  0.00123939  0.33262014  1
  Ni  Ni12  1  0.33164684  0.33353120  0.00038736  1
  Ni  Ni13  1  0.49952495  0.50143207  0.16778554  1
  Ni  Ni14  1  0.33318603  0.33358794  0.33407866  1
  Ni  Ni15  1  0.33324123  0.66672626  1.00009679  1
  Ni  Ni16  1  0.49902540  0.83251496  0.16769648  1
  Ni  Ni17  1  0.33409229  0.66599337  0.33301515  1
  Cr  Cr18  1  0.66708736  0.99882776  1.00009131  1
  Ni  Ni19  1  0.83532249  0.16722409  0.16846734  1
  Ni  Ni20  1  0.66587846  0.99930696  0.33304115  1
  Cr  Cr21  1  0.66674585  0.33480601  1.00008865  1
  Ni  Ni22  1  0.83441753  0.50093477  0.16765573  1
  Ni  Ni23  1  0.66600092  0.33450067  0.33279466  1
  Ni  Ni24  1  0.66720665  0.66720901  0.00045998  1
  Ni  Ni25  1  0.83459331  0.83266549  0.16871228  1
  Ni  Ni26  1  0.66689658  0.66689591  0.33337999  1
  Ni  Ni27  1  0.16790702  0.16790415  0.50022344  1
  Ni  Ni28  1  0.00083214  0.00043974  0.66896176  1
  Ni  Ni29  1  0.16674313  0.16675975  0.83329383  1
  Ni  Ni30  1  0.16657050  0.49950188  0.50041661  1
  Ni  Ni31  1  0.00167455  0.33451726  0.66780417  1
  Ni  Ni32  1  0.16689848  0.50067594  0.83318790  1
  Cr  Cr33  1  0.16780019  0.83368931  0.50043894  1
  Ni  Ni34  1  0.00119659  0.66580987  0.66751240  1
  Ni  Ni35  1  0.16715592  0.83341916  0.83389351  1
  Ni  Ni36  1  0.49948642  0.16657352  0.50042049  1
  Ni  Ni37  1  0.33412147  0.00126794  0.66780590  1
  Ni  Ni38  1  0.49870224  0.16692329  0.83119249  1
  Ni  Ni39  1  0.49987068  0.49988302  0.49937290  1
  Ni  Ni40  1  0.33315423  0.33355117  0.66636587  1
  Ni  Ni41  1  0.49857764  0.50046267  0.83370557  1
  Ni  Ni42  1  0.49992902  0.83430591  0.49937587  1
  Ni  Ni43  1  0.33270198  0.66599949  0.66768815  1
  Ni  Ni44  1  0.49814686  0.83345584  0.83372451  1
  Cr  Cr45  1  0.83370056  0.16778897  0.50043888  1
  Ni  Ni46  1  0.66583111  0.00081775  0.66773753  1
  Ni  Ni47  1  0.83539451  0.16721847  0.83191700  1
  Ni  Ni48  1  0.83432068  0.49992388  0.49937591  1
  Ni  Ni49  1  0.66600825  0.33308542  0.66792440  1
  Ni  Ni50  1  0.83533737  0.50004498  0.83376221  1
  Fe  Fe51  1  0.83319625  0.83315133  0.49940366  1
  Cr  Cr52  1  0.66682735  0.66682429  0.66709558  1
  Ni  Ni53  1  0.83550826  0.83360199  0.83269594  1
" 