7413,Ni90Fe4Cr4_1,-237.755955597832, 175.901494897089,Ni90Fe4Cr4,"# generated using pymatgen
 data_Cr2FeNi24
_symmetry_space_group_name_H-M   'P 1'
_cell_length_a   7.45767980
_cell_length_b   7.45767980
_cell_length_c   10.54675192
_cell_angle_alpha   90.00000000
_cell_angle_beta   90.00000000
_cell_angle_gamma   90.00000000
_symmetry_Int_Tables_number   1
_chemical_formula_structural   Cr2FeNi24
_chemical_formula_sum   'Cr4 Fe2 Ni48'
_cell_volume   586.57857481
_cell_formula_units_Z   2
loop_
 _symmetry_equiv_pos_site_id
 _symmetry_equiv_pos_as_xyz
  1  'x, y, z'
loop_
 _atom_site_type_symbol
 _atom_site_label
 _atom_site_symmetry_multiplicity
 _atom_site_fract_x
 _atom_site_fract_y
 _atom_site_fract_z
 _atom_site_occupancy
  Ni  Ni0  1  1.00058907  1.00030324  0.00092963  1
  Ni  Ni1  1  0.16648269  0.16529012  0.16669515  1
  Fe  Fe2  1  0.00082123  0.99898530  0.33273841  1
  Ni  Ni3  1  1.00049416  0.33397593  0.00093329  1
  Fe  Fe4  1  0.16678705  0.50186878  0.16587527  1
  Ni  Ni5  1  0.99931728  0.33475518  0.33175750  1
  Ni  Ni6  1  1.00010888  0.66760744  1.00023196  1
  Ni  Ni7  1  0.16751475  0.83446680  0.16742677  1
  Ni  Ni8  1  0.99937152  0.66778821  0.33331803  1
  Ni  Ni9  1  0.33418304  1.00051370  0.00077235  1
  Ni  Ni10  1  0.50125668  0.16678010  0.16631061  1
  Ni  Ni11  1  0.33485688  0.99898927  0.33416964  1
  Ni  Ni12  1  0.33392418  0.33343415  1.00056843  1
  Ni  Ni13  1  0.50246754  0.50183572  0.16670985  1
  Cr  Cr14  1  0.33503240  0.33229236  0.33330627  1
  Ni  Ni15  1  0.33412558  0.66800946  0.00128494  1
  Ni  Ni16  1  0.50013064  0.83344359  0.16706926  1
  Ni  Ni17  1  0.33471406  0.67057133  0.33292987  1
  Ni  Ni18  1  0.66713865  1.00007231  0.00094235  1
  Ni  Ni19  1  0.83402804  0.16768103  0.16705569  1
  Ni  Ni20  1  0.66526093  0.99920881  0.33250606  1
  Ni  Ni21  1  0.66739759  0.33393427  0.00083255  1
  Ni  Ni22  1  0.83300385  0.50071826  0.16767540  1
  Ni  Ni23  1  0.66826404  0.33442760  0.33337975  1
  Ni  Ni24  1  0.66758499  0.66788359  0.00084245  1
  Ni  Ni25  1  0.83420415  0.83341116  0.16718049  1
  Ni  Ni26  1  0.66778595  0.66834584  0.33418378  1
  Ni  Ni27  1  0.16868137  0.16369199  0.50047577  1
  Ni  Ni28  1  0.00129514  0.99785038  0.66745012  1
  Ni  Ni29  1  0.16823733  0.16575493  0.83458067  1
  Cr  Cr30  1  0.16762667  0.50302292  0.50066569  1
  Cr  Cr31  1  0.00069781  0.33442006  0.66979200  1
  Ni  Ni32  1  0.16872942  0.50202790  0.83598650  1
  Ni  Ni33  1  0.16746821  0.83540229  0.50050484  1
  Ni  Ni34  1  0.99948931  0.66996979  0.66833804  1
  Ni  Ni35  1  0.16748348  0.83404406  0.83366537  1
  Ni  Ni36  1  0.50025377  0.16622458  0.50148766  1
  Ni  Ni37  1  0.33446431  1.00029383  0.66687932  1
  Ni  Ni38  1  0.50064439  0.16739089  0.83412831  1
  Ni  Ni39  1  0.50302868  0.50192780  0.50136618  1
  Ni  Ni40  1  0.33620523  0.33273977  0.66806285  1
  Ni  Ni41  1  0.50057604  0.50094492  0.83370107  1
  Ni  Ni42  1  0.50041779  0.83372779  0.50020137  1
  Ni  Ni43  1  0.33489458  0.66880512  0.66787617  1
  Ni  Ni44  1  0.50027395  0.83356606  0.83462159  1
  Cr  Cr45  1  0.83294499  0.16631943  0.49919965  1
  Ni  Ni46  1  0.66625294  0.99909330  0.66845290  1
  Ni  Ni47  1  0.83305987  0.16619297  0.83561054  1
  Ni  Ni48  1  0.83131734  0.50295937  0.49966896  1
  Ni  Ni49  1  0.66497235  0.33461906  0.66762431  1
  Ni  Ni50  1  0.83243125  0.50172419  0.83458152  1
  Ni  Ni51  1  0.83394113  0.83234134  0.50042204  1
  Ni  Ni52  1  0.66755331  0.66819167  0.66680515  1
  Ni  Ni53  1  0.83412898  0.83407554  0.83414112  1
" 